AV-unprocessed.smi:2061|AV-procd|sdf|8387|dock2
  -GOLD-   2272011 63D 1   1.00000     0.00000
 Structure written by MMmdl.
 45 46  0  0  0  0  0  0  0  0  3 V2000
  147.2382  136.7461  162.9988 C   0  0  0  0  0  0  0  0  0  0  0  0
  147.2260  136.3506  161.5616 C   0  0  0  0  0  0  0  0  0  0  0  0
  146.7966  135.2279  160.9121 C   0  0  0  0  0  0  0  0  0  0  0  0
  147.0870  135.5099  159.5492 C   0  0  0  0  0  0  0  0  0  0  0  0
  146.8314  134.7080  158.5038 N   0  5  0  0  0  0  0  0  0  0  0  0
  147.5727  134.7987  157.3763 C   0  0  0  0  0  0  0  0  0  0  0  0
  148.5031  134.0594  157.0475 O   0  0  0  0  0  0  0  0  0  0  0  0
  147.2122  135.8123  156.5788 N   0  0  0  0  0  0  0  0  0  0  0  0
  147.8433  136.1551  155.3092 C   0  0  0  0  0  0  0  0  0  0  0  0
  149.2083  136.8648  155.5062 C   0  0  1  0  0  0  0  0  0  0  0  0
  150.2937  135.8308  155.8941 C   0  0  0  0  0  0  0  0  0  0  0  0
  149.6255  137.6530  154.2948 N   0  3  1  0  0  0  0  0  0  0  0  0
  148.9121  138.9395  154.0680 C   0  0  0  0  0  0  0  0  0  0  0  0
  149.3775  140.0161  155.0705 C   0  0  2  0  0  0  0  0  0  0  0  0
  148.6914  141.3646  154.8284 C   0  0  0  0  0  0  0  0  0  0  0  0
  150.7819  140.2027  154.9186 O   0  0  0  0  0  0  0  0  0  0  0  0
  151.5372  139.0201  155.1656 C   0  0  2  0  0  0  0  0  0  0  0  0
  153.0218  139.3633  155.0007 C   0  0  0  0  0  0  0  0  0  0  0  0
  151.0869  137.9157  154.1836 C   0  0  0  0  0  0  0  0  0  0  0  0
  147.6293  136.7047  159.3846 N   0  0  0  0  0  0  0  0  0  0  0  0
  147.7284  137.2478  160.6710 O   0  0  0  0  0  0  0  0  0  0  0  0
  146.2390  136.6711  163.4280 H   0  0  0  0  0  0  0  0  0  0  0  0
  147.5814  137.7735  163.1218 H   0  0  0  0  0  0  0  0  0  0  0  0
  147.9018  136.0973  163.5708 H   0  0  0  0  0  0  0  0  0  0  0  0
  146.3493  134.3447  161.3426 H   0  0  0  0  0  0  0  0  0  0  0  0
  146.4454  136.3930  156.8854 H   0  0  0  0  0  0  0  0  0  0  0  0
  147.9747  135.2573  154.7028 H   0  0  0  0  0  0  0  0  0  0  0  0
  147.1298  136.7981  154.7956 H   0  0  0  0  0  0  0  0  0  0  0  0
  149.0916  137.5498  156.3456 H   0  0  0  0  0  0  0  0  0  0  0  0
  149.9822  135.1967  156.7236 H   0  0  0  0  0  0  0  0  0  0  0  0
  151.2170  136.2996  156.2294 H   0  0  0  0  0  0  0  0  0  0  0  0
  150.5308  135.1747  155.0561 H   0  0  0  0  0  0  0  0  0  0  0  0
  149.1460  139.2767  153.0570 H   0  0  0  0  0  0  0  0  0  0  0  0
  147.8303  138.8262  154.0700 H   0  0  0  0  0  0  0  0  0  0  0  0
  149.1622  139.7017  156.0927 H   0  0  0  0  0  0  0  0  0  0  0  0
  147.6102  141.2800  154.9410 H   0  0  0  0  0  0  0  0  0  0  0  0
  148.8959  141.7385  153.8246 H   0  0  0  0  0  0  0  0  0  0  0  0
  149.0413  142.1128  155.5399 H   0  0  0  0  0  0  0  0  0  0  0  0
  151.3765  138.7018  156.1962 H   0  0  0  0  0  0  0  0  0  0  0  0
  153.6493  138.4931  155.1946 H   0  0  0  0  0  0  0  0  0  0  0  0
  153.3200  140.1481  155.6963 H   0  0  0  0  0  0  0  0  0  0  0  0
  153.2377  139.7136  153.9909 H   0  0  0  0  0  0  0  0  0  0  0  0
  151.6831  137.0149  154.3086 H   0  0  0  0  0  0  0  0  0  0  0  0
  151.2901  138.2448  153.1634 H   0  0  0  0  0  0  0  0  0  0  0  0
  149.3836  137.0645  153.5101 H   0  0  0  0  0  0  0  0  0  0  0  0
  1  2  1  0  0  0  0
  1 22  1  0  0  0  0
  1 23  1  0  0  0  0
  1 24  1  0  0  0  0
  2 21  1  0  0  0  0
  2  3  2  0  0  0  0
  3  4  1  0  0  0  0
  3 25  1  0  0  0  0
  4  5  1  0  0  0  0
  4 20  2  0  0  0  0
  5  6  1  0  0  0  0
  6  7  2  0  0  0  0
  6  8  1  0  0  0  0
  8  9  1  0  0  0  0
  8 26  1  0  0  0  0
  9 10  1  0  0  0  0
  9 27  1  0  0  0  0
  9 28  1  0  0  0  0
 10 11  1  0  0  0  0
 10 12  1  0  0  0  0
 10 29  1  0  0  0  0
 11 30  1  0  0  0  0
 11 31  1  0  0  0  0
 11 32  1  0  0  0  0
 12 19  1  0  0  0  0
 12 13  1  0  0  0  0
 12 45  1  0  0  0  0
 13 14  1  0  0  0  0
 13 33  1  0  0  0  0
 13 34  1  0  0  0  0
 14 15  1  0  0  0  0
 14 16  1  0  0  0  0
 14 35  1  0  0  0  0
 15 36  1  0  0  0  0
 15 37  1  0  0  0  0
 15 38  1  0  0  0  0
 16 17  1  0  0  0  0
 17 18  1  0  0  0  0
 17 19  1  0  0  0  0
 17 39  1  0  0  0  0
 18 40  1  0  0  0  0
 18 41  1  0  0  0  0
 18 42  1  0  0  0  0
 19 43  1  0  0  0  0
 19 44  1  0  0  0  0
 20 21  1  0  0  0  0
M  CHG  1   5  -1
M  CHG  1  12   1
M  END
> <s_m_source_file>
AV-unprocessed.smi

> <i_m_source_file_index>
2061

> <i_lp_mmshare_version>
43012

> <i_f3d_flags>
0

> <s_epik_input>
W0NIM11jMVtjSF1jKG5vMSlbTkhdQyg9TylbTkhdW0NIMl1bQ0BIXShbQ0gzXSlOMltDSDJdW0NAQEhdKFtDSDNdKU9bQ0BASF0oW0NIM10pW0NIMl0y

> <s_epik_cmdline>
J2VwaWtfcHl0aG9uJywgJy1waCcsICc3LjAnLCAnLXRuJywgJzgnLCAnLW1hJywgJzIwMCcsICctbWV0YWxfYmluZGluZycsICctaW1hZScsICc8aW5maWxlLm1hZT4nLCAnLW9tYWUnLCAnPG91dGZpbGUubWFlPic=

> <r_epik_Ionization_Penalty>
6.73511

> <r_epik_Ionization_Penalty_Charging>
6.73502

> <r_epik_Ionization_Penalty_Neutral>
9.50841e-05

> <r_epik_State_Penalty>
6.93549

> <r_epik_Charging_Adjusted_Penalty>
13.6705

> <i_epik_Tot_Q>
0

> <i_epik_Tot_abs_Q>
2

> <r_epik_Metal_State_Penalty>
2.87211

> <b_epik_Metal_Only>
1

> <s_lp_Force_Field>
OPLS_2005

> <r_lp_Energy>
11.5912

> <b_lp_Chiralities_Consistent>
1

> <s_lp_Variant>
AV-unprocessed.smi:2061-28

> <Gold.Version>
5.8.1

> <Gold.Id.Protein>
6NUR|6NUR_protein|mol2

> <Gold.PLP.Fitness>
42.9756

> <Gold.PLP.PLP>
-32.3210

> <Gold.PLP.part.hbond>
-4.0000

> <Gold.PLP.part.metal>
0.0000

> <Gold.PLP.part.buried>
-1.3766

> <Gold.PLP.part.nonpolar>
-26.9085

> <Gold.PLP.part.repulsive>
0.0666

> <Gold.PLP.ligand.clash>
0.0000

> <Gold.PLP.ligand.torsion>
1.5541

> <Gold.PLP.Chemscore.Hbond>
4.5504

> <Gold.PLP.Chemscore.CHOScore>
0.0000

> <Gold.PLP.Chemscore.Metal>
0.0000

> <Gold.Chemscore.Hbonds>
donor molecule, donor type, donor heavy atom, donor atom, acceptor molecule, acceptor atom, score
      L1  H    12    45       P1  7948  2.00
      P1  H  6931  6943       L1    21  0.72
      P1  H  6934  6947       L1    21  0.90
      P1  H  7989  7998       L1    16  1.00

> <Gold.PLP.Chemscore.Internal.Correction>
0.1116

> <Gold.Rescore>
     Score         DG    S(hbond)    S(metal)    S(lipo)     H(rot)  DE(clash)    DE(int)     intcor
     14.55     -19.09       2.53        0.00      77.98       1.56       0.64       3.90       ----

> <Gold.Chemscore.Fitness>
14.5455

> <Gold.Chemscore.DG>
-19.0861

> <Gold.Chemscore.ZeroCoef>
-5.4800

> <Gold.Chemscore.Hbond>
2.5341

> <Gold.Chemscore.Metal>
0.0000

> <Gold.Chemscore.Lipo>
77.9756

> <Gold.Chemscore.Internal_Hbond>
0.0000

> <Gold.Chemscore.DEClash>
0.6369

> <Gold.Chemscore.DEInternal>
3.9037

> <Gold.Chemscore.Rot>
1.5550

> <Gold.Chemscore.Internal.Correction>
   9.000000E+99

> <Gold.Chemscore.Hbonds>
donor molecule, donor type, donor heavy atom, donor atom, acceptor molecule, acceptor atom, score
      L1  H    12    45       P1  7948  0.94
      P1  H  6931  6943       L1    21  0.18
      P1  H  6934  6947       L1    21  0.78
      P1  H  7989  7998       L1    16  0.35

> <Gold.Chemscore.Hbond.Weighted>
-8.4638

> <Gold.Chemscore.Metal.Weighted>
-0.0000

> <Gold.Chemscore.Lipo.Weighted>
-9.1231

> <Gold.Chemscore.Internal_Hbond.Weighted>
0.0000

> <Gold.Chemscore.DEClash.Weighted>
0.6369

> <Gold.Chemscore.DEInternal.Weighted>
3.9037

> <Gold.Chemscore.Rot.Weighted>
3.9809

> <Gold.Chemscore.Internal.Correction.Weighted>
   9.000000E+99

> <Gold.Protein.RotatedTorsions>
[ 6907 6896 6895 6894 ] final  126.63 input  -60.11 | X-H torsion
[ 7974 7965 7964 7962 ] final   49.57 input  175.53 | X-H torsion
[ 8008 7997 7996 7995 ] final  113.89 input   59.86 | X-H torsion
[ 10167 10162 10161 10158 ] final -136.63 input  -65.29 | X-H torsion
[ 10718 10713 10712 10709 ] final  -14.28 input   66.30 | X-H torsion
[ 10763 10752 10751 10750 ] final   58.56 input  -60.55 | X-H torsion
[ 11005 11000 10999 10996 ] final -166.05 input  -57.11 | X-H torsion

> <Gold.Protein.ActiveResidues>
 VAL166  LYS551  ARG553  GLY616  TRP617  ASP618  TYR619  PRO620  LYS621  CYS622 
 ASP623  PHE694  ASN695  SER759  ASP760  ASP761  ALA762  ILE779  LEU786  VAL792 
 PHE793  MET794  SER795  GLU796  ALA797  LYS798  CYS799  TRP800  GLU811  SER814 

> <Gold.Protein.RotatedAtoms>
  152.3886  133.6646  159.6218 H   0  0  0  0  0  0  0  0  0  0  0  0  # atno 6907 bound_to 6896
  150.7799  133.8993  159.3345 H   0  0  0  0  0  0  0  0  0  0  0  0  # atno 6908 bound_to 6896
  151.6785  135.0967  160.0263 H   0  0  0  0  0  0  0  0  0  0  0  0  # atno 6909 bound_to 6896
  146.0096  139.4529  142.9964 H   0  0  0  0  0  0  0  0  0  0  0  0  # atno 7974 bound_to 7965
  156.2287  140.2970  156.0132 H   0  0  0  0  0  0  0  0  0  0  0  0  # atno 8008 bound_to 7997
  155.2285  140.0418  157.2976 H   0  0  0  0  0  0  0  0  0  0  0  0  # atno 8009 bound_to 7997
  154.5959  140.2414  155.7866 H   0  0  0  0  0  0  0  0  0  0  0  0  # atno 8010 bound_to 7997
  139.8658  143.7019  152.2645 H   0  0  0  0  0  0  0  0  0  0  0  0  # atno 10167 bound_to 10162
  156.6182  130.4868  149.6175 H   0  0  0  0  0  0  0  0  0  0  0  0  # atno 10718 bound_to 10713
  152.9874  135.5602  154.5572 H   0  0  0  0  0  0  0  0  0  0  0  0  # atno 10763 bound_to 10752
  154.4998  135.2797  155.1432 H   0  0  0  0  0  0  0  0  0  0  0  0  # atno 10764 bound_to 10752
  154.2867  135.6334  153.5421 H   0  0  0  0  0  0  0  0  0  0  0  0  # atno 10765 bound_to 10752
  140.5688  134.5258  157.5158 H   0  0  0  0  0  0  0  0  0  0  0  0  # atno 11005 bound_to 11000
  145.7362  141.0025  143.1325 LP  0  0  0  0  0  0  0  0  0  0  0  0  # atno 17320 bound_to 7965
  144.6948  139.9044  143.7460 LP  0  0  0  0  0  0  0  0  0  0  0  0  # atno 17321 bound_to 7965
  139.7330  144.7578  151.0772 LP  0  0  0  0  0  0  0  0  0  0  0  0  # atno 17342 bound_to 10162
  140.7768  143.5065  150.9706 LP  0  0  0  0  0  0  0  0  0  0  0  0  # atno 17343 bound_to 10162
  156.2333  130.6808  151.1485 LP  0  0  0  0  0  0  0  0  0  0  0  0  # atno 17370 bound_to 10713
  157.7235  131.0666  150.6034 LP  0  0  0  0  0  0  0  0  0  0  0  0  # atno 17371 bound_to 10713
  139.9372  134.7854  156.0773 LP  0  0  0  0  0  0  0  0  0  0  0  0  # atno 17394 bound_to 11000
  141.1069  133.6657  156.2885 LP  0  0  0  0  0  0  0  0  0  0  0  0  # atno 17395 bound_to 11000

$$$$
