AV-unprocessed.smi:284|AV-procd|sdf|2161|dock4
  -GOLD-   2262021513D 1   1.00000     0.00000
 Structure written by MMmdl.
 60 62  0  0  0  0  0  0  0  0  1 V2000
  147.0869  128.5877  152.9459 C   0  0  0  0  0  0  0  0  0  0  0  0
  147.4193  130.0557  153.1639 C   0  0  0  0  0  0  0  0  0  0  0  0
  146.6862  131.0496  152.6117 C   0  0  0  0  0  0  0  0  0  0  0  0
  146.9557  132.3957  152.7898 N   0  0  0  0  0  0  0  0  0  0  0  0
  146.1604  133.4708  152.0729 C   0  0  2  0  0  0  0  0  0  0  0  0
  144.7914  133.7738  152.6993 C   0  0  0  0  0  0  0  0  0  0  0  0
  143.8332  133.1450  151.7029 C   0  0  1  0  0  0  0  0  0  0  0  0
  142.6008  133.8367  151.6877 O   0  0  0  0  0  0  0  0  0  0  0  0
  144.5985  133.2848  150.3839 C   0  0  2  0  0  0  0  0  0  0  0  0
  144.1675  132.2700  149.3141 C   0  0  0  0  0  0  0  0  0  0  0  0
  142.7809  132.3772  149.0731 O   0  0  0  0  0  0  0  0  0  0  0  0
  145.9494  133.0397  150.7637 O   0  0  0  0  0  0  0  0  0  0  0  0
  148.1172  132.7745  153.4978 C   0  0  0  0  0  0  0  0  0  0  0  0
  148.4505  133.9587  153.5839 O   0  0  0  0  0  0  0  0  0  0  0  0
  148.8910  131.7622  154.1095 N   0  0  0  0  0  0  0  0  0  0  0  0
  150.0900  132.1568  154.8829 C   0  0  0  0  0  0  0  0  0  0  0  0
  149.7928  133.1229  156.0411 C   0  0  0  0  0  0  0  0  0  0  0  0
  150.4172  134.1788  156.1521 O   0  0  0  0  0  0  0  0  0  0  0  0
  148.8462  132.7029  156.9002 N   0  0  0  0  0  0  0  0  0  0  0  0
  148.3314  133.3600  158.0506 C   0  0  0  0  0  0  0  0  0  0  0  0
  148.3746  134.7604  158.2407 C   0  0  0  0  0  0  0  0  0  0  0  0
  147.8202  135.3404  159.3982 C   0  0  0  0  0  0  0  0  0  0  0  0
  147.2017  134.5401  160.3903 C   0  0  0  0  0  0  0  0  0  0  0  0
  146.5819  135.1393  161.6674 C   0  0  0  0  0  0  0  0  0  0  0  0
  146.0005  134.0068  162.5388 C   0  0  0  0  0  0  0  0  0  0  0  0
  145.4400  136.1381  161.3726 C   0  0  0  0  0  0  0  0  0  0  0  0
  147.6652  135.8926  162.4678 C   0  0  0  0  0  0  0  0  0  0  0  0
  147.1510  133.1419  160.1806 C   0  0  0  0  0  0  0  0  0  0  0  0
  147.7042  132.5600  159.0247 C   0  0  0  0  0  0  0  0  0  0  0  0
  148.5867  130.3853  153.9830 C   0  0  0  0  0  0  0  0  0  0  0  0
  149.2907  129.5330  154.5280 O   0  0  0  0  0  0  0  0  0  0  0  0
  146.1966  128.4589  152.3297 H   0  0  0  0  0  0  0  0  0  0  0  0
  146.9052  128.0920  153.9001 H   0  0  0  0  0  0  0  0  0  0  0  0
  147.9134  128.0800  152.4476 H   0  0  0  0  0  0  0  0  0  0  0  0
  145.8545  130.7588  151.9910 H   0  0  0  0  0  0  0  0  0  0  0  0
  146.7775  134.3700  152.0832 H   0  0  0  0  0  0  0  0  0  0  0  0
  144.6920  133.4136  153.7233 H   0  0  0  0  0  0  0  0  0  0  0  0
  144.6688  134.8581  152.7142 H   0  0  0  0  0  0  0  0  0  0  0  0
  143.6657  132.0942  151.9391 H   0  0  0  0  0  0  0  0  0  0  0  0
  142.2736  133.8516  150.8011 H   0  0  0  0  0  0  0  0  0  0  0  0
  144.5129  134.3103  150.0183 H   0  0  0  0  0  0  0  0  0  0  0  0
  144.7277  132.4075  148.3886 H   0  0  0  0  0  0  0  0  0  0  0  0
  144.3588  131.2540  149.6601 H   0  0  0  0  0  0  0  0  0  0  0  0
  142.3735  131.5517  149.2867 H   0  0  0  0  0  0  0  0  0  0  0  0
  150.5959  131.2773  155.2849 H   0  0  0  0  0  0  0  0  0  0  0  0
  150.8408  132.6161  154.2379 H   0  0  0  0  0  0  0  0  0  0  0  0
  148.4890  131.7726  156.7389 H   0  0  0  0  0  0  0  0  0  0  0  0
  148.8144  135.4151  157.5045 H   0  0  0  0  0  0  0  0  0  0  0  0
  147.8806  136.4131  159.4935 H   0  0  0  0  0  0  0  0  0  0  0  0
  145.5379  134.4004  163.4445 H   0  0  0  0  0  0  0  0  0  0  0  0
  146.7656  133.2971  162.8538 H   0  0  0  0  0  0  0  0  0  0  0  0
  145.2366  133.4467  161.9981 H   0  0  0  0  0  0  0  0  0  0  0  0
  144.6149  135.6633  160.8400 H   0  0  0  0  0  0  0  0  0  0  0  0
  145.7869  136.9830  160.7765 H   0  0  0  0  0  0  0  0  0  0  0  0
  145.0265  136.5480  162.2948 H   0  0  0  0  0  0  0  0  0  0  0  0
  147.2493  136.3468  163.3678 H   0  0  0  0  0  0  0  0  0  0  0  0
  148.1100  136.6919  161.8739 H   0  0  0  0  0  0  0  0  0  0  0  0
  148.4726  135.2346  162.7889 H   0  0  0  0  0  0  0  0  0  0  0  0
  146.6816  132.4973  160.9083 H   0  0  0  0  0  0  0  0  0  0  0  0
  147.6475  131.4894  158.8919 H   0  0  0  0  0  0  0  0  0  0  0  0
  1  2  1  0  0  0  0
  1 32  1  0  0  0  0
  1 33  1  0  0  0  0
  1 34  1  0  0  0  0
  2 30  1  0  0  0  0
  2  3  2  0  0  0  0
  3  4  1  0  0  0  0
  3 35  1  0  0  0  0
  4  5  1  0  0  0  0
  4 13  1  0  0  0  0
  5 12  1  0  0  0  0
  5  6  1  0  0  0  0
  5 36  1  0  0  0  0
  6  7  1  0  0  0  0
  6 37  1  0  0  0  0
  6 38  1  0  0  0  0
  7  8  1  0  0  0  0
  7  9  1  0  0  0  0
  7 39  1  0  0  0  0
  8 40  1  0  0  0  0
  9 10  1  0  0  0  0
  9 12  1  0  0  0  0
  9 41  1  0  0  0  0
 10 11  1  0  0  0  0
 10 42  1  0  0  0  0
 10 43  1  0  0  0  0
 11 44  1  0  0  0  0
 13 14  2  0  0  0  0
 13 15  1  0  0  0  0
 15 16  1  0  0  0  0
 15 30  1  0  0  0  0
 16 17  1  0  0  0  0
 16 45  1  0  0  0  0
 16 46  1  0  0  0  0
 17 18  2  0  0  0  0
 17 19  1  0  0  0  0
 19 20  1  0  0  0  0
 19 47  1  0  0  0  0
 20 29  1  0  0  0  0
 20 21  2  0  0  0  0
 21 22  1  0  0  0  0
 21 48  1  0  0  0  0
 22 23  2  0  0  0  0
 22 49  1  0  0  0  0
 23 24  1  0  0  0  0
 23 28  1  0  0  0  0
 24 25  1  0  0  0  0
 24 26  1  0  0  0  0
 24 27  1  0  0  0  0
 25 50  1  0  0  0  0
 25 51  1  0  0  0  0
 25 52  1  0  0  0  0
 26 53  1  0  0  0  0
 26 54  1  0  0  0  0
 26 55  1  0  0  0  0
 27 56  1  0  0  0  0
 27 57  1  0  0  0  0
 27 58  1  0  0  0  0
 28 29  2  0  0  0  0
 28 59  1  0  0  0  0
 29 60  1  0  0  0  0
 30 31  2  0  0  0  0
M  END
> <s_m_source_file>
AV-unprocessed.smi

> <i_m_source_file_index>
284

> <i_lp_mmshare_version>
43012

> <i_f3d_flags>
0

> <s_epik_input>
W09IXVtDSDJdW0NAQEhdKE8xKVtDQEhdKFtPSF0pW0NIMl1bQ0BIXTFuKFtjSF1jMltDSDNdKWMoPU8pbihjMj1PKVtDSDJdQyg9TylbTkhdYzNbY0hdW2NIXWMoQyhbQ0gzXSkoW0NIM10pW0NIM10pW2NIXVtjSF0z

> <s_epik_cmdline>
J2VwaWtfcHl0aG9uJywgJy1waCcsICc3LjAnLCAnLXRuJywgJzgnLCAnLW1hJywgJzIwMCcsICctbWV0YWxfYmluZGluZycsICctaW1hZScsICc8aW5maWxlLm1hZT4nLCAnLW9tYWUnLCAnPG91dGZpbGUubWFlPic=

> <r_lp_tautomer_probability>
1

> <r_epik_Ionization_Penalty>
4.92358e-06

> <r_epik_Ionization_Penalty_Charging>
1.29777e-07

> <r_epik_Ionization_Penalty_Neutral>
4.79381e-06

> <r_epik_State_Penalty>
-0

> <r_epik_Charging_Adjusted_Penalty>
1.29777e-07

> <i_epik_Tot_Q>
0

> <i_epik_Tot_abs_Q>
0

> <r_epik_Metal_State_Penalty>
-0

> <b_epik_Metal_Only>
0

> <s_epik_Chemistry_Notes>
This compound contains an acetal/aminal-like group ( X-CH(R)-Y where X, Y are N, S, or O) that may be acid/base labile, releasing an aldehyde.

> <s_lp_Force_Field>
OPLS_2005

> <r_lp_Energy>
40.5501

> <b_lp_Chiralities_Consistent>
1

> <s_lp_Variant>
AV-unprocessed.smi:284-5

> <Gold.Version>
5.8.1

> <Gold.Id.Protein>
6NUR|6NUR_protein|mol2

> <Gold.PLP.Fitness>
54.0485

> <Gold.PLP.PLP>
-48.9123

> <Gold.PLP.part.hbond>
-3.1739

> <Gold.PLP.part.metal>
0.0000

> <Gold.PLP.part.buried>
-7.5250

> <Gold.PLP.part.nonpolar>
-40.0727

> <Gold.PLP.part.repulsive>
2.0771

> <Gold.PLP.ligand.clash>
0.0000

> <Gold.PLP.ligand.torsion>
0.5377

> <Gold.PLP.Chemscore.Hbond>
1.9920

> <Gold.PLP.Chemscore.CHOScore>
0.0000

> <Gold.PLP.Chemscore.Metal>
0.0000

> <Gold.Chemscore.Hbonds>
donor molecule, donor type, donor heavy atom, donor atom, acceptor molecule, acceptor atom, score
      L1  H     8    40       P1 10186  0.98
      L1  H    11    44       P1 10952  1.00

> <Gold.PLP.Chemscore.Internal.Correction>
0.2356

> <Gold.Rescore>
     Score         DG    S(hbond)    S(metal)    S(lipo)     H(rot)  DE(clash)    DE(int)     intcor
     12.10     -15.44       1.68        0.00     108.76       3.27       0.78       2.56       ----

> <Gold.Chemscore.Fitness>
12.0993

> <Gold.Chemscore.DG>
-15.4396

> <Gold.Chemscore.ZeroCoef>
-5.4800

> <Gold.Chemscore.Hbond>
1.6811

> <Gold.Chemscore.Metal>
0.0000

> <Gold.Chemscore.Lipo>
108.7601

> <Gold.Chemscore.Internal_Hbond>
0.0000

> <Gold.Chemscore.DEClash>
0.7849

> <Gold.Chemscore.DEInternal>
2.5554

> <Gold.Chemscore.Rot>
3.2735

> <Gold.Chemscore.Internal.Correction>
   9.000000E+99

> <Gold.Chemscore.Hbonds>
donor molecule, donor type, donor heavy atom, donor atom, acceptor molecule, acceptor atom, score
      L1  H     8    40       P1 10186  0.61
      L1  H    11    44       P1 10952  0.94

> <Gold.Chemscore.Hbond.Weighted>
-5.6148

> <Gold.Chemscore.Metal.Weighted>
-0.0000

> <Gold.Chemscore.Lipo.Weighted>
-12.7249

> <Gold.Chemscore.Internal_Hbond.Weighted>
0.0000

> <Gold.Chemscore.DEClash.Weighted>
0.7849

> <Gold.Chemscore.DEInternal.Weighted>
2.5554

> <Gold.Chemscore.Rot.Weighted>
8.3801

> <Gold.Chemscore.Internal.Correction.Weighted>
   9.000000E+99

> <Gold.Protein.RotatedTorsions>
[ 6907 6896 6895 6894 ] final  152.46 input  -60.11 | X-H torsion
[ 7974 7965 7964 7962 ] final  -39.39 input  175.53 | X-H torsion
[ 8008 7997 7996 7995 ] final  -60.82 input   59.86 | X-H torsion
[ 10167 10162 10161 10158 ] final  -54.62 input  -65.29 | X-H torsion
[ 10718 10713 10712 10709 ] final   -2.68 input   66.30 | X-H torsion
[ 10763 10752 10751 10750 ] final  -57.76 input  -60.55 | X-H torsion
[ 11005 11000 10999 10996 ] final  -32.57 input  -57.11 | X-H torsion

> <Gold.Protein.ActiveResidues>
 VAL166  LYS551  ARG553  GLY616  TRP617  ASP618  TYR619  PRO620  LYS621  CYS622 
 ASP623  PHE694  ASN695  SER759  ASP760  ASP761  ALA762  ILE779  LEU786  VAL792 
 PHE793  MET794  SER795  GLU796  ALA797  LYS798  CYS799  TRP800  GLU811  SER814 

> <Gold.Protein.RotatedAtoms>
  152.0864  133.4178  159.4523 H   0  0  0  0  0  0  0  0  0  0  0  0  # atno 6907 bound_to 6896
  150.6862  134.2923  159.4681 H   0  0  0  0  0  0  0  0  0  0  0  0  # atno 6908 bound_to 6896
  152.0769  134.9496  160.0624 H   0  0  0  0  0  0  0  0  0  0  0  0  # atno 6909 bound_to 6896
  146.0401  140.6620  142.9091 H   0  0  0  0  0  0  0  0  0  0  0  0  # atno 7974 bound_to 7965
  154.4417  140.1031  156.6334 H   0  0  0  0  0  0  0  0  0  0  0  0  # atno 8008 bound_to 7997
  155.5580  140.3487  155.4466 H   0  0  0  0  0  0  0  0  0  0  0  0  # atno 8009 bound_to 7997
  156.0480  140.1297  157.0071 H   0  0  0  0  0  0  0  0  0  0  0  0  # atno 8010 bound_to 7997
  140.6420  143.2513  151.4963 H   0  0  0  0  0  0  0  0  0  0  0  0  # atno 10167 bound_to 10162
  156.7872  130.5350  149.5741 H   0  0  0  0  0  0  0  0  0  0  0  0  # atno 10718 bound_to 10713
  154.2275  135.6366  153.5164 H   0  0  0  0  0  0  0  0  0  0  0  0  # atno 10763 bound_to 10752
  152.9956  135.5511  154.6048 H   0  0  0  0  0  0  0  0  0  0  0  0  # atno 10764 bound_to 10752
  154.5523  135.2902  155.0971 H   0  0  0  0  0  0  0  0  0  0  0  0  # atno 10765 bound_to 10752
  140.9563  133.7191  156.1299 H   0  0  0  0  0  0  0  0  0  0  0  0  # atno 11005 bound_to 11000
  144.7070  140.3892  143.7110 LP  0  0  0  0  0  0  0  0  0  0  0  0  # atno 17320 bound_to 7965
  145.6899  139.1637  143.2653 LP  0  0  0  0  0  0  0  0  0  0  0  0  # atno 17321 bound_to 7965
  139.5629  144.2111  152.1720 LP  0  0  0  0  0  0  0  0  0  0  0  0  # atno 17342 bound_to 10162
  140.1385  144.5224  150.6759 LP  0  0  0  0  0  0  0  0  0  0  0  0  # atno 17343 bound_to 10162
  156.1181  130.6090  151.0152 LP  0  0  0  0  0  0  0  0  0  0  0  0  # atno 17370 bound_to 10713
  157.6618  131.0879  150.7821 LP  0  0  0  0  0  0  0  0  0  0  0  0  # atno 17371 bound_to 10713
  140.7531  134.4023  157.5538 LP  0  0  0  0  0  0  0  0  0  0  0  0  # atno 17394 bound_to 11000
  139.8863  134.8913  156.2591 LP  0  0  0  0  0  0  0  0  0  0  0  0  # atno 17395 bound_to 11000

$$$$
