AV-unprocessed.smi:3277|AV-procd|sdf|12539|dock4
  -GOLD-   2272018453D 1   1.00000     0.00000
 Structure written by MMmdl.
 35 37  0  0  0  0  0  0  0  0  1 V2000
  149.9515  135.6956  155.1781 C   0  0  0  0  0  0  0  0  0  0  0  0
  150.9244  136.7251  155.5101 N   0  0  0  0  0  0  0  0  0  0  0  0
  150.9669  137.9367  154.9364 C   0  0  0  0  0  0  0  0  0  0  0  0
  150.1855  138.2953  154.0554 O   0  0  0  0  0  0  0  0  0  0  0  0
  152.0547  138.8914  155.4316 C   0  0  0  0  0  0  0  0  0  0  0  0
  151.3815  140.0866  156.0255 C   0  0  0  0  0  0  0  0  0  0  0  0
  151.7173  140.6107  157.2071 N   0  0  0  0  0  0  0  0  0  0  0  0
  150.9500  141.7312  157.5455 C   0  0  0  0  0  0  0  0  0  0  0  0
  151.1845  142.4690  158.8376 C   0  0  1  0  0  0  0  0  0  0  0  0
  152.4293  142.0175  159.6314 C   0  0  0  0  0  0  0  0  0  0  0  0
  153.1246  143.3554  159.9517 C   0  0  2  0  0  0  0  0  0  0  0  0
  152.2605  144.1776  160.9290 C   0  0  0  0  0  0  0  0  0  0  0  0
  151.1000  144.6645  160.0369 C   0  0  0  0  0  0  0  0  0  0  0  0
  151.4113  143.9920  158.6859 C   0  0  1  0  0  0  0  0  0  0  0  0
  152.9333  144.1197  158.6481 C   0  0  0  0  0  0  0  0  0  0  0  0
  150.0092  142.0407  156.5942 C   0  0  0  0  0  0  0  0  0  0  0  0
  150.0566  140.9416  155.2433 S   0  0  0  0  0  0  0  0  0  0  0  0
  150.1378  134.8022  155.7740 H   0  0  0  0  0  0  0  0  0  0  0  0
  150.0173  135.4230  154.1240 H   0  0  0  0  0  0  0  0  0  0  0  0
  148.9373  136.0386  155.3867 H   0  0  0  0  0  0  0  0  0  0  0  0
  151.6022  136.5075  156.2263 H   0  0  0  0  0  0  0  0  0  0  0  0
  152.6852  138.4126  156.1819 H   0  0  0  0  0  0  0  0  0  0  0  0
  152.6963  139.1971  154.6037 H   0  0  0  0  0  0  0  0  0  0  0  0
  150.3055  142.3136  159.4654 H   0  0  0  0  0  0  0  0  0  0  0  0
  152.1721  141.4477  160.5250 H   0  0  0  0  0  0  0  0  0  0  0  0
  153.0878  141.3965  159.0222 H   0  0  0  0  0  0  0  0  0  0  0  0
  154.1609  143.2424  160.2708 H   0  0  0  0  0  0  0  0  0  0  0  0
  151.9135  143.5786  161.7718 H   0  0  0  0  0  0  0  0  0  0  0  0
  152.8190  145.0255  161.3274 H   0  0  0  0  0  0  0  0  0  0  0  0
  150.1221  144.3885  160.4331 H   0  0  0  0  0  0  0  0  0  0  0  0
  151.1221  145.7508  159.9395 H   0  0  0  0  0  0  0  0  0  0  0  0
  150.8771  144.4441  157.8492 H   0  0  0  0  0  0  0  0  0  0  0  0
  153.2826  145.1526  158.6969 H   0  0  0  0  0  0  0  0  0  0  0  0
  153.3969  143.6323  157.7898 H   0  0  0  0  0  0  0  0  0  0  0  0
  149.2919  142.8477  156.6072 H   0  0  0  0  0  0  0  0  0  0  0  0
  1  2  1  0  0  0  0
  1 18  1  0  0  0  0
  1 19  1  0  0  0  0
  1 20  1  0  0  0  0
  2  3  1  0  0  0  0
  2 21  1  0  0  0  0
  3  4  2  0  0  0  0
  3  5  1  0  0  0  0
  5  6  1  0  0  0  0
  5 22  1  0  0  0  0
  5 23  1  0  0  0  0
  6 17  1  0  0  0  0
  6  7  2  0  0  0  0
  7  8  1  0  0  0  0
  8  9  1  0  0  0  0
  8 16  2  0  0  0  0
  9 14  1  0  0  0  0
  9 10  1  0  0  0  0
  9 24  1  0  0  0  0
 10 11  1  0  0  0  0
 10 25  1  0  0  0  0
 10 26  1  0  0  0  0
 11 15  1  0  0  0  0
 11 12  1  0  0  0  0
 11 27  1  0  0  0  0
 12 13  1  0  0  0  0
 12 28  1  0  0  0  0
 12 29  1  0  0  0  0
 13 14  1  0  0  0  0
 13 30  1  0  0  0  0
 13 31  1  0  0  0  0
 14 15  1  0  0  0  0
 14 32  1  0  0  0  0
 15 33  1  0  0  0  0
 15 34  1  0  0  0  0
 16 17  1  0  0  0  0
 16 35  1  0  0  0  0
M  END
> <s_m_source_file>
AV-unprocessed.smi

> <i_m_source_file_index>
3277

> <i_lp_mmshare_version>
43012

> <i_f3d_flags>
0

> <s_epik_input>
W0NIM11bTkhdQyg9TylbQ0gyXWMxbmMoW2NIXXMxKVtDQEhdKFtDSDJdW0NAQEhdMjMpW0NAQEhdKFtDSDJdMylbQ0gyXVtDSDJdMg==

> <s_epik_cmdline>
J2VwaWtfcHl0aG9uJywgJy1waCcsICc3LjAnLCAnLXRuJywgJzgnLCAnLW1hJywgJzIwMCcsICctbWV0YWxfYmluZGluZycsICctaW1hZScsICc8aW5maWxlLm1hZT4nLCAnLW9tYWUnLCAnPG91dGZpbGUubWFlPic=

> <r_lp_tautomer_probability>
1

> <r_epik_Ionization_Penalty>
8.50008e-05

> <r_epik_Ionization_Penalty_Charging>
0

> <r_epik_Ionization_Penalty_Neutral>
8.50008e-05

> <r_epik_State_Penalty>
-0

> <r_epik_Charging_Adjusted_Penalty>
0

> <i_epik_Tot_Q>
0

> <i_epik_Tot_abs_Q>
0

> <r_epik_Metal_State_Penalty>
-0

> <b_epik_Metal_Only>
0

> <s_lp_Force_Field>
OPLS_2005

> <r_lp_Energy>
44.5578

> <b_lp_Chiralities_Consistent>
1

> <s_lp_Variant>
AV-unprocessed.smi:3277-4

> <Gold.Version>
5.8.1

> <Gold.Id.Protein>
6NUR|6NUR_protein|mol2

> <Gold.PLP.Fitness>
43.1471

> <Gold.PLP.PLP>
-40.6630

> <Gold.PLP.part.hbond>
0.0000

> <Gold.PLP.part.metal>
0.0000

> <Gold.PLP.part.buried>
-3.4673

> <Gold.PLP.part.nonpolar>
-37.2160

> <Gold.PLP.part.repulsive>
0.3589

> <Gold.PLP.ligand.clash>
0.0000

> <Gold.PLP.ligand.torsion>
0.2586

> <Gold.PLP.Chemscore.Hbond>
0.0000

> <Gold.PLP.Chemscore.CHOScore>
1.0000

> <Gold.PLP.Chemscore.Metal>
0.0000

> <Gold.Chemscore.Hbonds>
donor molecule, donor type, donor heavy atom, donor atom, acceptor molecule, acceptor atom, score
      L1  C    16    35       P1  8028  1.00

> <Gold.PLP.Chemscore.Internal.Correction>
0.0013

> <Gold.Rescore>
     Score         DG    S(hbond)    S(metal)    S(lipo)     H(rot)  DE(clash)    DE(int)     intcor
     15.75     -15.82       0.00        0.00     119.28       1.41       0.03       0.04       ----

> <Gold.Chemscore.Fitness>
15.7461

> <Gold.Chemscore.DG>
-15.8211

> <Gold.Chemscore.ZeroCoef>
-5.4800

> <Gold.Chemscore.Hbond>
0.0000

> <Gold.Chemscore.Metal>
0.0000

> <Gold.Chemscore.Lipo>
119.2843

> <Gold.Chemscore.Internal_Hbond>
0.0000

> <Gold.Chemscore.DEClash>
0.0339

> <Gold.Chemscore.DEInternal>
0.0412

> <Gold.Chemscore.Rot>
1.4122

> <Gold.Chemscore.Internal.Correction>
   9.000000E+99

> <Gold.Chemscore.Hbond.Weighted>
-0.0000

> <Gold.Chemscore.Metal.Weighted>
-0.0000

> <Gold.Chemscore.Lipo.Weighted>
-13.9563

> <Gold.Chemscore.Internal_Hbond.Weighted>
0.0000

> <Gold.Chemscore.DEClash.Weighted>
0.0339

> <Gold.Chemscore.DEInternal.Weighted>
0.0412

> <Gold.Chemscore.Rot.Weighted>
3.6151

> <Gold.Chemscore.Internal.Correction.Weighted>
   9.000000E+99

> <Gold.Protein.RotatedTorsions>
[ 6907 6896 6895 6894 ] final -138.81 input  -60.11 | X-H torsion
[ 7974 7965 7964 7962 ] final   13.75 input  175.53 | X-H torsion
[ 8008 7997 7996 7995 ] final   28.15 input   59.86 | X-H torsion
[ 10167 10162 10161 10158 ] final  100.84 input  -65.29 | X-H torsion
[ 10718 10713 10712 10709 ] final    9.31 input   66.30 | X-H torsion
[ 10763 10752 10751 10750 ] final   42.16 input  -60.55 | X-H torsion
[ 11005 11000 10999 10996 ] final  -25.03 input  -57.11 | X-H torsion

> <Gold.Protein.ActiveResidues>
 VAL166  LYS551  ARG553  GLY616  TRP617  ASP618  TYR619  PRO620  LYS621  CYS622 
 ASP623  PHE694  ASN695  SER759  ASP760  ASP761  ALA762  ILE779  LEU786  VAL792 
 PHE793  MET794  SER795  GLU796  ALA797  LYS798  CYS799  TRP800  GLU811  SER814 

> <Gold.Protein.RotatedAtoms>
  151.0398  133.5716  159.2652 H   0  0  0  0  0  0  0  0  0  0  0  0  # atno 6907 bound_to 6896
  151.2767  135.0700  159.9164 H   0  0  0  0  0  0  0  0  0  0  0  0  # atno 6908 bound_to 6896
  152.5362  134.0119  159.7996 H   0  0  0  0  0  0  0  0  0  0  0  0  # atno 6909 bound_to 6896
  146.2322  139.9142  142.8519 H   0  0  0  0  0  0  0  0  0  0  0  0  # atno 7974 bound_to 7965
  155.0541  140.3183  155.4682 H   0  0  0  0  0  0  0  0  0  0  0  0  # atno 8008 bound_to 7997
  156.2828  140.2140  156.5611 H   0  0  0  0  0  0  0  0  0  0  0  0  # atno 8009 bound_to 7997
  154.7186  140.0491  157.0605 H   0  0  0  0  0  0  0  0  0  0  0  0  # atno 8010 bound_to 7997
  139.7491  144.6989  151.0460 H   0  0  0  0  0  0  0  0  0  0  0  0  # atno 10167 bound_to 10162
  156.9645  130.5945  149.5664 H   0  0  0  0  0  0  0  0  0  0  0  0  # atno 10718 bound_to 10713
  152.9890  135.6140  154.2904 H   0  0  0  0  0  0  0  0  0  0  0  0  # atno 10763 bound_to 10752
  154.2630  135.2782  155.2772 H   0  0  0  0  0  0  0  0  0  0  0  0  # atno 10764 bound_to 10752
  154.5189  135.5820  153.6722 H   0  0  0  0  0  0  0  0  0  0  0  0  # atno 10765 bound_to 10752
  140.8900  133.7595  156.0409 H   0  0  0  0  0  0  0  0  0  0  0  0  # atno 11005 bound_to 11000
  145.2199  140.9931  143.4051 LP  0  0  0  0  0  0  0  0  0  0  0  0  # atno 17320 bound_to 7965
  144.9619  139.3971  143.6352 LP  0  0  0  0  0  0  0  0  0  0  0  0  # atno 17321 bound_to 7965
  140.7795  143.4831  150.9992 LP  0  0  0  0  0  0  0  0  0  0  0  0  # atno 17342 bound_to 10162
  139.8519  143.7427  152.3177 LP  0  0  0  0  0  0  0  0  0  0  0  0  # atno 17343 bound_to 10162
  156.0308  130.5400  150.8530 LP  0  0  0  0  0  0  0  0  0  0  0  0  # atno 17370 bound_to 10713
  157.5635  131.0946  150.9524 LP  0  0  0  0  0  0  0  0  0  0  0  0  # atno 17371 bound_to 10713
  140.8358  134.3124  157.5332 LP  0  0  0  0  0  0  0  0  0  0  0  0  # atno 17394 bound_to 11000
  139.8728  134.9389  156.3727 LP  0  0  0  0  0  0  0  0  0  0  0  0  # atno 17395 bound_to 11000

$$$$
