AV-unprocessed.smi:2061|AV-procd|sdf|8365|dock2
  -GOLD-   2272011 33D 1   1.00000     0.00000
 Structure written by MMmdl.
 45 46  0  0  0  0  0  0  0  0  1 V2000
  143.7643  132.5690  149.3492 C   0  0  0  0  0  0  0  0  0  0  0  0
  144.7317  133.1049  150.3479 C   0  0  0  0  0  0  0  0  0  0  0  0
  145.0789  134.3737  150.7186 C   0  0  0  0  0  0  0  0  0  0  0  0
  146.0602  134.1562  151.7223 C   0  0  0  0  0  0  0  0  0  0  0  0
  146.6871  135.2477  152.3759 N   0  0  0  0  0  0  0  0  0  0  0  0
  146.1397  136.0934  153.2655 C   0  0  0  0  0  0  0  0  0  0  0  0
  144.9706  136.0574  153.6499 O   0  0  0  0  0  0  0  0  0  0  0  0
  147.0334  137.0011  153.6858 N   0  0  0  0  0  0  0  0  0  0  0  0
  146.7741  138.0681  154.6506 C   0  0  0  0  0  0  0  0  0  0  0  0
  147.4481  139.4153  154.2635 C   0  0  1  0  0  0  0  0  0  0  0  0
  146.4323  140.5675  154.4757 C   0  0  0  0  0  0  0  0  0  0  0  0
  148.7332  139.6522  154.9645 N   0  0  0  0  0  0  0  0  0  0  0  0
  149.1670  141.0518  154.8795 C   0  0  0  0  0  0  0  0  0  0  0  0
  150.5136  141.3298  155.5765 C   0  0  1  0  0  0  0  0  0  0  0  0
  150.4159  141.3393  157.1117 C   0  0  0  0  0  0  0  0  0  0  0  0
  151.5105  140.4236  155.1111 O   0  0  0  0  0  0  0  0  0  0  0  0
  151.1534  139.0490  155.2017 C   0  0  2  0  0  0  0  0  0  0  0  0
  152.2999  138.2234  154.6083 C   0  0  0  0  0  0  0  0  0  0  0  0
  149.8243  138.8117  154.4615 C   0  0  0  0  0  0  0  0  0  0  0  0
  146.2915  132.8714  151.9434 N   0  0  0  0  0  0  0  0  0  0  0  0
  145.4419  132.1910  151.0633 O   0  0  0  0  0  0  0  0  0  0  0  0
  143.0942  133.3534  148.9970 H   0  0  0  0  0  0  0  0  0  0  0  0
  143.1563  131.7759  149.7848 H   0  0  0  0  0  0  0  0  0  0  0  0
  144.2886  132.1588  148.4859 H   0  0  0  0  0  0  0  0  0  0  0  0
  144.6915  135.3046  150.3320 H   0  0  0  0  0  0  0  0  0  0  0  0
  147.6575  135.3984  152.1435 H   0  0  0  0  0  0  0  0  0  0  0  0
  147.9693  136.9519  153.3106 H   0  0  0  0  0  0  0  0  0  0  0  0
  145.7044  138.2173  154.8075 H   0  0  0  0  0  0  0  0  0  0  0  0
  147.1706  137.6843  155.5886 H   0  0  0  0  0  0  0  0  0  0  0  0
  147.6550  139.3685  153.1932 H   0  0  0  0  0  0  0  0  0  0  0  0
  145.4814  140.3820  153.9785 H   0  0  0  0  0  0  0  0  0  0  0  0
  146.7794  141.5134  154.0633 H   0  0  0  0  0  0  0  0  0  0  0  0
  146.2231  140.7174  155.5355 H   0  0  0  0  0  0  0  0  0  0  0  0
  149.2477  141.3395  153.8301 H   0  0  0  0  0  0  0  0  0  0  0  0
  148.4315  141.7163  155.3282 H   0  0  0  0  0  0  0  0  0  0  0  0
  150.8439  142.3245  155.2758 H   0  0  0  0  0  0  0  0  0  0  0  0
  149.7376  142.1224  157.4512 H   0  0  0  0  0  0  0  0  0  0  0  0
  151.3903  141.5294  157.5619 H   0  0  0  0  0  0  0  0  0  0  0  0
  150.0429  140.3943  157.5059 H   0  0  0  0  0  0  0  0  0  0  0  0
  151.0407  138.7700  156.2498 H   0  0  0  0  0  0  0  0  0  0  0  0
  152.0860  137.1559  154.6651 H   0  0  0  0  0  0  0  0  0  0  0  0
  153.2295  138.4044  155.1483 H   0  0  0  0  0  0  0  0  0  0  0  0
  152.4683  138.4770  153.5613 H   0  0  0  0  0  0  0  0  0  0  0  0
  149.5851  137.7573  154.5838 H   0  0  0  0  0  0  0  0  0  0  0  0
  149.9612  138.9852  153.3930 H   0  0  0  0  0  0  0  0  0  0  0  0
  1  2  1  0  0  0  0
  1 22  1  0  0  0  0
  1 23  1  0  0  0  0
  1 24  1  0  0  0  0
  2 21  1  0  0  0  0
  2  3  2  0  0  0  0
  3  4  1  0  0  0  0
  3 25  1  0  0  0  0
  4  5  1  0  0  0  0
  4 20  2  0  0  0  0
  5  6  1  0  0  0  0
  5 26  1  0  0  0  0
  6  7  2  0  0  0  0
  6  8  1  0  0  0  0
  8  9  1  0  0  0  0
  8 27  1  0  0  0  0
  9 10  1  0  0  0  0
  9 28  1  0  0  0  0
  9 29  1  0  0  0  0
 10 11  1  0  0  0  0
 10 12  1  0  0  0  0
 10 30  1  0  0  0  0
 11 31  1  0  0  0  0
 11 32  1  0  0  0  0
 11 33  1  0  0  0  0
 12 19  1  0  0  0  0
 12 13  1  0  0  0  0
 13 14  1  0  0  0  0
 13 34  1  0  0  0  0
 13 35  1  0  0  0  0
 14 15  1  0  0  0  0
 14 16  1  0  0  0  0
 14 36  1  0  0  0  0
 15 37  1  0  0  0  0
 15 38  1  0  0  0  0
 15 39  1  0  0  0  0
 16 17  1  0  0  0  0
 17 18  1  0  0  0  0
 17 19  1  0  0  0  0
 17 40  1  0  0  0  0
 18 41  1  0  0  0  0
 18 42  1  0  0  0  0
 18 43  1  0  0  0  0
 19 44  1  0  0  0  0
 19 45  1  0  0  0  0
 20 21  1  0  0  0  0
M  END
> <s_m_source_file>
AV-unprocessed.smi

> <i_m_source_file_index>
2061

> <i_lp_mmshare_version>
43012

> <i_f3d_flags>
0

> <s_epik_input>
W0NIM11jMVtjSF1jKG5vMSlbTkhdQyg9TylbTkhdW0NIMl1bQ0BIXShbQ0gzXSlOMltDSDJdW0NAQEhdKFtDSDNdKU9bQ0BASF0oW0NIM10pW0NIMl0y

> <s_epik_cmdline>
J2VwaWtfcHl0aG9uJywgJy1waCcsICc3LjAnLCAnLXRuJywgJzgnLCAnLW1hJywgJzIwMCcsICctbWV0YWxfYmluZGluZycsICctaW1hZScsICc8aW5maWxlLm1hZT4nLCAnLW9tYWUnLCAnPG91dGZpbGUubWFlPic=

> <r_epik_Ionization_Penalty>
0.214073

> <r_epik_Ionization_Penalty_Charging>
0

> <r_epik_Ionization_Penalty_Neutral>
0.214073

> <r_epik_State_Penalty>
0.204211

> <r_epik_Charging_Adjusted_Penalty>
0.204211

> <i_epik_Tot_Q>
0

> <i_epik_Tot_abs_Q>
0

> <r_epik_Metal_State_Penalty>
0.217067

> <b_epik_Metal_Only>
0

> <s_lp_Force_Field>
OPLS_2005

> <r_lp_Energy>
29.5026

> <b_lp_Chiralities_Consistent>
1

> <s_lp_Variant>
AV-unprocessed.smi:2061-6

> <Gold.Version>
5.8.1

> <Gold.Id.Protein>
6NUR|6NUR_protein|mol2

> <Gold.PLP.Fitness>
37.6616

> <Gold.PLP.PLP>
-32.6121

> <Gold.PLP.part.hbond>
-2.8281

> <Gold.PLP.part.metal>
0.0000

> <Gold.PLP.part.buried>
-4.3541

> <Gold.PLP.part.nonpolar>
-25.0413

> <Gold.PLP.part.repulsive>
0.4049

> <Gold.PLP.ligand.clash>
0.0000

> <Gold.PLP.ligand.torsion>
1.6537

> <Gold.PLP.Chemscore.Hbond>
2.7600

> <Gold.PLP.Chemscore.CHOScore>
0.0000

> <Gold.PLP.Chemscore.Metal>
0.0000

> <Gold.Chemscore.Hbonds>
donor molecule, donor type, donor heavy atom, donor atom, acceptor molecule, acceptor atom, score
      L1  H     5    26       P1  7948  1.00
      L1  H     8    27       P1  7948  0.83
      P1  H  7989  7998       L1    16  0.91

> <Gold.PLP.Chemscore.Internal.Correction>
0.0768

> <Gold.Rescore>
     Score         DG    S(hbond)    S(metal)    S(lipo)     H(rot)  DE(clash)    DE(int)     intcor
     17.88     -19.56       2.75        0.00      75.81       1.55       0.08       1.59       ----

> <Gold.Chemscore.Fitness>
17.8840

> <Gold.Chemscore.DG>
-19.5581

> <Gold.Chemscore.ZeroCoef>
-5.4800

> <Gold.Chemscore.Hbond>
2.7452

> <Gold.Chemscore.Metal>
0.0000

> <Gold.Chemscore.Lipo>
75.8139

> <Gold.Chemscore.Internal_Hbond>
0.0000

> <Gold.Chemscore.DEClash>
0.0829

> <Gold.Chemscore.DEInternal>
1.5912

> <Gold.Chemscore.Rot>
1.5474

> <Gold.Chemscore.Internal.Correction>
   9.000000E+99

> <Gold.Chemscore.Hbonds>
donor molecule, donor type, donor heavy atom, donor atom, acceptor molecule, acceptor atom, score
      L1  H     5    26       P1  7948  0.92
      L1  H     8    27       P1  7948  0.83
      P1  H  7989  7998       L1    16  0.20

> <Gold.Chemscore.Hbond.Weighted>
-9.1691

> <Gold.Chemscore.Metal.Weighted>
-0.0000

> <Gold.Chemscore.Lipo.Weighted>
-8.8702

> <Gold.Chemscore.Internal_Hbond.Weighted>
0.0000

> <Gold.Chemscore.DEClash.Weighted>
0.0829

> <Gold.Chemscore.DEInternal.Weighted>
1.5912

> <Gold.Chemscore.Rot.Weighted>
3.9612

> <Gold.Chemscore.Internal.Correction.Weighted>
   9.000000E+99

> <Gold.Protein.RotatedTorsions>
[ 6907 6896 6895 6894 ] final   28.04 input  -60.11 | X-H torsion
[ 7974 7965 7964 7962 ] final  -87.84 input  175.53 | X-H torsion
[ 8008 7997 7996 7995 ] final   36.51 input   59.86 | X-H torsion
[ 10167 10162 10161 10158 ] final  -65.47 input  -65.29 | X-H torsion
[ 10718 10713 10712 10709 ] final -152.02 input   66.30 | X-H torsion
[ 10763 10752 10751 10750 ] final  -25.49 input  -60.55 | X-H torsion
[ 11005 11000 10999 10996 ] final  -86.84 input  -57.11 | X-H torsion

> <Gold.Protein.ActiveResidues>
 VAL166  LYS551  ARG553  GLY616  TRP617  ASP618  TYR619  PRO620  LYS621  CYS622 
 ASP623  PHE694  ASN695  SER759  ASP760  ASP761  ALA762  ILE779  LEU786  VAL792 
 PHE793  MET794  SER795  GLU796  ALA797  LYS798  CYS799  TRP800  GLU811  SER814 

> <Gold.Protein.RotatedAtoms>
  152.0110  134.9876  160.0567 H   0  0  0  0  0  0  0  0  0  0  0  0  # atno 6907 bound_to 6896
  152.1428  133.4470  159.4783 H   0  0  0  0  0  0  0  0  0  0  0  0  # atno 6908 bound_to 6896
  150.6867  134.2202  159.4437 H   0  0  0  0  0  0  0  0  0  0  0  0  # atno 6909 bound_to 6896
  145.4612  140.9561  143.1969 H   0  0  0  0  0  0  0  0  0  0  0  0  # atno 7974 bound_to 7965
  155.1885  140.3306  155.4362 H   0  0  0  0  0  0  0  0  0  0  0  0  # atno 8008 bound_to 7997
  156.2451  140.1914  156.6930 H   0  0  0  0  0  0  0  0  0  0  0  0  # atno 8009 bound_to 7997
  154.6222  140.0594  156.9615 H   0  0  0  0  0  0  0  0  0  0  0  0  # atno 8010 bound_to 7997
  140.5727  143.2319  151.6505 H   0  0  0  0  0  0  0  0  0  0  0  0  # atno 10167 bound_to 10162
  156.4670  130.8240  151.2470 H   0  0  0  0  0  0  0  0  0  0  0  0  # atno 10718 bound_to 10713
  153.7007  135.6956  153.5064 H   0  0  0  0  0  0  0  0  0  0  0  0  # atno 10763 bound_to 10752
  153.2345  135.4326  155.0630 H   0  0  0  0  0  0  0  0  0  0  0  0  # atno 10764 bound_to 10752
  154.8345  135.3492  154.6546 H   0  0  0  0  0  0  0  0  0  0  0  0  # atno 10765 bound_to 10752
  141.1625  133.7477  156.9220 H   0  0  0  0  0  0  0  0  0  0  0  0  # atno 11005 bound_to 11000
  144.8002  139.6156  143.7075 LP  0  0  0  0  0  0  0  0  0  0  0  0  # atno 17320 bound_to 7965
  146.2450  139.6079  142.9466 LP  0  0  0  0  0  0  0  0  0  0  0  0  # atno 17321 bound_to 7965
  139.5126  144.3471  152.0687 LP  0  0  0  0  0  0  0  0  0  0  0  0  # atno 17342 bound_to 10162
  140.2610  144.4067  150.6185 LP  0  0  0  0  0  0  0  0  0  0  0  0  # atno 17343 bound_to 10162
  157.7494  131.0089  150.3245 LP  0  0  0  0  0  0  0  0  0  0  0  0  # atno 17370 bound_to 10713
  156.3658  130.3855  149.7215 LP  0  0  0  0  0  0  0  0  0  0  0  0  # atno 17371 bound_to 10713
  140.1445  134.9272  157.2510 LP  0  0  0  0  0  0  0  0  0  0  0  0  # atno 17394 bound_to 11000
  140.2797  134.3364  155.7347 LP  0  0  0  0  0  0  0  0  0  0  0  0  # atno 17395 bound_to 11000

$$$$
