AV-unprocessed.smi:3229|AV-procd|sdf|12328|dock10
  -GOLD-   2272018183D 1   1.00000     0.00000
 Structure written by MMmdl.
 35 36  0  0  0  0  0  0  0  0  1 V2000
  151.2170  145.4480  159.0695 C   0  0  0  0  0  0  0  0  0  0  0  0
  151.7077  144.0610  158.6399 C   0  0  0  0  0  0  0  0  0  0  0  0
  152.4004  143.3164  159.7333 C   0  0  0  0  0  0  0  0  0  0  0  0
  152.9729  142.0700  159.6663 C   0  0  0  0  0  0  0  0  0  0  0  0
  153.5448  141.6453  160.8676 N   0  0  0  0  0  0  0  0  0  0  0  0
  153.4243  142.5540  161.8391 C   0  0  0  0  0  0  0  0  0  0  0  0
  153.9181  142.3471  163.2349 C   0  0  0  0  0  0  0  0  0  0  0  0
  154.9252  143.4129  163.6974 C   0  0  0  0  0  0  0  0  0  0  0  0
  155.5650  143.0404  164.9529 N   0  0  0  0  0  0  0  0  0  0  0  0
  156.6942  143.5883  165.4228 C   0  0  0  0  0  0  0  0  0  0  0  0
  157.3074  144.4778  164.8318 O   0  0  0  0  0  0  0  0  0  0  0  0
  157.1955  143.0556  166.7692 C   0  0  1  0  0  0  0  0  0  0  0  0
  156.2113  143.2325  167.9296 C   0  0  0  0  0  0  0  0  0  0  0  0
  156.6207  142.1007  168.8449 C   0  0  0  0  0  0  0  0  0  0  0  0
  156.9602  140.9939  167.8508 C   0  0  0  0  0  0  0  0  0  0  0  0
  157.4017  141.6491  166.6643 O   0  0  0  0  0  0  0  0  0  0  0  0
  152.5623  144.0008  161.3305 S   0  0  0  0  0  0  0  0  0  0  0  0
  150.7115  145.9535  158.2465 H   0  0  0  0  0  0  0  0  0  0  0  0
  152.0467  146.0799  159.3882 H   0  0  0  0  0  0  0  0  0  0  0  0
  150.5128  145.3758  159.8990 H   0  0  0  0  0  0  0  0  0  0  0  0
  150.8604  143.4759  158.2807 H   0  0  0  0  0  0  0  0  0  0  0  0
  152.3834  144.1646  157.7904 H   0  0  0  0  0  0  0  0  0  0  0  0
  153.0166  141.4173  158.8068 H   0  0  0  0  0  0  0  0  0  0  0  0
  153.0613  142.3289  163.9098 H   0  0  0  0  0  0  0  0  0  0  0  0
  154.3763  141.3597  163.2962 H   0  0  0  0  0  0  0  0  0  0  0  0
  155.6874  143.5582  162.9306 H   0  0  0  0  0  0  0  0  0  0  0  0
  154.4150  144.3688  163.8268 H   0  0  0  0  0  0  0  0  0  0  0  0
  155.1135  142.3250  165.5049 H   0  0  0  0  0  0  0  0  0  0  0  0
  158.1504  143.5152  167.0310 H   0  0  0  0  0  0  0  0  0  0  0  0
  156.2965  144.2082  168.4088 H   0  0  0  0  0  0  0  0  0  0  0  0
  155.1760  143.0959  167.6132 H   0  0  0  0  0  0  0  0  0  0  0  0
  157.5095  142.3825  169.4112 H   0  0  0  0  0  0  0  0  0  0  0  0
  155.8410  141.8157  169.5517 H   0  0  0  0  0  0  0  0  0  0  0  0
  157.7182  140.3105  168.2339 H   0  0  0  0  0  0  0  0  0  0  0  0
  156.0696  140.4118  167.6114 H   0  0  0  0  0  0  0  0  0  0  0  0
  1  2  1  0  0  0  0
  1 18  1  0  0  0  0
  1 19  1  0  0  0  0
  1 20  1  0  0  0  0
  2  3  1  0  0  0  0
  2 21  1  0  0  0  0
  2 22  1  0  0  0  0
  3 17  1  0  0  0  0
  3  4  2  0  0  0  0
  4  5  1  0  0  0  0
  4 23  1  0  0  0  0
  5  6  2  0  0  0  0
  6  7  1  0  0  0  0
  6 17  1  0  0  0  0
  7  8  1  0  0  0  0
  7 24  1  0  0  0  0
  7 25  1  0  0  0  0
  8  9  1  0  0  0  0
  8 26  1  0  0  0  0
  8 27  1  0  0  0  0
  9 10  1  0  0  0  0
  9 28  1  0  0  0  0
 10 11  2  0  0  0  0
 10 12  1  0  0  0  0
 12 16  1  0  0  0  0
 12 13  1  0  0  0  0
 12 29  1  0  0  0  0
 13 14  1  0  0  0  0
 13 30  1  0  0  0  0
 13 31  1  0  0  0  0
 14 15  1  0  0  0  0
 14 32  1  0  0  0  0
 14 33  1  0  0  0  0
 15 16  1  0  0  0  0
 15 34  1  0  0  0  0
 15 35  1  0  0  0  0
M  END
> <s_m_source_file>
AV-unprocessed.smi

> <i_m_source_file_index>
3229

> <i_lp_mmshare_version>
43012

> <i_f3d_flags>
0

> <s_epik_input>
W0NIM11bQ0gyXWMxW2NIXW5jKHMxKVtDSDJdW0NIMl1bTkhdQyg9TylbQ0BASF0yW0NIMl1bQ0gyXVtDSDJdTzI=

> <s_epik_cmdline>
J2VwaWtfcHl0aG9uJywgJy1waCcsICc3LjAnLCAnLXRuJywgJzgnLCAnLW1hJywgJzIwMCcsICctbWV0YWxfYmluZGluZycsICctaW1hZScsICc8aW5maWxlLm1hZT4nLCAnLW9tYWUnLCAnPG91dGZpbGUubWFlPic=

> <r_epik_Ionization_Penalty>
0.000508191

> <r_epik_Ionization_Penalty_Charging>
0

> <r_epik_Ionization_Penalty_Neutral>
0.000508191

> <r_epik_State_Penalty>
0.000316483

> <r_epik_Charging_Adjusted_Penalty>
0.000316483

> <i_epik_Tot_Q>
0

> <i_epik_Tot_abs_Q>
0

> <r_epik_Metal_State_Penalty>
-0

> <b_epik_Metal_Only>
0

> <s_lp_Force_Field>
OPLS_2005

> <r_lp_Energy>
10.5911

> <b_lp_Chiralities_Consistent>
1

> <s_lp_Variant>
AV-unprocessed.smi:3229-2

> <Gold.Version>
5.8.1

> <Gold.Id.Protein>
6NUR|6NUR_protein|mol2

> <Gold.PLP.Fitness>
40.5543

> <Gold.PLP.PLP>
-40.8277

> <Gold.PLP.part.hbond>
-0.7606

> <Gold.PLP.part.metal>
0.0000

> <Gold.PLP.part.buried>
-5.4814

> <Gold.PLP.part.nonpolar>
-34.2369

> <Gold.PLP.part.repulsive>
0.1461

> <Gold.PLP.ligand.clash>
0.0000

> <Gold.PLP.ligand.torsion>
0.1558

> <Gold.PLP.Chemscore.Hbond>
0.0000

> <Gold.PLP.Chemscore.CHOScore>
0.0000

> <Gold.PLP.Chemscore.Metal>
0.0000

> <Gold.PLP.Chemscore.Internal.Correction>
0.0382

> <Gold.Rescore>
     Score         DG    S(hbond)    S(metal)    S(lipo)     H(rot)  DE(clash)    DE(int)     intcor
     12.17     -14.98       0.00        0.00     116.30       1.60       2.51       0.30       ----

> <Gold.Chemscore.Fitness>
12.1692

> <Gold.Chemscore.DG>
-14.9808

> <Gold.Chemscore.ZeroCoef>
-5.4800

> <Gold.Chemscore.Hbond>
0.0000

> <Gold.Chemscore.Metal>
0.0000

> <Gold.Chemscore.Lipo>
116.2997

> <Gold.Chemscore.Internal_Hbond>
0.0000

> <Gold.Chemscore.DEClash>
2.5093

> <Gold.Chemscore.DEInternal>
0.3024

> <Gold.Chemscore.Rot>
1.6040

> <Gold.Chemscore.Internal.Correction>
   9.000000E+99

> <Gold.Chemscore.Hbond.Weighted>
-0.0000

> <Gold.Chemscore.Metal.Weighted>
-0.0000

> <Gold.Chemscore.Lipo.Weighted>
-13.6071

> <Gold.Chemscore.Internal_Hbond.Weighted>
0.0000

> <Gold.Chemscore.DEClash.Weighted>
2.5093

> <Gold.Chemscore.DEInternal.Weighted>
0.3024

> <Gold.Chemscore.Rot.Weighted>
4.1062

> <Gold.Chemscore.Internal.Correction.Weighted>
   9.000000E+99

> <Gold.Protein.RotatedTorsions>
[ 6907 6896 6895 6894 ] final   42.27 input  -60.11 | X-H torsion
[ 7974 7965 7964 7962 ] final -155.21 input  175.53 | X-H torsion
[ 8008 7997 7996 7995 ] final  -45.22 input   59.86 | X-H torsion
[ 10167 10162 10161 10158 ] final -119.74 input  -65.29 | X-H torsion
[ 10718 10713 10712 10709 ] final  -60.48 input   66.30 | X-H torsion
[ 10763 10752 10751 10750 ] final   24.63 input  -60.55 | X-H torsion
[ 11005 11000 10999 10996 ] final -137.16 input  -57.11 | X-H torsion

> <Gold.Protein.ActiveResidues>
 VAL166  LYS551  ARG553  GLY616  TRP617  ASP618  TYR619  PRO620  LYS621  CYS622 
 ASP623  PHE694  ASN695  SER759  ASP760  ASP761  ALA762  ILE779  LEU786  VAL792 
 PHE793  MET794  SER795  GLU796  ALA797  LYS798  CYS799  TRP800  GLU811  SER814 

> <Gold.Protein.RotatedAtoms>
  152.2057  134.8547  160.0502 H   0  0  0  0  0  0  0  0  0  0  0  0  # atno 6907 bound_to 6896
  151.9384  133.3626  159.3964 H   0  0  0  0  0  0  0  0  0  0  0  0  # atno 6908 bound_to 6896
  150.6964  134.4389  159.5327 H   0  0  0  0  0  0  0  0  0  0  0  0  # atno 6909 bound_to 6896
  144.7651  140.4281  143.5948 H   0  0  0  0  0  0  0  0  0  0  0  0  # atno 7974 bound_to 7965
  154.4000  140.1402  156.3811 H   0  0  0  0  0  0  0  0  0  0  0  0  # atno 8008 bound_to 7997
  155.8003  140.3476  155.5378 H   0  0  0  0  0  0  0  0  0  0  0  0  # atno 8009 bound_to 7997
  155.8490  140.0938  157.1677 H   0  0  0  0  0  0  0  0  0  0  0  0  # atno 8010 bound_to 7997
  140.0434  143.5131  152.2119 H   0  0  0  0  0  0  0  0  0  0  0  0  # atno 10167 bound_to 10162
  156.0988  130.4189  150.0860 H   0  0  0  0  0  0  0  0  0  0  0  0  # atno 10718 bound_to 10713
  153.0749  135.6601  154.0166 H   0  0  0  0  0  0  0  0  0  0  0  0  # atno 10763 bound_to 10752
  153.9803  135.2956  155.3422 H   0  0  0  0  0  0  0  0  0  0  0  0  # atno 10764 bound_to 10752
  154.7135  135.5195  153.8772 H   0  0  0  0  0  0  0  0  0  0  0  0  # atno 10765 bound_to 10752
  140.8737  134.2018  157.4635 H   0  0  0  0  0  0  0  0  0  0  0  0  # atno 11005 bound_to 11000
  145.6495  139.1562  143.2870 LP  0  0  0  0  0  0  0  0  0  0  0  0  # atno 17320 bound_to 7965
  146.1751  140.6585  142.9215 LP  0  0  0  0  0  0  0  0  0  0  0  0  # atno 17321 bound_to 7965
  139.5999  144.7579  151.3196 LP  0  0  0  0  0  0  0  0  0  0  0  0  # atno 17342 bound_to 10162
  140.7250  143.7029  150.7830 LP  0  0  0  0  0  0  0  0  0  0  0  0  # atno 17343 bound_to 10162
  156.8852  130.9570  151.3595 LP  0  0  0  0  0  0  0  0  0  0  0  0  # atno 17370 bound_to 10713
  157.6154  130.8614  149.9020 LP  0  0  0  0  0  0  0  0  0  0  0  0  # atno 17371 bound_to 10713
  139.8714  134.9786  156.5004 LP  0  0  0  0  0  0  0  0  0  0  0  0  # atno 17394 bound_to 11000
  140.8543  133.8108  155.9200 LP  0  0  0  0  0  0  0  0  0  0  0  0  # atno 17395 bound_to 11000

$$$$
