AV-unprocessed.smi:3150|AV-procd|sdf|12011|dock5
  -GOLD-   2272017423D 1   1.00000     0.00000
 Structure written by MMmdl.
 32 33  0  0  0  0  0  0  0  0  2 V2000
  152.1568  139.2355  155.7344 C   0  0  0  0  0  0  0  0  0  0  0  0
  150.7731  139.8909  155.6300 C   0  0  2  0  0  0  0  0  0  0  0  0
  150.3683  139.8355  154.2647 O   0  0  0  0  0  0  0  0  0  0  0  0
  149.1491  139.1390  154.0239 C   0  0  0  0  0  0  0  0  0  0  0  0
  147.9654  140.0887  154.0287 C   0  0  0  0  0  0  0  0  0  0  0  0
  148.1448  141.5655  153.7425 C   0  0  0  0  0  0  0  0  0  0  0  0
  147.7940  141.1109  155.1333 C   0  0  0  0  0  0  0  0  0  0  0  0
  150.8234  141.3487  156.1164 C   0  0  0  0  0  0  0  0  0  0  0  0
  150.2949  142.2207  155.4208 O   0  0  0  0  0  0  0  0  0  0  0  0
  151.4914  141.4688  157.3322 N   0  0  0  0  0  0  0  0  0  0  0  0
  151.4446  142.5384  158.0787 C   0  0  0  0  0  0  0  0  0  0  0  0
  150.7117  143.6882  157.7362 N   0  0  0  0  0  0  0  0  0  0  0  0
  150.6655  144.8150  158.5293 C   0  0  0  0  0  0  0  0  0  0  0  0
  151.3245  144.8807  159.6871 C   0  0  0  0  0  0  0  0  0  0  0  0
  152.1041  143.7371  160.1142 C   0  0  0  0  0  0  0  0  0  0  0  0
  152.1884  142.5666  159.3512 C   0  0  0  0  0  0  0  0  0  0  0  0
  152.8746  141.6012  159.7603 O   0  5  0  0  0  0  0  0  0  0  0  0
  152.5176  139.2348  156.7637 H   0  0  0  0  0  0  0  0  0  0  0  0
  152.8934  139.7551  155.1202 H   0  0  0  0  0  0  0  0  0  0  0  0
  152.1189  138.1990  155.3986 H   0  0  0  0  0  0  0  0  0  0  0  0
  150.0715  139.3112  156.2338 H   0  0  0  0  0  0  0  0  0  0  0  0
  149.1911  138.6404  153.0549 H   0  0  0  0  0  0  0  0  0  0  0  0
  148.9761  138.3731  154.7803 H   0  0  0  0  0  0  0  0  0  0  0  0
  147.0480  139.6407  153.6522 H   0  0  0  0  0  0  0  0  0  0  0  0
  149.1538  141.9370  153.5752 H   0  0  0  0  0  0  0  0  0  0  0  0
  147.3669  142.0609  153.1655 H   0  0  0  0  0  0  0  0  0  0  0  0
  146.7824  141.3043  155.4839 H   0  0  0  0  0  0  0  0  0  0  0  0
  148.5692  141.1765  155.8941 H   0  0  0  0  0  0  0  0  0  0  0  0
  150.0627  145.6209  158.1378 H   0  0  0  0  0  0  0  0  0  0  0  0
  151.2780  145.7713  160.2959 H   0  0  0  0  0  0  0  0  0  0  0  0
  152.6333  143.8015  161.0540 H   0  0  0  0  0  0  0  0  0  0  0  0
  150.1832  143.7254  156.8771 H   0  0  0  0  0  0  0  0  0  0  0  0
  1  2  1  0  0  0  0
  1 18  1  0  0  0  0
  1 19  1  0  0  0  0
  1 20  1  0  0  0  0
  2  3  1  0  0  0  0
  2  8  1  0  0  0  0
  2 21  1  0  0  0  0
  3  4  1  0  0  0  0
  4  5  1  0  0  0  0
  4 22  1  0  0  0  0
  4 23  1  0  0  0  0
  5  7  1  0  0  0  0
  5  6  1  0  0  0  0
  5 24  1  0  0  0  0
  6  7  1  0  0  0  0
  6 25  1  0  0  0  0
  6 26  1  0  0  0  0
  7 27  1  0  0  0  0
  7 28  1  0  0  0  0
  8  9  2  0  0  0  0
  8 10  1  0  0  0  0
 10 11  2  0  0  0  0
 11 16  1  0  0  0  0
 11 12  1  0  0  0  0
 12 32  1  0  0  0  0
 12 13  1  0  0  0  0
 13 29  1  0  0  0  0
 13 14  2  0  0  0  0
 14 30  1  0  0  0  0
 14 15  1  0  0  0  0
 15 16  2  0  0  0  0
 15 31  1  0  0  0  0
 16 17  1  0  0  0  0
M  CHG  1  17  -1
M  END
> <s_m_source_file>
AV-unprocessed.smi

> <i_m_source_file_index>
3150

> <i_lp_mmshare_version>
43012

> <i_f3d_flags>
0

> <s_epik_input>
W0NIMl0xW0NIMl1bQ0hdMVtDSDJdT1tDQEBIXShbQ0gzXSlDKD1PKVtOSF1jMm5bY0hdW2NIXVtjSF1jMltPSF0=

> <s_epik_cmdline>
J2VwaWtfcHl0aG9uJywgJy1waCcsICc3LjAnLCAnLXRuJywgJzgnLCAnLW1hJywgJzIwMCcsICctbWV0YWxfYmluZGluZycsICctaW1hZScsICc8aW5maWxlLm1hZT4nLCAnLW9tYWUnLCAnPG91dGZpbGUubWFlPic=

> <r_epik_Ionization_Penalty>
0.784632

> <r_epik_Ionization_Penalty_Charging>
0.784632

> <r_epik_Ionization_Penalty_Neutral>
7.02258e-13

> <r_epik_State_Penalty>
1.43154

> <r_epik_Charging_Adjusted_Penalty>
2.21617

> <i_epik_Tot_Q>
-1

> <i_epik_Tot_abs_Q>
1

> <r_epik_Metal_State_Penalty>
1.39244

> <b_epik_Metal_Only>
0

> <s_lp_Force_Field>
OPLS_2005

> <r_lp_Energy>
43.7392

> <b_lp_Chiralities_Consistent>
1

> <s_lp_Variant>
AV-unprocessed.smi:3150-5

> <Gold.Version>
5.8.1

> <Gold.Id.Protein>
6NUR|6NUR_protein|mol2

> <Gold.PLP.Fitness>
39.1028

> <Gold.PLP.PLP>
-33.2288

> <Gold.PLP.part.hbond>
-2.5744

> <Gold.PLP.part.metal>
0.0000

> <Gold.PLP.part.buried>
-2.1231

> <Gold.PLP.part.nonpolar>
-30.5400

> <Gold.PLP.part.repulsive>
1.8837

> <Gold.PLP.ligand.clash>
0.0000

> <Gold.PLP.ligand.torsion>
1.5919

> <Gold.PLP.Chemscore.Hbond>
1.8366

> <Gold.PLP.Chemscore.CHOScore>
1.0000

> <Gold.PLP.Chemscore.Metal>
0.0000

> <Gold.Chemscore.Hbonds>
donor molecule, donor type, donor heavy atom, donor atom, acceptor molecule, acceptor atom, score
      L1  H    12    32       P1  8028  0.96
      P1  H  7989  7998       L1     3  1.00
      L1  C    13    29       P1  8029  1.00

> <Gold.PLP.Chemscore.Internal.Correction>
0.5479

> <Gold.Rescore>
     Score         DG    S(hbond)    S(metal)    S(lipo)     H(rot)  DE(clash)    DE(int)     intcor
     12.57     -15.78       1.45        0.00      82.37       1.64       1.71       1.49       ----

> <Gold.Chemscore.Fitness>
12.5734

> <Gold.Chemscore.DG>
-15.7785

> <Gold.Chemscore.ZeroCoef>
-5.4800

> <Gold.Chemscore.Hbond>
1.4539

> <Gold.Chemscore.Metal>
0.0000

> <Gold.Chemscore.Lipo>
82.3712

> <Gold.Chemscore.Internal_Hbond>
0.0000

> <Gold.Chemscore.DEClash>
1.7134

> <Gold.Chemscore.DEInternal>
1.4917

> <Gold.Chemscore.Rot>
1.6387

> <Gold.Chemscore.Internal.Correction>
   9.000000E+99

> <Gold.Chemscore.Hbonds>
donor molecule, donor type, donor heavy atom, donor atom, acceptor molecule, acceptor atom, score
      L1  H    12    32       P1  8028  0.86
      P1  H  7989  7998       L1     3  0.34

> <Gold.Chemscore.Hbond.Weighted>
-4.8561

> <Gold.Chemscore.Metal.Weighted>
-0.0000

> <Gold.Chemscore.Lipo.Weighted>
-9.6374

> <Gold.Chemscore.Internal_Hbond.Weighted>
0.0000

> <Gold.Chemscore.DEClash.Weighted>
1.7134

> <Gold.Chemscore.DEInternal.Weighted>
1.4917

> <Gold.Chemscore.Rot.Weighted>
4.1950

> <Gold.Chemscore.Internal.Correction.Weighted>
   9.000000E+99

> <Gold.Protein.RotatedTorsions>
[ 6907 6896 6895 6894 ] final   70.01 input  -60.11 | X-H torsion
[ 7974 7965 7964 7962 ] final   -3.07 input  175.53 | X-H torsion
[ 8008 7997 7996 7995 ] final  -44.06 input   59.86 | X-H torsion
[ 10167 10162 10161 10158 ] final  127.86 input  -65.29 | X-H torsion
[ 10718 10713 10712 10709 ] final   33.45 input   66.30 | X-H torsion
[ 10763 10752 10751 10750 ] final  114.40 input  -60.55 | X-H torsion
[ 11005 11000 10999 10996 ] final -131.56 input  -57.11 | X-H torsion

> <Gold.Protein.ActiveResidues>
 VAL166  LYS551  ARG553  GLY616  TRP617  ASP618  TYR619  PRO620  LYS621  CYS622 
 ASP623  PHE694  ASN695  SER759  ASP760  ASP761  ALA762  ILE779  LEU786  VAL792 
 PHE793  MET794  SER795  GLU796  ALA797  LYS798  CYS799  TRP800  GLU811  SER814 

> <Gold.Protein.RotatedAtoms>
  152.4723  134.4931  159.9701 H   0  0  0  0  0  0  0  0  0  0  0  0  # atno 6907 bound_to 6896
  151.4955  133.3510  159.2868 H   0  0  0  0  0  0  0  0  0  0  0  0  # atno 6908 bound_to 6896
  150.8740  134.8146  159.7237 H   0  0  0  0  0  0  0  0  0  0  0  0  # atno 6909 bound_to 6896
  146.2395  140.1666  142.8332 H   0  0  0  0  0  0  0  0  0  0  0  0  # atno 7974 bound_to 7965
  154.3997  140.1432  156.3621 H   0  0  0  0  0  0  0  0  0  0  0  0  # atno 8008 bound_to 7997
  155.8171  140.3471  155.5471 H   0  0  0  0  0  0  0  0  0  0  0  0  # atno 8009 bound_to 7997
  155.8326  140.0914  157.1774 H   0  0  0  0  0  0  0  0  0  0  0  0  # atno 8010 bound_to 7997
  139.5557  144.6846  151.4191 H   0  0  0  0  0  0  0  0  0  0  0  0  # atno 10167 bound_to 10162
  157.2980  130.7336  149.6650 H   0  0  0  0  0  0  0  0  0  0  0  0  # atno 10718 bound_to 10713
  153.5068  135.3626  155.2567 H   0  0  0  0  0  0  0  0  0  0  0  0  # atno 10763 bound_to 10752
  154.8744  135.4013  154.3415 H   0  0  0  0  0  0  0  0  0  0  0  0  # atno 10764 bound_to 10752
  153.4061  135.7076  153.6458 H   0  0  0  0  0  0  0  0  0  0  0  0  # atno 10765 bound_to 10752
  140.9248  134.1397  157.4285 H   0  0  0  0  0  0  0  0  0  0  0  0  # atno 11005 bound_to 11000
  145.0046  140.8661  143.5261 LP  0  0  0  0  0  0  0  0  0  0  0  0  # atno 17320 bound_to 7965
  145.1690  139.2415  143.5352 LP  0  0  0  0  0  0  0  0  0  0  0  0  # atno 17321 bound_to 7965
  140.6829  143.8041  150.7145 LP  0  0  0  0  0  0  0  0  0  0  0  0  # atno 17342 bound_to 10162
  140.1500  143.4366  152.2137 LP  0  0  0  0  0  0  0  0  0  0  0  0  # atno 17343 bound_to 10162
  155.9670  130.4288  150.4806 LP  0  0  0  0  0  0  0  0  0  0  0  0  # atno 17370 bound_to 10713
  157.2781  131.0601  151.2215 LP  0  0  0  0  0  0  0  0  0  0  0  0  # atno 17371 bound_to 10713
  139.8783  134.9984  156.5899 LP  0  0  0  0  0  0  0  0  0  0  0  0  # atno 17394 bound_to 11000
  140.7941  133.8558  155.8671 LP  0  0  0  0  0  0  0  0  0  0  0  0  # atno 17395 bound_to 11000

$$$$
