AV-unprocessed.smi:1006|AV-procd|sdf|4394|dock5
  -GOLD-   22720 2323D 1   1.00000     0.00000
 Structure written by MMmdl.
 46 48  0  0  0  0  0  0  0  0  2 V2000
  151.1896  131.3349  156.2247 C   0  0  0  0  0  0  0  0  0  0  0  0
  150.5179  132.5448  155.6109 C   0  0  0  0  0  0  0  0  0  0  0  0
  149.7059  132.4351  154.4607 C   0  0  0  0  0  0  0  0  0  0  0  0
  149.1322  133.6330  153.9849 C   0  0  0  0  0  0  0  0  0  0  0  0
  148.3156  133.6332  152.8571 N   0  0  0  0  0  0  0  0  0  0  0  0
  149.3454  134.8172  154.5979 N   0  0  0  0  0  0  0  0  0  0  0  0
  150.1349  134.7916  155.6745 C   0  0  0  0  0  0  0  0  0  0  0  0
  150.3851  136.3412  156.4998 S   0  0  0  0  0  0  0  0  0  0  0  0
  150.9474  137.3177  155.0794 C   0  0  0  0  0  0  0  0  0  0  0  0
  150.6718  138.8239  155.2431 C   0  0  2  0  0  0  0  0  0  0  0  0
  150.5581  139.4236  153.9687 O   0  0  0  0  0  0  0  0  0  0  0  0
  151.7688  139.5765  156.0236 C   0  0  0  0  0  0  0  0  0  0  0  0
  151.3431  140.9111  156.4684 N   0  0  0  0  0  0  0  0  0  0  0  0
  150.5368  141.8132  155.8459 C   0  0  0  0  0  0  0  0  0  0  0  0
  150.4297  142.8993  156.6601 N   0  3  0  0  0  0  0  0  0  0  0  0
  151.1777  142.6883  157.8202 C   0  0  0  0  0  0  0  0  0  0  0  0
  151.3725  143.4939  158.9359 C   0  0  0  0  0  0  0  0  0  0  0  0
  152.1918  142.9810  159.9668 C   0  0  0  0  0  0  0  0  0  0  0  0
  152.4202  143.8333  161.2035 C   0  0  0  0  0  0  0  0  0  0  0  0
  152.7871  141.6978  159.8556 C   0  0  0  0  0  0  0  0  0  0  0  0
  153.6572  141.1507  160.9743 C   0  0  0  0  0  0  0  0  0  0  0  0
  152.5839  140.8979  158.7087 C   0  0  0  0  0  0  0  0  0  0  0  0
  151.7702  141.4158  157.7032 C   0  0  0  0  0  0  0  0  0  0  0  0
  150.7320  133.7313  156.2217 N   0  0  0  0  0  0  0  0  0  0  0  0
  150.9497  130.4276  155.6698 H   0  0  0  0  0  0  0  0  0  0  0  0
  150.8604  131.2007  157.2555 H   0  0  0  0  0  0  0  0  0  0  0  0
  152.2727  131.4600  156.2220 H   0  0  0  0  0  0  0  0  0  0  0  0
  149.5350  131.4870  153.9716 H   0  0  0  0  0  0  0  0  0  0  0  0
  148.1132  132.7822  152.3527 H   0  0  0  0  0  0  0  0  0  0  0  0
  147.9846  134.4963  152.4510 H   0  0  0  0  0  0  0  0  0  0  0  0
  152.0168  137.1381  154.9729 H   0  0  0  0  0  0  0  0  0  0  0  0
  150.4681  136.9358  154.1774 H   0  0  0  0  0  0  0  0  0  0  0  0
  149.7195  138.9564  155.7585 H   0  0  0  0  0  0  0  0  0  0  0  0
  149.7346  139.1647  153.5840 H   0  0  0  0  0  0  0  0  0  0  0  0
  152.1080  139.0012  156.8853 H   0  0  0  0  0  0  0  0  0  0  0  0
  152.6448  139.7174  155.3889 H   0  0  0  0  0  0  0  0  0  0  0  0
  150.0636  141.6875  154.8826 H   0  0  0  0  0  0  0  0  0  0  0  0
  150.9128  144.4682  159.0148 H   0  0  0  0  0  0  0  0  0  0  0  0
  153.4852  144.0101  161.3570 H   0  0  0  0  0  0  0  0  0  0  0  0
  152.0192  143.3375  162.0883 H   0  0  0  0  0  0  0  0  0  0  0  0
  151.9323  144.8045  161.1145 H   0  0  0  0  0  0  0  0  0  0  0  0
  154.0103  140.1438  160.7492 H   0  0  0  0  0  0  0  0  0  0  0  0
  153.0967  141.1040  161.9082 H   0  0  0  0  0  0  0  0  0  0  0  0
  154.5311  141.7849  161.1247 H   0  0  0  0  0  0  0  0  0  0  0  0
  153.0365  139.9207  158.6290 H   0  0  0  0  0  0  0  0  0  0  0  0
  149.8817  143.7211  156.4395 H   0  0  0  0  0  0  0  0  0  0  0  0
  1  2  1  0  0  0  0
  1 25  1  0  0  0  0
  1 26  1  0  0  0  0
  1 27  1  0  0  0  0
  2 24  1  0  0  0  0
  2  3  2  0  0  0  0
  3  4  1  0  0  0  0
  3 28  1  0  0  0  0
  4  5  1  0  0  0  0
  4  6  2  0  0  0  0
  5 29  1  0  0  0  0
  5 30  1  0  0  0  0
  6  7  1  0  0  0  0
  7  8  1  0  0  0  0
  7 24  2  0  0  0  0
  8  9  1  0  0  0  0
  9 10  1  0  0  0  0
  9 31  1  0  0  0  0
  9 32  1  0  0  0  0
 10 11  1  0  0  0  0
 10 12  1  0  0  0  0
 10 33  1  0  0  0  0
 11 34  1  0  0  0  0
 12 13  1  0  0  0  0
 12 35  1  0  0  0  0
 12 36  1  0  0  0  0
 13 23  1  0  0  0  0
 13 14  1  0  0  0  0
 14 15  2  0  0  0  0
 14 37  1  0  0  0  0
 15 16  1  0  0  0  0
 15 46  1  0  0  0  0
 16 23  2  0  0  0  0
 16 17  1  0  0  0  0
 17 18  2  0  0  0  0
 17 38  1  0  0  0  0
 18 19  1  0  0  0  0
 18 20  1  0  0  0  0
 19 39  1  0  0  0  0
 19 40  1  0  0  0  0
 19 41  1  0  0  0  0
 20 21  1  0  0  0  0
 20 22  2  0  0  0  0
 21 42  1  0  0  0  0
 21 43  1  0  0  0  0
 21 44  1  0  0  0  0
 22 23  1  0  0  0  0
 22 45  1  0  0  0  0
M  CHG  1  15   1
M  END
> <s_m_source_file>
AV-unprocessed.smi

> <i_m_source_file_index>
1006

> <i_lp_mmshare_version>
43012

> <i_f3d_flags>
0

> <s_epik_input>
W0NIM11jMVtjSF1jKFtOSDJdKW5jKG4xKVNbQ0gyXVtDQEhdKFtPSF0pW0NIMl1uKFtjSF1uMiljKGMyMylbY0hdYyhbQ0gzXSljKFtjSF0zKVtDSDNd

> <s_epik_cmdline>
J2VwaWtfcHl0aG9uJywgJy1waCcsICc3LjAnLCAnLXRuJywgJzgnLCAnLW1hJywgJzIwMCcsICctbWV0YWxfYmluZGluZycsICctaW1hZScsICc8aW5maWxlLm1hZT4nLCAnLW9tYWUnLCAnPG91dGZpbGUubWFlPic=

> <r_epik_Ionization_Penalty>
1.4378

> <r_epik_Ionization_Penalty_Charging>
1.06724

> <r_epik_Ionization_Penalty_Neutral>
0.370564

> <r_epik_State_Penalty>
1.48666

> <r_epik_Charging_Adjusted_Penalty>
2.5539

> <i_epik_Tot_Q>
1

> <i_epik_Tot_abs_Q>
1

> <r_epik_Metal_State_Penalty>
1.38026

> <b_epik_Metal_Only>
0

> <s_lp_Force_Field>
OPLS_2005

> <r_lp_Energy>
8.71661

> <b_lp_Chiralities_Consistent>
1

> <s_lp_Variant>
AV-unprocessed.smi:1006-5

> <Gold.Version>
5.8.1

> <Gold.Id.Protein>
6NUR|6NUR_protein|mol2

> <Gold.PLP.Fitness>
59.1492

> <Gold.PLP.PLP>
-50.2272

> <Gold.PLP.part.hbond>
-4.0000

> <Gold.PLP.part.metal>
0.0000

> <Gold.PLP.part.buried>
-6.2992

> <Gold.PLP.part.nonpolar>
-39.3664

> <Gold.PLP.part.repulsive>
0.4175

> <Gold.PLP.ligand.clash>
0.0000

> <Gold.PLP.ligand.torsion>
0.9222

> <Gold.PLP.Chemscore.Hbond>
3.5780

> <Gold.PLP.Chemscore.CHOScore>
0.0000

> <Gold.PLP.Chemscore.Metal>
0.0000

> <Gold.Chemscore.Hbonds>
donor molecule, donor type, donor heavy atom, donor atom, acceptor molecule, acceptor atom, score
      L1  H     5    30       P1  7948  0.64
      L1  H    15    46       P1  8028  2.00
      P1  H  7989  7998       L1    11  1.00

> <Gold.PLP.Chemscore.Internal.Correction>
0.0325

> <Gold.Rescore>
     Score         DG    S(hbond)    S(metal)    S(lipo)     H(rot)  DE(clash)    DE(int)     intcor
     18.28     -19.40       2.39        0.00     113.94       2.89       0.08       1.04       ----

> <Gold.Chemscore.Fitness>
18.2795

> <Gold.Chemscore.DG>
-19.3980

> <Gold.Chemscore.ZeroCoef>
-5.4800

> <Gold.Chemscore.Hbond>
2.3915

> <Gold.Chemscore.Metal>
0.0000

> <Gold.Chemscore.Lipo>
113.9427

> <Gold.Chemscore.Internal_Hbond>
0.0000

> <Gold.Chemscore.DEClash>
0.0817

> <Gold.Chemscore.DEInternal>
1.0368

> <Gold.Chemscore.Rot>
2.8910

> <Gold.Chemscore.Internal.Correction>
   9.000000E+99

> <Gold.Chemscore.Hbonds>
donor molecule, donor type, donor heavy atom, donor atom, acceptor molecule, acceptor atom, score
      L1  H     5    30       P1  7948  0.27
      L1  H    15    46       P1  8028  0.98
      P1  H  7989  7998       L1    11  0.97

> <Gold.Chemscore.Hbond.Weighted>
-7.9876

> <Gold.Chemscore.Metal.Weighted>
-0.0000

> <Gold.Chemscore.Lipo.Weighted>
-13.3313

> <Gold.Chemscore.Internal_Hbond.Weighted>
0.0000

> <Gold.Chemscore.DEClash.Weighted>
0.0817

> <Gold.Chemscore.DEInternal.Weighted>
1.0368

> <Gold.Chemscore.Rot.Weighted>
7.4009

> <Gold.Chemscore.Internal.Correction.Weighted>
   9.000000E+99

> <Gold.Protein.RotatedTorsions>
[ 6907 6896 6895 6894 ] final  161.52 input  -60.11 | X-H torsion
[ 7974 7965 7964 7962 ] final  101.29 input  175.53 | X-H torsion
[ 8008 7997 7996 7995 ] final  117.71 input   59.86 | X-H torsion
[ 10167 10162 10161 10158 ] final   15.08 input  -65.29 | X-H torsion
[ 10718 10713 10712 10709 ] final   60.51 input   66.30 | X-H torsion
[ 10763 10752 10751 10750 ] final -169.50 input  -60.55 | X-H torsion
[ 11005 11000 10999 10996 ] final -117.14 input  -57.11 | X-H torsion

> <Gold.Protein.ActiveResidues>
 VAL166  LYS551  ARG553  GLY616  TRP617  ASP618  TYR619  PRO620  LYS621  CYS622 
 ASP623  PHE694  ASN695  SER759  ASP760  ASP761  ALA762  ILE779  LEU786  VAL792 
 PHE793  MET794  SER795  GLU796  ALA797  LYS798  CYS799  TRP800  GLU811  SER814 

> <Gold.Protein.RotatedAtoms>
  151.9543  133.3675  159.4011 H   0  0  0  0  0  0  0  0  0  0  0  0  # atno 6907 bound_to 6896
  150.6975  134.4307  159.5256 H   0  0  0  0  0  0  0  0  0  0  0  0  # atno 6908 bound_to 6896
  152.1985  134.8609  160.0561 H   0  0  0  0  0  0  0  0  0  0  0  0  # atno 6909 bound_to 6896
  145.3743  139.2392  143.3438 H   0  0  0  0  0  0  0  0  0  0  0  0  # atno 7974 bound_to 7965
  156.2509  140.2890  156.0721 H   0  0  0  0  0  0  0  0  0  0  0  0  # atno 8008 bound_to 7997
  155.1659  140.0400  157.2870 H   0  0  0  0  0  0  0  0  0  0  0  0  # atno 8009 bound_to 7997
  154.6360  140.2511  155.7385 H   0  0  0  0  0  0  0  0  0  0  0  0  # atno 8010 bound_to 7997
  140.5892  143.8830  150.6857 H   0  0  0  0  0  0  0  0  0  0  0  0  # atno 10167 bound_to 10162
  157.5758  130.8943  149.9345 H   0  0  0  0  0  0  0  0  0  0  0  0  # atno 10718 bound_to 10713
  154.6516  135.2912  154.9980 H   0  0  0  0  0  0  0  0  0  0  0  0  # atno 10763 bound_to 10752
  154.1071  135.6568  153.4882 H   0  0  0  0  0  0  0  0  0  0  0  0  # atno 10764 bound_to 10752
  153.0379  135.5256  154.7426 H   0  0  0  0  0  0  0  0  0  0  0  0  # atno 10765 bound_to 10752
  141.0375  133.9887  157.3048 H   0  0  0  0  0  0  0  0  0  0  0  0  # atno 11005 bound_to 11000
  146.2871  140.4399  142.8754 LP  0  0  0  0  0  0  0  0  0  0  0  0  # atno 17320 bound_to 7965
  144.8554  140.7062  143.6142 LP  0  0  0  0  0  0  0  0  0  0  0  0  # atno 17321 bound_to 7965
  140.2348  143.3708  152.1535 LP  0  0  0  0  0  0  0  0  0  0  0  0  # atno 17342 bound_to 10162
  139.5216  144.7048  151.5385 LP  0  0  0  0  0  0  0  0  0  0  0  0  # atno 17343 bound_to 10162
  156.0803  130.3674  150.0594 LP  0  0  0  0  0  0  0  0  0  0  0  0  # atno 17370 bound_to 10713
  156.8740  130.9534  151.3606 LP  0  0  0  0  0  0  0  0  0  0  0  0  # atno 17371 bound_to 10713
  139.9251  135.0201  156.8205 LP  0  0  0  0  0  0  0  0  0  0  0  0  # atno 17394 bound_to 11000
  140.6296  133.9918  155.7655 LP  0  0  0  0  0  0  0  0  0  0  0  0  # atno 17395 bound_to 11000

$$$$
