AV-unprocessed.smi:2871|AV-procd|sdf|11031|dock9
  -GOLD-   2272015493D 1   1.00000     0.00000
 Structure written by MMmdl.
 38 40  0  0  0  0  0  0  0  0  1 V2000
  151.4829  144.6955  158.9573 C   0  0  0  0  0  0  0  0  0  0  0  0
  152.0424  143.7837  159.9497 N   0  0  0  0  0  0  0  0  0  0  0  0
  152.1121  144.1783  161.3510 C   0  0  0  0  0  0  0  0  0  0  0  0
  152.5145  142.5151  159.5469 C   0  0  0  0  0  0  0  0  0  0  0  0
  153.4650  141.7903  160.3067 C   0  0  0  0  0  0  0  0  0  0  0  0
  153.8611  140.5301  159.8048 C   0  0  0  0  0  0  0  0  0  0  0  0
  154.8764  139.6558  160.5252 C   0  0  0  0  0  0  0  0  0  0  0  0
  155.9323  139.4530  159.7370 F   0  0  0  0  0  0  0  0  0  0  0  0
  155.2966  140.2208  161.6577 F   0  0  0  0  0  0  0  0  0  0  0  0
  154.3273  138.4773  160.8206 F   0  0  0  0  0  0  0  0  0  0  0  0
  153.3566  140.0384  158.6509 N   0  0  0  0  0  0  0  0  0  0  0  0
  152.4663  140.7934  158.0089 C   0  0  0  0  0  0  0  0  0  0  0  0
  151.9632  140.2551  156.8390 N   0  0  0  0  0  0  0  0  0  0  0  0
  152.3842  138.9801  156.2688 C   0  0  1  0  0  0  0  0  0  0  0  0
  151.7617  137.7715  156.9712 C   0  0  0  0  0  0  0  0  0  0  0  0
  151.1385  137.0097  155.7925 C   0  0  1  0  0  0  0  0  0  0  0  0
  149.8620  137.6962  155.2899 C   0  0  0  0  0  0  0  0  0  0  0  0
  150.4287  138.9275  154.5859 C   0  0  0  0  0  0  0  0  0  0  0  0
  151.9408  138.7546  154.8095 C   0  0  2  0  0  0  0  0  0  0  0  0
  152.0384  137.3418  154.7483 O   0  0  0  0  0  0  0  0  0  0  0  0
  152.0271  141.9950  158.3948 N   0  0  0  0  0  0  0  0  0  0  0  0
  152.2323  144.9520  158.2079 H   0  0  0  0  0  0  0  0  0  0  0  0
  151.1388  145.6221  159.4166 H   0  0  0  0  0  0  0  0  0  0  0  0
  150.6316  144.2373  158.4522 H   0  0  0  0  0  0  0  0  0  0  0  0
  153.1433  144.1568  161.7047 H   0  0  0  0  0  0  0  0  0  0  0  0
  151.5171  143.5045  161.9682 H   0  0  0  0  0  0  0  0  0  0  0  0
  151.7315  145.1892  161.4988 H   0  0  0  0  0  0  0  0  0  0  0  0
  153.8766  142.1697  161.2295 H   0  0  0  0  0  0  0  0  0  0  0  0
  151.3585  140.8448  156.2864 H   0  0  0  0  0  0  0  0  0  0  0  0
  153.4706  138.9037  156.3333 H   0  0  0  0  0  0  0  0  0  0  0  0
  152.5368  137.1756  157.4544 H   0  0  0  0  0  0  0  0  0  0  0  0
  151.0183  138.0340  157.7254 H   0  0  0  0  0  0  0  0  0  0  0  0
  151.0254  135.9395  155.9664 H   0  0  0  0  0  0  0  0  0  0  0  0
  149.3317  137.0606  154.5800 H   0  0  0  0  0  0  0  0  0  0  0  0
  149.1781  137.9481  156.1010 H   0  0  0  0  0  0  0  0  0  0  0  0
  150.1942  138.8952  153.5213 H   0  0  0  0  0  0  0  0  0  0  0  0
  150.0402  139.8645  154.9856 H   0  0  0  0  0  0  0  0  0  0  0  0
  152.5567  139.2727  154.0739 H   0  0  0  0  0  0  0  0  0  0  0  0
  1  2  1  0  0  0  0
  1 22  1  0  0  0  0
  1 23  1  0  0  0  0
  1 24  1  0  0  0  0
  2  3  1  0  0  0  0
  2  4  1  0  0  0  0
  3 25  1  0  0  0  0
  3 26  1  0  0  0  0
  3 27  1  0  0  0  0
  4 21  1  0  0  0  0
  4  5  2  0  0  0  0
  5  6  1  0  0  0  0
  5 28  1  0  0  0  0
  6  7  1  0  0  0  0
  6 11  2  0  0  0  0
  7  8  1  0  0  0  0
  7  9  1  0  0  0  0
  7 10  1  0  0  0  0
 11 12  1  0  0  0  0
 12 13  1  0  0  0  0
 12 21  2  0  0  0  0
 13 14  1  0  0  0  0
 13 29  1  0  0  0  0
 14 19  1  0  0  0  0
 14 15  1  0  0  0  0
 14 30  1  0  0  0  0
 15 16  1  0  0  0  0
 15 31  1  0  0  0  0
 15 32  1  0  0  0  0
 16 20  1  0  0  0  0
 16 17  1  0  0  0  0
 16 33  1  0  0  0  0
 17 18  1  0  0  0  0
 17 34  1  0  0  0  0
 17 35  1  0  0  0  0
 18 19  1  0  0  0  0
 18 36  1  0  0  0  0
 18 37  1  0  0  0  0
 19 20  1  0  0  0  0
 19 38  1  0  0  0  0
M  END
> <s_m_source_file>
AV-unprocessed.smi

> <i_m_source_file_index>
2871

> <i_lp_mmshare_version>
43012

> <i_f3d_flags>
0

> <s_epik_input>
W0NIM11OKFtDSDNdKWMxW2NIXWMoQyhGKShGKUYpbmMobjEpW05IXVtDQEhdKFtDSDJdW0NAQEhdMjMpW0NAQEhdKE8zKVtDSDJdW0NIMl0y

> <s_epik_cmdline>
J2VwaWtfcHl0aG9uJywgJy1waCcsICc3LjAnLCAnLXRuJywgJzgnLCAnLW1hJywgJzIwMCcsICctbWV0YWxfYmluZGluZycsICctaW1hZScsICc8aW5maWxlLm1hZT4nLCAnLW9tYWUnLCAnPG91dGZpbGUubWFlPic=

> <r_lp_tautomer_probability>
1

> <r_epik_Ionization_Penalty>
0.00695968

> <r_epik_Ionization_Penalty_Charging>
0

> <r_epik_Ionization_Penalty_Neutral>
0.00695968

> <r_epik_State_Penalty>
0.0050343

> <r_epik_Charging_Adjusted_Penalty>
0.0050343

> <i_epik_Tot_Q>
0

> <i_epik_Tot_abs_Q>
0

> <r_epik_Metal_State_Penalty>
-0

> <b_epik_Metal_Only>
0

> <s_lp_Force_Field>
OPLS_2005

> <r_lp_Energy>
32.958

> <b_lp_Chiralities_Consistent>
1

> <s_lp_Variant>
AV-unprocessed.smi:2871-2

> <Gold.Version>
5.8.1

> <Gold.Id.Protein>
6NUR|6NUR_protein|mol2

> <Gold.PLP.Fitness>
47.1438

> <Gold.PLP.PLP>
-42.3547

> <Gold.PLP.part.hbond>
-2.0000

> <Gold.PLP.part.metal>
0.0000

> <Gold.PLP.part.buried>
-5.4431

> <Gold.PLP.part.nonpolar>
-35.4252

> <Gold.PLP.part.repulsive>
0.2562

> <Gold.PLP.ligand.clash>
0.0000

> <Gold.PLP.ligand.torsion>
0.4353

> <Gold.PLP.Chemscore.Hbond>
1.8795

> <Gold.PLP.Chemscore.CHOScore>
0.0000

> <Gold.PLP.Chemscore.Metal>
0.0000

> <Gold.Chemscore.Hbonds>
donor molecule, donor type, donor heavy atom, donor atom, acceptor molecule, acceptor atom, score
      P1  H  7997  8009       L1    11  0.84
      P1  H 10752 10765       L1    20  0.88

> <Gold.PLP.Chemscore.Internal.Correction>
0.0213

> <Gold.Rescore>
     Score         DG    S(hbond)    S(metal)    S(lipo)     H(rot)  DE(clash)    DE(int)     intcor
     15.94     -16.46       1.03        0.00      86.38       1.00       0.05       0.47       ----

> <Gold.Chemscore.Fitness>
15.9448

> <Gold.Chemscore.DG>
-16.4613

> <Gold.Chemscore.ZeroCoef>
-5.4800

> <Gold.Chemscore.Hbond>
1.0283

> <Gold.Chemscore.Metal>
0.0000

> <Gold.Chemscore.Lipo>
86.3834

> <Gold.Chemscore.Internal_Hbond>
0.0000

> <Gold.Chemscore.DEClash>
0.0513

> <Gold.Chemscore.DEInternal>
0.4651

> <Gold.Chemscore.Rot>
1.0000

> <Gold.Chemscore.Internal.Correction>
   9.000000E+99

> <Gold.Chemscore.Hbonds>
donor molecule, donor type, donor heavy atom, donor atom, acceptor molecule, acceptor atom, score
      P1  H  7997  8009       L1    11  0.10
      P1  H 10752 10765       L1    20  0.34

> <Gold.Chemscore.Hbond.Weighted>
-3.4344

> <Gold.Chemscore.Metal.Weighted>
-0.0000

> <Gold.Chemscore.Lipo.Weighted>
-10.1069

> <Gold.Chemscore.Internal_Hbond.Weighted>
0.0000

> <Gold.Chemscore.DEClash.Weighted>
0.0513

> <Gold.Chemscore.DEInternal.Weighted>
0.4651

> <Gold.Chemscore.Rot.Weighted>
2.5600

> <Gold.Chemscore.Internal.Correction.Weighted>
   9.000000E+99

> <Gold.Protein.RotatedTorsions>
[ 6907 6896 6895 6894 ] final  172.23 input  -60.11 | X-H torsion
[ 7974 7965 7964 7962 ] final    8.58 input  175.53 | X-H torsion
[ 8008 7997 7996 7995 ] final  138.88 input   59.86 | X-H torsion
[ 10167 10162 10161 10158 ] final  123.61 input  -65.29 | X-H torsion
[ 10718 10713 10712 10709 ] final -157.12 input   66.30 | X-H torsion
[ 10763 10752 10751 10750 ] final  167.43 input  -60.55 | X-H torsion
[ 11005 11000 10999 10996 ] final  -97.62 input  -57.11 | X-H torsion

> <Gold.Protein.ActiveResidues>
 VAL166  LYS551  ARG553  GLY616  TRP617  ASP618  TYR619  PRO620  LYS621  CYS622 
 ASP623  PHE694  ASN695  SER759  ASP760  ASP761  ALA762  ILE779  LEU786  VAL792 
 PHE793  MET794  SER795  GLU796  ALA797  LYS798  CYS799  TRP800  GLU811  SER814 

> <Gold.Protein.RotatedAtoms>
  151.7876  133.3356  159.3489 H   0  0  0  0  0  0  0  0  0  0  0  0  # atno 6907 bound_to 6896
  150.7403  134.5872  159.5978 H   0  0  0  0  0  0  0  0  0  0  0  0  # atno 6908 bound_to 6896
  152.3232  134.7355  160.0359 H   0  0  0  0  0  0  0  0  0  0  0  0  # atno 6909 bound_to 6896
  146.2414  139.9912  142.8425 H   0  0  0  0  0  0  0  0  0  0  0  0  # atno 7974 bound_to 7965
  156.2994  140.2382  156.4146 H   0  0  0  0  0  0  0  0  0  0  0  0  # atno 8008 bound_to 7997
  154.8410  140.0428  157.1561 H   0  0  0  0  0  0  0  0  0  0  0  0  # atno 8009 bound_to 7997
  154.9103  140.2989  155.5273 H   0  0  0  0  0  0  0  0  0  0  0  0  # atno 8010 bound_to 7997
  139.5789  144.6977  151.3579 H   0  0  0  0  0  0  0  0  0  0  0  0  # atno 10167 bound_to 10162
  156.5359  130.8541  151.2732 H   0  0  0  0  0  0  0  0  0  0  0  0  # atno 10718 bound_to 10713
  154.3537  135.2753  155.2358 H   0  0  0  0  0  0  0  0  0  0  0  0  # atno 10763 bound_to 10752
  154.4576  135.5915  153.6237 H   0  0  0  0  0  0  0  0  0  0  0  0  # atno 10764 bound_to 10752
  152.9848  135.6057  154.3750 H   0  0  0  0  0  0  0  0  0  0  0  0  # atno 10765 bound_to 10752
  141.1373  133.8184  157.0730 H   0  0  0  0  0  0  0  0  0  0  0  0  # atno 11005 bound_to 11000
  145.1501  140.9618  143.4437 LP  0  0  0  0  0  0  0  0  0  0  0  0  # atno 17320 bound_to 7965
  145.0213  139.3422  143.6071 LP  0  0  0  0  0  0  0  0  0  0  0  0  # atno 17321 bound_to 7965
  140.7070  143.7489  150.7499 LP  0  0  0  0  0  0  0  0  0  0  0  0  # atno 17342 bound_to 10162
  140.1017  143.4782  152.2421 LP  0  0  0  0  0  0  0  0  0  0  0  0  # atno 17343 bound_to 10162
  157.7414  130.9869  150.2441 LP  0  0  0  0  0  0  0  0  0  0  0  0  # atno 17370 bound_to 10713
  156.3017  130.3759  149.7744 LP  0  0  0  0  0  0  0  0  0  0  0  0  # atno 17371 bound_to 10713
  140.0499  134.9811  157.1117 LP  0  0  0  0  0  0  0  0  0  0  0  0  # atno 17394 bound_to 11000
  140.4006  134.2087  155.7163 LP  0  0  0  0  0  0  0  0  0  0  0  0  # atno 17395 bound_to 11000

$$$$
