AV-unprocessed.smi:2473|AV-procd|sdf|9747|dock1
  -GOLD-   2272013383D 1   1.00000     0.00000
 Structure written by MMmdl.
 47 48  0  0  0  0  0  0  0  0  1 V2000
  148.4715  140.5189  153.9718 C   0  0  0  0  0  0  0  0  0  0  0  0
  149.3996  139.6362  154.8187 C   0  0  2  0  0  0  0  0  0  0  0  0
  150.8792  139.9129  154.4860 C   0  0  0  0  0  0  0  0  0  0  0  0
  151.8669  139.0238  155.2740 C   0  0  1  0  0  0  0  0  0  0  0  0
  152.1453  139.5147  156.7067 C   0  0  0  0  0  0  0  0  0  0  0  0
  153.1196  139.1107  157.3412 O   0  0  0  0  0  0  0  0  0  0  0  0
  151.2318  140.3487  157.2293 N   0  0  0  0  0  0  0  0  0  0  0  0
  151.2373  140.8708  158.5934 C   0  0  0  0  0  0  0  0  0  0  0  0
  152.4867  141.7217  158.8962 C   0  0  0  0  0  0  0  0  0  0  0  0
  152.4979  142.3218  160.2715 C   0  0  0  0  0  0  0  0  0  0  0  0
  152.8749  141.6523  161.3566 N   0  0  0  0  0  0  0  0  0  0  0  0
  152.7053  142.5489  162.4055 C   0  0  0  0  0  0  0  0  0  0  0  0
  152.2323  143.7411  161.9135 C   0  0  0  0  0  0  0  0  0  0  0  0
  152.1048  143.5834  160.5399 N   0  0  0  0  0  0  0  0  0  0  0  0
  151.6371  144.5949  159.6114 C   0  0  0  0  0  0  0  0  0  0  0  0
  151.4720  137.5280  155.1930 C   0  0  0  0  0  0  0  0  0  0  0  0
  149.9773  137.1918  155.4507 C   0  0  0  0  0  0  0  0  0  0  0  0
  149.7214  135.7448  154.9815 C   0  0  0  0  0  0  0  0  0  0  0  0
  149.6167  137.2489  156.9514 C   0  0  0  0  0  0  0  0  0  0  0  0
  149.0756  138.1417  154.6249 C   0  0  0  0  0  0  0  0  0  0  0  0
  148.5877  140.3120  152.9075 H   0  0  0  0  0  0  0  0  0  0  0  0
  148.6848  141.5763  154.1305 H   0  0  0  0  0  0  0  0  0  0  0  0
  147.4259  140.3520  154.2312 H   0  0  0  0  0  0  0  0  0  0  0  0
  149.2143  139.8997  155.8591 H   0  0  0  0  0  0  0  0  0  0  0  0
  151.0398  139.7478  153.4197 H   0  0  0  0  0  0  0  0  0  0  0  0
  151.1069  140.9667  154.6563 H   0  0  0  0  0  0  0  0  0  0  0  0
  152.8264  139.1202  154.7628 H   0  0  0  0  0  0  0  0  0  0  0  0
  150.4568  140.6229  156.6431 H   0  0  0  0  0  0  0  0  0  0  0  0
  150.3317  141.4471  158.7901 H   0  0  0  0  0  0  0  0  0  0  0  0
  151.2078  140.0200  159.2740 H   0  0  0  0  0  0  0  0  0  0  0  0
  153.3754  141.0979  158.7949 H   0  0  0  0  0  0  0  0  0  0  0  0
  152.5919  142.5079  158.1487 H   0  0  0  0  0  0  0  0  0  0  0  0
  152.9342  142.2693  163.4231 H   0  0  0  0  0  0  0  0  0  0  0  0
  151.9815  144.6640  162.4152 H   0  0  0  0  0  0  0  0  0  0  0  0
  151.3090  145.4809  160.1554 H   0  0  0  0  0  0  0  0  0  0  0  0
  150.7985  144.2118  159.0311 H   0  0  0  0  0  0  0  0  0  0  0  0
  152.4449  144.8751  158.9352 H   0  0  0  0  0  0  0  0  0  0  0  0
  151.7297  137.1907  154.1879 H   0  0  0  0  0  0  0  0  0  0  0  0
  152.1030  136.9352  155.8569 H   0  0  0  0  0  0  0  0  0  0  0  0
  148.6802  135.4557  155.1296 H   0  0  0  0  0  0  0  0  0  0  0  0
  150.3401  135.0341  155.5304 H   0  0  0  0  0  0  0  0  0  0  0  0
  149.9439  135.6197  153.9212 H   0  0  0  0  0  0  0  0  0  0  0  0
  148.5961  136.9053  157.1228 H   0  0  0  0  0  0  0  0  0  0  0  0
  149.6779  138.2514  157.3660 H   0  0  0  0  0  0  0  0  0  0  0  0
  150.2763  136.6118  157.5413 H   0  0  0  0  0  0  0  0  0  0  0  0
  148.0283  137.9584  154.8688 H   0  0  0  0  0  0  0  0  0  0  0  0
  149.1795  137.9030  153.5652 H   0  0  0  0  0  0  0  0  0  0  0  0
  1  2  1  0  0  0  0
  1 21  1  0  0  0  0
  1 22  1  0  0  0  0
  1 23  1  0  0  0  0
  2 20  1  0  0  0  0
  2  3  1  0  0  0  0
  2 24  1  0  0  0  0
  3  4  1  0  0  0  0
  3 25  1  0  0  0  0
  3 26  1  0  0  0  0
  4  5  1  0  0  0  0
  4 16  1  0  0  0  0
  4 27  1  0  0  0  0
  5  6  2  0  0  0  0
  5  7  1  0  0  0  0
  7  8  1  0  0  0  0
  7 28  1  0  0  0  0
  8  9  1  0  0  0  0
  8 29  1  0  0  0  0
  8 30  1  0  0  0  0
  9 10  1  0  0  0  0
  9 31  1  0  0  0  0
  9 32  1  0  0  0  0
 10 14  1  0  0  0  0
 10 11  2  0  0  0  0
 11 12  1  0  0  0  0
 12 13  2  0  0  0  0
 12 33  1  0  0  0  0
 13 14  1  0  0  0  0
 13 34  1  0  0  0  0
 14 15  1  0  0  0  0
 15 35  1  0  0  0  0
 15 36  1  0  0  0  0
 15 37  1  0  0  0  0
 16 17  1  0  0  0  0
 16 38  1  0  0  0  0
 16 39  1  0  0  0  0
 17 18  1  0  0  0  0
 17 19  1  0  0  0  0
 17 20  1  0  0  0  0
 18 40  1  0  0  0  0
 18 41  1  0  0  0  0
 18 42  1  0  0  0  0
 19 43  1  0  0  0  0
 19 44  1  0  0  0  0
 19 45  1  0  0  0  0
 20 46  1  0  0  0  0
 20 47  1  0  0  0  0
M  END
> <s_m_source_file>
AV-unprocessed.smi

> <i_m_source_file_index>
2473

> <i_lp_mmshare_version>
43012

> <i_f3d_flags>
0

> <s_epik_input>
W0NIM11bQ0BASF0oW0NIMl0xKVtDSDJdW0NASF0oW0NIMl1DMShbQ0gzXSlbQ0gzXSlDKD1PKVtOSF1bQ0gyXVtDSDJdYzJuW2NIXVtjSF1uMltDSDNd

> <s_epik_cmdline>
J2VwaWtfcHl0aG9uJywgJy1waCcsICc3LjAnLCAnLXRuJywgJzgnLCAnLW1hJywgJzIwMCcsICctbWV0YWxfYmluZGluZycsICctaW1hZScsICc8aW5maWxlLm1hZT4nLCAnLW9tYWUnLCAnPG91dGZpbGUubWFlPic=

> <r_lp_tautomer_probability>
1

> <r_epik_Ionization_Penalty>
1.22858

> <r_epik_Ionization_Penalty_Charging>
1.22858

> <r_epik_Ionization_Penalty_Neutral>
2.12671e-08

> <r_epik_State_Penalty>
1.2965

> <r_epik_Charging_Adjusted_Penalty>
2.52508

> <i_epik_Tot_Q>
0

> <i_epik_Tot_abs_Q>
0

> <r_epik_Metal_State_Penalty>
0.411461

> <b_epik_Metal_Only>
0

> <s_lp_Force_Field>
OPLS_2005

> <r_lp_Energy>
14.2462

> <b_lp_Chiralities_Consistent>
1

> <s_lp_Variant>
AV-unprocessed.smi:2473-5

> <Gold.Version>
5.8.1

> <Gold.Id.Protein>
6NUR|6NUR_protein|mol2

> <Gold.PLP.Fitness>
44.0869

> <Gold.PLP.PLP>
-42.2065

> <Gold.PLP.part.hbond>
-1.0000

> <Gold.PLP.part.metal>
0.0000

> <Gold.PLP.part.buried>
-0.7647

> <Gold.PLP.part.nonpolar>
-39.5781

> <Gold.PLP.part.repulsive>
0.0880

> <Gold.PLP.ligand.clash>
0.0000

> <Gold.PLP.ligand.torsion>
0.6533

> <Gold.PLP.Chemscore.Hbond>
1.0000

> <Gold.PLP.Chemscore.CHOScore>
0.0000

> <Gold.PLP.Chemscore.Metal>
0.0000

> <Gold.Chemscore.Hbonds>
donor molecule, donor type, donor heavy atom, donor atom, acceptor molecule, acceptor atom, score
      P1  H  7997  8008       L1     6  0.90

> <Gold.PLP.Chemscore.Internal.Correction>
0.1870

> <Gold.Rescore>
     Score         DG    S(hbond)    S(metal)    S(lipo)     H(rot)  DE(clash)    DE(int)     intcor
     13.47     -15.36       0.96        0.00      90.19       1.51       0.26       1.63       ----

> <Gold.Chemscore.Fitness>
13.4656

> <Gold.Chemscore.DG>
-15.3574

> <Gold.Chemscore.ZeroCoef>
-5.4800

> <Gold.Chemscore.Hbond>
0.9562

> <Gold.Chemscore.Metal>
0.0000

> <Gold.Chemscore.Lipo>
90.1850

> <Gold.Chemscore.Internal_Hbond>
0.0000

> <Gold.Chemscore.DEClash>
0.2581

> <Gold.Chemscore.DEInternal>
1.6338

> <Gold.Chemscore.Rot>
1.5109

> <Gold.Chemscore.Internal.Correction>
   9.000000E+99

> <Gold.Chemscore.Hbonds>
donor molecule, donor type, donor heavy atom, donor atom, acceptor molecule, acceptor atom, score
      P1  H  7997  8008       L1     6  0.17

> <Gold.Chemscore.Hbond.Weighted>
-3.1937

> <Gold.Chemscore.Metal.Weighted>
-0.0000

> <Gold.Chemscore.Lipo.Weighted>
-10.5516

> <Gold.Chemscore.Internal_Hbond.Weighted>
0.0000

> <Gold.Chemscore.DEClash.Weighted>
0.2581

> <Gold.Chemscore.DEInternal.Weighted>
1.6338

> <Gold.Chemscore.Rot.Weighted>
3.8680

> <Gold.Chemscore.Internal.Correction.Weighted>
   9.000000E+99

> <Gold.Protein.RotatedTorsions>
[ 6907 6896 6895 6894 ] final   -0.57 input  -60.11 | X-H torsion
[ 7974 7965 7964 7962 ] final  147.66 input  175.53 | X-H torsion
[ 8008 7997 7996 7995 ] final  -52.16 input   59.86 | X-H torsion
[ 10167 10162 10161 10158 ] final  175.90 input  -65.29 | X-H torsion
[ 10718 10713 10712 10709 ] final  -91.01 input   66.30 | X-H torsion
[ 10763 10752 10751 10750 ] final  118.38 input  -60.55 | X-H torsion
[ 11005 11000 10999 10996 ] final   44.37 input  -57.11 | X-H torsion

> <Gold.Protein.ActiveResidues>
 VAL166  LYS551  ARG553  GLY616  TRP617  ASP618  TYR619  PRO620  LYS621  CYS622 
 ASP623  PHE694  ASN695  SER759  ASP760  ASP761  ALA762  ILE779  LEU786  VAL792 
 PHE793  MET794  SER795  GLU796  ALA797  LYS798  CYS799  TRP800  GLU811  SER814 

> <Gold.Protein.RotatedAtoms>
  151.5601  135.1065  159.9970 H   0  0  0  0  0  0  0  0  0  0  0  0  # atno 6907 bound_to 6896
  152.4450  133.7516  159.6708 H   0  0  0  0  0  0  0  0  0  0  0  0  # atno 6908 bound_to 6896
  150.8364  133.7938  159.3102 H   0  0  0  0  0  0  0  0  0  0  0  0  # atno 6909 bound_to 6896
  144.8574  139.6056  143.5946 H   0  0  0  0  0  0  0  0  0  0  0  0  # atno 7974 bound_to 7965
  154.4100  140.1230  156.4946 H   0  0  0  0  0  0  0  0  0  0  0  0  # atno 8008 bound_to 7997
  155.6956  140.3495  155.4892 H   0  0  0  0  0  0  0  0  0  0  0  0  # atno 8009 bound_to 7997
  155.9430  140.1090  157.1030 H   0  0  0  0  0  0  0  0  0  0  0  0  # atno 8010 bound_to 7997
  139.5194  144.2977  152.0406 H   0  0  0  0  0  0  0  0  0  0  0  0  # atno 10167 bound_to 10162
  155.9991  130.4932  150.5410 H   0  0  0  0  0  0  0  0  0  0  0  0  # atno 10718 bound_to 10713
  153.5667  135.3510  155.2821 H   0  0  0  0  0  0  0  0  0  0  0  0  # atno 10763 bound_to 10752
  154.8687  135.4149  154.2770 H   0  0  0  0  0  0  0  0  0  0  0  0  # atno 10764 bound_to 10752
  153.3528  135.7056  153.6844 H   0  0  0  0  0  0  0  0  0  0  0  0  # atno 10765 bound_to 10752
  140.1558  134.4404  155.8351 H   0  0  0  0  0  0  0  0  0  0  0  0  # atno 11005 bound_to 11000
  146.2834  139.6938  142.9213 LP  0  0  0  0  0  0  0  0  0  0  0  0  # atno 17320 bound_to 7965
  145.4379  141.0420  143.2874 LP  0  0  0  0  0  0  0  0  0  0  0  0  # atno 17321 bound_to 7965
  140.2426  144.4253  150.6254 LP  0  0  0  0  0  0  0  0  0  0  0  0  # atno 17342 bound_to 10162
  140.6280  143.2184  151.6556 LP  0  0  0  0  0  0  0  0  0  0  0  0  # atno 17343 bound_to 10162
  157.3346  131.0706  151.1834 LP  0  0  0  0  0  0  0  0  0  0  0  0  # atno 17370 bound_to 10713
  157.2703  130.6701  149.6016 LP  0  0  0  0  0  0  0  0  0  0  0  0  # atno 17371 bound_to 10713
  141.2204  133.6892  156.7504 LP  0  0  0  0  0  0  0  0  0  0  0  0  # atno 17394 bound_to 11000
  140.2550  134.8511  157.3704 LP  0  0  0  0  0  0  0  0  0  0  0  0  # atno 17395 bound_to 11000

$$$$
