AV-unprocessed.smi:1320|AV-procd|sdf|5461|dock8
  -GOLD-   22720 5 33D 1   1.00000     0.00000
 Structure written by MMmdl.
 37 38  0  0  0  0  0  0  0  0  2 V2000
  148.0691  141.6995  159.0973 O   0  0  0  0  0  0  0  0  0  0  0  0
  148.2927  142.7557  158.5089 C   0  0  0  0  0  0  0  0  0  0  0  0
  149.4198  142.9934  157.8152 N   0  0  0  0  0  0  0  0  0  0  0  0
  150.5248  142.0538  157.6417 C   0  0  0  0  0  0  0  0  0  0  0  0
  150.8991  141.8317  156.1627 C   0  0  0  0  0  0  0  0  0  0  0  0
  149.7600  141.2979  155.3116 C   0  0  0  0  0  0  0  0  0  0  0  0
  149.7177  139.9553  154.8782 C   0  0  0  0  0  0  0  0  0  0  0  0
  148.6486  139.5269  154.0642 C   0  0  0  0  0  0  0  0  0  0  0  0
  147.6458  140.4491  153.6996 C   0  0  0  0  0  0  0  0  0  0  0  0
  147.7376  141.7783  154.1595 C   0  0  0  0  0  0  0  0  0  0  0  0
  148.7766  142.1498  154.9389 N   0  3  0  0  0  0  0  0  0  0  0  0
  147.4150  143.7743  158.5215 N   0  0  0  0  0  0  0  0  0  0  0  0
  146.1076  143.8329  159.1797 C   0  0  0  0  0  0  0  0  0  0  0  0
  146.2503  143.5879  160.6942 C   0  0  0  0  0  0  0  0  0  0  0  0
  145.1691  142.5712  161.0619 C   0  0  0  0  0  0  0  0  0  0  0  0
  145.0006  141.7314  159.8004 C   0  0  0  0  0  0  0  0  0  0  0  0
  145.1565  142.7358  158.6579 C   0  0  0  0  0  0  0  0  0  0  0  0
  149.5087  143.8885  157.3562 H   0  0  0  0  0  0  0  0  0  0  0  0
  151.4000  142.3829  158.2043 H   0  0  0  0  0  0  0  0  0  0  0  0
  150.2237  141.1037  158.0832 H   0  0  0  0  0  0  0  0  0  0  0  0
  151.2430  142.7726  155.7312 H   0  0  0  0  0  0  0  0  0  0  0  0
  151.7444  141.1450  156.0968 H   0  0  0  0  0  0  0  0  0  0  0  0
  150.4989  139.2635  155.1576 H   0  0  0  0  0  0  0  0  0  0  0  0
  148.6010  138.5042  153.7203 H   0  0  0  0  0  0  0  0  0  0  0  0
  146.8205  140.1412  153.0741 H   0  0  0  0  0  0  0  0  0  0  0  0
  147.0190  142.5506  153.9269 H   0  0  0  0  0  0  0  0  0  0  0  0
  147.6787  144.5993  158.0020 H   0  0  0  0  0  0  0  0  0  0  0  0
  145.6547  144.8137  159.0242 H   0  0  0  0  0  0  0  0  0  0  0  0
  147.2276  143.1603  160.9247 H   0  0  0  0  0  0  0  0  0  0  0  0
  146.1582  144.5080  161.2721 H   0  0  0  0  0  0  0  0  0  0  0  0
  145.4350  141.9730  161.9338 H   0  0  0  0  0  0  0  0  0  0  0  0
  144.2360  143.0903  161.2853 H   0  0  0  0  0  0  0  0  0  0  0  0
  145.7958  140.9869  159.7465 H   0  0  0  0  0  0  0  0  0  0  0  0
  144.0467  141.2043  159.7695 H   0  0  0  0  0  0  0  0  0  0  0  0
  144.1854  143.1798  158.4351 H   0  0  0  0  0  0  0  0  0  0  0  0
  145.5045  142.2557  157.7422 H   0  0  0  0  0  0  0  0  0  0  0  0
  148.8266  143.1187  155.2543 H   0  0  0  0  0  0  0  0  0  0  0  0
  1  2  2  0  0  0  0
  2  3  1  0  0  0  0
  2 12  1  0  0  0  0
  3  4  1  0  0  0  0
  3 18  1  0  0  0  0
  4  5  1  0  0  0  0
  4 19  1  0  0  0  0
  4 20  1  0  0  0  0
  5  6  1  0  0  0  0
  5 21  1  0  0  0  0
  5 22  1  0  0  0  0
  6 11  1  0  0  0  0
  6  7  2  0  0  0  0
  7  8  1  0  0  0  0
  7 23  1  0  0  0  0
  8  9  2  0  0  0  0
  8 24  1  0  0  0  0
  9 10  1  0  0  0  0
  9 25  1  0  0  0  0
 10 11  2  0  0  0  0
 10 26  1  0  0  0  0
 11 37  1  0  0  0  0
 12 13  1  0  0  0  0
 12 27  1  0  0  0  0
 13 17  1  0  0  0  0
 13 14  1  0  0  0  0
 13 28  1  0  0  0  0
 14 15  1  0  0  0  0
 14 29  1  0  0  0  0
 14 30  1  0  0  0  0
 15 16  1  0  0  0  0
 15 31  1  0  0  0  0
 15 32  1  0  0  0  0
 16 17  1  0  0  0  0
 16 33  1  0  0  0  0
 16 34  1  0  0  0  0
 17 35  1  0  0  0  0
 17 36  1  0  0  0  0
M  CHG  1  11   1
M  END
> <s_m_source_file>
AV-unprocessed.smi

> <i_m_source_file_index>
1320

> <i_lp_mmshare_version>
43012

> <i_f3d_flags>
0

> <s_epik_input>
W0NIMl0xW0NIMl1bQ0gyXVtDSDJdW0NIXTFbTkhdQyg9TylbTkhdW0NIMl1bQ0gyXWMyW2NIXVtjSF1bY0hdW2NIXW4y

> <s_epik_cmdline>
J2VwaWtfcHl0aG9uJywgJy1waCcsICc3LjAnLCAnLXRuJywgJzgnLCAnLW1hJywgJzIwMCcsICctbWV0YWxfYmluZGluZycsICctaW1hZScsICc8aW5maWxlLm1hZT4nLCAnLW9tYWUnLCAnPG91dGZpbGUubWFlPic=

> <r_epik_Ionization_Penalty>
1.56194

> <r_epik_Ionization_Penalty_Charging>
1.56188

> <r_epik_Ionization_Penalty_Neutral>
5.76468e-05

> <r_epik_State_Penalty>
1.65696

> <r_epik_Charging_Adjusted_Penalty>
3.21884

> <i_epik_Tot_Q>
1

> <i_epik_Tot_abs_Q>
1

> <r_epik_Metal_State_Penalty>
1.69837

> <b_epik_Metal_Only>
0

> <s_lp_Force_Field>
OPLS_2005

> <r_lp_Energy>
32.6171

> <b_lp_Chiralities_Consistent>
1

> <s_lp_Variant>
AV-unprocessed.smi:1320-2

> <Gold.Version>
5.8.1

> <Gold.Id.Protein>
6NUR|6NUR_protein|mol2

> <Gold.PLP.Fitness>
37.8605

> <Gold.PLP.PLP>
-26.9820

> <Gold.PLP.part.hbond>
-5.0105

> <Gold.PLP.part.metal>
0.0000

> <Gold.PLP.part.buried>
0.2228

> <Gold.PLP.part.nonpolar>
-22.6082

> <Gold.PLP.part.repulsive>
0.3667

> <Gold.PLP.ligand.clash>
0.0000

> <Gold.PLP.ligand.torsion>
0.2115

> <Gold.PLP.Chemscore.Hbond>
3.7630

> <Gold.PLP.Chemscore.CHOScore>
0.0000

> <Gold.PLP.Chemscore.Metal>
0.0000

> <Gold.Chemscore.Hbonds>
donor molecule, donor type, donor heavy atom, donor atom, acceptor molecule, acceptor atom, score
      L1  H     3    18       P1  8028  0.77
      L1  H    11    37       P1  8028  2.00
      L1  H    12    27       P1  8029  1.00
      P1  H  6934  6946       L1     1  0.07

> <Gold.PLP.Chemscore.Internal.Correction>
0.0125

> <Gold.Rescore>
     Score         DG    S(hbond)    S(metal)    S(lipo)     H(rot)  DE(clash)    DE(int)     intcor
     13.92     -15.16       1.99        0.00      60.76       1.59       0.45       0.80       ----

> <Gold.Chemscore.Fitness>
13.9151

> <Gold.Chemscore.DG>
-15.1620

> <Gold.Chemscore.ZeroCoef>
-5.4800

> <Gold.Chemscore.Hbond>
1.9914

> <Gold.Chemscore.Metal>
0.0000

> <Gold.Chemscore.Lipo>
60.7615

> <Gold.Chemscore.Internal_Hbond>
0.0000

> <Gold.Chemscore.DEClash>
0.4497

> <Gold.Chemscore.DEInternal>
0.7972

> <Gold.Chemscore.Rot>
1.5932

> <Gold.Chemscore.Internal.Correction>
   9.000000E+99

> <Gold.Chemscore.Hbonds>
donor molecule, donor type, donor heavy atom, donor atom, acceptor molecule, acceptor atom, score
      L1  H     3    18       P1  8028  0.37
      L1  H    11    37       P1  8028  1.00
      L1  H    12    27       P1  8029  0.47
      P1  H  6934  6946       L1     1  0.09

> <Gold.Chemscore.Hbond.Weighted>
-6.6514

> <Gold.Chemscore.Metal.Weighted>
-0.0000

> <Gold.Chemscore.Lipo.Weighted>
-7.1091

> <Gold.Chemscore.Internal_Hbond.Weighted>
0.0000

> <Gold.Chemscore.DEClash.Weighted>
0.4497

> <Gold.Chemscore.DEInternal.Weighted>
0.7972

> <Gold.Chemscore.Rot.Weighted>
4.0785

> <Gold.Chemscore.Internal.Correction.Weighted>
   9.000000E+99

> <Gold.Protein.RotatedTorsions>
[ 6907 6896 6895 6894 ] final   44.78 input  -60.11 | X-H torsion
[ 7974 7965 7964 7962 ] final  146.14 input  175.53 | X-H torsion
[ 8008 7997 7996 7995 ] final  104.28 input   59.86 | X-H torsion
[ 10167 10162 10161 10158 ] final   -3.88 input  -65.29 | X-H torsion
[ 10718 10713 10712 10709 ] final  153.58 input   66.30 | X-H torsion
[ 10763 10752 10751 10750 ] final  -47.91 input  -60.55 | X-H torsion
[ 11005 11000 10999 10996 ] final   95.47 input  -57.11 | X-H torsion

> <Gold.Protein.ActiveResidues>
 VAL166  LYS551  ARG553  GLY616  TRP617  ASP618  TYR619  PRO620  LYS621  CYS622 
 ASP623  PHE694  ASN695  SER759  ASP760  ASP761  ALA762  ILE779  LEU786  VAL792 
 PHE793  MET794  SER795  GLU796  ALA797  LYS798  CYS799  TRP800  GLU811  SER814 

> <Gold.Protein.RotatedAtoms>
  152.2367  134.8269  160.0465 H   0  0  0  0  0  0  0  0  0  0  0  0  # atno 6907 bound_to 6896
  151.8998  133.3530  159.3835 H   0  0  0  0  0  0  0  0  0  0  0  0  # atno 6908 bound_to 6896
  150.7041  134.4765  159.5494 H   0  0  0  0  0  0  0  0  0  0  0  0  # atno 6909 bound_to 6896
  144.8695  139.5868  143.5893 H   0  0  0  0  0  0  0  0  0  0  0  0  # atno 7974 bound_to 7965
  156.1559  140.3150  155.8725 H   0  0  0  0  0  0  0  0  0  0  0  0  # atno 8008 bound_to 7997
  155.3879  140.0492  157.3058 H   0  0  0  0  0  0  0  0  0  0  0  0  # atno 8009 bound_to 7997
  154.5101  140.2161  155.9185 H   0  0  0  0  0  0  0  0  0  0  0  0  # atno 8010 bound_to 7997
  140.6907  143.6488  150.8369 H   0  0  0  0  0  0  0  0  0  0  0  0  # atno 10167 bound_to 10162
  157.2429  131.0763  151.1781 H   0  0  0  0  0  0  0  0  0  0  0  0  # atno 10718 bound_to 10713
  154.0691  135.6607  153.4822 H   0  0  0  0  0  0  0  0  0  0  0  0  # atno 10763 bound_to 10752
  153.0398  135.5153  154.7585 H   0  0  0  0  0  0  0  0  0  0  0  0  # atno 10764 bound_to 10752
  154.6645  135.3020  154.9791 H   0  0  0  0  0  0  0  0  0  0  0  0  # atno 10765 bound_to 10752
  139.8789  134.8900  156.4015 H   0  0  0  0  0  0  0  0  0  0  0  0  # atno 11005 bound_to 11000
  146.2920  139.7167  142.9154 LP  0  0  0  0  0  0  0  0  0  0  0  0  # atno 17320 bound_to 7965
  145.4157  141.0401  143.2992 LP  0  0  0  0  0  0  0  0  0  0  0  0  # atno 17321 bound_to 7965
  140.0201  143.5552  152.2804 LP  0  0  0  0  0  0  0  0  0  0  0  0  # atno 17342 bound_to 10162
  139.6307  144.7644  151.2543 LP  0  0  0  0  0  0  0  0  0  0  0  0  # atno 17343 bound_to 10162
  157.3360  130.7009  149.6353 LP  0  0  0  0  0  0  0  0  0  0  0  0  # atno 17370 bound_to 10713
  155.9669  130.4293  150.4829 LP  0  0  0  0  0  0  0  0  0  0  0  0  # atno 17371 bound_to 10713
  140.9263  133.7610  155.9969 LP  0  0  0  0  0  0  0  0  0  0  0  0  # atno 17394 bound_to 11000
  140.8382  134.3098  157.5323 LP  0  0  0  0  0  0  0  0  0  0  0  0  # atno 17395 bound_to 11000

$$$$
