AV-unprocessed.smi:2968|AV-procd|sdf|11328|dock4
  -GOLD-   2272016233D 1   1.00000     0.00000
 Structure written by MMmdl.
 45 46  0  0  0  0  0  0  0  0  1 V2000
  153.2590  139.6922  158.0597 O   0  0  0  0  0  0  0  0  0  0  0  0
  151.9311  140.2090  157.6924 S   0  0  0  0  0  0  0  0  0  0  0  0
  151.6903  140.7061  156.3286 O   0  0  0  0  0  0  0  0  0  0  0  0
  150.7205  138.9434  158.0488 C   0  0  0  0  0  0  0  0  0  0  0  0
  151.0500  137.8480  158.8693 C   0  0  0  0  0  0  0  0  0  0  0  0
  150.0521  136.8916  159.1404 C   0  0  0  0  0  0  0  0  0  0  0  0
  148.7642  137.0781  158.5938 C   0  0  0  0  0  0  0  0  0  0  0  0
  147.7591  136.1531  158.9110 N   0  0  0  0  0  0  0  0  0  0  0  0
  148.1517  134.8513  159.4429 C   0  0  0  0  0  0  0  0  0  0  0  0
  146.9977  134.1489  160.1789 C   0  0  0  0  0  0  0  0  0  0  0  0
  146.5918  134.9515  161.2742 O   0  0  0  0  0  0  0  0  0  0  0  0
  147.4000  134.7980  162.4261 C   0  0  0  0  0  0  0  0  0  0  0  0
  147.6366  136.1853  163.0359 C   0  0  0  0  0  0  0  0  0  0  0  0
  147.9352  137.1180  162.0181 O   0  0  0  0  0  0  0  0  0  0  0  0
  148.4554  138.1270  157.7929 N   0  0  0  0  0  0  0  0  0  0  0  0
  149.4121  139.0444  157.5381 C   0  0  0  0  0  0  0  0  0  0  0  0
  151.5280  141.4859  158.8049 N   0  0  0  0  0  0  0  0  0  0  0  0
  152.3771  141.7214  159.9911 C   0  0  0  0  0  0  0  0  0  0  0  0
  153.3350  142.9076  159.7791 C   0  0  0  0  0  0  0  0  0  0  0  0
  152.5719  144.1673  159.3563 C   0  0  0  0  0  0  0  0  0  0  0  0
  151.7463  143.8720  158.0996 C   0  0  0  0  0  0  0  0  0  0  0  0
  150.8001  142.6783  158.3226 C   0  0  0  0  0  0  0  0  0  0  0  0
  152.0414  137.7389  159.2830 H   0  0  0  0  0  0  0  0  0  0  0  0
  150.2692  136.0439  159.7737 H   0  0  0  0  0  0  0  0  0  0  0  0
  146.9544  136.1500  158.3014 H   0  0  0  0  0  0  0  0  0  0  0  0
  148.5648  134.2124  158.6616 H   0  0  0  0  0  0  0  0  0  0  0  0
  148.9632  135.0296  160.1485 H   0  0  0  0  0  0  0  0  0  0  0  0
  146.1497  134.0181  159.5056 H   0  0  0  0  0  0  0  0  0  0  0  0
  147.3092  133.1560  160.5082 H   0  0  0  0  0  0  0  0  0  0  0  0
  146.8710  134.1659  163.1407 H   0  0  0  0  0  0  0  0  0  0  0  0
  148.3469  134.3080  162.1926 H   0  0  0  0  0  0  0  0  0  0  0  0
  146.7736  136.5169  163.6142 H   0  0  0  0  0  0  0  0  0  0  0  0
  148.4884  136.1508  163.7152 H   0  0  0  0  0  0  0  0  0  0  0  0
  147.1274  137.5098  161.7228 H   0  0  0  0  0  0  0  0  0  0  0  0
  149.1245  139.8710  156.9057 H   0  0  0  0  0  0  0  0  0  0  0  0
  151.7280  141.9256  160.8431 H   0  0  0  0  0  0  0  0  0  0  0  0
  152.9380  140.8214  160.2416 H   0  0  0  0  0  0  0  0  0  0  0  0
  153.8898  143.1020  160.6972 H   0  0  0  0  0  0  0  0  0  0  0  0
  154.0774  142.6595  159.0218 H   0  0  0  0  0  0  0  0  0  0  0  0
  151.9156  144.4932  160.1642 H   0  0  0  0  0  0  0  0  0  0  0  0
  153.2683  144.9846  159.1670 H   0  0  0  0  0  0  0  0  0  0  0  0
  151.1677  144.7531  157.8214 H   0  0  0  0  0  0  0  0  0  0  0  0
  152.4149  143.6711  157.2638 H   0  0  0  0  0  0  0  0  0  0  0  0
  150.2578  142.4475  157.4060 H   0  0  0  0  0  0  0  0  0  0  0  0
  150.0477  142.9447  159.0655 H   0  0  0  0  0  0  0  0  0  0  0  0
  1  2  2  0  0  0  0
  2  3  2  0  0  0  0
  2  4  1  0  0  0  0
  2 17  1  0  0  0  0
  4 16  1  0  0  0  0
  4  5  2  0  0  0  0
  5  6  1  0  0  0  0
  5 23  1  0  0  0  0
  6  7  2  0  0  0  0
  6 24  1  0  0  0  0
  7  8  1  0  0  0  0
  7 15  1  0  0  0  0
  8  9  1  0  0  0  0
  8 25  1  0  0  0  0
  9 10  1  0  0  0  0
  9 26  1  0  0  0  0
  9 27  1  0  0  0  0
 10 11  1  0  0  0  0
 10 28  1  0  0  0  0
 10 29  1  0  0  0  0
 11 12  1  0  0  0  0
 12 13  1  0  0  0  0
 12 30  1  0  0  0  0
 12 31  1  0  0  0  0
 13 14  1  0  0  0  0
 13 32  1  0  0  0  0
 13 33  1  0  0  0  0
 14 34  1  0  0  0  0
 15 16  2  0  0  0  0
 16 35  1  0  0  0  0
 17 22  1  0  0  0  0
 17 18  1  0  0  0  0
 18 19  1  0  0  0  0
 18 36  1  0  0  0  0
 18 37  1  0  0  0  0
 19 20  1  0  0  0  0
 19 38  1  0  0  0  0
 19 39  1  0  0  0  0
 20 21  1  0  0  0  0
 20 40  1  0  0  0  0
 20 41  1  0  0  0  0
 21 22  1  0  0  0  0
 21 42  1  0  0  0  0
 21 43  1  0  0  0  0
 22 44  1  0  0  0  0
 22 45  1  0  0  0  0
M  END
> <s_m_source_file>
AV-unprocessed.smi

> <i_m_source_file_index>
2968

> <i_lp_mmshare_version>
43012

> <i_f3d_flags>
0

> <s_epik_input>
W0NIMl0xW0NIMl1bQ0gyXVtDSDJdW0NIMl1OMVMoPU8pKD1PKWMyW2NIXVtjSF1jKG5bY0hdMilbTkhdW0NIMl1bQ0gyXU9bQ0gyXVtDSDJdW09IXQ==

> <s_epik_cmdline>
J2VwaWtfcHl0aG9uJywgJy1waCcsICc3LjAnLCAnLXRuJywgJzgnLCAnLW1hJywgJzIwMCcsICctbWV0YWxfYmluZGluZycsICctaW1hZScsICc8aW5maWxlLm1hZT4nLCAnLW9tYWUnLCAnPG91dGZpbGUubWFlPic=

> <r_lp_tautomer_probability>
1

> <r_epik_Ionization_Penalty>
0.000398056

> <r_epik_Ionization_Penalty_Charging>
0

> <r_epik_Ionization_Penalty_Neutral>
0.000398056

> <r_epik_State_Penalty>
0.00024364

> <r_epik_Charging_Adjusted_Penalty>
0.00024364

> <i_epik_Tot_Q>
0

> <i_epik_Tot_abs_Q>
0

> <r_epik_Metal_State_Penalty>
-0

> <b_epik_Metal_Only>
0

> <s_lp_Force_Field>
OPLS_2005

> <r_lp_Energy>
3.3881

> <b_lp_Chiralities_Consistent>
1

> <s_lp_Variant>
AV-unprocessed.smi:2968-1

> <Gold.Version>
5.8.1

> <Gold.Id.Protein>
6NUR|6NUR_protein|mol2

> <Gold.PLP.Fitness>
46.9870

> <Gold.PLP.PLP>
-42.2341

> <Gold.PLP.part.hbond>
-2.8338

> <Gold.PLP.part.metal>
0.0000

> <Gold.PLP.part.buried>
-5.2089

> <Gold.PLP.part.nonpolar>
-34.3562

> <Gold.PLP.part.repulsive>
0.0878

> <Gold.PLP.ligand.clash>
0.0000

> <Gold.PLP.ligand.torsion>
2.7118

> <Gold.PLP.Chemscore.Hbond>
2.0000

> <Gold.PLP.Chemscore.CHOScore>
0.0000

> <Gold.PLP.Chemscore.Metal>
0.0000

> <Gold.Chemscore.Hbonds>
donor molecule, donor type, donor heavy atom, donor atom, acceptor molecule, acceptor atom, score
      P1  H  6931  6943       L1    14  1.00
      P1  H  7997  8008       L1     1  1.00

> <Gold.PLP.Chemscore.Internal.Correction>
4.1765

> <Gold.Rescore>
     Score         DG    S(hbond)    S(metal)    S(lipo)     H(rot)  DE(clash)    DE(int)     intcor
     15.52     -17.99       2.81        0.00      83.59       2.60       0.00       2.46       ----

> <Gold.Chemscore.Fitness>
15.5239

> <Gold.Chemscore.DG>
-17.9863

> <Gold.Chemscore.ZeroCoef>
-5.4800

> <Gold.Chemscore.Hbond>
2.8098

> <Gold.Chemscore.Metal>
0.0000

> <Gold.Chemscore.Lipo>
83.5886

> <Gold.Chemscore.Internal_Hbond>
0.0000

> <Gold.Chemscore.DEClash>
0.0015

> <Gold.Chemscore.DEInternal>
2.4609

> <Gold.Chemscore.Rot>
2.6009

> <Gold.Chemscore.Internal.Correction>
   9.000000E+99

> <Gold.Chemscore.Hbonds>
donor molecule, donor type, donor heavy atom, donor atom, acceptor molecule, acceptor atom, score
      P1  H  6931  6943       L1    14  0.53
      P1  H  7997  8008       L1     1  0.97

> <Gold.Chemscore.Hbond.Weighted>
-9.3847

> <Gold.Chemscore.Metal.Weighted>
-0.0000

> <Gold.Chemscore.Lipo.Weighted>
-9.7799

> <Gold.Chemscore.Internal_Hbond.Weighted>
0.0000

> <Gold.Chemscore.DEClash.Weighted>
0.0015

> <Gold.Chemscore.DEInternal.Weighted>
2.4609

> <Gold.Chemscore.Rot.Weighted>
6.6583

> <Gold.Chemscore.Internal.Correction.Weighted>
   9.000000E+99

> <Gold.Protein.RotatedTorsions>
[ 6907 6896 6895 6894 ] final  112.07 input  -60.11 | X-H torsion
[ 7974 7965 7964 7962 ] final   45.48 input  175.53 | X-H torsion
[ 8008 7997 7996 7995 ] final  -86.13 input   59.86 | X-H torsion
[ 10167 10162 10161 10158 ] final -161.04 input  -65.29 | X-H torsion
[ 10718 10713 10712 10709 ] final   43.43 input   66.30 | X-H torsion
[ 10763 10752 10751 10750 ] final -112.30 input  -60.55 | X-H torsion
[ 11005 11000 10999 10996 ] final  117.02 input  -57.11 | X-H torsion

> <Gold.Protein.ActiveResidues>
 VAL166  LYS551  ARG553  GLY616  TRP617  ASP618  TYR619  PRO620  LYS621  CYS622 
 ASP623  PHE694  ASN695  SER759  ASP760  ASP761  ALA762  ILE779  LEU786  VAL792 
 PHE793  MET794  SER795  GLU796  ALA797  LYS798  CYS799  TRP800  GLU811  SER814 

> <Gold.Protein.RotatedAtoms>
  152.4936  133.8568  159.7229 H   0  0  0  0  0  0  0  0  0  0  0  0  # atno 6907 bound_to 6896
  150.9091  133.7012  159.2866 H   0  0  0  0  0  0  0  0  0  0  0  0  # atno 6908 bound_to 6896
  151.4427  135.1026  159.9727 H   0  0  0  0  0  0  0  0  0  0  0  0  # atno 6909 bound_to 6896
  146.0476  139.4960  142.9738 H   0  0  0  0  0  0  0  0  0  0  0  0  # atno 7974 bound_to 7965
  154.6485  140.0582  156.9928 H   0  0  0  0  0  0  0  0  0  0  0  0  # atno 8008 bound_to 7997
  155.1408  140.3265  155.4434 H   0  0  0  0  0  0  0  0  0  0  0  0  # atno 8009 bound_to 7997
  156.2565  140.1964  156.6523 H   0  0  0  0  0  0  0  0  0  0  0  0  # atno 8010 bound_to 7997
  139.6495  144.0111  152.2151 H   0  0  0  0  0  0  0  0  0  0  0  0  # atno 10167 bound_to 10162
  157.4159  130.7941  149.7471 H   0  0  0  0  0  0  0  0  0  0  0  0  # atno 10718 bound_to 10713
  154.8343  135.4496  154.1173 H   0  0  0  0  0  0  0  0  0  0  0  0  # atno 10763 bound_to 10752
  153.2418  135.6917  153.7780 H   0  0  0  0  0  0  0  0  0  0  0  0  # atno 10764 bound_to 10752
  153.7125  135.3354  155.3225 H   0  0  0  0  0  0  0  0  0  0  0  0  # atno 10765 bound_to 10752
  139.9060  134.9605  156.7287 H   0  0  0  0  0  0  0  0  0  0  0  0  # atno 11005 bound_to 11000
  145.6779  141.0199  143.1622 LP  0  0  0  0  0  0  0  0  0  0  0  0  # atno 17320 bound_to 7965
  144.7106  139.8387  143.7416 LP  0  0  0  0  0  0  0  0  0  0  0  0  # atno 17321 bound_to 7965
  139.9821  144.6421  150.7891 LP  0  0  0  0  0  0  0  0  0  0  0  0  # atno 17342 bound_to 10162
  140.7530  143.3001  151.3101 LP  0  0  0  0  0  0  0  0  0  0  0  0  # atno 17343 bound_to 10162
  155.9865  130.3974  150.3210 LP  0  0  0  0  0  0  0  0  0  0  0  0  # atno 17370 bound_to 10713
  157.1353  131.0282  151.2951 LP  0  0  0  0  0  0  0  0  0  0  0  0  # atno 17371 bound_to 10713
  140.6943  133.9363  155.7985 LP  0  0  0  0  0  0  0  0  0  0  0  0  # atno 17394 bound_to 11000
  141.0419  134.0609  157.3892 LP  0  0  0  0  0  0  0  0  0  0  0  0  # atno 17395 bound_to 11000

$$$$
