AV-unprocessed.smi:2574|AV-procd|sdf|10114|dock7
  -GOLD-   2272014133D 1   1.00000     0.00000
 Structure written by MMmdl.
 38 40  0  0  0  0  0  0  0  0  1 V2000
  152.9942  138.8404  158.5279 O   0  0  0  0  0  0  0  0  0  0  0  0
  152.9334  140.0402  158.7982 C   0  0  0  0  0  0  0  0  0  0  0  0
  153.6843  140.6611  159.9002 C   0  0  0  0  0  0  0  0  0  0  0  0
  154.5815  139.7646  160.7496 C   0  0  0  0  0  0  0  0  0  0  0  0
  154.9780  140.3783  161.8656 F   0  0  0  0  0  0  0  0  0  0  0  0
  153.9361  138.6528  161.1041 F   0  0  0  0  0  0  0  0  0  0  0  0
  155.6719  139.4142  160.0667 F   0  0  0  0  0  0  0  0  0  0  0  0
  153.5637  141.9894  160.1415 C   0  0  0  0  0  0  0  0  0  0  0  0
  152.6962  142.8070  159.3177 C   0  0  0  0  0  0  0  0  0  0  0  0
  152.5076  144.2813  159.5342 C   0  0  0  0  0  0  0  0  0  0  0  0
  151.1786  144.8725  159.9457 C   0  0  0  0  0  0  0  0  0  0  0  0
  151.7251  145.1316  158.5609 C   0  0  0  0  0  0  0  0  0  0  0  0
  152.0434  142.2613  158.3477 N   0  0  0  0  0  0  0  0  0  0  0  0
  152.1538  140.9086  158.0891 N   0  0  0  0  0  0  0  0  0  0  0  0
  151.3250  140.4490  156.9673 C   0  0  0  0  0  0  0  0  0  0  0  0
  150.3778  141.5560  156.4554 C   0  0  2  0  0  0  0  0  0  0  0  0
  149.6739  142.1061  157.5519 O   0  0  0  0  0  0  0  0  0  0  0  0
  149.4226  141.0097  155.4045 C   0  0  0  0  0  0  0  0  0  0  0  0
  148.5061  141.8756  154.7696 C   0  0  0  0  0  0  0  0  0  0  0  0
  147.6259  141.3818  153.7873 C   0  0  0  0  0  0  0  0  0  0  0  0
  147.6577  140.0196  153.4326 C   0  0  0  0  0  0  0  0  0  0  0  0
  148.5721  139.1515  154.0594 C   0  0  0  0  0  0  0  0  0  0  0  0
  149.4532  139.6448  155.0412 C   0  0  0  0  0  0  0  0  0  0  0  0
  154.1067  142.4629  160.9456 H   0  0  0  0  0  0  0  0  0  0  0  0
  153.4002  144.7235  159.9728 H   0  0  0  0  0  0  0  0  0  0  0  0
  150.3185  144.2100  160.0239 H   0  0  0  0  0  0  0  0  0  0  0  0
  151.1959  145.6976  160.6548 H   0  0  0  0  0  0  0  0  0  0  0  0
  152.1037  146.1293  158.3483 H   0  0  0  0  0  0  0  0  0  0  0  0
  151.2331  144.6328  157.7277 H   0  0  0  0  0  0  0  0  0  0  0  0
  152.0054  140.1666  156.1613 H   0  0  0  0  0  0  0  0  0  0  0  0
  150.7743  139.5348  157.1965 H   0  0  0  0  0  0  0  0  0  0  0  0
  150.9590  142.3598  156.0014 H   0  0  0  0  0  0  0  0  0  0  0  0
  150.2831  142.5940  158.0847 H   0  0  0  0  0  0  0  0  0  0  0  0
  148.4759  142.9231  155.0316 H   0  0  0  0  0  0  0  0  0  0  0  0
  146.9271  142.0490  153.3046 H   0  0  0  0  0  0  0  0  0  0  0  0
  146.9835  139.6415  152.6784 H   0  0  0  0  0  0  0  0  0  0  0  0
  148.5990  138.1071  153.7855 H   0  0  0  0  0  0  0  0  0  0  0  0
  150.1552  138.9722  155.5128 H   0  0  0  0  0  0  0  0  0  0  0  0
  1  2  2  0  0  0  0
  2 14  1  0  0  0  0
  2  3  1  0  0  0  0
  3  4  1  0  0  0  0
  3  8  2  0  0  0  0
  4  5  1  0  0  0  0
  4  6  1  0  0  0  0
  4  7  1  0  0  0  0
  8  9  1  0  0  0  0
  8 24  1  0  0  0  0
  9 10  1  0  0  0  0
  9 13  2  0  0  0  0
 10 12  1  0  0  0  0
 10 11  1  0  0  0  0
 10 25  1  0  0  0  0
 11 12  1  0  0  0  0
 11 26  1  0  0  0  0
 11 27  1  0  0  0  0
 12 28  1  0  0  0  0
 12 29  1  0  0  0  0
 13 14  1  0  0  0  0
 14 15  1  0  0  0  0
 15 16  1  0  0  0  0
 15 30  1  0  0  0  0
 15 31  1  0  0  0  0
 16 17  1  0  0  0  0
 16 18  1  0  0  0  0
 16 32  1  0  0  0  0
 17 33  1  0  0  0  0
 18 23  1  0  0  0  0
 18 19  2  0  0  0  0
 19 20  1  0  0  0  0
 19 34  1  0  0  0  0
 20 21  2  0  0  0  0
 20 35  1  0  0  0  0
 21 22  1  0  0  0  0
 21 36  1  0  0  0  0
 22 23  2  0  0  0  0
 22 37  1  0  0  0  0
 23 38  1  0  0  0  0
M  END
> <s_m_source_file>
AV-unprocessed.smi

> <i_m_source_file_index>
2574

> <i_lp_mmshare_version>
43012

> <i_f3d_flags>
0

> <s_epik_input>
Tz1jMWMoQyhGKShGKUYpW2NIXWMoW0NIXTJbQ0gyXVtDSDJdMilubjFbQ0gyXVtDQEhdKFtPSF0pYzNbY0hdW2NIXVtjSF1bY0hdW2NIXTM=

> <s_epik_cmdline>
J2VwaWtfcHl0aG9uJywgJy1waCcsICc3LjAnLCAnLXRuJywgJzgnLCAnLW1hJywgJzIwMCcsICctbWV0YWxfYmluZGluZycsICctaW1hZScsICc8aW5maWxlLm1hZT4nLCAnLW9tYWUnLCAnPG91dGZpbGUubWFlPic=

> <r_lp_tautomer_probability>
1

> <r_epik_Ionization_Penalty>
7.26807e-08

> <r_epik_Ionization_Penalty_Charging>
9.677e-10

> <r_epik_Ionization_Penalty_Neutral>
7.1713e-08

> <r_epik_State_Penalty>
-0

> <r_epik_Charging_Adjusted_Penalty>
9.677e-10

> <i_epik_Tot_Q>
0

> <i_epik_Tot_abs_Q>
0

> <r_epik_Metal_State_Penalty>
-0

> <b_epik_Metal_Only>
0

> <s_lp_Force_Field>
OPLS_2005

> <r_lp_Energy>
33.7887

> <b_lp_Chiralities_Consistent>
1

> <s_lp_Variant>
AV-unprocessed.smi:2574-1

> <Gold.Version>
5.8.1

> <Gold.Id.Protein>
6NUR|6NUR_protein|mol2

> <Gold.PLP.Fitness>
47.7069

> <Gold.PLP.PLP>
-48.2983

> <Gold.PLP.part.hbond>
0.0000

> <Gold.PLP.part.metal>
0.0000

> <Gold.PLP.part.buried>
-1.9534

> <Gold.PLP.part.nonpolar>
-46.0564

> <Gold.PLP.part.repulsive>
0.0065

> <Gold.PLP.ligand.clash>
0.0000

> <Gold.PLP.ligand.torsion>
0.6141

> <Gold.PLP.Chemscore.Hbond>
0.0000

> <Gold.PLP.Chemscore.CHOScore>
0.0000

> <Gold.PLP.Chemscore.Metal>
0.0000

> <Gold.PLP.Chemscore.Internal.Correction>
0.6368

> <Gold.Rescore>
     Score         DG    S(hbond)    S(metal)    S(lipo)     H(rot)  DE(clash)    DE(int)     intcor
     12.79     -14.74       0.00        0.00     124.86       2.09       0.03       1.92       ----

> <Gold.Chemscore.Fitness>
12.7888

> <Gold.Chemscore.DG>
-14.7366

> <Gold.Chemscore.ZeroCoef>
-5.4800

> <Gold.Chemscore.Hbond>
0.0000

> <Gold.Chemscore.Metal>
0.0000

> <Gold.Chemscore.Lipo>
124.8599

> <Gold.Chemscore.Internal_Hbond>
0.0000

> <Gold.Chemscore.DEClash>
0.0299

> <Gold.Chemscore.DEInternal>
1.9179

> <Gold.Chemscore.Rot>
2.0906

> <Gold.Chemscore.Internal.Correction>
   9.000000E+99

> <Gold.Chemscore.Hbond.Weighted>
-0.0000

> <Gold.Chemscore.Metal.Weighted>
-0.0000

> <Gold.Chemscore.Lipo.Weighted>
-14.6086

> <Gold.Chemscore.Internal_Hbond.Weighted>
0.0000

> <Gold.Chemscore.DEClash.Weighted>
0.0299

> <Gold.Chemscore.DEInternal.Weighted>
1.9179

> <Gold.Chemscore.Rot.Weighted>
5.3520

> <Gold.Chemscore.Internal.Correction.Weighted>
   9.000000E+99

> <Gold.Protein.RotatedTorsions>
[ 6907 6896 6895 6894 ] final   70.35 input  -60.11 | X-H torsion
[ 7974 7965 7964 7962 ] final  164.35 input  175.53 | X-H torsion
[ 8008 7997 7996 7995 ] final  155.28 input   59.86 | X-H torsion
[ 10167 10162 10161 10158 ] final -176.01 input  -65.29 | X-H torsion
[ 10718 10713 10712 10709 ] final   69.70 input   66.30 | X-H torsion
[ 10763 10752 10751 10750 ] final   24.85 input  -60.55 | X-H torsion
[ 11005 11000 10999 10996 ] final  -45.13 input  -57.11 | X-H torsion

> <Gold.Protein.ActiveResidues>
 VAL166  LYS551  ARG553  GLY616  TRP617  ASP618  TYR619  PRO620  LYS621  CYS622 
 ASP623  PHE694  ASN695  SER759  ASP760  ASP761  ALA762  ILE779  LEU786  VAL792 
 PHE793  MET794  SER795  GLU796  ALA797  LYS798  CYS799  TRP800  GLU811  SER814 

> <Gold.Protein.RotatedAtoms>
  152.4743  134.4882  159.9686 H   0  0  0  0  0  0  0  0  0  0  0  0  # atno 6907 bound_to 6896
  151.4901  133.3521  159.2860 H   0  0  0  0  0  0  0  0  0  0  0  0  # atno 6908 bound_to 6896
  150.8772  134.8184  159.7260 H   0  0  0  0  0  0  0  0  0  0  0  0  # atno 6909 bound_to 6896
  144.7549  139.8313  143.6353 H   0  0  0  0  0  0  0  0  0  0  0  0  # atno 7974 bound_to 7965
  156.2487  140.1944  156.6776 H   0  0  0  0  0  0  0  0  0  0  0  0  # atno 8008 bound_to 7997
  154.6346  140.0591  156.9799 H   0  0  0  0  0  0  0  0  0  0  0  0  # atno 8009 bound_to 7997
  155.1657  140.3264  155.4405 H   0  0  0  0  0  0  0  0  0  0  0  0  # atno 8010 bound_to 7997
  139.5551  144.2009  152.1145 H   0  0  0  0  0  0  0  0  0  0  0  0  # atno 10167 bound_to 10162
  157.6360  130.9439  150.0549 H   0  0  0  0  0  0  0  0  0  0  0  0  # atno 10718 bound_to 10713
  153.0734  135.6596  154.0198 H   0  0  0  0  0  0  0  0  0  0  0  0  # atno 10763 bound_to 10752
  153.9838  135.2952  155.3419 H   0  0  0  0  0  0  0  0  0  0  0  0  # atno 10764 bound_to 10752
  154.7115  135.5203  153.8744 H   0  0  0  0  0  0  0  0  0  0  0  0  # atno 10765 bound_to 10752
  141.0495  133.6748  156.2970 H   0  0  0  0  0  0  0  0  0  0  0  0  # atno 11005 bound_to 11000
  146.1546  139.4640  143.0027 LP  0  0  0  0  0  0  0  0  0  0  0  0  # atno 17320 bound_to 7965
  145.6814  141.0190  143.1604 LP  0  0  0  0  0  0  0  0  0  0  0  0  # atno 17321 bound_to 7965
  140.1512  144.5113  150.6686 LP  0  0  0  0  0  0  0  0  0  0  0  0  # atno 17342 bound_to 10162
  140.6822  143.2332  151.5354 LP  0  0  0  0  0  0  0  0  0  0  0  0  # atno 17343 bound_to 10162
  156.1599  130.3643  149.9314 LP  0  0  0  0  0  0  0  0  0  0  0  0  # atno 17370 bound_to 10713
  156.7314  130.9045  151.3626 LP  0  0  0  0  0  0  0  0  0  0  0  0  # atno 17371 bound_to 10713
  140.6082  134.5486  157.5529 LP  0  0  0  0  0  0  0  0  0  0  0  0  # atno 17394 bound_to 11000
  139.9339  134.7912  156.0855 LP  0  0  0  0  0  0  0  0  0  0  0  0  # atno 17395 bound_to 11000

$$$$
