AV-unprocessed.smi:1774|AV-procd|sdf|7167|dock5
  -GOLD-   22720 8403D 1   1.00000     0.00000
 Structure written by MMmdl.
 46 47  0  0  0  0  0  0  0  0  2 V2000
  152.8498  140.4560  159.8170 C   0  0  0  0  0  0  0  0  0  0  0  0
  152.2844  141.6583  159.0784 C   0  0  0  0  0  0  0  0  0  0  0  0
  152.4755  142.9499  159.6140 C   0  0  0  0  0  0  0  0  0  0  0  0
  151.9548  144.0605  158.9284 C   0  0  0  0  0  0  0  0  0  0  0  0
  151.2616  143.8312  157.7278 C   0  0  0  0  0  0  0  0  0  0  0  0
  151.0743  142.6007  157.2087 N   0  0  0  0  0  0  0  0  0  0  0  0
  151.5709  141.5178  157.8579 C   0  0  0  0  0  0  0  0  0  0  0  0
  151.4067  140.1900  157.3710 N   0  0  0  0  0  0  0  0  0  0  0  0
  150.9620  139.7906  156.1663 C   0  0  0  0  0  0  0  0  0  0  0  0
  150.6321  140.5350  155.2425 O   0  0  0  0  0  0  0  0  0  0  0  0
  150.9242  138.4528  156.0804 N   0  0  0  0  0  0  0  0  0  0  0  0
  150.5220  137.7045  154.8948 C   0  0  0  0  0  0  0  0  0  0  0  0
  150.5428  136.1832  155.1432 C   0  0  0  0  0  0  0  0  0  0  0  0
  149.4265  135.4817  154.4619 N   0  3  1  0  0  0  0  0  0  0  0  0
  149.6530  134.0200  154.3683 C   0  0  0  0  0  0  0  0  0  0  0  0
  148.5044  133.3425  153.5971 C   0  0  1  0  0  0  0  0  0  0  0  0
  148.6611  131.8191  153.5438 C   0  0  0  0  0  0  0  0  0  0  0  0
  147.2720  133.6391  154.2445 O   0  0  0  0  0  0  0  0  0  0  0  0
  146.9894  135.0337  154.2702 C   0  0  1  0  0  0  0  0  0  0  0  0
  145.6059  135.2304  154.8997 C   0  0  0  0  0  0  0  0  0  0  0  0
  148.0965  135.7583  155.0592 C   0  0  0  0  0  0  0  0  0  0  0  0
  153.3596  140.7560  160.7331 H   0  0  0  0  0  0  0  0  0  0  0  0
  153.5697  139.9286  159.1903 H   0  0  0  0  0  0  0  0  0  0  0  0
  152.0523  139.7639  160.0886 H   0  0  0  0  0  0  0  0  0  0  0  0
  153.0144  143.0915  160.5394 H   0  0  0  0  0  0  0  0  0  0  0  0
  152.0835  145.0615  159.3127 H   0  0  0  0  0  0  0  0  0  0  0  0
  150.8459  144.6564  157.1691 H   0  0  0  0  0  0  0  0  0  0  0  0
  151.6637  139.4599  158.0186 H   0  0  0  0  0  0  0  0  0  0  0  0
  151.2131  137.9149  156.8847 H   0  0  0  0  0  0  0  0  0  0  0  0
  149.5348  138.0455  154.5825 H   0  0  0  0  0  0  0  0  0  0  0  0
  151.2086  137.9581  154.0866 H   0  0  0  0  0  0  0  0  0  0  0  0
  151.4902  135.7923  154.7687 H   0  0  0  0  0  0  0  0  0  0  0  0
  150.5157  135.9558  156.2100 H   0  0  0  0  0  0  0  0  0  0  0  0
  150.5990  133.8258  153.8612 H   0  0  0  0  0  0  0  0  0  0  0  0
  149.7353  133.5995  155.3723 H   0  0  0  0  0  0  0  0  0  0  0  0
  148.4740  133.7236  152.5748 H   0  0  0  0  0  0  0  0  0  0  0  0
  149.5924  131.5361  153.0529 H   0  0  0  0  0  0  0  0  0  0  0  0
  147.8411  131.3634  152.9881 H   0  0  0  0  0  0  0  0  0  0  0  0
  148.6648  131.3868  154.5447 H   0  0  0  0  0  0  0  0  0  0  0  0
  146.9600  135.4121  153.2465 H   0  0  0  0  0  0  0  0  0  0  0  0
  145.3367  136.2863  154.9349 H   0  0  0  0  0  0  0  0  0  0  0  0
  145.5762  134.8429  155.9184 H   0  0  0  0  0  0  0  0  0  0  0  0
  144.8388  134.7121  154.3239 H   0  0  0  0  0  0  0  0  0  0  0  0
  148.0904  135.4339  156.1013 H   0  0  0  0  0  0  0  0  0  0  0  0
  147.8937  136.8285  155.0575 H   0  0  0  0  0  0  0  0  0  0  0  0
  149.4044  135.8266  153.5129 H   0  0  0  0  0  0  0  0  0  0  0  0
  1  2  1  0  0  0  0
  1 22  1  0  0  0  0
  1 23  1  0  0  0  0
  1 24  1  0  0  0  0
  2  7  1  0  0  0  0
  2  3  2  0  0  0  0
  3  4  1  0  0  0  0
  3 25  1  0  0  0  0
  4  5  2  0  0  0  0
  4 26  1  0  0  0  0
  5  6  1  0  0  0  0
  5 27  1  0  0  0  0
  6  7  2  0  0  0  0
  7  8  1  0  0  0  0
  8  9  1  0  0  0  0
  8 28  1  0  0  0  0
  9 10  2  0  0  0  0
  9 11  1  0  0  0  0
 11 12  1  0  0  0  0
 11 29  1  0  0  0  0
 12 13  1  0  0  0  0
 12 30  1  0  0  0  0
 12 31  1  0  0  0  0
 13 14  1  0  0  0  0
 13 32  1  0  0  0  0
 13 33  1  0  0  0  0
 14 21  1  0  0  0  0
 14 15  1  0  0  0  0
 14 46  1  0  0  0  0
 15 16  1  0  0  0  0
 15 34  1  0  0  0  0
 15 35  1  0  0  0  0
 16 17  1  0  0  0  0
 16 18  1  0  0  0  0
 16 36  1  0  0  0  0
 17 37  1  0  0  0  0
 17 38  1  0  0  0  0
 17 39  1  0  0  0  0
 18 19  1  0  0  0  0
 19 20  1  0  0  0  0
 19 21  1  0  0  0  0
 19 40  1  0  0  0  0
 20 41  1  0  0  0  0
 20 42  1  0  0  0  0
 20 43  1  0  0  0  0
 21 44  1  0  0  0  0
 21 45  1  0  0  0  0
M  CHG  1  14   1
M  END
> <s_m_source_file>
AV-unprocessed.smi

> <i_m_source_file_index>
1774

> <i_lp_mmshare_version>
43012

> <i_f3d_flags>
0

> <s_epik_input>
W0NIM11jMVtjSF1bY0hdW2NIXW5jMVtOSF1DKD1PKVtOSF1bQ0gyXVtDSDJdTjJbQ0gyXVtDQEBIXShbQ0gzXSlPW0NAQEhdKFtDSDNdKVtDSDJdMg==

> <s_epik_cmdline>
J2VwaWtfcHl0aG9uJywgJy1waCcsICc3LjAnLCAnLXRuJywgJzgnLCAnLW1hJywgJzIwMCcsICctbWV0YWxfYmluZGluZycsICctaW1hZScsICc8aW5maWxlLm1hZT4nLCAnLW9tYWUnLCAnPG91dGZpbGUubWFlPic=

> <r_epik_Ionization_Penalty>
0.602573

> <r_epik_Ionization_Penalty_Charging>
0.602531

> <r_epik_Ionization_Penalty_Neutral>
4.21996e-05

> <r_epik_State_Penalty>
0.617039

> <r_epik_Charging_Adjusted_Penalty>
1.21957

> <i_epik_Tot_Q>
1

> <i_epik_Tot_abs_Q>
1

> <r_epik_Metal_State_Penalty>
0.617042

> <b_epik_Metal_Only>
0

> <s_lp_Force_Field>
OPLS_2005

> <r_lp_Energy>
15.6229

> <b_lp_Chiralities_Consistent>
1

> <s_lp_Variant>
AV-unprocessed.smi:1774-4

> <Gold.Version>
5.8.1

> <Gold.Id.Protein>
6NUR|6NUR_protein|mol2

> <Gold.PLP.Fitness>
47.3082

> <Gold.PLP.PLP>
-36.0408

> <Gold.PLP.part.hbond>
-2.0000

> <Gold.PLP.part.metal>
0.0000

> <Gold.PLP.part.buried>
-4.0392

> <Gold.PLP.part.nonpolar>
-30.2651

> <Gold.PLP.part.repulsive>
0.3824

> <Gold.PLP.ligand.clash>
0.0000

> <Gold.PLP.ligand.torsion>
0.3817

> <Gold.PLP.Chemscore.Hbond>
3.0000

> <Gold.PLP.Chemscore.CHOScore>
1.0000

> <Gold.PLP.Chemscore.Metal>
0.0000

> <Gold.Chemscore.Hbonds>
donor molecule, donor type, donor heavy atom, donor atom, acceptor molecule, acceptor atom, score
      L1  H    14    46       P1  7948  2.00
      P1  H  7989  7998       L1    10  0.97
      L1  C     5    27       P1  8028  1.00

> <Gold.PLP.Chemscore.Internal.Correction>
0.0308

> <Gold.Rescore>
     Score         DG    S(hbond)    S(metal)    S(lipo)     H(rot)  DE(clash)    DE(int)     intcor
     15.89     -17.80       1.85        0.00      85.26       1.49       0.21       1.70       ----

> <Gold.Chemscore.Fitness>
15.8914

> <Gold.Chemscore.DG>
-17.7978

> <Gold.Chemscore.ZeroCoef>
-5.4800

> <Gold.Chemscore.Hbond>
1.8468

> <Gold.Chemscore.Metal>
0.0000

> <Gold.Chemscore.Lipo>
85.2600

> <Gold.Chemscore.Internal_Hbond>
0.0000

> <Gold.Chemscore.DEClash>
0.2111

> <Gold.Chemscore.DEInternal>
1.6952

> <Gold.Chemscore.Rot>
1.4946

> <Gold.Chemscore.Internal.Correction>
   9.000000E+99

> <Gold.Chemscore.Hbonds>
donor molecule, donor type, donor heavy atom, donor atom, acceptor molecule, acceptor atom, score
      L1  H    14    46       P1  7948  0.45
      P1  H  7989  7998       L1    10  0.86

> <Gold.Chemscore.Hbond.Weighted>
-6.1684

> <Gold.Chemscore.Metal.Weighted>
-0.0000

> <Gold.Chemscore.Lipo.Weighted>
-9.9754

> <Gold.Chemscore.Internal_Hbond.Weighted>
0.0000

> <Gold.Chemscore.DEClash.Weighted>
0.2111

> <Gold.Chemscore.DEInternal.Weighted>
1.6952

> <Gold.Chemscore.Rot.Weighted>
3.8261

> <Gold.Chemscore.Internal.Correction.Weighted>
   9.000000E+99

> <Gold.Protein.RotatedTorsions>
[ 6907 6896 6895 6894 ] final -105.13 input  -60.11 | X-H torsion
[ 7974 7965 7964 7962 ] final -158.35 input  175.53 | X-H torsion
[ 8008 7997 7996 7995 ] final  101.67 input   59.86 | X-H torsion
[ 10167 10162 10161 10158 ] final   54.84 input  -65.29 | X-H torsion
[ 10718 10713 10712 10709 ] final  155.84 input   66.30 | X-H torsion
[ 10763 10752 10751 10750 ] final   23.02 input  -60.55 | X-H torsion
[ 11005 11000 10999 10996 ] final   -4.30 input  -57.11 | X-H torsion

> <Gold.Protein.ActiveResidues>
 VAL166  LYS551  ARG553  GLY616  TRP617  ASP618  TYR619  PRO620  LYS621  CYS622 
 ASP623  PHE694  ASN695  SER759  ASP760  ASP761  ALA762  ILE779  LEU786  VAL792 
 PHE793  MET794  SER795  GLU796  ALA797  LYS798  CYS799  TRP800  GLU811  SER814 

> <Gold.Protein.RotatedAtoms>
  150.7321  134.0172  159.3689 H   0  0  0  0  0  0  0  0  0  0  0  0  # atno 6907 bound_to 6896
  151.8135  135.0671  160.0425 H   0  0  0  0  0  0  0  0  0  0  0  0  # atno 6908 bound_to 6896
  152.3055  133.5663  159.5683 H   0  0  0  0  0  0  0  0  0  0  0  0  # atno 6909 bound_to 6896
  144.7509  140.3840  143.6048 H   0  0  0  0  0  0  0  0  0  0  0  0  # atno 7974 bound_to 7965
  156.1321  140.3194  155.8365 H   0  0  0  0  0  0  0  0  0  0  0  0  # atno 8008 bound_to 7997
  155.4313  140.0519  157.3035 H   0  0  0  0  0  0  0  0  0  0  0  0  # atno 8009 bound_to 7997
  154.4907  140.2091  155.9567 H   0  0  0  0  0  0  0  0  0  0  0  0  # atno 8010 bound_to 7997
  140.2258  144.3740  150.6433 H   0  0  0  0  0  0  0  0  0  0  0  0  # atno 10167 bound_to 10162
  157.2129  131.0701  151.1958 H   0  0  0  0  0  0  0  0  0  0  0  0  # atno 10718 bound_to 10713
  153.0870  135.6636  153.9929 H   0  0  0  0  0  0  0  0  0  0  0  0  # atno 10763 bound_to 10752
  153.9536  135.2981  155.3438 H   0  0  0  0  0  0  0  0  0  0  0  0  # atno 10764 bound_to 10752
  154.7279  135.5136  153.8989 H   0  0  0  0  0  0  0  0  0  0  0  0  # atno 10765 bound_to 10752
  140.6787  133.9172  155.8541 H   0  0  0  0  0  0  0  0  0  0  0  0  # atno 11005 bound_to 11000
  145.6947  139.1647  143.2626 LP  0  0  0  0  0  0  0  0  0  0  0  0  # atno 17320 bound_to 7965
  146.1458  140.6995  142.9345 LP  0  0  0  0  0  0  0  0  0  0  0  0  # atno 17321 bound_to 7965
  140.6222  143.2177  151.6671 LP  0  0  0  0  0  0  0  0  0  0  0  0  # atno 17342 bound_to 10162
  139.5128  144.3465  152.0692 LP  0  0  0  0  0  0  0  0  0  0  0  0  # atno 17343 bound_to 10162
  157.3654  130.7153  149.6529 LP  0  0  0  0  0  0  0  0  0  0  0  0  # atno 17370 bound_to 10713
  155.9689  130.4214  150.4467 LP  0  0  0  0  0  0  0  0  0  0  0  0  # atno 17371 bound_to 10713
  141.0335  134.0723  157.3987 LP  0  0  0  0  0  0  0  0  0  0  0  0  # atno 17394 bound_to 11000
  139.8958  135.0143  156.7022 LP  0  0  0  0  0  0  0  0  0  0  0  0  # atno 17395 bound_to 11000

$$$$
