AV-unprocessed.smi:2264|AV-procd|sdf|9142|dock7
  -GOLD-   2272012343D 1   1.00000     0.00000
 Structure written by MMmdl.
 44 45  0  0  0  0  0  0  0  0  1 V2000
  153.4995  141.5295  161.6807 C   0  0  0  0  0  0  0  0  0  0  0  0
  152.8059  141.6515  160.3395 C   0  0  0  0  0  0  0  0  0  0  0  0
  152.3792  140.5013  159.6478 C   0  0  0  0  0  0  0  0  0  0  0  0
  151.7352  140.6218  158.4018 C   0  0  0  0  0  0  0  0  0  0  0  0
  151.5082  141.8985  157.8289 C   0  0  0  0  0  0  0  0  0  0  0  0
  150.8857  142.0930  156.6142 O   0  0  0  0  0  0  0  0  0  0  0  0
  150.4904  140.9550  155.8604 C   0  0  0  0  0  0  0  0  0  0  0  0
  149.3943  141.3913  154.8768 C   0  0  1  0  0  0  0  0  0  0  0  0
  149.7151  140.8382  153.6168 O   0  0  0  0  0  0  0  0  0  0  0  0
  147.9932  140.8950  155.3050 C   0  0  0  0  0  0  0  0  0  0  0  0
  146.9524  141.9030  155.0484 N   0  0  0  0  0  0  0  0  0  0  0  0
  146.7681  142.2803  153.7073 C   0  0  0  0  0  0  0  0  0  0  0  0
  145.8802  143.1551  153.3641 N   0  0  0  0  0  0  0  0  0  0  0  0
  145.0735  143.7484  154.3394 C   0  0  0  0  0  0  0  0  0  0  0  0
  144.0698  144.7673  153.8290 C   0  0  0  0  0  0  0  0  0  0  0  0
  145.1962  143.4199  155.6545 C   0  0  0  0  0  0  0  0  0  0  0  0
  144.3470  144.0349  156.7599 C   0  0  0  0  0  0  0  0  0  0  0  0
  146.1971  142.4193  156.0597 C   0  0  0  0  0  0  0  0  0  0  0  0
  146.3530  142.0662  157.2302 O   0  0  0  0  0  0  0  0  0  0  0  0
  151.9415  143.0487  158.5276 C   0  0  0  0  0  0  0  0  0  0  0  0
  151.7096  144.4275  157.9376 C   0  0  0  0  0  0  0  0  0  0  0  0
  152.5861  142.9230  159.7760 C   0  0  0  0  0  0  0  0  0  0  0  0
  153.4970  140.4994  162.0383 H   0  0  0  0  0  0  0  0  0  0  0  0
  152.9974  142.1484  162.4248 H   0  0  0  0  0  0  0  0  0  0  0  0
  154.5354  141.8604  161.6012 H   0  0  0  0  0  0  0  0  0  0  0  0
  152.5445  139.5203  160.0691 H   0  0  0  0  0  0  0  0  0  0  0  0
  151.4265  139.7162  157.9025 H   0  0  0  0  0  0  0  0  0  0  0  0
  151.3502  140.5675  155.3111 H   0  0  0  0  0  0  0  0  0  0  0  0
  150.1172  140.1644  156.5141 H   0  0  0  0  0  0  0  0  0  0  0  0
  149.4161  142.4786  154.7900 H   0  0  0  0  0  0  0  0  0  0  0  0
  148.9831  140.3194  153.3202 H   0  0  0  0  0  0  0  0  0  0  0  0
  147.7580  139.9380  154.8352 H   0  0  0  0  0  0  0  0  0  0  0  0
  147.9936  140.6621  156.3718 H   0  0  0  0  0  0  0  0  0  0  0  0
  147.4184  141.7819  152.9860 H   0  0  0  0  0  0  0  0  0  0  0  0
  144.2702  145.7489  154.2591 H   0  0  0  0  0  0  0  0  0  0  0  0
  143.0544  144.4707  154.0932 H   0  0  0  0  0  0  0  0  0  0  0  0
  144.1174  144.8619  152.7434 H   0  0  0  0  0  0  0  0  0  0  0  0
  143.7694  143.2602  157.2651 H   0  0  0  0  0  0  0  0  0  0  0  0
  143.6451  144.7837  156.3964 H   0  0  0  0  0  0  0  0  0  0  0  0
  144.9860  144.5178  157.4999 H   0  0  0  0  0  0  0  0  0  0  0  0
  152.0639  145.2131  158.6055 H   0  0  0  0  0  0  0  0  0  0  0  0
  150.6462  144.5896  157.7593 H   0  0  0  0  0  0  0  0  0  0  0  0
  152.2359  144.5259  156.9880 H   0  0  0  0  0  0  0  0  0  0  0  0
  152.9143  143.8052  160.3065 H   0  0  0  0  0  0  0  0  0  0  0  0
  1  2  1  0  0  0  0
  1 23  1  0  0  0  0
  1 24  1  0  0  0  0
  1 25  1  0  0  0  0
  2 22  1  0  0  0  0
  2  3  2  0  0  0  0
  3  4  1  0  0  0  0
  3 26  1  0  0  0  0
  4  5  2  0  0  0  0
  4 27  1  0  0  0  0
  5  6  1  0  0  0  0
  5 20  1  0  0  0  0
  6  7  1  0  0  0  0
  7  8  1  0  0  0  0
  7 28  1  0  0  0  0
  7 29  1  0  0  0  0
  8  9  1  0  0  0  0
  8 10  1  0  0  0  0
  8 30  1  0  0  0  0
  9 31  1  0  0  0  0
 10 11  1  0  0  0  0
 10 32  1  0  0  0  0
 10 33  1  0  0  0  0
 11 18  1  0  0  0  0
 11 12  1  0  0  0  0
 12 13  2  0  0  0  0
 12 34  1  0  0  0  0
 13 14  1  0  0  0  0
 14 15  1  0  0  0  0
 14 16  2  0  0  0  0
 15 35  1  0  0  0  0
 15 36  1  0  0  0  0
 15 37  1  0  0  0  0
 16 17  1  0  0  0  0
 16 18  1  0  0  0  0
 17 38  1  0  0  0  0
 17 39  1  0  0  0  0
 17 40  1  0  0  0  0
 18 19  2  0  0  0  0
 20 21  1  0  0  0  0
 20 22  2  0  0  0  0
 21 41  1  0  0  0  0
 21 42  1  0  0  0  0
 21 43  1  0  0  0  0
 22 44  1  0  0  0  0
M  END
> <s_m_source_file>
AV-unprocessed.smi

> <i_m_source_file_index>
2264

> <i_lp_mmshare_version>
43012

> <i_f3d_flags>
0

> <s_epik_input>
W0NIM11jMVtjSF1bY0hdYyhjKFtDSDNdKVtjSF0xKU9bQ0gyXVtDQEhdKFtPSF0pW0NIMl1uMltjSF1uYyhbQ0gzXSljKFtDSDNdKWMyPU8=

> <s_epik_cmdline>
J2VwaWtfcHl0aG9uJywgJy1waCcsICc3LjAnLCAnLXRuJywgJzgnLCAnLW1hJywgJzIwMCcsICctbWV0YWxfYmluZGluZycsICctaW1hZScsICc8aW5maWxlLm1hZT4nLCAnLW9tYWUnLCAnPG91dGZpbGUubWFlPic=

> <r_lp_tautomer_probability>
1

> <r_epik_Ionization_Penalty>
3.7476e-05

> <r_epik_Ionization_Penalty_Charging>
8.44705e-08

> <r_epik_Ionization_Penalty_Neutral>
3.73915e-05

> <r_epik_State_Penalty>
-0

> <r_epik_Charging_Adjusted_Penalty>
8.44705e-08

> <i_epik_Tot_Q>
0

> <i_epik_Tot_abs_Q>
0

> <r_epik_Metal_State_Penalty>
-0

> <b_epik_Metal_Only>
0

> <s_lp_Force_Field>
OPLS_2005

> <r_lp_Energy>
22.0846

> <b_lp_Chiralities_Consistent>
1

> <s_lp_Variant>
AV-unprocessed.smi:2264-2

> <Gold.Version>
5.8.1

> <Gold.Id.Protein>
6NUR|6NUR_protein|mol2

> <Gold.PLP.Fitness>
51.5076

> <Gold.PLP.PLP>
-49.9584

> <Gold.PLP.part.hbond>
-3.0000

> <Gold.PLP.part.metal>
0.0000

> <Gold.PLP.part.buried>
-6.9701

> <Gold.PLP.part.nonpolar>
-40.2709

> <Gold.PLP.part.repulsive>
0.4003

> <Gold.PLP.ligand.clash>
0.0000

> <Gold.PLP.ligand.torsion>
1.3179

> <Gold.PLP.Chemscore.Hbond>
1.3840

> <Gold.PLP.Chemscore.CHOScore>
0.0000

> <Gold.PLP.Chemscore.Metal>
0.0000

> <Gold.Chemscore.Hbonds>
donor molecule, donor type, donor heavy atom, donor atom, acceptor molecule, acceptor atom, score
      P1  H  7989  7998       L1     9  0.38
      P1  H  8011  8017       L1     9  0.99

> <Gold.PLP.Chemscore.Internal.Correction>
0.0330

> <Gold.Rescore>
     Score         DG    S(hbond)    S(metal)    S(lipo)     H(rot)  DE(clash)    DE(int)     intcor
     15.13     -16.66       0.89        0.00     120.96       2.32       0.09       1.44       ----

> <Gold.Chemscore.Fitness>
15.1293

> <Gold.Chemscore.DG>
-16.6619

> <Gold.Chemscore.ZeroCoef>
-5.4800

> <Gold.Chemscore.Hbond>
0.8918

> <Gold.Chemscore.Metal>
0.0000

> <Gold.Chemscore.Lipo>
120.9557

> <Gold.Chemscore.Internal_Hbond>
0.0000

> <Gold.Chemscore.DEClash>
0.0930

> <Gold.Chemscore.DEInternal>
1.4396

> <Gold.Chemscore.Rot>
2.3236

> <Gold.Chemscore.Internal.Correction>
   9.000000E+99

> <Gold.Chemscore.Hbonds>
donor molecule, donor type, donor heavy atom, donor atom, acceptor molecule, acceptor atom, score
      L1  H     9    31       P1  7957  0.02
      P1  H  7989  7998       L1     9  0.23
      P1  H  8011  8017       L1     9  0.25

> <Gold.Chemscore.Hbond.Weighted>
-2.9785

> <Gold.Chemscore.Metal.Weighted>
-0.0000

> <Gold.Chemscore.Lipo.Weighted>
-14.1518

> <Gold.Chemscore.Internal_Hbond.Weighted>
0.0000

> <Gold.Chemscore.DEClash.Weighted>
0.0930

> <Gold.Chemscore.DEInternal.Weighted>
1.4396

> <Gold.Chemscore.Rot.Weighted>
5.9484

> <Gold.Chemscore.Internal.Correction.Weighted>
   9.000000E+99

> <Gold.Protein.RotatedTorsions>
[ 6907 6896 6895 6894 ] final  167.19 input  -60.11 | X-H torsion
[ 7974 7965 7964 7962 ] final   45.67 input  175.53 | X-H torsion
[ 8008 7997 7996 7995 ] final  -16.22 input   59.86 | X-H torsion
[ 10167 10162 10161 10158 ] final  169.79 input  -65.29 | X-H torsion
[ 10718 10713 10712 10709 ] final  -85.90 input   66.30 | X-H torsion
[ 10763 10752 10751 10750 ] final  -74.08 input  -60.55 | X-H torsion
[ 11005 11000 10999 10996 ] final   69.18 input  -57.11 | X-H torsion

> <Gold.Protein.ActiveResidues>
 VAL166  LYS551  ARG553  GLY616  TRP617  ASP618  TYR619  PRO620  LYS621  CYS622 
 ASP623  PHE694  ASN695  SER759  ASP760  ASP761  ALA762  ILE779  LEU786  VAL792 
 PHE793  MET794  SER795  GLU796  ALA797  LYS798  CYS799  TRP800  GLU811  SER814 

> <Gold.Protein.RotatedAtoms>
  151.8672  133.3468  159.3722 H   0  0  0  0  0  0  0  0  0  0  0  0  # atno 6907 bound_to 6896
  150.7162  134.5148  159.5634 H   0  0  0  0  0  0  0  0  0  0  0  0  # atno 6908 bound_to 6896
  152.2673  134.7970  160.0471 H   0  0  0  0  0  0  0  0  0  0  0  0  # atno 6909 bound_to 6896
  146.0459  139.4939  142.9749 H   0  0  0  0  0  0  0  0  0  0  0  0  # atno 7974 bound_to 7965
  154.5069  140.2175  155.9232 H   0  0  0  0  0  0  0  0  0  0  0  0  # atno 8008 bound_to 7997
  156.1505  140.3162  155.8607 H   0  0  0  0  0  0  0  0  0  0  0  0  # atno 8009 bound_to 7997
  155.3947  140.0480  157.3030 H   0  0  0  0  0  0  0  0  0  0  0  0  # atno 8010 bound_to 7997
  139.5001  144.3668  151.9767 H   0  0  0  0  0  0  0  0  0  0  0  0  # atno 10167 bound_to 10162
  155.9993  130.4746  150.4632 H   0  0  0  0  0  0  0  0  0  0  0  0  # atno 10718 bound_to 10713
  154.4682  135.5876  153.6303 H   0  0  0  0  0  0  0  0  0  0  0  0  # atno 10763 bound_to 10752
  152.9831  135.6060  154.3400 H   0  0  0  0  0  0  0  0  0  0  0  0  # atno 10764 bound_to 10752
  154.3280  135.2843  155.2465 H   0  0  0  0  0  0  0  0  0  0  0  0  # atno 10765 bound_to 10752
  139.9668  134.6967  156.0528 H   0  0  0  0  0  0  0  0  0  0  0  0  # atno 11005 bound_to 11000
  145.6807  141.0192  143.1608 LP  0  0  0  0  0  0  0  0  0  0  0  0  # atno 17320 bound_to 7965
  144.7097  139.8418  143.7418 LP  0  0  0  0  0  0  0  0  0  0  0  0  # atno 17321 bound_to 7965
  140.3104  144.3545  150.6035 LP  0  0  0  0  0  0  0  0  0  0  0  0  # atno 17342 bound_to 10162
  140.5803  143.2173  151.7440 LP  0  0  0  0  0  0  0  0  0  0  0  0  # atno 17343 bound_to 10162
  157.2654  131.0576  151.2293 LP  0  0  0  0  0  0  0  0  0  0  0  0  # atno 17370 bound_to 10713
  157.3393  130.7025  149.6372 LP  0  0  0  0  0  0  0  0  0  0  0  0  # atno 17371 bound_to 10713
  141.1348  133.6578  156.3563 LP  0  0  0  0  0  0  0  0  0  0  0  0  # atno 17394 bound_to 11000
  140.5379  134.6149  157.5370 LP  0  0  0  0  0  0  0  0  0  0  0  0  # atno 17395 bound_to 11000

$$$$
