AV-unprocessed.smi:1180|AV-procd|sdf|4960|dock8
  -GOLD-   22720 3553D 1   1.00000     0.00000
 Structure written by MMmdl.
 38 39  0  0  0  0  0  0  0  0  1 V2000
  146.3922  138.1134  152.5410 C   0  0  0  0  0  0  0  0  0  0  0  0
  147.2291  139.1389  153.2760 C   0  0  0  0  0  0  0  0  0  0  0  0
  146.7520  140.2260  153.7868 N   0  0  0  0  0  0  0  0  0  0  0  0
  147.6261  141.1005  154.4474 C   0  0  0  0  0  0  0  0  0  0  0  0
  146.9889  142.3524  155.0247 C   0  0  0  0  0  0  0  0  0  0  0  0
  148.9601  140.8311  154.5577 C   0  0  0  0  0  0  0  0  0  0  0  0
  149.9404  141.7593  155.2749 C   0  0  0  0  0  0  0  0  0  0  0  0
  150.0318  141.6065  156.7958 C   0  0  0  0  0  0  0  0  0  0  0  0
  149.0175  141.4433  157.4748 O   0  0  0  0  0  0  0  0  0  0  0  0
  151.2660  141.6598  157.3180 N   0  0  0  0  0  0  0  0  0  0  0  0
  151.5828  141.5283  158.7358 C   0  0  0  0  0  0  0  0  0  0  0  0
  152.2186  142.8093  159.3098 C   0  0  2  0  0  0  0  0  0  0  0  0
  152.5700  142.7163  160.7901 C   0  0  0  0  0  0  0  0  0  0  0  0
  152.2316  144.1019  161.3508 C   0  0  0  0  0  0  0  0  0  0  0  0
  151.9082  144.9007  160.2212 O   0  0  0  0  0  0  0  0  0  0  0  0
  151.3244  144.0469  159.2528 C   0  0  0  0  0  0  0  0  0  0  0  0
  149.4939  139.5863  153.9722 C   0  0  0  0  0  0  0  0  0  0  0  0
  150.6741  139.2427  154.0218 O   0  0  0  0  0  0  0  0  0  0  0  0
  148.5799  138.8039  153.3555 N   0  0  0  0  0  0  0  0  0  0  0  0
  148.8955  137.9397  152.9399 H   0  0  0  0  0  0  0  0  0  0  0  0
  145.6255  137.7115  153.2038 H   0  0  0  0  0  0  0  0  0  0  0  0
  146.9992  137.2831  152.1775 H   0  0  0  0  0  0  0  0  0  0  0  0
  145.8983  138.5754  151.6857 H   0  0  0  0  0  0  0  0  0  0  0  0
  147.3738  143.2417  154.5257 H   0  0  0  0  0  0  0  0  0  0  0  0
  147.1975  142.4340  156.0916 H   0  0  0  0  0  0  0  0  0  0  0  0
  145.9055  142.3404  154.8977 H   0  0  0  0  0  0  0  0  0  0  0  0
  150.9398  141.6447  154.8527 H   0  0  0  0  0  0  0  0  0  0  0  0
  149.6671  142.7928  155.0623 H   0  0  0  0  0  0  0  0  0  0  0  0
  152.0428  141.7961  156.6872 H   0  0  0  0  0  0  0  0  0  0  0  0
  150.6582  141.2991  159.2665 H   0  0  0  0  0  0  0  0  0  0  0  0
  152.2458  140.6755  158.8905 H   0  0  0  0  0  0  0  0  0  0  0  0
  153.1365  143.0345  158.7644 H   0  0  0  0  0  0  0  0  0  0  0  0
  151.9837  141.9516  161.3013 H   0  0  0  0  0  0  0  0  0  0  0  0
  153.6242  142.4714  160.9248 H   0  0  0  0  0  0  0  0  0  0  0  0
  151.3645  144.0460  162.0103 H   0  0  0  0  0  0  0  0  0  0  0  0
  153.0578  144.5386  161.9124 H   0  0  0  0  0  0  0  0  0  0  0  0
  151.3094  144.5121  158.2667 H   0  0  0  0  0  0  0  0  0  0  0  0
  150.2983  143.8122  159.5413 H   0  0  0  0  0  0  0  0  0  0  0  0
  1  2  1  0  0  0  0
  1 21  1  0  0  0  0
  1 22  1  0  0  0  0
  1 23  1  0  0  0  0
  2 19  1  0  0  0  0
  2  3  2  0  0  0  0
  3  4  1  0  0  0  0
  4  5  1  0  0  0  0
  4  6  2  0  0  0  0
  5 24  1  0  0  0  0
  5 25  1  0  0  0  0
  5 26  1  0  0  0  0
  6  7  1  0  0  0  0
  6 17  1  0  0  0  0
  7  8  1  0  0  0  0
  7 27  1  0  0  0  0
  7 28  1  0  0  0  0
  8  9  2  0  0  0  0
  8 10  1  0  0  0  0
 10 11  1  0  0  0  0
 10 29  1  0  0  0  0
 11 12  1  0  0  0  0
 11 30  1  0  0  0  0
 11 31  1  0  0  0  0
 12 16  1  0  0  0  0
 12 13  1  0  0  0  0
 12 32  1  0  0  0  0
 13 14  1  0  0  0  0
 13 33  1  0  0  0  0
 13 34  1  0  0  0  0
 14 15  1  0  0  0  0
 14 35  1  0  0  0  0
 14 36  1  0  0  0  0
 15 16  1  0  0  0  0
 16 37  1  0  0  0  0
 16 38  1  0  0  0  0
 17 18  2  0  0  0  0
 17 19  1  0  0  0  0
 19 20  1  0  0  0  0
M  END
> <s_m_source_file>
AV-unprocessed.smi

> <i_m_source_file_index>
1180

> <i_lp_mmshare_version>
43012

> <i_f3d_flags>
0

> <s_epik_input>
W0NIM11jMW5jKFtDSDNdKWMoYyg9TylbbkhdMSlbQ0gyXUMoPU8pW05IXVtDSDJdW0NAQEhdMltDSDJdW0NIMl1PW0NIMl0y

> <s_epik_cmdline>
J2VwaWtfcHl0aG9uJywgJy1waCcsICc3LjAnLCAnLXRuJywgJzgnLCAnLW1hJywgJzIwMCcsICctbWV0YWxfYmluZGluZycsICctaW1hZScsICc8aW5maWxlLm1hZT4nLCAnLW9tYWUnLCAnPG91dGZpbGUubWFlPic=

> <r_lp_tautomer_probability>
0.839158

> <r_epik_Ionization_Penalty>
0.000395459

> <r_epik_Ionization_Penalty_Charging>
0.000363703

> <r_epik_Ionization_Penalty_Neutral>
3.17556e-05

> <r_epik_State_Penalty>
0.0471244

> <r_epik_Charging_Adjusted_Penalty>
0.0474881

> <i_epik_Tot_Q>
0

> <i_epik_Tot_abs_Q>
0

> <r_epik_Metal_State_Penalty>
0.225307

> <b_epik_Metal_Only>
0

> <s_lp_Force_Field>
OPLS_2005

> <r_lp_Energy>
20.5307

> <b_lp_Chiralities_Consistent>
1

> <s_lp_Variant>
AV-unprocessed.smi:1180-1

> <Gold.Version>
5.8.1

> <Gold.Id.Protein>
6NUR|6NUR_protein|mol2

> <Gold.PLP.Fitness>
41.1221

> <Gold.PLP.PLP>
-36.3410

> <Gold.PLP.part.hbond>
-3.0000

> <Gold.PLP.part.metal>
0.0000

> <Gold.PLP.part.buried>
-0.3867

> <Gold.PLP.part.nonpolar>
-32.5649

> <Gold.PLP.part.repulsive>
0.6652

> <Gold.PLP.ligand.clash>
0.0000

> <Gold.PLP.ligand.torsion>
0.5996

> <Gold.PLP.Chemscore.Hbond>
1.9913

> <Gold.PLP.Chemscore.CHOScore>
0.0000

> <Gold.PLP.Chemscore.Metal>
0.0000

> <Gold.Chemscore.Hbonds>
donor molecule, donor type, donor heavy atom, donor atom, acceptor molecule, acceptor atom, score
      L1  H    19    20       P1  7948  1.00
      P1  H  7989  7998       L1    18  1.00

> <Gold.PLP.Chemscore.Internal.Correction>
0.0066

> <Gold.Rescore>
     Score         DG    S(hbond)    S(metal)    S(lipo)     H(rot)  DE(clash)    DE(int)     intcor
     14.78     -15.77       1.47        0.00      85.39       1.81       0.41       0.58       ----

> <Gold.Chemscore.Fitness>
14.7804

> <Gold.Chemscore.DG>
-15.7655

> <Gold.Chemscore.ZeroCoef>
-5.4800

> <Gold.Chemscore.Hbond>
1.4729

> <Gold.Chemscore.Metal>
0.0000

> <Gold.Chemscore.Lipo>
85.3912

> <Gold.Chemscore.Internal_Hbond>
0.0000

> <Gold.Chemscore.DEClash>
0.4095

> <Gold.Chemscore.DEInternal>
0.5756

> <Gold.Chemscore.Rot>
1.8065

> <Gold.Chemscore.Internal.Correction>
   9.000000E+99

> <Gold.Chemscore.Hbonds>
donor molecule, donor type, donor heavy atom, donor atom, acceptor molecule, acceptor atom, score
      L1  H    19    20       P1  7948  0.97
      P1  H  7989  7998       L1    18  0.39

> <Gold.Chemscore.Hbond.Weighted>
-4.9194

> <Gold.Chemscore.Metal.Weighted>
-0.0000

> <Gold.Chemscore.Lipo.Weighted>
-9.9908

> <Gold.Chemscore.Internal_Hbond.Weighted>
0.0000

> <Gold.Chemscore.DEClash.Weighted>
0.4095

> <Gold.Chemscore.DEInternal.Weighted>
0.5756

> <Gold.Chemscore.Rot.Weighted>
4.6246

> <Gold.Chemscore.Internal.Correction.Weighted>
   9.000000E+99

> <Gold.Protein.RotatedTorsions>
[ 6907 6896 6895 6894 ] final  -11.90 input  -60.11 | X-H torsion
[ 7974 7965 7964 7962 ] final   42.87 input  175.53 | X-H torsion
[ 8008 7997 7996 7995 ] final  -28.10 input   59.86 | X-H torsion
[ 10167 10162 10161 10158 ] final  123.87 input  -65.29 | X-H torsion
[ 10718 10713 10712 10709 ] final -107.64 input   66.30 | X-H torsion
[ 10763 10752 10751 10750 ] final  116.59 input  -60.55 | X-H torsion
[ 11005 11000 10999 10996 ] final   20.52 input  -57.11 | X-H torsion

> <Gold.Protein.ActiveResidues>
 VAL166  LYS551  ARG553  GLY616  TRP617  ASP618  TYR619  PRO620  LYS621  CYS622 
 ASP623  PHE694  ASN695  SER759  ASP760  ASP761  ALA762  ILE779  LEU786  VAL792 
 PHE793  MET794  SER795  GLU796  ALA797  LYS798  CYS799  TRP800  GLU811  SER814 

> <Gold.Protein.RotatedAtoms>
  151.3789  135.0936  159.9489 H   0  0  0  0  0  0  0  0  0  0  0  0  # atno 6907 bound_to 6896
  152.5114  133.9092  159.7489 H   0  0  0  0  0  0  0  0  0  0  0  0  # atno 6908 bound_to 6896
  150.9521  133.6483  159.2799 H   0  0  0  0  0  0  0  0  0  0  0  0  # atno 6909 bound_to 6896
  146.0704  139.5251  142.9601 H   0  0  0  0  0  0  0  0  0  0  0  0  # atno 7974 bound_to 7965
  154.4347  140.1854  156.1036 H   0  0  0  0  0  0  0  0  0  0  0  0  # atno 8008 bound_to 7997
  156.0273  140.3334  155.7076 H   0  0  0  0  0  0  0  0  0  0  0  0  # atno 8009 bound_to 7997
  155.5890  140.0629  157.2754 H   0  0  0  0  0  0  0  0  0  0  0  0  # atno 8010 bound_to 7997
  139.5774  144.6970  151.3617 H   0  0  0  0  0  0  0  0  0  0  0  0  # atno 10167 bound_to 10162
  156.0446  130.5673  150.7850 H   0  0  0  0  0  0  0  0  0  0  0  0  # atno 10718 bound_to 10713
  153.5396  135.3561  155.2712 H   0  0  0  0  0  0  0  0  0  0  0  0  # atno 10763 bound_to 10752
  154.8719  135.4088  154.3059 H   0  0  0  0  0  0  0  0  0  0  0  0  # atno 10764 bound_to 10752
  153.3764  135.7066  153.6667 H   0  0  0  0  0  0  0  0  0  0  0  0  # atno 10765 bound_to 10752
  140.4017  134.1711  155.7664 H   0  0  0  0  0  0  0  0  0  0  0  0  # atno 11005 bound_to 11000
  145.6402  141.0286  143.1816 LP  0  0  0  0  0  0  0  0  0  0  0  0  # atno 17320 bound_to 7965
  144.7228  139.7973  143.7376 LP  0  0  0  0  0  0  0  0  0  0  0  0  # atno 17321 bound_to 7965
  140.7055  143.7523  150.7475 LP  0  0  0  0  0  0  0  0  0  0  0  0  # atno 17342 bound_to 10162
  140.1047  143.4755  152.2405 LP  0  0  0  0  0  0  0  0  0  0  0  0  # atno 17343 bound_to 10162
  157.5307  131.0936  150.9959 LP  0  0  0  0  0  0  0  0  0  0  0  0  # atno 17370 bound_to 10713
  157.0266  130.5695  149.5338 LP  0  0  0  0  0  0  0  0  0  0  0  0  # atno 17371 bound_to 10713
  141.1854  133.8324  157.1106 LP  0  0  0  0  0  0  0  0  0  0  0  0  # atno 17394 bound_to 11000
  140.0331  134.9891  157.0819 LP  0  0  0  0  0  0  0  0  0  0  0  0  # atno 17395 bound_to 11000

$$$$
