AV-unprocessed.smi:1176|AV-procd|sdf|4952|dock5
  -GOLD-   22720 3543D 1   1.00000     0.00000
 Structure written by MMmdl.
 50 51  0  0  0  0  0  0  0  0  2 V2000
  144.3375  135.5332  150.4769 C   0  0  0  0  0  0  0  0  0  0  0  0
  145.6175  135.8238  151.2747 C   0  0  0  0  0  0  0  0  0  0  0  0
  146.0853  134.5606  152.0167 C   0  0  0  0  0  0  0  0  0  0  0  0
  145.3967  137.0096  152.2391 C   0  0  0  0  0  0  0  0  0  0  0  0
  146.6626  137.5575  152.7924 N   0  3  2  0  0  0  0  0  0  0  0  0
  146.9150  137.0910  154.1807 C   0  0  0  0  0  0  0  0  0  0  0  0
  148.2903  137.5572  154.6870 C   0  0  0  0  0  0  0  0  0  0  0  0
  148.4228  139.0882  154.6001 C   0  0  1  0  0  0  0  0  0  0  0  0
  149.7577  139.5240  154.9985 N   0  0  0  0  0  0  0  0  0  0  0  0
  150.0377  140.2478  156.0930 C   0  0  0  0  0  0  0  0  0  0  0  0
  149.1809  140.5992  156.9052 O   0  0  0  0  0  0  0  0  0  0  0  0
  151.5149  140.6070  156.3046 C   0  0  0  0  0  0  0  0  0  0  0  0
  151.7471  141.3805  157.5312 N   0  0  0  0  0  0  0  0  0  0  0  0
  151.1591  142.6235  157.6793 C   0  0  0  0  0  0  0  0  0  0  0  0
  151.3385  143.4079  158.7644 C   0  0  0  0  0  0  0  0  0  0  0  0
  152.1821  142.9731  159.8710 C   0  0  0  0  0  0  0  0  0  0  0  0
  152.3923  143.6651  160.8679 O   0  0  0  0  0  0  0  0  0  0  0  0
  152.7564  141.6904  159.7028 N   0  0  0  0  0  0  0  0  0  0  0  0
  153.6275  141.1899  160.7461 C   0  0  0  0  0  0  0  0  0  0  0  0
  152.5802  140.8827  158.5565 C   0  0  0  0  0  0  0  0  0  0  0  0
  153.1335  139.7867  158.4368 O   0  0  0  0  0  0  0  0  0  0  0  0
  148.1306  139.5434  153.1621 C   0  0  0  0  0  0  0  0  0  0  0  0
  146.7570  139.0386  152.6896 C   0  0  0  0  0  0  0  0  0  0  0  0
  143.5150  135.2489  151.1342 H   0  0  0  0  0  0  0  0  0  0  0  0
  144.4919  134.7200  149.7669 H   0  0  0  0  0  0  0  0  0  0  0  0
  144.0209  136.4075  149.9074 H   0  0  0  0  0  0  0  0  0  0  0  0
  146.3847  136.0880  150.5475 H   0  0  0  0  0  0  0  0  0  0  0  0
  145.3533  134.2427  152.7599 H   0  0  0  0  0  0  0  0  0  0  0  0
  147.0325  134.7257  152.5308 H   0  0  0  0  0  0  0  0  0  0  0  0
  146.2339  133.7319  151.3236 H   0  0  0  0  0  0  0  0  0  0  0  0
  144.8464  137.8120  151.7450 H   0  0  0  0  0  0  0  0  0  0  0  0
  144.7594  136.6669  153.0558 H   0  0  0  0  0  0  0  0  0  0  0  0
  146.1264  137.4594  154.8388 H   0  0  0  0  0  0  0  0  0  0  0  0
  146.8752  136.0016  154.2166 H   0  0  0  0  0  0  0  0  0  0  0  0
  148.4321  137.2223  155.7152 H   0  0  0  0  0  0  0  0  0  0  0  0
  149.0750  137.0818  154.0965 H   0  0  0  0  0  0  0  0  0  0  0  0
  147.6867  139.5496  155.2617 H   0  0  0  0  0  0  0  0  0  0  0  0
  150.5229  139.2739  154.3887 H   0  0  0  0  0  0  0  0  0  0  0  0
  152.0896  139.6803  156.3340 H   0  0  0  0  0  0  0  0  0  0  0  0
  151.8895  141.1582  155.4399 H   0  0  0  0  0  0  0  0  0  0  0  0
  150.5286  142.9937  156.8840 H   0  0  0  0  0  0  0  0  0  0  0  0
  150.8549  144.3725  158.8130 H   0  0  0  0  0  0  0  0  0  0  0  0
  153.5063  140.1085  160.8254 H   0  0  0  0  0  0  0  0  0  0  0  0
  153.3514  141.6291  161.7053 H   0  0  0  0  0  0  0  0  0  0  0  0
  154.6461  141.4587  160.4635 H   0  0  0  0  0  0  0  0  0  0  0  0
  148.1631  140.6319  153.1001 H   0  0  0  0  0  0  0  0  0  0  0  0
  148.9043  139.1714  152.4884 H   0  0  0  0  0  0  0  0  0  0  0  0
  146.6018  139.3598  151.6606 H   0  0  0  0  0  0  0  0  0  0  0  0
  145.9657  139.4974  153.2850 H   0  0  0  0  0  0  0  0  0  0  0  0
  147.4079  137.1732  152.2292 H   0  0  0  0  0  0  0  0  0  0  0  0
  1  2  1  0  0  0  0
  1 24  1  0  0  0  0
  1 25  1  0  0  0  0
  1 26  1  0  0  0  0
  2  3  1  0  0  0  0
  2  4  1  0  0  0  0
  2 27  1  0  0  0  0
  3 28  1  0  0  0  0
  3 29  1  0  0  0  0
  3 30  1  0  0  0  0
  4  5  1  0  0  0  0
  4 31  1  0  0  0  0
  4 32  1  0  0  0  0
  5 23  1  0  0  0  0
  5  6  1  0  0  0  0
  5 50  1  0  0  0  0
  6  7  1  0  0  0  0
  6 33  1  0  0  0  0
  6 34  1  0  0  0  0
  7  8  1  0  0  0  0
  7 35  1  0  0  0  0
  7 36  1  0  0  0  0
  8  9  1  0  0  0  0
  8 22  1  0  0  0  0
  8 37  1  0  0  0  0
  9 10  1  0  0  0  0
  9 38  1  0  0  0  0
 10 11  2  0  0  0  0
 10 12  1  0  0  0  0
 12 13  1  0  0  0  0
 12 39  1  0  0  0  0
 12 40  1  0  0  0  0
 13 20  1  0  0  0  0
 13 14  1  0  0  0  0
 14 15  2  0  0  0  0
 14 41  1  0  0  0  0
 15 16  1  0  0  0  0
 15 42  1  0  0  0  0
 16 17  2  0  0  0  0
 16 18  1  0  0  0  0
 18 19  1  0  0  0  0
 18 20  1  0  0  0  0
 19 43  1  0  0  0  0
 19 44  1  0  0  0  0
 19 45  1  0  0  0  0
 20 21  2  0  0  0  0
 22 23  1  0  0  0  0
 22 46  1  0  0  0  0
 22 47  1  0  0  0  0
 23 48  1  0  0  0  0
 23 49  1  0  0  0  0
M  CHG  1   5   1
M  END
> <s_m_source_file>
AV-unprocessed.smi

> <i_m_source_file_index>
1176

> <i_lp_mmshare_version>
43012

> <i_f3d_flags>
0

> <s_epik_input>
W0NIM11bQ0hdKFtDSDNdKVtDSDJdTjFbQ0gyXVtDSDJdW0NIXShbQ0gyXVtDSDJdMSlbTkhdQyg9TylbQ0gyXW4yW2NIXVtjSF1jKD1PKW4oW0NIM10pYzI9Tw==

> <s_epik_cmdline>
J2VwaWtfcHl0aG9uJywgJy1waCcsICc3LjAnLCAnLXRuJywgJzgnLCAnLW1hJywgJzIwMCcsICctbWV0YWxfYmluZGluZycsICctaW1hZScsICc8aW5maWxlLm1hZT4nLCAnLW9tYWUnLCAnPG91dGZpbGUubWFlPic=

> <r_lp_tautomer_probability>
1

> <r_epik_Ionization_Penalty>
0.00401429

> <r_epik_Ionization_Penalty_Charging>
0.00401425

> <r_epik_Ionization_Penalty_Neutral>
4.29561e-08

> <r_epik_State_Penalty>
0.00287487

> <r_epik_Charging_Adjusted_Penalty>
0.00688912

> <i_epik_Tot_Q>
1

> <i_epik_Tot_abs_Q>
1

> <r_epik_Metal_State_Penalty>
-0

> <b_epik_Metal_Only>
0

> <s_lp_Force_Field>
OPLS_2005

> <r_lp_Energy>
26.9025

> <b_lp_Chiralities_Consistent>
1

> <s_lp_Variant>
AV-unprocessed.smi:1176-1

> <Gold.Version>
5.8.1

> <Gold.Id.Protein>
6NUR|6NUR_protein|mol2

> <Gold.PLP.Fitness>
49.1586

> <Gold.PLP.PLP>
-38.5584

> <Gold.PLP.part.hbond>
-2.0000

> <Gold.PLP.part.metal>
0.0000

> <Gold.PLP.part.buried>
-1.0692

> <Gold.PLP.part.nonpolar>
-35.6910

> <Gold.PLP.part.repulsive>
0.2524

> <Gold.PLP.ligand.clash>
0.0000

> <Gold.PLP.ligand.torsion>
0.7535

> <Gold.PLP.Chemscore.Hbond>
2.9913

> <Gold.PLP.Chemscore.CHOScore>
1.0000

> <Gold.PLP.Chemscore.Metal>
0.0000

> <Gold.Chemscore.Hbonds>
donor molecule, donor type, donor heavy atom, donor atom, acceptor molecule, acceptor atom, score
      L1  H     5    50       P1  7948  2.00
      P1  H  7997  8009       L1    21  0.98
      L1  C    14    41       P1  8028  0.64

> <Gold.PLP.Chemscore.Internal.Correction>
0.1335

> <Gold.Rescore>
     Score         DG    S(hbond)    S(metal)    S(lipo)     H(rot)  DE(clash)    DE(int)     intcor
     13.06     -16.27       1.92        0.00      79.52       1.92       1.55       1.66       ----

> <Gold.Chemscore.Fitness>
13.0646

> <Gold.Chemscore.DG>
-16.2694

> <Gold.Chemscore.ZeroCoef>
-5.4800

> <Gold.Chemscore.Hbond>
1.9162

> <Gold.Chemscore.Metal>
0.0000

> <Gold.Chemscore.Lipo>
79.5216

> <Gold.Chemscore.Internal_Hbond>
0.0000

> <Gold.Chemscore.DEClash>
1.5486

> <Gold.Chemscore.DEInternal>
1.6562

> <Gold.Chemscore.Rot>
1.9198

> <Gold.Chemscore.Internal.Correction>
   9.000000E+99

> <Gold.Chemscore.Hbonds>
donor molecule, donor type, donor heavy atom, donor atom, acceptor molecule, acceptor atom, score
      L1  H     5    50       P1  7948  0.99
      P1  H  7997  8009       L1    21  0.50

> <Gold.Chemscore.Hbond.Weighted>
-6.4001

> <Gold.Chemscore.Metal.Weighted>
-0.0000

> <Gold.Chemscore.Lipo.Weighted>
-9.3040

> <Gold.Chemscore.Internal_Hbond.Weighted>
0.0000

> <Gold.Chemscore.DEClash.Weighted>
1.5486

> <Gold.Chemscore.DEInternal.Weighted>
1.6562

> <Gold.Chemscore.Rot.Weighted>
4.9147

> <Gold.Chemscore.Internal.Correction.Weighted>
   9.000000E+99

> <Gold.Protein.RotatedTorsions>
[ 6907 6896 6895 6894 ] final  -93.99 input  -60.11 | X-H torsion
[ 7974 7965 7964 7962 ] final  109.29 input  175.53 | X-H torsion
[ 8008 7997 7996 7995 ] final  156.22 input   59.86 | X-H torsion
[ 10167 10162 10161 10158 ] final -158.15 input  -65.29 | X-H torsion
[ 10718 10713 10712 10709 ] final  142.70 input   66.30 | X-H torsion
[ 10763 10752 10751 10750 ] final -135.18 input  -60.55 | X-H torsion
[ 11005 11000 10999 10996 ] final   16.64 input  -57.11 | X-H torsion

> <Gold.Protein.ActiveResidues>
 VAL166  LYS551  ARG553  GLY616  TRP617  ASP618  TYR619  PRO620  LYS621  CYS622 
 ASP623  PHE694  ASN695  SER759  ASP760  ASP761  ALA762  ILE779  LEU786  VAL792 
 PHE793  MET794  SER795  GLU796  ALA797  LYS798  CYS799  TRP800  GLU811  SER814 

> <Gold.Protein.RotatedAtoms>
  150.6933  134.1882  159.4274 H   0  0  0  0  0  0  0  0  0  0  0  0  # atno 6907 bound_to 6896
  151.9854  135.0005  160.0568 H   0  0  0  0  0  0  0  0  0  0  0  0  # atno 6908 bound_to 6896
  152.1717  133.4613  159.4949 H   0  0  0  0  0  0  0  0  0  0  0  0  # atno 6909 bound_to 6896
  145.2697  139.2671  143.3973 H   0  0  0  0  0  0  0  0  0  0  0  0  # atno 7974 bound_to 7965
  156.2434  140.1918  156.6922 H   0  0  0  0  0  0  0  0  0  0  0  0  # atno 8008 bound_to 7997
  154.6243  140.0604  156.9680 H   0  0  0  0  0  0  0  0  0  0  0  0  # atno 8009 bound_to 7997
  155.1812  140.3276  155.4377 H   0  0  0  0  0  0  0  0  0  0  0  0  # atno 8010 bound_to 7997
  139.6715  143.9737  152.2286 H   0  0  0  0  0  0  0  0  0  0  0  0  # atno 10167 bound_to 10162
  157.3775  131.0987  151.0770 H   0  0  0  0  0  0  0  0  0  0  0  0  # atno 10718 bound_to 10713
  154.8707  135.3711  154.4857 H   0  0  0  0  0  0  0  0  0  0  0  0  # atno 10763 bound_to 10752
  153.5507  135.7025  153.5597 H   0  0  0  0  0  0  0  0  0  0  0  0  # atno 10764 bound_to 10752
  153.3717  135.4019  155.1758 H   0  0  0  0  0  0  0  0  0  0  0  0  # atno 10765 bound_to 10752
  140.4449  134.1284  155.7695 H   0  0  0  0  0  0  0  0  0  0  0  0  # atno 11005 bound_to 11000
  146.3250  140.3136  142.8628 LP  0  0  0  0  0  0  0  0  0  0  0  0  # atno 17320 bound_to 7965
  144.9346  140.8012  143.5668 LP  0  0  0  0  0  0  0  0  0  0  0  0  # atno 17321 bound_to 7965
  139.9503  144.6625  150.8178 LP  0  0  0  0  0  0  0  0  0  0  0  0  # atno 17342 bound_to 10162
  140.7619  143.3187  151.2673 LP  0  0  0  0  0  0  0  0  0  0  0  0  # atno 17343 bound_to 10162
  157.1851  130.6327  149.5685 LP  0  0  0  0  0  0  0  0  0  0  0  0  # atno 17370 bound_to 10713
  155.9768  130.4740  150.6554 LP  0  0  0  0  0  0  0  0  0  0  0  0  # atno 17371 bound_to 10713
  141.1689  133.8647  157.1630 LP  0  0  0  0  0  0  0  0  0  0  0  0  # atno 17394 bound_to 11000
  140.0045  135.0014  157.0262 LP  0  0  0  0  0  0  0  0  0  0  0  0  # atno 17395 bound_to 11000

$$$$
