AV-unprocessed.smi:1672|AV-procd|sdf|6702|dock6
  -GOLD-   22720 7443D 1   1.00000     0.00000
 Structure written by MMmdl.
 48 50  0  0  0  0  0  0  0  0  2 V2000
  145.1679  135.1744  150.3692 C   0  0  0  0  0  0  0  0  0  0  0  0
  145.6715  134.9247  151.7977 C   0  0  2  0  0  0  0  0  0  0  0  0
  146.0800  136.2332  152.4953 C   0  0  0  0  0  0  0  0  0  0  0  0
  146.6212  135.9688  153.9108 C   0  0  0  0  0  0  0  0  0  0  0  0
  147.7633  135.0199  153.8793 N   0  3  1  0  0  0  0  0  0  0  0  0
  148.4036  134.8576  155.2102 C   0  0  0  0  0  0  0  0  0  0  0  0
  149.1585  136.1253  155.6548 C   0  0  1  0  0  0  0  0  0  0  0  0
  150.0076  135.7935  156.7366 O   0  0  0  0  0  0  0  0  0  0  0  0
  149.9965  136.7302  154.5114 C   0  0  0  0  0  0  0  0  0  0  0  0
  150.0311  138.1861  154.5597 N   0  0  0  0  0  0  0  0  0  0  0  0
  151.0595  139.0017  154.9073 C   0  0  0  0  0  0  0  0  0  0  0  0
  152.4005  138.4738  155.3151 C   0  0  0  0  0  0  0  0  0  0  0  0
  153.3774  139.4880  155.4093 O   0  0  0  0  0  0  0  0  0  0  0  0
  150.8033  140.3094  154.8608 N   0  0  0  0  0  0  0  0  0  0  0  0
  149.4875  140.3481  154.4431 C   0  0  0  0  0  0  0  0  0  0  0  0
  148.6310  141.4461  154.2021 C   0  0  0  0  0  0  0  0  0  0  0  0
  147.3038  141.2355  153.7739 C   0  0  0  0  0  0  0  0  0  0  0  0
  146.8150  139.9272  153.5799 C   0  0  0  0  0  0  0  0  0  0  0  0
  147.6519  138.8193  153.8139 C   0  0  0  0  0  0  0  0  0  0  0  0
  148.9752  139.0351  154.2429 C   0  0  0  0  0  0  0  0  0  0  0  0
  147.3797  133.7289  153.2482 C   0  0  0  0  0  0  0  0  0  0  0  0
  146.8579  133.9465  151.8181 C   0  0  0  0  0  0  0  0  0  0  0  0
  145.9457  135.6153  149.7447 H   0  0  0  0  0  0  0  0  0  0  0  0
  144.3148  135.8531  150.3661 H   0  0  0  0  0  0  0  0  0  0  0  0
  144.8503  134.2442  149.8972 H   0  0  0  0  0  0  0  0  0  0  0  0
  144.8532  134.4786  152.3648 H   0  0  0  0  0  0  0  0  0  0  0  0
  146.8406  136.7463  151.9050 H   0  0  0  0  0  0  0  0  0  0  0  0
  145.2255  136.9090  152.5509 H   0  0  0  0  0  0  0  0  0  0  0  0
  146.9396  136.9145  154.3512 H   0  0  0  0  0  0  0  0  0  0  0  0
  145.8315  135.5703  154.5498 H   0  0  0  0  0  0  0  0  0  0  0  0
  147.6487  134.6242  155.9629 H   0  0  0  0  0  0  0  0  0  0  0  0
  149.0759  133.9989  155.1811 H   0  0  0  0  0  0  0  0  0  0  0  0
  148.4535  136.8794  156.0022 H   0  0  0  0  0  0  0  0  0  0  0  0
  149.8772  136.4230  157.4296 H   0  0  0  0  0  0  0  0  0  0  0  0
  151.0114  136.3336  154.5230 H   0  0  0  0  0  0  0  0  0  0  0  0
  149.5719  136.4409  153.5492 H   0  0  0  0  0  0  0  0  0  0  0  0
  152.3145  137.9841  156.2858 H   0  0  0  0  0  0  0  0  0  0  0  0
  152.7316  137.7109  154.6111 H   0  0  0  0  0  0  0  0  0  0  0  0
  153.6816  139.6959  154.5395 H   0  0  0  0  0  0  0  0  0  0  0  0
  148.9954  142.4524  154.3472 H   0  0  0  0  0  0  0  0  0  0  0  0
  146.6576  142.0819  153.5928 H   0  0  0  0  0  0  0  0  0  0  0  0
  145.7972  139.7753  153.2514 H   0  0  0  0  0  0  0  0  0  0  0  0
  147.2801  137.8166  153.6658 H   0  0  0  0  0  0  0  0  0  0  0  0
  148.2328  133.0526  153.2118 H   0  0  0  0  0  0  0  0  0  0  0  0
  146.6166  133.2375  153.8540 H   0  0  0  0  0  0  0  0  0  0  0  0
  146.5595  132.9897  151.3880 H   0  0  0  0  0  0  0  0  0  0  0  0
  147.6648  134.3280  151.1907 H   0  0  0  0  0  0  0  0  0  0  0  0
  148.4616  135.4431  153.2839 H   0  0  0  0  0  0  0  0  0  0  0  0
  1  2  1  0  0  0  0
  1 23  1  0  0  0  0
  1 24  1  0  0  0  0
  1 25  1  0  0  0  0
  2 22  1  0  0  0  0
  2  3  1  0  0  0  0
  2 26  1  0  0  0  0
  3  4  1  0  0  0  0
  3 27  1  0  0  0  0
  3 28  1  0  0  0  0
  4  5  1  0  0  0  0
  4 29  1  0  0  0  0
  4 30  1  0  0  0  0
  5  6  1  0  0  0  0
  5 21  1  0  0  0  0
  5 48  1  0  0  0  0
  6  7  1  0  0  0  0
  6 31  1  0  0  0  0
  6 32  1  0  0  0  0
  7  8  1  0  0  0  0
  7  9  1  0  0  0  0
  7 33  1  0  0  0  0
  8 34  1  0  0  0  0
  9 10  1  0  0  0  0
  9 35  1  0  0  0  0
  9 36  1  0  0  0  0
 10 20  1  0  0  0  0
 10 11  1  0  0  0  0
 11 12  1  0  0  0  0
 11 14  2  0  0  0  0
 12 13  1  0  0  0  0
 12 37  1  0  0  0  0
 12 38  1  0  0  0  0
 13 39  1  0  0  0  0
 14 15  1  0  0  0  0
 15 20  2  0  0  0  0
 15 16  1  0  0  0  0
 16 17  2  0  0  0  0
 16 40  1  0  0  0  0
 17 18  1  0  0  0  0
 17 41  1  0  0  0  0
 18 19  2  0  0  0  0
 18 42  1  0  0  0  0
 19 20  1  0  0  0  0
 19 43  1  0  0  0  0
 21 22  1  0  0  0  0
 21 44  1  0  0  0  0
 21 45  1  0  0  0  0
 22 46  1  0  0  0  0
 22 47  1  0  0  0  0
M  CHG  1   5   1
M  END
> <s_m_source_file>
AV-unprocessed.smi

> <i_m_source_file_index>
1672

> <i_lp_mmshare_version>
43012

> <i_f3d_flags>
0

> <s_epik_input>
W0NIM11bQ0hdMVtDSDJdW0NIMl1OKFtDSDJdW0NIMl0xKVtDSDJdW0NASF0oW09IXSlbQ0gyXW4oYyhuMilbQ0gyXVtPSF0pYyhjMjMpW2NIXVtjSF1bY0hdW2NIXTM=

> <s_epik_cmdline>
J2VwaWtfcHl0aG9uJywgJy1waCcsICc3LjAnLCAnLXRuJywgJzgnLCAnLW1hJywgJzIwMCcsICctbWV0YWxfYmluZGluZycsICctaW1hZScsICc8aW5maWxlLm1hZT4nLCAnLW9tYWUnLCAnPG91dGZpbGUubWFlPic=

> <r_epik_Ionization_Penalty>
0.0498263

> <r_epik_Ionization_Penalty_Charging>
0.00181365

> <r_epik_Ionization_Penalty_Neutral>
0.0480127

> <r_epik_State_Penalty>
0.0408546

> <r_epik_Charging_Adjusted_Penalty>
0.0426682

> <i_epik_Tot_Q>
1

> <i_epik_Tot_abs_Q>
1

> <r_epik_Metal_State_Penalty>
4.22946e-05

> <b_epik_Metal_Only>
0

> <s_lp_Force_Field>
OPLS_2005

> <r_lp_Energy>
23.0912

> <b_lp_Chiralities_Consistent>
1

> <s_lp_Variant>
AV-unprocessed.smi:1672-2

> <Gold.Version>
5.8.1

> <Gold.Id.Protein>
6NUR|6NUR_protein|mol2

> <Gold.PLP.Fitness>
44.5381

> <Gold.PLP.PLP>
-34.2920

> <Gold.PLP.part.hbond>
-2.9820

> <Gold.PLP.part.metal>
0.0000

> <Gold.PLP.part.buried>
1.0148

> <Gold.PLP.part.nonpolar>
-31.9014

> <Gold.PLP.part.repulsive>
0.0789

> <Gold.PLP.ligand.clash>
0.0000

> <Gold.PLP.ligand.torsion>
0.9098

> <Gold.PLP.Chemscore.Hbond>
4.0000

> <Gold.PLP.Chemscore.CHOScore>
0.0000

> <Gold.PLP.Chemscore.Metal>
0.0000

> <Gold.Chemscore.Hbonds>
donor molecule, donor type, donor heavy atom, donor atom, acceptor molecule, acceptor atom, score
      L1  H     5    48       P1  7948  2.00
      P1  H  7989  7998       L1    14  1.00
      P1  H  7997  8009       L1    13  0.26

> <Gold.PLP.Chemscore.Internal.Correction>
0.0657

> <Gold.Rescore>
     Score         DG    S(hbond)    S(metal)    S(lipo)     H(rot)  DE(clash)    DE(int)     intcor
     13.64     -16.08       2.50        0.00      82.15       2.88       1.42       1.02       ----

> <Gold.Chemscore.Fitness>
13.6435

> <Gold.Chemscore.DG>
-16.0824

> <Gold.Chemscore.ZeroCoef>
-5.4800

> <Gold.Chemscore.Hbond>
2.5024

> <Gold.Chemscore.Metal>
0.0000

> <Gold.Chemscore.Lipo>
82.1475

> <Gold.Chemscore.Internal_Hbond>
0.0000

> <Gold.Chemscore.DEClash>
1.4193

> <Gold.Chemscore.DEInternal>
1.0196

> <Gold.Chemscore.Rot>
2.8778

> <Gold.Chemscore.Internal.Correction>
   9.000000E+99

> <Gold.Chemscore.Hbonds>
donor molecule, donor type, donor heavy atom, donor atom, acceptor molecule, acceptor atom, score
      L1  H     5    48       P1  7948  0.95
      P1  H  7989  7998       L1    14  0.17
      P1  H  7997  8009       L1    13  0.01

> <Gold.Chemscore.Hbond.Weighted>
-8.3582

> <Gold.Chemscore.Metal.Weighted>
-0.0000

> <Gold.Chemscore.Lipo.Weighted>
-9.6113

> <Gold.Chemscore.Internal_Hbond.Weighted>
0.0000

> <Gold.Chemscore.DEClash.Weighted>
1.4193

> <Gold.Chemscore.DEInternal.Weighted>
1.0196

> <Gold.Chemscore.Rot.Weighted>
7.3671

> <Gold.Chemscore.Internal.Correction.Weighted>
   9.000000E+99

> <Gold.Protein.RotatedTorsions>
[ 6907 6896 6895 6894 ] final   38.35 input  -60.11 | X-H torsion
[ 7974 7965 7964 7962 ] final  -22.89 input  175.53 | X-H torsion
[ 8008 7997 7996 7995 ] final -138.27 input   59.86 | X-H torsion
[ 10167 10162 10161 10158 ] final -107.13 input  -65.29 | X-H torsion
[ 10718 10713 10712 10709 ] final  -38.71 input   66.30 | X-H torsion
[ 10763 10752 10751 10750 ] final  -32.22 input  -60.55 | X-H torsion
[ 11005 11000 10999 10996 ] final   88.57 input  -57.11 | X-H torsion

> <Gold.Protein.ActiveResidues>
 VAL166  LYS551  ARG553  GLY616  TRP617  ASP618  TYR619  PRO620  LYS621  CYS622 
 ASP623  PHE694  ASN695  SER759  ASP760  ASP761  ALA762  ILE779  LEU786  VAL792 
 PHE793  MET794  SER795  GLU796  ALA797  LYS798  CYS799  TRP800  GLU811  SER814 

> <Gold.Protein.RotatedAtoms>
  152.1553  134.8955  160.0545 H   0  0  0  0  0  0  0  0  0  0  0  0  # atno 6907 bound_to 6896
  151.9972  133.3807  159.4175 H   0  0  0  0  0  0  0  0  0  0  0  0  # atno 6908 bound_to 6896
  150.6880  134.3795  159.5072 H   0  0  0  0  0  0  0  0  0  0  0  0  # atno 6909 bound_to 6896
  146.1649  140.4541  142.8556 H   0  0  0  0  0  0  0  0  0  0  0  0  # atno 7974 bound_to 7965
  155.4255  140.0521  157.3022 H   0  0  0  0  0  0  0  0  0  0  0  0  # atno 8008 bound_to 7997
  154.4883  140.2110  155.9564 H   0  0  0  0  0  0  0  0  0  0  0  0  # atno 8009 bound_to 7997
  156.1306  140.3172  155.8349 H   0  0  0  0  0  0  0  0  0  0  0  0  # atno 8010 bound_to 7997
  140.1802  143.3972  152.1287 H   0  0  0  0  0  0  0  0  0  0  0  0  # atno 10167 bound_to 10162
  156.3006  130.4239  149.8147 H   0  0  0  0  0  0  0  0  0  0  0  0  # atno 10718 bound_to 10713
  153.8102  135.6883  153.4842 H   0  0  0  0  0  0  0  0  0  0  0  0  # atno 10763 bound_to 10752
  153.1633  135.4571  154.9800 H   0  0  0  0  0  0  0  0  0  0  0  0  # atno 10764 bound_to 10752
  154.7970  135.3323  154.7583 H   0  0  0  0  0  0  0  0  0  0  0  0  # atno 10765 bound_to 10752
  139.8894  134.8496  156.3019 H   0  0  0  0  0  0  0  0  0  0  0  0  # atno 11005 bound_to 11000
  144.8078  140.6331  143.6435 LP  0  0  0  0  0  0  0  0  0  0  0  0  # atno 17320 bound_to 7965
  145.4493  139.1525  143.3927 LP  0  0  0  0  0  0  0  0  0  0  0  0  # atno 17321 bound_to 7965
  139.5299  144.7147  151.5093 LP  0  0  0  0  0  0  0  0  0  0  0  0  # atno 17342 bound_to 10162
  140.6524  143.8669  150.6800 LP  0  0  0  0  0  0  0  0  0  0  0  0  # atno 17343 bound_to 10162
  156.5526  130.8348  151.3304 LP  0  0  0  0  0  0  0  0  0  0  0  0  # atno 17370 bound_to 10713
  157.7367  130.9783  150.2150 LP  0  0  0  0  0  0  0  0  0  0  0  0  # atno 17371 bound_to 10713
  140.9908  133.7210  156.0811 LP  0  0  0  0  0  0  0  0  0  0  0  0  # atno 17394 bound_to 11000
  140.7628  134.3920  157.5522 LP  0  0  0  0  0  0  0  0  0  0  0  0  # atno 17395 bound_to 11000

$$$$
