AV-unprocessed.smi:3237|AV-procd|sdf|12374|dock8
  -GOLD-   2272018233D 1   1.00000     0.00000
 Structure written by MMmdl.
 36 38  0  0  0  0  0  0  0  0  3 V2000
  147.2470  141.1427  153.2776 C   0  0  0  0  0  0  0  0  0  0  0  0
  148.3689  140.6462  154.1233 C   0  0  0  0  0  0  0  0  0  0  0  0
  149.2273  141.2659  154.9870 C   0  0  0  0  0  0  0  0  0  0  0  0
  150.0441  140.1997  155.4490 C   0  0  0  0  0  0  0  0  0  0  0  0
  151.0851  140.4388  156.3849 N   0  0  0  0  0  0  0  0  0  0  0  0
  151.9288  139.5568  156.9516 C   0  0  0  0  0  0  0  0  0  0  0  0
  151.8601  138.3556  156.6664 O   0  0  0  0  0  0  0  0  0  0  0  0
  152.7942  140.1551  157.8162 N   0  5  0  0  0  0  0  0  0  0  0  0
  152.4054  140.8742  159.0308 C   0  0  1  0  0  0  0  0  0  0  0  0
  153.6166  141.2095  159.9021 C   0  0  0  0  0  0  0  0  0  0  0  0
  153.1959  142.4723  160.6676 C   0  0  0  0  0  0  0  0  0  0  0  0
  152.0142  143.0236  159.9632 N   0  3  1  0  0  0  0  0  0  0  0  0
  152.0427  144.4908  159.7805 C   0  0  0  0  0  0  0  0  0  0  0  0
  151.0938  144.9824  158.7138 C   0  0  0  0  0  0  0  0  0  0  0  0
  152.5807  144.9235  158.4377 C   0  0  0  0  0  0  0  0  0  0  0  0
  151.8467  142.2595  158.7114 C   0  0  0  0  0  0  0  0  0  0  0  0
  149.7125  139.0337  154.9144 N   0  0  0  0  0  0  0  0  0  0  0  0
  148.6380  139.3141  154.0620 O   0  0  0  0  0  0  0  0  0  0  0  0
  147.0587  142.2005  153.4618 H   0  0  0  0  0  0  0  0  0  0  0  0
  146.3294  140.5943  153.4912 H   0  0  0  0  0  0  0  0  0  0  0  0
  147.4773  141.0194  152.2194 H   0  0  0  0  0  0  0  0  0  0  0  0
  149.2634  142.3136  155.2460 H   0  0  0  0  0  0  0  0  0  0  0  0
  151.2050  141.4006  156.6656 H   0  0  0  0  0  0  0  0  0  0  0  0
  151.6752  140.3411  159.6421 H   0  0  0  0  0  0  0  0  0  0  0  0
  153.8922  140.3897  160.5662 H   0  0  0  0  0  0  0  0  0  0  0  0
  154.4850  141.4389  159.2817 H   0  0  0  0  0  0  0  0  0  0  0  0
  152.9168  142.2422  161.6970 H   0  0  0  0  0  0  0  0  0  0  0  0
  154.0182  143.1888  160.7049 H   0  0  0  0  0  0  0  0  0  0  0  0
  152.2308  145.0875  160.6715 H   0  0  0  0  0  0  0  0  0  0  0  0
  150.4598  144.2532  158.2122 H   0  0  0  0  0  0  0  0  0  0  0  0
  150.6507  145.9666  158.8517 H   0  0  0  0  0  0  0  0  0  0  0  0
  153.1159  145.8699  158.3914 H   0  0  0  0  0  0  0  0  0  0  0  0
  152.9359  144.1546  157.7538 H   0  0  0  0  0  0  0  0  0  0  0  0
  152.4259  142.7331  157.9157 H   0  0  0  0  0  0  0  0  0  0  0  0
  150.8028  142.2285  158.3979 H   0  0  0  0  0  0  0  0  0  0  0  0
  151.2145  142.7988  160.5374 H   0  0  0  0  0  0  0  0  0  0  0  0
  1  2  1  0  0  0  0
  1 19  1  0  0  0  0
  1 20  1  0  0  0  0
  1 21  1  0  0  0  0
  2 18  1  0  0  0  0
  2  3  2  0  0  0  0
  3  4  1  0  0  0  0
  3 22  1  0  0  0  0
  4  5  1  0  0  0  0
  4 17  2  0  0  0  0
  5  6  1  0  0  0  0
  5 23  1  0  0  0  0
  6  7  2  0  0  0  0
  6  8  1  0  0  0  0
  8  9  1  0  0  0  0
  9 16  1  0  0  0  0
  9 10  1  0  0  0  0
  9 24  1  0  0  0  0
 10 11  1  0  0  0  0
 10 25  1  0  0  0  0
 10 26  1  0  0  0  0
 11 12  1  0  0  0  0
 11 27  1  0  0  0  0
 11 28  1  0  0  0  0
 12 13  1  0  0  0  0
 12 16  1  0  0  0  0
 12 36  1  0  0  0  0
 13 15  1  0  0  0  0
 13 14  1  0  0  0  0
 13 29  1  0  0  0  0
 14 15  1  0  0  0  0
 14 30  1  0  0  0  0
 14 31  1  0  0  0  0
 15 32  1  0  0  0  0
 15 33  1  0  0  0  0
 16 34  1  0  0  0  0
 16 35  1  0  0  0  0
 17 18  1  0  0  0  0
M  CHG  1   8  -1
M  CHG  1  12   1
M  END
> <s_m_source_file>
AV-unprocessed.smi

> <i_m_source_file_index>
3237

> <i_lp_mmshare_version>
43012

> <i_f3d_flags>
0

> <s_epik_input>
W0NIM11jMVtjSF1jKG5vMSlbTkhdQyg9TylbTkhdW0NAQEhdMltDSDJdW0NIMl1OKFtDSDJdMilbQ0hdM1tDSDJdW0NIMl0z

> <s_epik_cmdline>
J2VwaWtfcHl0aG9uJywgJy1waCcsICc3LjAnLCAnLXRuJywgJzgnLCAnLW1hJywgJzIwMCcsICctbWV0YWxfYmluZGluZycsICctaW1hZScsICc8aW5maWxlLm1hZT4nLCAnLW9tYWUnLCAnPG91dGZpbGUubWFlPic=

> <r_epik_Ionization_Penalty>
6.76456

> <r_epik_Ionization_Penalty_Charging>
6.76456

> <r_epik_Ionization_Penalty_Neutral>
5.76722e-06

> <r_epik_State_Penalty>
6.78919

> <r_epik_Charging_Adjusted_Penalty>
13.5538

> <i_epik_Tot_Q>
0

> <i_epik_Tot_abs_Q>
2

> <r_epik_Metal_State_Penalty>
2.728

> <b_epik_Metal_Only>
1

> <s_lp_Force_Field>
OPLS_2005

> <r_lp_Energy>
31.1689

> <b_lp_Chiralities_Consistent>
1

> <s_lp_Variant>
AV-unprocessed.smi:3237-12

> <Gold.Version>
5.8.1

> <Gold.Id.Protein>
6NUR|6NUR_protein|mol2

> <Gold.PLP.Fitness>
42.0735

> <Gold.PLP.PLP>
-37.5403

> <Gold.PLP.part.hbond>
-1.0000

> <Gold.PLP.part.metal>
0.0000

> <Gold.PLP.part.buried>
-5.9485

> <Gold.PLP.part.nonpolar>
-31.1785

> <Gold.PLP.part.repulsive>
0.6031

> <Gold.PLP.ligand.clash>
0.0000

> <Gold.PLP.ligand.torsion>
1.3765

> <Gold.PLP.Chemscore.Hbond>
2.0000

> <Gold.PLP.Chemscore.CHOScore>
0.0000

> <Gold.PLP.Chemscore.Metal>
0.0000

> <Gold.Chemscore.Hbonds>
donor molecule, donor type, donor heavy atom, donor atom, acceptor molecule, acceptor atom, score
      P1  H  7997  8008       L1     8  2.00

> <Gold.PLP.Chemscore.Internal.Correction>
1.2861

> <Gold.Rescore>
     Score         DG    S(hbond)    S(metal)    S(lipo)     H(rot)  DE(clash)    DE(int)     intcor
     13.48     -16.87       0.84        0.00     100.72       1.25       0.01       3.39       ----

> <Gold.Chemscore.Fitness>
13.4817

> <Gold.Chemscore.DG>
-16.8727

> <Gold.Chemscore.ZeroCoef>
-5.4800

> <Gold.Chemscore.Hbond>
0.8383

> <Gold.Chemscore.Metal>
0.0000

> <Gold.Chemscore.Lipo>
100.7160

> <Gold.Chemscore.Internal_Hbond>
0.0000

> <Gold.Chemscore.DEClash>
0.0052

> <Gold.Chemscore.DEInternal>
3.3857

> <Gold.Chemscore.Rot>
1.2464

> <Gold.Chemscore.Internal.Correction>
   9.000000E+99

> <Gold.Chemscore.Hbonds>
donor molecule, donor type, donor heavy atom, donor atom, acceptor molecule, acceptor atom, score
      P1  H  7997  8008       L1     8  0.28

> <Gold.Chemscore.Hbond.Weighted>
-2.7998

> <Gold.Chemscore.Metal.Weighted>
-0.0000

> <Gold.Chemscore.Lipo.Weighted>
-11.7838

> <Gold.Chemscore.Internal_Hbond.Weighted>
0.0000

> <Gold.Chemscore.DEClash.Weighted>
0.0052

> <Gold.Chemscore.DEInternal.Weighted>
3.3857

> <Gold.Chemscore.Rot.Weighted>
3.1909

> <Gold.Chemscore.Internal.Correction.Weighted>
   9.000000E+99

> <Gold.Protein.RotatedTorsions>
[ 6907 6896 6895 6894 ] final   83.84 input  -60.11 | X-H torsion
[ 7974 7965 7964 7962 ] final  -92.38 input  175.53 | X-H torsion
[ 8008 7997 7996 7995 ] final  -70.03 input   59.86 | X-H torsion
[ 10167 10162 10161 10158 ] final  -54.14 input  -65.29 | X-H torsion
[ 10718 10713 10712 10709 ] final  -44.27 input   66.30 | X-H torsion
[ 10763 10752 10751 10750 ] final   71.41 input  -60.55 | X-H torsion
[ 11005 11000 10999 10996 ] final    3.64 input  -57.11 | X-H torsion

> <Gold.Protein.ActiveResidues>
 VAL166  LYS551  ARG553  GLY616  TRP617  ASP618  TYR619  PRO620  LYS621  CYS622 
 ASP623  PHE694  ASN695  SER759  ASP760  ASP761  ALA762  ILE779  LEU786  VAL792 
 PHE793  MET794  SER795  GLU796  ALA797  LYS798  CYS799  TRP800  GLU811  SER814 

> <Gold.Protein.RotatedAtoms>
  152.5337  134.2833  159.9015 H   0  0  0  0  0  0  0  0  0  0  0  0  # atno 6907 bound_to 6896
  151.2787  133.4213  159.2633 H   0  0  0  0  0  0  0  0  0  0  0  0  # atno 6908 bound_to 6896
  151.0303  134.9550  159.8164 H   0  0  0  0  0  0  0  0  0  0  0  0  # atno 6909 bound_to 6896
  145.4006  140.9537  143.2289 H   0  0  0  0  0  0  0  0  0  0  0  0  # atno 7974 bound_to 7965
  154.4981  140.0842  156.7741 H   0  0  0  0  0  0  0  0  0  0  0  0  # atno 8008 bound_to 7997
  155.4067  140.3439  155.4242 H   0  0  0  0  0  0  0  0  0  0  0  0  # atno 8009 bound_to 7997
  156.1421  140.1532  156.8892 H   0  0  0  0  0  0  0  0  0  0  0  0  # atno 8010 bound_to 7997
  140.6447  143.2528  151.4893 H   0  0  0  0  0  0  0  0  0  0  0  0  # atno 10167 bound_to 10162
  156.2403  130.4179  149.8768 H   0  0  0  0  0  0  0  0  0  0  0  0  # atno 10718 bound_to 10713
  153.0397  135.5138  154.7589 H   0  0  0  0  0  0  0  0  0  0  0  0  # atno 10763 bound_to 10752
  154.6536  135.2928  154.9957 H   0  0  0  0  0  0  0  0  0  0  0  0  # atno 10764 bound_to 10752
  154.0833  135.6661  153.4893 H   0  0  0  0  0  0  0  0  0  0  0  0  # atno 10765 bound_to 10752
  140.5909  133.9925  155.8088 H   0  0  0  0  0  0  0  0  0  0  0  0  # atno 11005 bound_to 11000
  144.8376  139.5524  143.6915 LP  0  0  0  0  0  0  0  0  0  0  0  0  # atno 17320 bound_to 7965
  146.2753  139.6738  142.9267 LP  0  0  0  0  0  0  0  0  0  0  0  0  # atno 17321 bound_to 7965
  139.5657  144.2049  152.1761 LP  0  0  0  0  0  0  0  0  0  0  0  0  # atno 17342 bound_to 10162
  140.1330  144.5271  150.6791 LP  0  0  0  0  0  0  0  0  0  0  0  0  # atno 17343 bound_to 10162
  156.6352  130.8682  151.3503 LP  0  0  0  0  0  0  0  0  0  0  0  0  # atno 17370 bound_to 10713
  157.7172  130.9512  150.1301 LP  0  0  0  0  0  0  0  0  0  0  0  0  # atno 17371 bound_to 10713
  141.0935  133.9879  157.3198 LP  0  0  0  0  0  0  0  0  0  0  0  0  # atno 17394 bound_to 11000
  139.9274  135.0201  156.8284 LP  0  0  0  0  0  0  0  0  0  0  0  0  # atno 17395 bound_to 11000

$$$$
