AV-unprocessed.smi:2021|AV-procd|sdf|8184|dock3
  -GOLD-   2272010433D 1   1.00000     0.00000
 Structure written by MMmdl.
 41 42  0  0  0  0  0  0  0  0  3 V2000
  152.7217  144.4352  158.3123 C   0  0  0  0  0  0  0  0  0  0  0  0
  151.3157  144.0627  158.8123 C   0  0  0  0  0  0  0  0  0  0  0  0
  150.8317  145.0803  159.8561 C   0  0  0  0  0  0  0  0  0  0  0  0
  151.2700  142.6316  159.3903 C   0  0  0  0  0  0  0  0  0  0  0  0
  151.5172  141.5800  158.3708 N   0  3  2  0  0  0  0  0  0  0  0  0
  150.7447  141.7685  157.1181 C   0  0  0  0  0  0  0  0  0  0  0  0
  151.0823  140.6594  156.1082 C   0  0  0  0  0  0  0  0  0  0  0  0
  150.8316  139.3890  156.6945 O   0  0  0  0  0  0  0  0  0  0  0  0
  151.6424  139.1537  157.8416 C   0  0  2  0  0  0  0  0  0  0  0  0
  151.3704  137.7316  158.3494 C   0  0  0  0  0  0  0  0  0  0  0  0
  150.0686  137.6559  158.9976 N   0  0  0  0  0  0  0  0  0  0  0  0
  149.1913  136.6567  158.8423 C   0  0  0  0  0  0  0  0  0  0  0  0
  149.4695  135.7053  158.1087 O   0  0  0  0  0  0  0  0  0  0  0  0
  148.0484  136.8222  159.5452 N   0  5  0  0  0  0  0  0  0  0  0  0
  147.2798  135.7588  159.8341 C   0  0  0  0  0  0  0  0  0  0  0  0
  147.4091  134.5843  159.1961 N   0  0  0  0  0  0  0  0  0  0  0  0
  146.5196  133.6179  159.6458 N   0  0  0  0  0  0  0  0  0  0  0  0
  145.7319  134.0937  160.6102 C   0  0  0  0  0  0  0  0  0  0  0  0
  146.0022  135.7660  161.0536 S   0  0  0  0  0  0  0  0  0  0  0  0
  151.3045  140.2146  158.9066 C   0  0  0  0  0  0  0  0  0  0  0  0
  153.4560  144.3815  159.1166 H   0  0  0  0  0  0  0  0  0  0  0  0
  152.7396  145.4508  157.9153 H   0  0  0  0  0  0  0  0  0  0  0  0
  153.0519  143.7702  157.5140 H   0  0  0  0  0  0  0  0  0  0  0  0
  150.6297  144.1307  157.9683 H   0  0  0  0  0  0  0  0  0  0  0  0
  151.4774  145.0859  160.7352 H   0  0  0  0  0  0  0  0  0  0  0  0
  149.8187  144.8518  160.1890 H   0  0  0  0  0  0  0  0  0  0  0  0
  150.8203  146.0907  159.4460 H   0  0  0  0  0  0  0  0  0  0  0  0
  152.0244  142.5574  160.1753 H   0  0  0  0  0  0  0  0  0  0  0  0
  150.3105  142.4419  159.8742 H   0  0  0  0  0  0  0  0  0  0  0  0
  149.6765  141.7548  157.3401 H   0  0  0  0  0  0  0  0  0  0  0  0
  150.9661  142.7373  156.6719 H   0  0  0  0  0  0  0  0  0  0  0  0
  150.4652  140.7639  155.2156 H   0  0  0  0  0  0  0  0  0  0  0  0
  152.1227  140.7273  155.7860 H   0  0  0  0  0  0  0  0  0  0  0  0
  152.6963  139.2370  157.5677 H   0  0  0  0  0  0  0  0  0  0  0  0
  151.3890  137.0309  157.5130 H   0  0  0  0  0  0  0  0  0  0  0  0
  152.1480  137.4207  159.0488 H   0  0  0  0  0  0  0  0  0  0  0  0
  149.8098  138.4155  159.6101 H   0  0  0  0  0  0  0  0  0  0  0  0
  144.9855  133.4572  161.0610 H   0  0  0  0  0  0  0  0  0  0  0  0
  151.9345  140.0635  159.7843 H   0  0  0  0  0  0  0  0  0  0  0  0
  150.2684  140.1077  159.2328 H   0  0  0  0  0  0  0  0  0  0  0  0
  152.4961  141.6378  158.1284 H   0  0  0  0  0  0  0  0  0  0  0  0
  1  2  1  0  0  0  0
  1 21  1  0  0  0  0
  1 22  1  0  0  0  0
  1 23  1  0  0  0  0
  2  3  1  0  0  0  0
  2  4  1  0  0  0  0
  2 24  1  0  0  0  0
  3 25  1  0  0  0  0
  3 26  1  0  0  0  0
  3 27  1  0  0  0  0
  4  5  1  0  0  0  0
  4 28  1  0  0  0  0
  4 29  1  0  0  0  0
  5 20  1  0  0  0  0
  5  6  1  0  0  0  0
  5 41  1  0  0  0  0
  6  7  1  0  0  0  0
  6 30  1  0  0  0  0
  6 31  1  0  0  0  0
  7  8  1  0  0  0  0
  7 32  1  0  0  0  0
  7 33  1  0  0  0  0
  8  9  1  0  0  0  0
  9 10  1  0  0  0  0
  9 20  1  0  0  0  0
  9 34  1  0  0  0  0
 10 11  1  0  0  0  0
 10 35  1  0  0  0  0
 10 36  1  0  0  0  0
 11 12  1  0  0  0  0
 11 37  1  0  0  0  0
 12 13  2  0  0  0  0
 12 14  1  0  0  0  0
 14 15  1  0  0  0  0
 15 19  1  0  0  0  0
 15 16  2  0  0  0  0
 16 17  1  0  0  0  0
 17 18  2  0  0  0  0
 18 19  1  0  0  0  0
 18 38  1  0  0  0  0
 20 39  1  0  0  0  0
 20 40  1  0  0  0  0
M  CHG  1   5   1
M  CHG  1  14  -1
M  END
> <s_m_source_file>
AV-unprocessed.smi

> <i_m_source_file_index>
2021

> <i_lp_mmshare_version>
43012

> <i_f3d_flags>
0

> <s_epik_input>
W0NIM11bQ0hdKFtDSDNdKVtDSDJdTjFbQ0gyXVtDSDJdT1tDQEhdKFtDSDJdMSlbQ0gyXVtOSF1DKD1PKVtOSF1jMm5uW2NIXXMy

> <s_epik_cmdline>
J2VwaWtfcHl0aG9uJywgJy1waCcsICc3LjAnLCAnLXRuJywgJzgnLCAnLW1hJywgJzIwMCcsICctbWV0YWxfYmluZGluZycsICctaW1hZScsICc8aW5maWxlLm1hZT4nLCAnLW9tYWUnLCAnPG91dGZpbGUubWFlPic=

> <r_lp_tautomer_probability>
1

> <r_epik_Ionization_Penalty>
3.15762

> <r_epik_Ionization_Penalty_Charging>
3.12229

> <r_epik_Ionization_Penalty_Neutral>
0.0353298

> <r_epik_State_Penalty>
3.11266

> <r_epik_Charging_Adjusted_Penalty>
6.23495

> <i_epik_Tot_Q>
0

> <i_epik_Tot_abs_Q>
2

> <r_epik_Metal_State_Penalty>
0.541462

> <b_epik_Metal_Only>
1

> <s_lp_Force_Field>
OPLS_2005

> <r_lp_Energy>
10.6965

> <b_lp_Chiralities_Consistent>
1

> <s_lp_Variant>
AV-unprocessed.smi:2021-10

> <Gold.Version>
5.8.1

> <Gold.Id.Protein>
6NUR|6NUR_protein|mol2

> <Gold.PLP.Fitness>
47.7629

> <Gold.PLP.PLP>
-41.0519

> <Gold.PLP.part.hbond>
-2.3866

> <Gold.PLP.part.metal>
0.0000

> <Gold.PLP.part.buried>
-7.1656

> <Gold.PLP.part.nonpolar>
-34.1057

> <Gold.PLP.part.repulsive>
0.6861

> <Gold.PLP.ligand.clash>
0.0000

> <Gold.PLP.ligand.torsion>
0.4503

> <Gold.PLP.Chemscore.Hbond>
2.4728

> <Gold.PLP.Chemscore.CHOScore>
0.0000

> <Gold.PLP.Chemscore.Metal>
0.0000

> <Gold.Chemscore.Hbonds>
donor molecule, donor type, donor heavy atom, donor atom, acceptor molecule, acceptor atom, score
      P1  H  6896  6908       L1    13  0.55

> <Gold.PLP.Chemscore.Internal.Correction>
0.1931

> <Gold.Rescore>
     Score         DG    S(hbond)    S(metal)    S(lipo)     H(rot)  DE(clash)    DE(int)     intcor
     13.64     -17.21       1.75        0.00      90.76       1.85       0.99       2.58       ----

> <Gold.Chemscore.Fitness>
13.6381

> <Gold.Chemscore.DG>
-17.2102

> <Gold.Chemscore.ZeroCoef>
-5.4800

> <Gold.Chemscore.Hbond>
1.7480

> <Gold.Chemscore.Metal>
0.0000

> <Gold.Chemscore.Lipo>
90.7605

> <Gold.Chemscore.Internal_Hbond>
0.0000

> <Gold.Chemscore.DEClash>
0.9928

> <Gold.Chemscore.DEInternal>
2.5793

> <Gold.Chemscore.Rot>
1.8466

> <Gold.Chemscore.Internal.Correction>
   9.000000E+99

> <Gold.Chemscore.Hbonds>
donor molecule, donor type, donor heavy atom, donor atom, acceptor molecule, acceptor atom, score
      P1  H  6896  6908       L1    13  0.18

> <Gold.Chemscore.Hbond.Weighted>
-5.8385

> <Gold.Chemscore.Metal.Weighted>
-0.0000

> <Gold.Chemscore.Lipo.Weighted>
-10.6190

> <Gold.Chemscore.Internal_Hbond.Weighted>
0.0000

> <Gold.Chemscore.DEClash.Weighted>
0.9928

> <Gold.Chemscore.DEInternal.Weighted>
2.5793

> <Gold.Chemscore.Rot.Weighted>
4.7272

> <Gold.Chemscore.Internal.Correction.Weighted>
   9.000000E+99

> <Gold.Protein.RotatedTorsions>
[ 6907 6896 6895 6894 ] final  157.74 input  -60.11 | X-H torsion
[ 7974 7965 7964 7962 ] final  -18.58 input  175.53 | X-H torsion
[ 8008 7997 7996 7995 ] final -164.06 input   59.86 | X-H torsion
[ 10167 10162 10161 10158 ] final  -87.24 input  -65.29 | X-H torsion
[ 10718 10713 10712 10709 ] final   44.68 input   66.30 | X-H torsion
[ 10763 10752 10751 10750 ] final  -52.91 input  -60.55 | X-H torsion
[ 11005 11000 10999 10996 ] final  -23.42 input  -57.11 | X-H torsion

> <Gold.Protein.ActiveResidues>
 VAL166  LYS551  ARG553  GLY616  TRP617  ASP618  TYR619  PRO620  LYS621  CYS622 
 ASP623  PHE694  ASN695  SER759  ASP760  ASP761  ALA762  ILE779  LEU786  VAL792 
 PHE793  MET794  SER795  GLU796  ALA797  LYS798  CYS799  TRP800  GLU811  SER814 

> <Gold.Protein.RotatedAtoms>
  152.0107  133.3860  159.4218 H   0  0  0  0  0  0  0  0  0  0  0  0  # atno 6907 bound_to 6896
  150.6900  134.3733  159.5011 H   0  0  0  0  0  0  0  0  0  0  0  0  # atno 6908 bound_to 6896
  152.1494  134.9000  160.0599 H   0  0  0  0  0  0  0  0  0  0  0  0  # atno 6909 bound_to 6896
  146.1885  140.3941  142.8467 H   0  0  0  0  0  0  0  0  0  0  0  0  # atno 7974 bound_to 7965
  155.8302  140.0932  157.1797 H   0  0  0  0  0  0  0  0  0  0  0  0  # atno 8008 bound_to 7997
  154.3980  140.1420  156.3665 H   0  0  0  0  0  0  0  0  0  0  0  0  # atno 8009 bound_to 7997
  155.8174  140.3447  155.5496 H   0  0  0  0  0  0  0  0  0  0  0  0  # atno 8010 bound_to 7997
  140.3863  143.2725  151.9320 H   0  0  0  0  0  0  0  0  0  0  0  0  # atno 10167 bound_to 10162
  157.4294  130.8016  149.7589 H   0  0  0  0  0  0  0  0  0  0  0  0  # atno 10718 bound_to 10713
  154.1504  135.6491  153.4962 H   0  0  0  0  0  0  0  0  0  0  0  0  # atno 10763 bound_to 10752
  153.0139  135.5337  154.6814 H   0  0  0  0  0  0  0  0  0  0  0  0  # atno 10764 bound_to 10752
  154.6100  135.2953  155.0414 H   0  0  0  0  0  0  0  0  0  0  0  0  # atno 10765 bound_to 10752
  140.8750  133.7694  156.0232 H   0  0  0  0  0  0  0  0  0  0  0  0  # atno 11005 bound_to 11000
  144.8441  140.6903  143.6210 LP  0  0  0  0  0  0  0  0  0  0  0  0  # atno 17320 bound_to 7965
  145.3866  139.1625  143.4252 LP  0  0  0  0  0  0  0  0  0  0  0  0  # atno 17321 bound_to 7965
  139.4792  144.5770  151.7995 LP  0  0  0  0  0  0  0  0  0  0  0  0  # atno 17342 bound_to 10162
  140.4885  144.1345  150.5945 LP  0  0  0  0  0  0  0  0  0  0  0  0  # atno 17343 bound_to 10162
  155.9908  130.3942  150.3013 LP  0  0  0  0  0  0  0  0  0  0  0  0  # atno 17370 bound_to 10713
  157.1168  131.0236  151.3025 LP  0  0  0  0  0  0  0  0  0  0  0  0  # atno 17371 bound_to 10713
  140.8529  134.2933  157.5268 LP  0  0  0  0  0  0  0  0  0  0  0  0  # atno 17394 bound_to 11000
  139.8715  134.9477  156.3975 LP  0  0  0  0  0  0  0  0  0  0  0  0  # atno 17395 bound_to 11000

$$$$
