AV-unprocessed.smi:1643|AV-procd|sdf|6582|dock1
  -GOLD-   22720 7273D 1   1.00000     0.00000
 Structure written by MMmdl.
 54 56  0  0  0  0  0  0  0  0  2 V2000
  147.6875  133.3887  151.7827 C   0  0  0  0  0  0  0  0  0  0  0  0
  146.7554  133.8618  152.9012 C   0  0  0  0  0  0  0  0  0  0  0  0
  145.6665  134.3433  152.5873 O   0  0  0  0  0  0  0  0  0  0  0  0
  147.1572  133.7409  154.1892 N   0  0  0  0  0  0  0  0  0  0  0  0
  146.3448  134.2243  155.3113 C   0  0  0  0  0  0  0  0  0  0  0  0
  146.7162  135.6756  155.6559 C   0  0  0  0  0  0  0  0  0  0  0  0
  148.2115  135.9023  155.9638 C   0  0  0  0  0  0  0  0  0  0  0  0
  149.0902  135.7380  154.7967 N   0  0  0  0  0  0  0  0  0  0  0  0
  150.2500  136.6319  154.8377 C   0  0  0  0  0  0  0  0  0  0  0  0
  149.9165  138.1372  154.8043 C   0  0  2  0  0  0  0  0  0  0  0  0
  149.6025  138.4970  153.4731 O   0  0  0  0  0  0  0  0  0  0  0  0
  151.1050  138.9914  155.2835 C   0  0  0  0  0  0  0  0  0  0  0  0
  150.7146  140.3682  155.6117 N   0  0  0  0  0  0  0  0  0  0  0  0
  149.8836  141.2227  154.9559 C   0  0  0  0  0  0  0  0  0  0  0  0
  149.8439  142.3831  155.6681 N   0  3  0  0  0  0  0  0  0  0  0  0
  150.6619  142.2666  156.7945 C   0  0  0  0  0  0  0  0  0  0  0  0
  150.9482  143.1701  157.8112 C   0  0  0  0  0  0  0  0  0  0  0  0
  151.8304  142.7386  158.8277 C   0  0  0  0  0  0  0  0  0  0  0  0
  152.1681  143.7032  159.9517 C   0  0  0  0  0  0  0  0  0  0  0  0
  152.3899  141.4345  158.8047 C   0  0  0  0  0  0  0  0  0  0  0  0
  153.3336  140.9797  159.9051 C   0  0  0  0  0  0  0  0  0  0  0  0
  152.0865  140.5306  157.7616 C   0  0  0  0  0  0  0  0  0  0  0  0
  151.2203  140.9742  156.7656 C   0  0  0  0  0  0  0  0  0  0  0  0
  149.5485  134.3487  154.6399 C   0  0  0  0  0  0  0  0  0  0  0  0
  148.4725  133.2399  154.6029 C   0  0  0  0  0  0  0  0  0  0  0  0
  148.6551  133.8866  151.8426 H   0  0  0  0  0  0  0  0  0  0  0  0
  147.2593  133.6157  150.8058 H   0  0  0  0  0  0  0  0  0  0  0  0
  147.8397  132.3107  151.8366 H   0  0  0  0  0  0  0  0  0  0  0  0
  145.2798  134.1599  155.0829 H   0  0  0  0  0  0  0  0  0  0  0  0
  146.4799  133.5915  156.1891 H   0  0  0  0  0  0  0  0  0  0  0  0
  146.4151  136.3334  154.8395 H   0  0  0  0  0  0  0  0  0  0  0  0
  146.1277  135.9871  156.5194 H   0  0  0  0  0  0  0  0  0  0  0  0
  148.2942  136.9123  156.3604 H   0  0  0  0  0  0  0  0  0  0  0  0
  148.5377  135.2545  156.7787 H   0  0  0  0  0  0  0  0  0  0  0  0
  150.8387  136.4079  155.7286 H   0  0  0  0  0  0  0  0  0  0  0  0
  150.9065  136.4212  153.9917 H   0  0  0  0  0  0  0  0  0  0  0  0
  149.0515  138.3620  155.4263 H   0  0  0  0  0  0  0  0  0  0  0  0
  149.3152  137.7203  153.0167 H   0  0  0  0  0  0  0  0  0  0  0  0
  151.5781  138.5480  156.1606 H   0  0  0  0  0  0  0  0  0  0  0  0
  151.8741  139.0429  154.5114 H   0  0  0  0  0  0  0  0  0  0  0  0
  149.3489  141.0148  154.0401 H   0  0  0  0  0  0  0  0  0  0  0  0
  150.5159  144.1599  157.8239 H   0  0  0  0  0  0  0  0  0  0  0  0
  153.2451  143.8614  160.0120 H   0  0  0  0  0  0  0  0  0  0  0  0
  151.8202  143.3121  160.9080 H   0  0  0  0  0  0  0  0  0  0  0  0
  151.6980  144.6749  159.7981 H   0  0  0  0  0  0  0  0  0  0  0  0
  153.6298  139.9387  159.7720 H   0  0  0  0  0  0  0  0  0  0  0  0
  152.8562  141.0661  160.8815 H   0  0  0  0  0  0  0  0  0  0  0  0
  154.2389  141.5871  159.9062 H   0  0  0  0  0  0  0  0  0  0  0  0
  152.5112  139.5377  157.7429 H   0  0  0  0  0  0  0  0  0  0  0  0
  150.1136  134.2837  153.7094 H   0  0  0  0  0  0  0  0  0  0  0  0
  150.2642  134.1064  155.4270 H   0  0  0  0  0  0  0  0  0  0  0  0
  148.4002  132.7984  155.5972 H   0  0  0  0  0  0  0  0  0  0  0  0
  148.8052  132.4141  153.9736 H   0  0  0  0  0  0  0  0  0  0  0  0
  149.2960  143.1917  155.4033 H   0  0  0  0  0  0  0  0  0  0  0  0
  1  2  1  0  0  0  0
  1 26  1  0  0  0  0
  1 27  1  0  0  0  0
  1 28  1  0  0  0  0
  2  3  2  0  0  0  0
  2  4  1  0  0  0  0
  4 25  1  0  0  0  0
  4  5  1  0  0  0  0
  5  6  1  0  0  0  0
  5 29  1  0  0  0  0
  5 30  1  0  0  0  0
  6  7  1  0  0  0  0
  6 31  1  0  0  0  0
  6 32  1  0  0  0  0
  7  8  1  0  0  0  0
  7 33  1  0  0  0  0
  7 34  1  0  0  0  0
  8  9  1  0  0  0  0
  8 24  1  0  0  0  0
  9 10  1  0  0  0  0
  9 35  1  0  0  0  0
  9 36  1  0  0  0  0
 10 11  1  0  0  0  0
 10 12  1  0  0  0  0
 10 37  1  0  0  0  0
 11 38  1  0  0  0  0
 12 13  1  0  0  0  0
 12 39  1  0  0  0  0
 12 40  1  0  0  0  0
 13 23  1  0  0  0  0
 13 14  1  0  0  0  0
 14 15  2  0  0  0  0
 14 41  1  0  0  0  0
 15 16  1  0  0  0  0
 15 54  1  0  0  0  0
 16 23  2  0  0  0  0
 16 17  1  0  0  0  0
 17 18  2  0  0  0  0
 17 42  1  0  0  0  0
 18 19  1  0  0  0  0
 18 20  1  0  0  0  0
 19 43  1  0  0  0  0
 19 44  1  0  0  0  0
 19 45  1  0  0  0  0
 20 21  1  0  0  0  0
 20 22  2  0  0  0  0
 21 46  1  0  0  0  0
 21 47  1  0  0  0  0
 21 48  1  0  0  0  0
 22 23  1  0  0  0  0
 22 49  1  0  0  0  0
 24 25  1  0  0  0  0
 24 50  1  0  0  0  0
 24 51  1  0  0  0  0
 25 52  1  0  0  0  0
 25 53  1  0  0  0  0
M  CHG  1  15   1
M  END
> <s_m_source_file>
AV-unprocessed.smi

> <i_m_source_file_index>
1643

> <i_lp_mmshare_version>
43012

> <i_f3d_flags>
0

> <s_epik_input>
W0NIM11DKD1PKU4xW0NIMl1bQ0gyXVtDSDJdTihbQ0gyXVtDSDJdMSlbQ0gyXVtDQEhdKFtPSF0pW0NIMl1uKFtjSF1uMiljKGMyMylbY0hdYyhbQ0gzXSljKFtjSF0zKVtDSDNd

> <s_epik_cmdline>
J2VwaWtfcHl0aG9uJywgJy1waCcsICc3LjAnLCAnLXRuJywgJzgnLCAnLW1hJywgJzIwMCcsICctbWV0YWxfYmluZGluZycsICctaW1hZScsICc8aW5maWxlLm1hZT4nLCAnLW9tYWUnLCAnPG91dGZpbGUubWFlPic=

> <r_epik_Ionization_Penalty>
2.25269

> <r_epik_Ionization_Penalty_Charging>
1.20735

> <r_epik_Ionization_Penalty_Neutral>
1.04533

> <r_epik_State_Penalty>
2.37869

> <r_epik_Charging_Adjusted_Penalty>
3.58604

> <i_epik_Tot_Q>
1

> <i_epik_Tot_abs_Q>
1

> <r_epik_Metal_State_Penalty>
6.40045

> <b_epik_Metal_Only>
0

> <s_lp_Force_Field>
OPLS_2005

> <r_lp_Energy>
52.9577

> <b_lp_Chiralities_Consistent>
1

> <s_lp_Variant>
AV-unprocessed.smi:1643-11

> <Gold.Version>
5.8.1

> <Gold.Id.Protein>
6NUR|6NUR_protein|mol2

> <Gold.PLP.Fitness>
49.9634

> <Gold.PLP.PLP>
-41.8282

> <Gold.PLP.part.hbond>
-3.0000

> <Gold.PLP.part.metal>
0.0000

> <Gold.PLP.part.buried>
-3.7957

> <Gold.PLP.part.nonpolar>
-35.7952

> <Gold.PLP.part.repulsive>
0.5345

> <Gold.PLP.ligand.clash>
0.0000

> <Gold.PLP.ligand.torsion>
0.5215

> <Gold.PLP.Chemscore.Hbond>
3.0000

> <Gold.PLP.Chemscore.CHOScore>
0.0000

> <Gold.PLP.Chemscore.Metal>
0.0000

> <Gold.Chemscore.Hbonds>
donor molecule, donor type, donor heavy atom, donor atom, acceptor molecule, acceptor atom, score
      L1  H    11    38       P1  7948  1.00
      L1  H    15    54       P1  8028  1.98

> <Gold.PLP.Chemscore.Internal.Correction>
0.1782

> <Gold.Rescore>
     Score         DG    S(hbond)    S(metal)    S(lipo)     H(rot)  DE(clash)    DE(int)     intcor
     18.48     -19.12       1.94        0.00     107.54       2.12       0.15       0.49       ----

> <Gold.Chemscore.Fitness>
18.4775

> <Gold.Chemscore.DG>
-19.1233

> <Gold.Chemscore.ZeroCoef>
-5.4800

> <Gold.Chemscore.Hbond>
1.9440

> <Gold.Chemscore.Metal>
0.0000

> <Gold.Chemscore.Lipo>
107.5417

> <Gold.Chemscore.Internal_Hbond>
0.0000

> <Gold.Chemscore.DEClash>
0.1512

> <Gold.Chemscore.DEInternal>
0.4946

> <Gold.Chemscore.Rot>
2.1220

> <Gold.Chemscore.Internal.Correction>
   9.000000E+99

> <Gold.Chemscore.Hbonds>
donor molecule, donor type, donor heavy atom, donor atom, acceptor molecule, acceptor atom, score
      L1  H    11    38       P1  7948  0.96
      L1  H    15    54       P1  8028  0.93

> <Gold.Chemscore.Hbond.Weighted>
-6.4931

> <Gold.Chemscore.Metal.Weighted>
-0.0000

> <Gold.Chemscore.Lipo.Weighted>
-12.5824

> <Gold.Chemscore.Internal_Hbond.Weighted>
0.0000

> <Gold.Chemscore.DEClash.Weighted>
0.1512

> <Gold.Chemscore.DEInternal.Weighted>
0.4946

> <Gold.Chemscore.Rot.Weighted>
5.4322

> <Gold.Chemscore.Internal.Correction.Weighted>
   9.000000E+99

> <Gold.Protein.RotatedTorsions>
[ 6907 6896 6895 6894 ] final  138.69 input  -60.11 | X-H torsion
[ 7974 7965 7964 7962 ] final  -66.63 input  175.53 | X-H torsion
[ 8008 7997 7996 7995 ] final -107.61 input   59.86 | X-H torsion
[ 10167 10162 10161 10158 ] final  126.95 input  -65.29 | X-H torsion
[ 10718 10713 10712 10709 ] final  -97.92 input   66.30 | X-H torsion
[ 10763 10752 10751 10750 ] final  114.75 input  -60.55 | X-H torsion
[ 11005 11000 10999 10996 ] final -140.03 input  -57.11 | X-H torsion

> <Gold.Protein.ActiveResidues>
 VAL166  LYS551  ARG553  GLY616  TRP617  ASP618  TYR619  PRO620  LYS621  CYS622 
 ASP623  PHE694  ASN695  SER759  ASP760  ASP761  ALA762  ILE779  LEU786  VAL792 
 PHE793  MET794  SER795  GLU796  ALA797  LYS798  CYS799  TRP800  GLU811  SER814 

> <Gold.Protein.RotatedAtoms>
  152.2637  133.5320  159.5396 H   0  0  0  0  0  0  0  0  0  0  0  0  # atno 6907 bound_to 6896
  150.7134  134.0795  159.3902 H   0  0  0  0  0  0  0  0  0  0  0  0  # atno 6908 bound_to 6896
  151.8711  135.0489  160.0530 H   0  0  0  0  0  0  0  0  0  0  0  0  # atno 6909 bound_to 6896
  145.7394  140.8961  143.0538 H   0  0  0  0  0  0  0  0  0  0  0  0  # atno 7974 bound_to 7965
  154.9319  140.0405  157.2052 H   0  0  0  0  0  0  0  0  0  0  0  0  # atno 8008 bound_to 7997
  154.8152  140.2874  155.5803 H   0  0  0  0  0  0  0  0  0  0  0  0  # atno 8009 bound_to 7997
  156.2975  140.2529  156.3048 H   0  0  0  0  0  0  0  0  0  0  0  0  # atno 8010 bound_to 7997
  139.5604  144.6878  151.4060 H   0  0  0  0  0  0  0  0  0  0  0  0  # atno 10167 bound_to 10162
  156.0095  130.5215  150.6447 H   0  0  0  0  0  0  0  0  0  0  0  0  # atno 10718 bound_to 10713
  153.5119  135.3616  155.2590 H   0  0  0  0  0  0  0  0  0  0  0  0  # atno 10763 bound_to 10752
  154.8741  135.4024  154.3359 H   0  0  0  0  0  0  0  0  0  0  0  0  # atno 10764 bound_to 10752
  153.4014  135.7075  153.6490 H   0  0  0  0  0  0  0  0  0  0  0  0  # atno 10765 bound_to 10752
  140.8462  134.2341  157.4784 H   0  0  0  0  0  0  0  0  0  0  0  0  # atno 11005 bound_to 11000
  144.6874  139.9439  143.7476 LP  0  0  0  0  0  0  0  0  0  0  0  0  # atno 17320 bound_to 7965
  146.0463  139.3468  143.0667 LP  0  0  0  0  0  0  0  0  0  0  0  0  # atno 17321 bound_to 7965
  140.6883  143.7922  150.7218 LP  0  0  0  0  0  0  0  0  0  0  0  0  # atno 17342 bound_to 10162
  140.1396  143.4452  152.2202 LP  0  0  0  0  0  0  0  0  0  0  0  0  # atno 17343 bound_to 10162
  157.4220  131.0838  151.1122 LP  0  0  0  0  0  0  0  0  0  0  0  0  # atno 17370 bound_to 10713
  157.1721  130.6272  149.5644 LP  0  0  0  0  0  0  0  0  0  0  0  0  # atno 17371 bound_to 10713
  139.8703  134.9660  156.4549 LP  0  0  0  0  0  0  0  0  0  0  0  0  # atno 17394 bound_to 11000
  140.8840  133.7897  155.9498 LP  0  0  0  0  0  0  0  0  0  0  0  0  # atno 17395 bound_to 11000

$$$$
