AV-unprocessed.smi:50|AV-procd|sdf|491|dock2
  -GOLD-   2262016353D 1   1.00000     0.00000
 Structure written by MMmdl.
 44 45  0  0  0  0  0  0  0  0  2 V2000
  141.7174  137.8062  153.9009 C   0  0  0  0  0  0  0  0  0  0  0  0
  141.0220  136.7725  152.9951 C   0  0  0  0  0  0  0  0  0  0  0  0
  139.5326  136.6761  153.3800 C   0  0  0  0  0  0  0  0  0  0  0  0
  141.7509  135.4007  153.0235 C   0  0  2  0  0  0  0  0  0  0  0  0
  142.0600  134.9807  154.4044 N   0  3  0  0  0  0  0  0  0  0  0  0
  143.0838  135.4028  152.2548 C   0  0  0  0  0  0  0  0  0  0  0  0
  143.5229  136.3645  151.6210 O   0  0  0  0  0  0  0  0  0  0  0  0
  143.6820  134.2047  152.3561 O   0  0  0  0  0  0  0  0  0  0  0  0
  144.6663  133.8252  151.4078 C   0  0  0  0  0  0  0  0  0  0  0  0
  146.0384  134.3226  151.8707 C   0  0  0  0  0  0  0  0  0  0  0  0
  146.4646  133.5366  152.9721 O   0  0  0  0  0  0  0  0  0  0  0  0
  147.7560  133.0441  152.8262 C   0  0  0  0  0  0  0  0  0  0  0  0
  148.5178  133.4418  153.9966 N   0  0  0  0  0  0  0  0  0  0  0  0
  148.6681  134.6985  154.5287 C   0  0  0  0  0  0  0  0  0  0  0  0
  149.4244  134.7391  155.5900 N   0  0  0  0  0  0  0  0  0  0  0  0
  149.8179  133.4174  155.7782 C   0  0  0  0  0  0  0  0  0  0  0  0
  150.6629  132.8390  156.7845 C   0  0  0  0  0  0  0  0  0  0  0  0
  151.2283  133.4011  157.7201 O   0  0  0  0  0  0  0  0  0  0  0  0
  150.8175  131.4574  156.6137 N   0  0  0  0  0  0  0  0  0  0  0  0
  150.2224  130.7246  155.5897 C   0  0  0  0  0  0  0  0  0  0  0  0
  150.4732  129.4091  155.5642 N   0  0  0  0  0  0  0  0  0  0  0  0
  149.4418  131.2577  154.6664 N   0  0  0  0  0  0  0  0  0  0  0  0
  149.2677  132.6095  154.8016 C   0  0  0  0  0  0  0  0  0  0  0  0
  141.0949  134.6429  152.5932 H   0  0  0  0  0  0  0  0  0  0  0  0
  151.4015  130.9778  157.2830 H   0  0  0  0  0  0  0  0  0  0  0  0
  141.7341  137.4739  154.9394 H   0  0  0  0  0  0  0  0  0  0  0  0
  141.2000  138.7657  153.8705 H   0  0  0  0  0  0  0  0  0  0  0  0
  142.7463  137.9927  153.5931 H   0  0  0  0  0  0  0  0  0  0  0  0
  141.0658  137.1588  151.9755 H   0  0  0  0  0  0  0  0  0  0  0  0
  139.4070  136.2292  154.3668 H   0  0  0  0  0  0  0  0  0  0  0  0
  138.9640  136.0795  152.6667 H   0  0  0  0  0  0  0  0  0  0  0  0
  139.0691  137.6630  153.4035 H   0  0  0  0  0  0  0  0  0  0  0  0
  142.3363  134.0093  154.4050 H   0  0  0  0  0  0  0  0  0  0  0  0
  141.2437  135.1022  154.9864 H   0  0  0  0  0  0  0  0  0  0  0  0
  144.6828  132.7375  151.3263 H   0  0  0  0  0  0  0  0  0  0  0  0
  144.4241  134.2254  150.4223 H   0  0  0  0  0  0  0  0  0  0  0  0
  146.7596  134.2778  151.0530 H   0  0  0  0  0  0  0  0  0  0  0  0
  145.9567  135.3658  152.1796 H   0  0  0  0  0  0  0  0  0  0  0  0
  147.7403  131.9557  152.7476 H   0  0  0  0  0  0  0  0  0  0  0  0
  148.2371  133.4682  151.9434 H   0  0  0  0  0  0  0  0  0  0  0  0
  148.2001  135.5777  154.1102 H   0  0  0  0  0  0  0  0  0  0  0  0
  151.0698  128.9997  156.2687 H   0  0  0  0  0  0  0  0  0  0  0  0
  150.0686  128.8265  154.8456 H   0  0  0  0  0  0  0  0  0  0  0  0
  142.8181  135.5444  154.7620 H   0  0  0  0  0  0  0  0  0  0  0  0
  1  2  1  0  0  0  0
  1 26  1  0  0  0  0
  1 27  1  0  0  0  0
  1 28  1  0  0  0  0
  2  3  1  0  0  0  0
  2  4  1  0  0  0  0
  2 29  1  0  0  0  0
  3 30  1  0  0  0  0
  3 31  1  0  0  0  0
  3 32  1  0  0  0  0
  4 24  1  0  0  0  0
  4  5  1  0  0  0  0
  4  6  1  0  0  0  0
  5 33  1  0  0  0  0
  5 34  1  0  0  0  0
  5 44  1  0  0  0  0
  6  7  2  0  0  0  0
  6  8  1  0  0  0  0
  8  9  1  0  0  0  0
  9 10  1  0  0  0  0
  9 35  1  0  0  0  0
  9 36  1  0  0  0  0
 10 11  1  0  0  0  0
 10 37  1  0  0  0  0
 10 38  1  0  0  0  0
 11 12  1  0  0  0  0
 12 13  1  0  0  0  0
 12 39  1  0  0  0  0
 12 40  1  0  0  0  0
 13 23  1  0  0  0  0
 13 14  1  0  0  0  0
 14 15  2  0  0  0  0
 14 41  1  0  0  0  0
 15 16  1  0  0  0  0
 16 23  2  0  0  0  0
 16 17  1  0  0  0  0
 17 18  2  0  0  0  0
 17 19  1  0  0  0  0
 19 25  1  0  0  0  0
 19 20  1  0  0  0  0
 20 21  1  0  0  0  0
 20 22  2  0  0  0  0
 21 42  1  0  0  0  0
 21 43  1  0  0  0  0
 22 23  1  0  0  0  0
M  CHG  1   5   1
M  END
> <s_m_source_file>
AV-unprocessed.smi

> <i_m_source_file_index>
50

> <i_lp_mmshare_version>
43012

> <i_f3d_flags>
0

> <s_epik_input>
W0NIM11bQ0hdKFtDSDNdKVtDQEhdKFtOSDJdKUMoPU8pT1tDSDJdW0NIMl1PW0NIMl1uKFtjSF1uMSljKGMxMiluYyhbTkgyXSlbbkhdYzI9Tw==

> <s_epik_cmdline>
J2VwaWtfcHl0aG9uJywgJy1waCcsICc3LjAnLCAnLXRuJywgJzgnLCAnLW1hJywgJzIwMCcsICctbWV0YWxfYmluZGluZycsICctaW1hZScsICc8aW5maWxlLm1hZT4nLCAnLW9tYWUnLCAnPG91dGZpbGUubWFlPic=

> <r_lp_tautomer_probability>
0.99994

> <r_epik_Ionization_Penalty>
0.217551

> <r_epik_Ionization_Penalty_Charging>
0.217477

> <r_epik_Ionization_Penalty_Neutral>
7.42487e-05

> <r_epik_State_Penalty>
0.206211

> <r_epik_Charging_Adjusted_Penalty>
0.423688

> <i_epik_Tot_Q>
1

> <i_epik_Tot_abs_Q>
1

> <r_epik_Metal_State_Penalty>
0.526339

> <b_epik_Metal_Only>
0

> <s_epik_Chemistry_Notes>
This compound has an ester and may undergo hydrolysis at high or low pH. This compound contains an acetal/aminal-like group ( X-CH(R)-Y where X, Y are N, S, or O) that may be acid/base labile, releasing an aldehyde.

> <s_lp_Force_Field>
OPLS_2005

> <r_lp_Energy>
8.83135

> <b_lp_Chiralities_Consistent>
1

> <s_lp_Variant>
AV-unprocessed.smi:50-1

> <Gold.Version>
5.8.1

> <Gold.Id.Protein>
6NUR|6NUR_protein|mol2

> <Gold.PLP.Fitness>
48.3053

> <Gold.PLP.PLP>
-36.5093

> <Gold.PLP.part.hbond>
-3.0000

> <Gold.PLP.part.metal>
0.0000

> <Gold.PLP.part.buried>
-6.4144

> <Gold.PLP.part.nonpolar>
-27.6646

> <Gold.PLP.part.repulsive>
0.6420

> <Gold.PLP.ligand.clash>
0.0000

> <Gold.PLP.ligand.torsion>
1.5225

> <Gold.PLP.Chemscore.Hbond>
4.0000

> <Gold.PLP.Chemscore.CHOScore>
0.8303

> <Gold.PLP.Chemscore.Metal>
0.0000

> <Gold.Chemscore.Hbonds>
donor molecule, donor type, donor heavy atom, donor atom, acceptor molecule, acceptor atom, score
      L1  H     5    33       P1 10957  0.71
      L1  H     5    34       P1 11000  0.57
      P1  H  6896  6908       L1    18  0.45
      L1  C    14    41       P1  7948  0.70

> <Gold.PLP.Chemscore.Internal.Correction>
0.3503

> <Gold.Rescore>
     Score         DG    S(hbond)    S(metal)    S(lipo)     H(rot)  DE(clash)    DE(int)     intcor
      5.51      -6.76       2.74        0.00      39.02       4.86       0.00       1.25       ----

> <Gold.Chemscore.Fitness>
5.5061

> <Gold.Chemscore.DG>
-6.7570

> <Gold.Chemscore.ZeroCoef>
-5.4800

> <Gold.Chemscore.Hbond>
2.7382

> <Gold.Chemscore.Metal>
0.0000

> <Gold.Chemscore.Lipo>
39.0241

> <Gold.Chemscore.Internal_Hbond>
0.0000

> <Gold.Chemscore.DEClash>
0.0038

> <Gold.Chemscore.DEInternal>
1.2471

> <Gold.Chemscore.Rot>
4.8571

> <Gold.Chemscore.Internal.Correction>
   9.000000E+99

> <Gold.Chemscore.Hbonds>
donor molecule, donor type, donor heavy atom, donor atom, acceptor molecule, acceptor atom, score
      L1  H     5    33       P1 10957  0.35
      L1  H     5    34       P1 11000  0.25
      P1  H  6896  6908       L1    18  0.43

> <Gold.Chemscore.Hbond.Weighted>
-9.1455

> <Gold.Chemscore.Metal.Weighted>
-0.0000

> <Gold.Chemscore.Lipo.Weighted>
-4.5658

> <Gold.Chemscore.Internal_Hbond.Weighted>
0.0000

> <Gold.Chemscore.DEClash.Weighted>
0.0038

> <Gold.Chemscore.DEInternal.Weighted>
1.2471

> <Gold.Chemscore.Rot.Weighted>
12.4343

> <Gold.Chemscore.Internal.Correction.Weighted>
   9.000000E+99

> <Gold.Protein.RotatedTorsions>
[ 6907 6896 6895 6894 ] final   57.62 input  -60.11 | X-H torsion
[ 7974 7965 7964 7962 ] final -165.36 input  175.53 | X-H torsion
[ 8008 7997 7996 7995 ] final -103.55 input   59.86 | X-H torsion
[ 10167 10162 10161 10158 ] final -169.11 input  -65.29 | X-H torsion
[ 10718 10713 10712 10709 ] final   27.57 input   66.30 | X-H torsion
[ 10763 10752 10751 10750 ] final  -60.99 input  -60.55 | X-H torsion
[ 11005 11000 10999 10996 ] final  166.26 input  -57.11 | X-H torsion

> <Gold.Protein.ActiveResidues>
 VAL166  LYS551  ARG553  GLY616  TRP617  ASP618  TYR619  PRO620  LYS621  CYS622 
 ASP623  PHE694  ASN695  SER759  ASP760  ASP761  ALA762  ILE779  LEU786  VAL792 
 PHE793  MET794  SER795  GLU796  ALA797  LYS798  CYS799  TRP800  GLU811  SER814 

> <Gold.Protein.RotatedAtoms>
  152.3749  134.6679  160.0163 H   0  0  0  0  0  0  0  0  0  0  0  0  # atno 6907 bound_to 6896
  151.6960  133.3305  159.3263 H   0  0  0  0  0  0  0  0  0  0  0  0  # atno 6908 bound_to 6896
  150.7701  134.6592  159.6375 H   0  0  0  0  0  0  0  0  0  0  0  0  # atno 6909 bound_to 6896
  144.7272  140.2825  143.6233 H   0  0  0  0  0  0  0  0  0  0  0  0  # atno 7974 bound_to 7965
  154.8725  140.0422  157.1733 H   0  0  0  0  0  0  0  0  0  0  0  0  # atno 8008 bound_to 7997
  154.8724  140.2960  155.5453 H   0  0  0  0  0  0  0  0  0  0  0  0  # atno 8009 bound_to 7997
  156.2999  140.2426  156.3714 H   0  0  0  0  0  0  0  0  0  0  0  0  # atno 8010 bound_to 7997
  139.5943  144.1146  152.1671 H   0  0  0  0  0  0  0  0  0  0  0  0  # atno 10167 bound_to 10162
  157.2219  130.6983  149.6274 H   0  0  0  0  0  0  0  0  0  0  0  0  # atno 10718 bound_to 10713
  154.2777  135.6278  153.5335 H   0  0  0  0  0  0  0  0  0  0  0  0  # atno 10763 bound_to 10752
  152.9870  135.5625  154.5530 H   0  0  0  0  0  0  0  0  0  0  0  0  # atno 10764 bound_to 10752
  154.5114  135.2877  155.1315 H   0  0  0  0  0  0  0  0  0  0  0  0  # atno 10765 bound_to 10752
  140.2646  134.7875  157.3621 H   0  0  0  0  0  0  0  0  0  0  0  0  # atno 11005 bound_to 11000
  145.7935  139.1936  143.2089 LP  0  0  0  0  0  0  0  0  0  0  0  0  # atno 17320 bound_to 7965
  146.0736  140.7842  142.9676 LP  0  0  0  0  0  0  0  0  0  0  0  0  # atno 17321 bound_to 7965
  140.0727  144.5766  150.7179 LP  0  0  0  0  0  0  0  0  0  0  0  0  # atno 17342 bound_to 10162
  140.7199  143.2579  151.4313 LP  0  0  0  0  0  0  0  0  0  0  0  0  # atno 17343 bound_to 10162
  155.9681  130.4517  150.5745 LP  0  0  0  0  0  0  0  0  0  0  0  0  # atno 17370 bound_to 10713
  157.3567  131.0743  151.1670 LP  0  0  0  0  0  0  0  0  0  0  0  0  # atno 17371 bound_to 10713
  140.1432  134.4945  155.8016 LP  0  0  0  0  0  0  0  0  0  0  0  0  # atno 17394 bound_to 11000
  141.2186  133.6833  156.7247 LP  0  0  0  0  0  0  0  0  0  0  0  0  # atno 17395 bound_to 11000

$$$$
