AV-unprocessed.smi:2118|AV-procd|sdf|8629|dock5
  -GOLD-   2272011373D 1   1.00000     0.00000
 Structure written by MMmdl.
 39 40  0  0  0  0  0  0  0  0  2 V2000
  152.2043  145.3320  159.6906 C   0  0  0  0  0  0  0  0  0  0  0  0
  151.6976  143.9787  159.1722 C   0  0  0  0  0  0  0  0  0  0  0  0
  152.6501  142.8338  159.5388 C   0  0  0  0  0  0  0  0  0  0  0  0
  152.1348  141.4808  159.0197 C   0  0  0  0  0  0  0  0  0  0  0  0
  151.8807  141.5103  157.5643 N   0  0  0  0  0  0  0  0  0  0  0  0
  151.6553  139.9729  156.7807 S   0  0  0  0  0  0  0  0  0  0  0  0
  151.2328  140.2629  155.4005 O   0  0  0  0  0  0  0  0  0  0  0  0
  152.9167  139.2378  156.9711 O   0  0  0  0  0  0  0  0  0  0  0  0
  150.4357  139.4354  157.7041 N   0  5  0  0  0  0  0  0  0  0  0  0
  149.0785  139.5326  157.1984 C   0  0  0  0  0  0  0  0  0  0  0  0
  148.5231  140.9473  157.4596 C   0  0  0  0  0  0  0  0  0  0  0  0
  147.6880  141.5005  156.3118 C   0  0  0  0  0  0  0  0  0  0  0  0
  148.1201  141.3747  154.9734 C   0  0  0  0  0  0  0  0  0  0  0  0
  147.3093  141.8912  153.9444 C   0  0  0  0  0  0  0  0  0  0  0  0
  146.0940  142.5113  154.2958 C   0  0  0  0  0  0  0  0  0  0  0  0
  145.6642  142.6326  155.5699 N   0  0  0  0  0  0  0  0  0  0  0  0
  146.4478  142.1348  156.5512 C   0  0  0  0  0  0  0  0  0  0  0  0
  151.0011  142.6246  157.1411 C   0  0  0  0  0  0  0  0  0  0  0  0
  151.5139  143.9821  157.6492 C   0  0  0  0  0  0  0  0  0  0  0  0
  153.1715  145.5871  159.2559 H   0  0  0  0  0  0  0  0  0  0  0  0
  152.3195  145.3185  160.7749 H   0  0  0  0  0  0  0  0  0  0  0  0
  151.5066  146.1328  159.4437 H   0  0  0  0  0  0  0  0  0  0  0  0
  150.7294  143.7837  159.6364 H   0  0  0  0  0  0  0  0  0  0  0  0
  153.6402  143.0276  159.1233 H   0  0  0  0  0  0  0  0  0  0  0  0
  152.7745  142.7841  160.6211 H   0  0  0  0  0  0  0  0  0  0  0  0
  152.8711  140.7116  159.2512 H   0  0  0  0  0  0  0  0  0  0  0  0
  151.2140  141.2012  159.5331 H   0  0  0  0  0  0  0  0  0  0  0  0
  149.0322  139.3282  156.1280 H   0  0  0  0  0  0  0  0  0  0  0  0
  148.4248  138.7995  157.6723 H   0  0  0  0  0  0  0  0  0  0  0  0
  147.9112  140.9442  158.3629 H   0  0  0  0  0  0  0  0  0  0  0  0
  149.3452  141.6380  157.6531 H   0  0  0  0  0  0  0  0  0  0  0  0
  149.0579  140.8922  154.7391 H   0  0  0  0  0  0  0  0  0  0  0  0
  147.6120  141.8140  152.9107 H   0  0  0  0  0  0  0  0  0  0  0  0
  145.4482  142.9190  153.5321 H   0  0  0  0  0  0  0  0  0  0  0  0
  146.0748  142.2476  157.5587 H   0  0  0  0  0  0  0  0  0  0  0  0
  150.9263  142.6578  156.0548 H   0  0  0  0  0  0  0  0  0  0  0  0
  149.9938  142.4387  157.5157 H   0  0  0  0  0  0  0  0  0  0  0  0
  150.8133  144.7657  157.3593 H   0  0  0  0  0  0  0  0  0  0  0  0
  152.4604  144.2184  157.1605 H   0  0  0  0  0  0  0  0  0  0  0  0
  1  2  1  0  0  0  0
  1 20  1  0  0  0  0
  1 21  1  0  0  0  0
  1 22  1  0  0  0  0
  2 19  1  0  0  0  0
  2  3  1  0  0  0  0
  2 23  1  0  0  0  0
  3  4  1  0  0  0  0
  3 24  1  0  0  0  0
  3 25  1  0  0  0  0
  4  5  1  0  0  0  0
  4 26  1  0  0  0  0
  4 27  1  0  0  0  0
  5  6  1  0  0  0  0
  5 18  1  0  0  0  0
  6  7  2  0  0  0  0
  6  8  2  0  0  0  0
  6  9  1  0  0  0  0
  9 10  1  0  0  0  0
 10 11  1  0  0  0  0
 10 28  1  0  0  0  0
 10 29  1  0  0  0  0
 11 12  1  0  0  0  0
 11 30  1  0  0  0  0
 11 31  1  0  0  0  0
 12 17  1  0  0  0  0
 12 13  2  0  0  0  0
 13 14  1  0  0  0  0
 13 32  1  0  0  0  0
 14 15  2  0  0  0  0
 14 33  1  0  0  0  0
 15 16  1  0  0  0  0
 15 34  1  0  0  0  0
 16 17  2  0  0  0  0
 17 35  1  0  0  0  0
 18 19  1  0  0  0  0
 18 36  1  0  0  0  0
 18 37  1  0  0  0  0
 19 38  1  0  0  0  0
 19 39  1  0  0  0  0
M  CHG  1   9  -1
M  END
> <s_m_source_file>
AV-unprocessed.smi

> <i_m_source_file_index>
2118

> <i_lp_mmshare_version>
43012

> <i_f3d_flags>
0

> <s_epik_input>
W0NIM11bQ0hdMVtDSDJdW0NIMl1OKFtDSDJdW0NIMl0xKVMoPU8pKD1PKVtOSF1bQ0gyXVtDSDJdYzJbY0hdW2NIXVtjSF1uW2NIXTI=

> <s_epik_cmdline>
J2VwaWtfcHl0aG9uJywgJy1waCcsICc3LjAnLCAnLXRuJywgJzgnLCAnLW1hJywgJzIwMCcsICctbWV0YWxfYmluZGluZycsICctaW1hZScsICc8aW5maWxlLm1hZT4nLCAnLW9tYWUnLCAnPG91dGZpbGUubWFlPic=

> <r_epik_Ionization_Penalty>
1.98317

> <r_epik_Ionization_Penalty_Charging>
1.95606

> <r_epik_Ionization_Penalty_Neutral>
0.0271171

> <r_epik_State_Penalty>
2.28376

> <r_epik_Charging_Adjusted_Penalty>
4.23982

> <i_epik_Tot_Q>
-1

> <i_epik_Tot_abs_Q>
1

> <r_epik_Metal_State_Penalty>
0.598332

> <b_epik_Metal_Only>
0

> <s_lp_Force_Field>
OPLS_2005

> <r_lp_Energy>
6.66289

> <b_lp_Chiralities_Consistent>
1

> <s_lp_Variant>
AV-unprocessed.smi:2118-2

> <Gold.Version>
5.8.1

> <Gold.Id.Protein>
6NUR|6NUR_protein|mol2

> <Gold.PLP.Fitness>
41.6897

> <Gold.PLP.PLP>
-37.4512

> <Gold.PLP.part.hbond>
-2.0000

> <Gold.PLP.part.metal>
0.0000

> <Gold.PLP.part.buried>
-5.4140

> <Gold.PLP.part.nonpolar>
-29.8636

> <Gold.PLP.part.repulsive>
0.2124

> <Gold.PLP.ligand.clash>
0.0000

> <Gold.PLP.ligand.torsion>
1.6474

> <Gold.PLP.Chemscore.Hbond>
2.0000

> <Gold.PLP.Chemscore.CHOScore>
0.0000

> <Gold.PLP.Chemscore.Metal>
0.0000

> <Gold.Chemscore.Hbonds>
donor molecule, donor type, donor heavy atom, donor atom, acceptor molecule, acceptor atom, score
      P1  H  7989  7998       L1     7  0.99
      P1  H  7997  8010       L1     8  1.00

> <Gold.PLP.Chemscore.Internal.Correction>
1.5334

> <Gold.Rescore>
     Score         DG    S(hbond)    S(metal)    S(lipo)     H(rot)  DE(clash)    DE(int)     intcor
     17.36     -18.96       1.91        0.00      91.75       1.42       0.01       1.58       ----

> <Gold.Chemscore.Fitness>
17.3597

> <Gold.Chemscore.DG>
-18.9550

> <Gold.Chemscore.ZeroCoef>
-5.4800

> <Gold.Chemscore.Hbond>
1.9102

> <Gold.Chemscore.Metal>
0.0000

> <Gold.Chemscore.Lipo>
91.7460

> <Gold.Chemscore.Internal_Hbond>
0.0000

> <Gold.Chemscore.DEClash>
0.0141

> <Gold.Chemscore.DEInternal>
1.5812

> <Gold.Chemscore.Rot>
1.4216

> <Gold.Chemscore.Internal.Correction>
   9.000000E+99

> <Gold.Chemscore.Hbonds>
donor molecule, donor type, donor heavy atom, donor atom, acceptor molecule, acceptor atom, score
      P1  H  7989  7998       L1     7  0.88
      P1  H  7997  8010       L1     8  0.94

> <Gold.Chemscore.Hbond.Weighted>
-6.3799

> <Gold.Chemscore.Metal.Weighted>
-0.0000

> <Gold.Chemscore.Lipo.Weighted>
-10.7343

> <Gold.Chemscore.Internal_Hbond.Weighted>
0.0000

> <Gold.Chemscore.DEClash.Weighted>
0.0141

> <Gold.Chemscore.DEInternal.Weighted>
1.5812

> <Gold.Chemscore.Rot.Weighted>
3.6392

> <Gold.Chemscore.Internal.Correction.Weighted>
   9.000000E+99

> <Gold.Protein.RotatedTorsions>
[ 6907 6896 6895 6894 ] final  114.02 input  -60.11 | X-H torsion
[ 7974 7965 7964 7962 ] final   54.71 input  175.53 | X-H torsion
[ 8008 7997 7996 7995 ] final   62.29 input   59.86 | X-H torsion
[ 10167 10162 10161 10158 ] final  104.46 input  -65.29 | X-H torsion
[ 10718 10713 10712 10709 ] final   82.42 input   66.30 | X-H torsion
[ 10763 10752 10751 10750 ] final  -12.69 input  -60.55 | X-H torsion
[ 11005 11000 10999 10996 ] final   26.89 input  -57.11 | X-H torsion

> <Gold.Protein.ActiveResidues>
 VAL166  LYS551  ARG553  GLY616  TRP617  ASP618  TYR619  PRO620  LYS621  CYS622 
 ASP623  PHE694  ASN695  SER759  ASP760  ASP761  ALA762  ILE779  LEU786  VAL792 
 PHE793  MET794  SER795  GLU796  ALA797  LYS798  CYS799  TRP800  GLU811  SER814 

> <Gold.Protein.RotatedAtoms>
  152.4827  133.8294  159.7094 H   0  0  0  0  0  0  0  0  0  0  0  0  # atno 6907 bound_to 6896
  150.8889  133.7261  159.2917 H   0  0  0  0  0  0  0  0  0  0  0  0  # atno 6908 bound_to 6896
  151.4741  135.1051  159.9811 H   0  0  0  0  0  0  0  0  0  0  0  0  # atno 6909 bound_to 6896
  145.9580  139.4033  143.0265 H   0  0  0  0  0  0  0  0  0  0  0  0  # atno 7974 bound_to 7965
  155.6120  140.3495  155.4625 H   0  0  0  0  0  0  0  0  0  0  0  0  # atno 8008 bound_to 7997
  156.0147  140.1241  157.0442 H   0  0  0  0  0  0  0  0  0  0  0  0  # atno 8009 bound_to 7997
  154.4293  140.1074  156.5865 H   0  0  0  0  0  0  0  0  0  0  0  0  # atno 8010 bound_to 7997
  139.7175  144.7065  151.0926 H   0  0  0  0  0  0  0  0  0  0  0  0  # atno 10167 bound_to 10162
  157.6857  131.0047  150.2372 H   0  0  0  0  0  0  0  0  0  0  0  0  # atno 10718 bound_to 10713
  153.5022  135.7017  153.5826 H   0  0  0  0  0  0  0  0  0  0  0  0  # atno 10763 bound_to 10752
  153.3952  135.3886  155.1950 H   0  0  0  0  0  0  0  0  0  0  0  0  # atno 10764 bound_to 10752
  154.8710  135.3868  154.4493 H   0  0  0  0  0  0  0  0  0  0  0  0  # atno 10765 bound_to 10752
  140.3322  134.2425  155.7701 H   0  0  0  0  0  0  0  0  0  0  0  0  # atno 11005 bound_to 11000
  145.8079  140.9740  143.0964 LP  0  0  0  0  0  0  0  0  0  0  0  0  # atno 17320 bound_to 7965
  144.6809  139.9884  143.7484 LP  0  0  0  0  0  0  0  0  0  0  0  0  # atno 17321 bound_to 7965
  140.7747  143.5210  150.9536 LP  0  0  0  0  0  0  0  0  0  0  0  0  # atno 17342 bound_to 10162
  139.8896  143.6969  152.3147 LP  0  0  0  0  0  0  0  0  0  0  0  0  # atno 17343 bound_to 10162
  156.2993  130.3756  149.7765 LP  0  0  0  0  0  0  0  0  0  0  0  0  # atno 17370 bound_to 10713
  156.5400  130.8296  151.3266 LP  0  0  0  0  0  0  0  0  0  0  0  0  # atno 17371 bound_to 10713
  141.2060  133.7844  157.0199 LP  0  0  0  0  0  0  0  0  0  0  0  0  # atno 17394 bound_to 11000
  140.0851  134.9625  157.1687 LP  0  0  0  0  0  0  0  0  0  0  0  0  # atno 17395 bound_to 11000

$$$$
