AV-unprocessed.smi:2634|AV-procd|sdf|10254|dock3
  -GOLD-   2272014263D 1   1.00000     0.00000
 Structure written by MMmdl.
 27 28  0  0  0  0  0  0  0  0  2 V2000
  146.6743  134.2525  151.2854 N   0  0  0  0  0  0  0  0  0  0  0  0
  145.4661  134.6601  151.8540 C   0  0  0  0  0  0  0  0  0  0  0  0
  145.2464  135.8064  152.5414 N   0  3  0  0  0  0  0  0  0  0  0  0
  146.2010  136.7668  152.7874 N   0  0  0  0  0  0  0  0  0  0  0  0
  143.9251  135.8907  152.9731 C   0  0  0  0  0  0  0  0  0  0  0  0
  143.2357  136.8565  153.7011 C   0  0  0  0  0  0  0  0  0  0  0  0
  141.8740  136.5973  153.9592 C   0  0  0  0  0  0  0  0  0  0  0  0
  141.2491  135.4187  153.5014 C   0  0  0  0  0  0  0  0  0  0  0  0
  141.9562  134.4453  152.7646 C   0  0  0  0  0  0  0  0  0  0  0  0
  143.3027  134.7031  152.5084 C   0  0  0  0  0  0  0  0  0  0  0  0
  144.2928  133.9713  151.8204 N   0  0  0  0  0  0  0  0  0  0  0  0
  143.9528  132.6752  151.2209 C   0  0  0  0  0  0  0  0  0  0  0  0
  144.0151  132.7215  149.6880 C   0  0  0  0  0  0  0  0  0  0  0  0
  142.8668  132.1051  149.1493 O   0  0  0  0  0  0  0  0  0  0  0  0
  147.5066  134.8213  151.3481 H   0  0  0  0  0  0  0  0  0  0  0  0
  147.1040  136.3340  152.6546 H   0  0  0  0  0  0  0  0  0  0  0  0
  146.1259  137.0236  153.7616 H   0  0  0  0  0  0  0  0  0  0  0  0
  143.7123  137.7598  154.0532 H   0  0  0  0  0  0  0  0  0  0  0  0
  141.2964  137.3176  154.5205 H   0  0  0  0  0  0  0  0  0  0  0  0
  140.2035  135.2572  153.7209 H   0  0  0  0  0  0  0  0  0  0  0  0
  141.4644  133.5467  152.4218 H   0  0  0  0  0  0  0  0  0  0  0  0
  144.6249  131.9159  151.6229 H   0  0  0  0  0  0  0  0  0  0  0  0
  142.9485  132.4085  151.5518 H   0  0  0  0  0  0  0  0  0  0  0  0
  144.0641  133.7523  149.3354 H   0  0  0  0  0  0  0  0  0  0  0  0
  144.9013  132.2056  149.3172 H   0  0  0  0  0  0  0  0  0  0  0  0
  142.1734  132.7458  149.1013 H   0  0  0  0  0  0  0  0  0  0  0  0
  146.7540  133.3809  150.7812 H   0  0  0  0  0  0  0  0  0  0  0  0
  1  2  1  0  0  0  0
  1 15  1  0  0  0  0
  1 27  1  0  0  0  0
  2 11  1  0  0  0  0
  2  3  2  0  0  0  0
  3  4  1  0  0  0  0
  3  5  1  0  0  0  0
  4 16  1  0  0  0  0
  4 17  1  0  0  0  0
  5 10  2  0  0  0  0
  5  6  1  0  0  0  0
  6  7  2  0  0  0  0
  6 18  1  0  0  0  0
  7  8  1  0  0  0  0
  7 19  1  0  0  0  0
  8  9  2  0  0  0  0
  8 20  1  0  0  0  0
  9 10  1  0  0  0  0
  9 21  1  0  0  0  0
 10 11  1  0  0  0  0
 11 12  1  0  0  0  0
 12 13  1  0  0  0  0
 12 22  1  0  0  0  0
 12 23  1  0  0  0  0
 13 14  1  0  0  0  0
 13 24  1  0  0  0  0
 13 25  1  0  0  0  0
 14 26  1  0  0  0  0
M  CHG  1   3   1
M  END
> <s_m_source_file>
AV-unprocessed.smi

> <i_m_source_file_index>
2634

> <i_lp_mmshare_version>
43012

> <i_f3d_flags>
0

> <s_epik_input>
W05IMl1uMS9jKD1OXFtIXSluKFtDSDJdW0NIMl1bT0hdKWMoYzEyKVtjSF1bY0hdW2NIXVtjSF0y

> <s_epik_cmdline>
J2VwaWtfcHl0aG9uJywgJy1waCcsICc3LjAnLCAnLXRuJywgJzgnLCAnLW1hJywgJzIwMCcsICctbWV0YWxfYmluZGluZycsICctaW1hZScsICc8aW5maWxlLm1hZT4nLCAnLW9tYWUnLCAnPG91dGZpbGUubWFlPic=

> <r_lp_tautomer_probability>
1

> <r_epik_Ionization_Penalty>
1.24644e-06

> <r_epik_Ionization_Penalty_Charging>
0

> <r_epik_Ionization_Penalty_Neutral>
1.24644e-06

> <r_epik_State_Penalty>
-0

> <r_epik_Charging_Adjusted_Penalty>
0

> <i_epik_Tot_Q>
1

> <i_epik_Tot_abs_Q>
1

> <r_epik_Metal_State_Penalty>
-0

> <b_epik_Metal_Only>
0

> <s_lp_Force_Field>
OPLS_2005

> <r_lp_Energy>
25.9386

> <b_lp_Chiralities_Consistent>
1

> <s_lp_Variant>
AV-unprocessed.smi:2634-1

> <Gold.Version>
5.8.1

> <Gold.Id.Protein>
6NUR|6NUR_protein|mol2

> <Gold.PLP.Fitness>
42.7219

> <Gold.PLP.PLP>
-28.7963

> <Gold.PLP.part.hbond>
-5.0000

> <Gold.PLP.part.metal>
0.0000

> <Gold.PLP.part.buried>
-5.3863

> <Gold.PLP.part.nonpolar>
-18.4379

> <Gold.PLP.part.repulsive>
0.0744

> <Gold.PLP.ligand.clash>
0.0000

> <Gold.PLP.ligand.torsion>
0.3782

> <Gold.PLP.Chemscore.Hbond>
4.8938

> <Gold.PLP.Chemscore.CHOScore>
0.0000

> <Gold.PLP.Chemscore.Metal>
0.0000

> <Gold.Chemscore.Hbonds>
donor molecule, donor type, donor heavy atom, donor atom, acceptor molecule, acceptor atom, score
      L1  H     1    15       P1  7948  2.00
      L1  H     4    16       P1  7948  1.00
      L1  H    14    26       P1 10186  0.89
      P1  H 10785 10796       L1    14  1.00

> <Gold.PLP.Chemscore.Internal.Correction>
0.0008

> <Gold.Rescore>
     Score         DG    S(hbond)    S(metal)    S(lipo)     H(rot)  DE(clash)    DE(int)     intcor
     15.54     -16.04       3.05        0.00      46.24       1.96       0.01       0.49       ----

> <Gold.Chemscore.Fitness>
15.5417

> <Gold.Chemscore.DG>
-16.0406

> <Gold.Chemscore.ZeroCoef>
-5.4800

> <Gold.Chemscore.Hbond>
3.0476

> <Gold.Chemscore.Metal>
0.0000

> <Gold.Chemscore.Lipo>
46.2393

> <Gold.Chemscore.Internal_Hbond>
0.0000

> <Gold.Chemscore.DEClash>
0.0052

> <Gold.Chemscore.DEInternal>
0.4936

> <Gold.Chemscore.Rot>
1.9643

> <Gold.Chemscore.Internal.Correction>
   9.000000E+99

> <Gold.Chemscore.Hbonds>
donor molecule, donor type, donor heavy atom, donor atom, acceptor molecule, acceptor atom, score
      L1  H     1    15       P1  7948  0.28
      L1  H     4    16       P1  7948  0.92
      L1  H    14    26       P1 10186  0.85
      P1  H 10785 10796       L1    14  0.77

> <Gold.Chemscore.Hbond.Weighted>
-10.1791

> <Gold.Chemscore.Metal.Weighted>
-0.0000

> <Gold.Chemscore.Lipo.Weighted>
-5.4100

> <Gold.Chemscore.Internal_Hbond.Weighted>
0.0000

> <Gold.Chemscore.DEClash.Weighted>
0.0052

> <Gold.Chemscore.DEInternal.Weighted>
0.4936

> <Gold.Chemscore.Rot.Weighted>
5.0285

> <Gold.Chemscore.Internal.Correction.Weighted>
   9.000000E+99

> <Gold.Protein.RotatedTorsions>
[ 6907 6896 6895 6894 ] final  103.24 input  -60.11 | X-H torsion
[ 7974 7965 7964 7962 ] final   11.57 input  175.53 | X-H torsion
[ 8008 7997 7996 7995 ] final  121.11 input   59.86 | X-H torsion
[ 10167 10162 10161 10158 ] final  158.36 input  -65.29 | X-H torsion
[ 10718 10713 10712 10709 ] final  -77.44 input   66.30 | X-H torsion
[ 10763 10752 10751 10750 ] final  -62.60 input  -60.55 | X-H torsion
[ 11005 11000 10999 10996 ] final    5.40 input  -57.11 | X-H torsion

> <Gold.Protein.ActiveResidues>
 VAL166  LYS551  ARG553  GLY616  TRP617  ASP618  TYR619  PRO620  LYS621  CYS622 
 ASP623  PHE694  ASN695  SER759  ASP760  ASP761  ALA762  ILE779  LEU786  VAL792 
 PHE793  MET794  SER795  GLU796  ALA797  LYS798  CYS799  TRP800  GLU811  SER814 

> <Gold.Protein.RotatedAtoms>
  152.5301  133.9855  159.7826 H   0  0  0  0  0  0  0  0  0  0  0  0  # atno 6907 bound_to 6896
  151.0100  133.5966  159.2691 H   0  0  0  0  0  0  0  0  0  0  0  0  # atno 6908 bound_to 6896
  151.3044  135.0784  159.9303 H   0  0  0  0  0  0  0  0  0  0  0  0  # atno 6909 bound_to 6896
  146.2368  139.9465  142.8476 H   0  0  0  0  0  0  0  0  0  0  0  0  # atno 7974 bound_to 7965
  156.2672  140.2816  156.1256 H   0  0  0  0  0  0  0  0  0  0  0  0  # atno 8008 bound_to 7997
  155.1109  140.0391  157.2741 H   0  0  0  0  0  0  0  0  0  0  0  0  # atno 8009 bound_to 7997
  154.6743  140.2595  155.6980 H   0  0  0  0  0  0  0  0  0  0  0  0  # atno 8010 bound_to 7997
  139.4826  144.4831  151.8415 H   0  0  0  0  0  0  0  0  0  0  0  0  # atno 10167 bound_to 10162
  156.0145  130.4491  150.3345 H   0  0  0  0  0  0  0  0  0  0  0  0  # atno 10718 bound_to 10713
  154.3024  135.6232  153.5430 H   0  0  0  0  0  0  0  0  0  0  0  0  # atno 10763 bound_to 10752
  152.9839  135.5681  154.5269 H   0  0  0  0  0  0  0  0  0  0  0  0  # atno 10764 bound_to 10752
  154.4902  135.2867  155.1478 H   0  0  0  0  0  0  0  0  0  0  0  0  # atno 10765 bound_to 10752
  140.5711  134.0101  155.8009 H   0  0  0  0  0  0  0  0  0  0  0  0  # atno 11005 bound_to 11000
  145.1902  140.9808  143.4215 LP  0  0  0  0  0  0  0  0  0  0  0  0  # atno 17320 bound_to 7965
  144.9864  139.3732  143.6236 LP  0  0  0  0  0  0  0  0  0  0  0  0  # atno 17321 bound_to 7965
  140.4309  144.2117  150.5888 LP  0  0  0  0  0  0  0  0  0  0  0  0  # atno 17342 bound_to 10162
  140.4780  143.2389  151.8995 LP  0  0  0  0  0  0  0  0  0  0  0  0  # atno 17343 bound_to 10162
  157.1443  131.0304  151.2914 LP  0  0  0  0  0  0  0  0  0  0  0  0  # atno 17370 bound_to 10713
  157.4446  130.7563  149.7098 LP  0  0  0  0  0  0  0  0  0  0  0  0  # atno 17371 bound_to 10713
  141.1055  133.9700  157.3004 LP  0  0  0  0  0  0  0  0  0  0  0  0  # atno 17394 bound_to 11000
  139.9361  135.0196  156.8561 LP  0  0  0  0  0  0  0  0  0  0  0  0  # atno 17395 bound_to 11000

$$$$
