AV-unprocessed.smi:599|AV-procd|sdf|3029|dock4
  -GOLD-   2262023543D 1   1.00000     0.00000
 Structure written by MMmdl.
 36 37  0  0  0  0  0  0  0  0  1 V2000
  147.0532  138.9065  156.8455 N   0  0  0  0  0  0  0  0  0  0  0  0
  147.6896  139.5264  156.1041 C   0  0  0  0  0  0  0  0  0  0  0  0
  148.5005  140.3177  155.1581 C   0  0  0  0  0  0  0  0  0  0  0  0
  149.9020  140.3916  155.5708 N   0  0  0  0  0  0  0  0  0  0  0  0
  150.3571  140.9118  156.7216 C   0  0  0  0  0  0  0  0  0  0  0  0
  149.6189  141.3861  157.5853 O   0  0  0  0  0  0  0  0  0  0  0  0
  151.8775  140.8700  156.9272 C   0  0  0  0  0  0  0  0  0  0  0  0
  152.2974  141.4137  158.2295 N   0  0  0  0  0  0  0  0  0  0  0  0
  151.8305  142.6982  158.5714 C   0  0  0  0  0  0  0  0  0  0  0  0
  152.1342  143.3024  159.7364 C   0  0  0  0  0  0  0  0  0  0  0  0
  151.6684  144.7153  160.0514 C   0  0  0  0  0  0  0  0  0  0  0  0
  150.3383  144.7990  160.0237 F   0  0  0  0  0  0  0  0  0  0  0  0
  152.0879  145.1048  161.2559 F   0  0  0  0  0  0  0  0  0  0  0  0
  152.1561  145.5642  159.1479 F   0  0  0  0  0  0  0  0  0  0  0  0
  153.0070  142.5711  160.6339 C   0  0  0  0  0  0  0  0  0  0  0  0
  153.4739  141.3480  160.3160 C   0  0  0  0  0  0  0  0  0  0  0  0
  153.1221  140.6980  159.0516 C   0  0  0  0  0  0  0  0  0  0  0  0
  153.5422  139.5806  158.7496 O   0  0  0  0  0  0  0  0  0  0  0  0
  148.4129  139.7022  153.7552 C   0  0  0  0  0  0  0  0  0  0  0  0
  147.0912  140.2125  153.1831 C   0  0  0  0  0  0  0  0  0  0  0  0
  146.9157  141.6170  153.7669 C   0  0  0  0  0  0  0  0  0  0  0  0
  147.8906  141.7199  154.9498 C   0  0  0  0  0  0  0  0  0  0  0  0
  150.5815  140.0184  154.9240 H   0  0  0  0  0  0  0  0  0  0  0  0
  152.2057  139.8355  156.8192 H   0  0  0  0  0  0  0  0  0  0  0  0
  152.3725  141.4116  156.1186 H   0  0  0  0  0  0  0  0  0  0  0  0
  151.2164  143.1681  157.8169 H   0  0  0  0  0  0  0  0  0  0  0  0
  153.2895  143.0099  161.5796 H   0  0  0  0  0  0  0  0  0  0  0  0
  154.1214  140.8320  161.0098 H   0  0  0  0  0  0  0  0  0  0  0  0
  149.2316  140.0636  153.1302 H   0  0  0  0  0  0  0  0  0  0  0  0
  148.4682  138.6129  153.7670 H   0  0  0  0  0  0  0  0  0  0  0  0
  147.0794  140.2083  152.0927 H   0  0  0  0  0  0  0  0  0  0  0  0
  146.2762  139.5721  153.5232 H   0  0  0  0  0  0  0  0  0  0  0  0
  147.1498  142.3775  153.0209 H   0  0  0  0  0  0  0  0  0  0  0  0
  145.8846  141.7780  154.0834 H   0  0  0  0  0  0  0  0  0  0  0  0
  147.3995  142.0901  155.8508 H   0  0  0  0  0  0  0  0  0  0  0  0
  148.6697  142.4410  154.6962 H   0  0  0  0  0  0  0  0  0  0  0  0
  1  2  3  0  0  0  0
  2  3  1  0  0  0  0
  3 22  1  0  0  0  0
  3  4  1  0  0  0  0
  3 19  1  0  0  0  0
  4  5  1  0  0  0  0
  4 23  1  0  0  0  0
  5  6  2  0  0  0  0
  5  7  1  0  0  0  0
  7  8  1  0  0  0  0
  7 24  1  0  0  0  0
  7 25  1  0  0  0  0
  8 17  1  0  0  0  0
  8  9  1  0  0  0  0
  9 10  2  0  0  0  0
  9 26  1  0  0  0  0
 10 11  1  0  0  0  0
 10 15  1  0  0  0  0
 11 12  1  0  0  0  0
 11 13  1  0  0  0  0
 11 14  1  0  0  0  0
 15 16  2  0  0  0  0
 15 27  1  0  0  0  0
 16 17  1  0  0  0  0
 16 28  1  0  0  0  0
 17 18  2  0  0  0  0
 19 20  1  0  0  0  0
 19 29  1  0  0  0  0
 19 30  1  0  0  0  0
 20 21  1  0  0  0  0
 20 31  1  0  0  0  0
 20 32  1  0  0  0  0
 21 22  1  0  0  0  0
 21 33  1  0  0  0  0
 21 34  1  0  0  0  0
 22 35  1  0  0  0  0
 22 36  1  0  0  0  0
M  END
> <s_m_source_file>
AV-unprocessed.smi

> <i_m_source_file_index>
599

> <i_lp_mmshare_version>
43012

> <i_f3d_flags>
0

> <s_epik_input>
W0NIMl0xW0NIMl1bQ0gyXVtDSDJdQzEoQyNOKVtOSF1DKD1PKVtDSDJdbjJbY0hdYyhDKEYpKEYpRilbY0hdW2NIXWMyPU8=

> <s_epik_cmdline>
J2VwaWtfcHl0aG9uJywgJy1waCcsICc3LjAnLCAnLXRuJywgJzgnLCAnLW1hJywgJzIwMCcsICctbWV0YWxfYmluZGluZycsICctaW1hZScsICc8aW5maWxlLm1hZT4nLCAnLW9tYWUnLCAnPG91dGZpbGUubWFlPic=

> <r_lp_tautomer_probability>
1

> <r_epik_Ionization_Penalty>
4.74739e-07

> <r_epik_Ionization_Penalty_Charging>
1.48482e-08

> <r_epik_Ionization_Penalty_Neutral>
4.59891e-07

> <r_epik_State_Penalty>
-0

> <r_epik_Charging_Adjusted_Penalty>
1.48482e-08

> <i_epik_Tot_Q>
0

> <i_epik_Tot_abs_Q>
0

> <r_epik_Metal_State_Penalty>
-0

> <b_epik_Metal_Only>
0

> <s_lp_Force_Field>
OPLS_2005

> <r_lp_Energy>
29.4695

> <b_lp_Chiralities_Consistent>
1

> <s_lp_Variant>
AV-unprocessed.smi:599-1

> <Gold.Version>
5.8.1

> <Gold.Id.Protein>
6NUR|6NUR_protein|mol2

> <Gold.PLP.Fitness>
44.0775

> <Gold.PLP.PLP>
-41.2406

> <Gold.PLP.part.hbond>
-1.0000

> <Gold.PLP.part.metal>
0.0000

> <Gold.PLP.part.buried>
-0.9007

> <Gold.PLP.part.nonpolar>
-38.8050

> <Gold.PLP.part.repulsive>
0.1434

> <Gold.PLP.ligand.clash>
0.0000

> <Gold.PLP.ligand.torsion>
0.1133

> <Gold.PLP.Chemscore.Hbond>
1.0000

> <Gold.PLP.Chemscore.CHOScore>
0.0000

> <Gold.PLP.Chemscore.Metal>
0.0000

> <Gold.Chemscore.Hbonds>
donor molecule, donor type, donor heavy atom, donor atom, acceptor molecule, acceptor atom, score
      P1  H  7997  8008       L1    18  0.98

> <Gold.PLP.Chemscore.Internal.Correction>
0.0636

> <Gold.Rescore>
     Score         DG    S(hbond)    S(metal)    S(lipo)     H(rot)  DE(clash)    DE(int)     intcor
     11.51     -14.11       0.78        0.00      87.91       1.66       0.93       1.68       ----

> <Gold.Chemscore.Fitness>
11.5108

> <Gold.Chemscore.DG>
-14.1143

> <Gold.Chemscore.ZeroCoef>
-5.4800

> <Gold.Chemscore.Hbond>
0.7778

> <Gold.Chemscore.Metal>
0.0000

> <Gold.Chemscore.Lipo>
87.9110

> <Gold.Chemscore.Internal_Hbond>
0.0000

> <Gold.Chemscore.DEClash>
0.9260

> <Gold.Chemscore.DEInternal>
1.6774

> <Gold.Chemscore.Rot>
1.6599

> <Gold.Chemscore.Internal.Correction>
   9.000000E+99

> <Gold.Chemscore.Hbonds>
donor molecule, donor type, donor heavy atom, donor atom, acceptor molecule, acceptor atom, score
      P1  H  7997  8008       L1    18  0.27

> <Gold.Chemscore.Hbond.Weighted>
-2.5979

> <Gold.Chemscore.Metal.Weighted>
-0.0000

> <Gold.Chemscore.Lipo.Weighted>
-10.2856

> <Gold.Chemscore.Internal_Hbond.Weighted>
0.0000

> <Gold.Chemscore.DEClash.Weighted>
0.9260

> <Gold.Chemscore.DEInternal.Weighted>
1.6774

> <Gold.Chemscore.Rot.Weighted>
4.2492

> <Gold.Chemscore.Internal.Correction.Weighted>
   9.000000E+99

> <Gold.Protein.RotatedTorsions>
[ 6907 6896 6895 6894 ] final   41.76 input  -60.11 | X-H torsion
[ 7974 7965 7964 7962 ] final -164.63 input  175.53 | X-H torsion
[ 8008 7997 7996 7995 ] final  -91.53 input   59.86 | X-H torsion
[ 10167 10162 10161 10158 ] final   -7.69 input  -65.29 | X-H torsion
[ 10718 10713 10712 10709 ] final -140.54 input   66.30 | X-H torsion
[ 10763 10752 10751 10750 ] final  126.68 input  -60.55 | X-H torsion
[ 11005 11000 10999 10996 ] final -120.26 input  -57.11 | X-H torsion

> <Gold.Protein.ActiveResidues>
 VAL166  LYS551  ARG553  GLY616  TRP617  ASP618  TYR619  PRO620  LYS621  CYS622 
 ASP623  PHE694  ASN695  SER759  ASP760  ASP761  ALA762  ILE779  LEU786  VAL792 
 PHE793  MET794  SER795  GLU796  ALA797  LYS798  CYS799  TRP800  GLU811  SER814 

> <Gold.Protein.RotatedAtoms>
  152.1994  134.8602  160.0509 H   0  0  0  0  0  0  0  0  0  0  0  0  # atno 6907 bound_to 6896
  151.9461  133.3647  159.3991 H   0  0  0  0  0  0  0  0  0  0  0  0  # atno 6908 bound_to 6896
  150.6951  134.4313  159.5293 H   0  0  0  0  0  0  0  0  0  0  0  0  # atno 6909 bound_to 6896
  144.7291  140.2933  143.6217 H   0  0  0  0  0  0  0  0  0  0  0  0  # atno 7974 bound_to 7965
  154.7118  140.0518  157.0557 H   0  0  0  0  0  0  0  0  0  0  0  0  # atno 8008 bound_to 7997
  155.0544  140.3182  155.4662 H   0  0  0  0  0  0  0  0  0  0  0  0  # atno 8009 bound_to 7997
  156.2791  140.2110  156.5670 H   0  0  0  0  0  0  0  0  0  0  0  0  # atno 8010 bound_to 7997
  140.7037  143.6052  150.8758 H   0  0  0  0  0  0  0  0  0  0  0  0  # atno 10167 bound_to 10162
  156.3235  130.7547  151.1650 H   0  0  0  0  0  0  0  0  0  0  0  0  # atno 10718 bound_to 10713
  153.6972  135.3289  155.3216 H   0  0  0  0  0  0  0  0  0  0  0  0  # atno 10763 bound_to 10752
  154.8423  135.4445  154.1448 H   0  0  0  0  0  0  0  0  0  0  0  0  # atno 10764 bound_to 10752
  153.2506  135.6981  153.7762 H   0  0  0  0  0  0  0  0  0  0  0  0  # atno 10765 bound_to 10752
  141.0156  134.0200  157.3354 H   0  0  0  0  0  0  0  0  0  0  0  0  # atno 11005 bound_to 11000
  145.7833  139.1899  143.2145 LP  0  0  0  0  0  0  0  0  0  0  0  0  # atno 17320 bound_to 7965
  146.0816  140.7758  142.9639 LP  0  0  0  0  0  0  0  0  0  0  0  0  # atno 17321 bound_to 7965
  139.9776  143.5987  152.2953 LP  0  0  0  0  0  0  0  0  0  0  0  0  # atno 17342 bound_to 10162
  139.6596  144.7662  151.1988 LP  0  0  0  0  0  0  0  0  0  0  0  0  # atno 17343 bound_to 10162
  157.7416  131.0501  150.5082 LP  0  0  0  0  0  0  0  0  0  0  0  0  # atno 17370 bound_to 10713
  156.5237  130.4168  149.6237 LP  0  0  0  0  0  0  0  0  0  0  0  0  # atno 17371 bound_to 10713
  139.9115  135.0191  156.7710 LP  0  0  0  0  0  0  0  0  0  0  0  0  # atno 17394 bound_to 11000
  140.6660  133.9602  155.7830 LP  0  0  0  0  0  0  0  0  0  0  0  0  # atno 17395 bound_to 11000

$$$$
