AV-unprocessed.smi:1484|AV-procd|sdf|5995|dock7
  -GOLD-   22720 6 93D 1   1.00000     0.00000
 Structure written by MMmdl.
 37 38  0  0  0  0  0  0  0  0  2 V2000
  153.3158  141.5509  160.6624 C   0  0  0  0  0  0  0  0  0  0  0  0
  152.9751  142.6624  159.6595 C   0  0  2  0  0  0  0  0  0  0  0  0
  152.4829  143.9351  160.3744 C   0  0  0  0  0  0  0  0  0  0  0  0
  152.1451  145.0477  159.3701 C   0  0  0  0  0  0  0  0  0  0  0  0
  151.1104  144.5711  158.3394 C   0  0  0  0  0  0  0  0  0  0  0  0
  151.5869  143.3007  157.6117 C   0  0  2  0  0  0  0  0  0  0  0  0
  150.5500  142.8510  156.6880 N   0  0  0  0  0  0  0  0  0  0  0  0
  150.5914  141.7249  155.9594 C   0  0  0  0  0  0  0  0  0  0  0  0
  151.5340  140.9322  156.0010 O   0  0  0  0  0  0  0  0  0  0  0  0
  149.3699  141.4720  155.0611 C   0  0  0  0  0  0  0  0  0  0  0  0
  148.8853  140.0840  155.0755 N   0  0  0  0  0  0  0  0  0  0  0  0
  147.4918  139.9501  155.4919 N   0  5  0  0  0  0  0  0  0  0  0  0
  146.9374  138.7109  155.5627 C   0  0  0  0  0  0  0  0  0  0  0  0
  145.7777  138.5192  155.9209 O   0  0  0  0  0  0  0  0  0  0  0  0
  147.7599  137.5712  155.1922 C   0  0  0  0  0  0  0  0  0  0  0  0
  149.0365  137.7263  154.7894 C   0  0  0  0  0  0  0  0  0  0  0  0
  149.6736  139.0349  154.7038 C   0  0  0  0  0  0  0  0  0  0  0  0
  150.8363  139.1844  154.3274 O   0  0  0  0  0  0  0  0  0  0  0  0
  151.9361  142.1893  158.6240 C   0  0  0  0  0  0  0  0  0  0  0  0
  152.4377  141.2500  161.2348 H   0  0  0  0  0  0  0  0  0  0  0  0
  154.0778  141.8800  161.3693 H   0  0  0  0  0  0  0  0  0  0  0  0
  153.7000  140.6669  160.1527 H   0  0  0  0  0  0  0  0  0  0  0  0
  153.8919  142.9116  159.1232 H   0  0  0  0  0  0  0  0  0  0  0  0
  151.5997  143.7046  160.9719 H   0  0  0  0  0  0  0  0  0  0  0  0
  153.2428  144.2905  161.0711 H   0  0  0  0  0  0  0  0  0  0  0  0
  151.7668  145.9232  159.8986 H   0  0  0  0  0  0  0  0  0  0  0  0
  153.0535  145.3653  158.8565 H   0  0  0  0  0  0  0  0  0  0  0  0
  150.1631  144.3749  158.8441 H   0  0  0  0  0  0  0  0  0  0  0  0
  150.9178  145.3660  157.6179 H   0  0  0  0  0  0  0  0  0  0  0  0
  152.4831  143.5529  157.0412 H   0  0  0  0  0  0  0  0  0  0  0  0
  149.7363  143.4411  156.5948 H   0  0  0  0  0  0  0  0  0  0  0  0
  148.5744  142.1523  155.3714 H   0  0  0  0  0  0  0  0  0  0  0  0
  149.6180  141.7622  154.0386 H   0  0  0  0  0  0  0  0  0  0  0  0
  147.3371  136.5785  155.2391 H   0  0  0  0  0  0  0  0  0  0  0  0
  149.6106  136.8514  154.5231 H   0  0  0  0  0  0  0  0  0  0  0  0
  152.3195  141.3150  158.0962 H   0  0  0  0  0  0  0  0  0  0  0  0
  151.0303  141.8644  159.1383 H   0  0  0  0  0  0  0  0  0  0  0  0
  1  2  1  0  0  0  0
  1 20  1  0  0  0  0
  1 21  1  0  0  0  0
  1 22  1  0  0  0  0
  2 19  1  0  0  0  0
  2  3  1  0  0  0  0
  2 23  1  0  0  0  0
  3  4  1  0  0  0  0
  3 24  1  0  0  0  0
  3 25  1  0  0  0  0
  4  5  1  0  0  0  0
  4 26  1  0  0  0  0
  4 27  1  0  0  0  0
  5  6  1  0  0  0  0
  5 28  1  0  0  0  0
  5 29  1  0  0  0  0
  6  7  1  0  0  0  0
  6 19  1  0  0  0  0
  6 30  1  0  0  0  0
  7  8  1  0  0  0  0
  7 31  1  0  0  0  0
  8  9  2  0  0  0  0
  8 10  1  0  0  0  0
 10 32  1  0  0  0  0
 10 33  1  0  0  0  0
 10 11  1  0  0  0  0
 11 12  1  0  0  0  0
 11 17  1  0  0  0  0
 12 13  1  0  0  0  0
 13 14  2  0  0  0  0
 13 15  1  0  0  0  0
 15 34  1  0  0  0  0
 15 16  2  0  0  0  0
 16 35  1  0  0  0  0
 16 17  1  0  0  0  0
 17 18  2  0  0  0  0
 19 36  1  0  0  0  0
 19 37  1  0  0  0  0
M  CHG  1  12  -1
M  END
> <s_m_source_file>
AV-unprocessed.smi

> <i_m_source_file_index>
1484

> <i_lp_mmshare_version>
43012

> <i_f3d_flags>
0

> <s_epik_input>
W0NIM11bQ0BASF0xW0NIMl1bQ0gyXVtDSDJdW0NASF0oW0NIMl0xKVtOSF1DKD1PKVtDSDJdbjJbbkhdYyg9TylbY0hdW2NIXWMyPU8=

> <s_epik_cmdline>
J2VwaWtfcHl0aG9uJywgJy1waCcsICc3LjAnLCAnLXRuJywgJzgnLCAnLW1hJywgJzIwMCcsICctbWV0YWxfYmluZGluZycsICctaW1hZScsICc8aW5maWxlLm1hZT4nLCAnLW9tYWUnLCAnPG91dGZpbGUubWFlPic=

> <r_lp_tautomer_probability>
1

> <r_epik_Ionization_Penalty>
0.101352

> <r_epik_Ionization_Penalty_Charging>
0.101352

> <r_epik_Ionization_Penalty_Neutral>
1.90469e-08

> <r_epik_State_Penalty>
0.0358555

> <r_epik_Charging_Adjusted_Penalty>
0.137208

> <i_epik_Tot_Q>
-1

> <i_epik_Tot_abs_Q>
1

> <r_epik_Metal_State_Penalty>
0.0358555

> <b_epik_Metal_Only>
0

> <s_lp_Force_Field>
OPLS_2005

> <r_lp_Energy>
24.7991

> <b_lp_Chiralities_Consistent>
1

> <s_lp_Variant>
AV-unprocessed.smi:1484-3

> <Gold.Version>
5.8.1

> <Gold.Id.Protein>
6NUR|6NUR_protein|mol2

> <Gold.PLP.Fitness>
42.1971

> <Gold.PLP.PLP>
-36.7235

> <Gold.PLP.part.hbond>
-2.2958

> <Gold.PLP.part.metal>
0.0000

> <Gold.PLP.part.buried>
-3.6537

> <Gold.PLP.part.nonpolar>
-30.3257

> <Gold.PLP.part.repulsive>
0.3126

> <Gold.PLP.ligand.clash>
0.0000

> <Gold.PLP.ligand.torsion>
0.2659

> <Gold.PLP.Chemscore.Hbond>
2.0000

> <Gold.PLP.Chemscore.CHOScore>
0.0000

> <Gold.PLP.Chemscore.Metal>
0.0000

> <Gold.Chemscore.Hbonds>
donor molecule, donor type, donor heavy atom, donor atom, acceptor molecule, acceptor atom, score
      L1  H     7    31       P1  8028  0.96
      P1  H  7989  7998       L1    18  0.99

> <Gold.PLP.Chemscore.Internal.Correction>
0.0054

> <Gold.Rescore>
     Score         DG    S(hbond)    S(metal)    S(lipo)     H(rot)  DE(clash)    DE(int)     intcor
     16.61     -18.81       1.99        0.00      93.45       1.65       0.51       1.68       ----

> <Gold.Chemscore.Fitness>
16.6150

> <Gold.Chemscore.DG>
-18.8090

> <Gold.Chemscore.ZeroCoef>
-5.4800

> <Gold.Chemscore.Hbond>
1.9855

> <Gold.Chemscore.Metal>
0.0000

> <Gold.Chemscore.Lipo>
93.4522

> <Gold.Chemscore.Internal_Hbond>
0.0000

> <Gold.Chemscore.DEClash>
0.5117

> <Gold.Chemscore.DEInternal>
1.6823

> <Gold.Chemscore.Rot>
1.6549

> <Gold.Chemscore.Internal.Correction>
   9.000000E+99

> <Gold.Chemscore.Hbonds>
donor molecule, donor type, donor heavy atom, donor atom, acceptor molecule, acceptor atom, score
      L1  H     7    31       P1  8028  0.92
      P1  H  7989  7998       L1    18  0.92

> <Gold.Chemscore.Hbond.Weighted>
-6.6315

> <Gold.Chemscore.Metal.Weighted>
-0.0000

> <Gold.Chemscore.Lipo.Weighted>
-10.9339

> <Gold.Chemscore.Internal_Hbond.Weighted>
0.0000

> <Gold.Chemscore.DEClash.Weighted>
0.5117

> <Gold.Chemscore.DEInternal.Weighted>
1.6823

> <Gold.Chemscore.Rot.Weighted>
4.2364

> <Gold.Chemscore.Internal.Correction.Weighted>
   9.000000E+99

> <Gold.Protein.RotatedTorsions>
[ 6907 6896 6895 6894 ] final  -99.19 input  -60.11 | X-H torsion
[ 7974 7965 7964 7962 ] final   47.46 input  175.53 | X-H torsion
[ 8008 7997 7996 7995 ] final -118.64 input   59.86 | X-H torsion
[ 10167 10162 10161 10158 ] final  -74.38 input  -65.29 | X-H torsion
[ 10718 10713 10712 10709 ] final   68.52 input   66.30 | X-H torsion
[ 10763 10752 10751 10750 ] final  -17.34 input  -60.55 | X-H torsion
[ 11005 11000 10999 10996 ] final  173.77 input  -57.11 | X-H torsion

> <Gold.Protein.ActiveResidues>
 VAL166  LYS551  ARG553  GLY616  TRP617  ASP618  TYR619  PRO620  LYS621  CYS622 
 ASP623  PHE694  ASN695  SER759  ASP760  ASP761  ALA762  ILE779  LEU786  VAL792 
 PHE793  MET794  SER795  GLU796  ALA797  LYS798  CYS799  TRP800  GLU811  SER814 

> <Gold.Protein.RotatedAtoms>
  150.7071  134.1079  159.3989 H   0  0  0  0  0  0  0  0  0  0  0  0  # atno 6907 bound_to 6896
  151.9066  135.0354  160.0520 H   0  0  0  0  0  0  0  0  0  0  0  0  # atno 6908 bound_to 6896
  152.2371  133.5069  159.5285 H   0  0  0  0  0  0  0  0  0  0  0  0  # atno 6909 bound_to 6896
  146.0295  139.4747  142.9846 H   0  0  0  0  0  0  0  0  0  0  0  0  # atno 7974 bound_to 7965
  155.1030  140.0396  157.2702 H   0  0  0  0  0  0  0  0  0  0  0  0  # atno 8008 bound_to 7997
  154.6743  140.2619  155.6948 H   0  0  0  0  0  0  0  0  0  0  0  0  # atno 8009 bound_to 7997
  156.2670  140.2791  156.1264 H   0  0  0  0  0  0  0  0  0  0  0  0  # atno 8010 bound_to 7997
  140.5031  143.2357  151.7718 H   0  0  0  0  0  0  0  0  0  0  0  0  # atno 10167 bound_to 10162
  157.6294  130.9377  150.0388 H   0  0  0  0  0  0  0  0  0  0  0  0  # atno 10718 bound_to 10713
  153.5723  135.7007  153.5499 H   0  0  0  0  0  0  0  0  0  0  0  0  # atno 10763 bound_to 10752
  153.3333  135.4041  155.1513 H   0  0  0  0  0  0  0  0  0  0  0  0  # atno 10764 bound_to 10752
  154.8631  135.3724  154.5247 H   0  0  0  0  0  0  0  0  0  0  0  0  # atno 10765 bound_to 10752
  140.3441  134.7251  157.4222 H   0  0  0  0  0  0  0  0  0  0  0  0  # atno 11005 bound_to 11000
  145.7063  141.0120  143.1477 LP  0  0  0  0  0  0  0  0  0  0  0  0  # atno 17320 bound_to 7965
  144.7024  139.8704  143.7440 LP  0  0  0  0  0  0  0  0  0  0  0  0  # atno 17321 bound_to 7965
  139.4877  144.4494  151.9672 LP  0  0  0  0  0  0  0  0  0  0  0  0  # atno 17342 bound_to 10162
  140.3584  144.3003  150.5937 LP  0  0  0  0  0  0  0  0  0  0  0  0  # atno 17343 bound_to 10162
  156.1486  130.3642  149.9472 LP  0  0  0  0  0  0  0  0  0  0  0  0  # atno 17370 bound_to 10713
  156.7496  130.9110  151.3636 LP  0  0  0  0  0  0  0  0  0  0  0  0  # atno 17371 bound_to 10713
  140.0757  134.5801  155.8594 LP  0  0  0  0  0  0  0  0  0  0  0  0  # atno 17394 bound_to 11000
  141.2030  133.6629  156.6040 LP  0  0  0  0  0  0  0  0  0  0  0  0  # atno 17395 bound_to 11000

$$$$
