AV-unprocessed.smi:1336|AV-procd|sdf|5497|dock5
  -GOLD-   22720 5 83D 1   1.00000     0.00000
 Structure written by MMmdl.
 43 43  0  0  0  0  0  0  0  0  1 V2000
  146.4420  142.2172  154.3096 C   0  0  0  0  0  0  0  0  0  0  0  0
  147.4132  141.0354  154.3995 C   0  0  0  0  0  0  0  0  0  0  0  0
  148.1150  140.9553  155.7649 C   0  0  0  0  0  0  0  0  0  0  0  0
  148.9905  139.7927  155.8523 N   0  0  0  0  0  0  0  0  0  0  0  0
  150.0459  139.5599  155.0572 C   0  0  0  0  0  0  0  0  0  0  0  0
  150.3824  140.3154  154.1436 O   0  0  0  0  0  0  0  0  0  0  0  0
  150.8275  138.2638  155.3291 C   0  0  1  0  0  0  0  0  0  0  0  0
  152.1136  138.2945  154.4868 C   0  0  0  0  0  0  0  0  0  0  0  0
  151.2107  138.1749  156.7376 N   0  0  0  0  0  0  0  0  0  0  0  0
  151.9754  139.0654  157.3903 C   0  0  0  0  0  0  0  0  0  0  0  0
  152.4358  140.0765  156.8587 O   0  0  0  0  0  0  0  0  0  0  0  0
  152.2686  138.7658  158.8629 C   0  0  0  0  0  0  0  0  0  0  0  0
  152.8997  139.9547  159.5278 C   0  0  0  0  0  0  0  0  0  0  0  0
  154.1999  140.0679  159.9548 C   0  0  0  0  0  0  0  0  0  0  0  0
  154.5141  141.6217  160.6776 S   0  0  0  0  0  0  0  0  0  0  0  0
  152.8421  142.0739  160.3632 C   0  0  0  0  0  0  0  0  0  0  0  0
  152.2670  143.4042  160.7362 C   0  0  0  0  0  0  0  0  0  0  0  0
  152.5285  144.4675  159.6594 C   0  0  0  0  0  0  0  0  0  0  0  0
  152.7036  143.8495  162.1393 C   0  0  0  0  0  0  0  0  0  0  0  0
  152.1428  141.1073  159.7613 N   0  0  0  0  0  0  0  0  0  0  0  0
  145.9562  142.2477  153.3343 H   0  0  0  0  0  0  0  0  0  0  0  0
  146.9618  143.1650  154.4523 H   0  0  0  0  0  0  0  0  0  0  0  0
  145.6621  142.1447  155.0680 H   0  0  0  0  0  0  0  0  0  0  0  0
  146.8698  140.1087  154.2114 H   0  0  0  0  0  0  0  0  0  0  0  0
  148.1552  141.1243  153.6052 H   0  0  0  0  0  0  0  0  0  0  0  0
  148.6826  141.8671  155.9586 H   0  0  0  0  0  0  0  0  0  0  0  0
  147.3728  140.8781  156.5599 H   0  0  0  0  0  0  0  0  0  0  0  0
  148.7845  139.1197  156.5764 H   0  0  0  0  0  0  0  0  0  0  0  0
  150.2286  137.3939  155.0511 H   0  0  0  0  0  0  0  0  0  0  0  0
  151.8877  138.3490  153.4211 H   0  0  0  0  0  0  0  0  0  0  0  0
  152.7049  137.3922  154.6462 H   0  0  0  0  0  0  0  0  0  0  0  0
  152.7438  139.1494  154.7371 H   0  0  0  0  0  0  0  0  0  0  0  0
  150.8830  137.3673  157.2471 H   0  0  0  0  0  0  0  0  0  0  0  0
  151.3497  138.4862  159.3803 H   0  0  0  0  0  0  0  0  0  0  0  0
  152.9261  137.8972  158.9150 H   0  0  0  0  0  0  0  0  0  0  0  0
  154.9881  139.3325  159.8916 H   0  0  0  0  0  0  0  0  0  0  0  0
  151.1855  143.2697  160.7791 H   0  0  0  0  0  0  0  0  0  0  0  0
  152.1328  144.1527  158.6933 H   0  0  0  0  0  0  0  0  0  0  0  0
  153.5960  144.6538  159.5376 H   0  0  0  0  0  0  0  0  0  0  0  0
  152.0535  145.4139  159.9185 H   0  0  0  0  0  0  0  0  0  0  0  0
  152.4256  143.1093  162.8902 H   0  0  0  0  0  0  0  0  0  0  0  0
  152.2331  144.7934  162.4159 H   0  0  0  0  0  0  0  0  0  0  0  0
  153.7837  143.9894  162.1926 H   0  0  0  0  0  0  0  0  0  0  0  0
  1  2  1  0  0  0  0
  1 21  1  0  0  0  0
  1 22  1  0  0  0  0
  1 23  1  0  0  0  0
  2  3  1  0  0  0  0
  2 24  1  0  0  0  0
  2 25  1  0  0  0  0
  3  4  1  0  0  0  0
  3 26  1  0  0  0  0
  3 27  1  0  0  0  0
  4  5  1  0  0  0  0
  4 28  1  0  0  0  0
  5  6  2  0  0  0  0
  5  7  1  0  0  0  0
  7  8  1  0  0  0  0
  7  9  1  0  0  0  0
  7 29  1  0  0  0  0
  8 30  1  0  0  0  0
  8 31  1  0  0  0  0
  8 32  1  0  0  0  0
  9 10  1  0  0  0  0
  9 33  1  0  0  0  0
 10 11  2  0  0  0  0
 10 12  1  0  0  0  0
 12 13  1  0  0  0  0
 12 34  1  0  0  0  0
 12 35  1  0  0  0  0
 13 20  1  0  0  0  0
 13 14  2  0  0  0  0
 14 15  1  0  0  0  0
 14 36  1  0  0  0  0
 15 16  1  0  0  0  0
 16 17  1  0  0  0  0
 16 20  2  0  0  0  0
 17 18  1  0  0  0  0
 17 19  1  0  0  0  0
 17 37  1  0  0  0  0
 18 38  1  0  0  0  0
 18 39  1  0  0  0  0
 18 40  1  0  0  0  0
 19 41  1  0  0  0  0
 19 42  1  0  0  0  0
 19 43  1  0  0  0  0
M  END
> <s_m_source_file>
AV-unprocessed.smi

> <i_m_source_file_index>
1336

> <i_lp_mmshare_version>
43012

> <i_f3d_flags>
0

> <s_epik_input>
W0NIM11bQ0gyXVtDSDJdW05IXUMoPU8pW0NASF0oW0NIM10pW05IXUMoPU8pW0NIMl1jMVtjSF1zYyhuMSlbQ0hdKFtDSDNdKVtDSDNd

> <s_epik_cmdline>
J2VwaWtfcHl0aG9uJywgJy1waCcsICc3LjAnLCAnLXRuJywgJzgnLCAnLW1hJywgJzIwMCcsICctbWV0YWxfYmluZGluZycsICctaW1hZScsICc8aW5maWxlLm1hZT4nLCAnLW9tYWUnLCAnPG91dGZpbGUubWFlPic=

> <r_lp_tautomer_probability>
1

> <r_epik_Ionization_Penalty>
3.10785e-05

> <r_epik_Ionization_Penalty_Charging>
0

> <r_epik_Ionization_Penalty_Neutral>
3.10785e-05

> <r_epik_State_Penalty>
-0

> <r_epik_Charging_Adjusted_Penalty>
0

> <i_epik_Tot_Q>
0

> <i_epik_Tot_abs_Q>
0

> <r_epik_Metal_State_Penalty>
-0

> <b_epik_Metal_Only>
0

> <s_lp_Force_Field>
OPLS_2005

> <r_lp_Energy>
-5.85781

> <b_lp_Chiralities_Consistent>
1

> <s_lp_Variant>
AV-unprocessed.smi:1336-2

> <Gold.Version>
5.8.1

> <Gold.Id.Protein>
6NUR|6NUR_protein|mol2

> <Gold.PLP.Fitness>
43.5893

> <Gold.PLP.PLP>
-39.8412

> <Gold.PLP.part.hbond>
-1.5828

> <Gold.PLP.part.metal>
0.0000

> <Gold.PLP.part.buried>
-5.3580

> <Gold.PLP.part.nonpolar>
-32.9082

> <Gold.PLP.part.repulsive>
1.3697

> <Gold.PLP.ligand.clash>
0.0000

> <Gold.PLP.ligand.torsion>
0.9308

> <Gold.PLP.Chemscore.Hbond>
1.7966

> <Gold.PLP.Chemscore.CHOScore>
0.0000

> <Gold.PLP.Chemscore.Metal>
0.0000

> <Gold.Chemscore.Hbonds>
donor molecule, donor type, donor heavy atom, donor atom, acceptor molecule, acceptor atom, score
      P1  H  7989  7998       L1     6  0.90
      P1  H  7997  8010       L1    11  1.00

> <Gold.PLP.Chemscore.Internal.Correction>
0.2199

> <Gold.Rescore>
     Score         DG    S(hbond)    S(metal)    S(lipo)     H(rot)  DE(clash)    DE(int)     intcor
     15.36     -18.47       1.79        0.00     104.33       2.04       0.32       2.79       ----

> <Gold.Chemscore.Fitness>
15.3612

> <Gold.Chemscore.DG>
-18.4681

> <Gold.Chemscore.ZeroCoef>
-5.4800

> <Gold.Chemscore.Hbond>
1.7939

> <Gold.Chemscore.Metal>
0.0000

> <Gold.Chemscore.Lipo>
104.3308

> <Gold.Chemscore.Internal_Hbond>
0.0000

> <Gold.Chemscore.DEClash>
0.3158

> <Gold.Chemscore.DEInternal>
2.7910

> <Gold.Chemscore.Rot>
2.0353

> <Gold.Chemscore.Internal.Correction>
   9.000000E+99

> <Gold.Chemscore.Hbonds>
donor molecule, donor type, donor heavy atom, donor atom, acceptor molecule, acceptor atom, score
      P1  H  7989  7998       L1     6  0.83
      P1  H  7997  8010       L1    11  0.94

> <Gold.Chemscore.Hbond.Weighted>
-5.9918

> <Gold.Chemscore.Metal.Weighted>
-0.0000

> <Gold.Chemscore.Lipo.Weighted>
-12.2067

> <Gold.Chemscore.Internal_Hbond.Weighted>
0.0000

> <Gold.Chemscore.DEClash.Weighted>
0.3158

> <Gold.Chemscore.DEInternal.Weighted>
2.7910

> <Gold.Chemscore.Rot.Weighted>
5.2104

> <Gold.Chemscore.Internal.Correction.Weighted>
   9.000000E+99

> <Gold.Protein.RotatedTorsions>
[ 6907 6896 6895 6894 ] final -166.88 input  -60.11 | X-H torsion
[ 7974 7965 7964 7962 ] final  -73.56 input  175.53 | X-H torsion
[ 8008 7997 7996 7995 ] final   70.14 input   59.86 | X-H torsion
[ 10167 10162 10161 10158 ] final  160.20 input  -65.29 | X-H torsion
[ 10718 10713 10712 10709 ] final  -49.81 input   66.30 | X-H torsion
[ 10763 10752 10751 10750 ] final  152.66 input  -60.55 | X-H torsion
[ 11005 11000 10999 10996 ] final  159.18 input  -57.11 | X-H torsion

> <Gold.Protein.ActiveResidues>
 VAL166  LYS551  ARG553  GLY616  TRP617  ASP618  TYR619  PRO620  LYS621  CYS622 
 ASP623  PHE694  ASN695  SER759  ASP760  ASP761  ALA762  ILE779  LEU786  VAL792 
 PHE793  MET794  SER795  GLU796  ALA797  LYS798  CYS799  TRP800  GLU811  SER814 

> <Gold.Protein.RotatedAtoms>
  151.4507  133.3618  159.2794 H   0  0  0  0  0  0  0  0  0  0  0  0  # atno 6907 bound_to 6896
  150.9093  134.8511  159.7425 H   0  0  0  0  0  0  0  0  0  0  0  0  # atno 6908 bound_to 6896
  152.4923  134.4435  159.9603 H   0  0  0  0  0  0  0  0  0  0  0  0  # atno 6909 bound_to 6896
  145.6506  140.9283  143.0987 H   0  0  0  0  0  0  0  0  0  0  0  0  # atno 7974 bound_to 7965
  155.7343  140.3491  155.5074 H   0  0  0  0  0  0  0  0  0  0  0  0  # atno 8008 bound_to 7997
  155.9154  140.1057  157.1269 H   0  0  0  0  0  0  0  0  0  0  0  0  # atno 8009 bound_to 7997
  154.4062  140.1260  156.4597 H   0  0  0  0  0  0  0  0  0  0  0  0  # atno 8010 bound_to 7997
  139.4838  144.4657  151.8645 H   0  0  0  0  0  0  0  0  0  0  0  0  # atno 10167 bound_to 10162
  156.1859  130.4151  149.9440 H   0  0  0  0  0  0  0  0  0  0  0  0  # atno 10718 bound_to 10713
  154.1236  135.2831  155.3202 H   0  0  0  0  0  0  0  0  0  0  0  0  # atno 10763 bound_to 10752
  154.6405  135.5404  153.7787 H   0  0  0  0  0  0  0  0  0  0  0  0  # atno 10764 bound_to 10752
  153.0304  135.6485  154.1389 H   0  0  0  0  0  0  0  0  0  0  0  0  # atno 10765 bound_to 10752
  140.1936  134.8389  157.2940 H   0  0  0  0  0  0  0  0  0  0  0  0  # atno 11005 bound_to 11000
  144.7124  139.8322  143.7410 LP  0  0  0  0  0  0  0  0  0  0  0  0  # atno 17320 bound_to 7965
  146.1207  139.4224  143.0230 LP  0  0  0  0  0  0  0  0  0  0  0  0  # atno 17321 bound_to 7965
  140.4122  144.2354  150.5888 LP  0  0  0  0  0  0  0  0  0  0  0  0  # atno 17342 bound_to 10162
  140.4955  143.2334  151.8756 LP  0  0  0  0  0  0  0  0  0  0  0  0  # atno 17343 bound_to 10162
  156.7196  130.9001  151.3617 LP  0  0  0  0  0  0  0  0  0  0  0  0  # atno 17370 bound_to 10713
  157.6898  130.9222  150.0484 LP  0  0  0  0  0  0  0  0  0  0  0  0  # atno 17371 bound_to 10713
  140.2132  134.4114  155.7602 LP  0  0  0  0  0  0  0  0  0  0  0  0  # atno 17394 bound_to 11000
  141.2226  133.7128  156.8371 LP  0  0  0  0  0  0  0  0  0  0  0  0  # atno 17395 bound_to 11000

$$$$
