AV-unprocessed.smi:755|AV-procd|sdf|3611|dock8
  -GOLD-   22720 1 03D 1   1.00000     0.00000
 Structure written by MMmdl.
 33 34  0  0  0  0  0  0  0  0  1 V2000
  151.9857  140.2737  155.1000 O   0  0  0  0  0  0  0  0  0  0  0  0
  150.9105  140.1737  155.6903 C   0  0  0  0  0  0  0  0  0  0  0  0
  149.8131  139.2662  155.1305 C   0  0  0  0  0  0  0  0  0  0  0  0
  148.6719  140.0342  154.6634 N   0  0  0  0  0  0  0  0  0  0  0  0
  148.4249  141.3836  154.8316 C   0  0  0  0  0  0  0  0  0  0  0  0
  147.2327  141.6136  154.2159 C   0  0  0  0  0  0  0  0  0  0  0  0
  146.4061  143.1226  154.0970 Cl  0  0  0  0  0  0  0  0  0  0  0  0
  146.8047  140.3674  153.6922 C   0  0  0  0  0  0  0  0  0  0  0  0
  147.6830  139.4142  153.9683 N   0  0  0  0  0  0  0  0  0  0  0  0
  150.6315  140.8207  156.8333 N   0  0  0  0  0  0  0  0  0  0  0  0
  151.5464  141.7084  157.5474 C   0  0  0  0  0  0  0  0  0  0  0  0
  152.4479  140.9679  158.5518 C   0  0  0  0  0  0  0  0  0  0  0  0
  152.9508  139.8852  158.2453 O   0  0  0  0  0  0  0  0  0  0  0  0
  152.6489  141.5318  159.7609 N   0  0  0  0  0  0  0  0  0  0  0  0
  152.0858  142.8028  160.2157 C   0  0  0  0  0  0  0  0  0  0  0  0
  152.4023  142.8850  161.7094 C   0  0  0  0  0  0  0  0  0  0  0  0
  153.6350  142.0078  161.8789 C   0  0  0  0  0  0  0  0  0  0  0  0
  153.4762  140.9309  160.8054 C   0  0  0  0  0  0  0  0  0  0  0  0
  150.2021  138.6796  154.2970 H   0  0  0  0  0  0  0  0  0  0  0  0
  149.4919  138.5601  155.8979 H   0  0  0  0  0  0  0  0  0  0  0  0
  149.1000  142.0403  155.3604 H   0  0  0  0  0  0  0  0  0  0  0  0
  145.9105  140.1275  153.1360 H   0  0  0  0  0  0  0  0  0  0  0  0
  149.7232  140.6728  157.2492 H   0  0  0  0  0  0  0  0  0  0  0  0
  152.1565  142.2655  156.8344 H   0  0  0  0  0  0  0  0  0  0  0  0
  150.9475  142.4406  158.0892 H   0  0  0  0  0  0  0  0  0  0  0  0
  152.5714  143.6196  159.6798 H   0  0  0  0  0  0  0  0  0  0  0  0
  151.0114  142.8688  160.0390 H   0  0  0  0  0  0  0  0  0  0  0  0
  152.5598  143.9078  162.0528 H   0  0  0  0  0  0  0  0  0  0  0  0
  151.5750  142.4638  162.2824 H   0  0  0  0  0  0  0  0  0  0  0  0
  154.5311  142.5963  161.6769 H   0  0  0  0  0  0  0  0  0  0  0  0
  153.7263  141.5940  162.8835 H   0  0  0  0  0  0  0  0  0  0  0  0
  152.9572  140.0607  161.2102 H   0  0  0  0  0  0  0  0  0  0  0  0
  154.4452  140.6021  160.4264 H   0  0  0  0  0  0  0  0  0  0  0  0
  1  2  2  0  0  0  0
  2  3  1  0  0  0  0
  2 10  1  0  0  0  0
  3  4  1  0  0  0  0
  3 19  1  0  0  0  0
  3 20  1  0  0  0  0
  4  9  1  0  0  0  0
  4  5  1  0  0  0  0
  5  6  2  0  0  0  0
  5 21  1  0  0  0  0
  6  7  1  0  0  0  0
  6  8  1  0  0  0  0
  8  9  2  0  0  0  0
  8 22  1  0  0  0  0
 10 11  1  0  0  0  0
 10 23  1  0  0  0  0
 11 12  1  0  0  0  0
 11 24  1  0  0  0  0
 11 25  1  0  0  0  0
 12 13  2  0  0  0  0
 12 14  1  0  0  0  0
 14 18  1  0  0  0  0
 14 15  1  0  0  0  0
 15 16  1  0  0  0  0
 15 26  1  0  0  0  0
 15 27  1  0  0  0  0
 16 17  1  0  0  0  0
 16 28  1  0  0  0  0
 16 29  1  0  0  0  0
 17 18  1  0  0  0  0
 17 30  1  0  0  0  0
 17 31  1  0  0  0  0
 18 32  1  0  0  0  0
 18 33  1  0  0  0  0
M  END
> <s_m_source_file>
AV-unprocessed.smi

> <i_m_source_file_index>
755

> <i_lp_mmshare_version>
43012

> <i_f3d_flags>
0

> <s_epik_input>
bjFbY0hdYyhDbClbY0hdbjFbQ0gyXUMoPU8pW05IXVtDSDJdQyg9TylOMltDSDJdW0NIMl1bQ0gyXVtDSDJdMg==

> <s_epik_cmdline>
J2VwaWtfcHl0aG9uJywgJy1waCcsICc3LjAnLCAnLXRuJywgJzgnLCAnLW1hJywgJzIwMCcsICctbWV0YWxfYmluZGluZycsICctaW1hZScsICc8aW5maWxlLm1hZT4nLCAnLW9tYWUnLCAnPG91dGZpbGUubWFlPic=

> <r_lp_tautomer_probability>
1

> <r_epik_Ionization_Penalty>
4.35059e-07

> <r_epik_Ionization_Penalty_Charging>
0

> <r_epik_Ionization_Penalty_Neutral>
4.35059e-07

> <r_epik_State_Penalty>
-0

> <r_epik_Charging_Adjusted_Penalty>
0

> <i_epik_Tot_Q>
0

> <i_epik_Tot_abs_Q>
0

> <r_epik_Metal_State_Penalty>
-0

> <b_epik_Metal_Only>
0

> <s_lp_Force_Field>
OPLS_2005

> <r_lp_Energy>
27.1331

> <b_lp_Chiralities_Consistent>
1

> <s_lp_Variant>
AV-unprocessed.smi:755-1

> <Gold.Version>
5.8.1

> <Gold.Id.Protein>
6NUR|6NUR_protein|mol2

> <Gold.PLP.Fitness>
48.9824

> <Gold.PLP.PLP>
-40.1372

> <Gold.PLP.part.hbond>
-1.9453

> <Gold.PLP.part.metal>
0.0000

> <Gold.PLP.part.buried>
-3.6075

> <Gold.PLP.part.nonpolar>
-33.3961

> <Gold.PLP.part.repulsive>
0.2713

> <Gold.PLP.ligand.clash>
0.0000

> <Gold.PLP.ligand.torsion>
0.5713

> <Gold.PLP.Chemscore.Hbond>
1.7840

> <Gold.PLP.Chemscore.CHOScore>
1.5444

> <Gold.PLP.Chemscore.Metal>
0.0000

> <Gold.Chemscore.Hbonds>
donor molecule, donor type, donor heavy atom, donor atom, acceptor molecule, acceptor atom, score
      P1  H  7989  7998       L1     1  0.75
      P1  H  7997  8009       L1    13  0.89
      L1  C     5    21       P1  8028  0.54
      L1  C     8    22       P1 10175  1.00

> <Gold.PLP.Chemscore.Internal.Correction>
0.0027

> <Gold.Rescore>
     Score         DG    S(hbond)    S(metal)    S(lipo)     H(rot)  DE(clash)    DE(int)     intcor
     15.68     -16.16       1.77        0.00      80.16       1.80       0.11       0.37       ----

> <Gold.Chemscore.Fitness>
15.6802

> <Gold.Chemscore.DG>
-16.1594

> <Gold.Chemscore.ZeroCoef>
-5.4800

> <Gold.Chemscore.Hbond>
1.7681

> <Gold.Chemscore.Metal>
0.0000

> <Gold.Chemscore.Lipo>
80.1592

> <Gold.Chemscore.Internal_Hbond>
0.0000

> <Gold.Chemscore.DEClash>
0.1058

> <Gold.Chemscore.DEInternal>
0.3734

> <Gold.Chemscore.Rot>
1.7988

> <Gold.Chemscore.Internal.Correction>
   9.000000E+99

> <Gold.Chemscore.Hbonds>
donor molecule, donor type, donor heavy atom, donor atom, acceptor molecule, acceptor atom, score
      P1  H  7989  7998       L1     1  0.49
      P1  H  7997  8009       L1    13  0.70

> <Gold.Chemscore.Hbond.Weighted>
-5.9055

> <Gold.Chemscore.Metal.Weighted>
-0.0000

> <Gold.Chemscore.Lipo.Weighted>
-9.3786

> <Gold.Chemscore.Internal_Hbond.Weighted>
0.0000

> <Gold.Chemscore.DEClash.Weighted>
0.1058

> <Gold.Chemscore.DEInternal.Weighted>
0.3734

> <Gold.Chemscore.Rot.Weighted>
4.6048

> <Gold.Chemscore.Internal.Correction.Weighted>
   9.000000E+99

> <Gold.Protein.RotatedTorsions>
[ 6907 6896 6895 6894 ] final  -46.98 input  -60.11 | X-H torsion
[ 7974 7965 7964 7962 ] final   13.23 input  175.53 | X-H torsion
[ 8008 7997 7996 7995 ] final  170.47 input   59.86 | X-H torsion
[ 10167 10162 10161 10158 ] final -131.72 input  -65.29 | X-H torsion
[ 10718 10713 10712 10709 ] final  143.51 input   66.30 | X-H torsion
[ 10763 10752 10751 10750 ] final   60.88 input  -60.55 | X-H torsion
[ 11005 11000 10999 10996 ] final -114.45 input  -57.11 | X-H torsion

> <Gold.Protein.ActiveResidues>
 VAL166  LYS551  ARG553  GLY616  TRP617  ASP618  TYR619  PRO620  LYS621  CYS622 
 ASP623  PHE694  ASN695  SER759  ASP760  ASP761  ALA762  ILE779  LEU786  VAL792 
 PHE793  MET794  SER795  GLU796  ALA797  LYS798  CYS799  TRP800  GLU811  SER814 

> <Gold.Protein.RotatedAtoms>
  150.9056  134.8471  159.7389 H   0  0  0  0  0  0  0  0  0  0  0  0  # atno 6907 bound_to 6896
  152.4916  134.4436  159.9561 H   0  0  0  0  0  0  0  0  0  0  0  0  # atno 6908 bound_to 6896
  151.4484  133.3585  159.2827 H   0  0  0  0  0  0  0  0  0  0  0  0  # atno 6909 bound_to 6896
  146.2334  139.9219  142.8509 H   0  0  0  0  0  0  0  0  0  0  0  0  # atno 7974 bound_to 7965
  156.1362  140.1537  156.8990 H   0  0  0  0  0  0  0  0  0  0  0  0  # atno 8008 bound_to 7997
  154.4949  140.0841  156.7715 H   0  0  0  0  0  0  0  0  0  0  0  0  # atno 8009 bound_to 7997
  155.4164  140.3421  155.4270 H   0  0  0  0  0  0  0  0  0  0  0  0  # atno 8010 bound_to 7997
  139.9160  143.6438  152.2564 H   0  0  0  0  0  0  0  0  0  0  0  0  # atno 10167 bound_to 10162
  157.3681  131.0975  151.0853 H   0  0  0  0  0  0  0  0  0  0  0  0  # atno 10718 bound_to 10713
  152.9934  135.5520  154.5944 H   0  0  0  0  0  0  0  0  0  0  0  0  # atno 10763 bound_to 10752
  154.5299  135.2813  155.1191 H   0  0  0  0  0  0  0  0  0  0  0  0  # atno 10764 bound_to 10752
  154.2511  135.6398  153.5293 H   0  0  0  0  0  0  0  0  0  0  0  0  # atno 10765 bound_to 10752
  141.0551  133.9626  157.2768 H   0  0  0  0  0  0  0  0  0  0  0  0  # atno 11005 bound_to 11000
  145.2128  140.9903  143.4090 LP  0  0  0  0  0  0  0  0  0  0  0  0  # atno 17320 bound_to 7965
  144.9676  139.3914  143.6325 LP  0  0  0  0  0  0  0  0  0  0  0  0  # atno 17321 bound_to 7965
  139.6902  144.7647  151.1452 LP  0  0  0  0  0  0  0  0  0  0  0  0  # atno 17342 bound_to 10162
  140.7674  143.5600  150.9109 LP  0  0  0  0  0  0  0  0  0  0  0  0  # atno 17343 bound_to 10162
  157.1968  130.6376  149.5724 LP  0  0  0  0  0  0  0  0  0  0  0  0  # atno 17370 bound_to 10713
  155.9750  130.4704  150.6428 LP  0  0  0  0  0  0  0  0  0  0  0  0  # atno 17371 bound_to 10713
  139.9383  135.0194  156.8627 LP  0  0  0  0  0  0  0  0  0  0  0  0  # atno 17394 bound_to 11000
  140.5980  134.0199  155.7526 LP  0  0  0  0  0  0  0  0  0  0  0  0  # atno 17395 bound_to 11000

$$$$
