AV-unprocessed.smi:2110|AV-procd|sdf|8611|dock6
  -GOLD-   2272011353D 1   1.00000     0.00000
 Structure written by MMmdl.
 46 47  0  0  0  0  0  0  0  0  3 V2000
  151.9525  143.9509  158.6987 C   0  0  0  0  0  0  0  0  0  0  0  0
  151.3197  142.5702  158.9292 C   0  0  0  0  0  0  0  0  0  0  0  0
  152.2994  141.4706  158.8215 N   0  0  0  0  0  0  0  0  0  0  0  0
  153.5003  141.5483  159.6786 C   0  0  0  0  0  0  0  0  0  0  0  0
  153.2039  142.1012  161.0817 C   0  0  0  0  0  0  0  0  0  0  0  0
  151.9244  140.0227  157.9190 S   0  0  0  0  0  0  0  0  0  0  0  0
  151.1883  139.1593  158.8553 O   0  0  0  0  0  0  0  0  0  0  0  0
  151.2196  140.4624  156.7017 O   0  0  0  0  0  0  0  0  0  0  0  0
  153.4460  139.4915  157.6802 N   0  5  0  0  0  0  0  0  0  0  0  0
  153.7212  138.2114  157.0479 C   0  0  0  0  0  0  0  0  0  0  0  0
  152.6882  137.8960  155.9769 C   0  0  0  0  0  0  0  0  0  0  0  0
  152.5224  138.7527  154.8650 C   0  0  0  0  0  0  0  0  0  0  0  0
  151.5519  138.4354  153.8972 C   0  0  0  0  0  0  0  0  0  0  0  0
  150.7957  137.3269  154.0403 N   0  3  0  0  0  0  0  0  0  0  0  0
  150.9002  136.4676  155.0841 C   0  0  0  0  0  0  0  0  0  0  0  0
  150.0440  135.3421  155.1088 N   0  0  0  0  0  0  0  0  0  0  0  0
  148.6188  135.5634  155.3429 C   0  0  0  0  0  0  0  0  0  0  0  0
  147.9016  134.2357  155.6412 C   0  0  0  0  0  0  0  0  0  0  0  0
  148.1619  133.3016  154.6005 O   0  0  0  0  0  0  0  0  0  0  0  0
  149.5484  132.9994  154.5037 C   0  0  0  0  0  0  0  0  0  0  0  0
  150.3344  134.2734  154.1523 C   0  0  0  0  0  0  0  0  0  0  0  0
  151.8679  136.7466  156.0835 C   0  0  0  0  0  0  0  0  0  0  0  0
  151.1890  144.7285  158.7124 H   0  0  0  0  0  0  0  0  0  0  0  0
  152.4645  144.0078  157.7387 H   0  0  0  0  0  0  0  0  0  0  0  0
  152.6748  144.1929  159.4782 H   0  0  0  0  0  0  0  0  0  0  0  0
  150.8616  142.5384  159.9176 H   0  0  0  0  0  0  0  0  0  0  0  0
  150.5069  142.4097  158.2205 H   0  0  0  0  0  0  0  0  0  0  0  0
  153.9497  140.5598  159.7685 H   0  0  0  0  0  0  0  0  0  0  0  0
  154.2428  142.1752  159.1846 H   0  0  0  0  0  0  0  0  0  0  0  0
  154.0982  142.0636  161.7034 H   0  0  0  0  0  0  0  0  0  0  0  0
  152.4304  141.5229  161.5844 H   0  0  0  0  0  0  0  0  0  0  0  0
  152.8777  143.1404  161.0477 H   0  0  0  0  0  0  0  0  0  0  0  0
  154.7093  138.1919  156.5872 H   0  0  0  0  0  0  0  0  0  0  0  0
  153.7187  137.3943  157.7701 H   0  0  0  0  0  0  0  0  0  0  0  0
  153.1196  139.6468  154.7441 H   0  0  0  0  0  0  0  0  0  0  0  0
  151.3576  139.0325  153.0184 H   0  0  0  0  0  0  0  0  0  0  0  0
  148.4695  136.2300  156.1923 H   0  0  0  0  0  0  0  0  0  0  0  0
  148.1806  136.0410  154.4655 H   0  0  0  0  0  0  0  0  0  0  0  0
  148.2229  133.8266  156.6005 H   0  0  0  0  0  0  0  0  0  0  0  0
  146.8262  134.3988  155.7107 H   0  0  0  0  0  0  0  0  0  0  0  0
  149.9050  132.5675  155.4403 H   0  0  0  0  0  0  0  0  0  0  0  0
  149.6934  132.2445  153.7310 H   0  0  0  0  0  0  0  0  0  0  0  0
  150.0659  134.6153  153.1518 H   0  0  0  0  0  0  0  0  0  0  0  0
  151.3960  134.0280  154.1337 H   0  0  0  0  0  0  0  0  0  0  0  0
  151.9781  136.0965  156.9392 H   0  0  0  0  0  0  0  0  0  0  0  0
  150.1025  137.1255  153.3200 H   0  0  0  0  0  0  0  0  0  0  0  0
  1  2  1  0  0  0  0
  1 23  1  0  0  0  0
  1 24  1  0  0  0  0
  1 25  1  0  0  0  0
  2  3  1  0  0  0  0
  2 26  1  0  0  0  0
  2 27  1  0  0  0  0
  3  4  1  0  0  0  0
  3  6  1  0  0  0  0
  4  5  1  0  0  0  0
  4 28  1  0  0  0  0
  4 29  1  0  0  0  0
  5 30  1  0  0  0  0
  5 31  1  0  0  0  0
  5 32  1  0  0  0  0
  6  7  2  0  0  0  0
  6  8  2  0  0  0  0
  6  9  1  0  0  0  0
  9 10  1  0  0  0  0
 10 11  1  0  0  0  0
 10 33  1  0  0  0  0
 10 34  1  0  0  0  0
 11 22  1  0  0  0  0
 11 12  2  0  0  0  0
 12 13  1  0  0  0  0
 12 35  1  0  0  0  0
 13 14  2  0  0  0  0
 13 36  1  0  0  0  0
 14 15  1  0  0  0  0
 14 46  1  0  0  0  0
 15 16  1  0  0  0  0
 15 22  2  0  0  0  0
 16 21  1  0  0  0  0
 16 17  1  0  0  0  0
 17 18  1  0  0  0  0
 17 37  1  0  0  0  0
 17 38  1  0  0  0  0
 18 19  1  0  0  0  0
 18 39  1  0  0  0  0
 18 40  1  0  0  0  0
 19 20  1  0  0  0  0
 20 21  1  0  0  0  0
 20 41  1  0  0  0  0
 20 42  1  0  0  0  0
 21 43  1  0  0  0  0
 21 44  1  0  0  0  0
 22 45  1  0  0  0  0
M  CHG  1   9  -1
M  CHG  1  14   1
M  END
> <s_m_source_file>
AV-unprocessed.smi

> <i_m_source_file_index>
2110

> <i_lp_mmshare_version>
43012

> <i_f3d_flags>
0

> <s_epik_input>
W0NIM11bQ0gyXU4oW0NIMl1bQ0gzXSlTKD1PKSg9TylbTkhdW0NIMl1jMVtjSF1bY0hdbmMoW2NIXTEpTjJbQ0gyXVtDSDJdT1tDSDJdW0NIMl0y

> <s_epik_cmdline>
J2VwaWtfcHl0aG9uJywgJy1waCcsICc3LjAnLCAnLXRuJywgJzgnLCAnLW1hJywgJzIwMCcsICctbWV0YWxfYmluZGluZycsICctaW1hZScsICc8aW5maWxlLm1hZT4nLCAnLW9tYWUnLCAnPG91dGZpbGUubWFlPic=

> <r_lp_tautomer_probability>
0.999994

> <r_epik_Ionization_Penalty>
2.03784

> <r_epik_Ionization_Penalty_Charging>
2.03784

> <r_epik_Ionization_Penalty_Neutral>
4.07977e-08

> <r_epik_State_Penalty>
3.04665

> <r_epik_Charging_Adjusted_Penalty>
5.08449

> <i_epik_Tot_Q>
0

> <i_epik_Tot_abs_Q>
2

> <r_epik_Metal_State_Penalty>
1.92951

> <b_epik_Metal_Only>
1

> <s_lp_Force_Field>
OPLS_2005

> <r_lp_Energy>
13.8127

> <b_lp_Chiralities_Consistent>
1

> <s_lp_Variant>
AV-unprocessed.smi:2110-4

> <Gold.Version>
5.8.1

> <Gold.Id.Protein>
6NUR|6NUR_protein|mol2

> <Gold.PLP.Fitness>
46.3321

> <Gold.PLP.PLP>
-35.6496

> <Gold.PLP.part.hbond>
-3.0000

> <Gold.PLP.part.metal>
0.0000

> <Gold.PLP.part.buried>
-5.8076

> <Gold.PLP.part.nonpolar>
-28.1123

> <Gold.PLP.part.repulsive>
0.2434

> <Gold.PLP.ligand.clash>
0.0000

> <Gold.PLP.ligand.torsion>
2.5186

> <Gold.PLP.Chemscore.Hbond>
4.0000

> <Gold.PLP.Chemscore.CHOScore>
0.0000

> <Gold.PLP.Chemscore.Metal>
0.0000

> <Gold.Chemscore.Hbonds>
donor molecule, donor type, donor heavy atom, donor atom, acceptor molecule, acceptor atom, score
      L1  H    14    46       P1  7948  1.70
      P1  H  7997  8009       L1     9  0.92

> <Gold.PLP.Chemscore.Internal.Correction>
3.7197

> <Gold.Rescore>
     Score         DG    S(hbond)    S(metal)    S(lipo)     H(rot)  DE(clash)    DE(int)     intcor
     13.66     -16.27       1.61        0.00      83.67       1.72       0.02       2.59       ----

> <Gold.Chemscore.Fitness>
13.6598

> <Gold.Chemscore.DG>
-16.2688

> <Gold.Chemscore.ZeroCoef>
-5.4800

> <Gold.Chemscore.Hbond>
1.6142

> <Gold.Chemscore.Metal>
0.0000

> <Gold.Chemscore.Lipo>
83.6747

> <Gold.Chemscore.Internal_Hbond>
0.0000

> <Gold.Chemscore.DEClash>
0.0213

> <Gold.Chemscore.DEInternal>
2.5876

> <Gold.Chemscore.Rot>
1.7159

> <Gold.Chemscore.Internal.Correction>
   9.000000E+99

> <Gold.Chemscore.Hbonds>
donor molecule, donor type, donor heavy atom, donor atom, acceptor molecule, acceptor atom, score
      L1  H    14    46       P1  7948  0.14
      P1  H  7997  8009       L1     9  0.02

> <Gold.Chemscore.Hbond.Weighted>
-5.3914

> <Gold.Chemscore.Metal.Weighted>
-0.0000

> <Gold.Chemscore.Lipo.Weighted>
-9.7899

> <Gold.Chemscore.Internal_Hbond.Weighted>
0.0000

> <Gold.Chemscore.DEClash.Weighted>
0.0213

> <Gold.Chemscore.DEInternal.Weighted>
2.5876

> <Gold.Chemscore.Rot.Weighted>
4.3926

> <Gold.Chemscore.Internal.Correction.Weighted>
   9.000000E+99

> <Gold.Protein.RotatedTorsions>
[ 6907 6896 6895 6894 ] final   60.61 input  -60.11 | X-H torsion
[ 7974 7965 7964 7962 ] final  -89.97 input  175.53 | X-H torsion
[ 8008 7997 7996 7995 ] final  141.29 input   59.86 | X-H torsion
[ 10167 10162 10161 10158 ] final -178.88 input  -65.29 | X-H torsion
[ 10718 10713 10712 10709 ] final   25.62 input   66.30 | X-H torsion
[ 10763 10752 10751 10750 ] final  -41.00 input  -60.55 | X-H torsion
[ 11005 11000 10999 10996 ] final -172.78 input  -57.11 | X-H torsion

> <Gold.Protein.ActiveResidues>
 VAL166  LYS551  ARG553  GLY616  TRP617  ASP618  TYR619  PRO620  LYS621  CYS622 
 ASP623  PHE694  ASN695  SER759  ASP760  ASP761  ALA762  ILE779  LEU786  VAL792 
 PHE793  MET794  SER795  GLU796  ALA797  LYS798  CYS799  TRP800  GLU811  SER814 

> <Gold.Protein.RotatedAtoms>
  152.4017  134.6274  160.0066 H   0  0  0  0  0  0  0  0  0  0  0  0  # atno 6907 bound_to 6896
  151.6477  133.3317  159.3153 H   0  0  0  0  0  0  0  0  0  0  0  0  # atno 6908 bound_to 6896
  150.7917  134.6988  159.6583 H   0  0  0  0  0  0  0  0  0  0  0  0  # atno 6909 bound_to 6896
  145.4328  140.9556  143.2119 H   0  0  0  0  0  0  0  0  0  0  0  0  # atno 7974 bound_to 7965
  156.2968  140.2319  156.4540 H   0  0  0  0  0  0  0  0  0  0  0  0  # atno 8008 bound_to 7997
  154.8077  140.0445  157.1340 H   0  0  0  0  0  0  0  0  0  0  0  0  # atno 8009 bound_to 7997
  154.9460  140.3035  155.5101 H   0  0  0  0  0  0  0  0  0  0  0  0  # atno 8010 bound_to 7997
  139.5412  144.2359  152.0898 H   0  0  0  0  0  0  0  0  0  0  0  0  # atno 10167 bound_to 10162
  157.1959  130.6867  149.6168 H   0  0  0  0  0  0  0  0  0  0  0  0  # atno 10718 bound_to 10713
  153.9552  135.6746  153.4744 H   0  0  0  0  0  0  0  0  0  0  0  0  # atno 10763 bound_to 10752
  153.0865  135.4896  154.8603 H   0  0  0  0  0  0  0  0  0  0  0  0  # atno 10764 bound_to 10752
  154.7303  135.3136  154.8862 H   0  0  0  0  0  0  0  0  0  0  0  0  # atno 10765 bound_to 10752
  140.4931  134.5966  157.4961 H   0  0  0  0  0  0  0  0  0  0  0  0  # atno 11005 bound_to 11000
  144.8172  139.5856  143.7003 LP  0  0  0  0  0  0  0  0  0  0  0  0  # atno 17320 bound_to 7965
  146.2598  139.6384  142.9370 LP  0  0  0  0  0  0  0  0  0  0  0  0  # atno 17321 bound_to 7965
  140.1838  144.4819  150.6514 LP  0  0  0  0  0  0  0  0  0  0  0  0  # atno 17342 bound_to 10162
  140.6642  143.2262  151.5783 LP  0  0  0  0  0  0  0  0  0  0  0  0  # atno 17343 bound_to 10162
  155.9706  130.4599  150.6053 LP  0  0  0  0  0  0  0  0  0  0  0  0  # atno 17370 bound_to 10713
  157.3815  131.0781  151.1472 LP  0  0  0  0  0  0  0  0  0  0  0  0  # atno 17371 bound_to 10713
  139.9757  134.7219  155.9954 LP  0  0  0  0  0  0  0  0  0  0  0  0  # atno 17394 bound_to 11000
  141.1474  133.6554  156.3909 LP  0  0  0  0  0  0  0  0  0  0  0  0  # atno 17395 bound_to 11000

$$$$
