AV-unprocessed.smi:2085|AV-procd|sdf|8516|dock5
  -GOLD-   2272011233D 1   1.00000     0.00000
 Structure written by MMmdl.
 30 31  0  0  0  0  0  0  0  0  1 V2000
  151.8311  145.1007  160.2792 C   0  0  0  0  0  0  0  0  0  0  0  0
  151.8090  143.8803  159.5464 O   0  0  0  0  0  0  0  0  0  0  0  0
  152.4706  142.7849  160.0684 C   0  0  0  0  0  0  0  0  0  0  0  0
  153.0891  142.9174  161.2687 N   0  0  0  0  0  0  0  0  0  0  0  0
  153.7404  141.8517  161.7776 C   0  0  0  0  0  0  0  0  0  0  0  0
  153.8151  140.6098  161.1214 C   0  0  0  0  0  0  0  0  0  0  0  0
  153.1747  140.4694  159.8764 C   0  0  0  0  0  0  0  0  0  0  0  0
  152.4744  141.5750  159.3351 C   0  0  0  0  0  0  0  0  0  0  0  0
  151.8105  141.5515  158.0768 N   0  0  0  0  0  0  0  0  0  0  0  0
  151.8837  140.6334  157.0950 C   0  0  0  0  0  0  0  0  0  0  0  0
  152.5336  139.5905  157.1648 O   0  0  0  0  0  0  0  0  0  0  0  0
  151.0446  140.9164  155.8400 C   0  0  2  0  0  0  0  0  0  0  0  0
  149.5329  140.9759  156.0991 C   0  0  0  0  0  0  0  0  0  0  0  0
  148.9640  140.4562  154.7980 C   0  0  0  0  0  0  0  0  0  0  0  0
  149.9758  139.3787  154.4305 C   0  0  0  0  0  0  0  0  0  0  0  0
  151.2325  139.8798  154.8722 O   0  0  0  0  0  0  0  0  0  0  0  0
  151.2668  145.8577  159.7349 H   0  0  0  0  0  0  0  0  0  0  0  0
  152.8486  145.4735  160.4040 H   0  0  0  0  0  0  0  0  0  0  0  0
  151.3684  144.9855  161.2605 H   0  0  0  0  0  0  0  0  0  0  0  0
  154.2225  141.9952  162.7332 H   0  0  0  0  0  0  0  0  0  0  0  0
  154.3566  139.7848  161.5602 H   0  0  0  0  0  0  0  0  0  0  0  0
  153.2481  139.5257  159.3591 H   0  0  0  0  0  0  0  0  0  0  0  0
  151.1600  142.3081  157.9187 H   0  0  0  0  0  0  0  0  0  0  0  0
  151.3802  141.8526  155.3922 H   0  0  0  0  0  0  0  0  0  0  0  0
  149.2418  140.3158  156.9184 H   0  0  0  0  0  0  0  0  0  0  0  0
  149.1854  141.9824  156.3341 H   0  0  0  0  0  0  0  0  0  0  0  0
  147.9476  140.0737  154.8949 H   0  0  0  0  0  0  0  0  0  0  0  0
  148.9647  141.2460  154.0455 H   0  0  0  0  0  0  0  0  0  0  0  0
  149.7589  138.4547  154.9679 H   0  0  0  0  0  0  0  0  0  0  0  0
  149.9859  139.1574  153.3632 H   0  0  0  0  0  0  0  0  0  0  0  0
  1  2  1  0  0  0  0
  1 17  1  0  0  0  0
  1 18  1  0  0  0  0
  1 19  1  0  0  0  0
  2  3  1  0  0  0  0
  3  8  1  0  0  0  0
  3  4  2  0  0  0  0
  4  5  1  0  0  0  0
  5  6  2  0  0  0  0
  5 20  1  0  0  0  0
  6  7  1  0  0  0  0
  6 21  1  0  0  0  0
  7  8  2  0  0  0  0
  7 22  1  0  0  0  0
  8  9  1  0  0  0  0
  9 10  1  0  0  0  0
  9 23  1  0  0  0  0
 10 11  2  0  0  0  0
 10 12  1  0  0  0  0
 12 16  1  0  0  0  0
 12 13  1  0  0  0  0
 12 24  1  0  0  0  0
 13 14  1  0  0  0  0
 13 25  1  0  0  0  0
 13 26  1  0  0  0  0
 14 15  1  0  0  0  0
 14 27  1  0  0  0  0
 14 28  1  0  0  0  0
 15 16  1  0  0  0  0
 15 29  1  0  0  0  0
 15 30  1  0  0  0  0
M  END
> <s_m_source_file>
AV-unprocessed.smi

> <i_m_source_file_index>
2085

> <i_lp_mmshare_version>
43012

> <i_f3d_flags>
0

> <s_epik_input>
W0NIM11PYzFuW2NIXVtjSF1bY0hdYzFbTkhdQyg9TylbQ0BASF0yW0NIMl1bQ0gyXVtDSDJdTzI=

> <s_epik_cmdline>
J2VwaWtfcHl0aG9uJywgJy1waCcsICc3LjAnLCAnLXRuJywgJzgnLCAnLW1hJywgJzIwMCcsICctbWV0YWxfYmluZGluZycsICctaW1hZScsICc8aW5maWxlLm1hZT4nLCAnLW9tYWUnLCAnPG91dGZpbGUubWFlPic=

> <r_lp_tautomer_probability>
1

> <r_epik_Ionization_Penalty>
2.59253e-05

> <r_epik_Ionization_Penalty_Charging>
0

> <r_epik_Ionization_Penalty_Neutral>
2.59253e-05

> <r_epik_State_Penalty>
-0

> <r_epik_Charging_Adjusted_Penalty>
0

> <i_epik_Tot_Q>
0

> <i_epik_Tot_abs_Q>
0

> <r_epik_Metal_State_Penalty>
-0

> <b_epik_Metal_Only>
0

> <s_lp_Force_Field>
OPLS_2005

> <r_lp_Energy>
24.0215

> <b_lp_Chiralities_Consistent>
1

> <s_lp_Variant>
AV-unprocessed.smi:2085-1

> <Gold.Version>
5.8.1

> <Gold.Id.Protein>
6NUR|6NUR_protein|mol2

> <Gold.PLP.Fitness>
40.0458

> <Gold.PLP.PLP>
-34.1557

> <Gold.PLP.part.hbond>
-2.0000

> <Gold.PLP.part.metal>
0.0000

> <Gold.PLP.part.buried>
-5.4039

> <Gold.PLP.part.nonpolar>
-27.1150

> <Gold.PLP.part.repulsive>
0.1954

> <Gold.PLP.ligand.clash>
0.0000

> <Gold.PLP.ligand.torsion>
0.0586

> <Gold.PLP.Chemscore.Hbond>
2.0000

> <Gold.PLP.Chemscore.CHOScore>
0.0000

> <Gold.PLP.Chemscore.Metal>
0.0000

> <Gold.Chemscore.Hbonds>
donor molecule, donor type, donor heavy atom, donor atom, acceptor molecule, acceptor atom, score
      P1  H  7989  7998       L1    16  0.95
      P1  H  7997  8010       L1    11  1.00

> <Gold.PLP.Chemscore.Internal.Correction>
0.0072

> <Gold.Rescore>
     Score         DG    S(hbond)    S(metal)    S(lipo)     H(rot)  DE(clash)    DE(int)     intcor
     15.35     -16.69       1.81        0.00      71.12       1.24       0.05       1.28       ----

> <Gold.Chemscore.Fitness>
15.3549

> <Gold.Chemscore.DG>
-16.6871

> <Gold.Chemscore.ZeroCoef>
-5.4800

> <Gold.Chemscore.Hbond>
1.8129

> <Gold.Chemscore.Metal>
0.0000

> <Gold.Chemscore.Lipo>
71.1226

> <Gold.Chemscore.Internal_Hbond>
0.0000

> <Gold.Chemscore.DEClash>
0.0502

> <Gold.Chemscore.DEInternal>
1.2820

> <Gold.Chemscore.Rot>
1.2381

> <Gold.Chemscore.Internal.Correction>
   9.000000E+99

> <Gold.Chemscore.Hbonds>
donor molecule, donor type, donor heavy atom, donor atom, acceptor molecule, acceptor atom, score
      P1  H  7989  7998       L1    16  0.06
      P1  H  7997  8010       L1    11  0.36

> <Gold.Chemscore.Hbond.Weighted>
-6.0552

> <Gold.Chemscore.Metal.Weighted>
-0.0000

> <Gold.Chemscore.Lipo.Weighted>
-8.3213

> <Gold.Chemscore.Internal_Hbond.Weighted>
0.0000

> <Gold.Chemscore.DEClash.Weighted>
0.0502

> <Gold.Chemscore.DEInternal.Weighted>
1.2820

> <Gold.Chemscore.Rot.Weighted>
3.1694

> <Gold.Chemscore.Internal.Correction.Weighted>
   9.000000E+99

> <Gold.Protein.RotatedTorsions>
[ 6907 6896 6895 6894 ] final  178.04 input  -60.11 | X-H torsion
[ 7974 7965 7964 7962 ] final   23.26 input  175.53 | X-H torsion
[ 8008 7997 7996 7995 ] final   75.31 input   59.86 | X-H torsion
[ 10167 10162 10161 10158 ] final  -35.08 input  -65.29 | X-H torsion
[ 10718 10713 10712 10709 ] final  -24.13 input   66.30 | X-H torsion
[ 10763 10752 10751 10750 ] final    3.15 input  -60.55 | X-H torsion
[ 11005 11000 10999 10996 ] final  -38.22 input  -57.11 | X-H torsion

> <Gold.Protein.ActiveResidues>
 VAL166  LYS551  ARG553  GLY616  TRP617  ASP618  TYR619  PRO620  LYS621  CYS622 
 ASP623  PHE694  ASN695  SER759  ASP760  ASP761  ALA762  ILE779  LEU786  VAL792 
 PHE793  MET794  SER795  GLU796  ALA797  LYS798  CYS799  TRP800  GLU811  SER814 

> <Gold.Protein.RotatedAtoms>
  151.6943  133.3311  159.3250 H   0  0  0  0  0  0  0  0  0  0  0  0  # atno 6907 bound_to 6896
  150.7765  134.6671  159.6381 H   0  0  0  0  0  0  0  0  0  0  0  0  # atno 6908 bound_to 6896
  152.3808  134.6596  160.0195 H   0  0  0  0  0  0  0  0  0  0  0  0  # atno 6909 bound_to 6896
  146.1992  139.7769  142.8774 H   0  0  0  0  0  0  0  0  0  0  0  0  # atno 7974 bound_to 7965
  155.8110  140.3473  155.5458 H   0  0  0  0  0  0  0  0  0  0  0  0  # atno 8008 bound_to 7997
  155.8441  140.0946  157.1736 H   0  0  0  0  0  0  0  0  0  0  0  0  # atno 8009 bound_to 7997
  154.4006  140.1389  156.3751 H   0  0  0  0  0  0  0  0  0  0  0  0  # atno 8010 bound_to 7997
  140.7172  143.3502  151.2171 H   0  0  0  0  0  0  0  0  0  0  0  0  # atno 10167 bound_to 10162
  156.4817  130.4547  149.6807 H   0  0  0  0  0  0  0  0  0  0  0  0  # atno 10718 bound_to 10713
  153.2869  135.6945  153.7331 H   0  0  0  0  0  0  0  0  0  0  0  0  # atno 10763 bound_to 10752
  153.6297  135.3412  155.3038 H   0  0  0  0  0  0  0  0  0  0  0  0  # atno 10764 bound_to 10752
  154.8512  135.4406  154.1939 H   0  0  0  0  0  0  0  0  0  0  0  0  # atno 10765 bound_to 10752
  141.0011  133.6955  156.2025 H   0  0  0  0  0  0  0  0  0  0  0  0  # atno 11005 bound_to 11000
  145.3541  141.0313  143.3322 LP  0  0  0  0  0  0  0  0  0  0  0  0  # atno 17320 bound_to 7965
  144.8646  139.5127  143.6796 LP  0  0  0  0  0  0  0  0  0  0  0  0  # atno 17321 bound_to 7965
  139.7031  143.9500  152.2914 LP  0  0  0  0  0  0  0  0  0  0  0  0  # atno 17342 bound_to 10162
  139.9199  144.6806  150.8472 LP  0  0  0  0  0  0  0  0  0  0  0  0  # atno 17343 bound_to 10162
  156.3515  130.7434  151.2394 LP  0  0  0  0  0  0  0  0  0  0  0  0  # atno 17370 bound_to 10713
  157.7482  131.0376  150.4462 LP  0  0  0  0  0  0  0  0  0  0  0  0  # atno 17371 bound_to 10713
  140.6887  134.4689  157.5589 LP  0  0  0  0  0  0  0  0  0  0  0  0  # atno 17394 bound_to 11000
  139.9039  134.8492  156.1783 LP  0  0  0  0  0  0  0  0  0  0  0  0  # atno 17395 bound_to 11000

$$$$
