AV-unprocessed.smi:527|AV-procd|sdf|2825|dock4
  -GOLD-   2262023313D 1   1.00000     0.00000
 Structure written by MMmdl.
 43 44  0  0  0  0  0  0  0  0  2 V2000
  153.5632  141.7288  160.3541 C   0  0  0  0  0  0  0  0  0  0  0  0
  152.8080  142.9586  159.8164 C   0  0  2  0  0  0  0  0  0  0  0  0
  152.5834  143.9653  160.9623 C   0  0  0  0  0  0  0  0  0  0  0  0
  151.8657  145.2297  160.4781 C   0  0  0  0  0  0  0  0  0  0  0  0
  150.5253  144.8732  159.8296 C   0  0  0  0  0  0  0  0  0  0  0  0
  150.7092  143.8763  158.6690 C   0  0  2  0  0  0  0  0  0  0  0  0
  149.3982  143.5314  158.1207 N   0  0  0  0  0  0  0  0  0  0  0  0
  148.3371  143.1248  158.8333 C   0  0  0  0  0  0  0  0  0  0  0  0
  148.2452  143.2648  160.0548 O   0  0  0  0  0  0  0  0  0  0  0  0
  147.4119  142.5566  158.0360 N   0  0  0  0  0  0  0  0  0  0  0  0
  146.2393  142.0005  158.4022 C   0  0  0  0  0  0  0  0  0  0  0  0
  145.8246  141.9238  159.5616 O   0  0  0  0  0  0  0  0  0  0  0  0
  145.4058  141.4398  157.2425 C   0  0  0  0  0  0  0  0  0  0  0  0
  144.8708  142.4833  156.3585 N   0  0  0  0  0  0  0  0  0  0  0  0
  144.9873  143.8418  156.5103 C   0  0  0  0  0  0  0  0  0  0  0  0
  144.3292  144.4115  155.4509 C   0  0  0  0  0  0  0  0  0  0  0  0
  143.8380  143.3784  154.6985 N   0  3  0  0  0  0  0  0  0  0  0  0
  144.1675  142.2066  155.2521 C   0  0  0  0  0  0  0  0  0  0  0  0
  151.4660  142.5963  159.1180 C   0  0  1  0  0  0  0  0  0  0  0  0
  151.6745  141.6315  157.9299 C   0  0  0  0  0  0  0  0  0  0  0  0
  152.9405  141.1466  161.0338 H   0  0  0  0  0  0  0  0  0  0  0  0
  154.4577  142.0284  160.9011 H   0  0  0  0  0  0  0  0  0  0  0  0
  153.8947  141.0706  159.5518 H   0  0  0  0  0  0  0  0  0  0  0  0
  153.4526  143.4397  159.0791 H   0  0  0  0  0  0  0  0  0  0  0  0
  151.9993  143.4979  161.7564 H   0  0  0  0  0  0  0  0  0  0  0  0
  153.5390  144.2442  161.4077 H   0  0  0  0  0  0  0  0  0  0  0  0
  151.7042  145.9097  161.3151 H   0  0  0  0  0  0  0  0  0  0  0  0
  152.4938  145.7609  159.7619 H   0  0  0  0  0  0  0  0  0  0  0  0
  149.8614  144.4473  160.5832 H   0  0  0  0  0  0  0  0  0  0  0  0
  150.0426  145.7836  159.4717 H   0  0  0  0  0  0  0  0  0  0  0  0
  151.3050  144.3590  157.8915 H   0  0  0  0  0  0  0  0  0  0  0  0
  149.2937  143.6181  157.1206 H   0  0  0  0  0  0  0  0  0  0  0  0
  147.6212  142.5476  157.0488 H   0  0  0  0  0  0  0  0  0  0  0  0
  146.0206  140.7704  156.6393 H   0  0  0  0  0  0  0  0  0  0  0  0
  144.5702  140.8563  157.6321 H   0  0  0  0  0  0  0  0  0  0  0  0
  145.5135  144.2904  157.3405 H   0  0  0  0  0  0  0  0  0  0  0  0
  144.1763  145.4471  155.1843 H   0  0  0  0  0  0  0  0  0  0  0  0
  143.9129  141.2303  154.8795 H   0  0  0  0  0  0  0  0  0  0  0  0
  150.8418  142.0817  159.8506 H   0  0  0  0  0  0  0  0  0  0  0  0
  152.3371  142.0660  157.1809 H   0  0  0  0  0  0  0  0  0  0  0  0
  150.7354  141.3852  157.4347 H   0  0  0  0  0  0  0  0  0  0  0  0
  152.1055  140.6832  158.2479 H   0  0  0  0  0  0  0  0  0  0  0  0
  143.3011  143.4834  153.8466 H   0  0  0  0  0  0  0  0  0  0  0  0
  1  2  1  0  0  0  0
  1 21  1  0  0  0  0
  1 22  1  0  0  0  0
  1 23  1  0  0  0  0
  2 19  1  0  0  0  0
  2  3  1  0  0  0  0
  2 24  1  0  0  0  0
  3  4  1  0  0  0  0
  3 25  1  0  0  0  0
  3 26  1  0  0  0  0
  4  5  1  0  0  0  0
  4 27  1  0  0  0  0
  4 28  1  0  0  0  0
  5  6  1  0  0  0  0
  5 29  1  0  0  0  0
  5 30  1  0  0  0  0
  6  7  1  0  0  0  0
  6 19  1  0  0  0  0
  6 31  1  0  0  0  0
  7  8  1  0  0  0  0
  7 32  1  0  0  0  0
  8  9  2  0  0  0  0
  8 10  1  0  0  0  0
 10 11  1  0  0  0  0
 10 33  1  0  0  0  0
 11 12  2  0  0  0  0
 11 13  1  0  0  0  0
 13 14  1  0  0  0  0
 13 34  1  0  0  0  0
 13 35  1  0  0  0  0
 14 18  1  0  0  0  0
 14 15  1  0  0  0  0
 15 16  2  0  0  0  0
 15 36  1  0  0  0  0
 16 17  1  0  0  0  0
 16 37  1  0  0  0  0
 17 18  2  0  0  0  0
 17 43  1  0  0  0  0
 18 38  1  0  0  0  0
 19 20  1  0  0  0  0
 19 39  1  0  0  0  0
 20 40  1  0  0  0  0
 20 41  1  0  0  0  0
 20 42  1  0  0  0  0
M  CHG  1  17   1
M  END
> <s_m_source_file>
AV-unprocessed.smi

> <i_m_source_file_index>
527

> <i_lp_mmshare_version>
43012

> <i_f3d_flags>
0

> <s_epik_input>
W0NIM11bQ0BASF0xW0NIMl1bQ0gyXVtDSDJdW0NASF0oW0NASF0xW0NIM10pW05IXUMoPU8pW05IXUMoPU8pW0NIMl1uMltjSF1bY0hdbltjSF0y

> <s_epik_cmdline>
J2VwaWtfcHl0aG9uJywgJy1waCcsICc3LjAnLCAnLXRuJywgJzgnLCAnLW1hJywgJzIwMCcsICctbWV0YWxfYmluZGluZycsICctaW1hZScsICc8aW5maWxlLm1hZT4nLCAnLW9tYWUnLCAnPG91dGZpbGUubWFlPic=

> <r_lp_tautomer_probability>
1

> <r_epik_Ionization_Penalty>
0.816441

> <r_epik_Ionization_Penalty_Charging>
0

> <r_epik_Ionization_Penalty_Neutral>
0.816441

> <r_epik_State_Penalty>
0.849034

> <r_epik_Charging_Adjusted_Penalty>
0.849034

> <i_epik_Tot_Q>
1

> <i_epik_Tot_abs_Q>
1

> <r_epik_Metal_State_Penalty>
0.984327

> <b_epik_Metal_Only>
0

> <s_lp_Force_Field>
OPLS_2005

> <r_lp_Energy>
16.8338

> <b_lp_Chiralities_Consistent>
1

> <s_lp_Variant>
AV-unprocessed.smi:527-11

> <Gold.Version>
5.8.1

> <Gold.Id.Protein>
6NUR|6NUR_protein|mol2

> <Gold.PLP.Fitness>
50.9104

> <Gold.PLP.PLP>
-34.2784

> <Gold.PLP.part.hbond>
-5.0000

> <Gold.PLP.part.metal>
0.0000

> <Gold.PLP.part.buried>
-4.6584

> <Gold.PLP.part.nonpolar>
-24.9564

> <Gold.PLP.part.repulsive>
0.2577

> <Gold.PLP.ligand.clash>
0.0000

> <Gold.PLP.ligand.torsion>
0.2621

> <Gold.PLP.Chemscore.Hbond>
4.6960

> <Gold.PLP.Chemscore.CHOScore>
1.0170

> <Gold.PLP.Chemscore.Metal>
0.0000

> <Gold.Chemscore.Hbonds>
donor molecule, donor type, donor heavy atom, donor atom, acceptor molecule, acceptor atom, score
      L1  H     7    32       P1  8028  0.93
      L1  H    17    43       P1 10174  1.54
      P1  H  6933  6944       L1     9  0.82
      P1  H  6934  6946       L1    12  1.00
      L1  C    15    36       P1  8029  0.11
      L1  C    18    38       P1 10175  0.96

> <Gold.PLP.Chemscore.Internal.Correction>
0.0171

> <Gold.Rescore>
     Score         DG    S(hbond)    S(metal)    S(lipo)     H(rot)  DE(clash)    DE(int)     intcor
     19.33     -22.32       3.23        0.00      89.15       1.71       0.06       2.93       ----

> <Gold.Chemscore.Fitness>
19.3326

> <Gold.Chemscore.DG>
-22.3248

> <Gold.Chemscore.ZeroCoef>
-5.4800

> <Gold.Chemscore.Hbond>
3.2273

> <Gold.Chemscore.Metal>
0.0000

> <Gold.Chemscore.Lipo>
89.1541

> <Gold.Chemscore.Internal_Hbond>
0.0000

> <Gold.Chemscore.DEClash>
0.0625

> <Gold.Chemscore.DEInternal>
2.9297

> <Gold.Chemscore.Rot>
1.7052

> <Gold.Chemscore.Internal.Correction>
   9.000000E+99

> <Gold.Chemscore.Hbonds>
donor molecule, donor type, donor heavy atom, donor atom, acceptor molecule, acceptor atom, score
      L1  H     7    32       P1  8028  0.63
      L1  H    17    43       P1 10174  0.69
      P1  H  6933  6944       L1     9  0.81
      P1  H  6934  6946       L1    12  0.88

> <Gold.Chemscore.Hbond.Weighted>
-10.7790

> <Gold.Chemscore.Metal.Weighted>
-0.0000

> <Gold.Chemscore.Lipo.Weighted>
-10.4310

> <Gold.Chemscore.Internal_Hbond.Weighted>
0.0000

> <Gold.Chemscore.DEClash.Weighted>
0.0625

> <Gold.Chemscore.DEInternal.Weighted>
2.9297

> <Gold.Chemscore.Rot.Weighted>
4.3653

> <Gold.Chemscore.Internal.Correction.Weighted>
   9.000000E+99

> <Gold.Protein.RotatedTorsions>
[ 6907 6896 6895 6894 ] final  -36.02 input  -60.11 | X-H torsion
[ 7974 7965 7964 7962 ] final  -77.11 input  175.53 | X-H torsion
[ 8008 7997 7996 7995 ] final -151.76 input   59.86 | X-H torsion
[ 10167 10162 10161 10158 ] final    4.13 input  -65.29 | X-H torsion
[ 10718 10713 10712 10709 ] final   51.40 input   66.30 | X-H torsion
[ 10763 10752 10751 10750 ] final  124.39 input  -60.55 | X-H torsion
[ 11005 11000 10999 10996 ] final -161.05 input  -57.11 | X-H torsion

> <Gold.Protein.ActiveResidues>
 VAL166  LYS551  ARG553  GLY616  TRP617  ASP618  TYR619  PRO620  LYS621  CYS622 
 ASP623  PHE694  ASN695  SER759  ASP760  ASP761  ALA762  ILE779  LEU786  VAL792 
 PHE793  MET794  SER795  GLU796  ALA797  LYS798  CYS799  TRP800  GLU811  SER814 

> <Gold.Protein.RotatedAtoms>
  151.0325  134.9549  159.8118 H   0  0  0  0  0  0  0  0  0  0  0  0  # atno 6907 bound_to 6896
  152.5348  134.2762  159.9000 H   0  0  0  0  0  0  0  0  0  0  0  0  # atno 6908 bound_to 6896
  151.2772  133.4184  159.2659 H   0  0  0  0  0  0  0  0  0  0  0  0  # atno 6909 bound_to 6896
  145.6040  140.9402  143.1225 H   0  0  0  0  0  0  0  0  0  0  0  0  # atno 7974 bound_to 7965
  155.6444  140.0705  157.2608 H   0  0  0  0  0  0  0  0  0  0  0  0  # atno 8008 bound_to 7997
  154.4176  140.1744  156.1657 H   0  0  0  0  0  0  0  0  0  0  0  0  # atno 8009 bound_to 7997
  155.9828  140.3352  155.6683 H   0  0  0  0  0  0  0  0  0  0  0  0  # atno 8010 bound_to 7997
  140.6550  143.7449  150.7639 H   0  0  0  0  0  0  0  0  0  0  0  0  # atno 10167 bound_to 10162
  157.4977  130.8417  149.8278 H   0  0  0  0  0  0  0  0  0  0  0  0  # atno 10718 bound_to 10713
  153.6606  135.3347  155.3126 H   0  0  0  0  0  0  0  0  0  0  0  0  # atno 10763 bound_to 10752
  154.8515  135.4363  154.1808 H   0  0  0  0  0  0  0  0  0  0  0  0  # atno 10764 bound_to 10752
  153.2774  135.7006  153.7495 H   0  0  0  0  0  0  0  0  0  0  0  0  # atno 10765 bound_to 10752
  140.6247  134.4713  157.5226 H   0  0  0  0  0  0  0  0  0  0  0  0  # atno 11005 bound_to 11000
  144.7297  139.7762  143.7351 LP  0  0  0  0  0  0  0  0  0  0  0  0  # atno 17320 bound_to 7965
  146.1554  139.4651  143.0022 LP  0  0  0  0  0  0  0  0  0  0  0  0  # atno 17321 bound_to 7965
  140.1107  143.4702  152.2372 LP  0  0  0  0  0  0  0  0  0  0  0  0  # atno 17342 bound_to 10162
  139.5772  144.7493  151.3735 LP  0  0  0  0  0  0  0  0  0  0  0  0  # atno 17343 bound_to 10162
  156.0210  130.3795  150.1962 LP  0  0  0  0  0  0  0  0  0  0  0  0  # atno 17370 bound_to 10713
  157.0151  130.9963  151.3355 LP  0  0  0  0  0  0  0  0  0  0  0  0  # atno 17371 bound_to 10713
  139.9139  134.8286  156.1432 LP  0  0  0  0  0  0  0  0  0  0  0  0  # atno 17394 bound_to 11000
  141.0717  133.6793  156.2155 LP  0  0  0  0  0  0  0  0  0  0  0  0  # atno 17395 bound_to 11000

$$$$
