AV-unprocessed.smi:49|AV-procd|sdf|466|dock4
  -GOLD-   2262016333D 1   1.00000     0.00000
 Structure written by MMmdl.
 28 29  0  0  0  0  0  0  0  0  2 V2000
  152.5553  144.4205  158.4216 C   0  0  0  0  0  0  0  0  0  0  0  0
  152.4461  142.9327  158.7718 C   0  0  0  0  0  0  0  0  0  0  0  0
  151.6456  142.1646  157.7720 C   0  0  0  0  0  0  0  0  0  0  0  0
  150.9692  142.6979  156.7600 N   0  0  0  0  0  0  0  0  0  0  0  0
  150.4564  141.5683  156.1863 C   0  0  0  0  0  0  0  0  0  0  0  0
  149.6269  141.6127  154.9408 C   0  0  1  0  0  0  0  0  0  0  0  0
  149.2812  140.2225  154.3808 C   0  0  0  0  0  0  0  0  0  0  0  0
  147.8063  140.3046  153.9583 C   0  0  2  0  0  0  0  0  0  0  0  0
  147.6096  139.8503  152.6358 O   0  0  0  0  0  0  0  0  0  0  0  0
  147.4268  141.7807  154.1062 C   0  0  0  0  0  0  0  0  0  0  0  0
  148.3394  142.3031  155.1324 N   0  3  0  0  0  0  0  0  0  0  0  0
  150.7994  140.4153  156.7624 N   0  0  0  0  0  0  0  0  0  0  0  0
  151.5645  140.8325  157.7933 N   0  0  0  0  0  0  0  0  0  0  0  0
  150.1705  142.1701  154.1763 H   0  0  0  0  0  0  0  0  0  0  0  0
  147.2001  139.7021  154.6363 H   0  0  0  0  0  0  0  0  0  0  0  0
  151.9999  140.2010  158.4512 H   0  0  0  0  0  0  0  0  0  0  0  0
  153.1411  144.9535  159.1707 H   0  0  0  0  0  0  0  0  0  0  0  0
  151.5710  144.8873  158.3745 H   0  0  0  0  0  0  0  0  0  0  0  0
  153.0407  144.5622  157.4557 H   0  0  0  0  0  0  0  0  0  0  0  0
  153.4420  142.4937  158.8443 H   0  0  0  0  0  0  0  0  0  0  0  0
  151.9831  142.8170  159.7524 H   0  0  0  0  0  0  0  0  0  0  0  0
  149.9493  139.9610  153.5589 H   0  0  0  0  0  0  0  0  0  0  0  0
  149.3914  139.4490  155.1424 H   0  0  0  0  0  0  0  0  0  0  0  0
  148.3622  140.0916  152.1166 H   0  0  0  0  0  0  0  0  0  0  0  0
  147.6154  142.3241  153.1787 H   0  0  0  0  0  0  0  0  0  0  0  0
  146.3808  141.9254  154.3776 H   0  0  0  0  0  0  0  0  0  0  0  0
  147.9811  142.0462  156.0413 H   0  0  0  0  0  0  0  0  0  0  0  0
  148.4414  143.3062  155.0745 H   0  0  0  0  0  0  0  0  0  0  0  0
  1  2  1  0  0  0  0
  1 17  1  0  0  0  0
  1 18  1  0  0  0  0
  1 19  1  0  0  0  0
  2  3  1  0  0  0  0
  2 20  1  0  0  0  0
  2 21  1  0  0  0  0
  3 13  1  0  0  0  0
  3  4  2  0  0  0  0
  4  5  1  0  0  0  0
  5  6  1  0  0  0  0
  5 12  2  0  0  0  0
  6 14  1  0  0  0  0
  6 11  1  0  0  0  0
  6  7  1  0  0  0  0
  7  8  1  0  0  0  0
  7 22  1  0  0  0  0
  7 23  1  0  0  0  0
  8 15  1  0  0  0  0
  8  9  1  0  0  0  0
  8 10  1  0  0  0  0
  9 24  1  0  0  0  0
 10 11  1  0  0  0  0
 10 25  1  0  0  0  0
 10 26  1  0  0  0  0
 11 27  1  0  0  0  0
 11 28  1  0  0  0  0
 12 13  1  0  0  0  0
 13 16  1  0  0  0  0
M  CHG  1  11   1
M  END
> <s_m_source_file>
AV-unprocessed.smi

> <i_m_source_file_index>
49

> <i_lp_mmshare_version>
43012

> <i_f3d_flags>
0

> <s_epik_input>
W0NIM11bQ0gyXWMxbmMobltuSF0xKVtDQEBIXTJbQ0gyXVtDQEBIXShbT0hdKVtDSDJdW05IXTI=

> <s_epik_cmdline>
J2VwaWtfcHl0aG9uJywgJy1waCcsICc3LjAnLCAnLXRuJywgJzgnLCAnLW1hJywgJzIwMCcsICctbWV0YWxfYmluZGluZycsICctaW1hZScsICc8aW5maWxlLm1hZT4nLCAnLW9tYWUnLCAnPG91dGZpbGUubWFlPic=

> <r_lp_tautomer_probability>
0.948284

> <r_epik_Ionization_Penalty>
0.045643

> <r_epik_Ionization_Penalty_Charging>
0.0371552

> <r_epik_Ionization_Penalty_Neutral>
0.00848778

> <r_epik_State_Penalty>
0.283309

> <r_epik_Charging_Adjusted_Penalty>
0.320465

> <i_epik_Tot_Q>
1

> <i_epik_Tot_abs_Q>
1

> <r_epik_Metal_State_Penalty>
0.558162

> <b_epik_Metal_Only>
0

> <s_lp_Force_Field>
OPLS_2005

> <r_lp_Energy>
17.9317

> <b_lp_Chiralities_Consistent>
1

> <s_lp_Variant>
AV-unprocessed.smi:49-4

> <Gold.Version>
5.8.1

> <Gold.Id.Protein>
6NUR|6NUR_protein|mol2

> <Gold.PLP.Fitness>
36.3956

> <Gold.PLP.PLP>
-27.5758

> <Gold.PLP.part.hbond>
-1.7340

> <Gold.PLP.part.metal>
0.0000

> <Gold.PLP.part.buried>
-4.3695

> <Gold.PLP.part.nonpolar>
-22.3348

> <Gold.PLP.part.repulsive>
0.6288

> <Gold.PLP.ligand.clash>
0.0000

> <Gold.PLP.ligand.torsion>
0.0980

> <Gold.PLP.Chemscore.Hbond>
3.0000

> <Gold.PLP.Chemscore.CHOScore>
0.0000

> <Gold.PLP.Chemscore.Metal>
0.0000

> <Gold.Chemscore.Hbonds>
donor molecule, donor type, donor heavy atom, donor atom, acceptor molecule, acceptor atom, score
      L1  H     9    24       P1  7957  1.00
      L1  H    11    28       P1  8028  2.00

> <Gold.PLP.Chemscore.Internal.Correction>
0.0157

> <Gold.Rescore>
     Score         DG    S(hbond)    S(metal)    S(lipo)     H(rot)  DE(clash)    DE(int)     intcor
     13.54     -13.65       1.98        0.00      54.67       1.89       0.01       0.10       ----

> <Gold.Chemscore.Fitness>
13.5404

> <Gold.Chemscore.DG>
-13.6470

> <Gold.Chemscore.ZeroCoef>
-5.4800

> <Gold.Chemscore.Hbond>
1.9775

> <Gold.Chemscore.Metal>
0.0000

> <Gold.Chemscore.Lipo>
54.6674

> <Gold.Chemscore.Internal_Hbond>
0.0000

> <Gold.Chemscore.DEClash>
0.0060

> <Gold.Chemscore.DEInternal>
0.1006

> <Gold.Chemscore.Rot>
1.8883

> <Gold.Chemscore.Internal.Correction>
   9.000000E+99

> <Gold.Chemscore.Hbonds>
donor molecule, donor type, donor heavy atom, donor atom, acceptor molecule, acceptor atom, score
      L1  H     9    24       P1  7957  0.96
      L1  H    11    28       P1  8028  0.94

> <Gold.Chemscore.Hbond.Weighted>
-6.6049

> <Gold.Chemscore.Metal.Weighted>
-0.0000

> <Gold.Chemscore.Lipo.Weighted>
-6.3961

> <Gold.Chemscore.Internal_Hbond.Weighted>
0.0000

> <Gold.Chemscore.DEClash.Weighted>
0.0060

> <Gold.Chemscore.DEInternal.Weighted>
0.1006

> <Gold.Chemscore.Rot.Weighted>
4.8340

> <Gold.Chemscore.Internal.Correction.Weighted>
   9.000000E+99

> <Gold.Protein.RotatedTorsions>
[ 6907 6896 6895 6894 ] final  -53.18 input  -60.11 | X-H torsion
[ 7974 7965 7964 7962 ] final   -4.56 input  175.53 | X-H torsion
[ 8008 7997 7996 7995 ] final   99.94 input   59.86 | X-H torsion
[ 10167 10162 10161 10158 ] final  137.49 input  -65.29 | X-H torsion
[ 10718 10713 10712 10709 ] final  -29.41 input   66.30 | X-H torsion
[ 10763 10752 10751 10750 ] final  112.73 input  -60.55 | X-H torsion
[ 11005 11000 10999 10996 ] final   50.09 input  -57.11 | X-H torsion

> <Gold.Protein.ActiveResidues>
 VAL166  LYS551  ARG553  GLY616  TRP617  ASP618  TYR619  PRO620  LYS621  CYS622 
 ASP623  PHE694  ASN695  SER759  ASP760  ASP761  ALA762  ILE779  LEU786  VAL792 
 PHE793  MET794  SER795  GLU796  ALA797  LYS798  CYS799  TRP800  GLU811  SER814 

> <Gold.Protein.RotatedAtoms>
  150.8450  134.7756  159.6963 H   0  0  0  0  0  0  0  0  0  0  0  0  # atno 6907 bound_to 6896
  152.4529  134.5351  159.9832 H   0  0  0  0  0  0  0  0  0  0  0  0  # atno 6908 bound_to 6896
  151.5483  133.3383  159.2984 H   0  0  0  0  0  0  0  0  0  0  0  0  # atno 6909 bound_to 6896
  146.2370  140.1890  142.8332 H   0  0  0  0  0  0  0  0  0  0  0  0  # atno 7974 bound_to 7965
  156.1155  140.3221  155.8132 H   0  0  0  0  0  0  0  0  0  0  0  0  # atno 8008 bound_to 7997
  155.4598  140.0538  157.3009 H   0  0  0  0  0  0  0  0  0  0  0  0  # atno 8009 bound_to 7997
  154.4789  140.2044  155.9824 H   0  0  0  0  0  0  0  0  0  0  0  0  # atno 8010 bound_to 7997
  139.5142  144.6407  151.5577 H   0  0  0  0  0  0  0  0  0  0  0  0  # atno 10167 bound_to 10162
  156.4128  130.4411  149.7239 H   0  0  0  0  0  0  0  0  0  0  0  0  # atno 10718 bound_to 10713
  153.4821  135.3677  155.2447 H   0  0  0  0  0  0  0  0  0  0  0  0  # atno 10763 bound_to 10752
  154.8755  135.3957  154.3688 H   0  0  0  0  0  0  0  0  0  0  0  0  # atno 10764 bound_to 10752
  153.4293  135.7082  153.6306 H   0  0  0  0  0  0  0  0  0  0  0  0  # atno 10765 bound_to 10752
  140.1047  134.5034  155.8731 H   0  0  0  0  0  0  0  0  0  0  0  0  # atno 11005 bound_to 11000
  144.9873  140.8515  143.5361 LP  0  0  0  0  0  0  0  0  0  0  0  0  # atno 17320 bound_to 7965
  145.1891  139.2310  143.5252 LP  0  0  0  0  0  0  0  0  0  0  0  0  # atno 17321 bound_to 7965
  140.6172  143.9326  150.6498 LP  0  0  0  0  0  0  0  0  0  0  0  0  # atno 17342 bound_to 10162
  140.2588  143.3539  152.1341 LP  0  0  0  0  0  0  0  0  0  0  0  0  # atno 17343 bound_to 10162
  156.4211  130.7769  151.2786 LP  0  0  0  0  0  0  0  0  0  0  0  0  # atno 17370 bound_to 10713
  157.7507  131.0182  150.3618 LP  0  0  0  0  0  0  0  0  0  0  0  0  # atno 17371 bound_to 10713
  141.2115  133.6707  156.6587 LP  0  0  0  0  0  0  0  0  0  0  0  0  # atno 17394 bound_to 11000
  140.3172  134.8037  157.4224 LP  0  0  0  0  0  0  0  0  0  0  0  0  # atno 17395 bound_to 11000

$$$$
