AV-unprocessed.smi:2559|AV-procd|sdf|10034|dock6
  -GOLD-   2272014 83D 1   1.00000     0.00000
 Structure written by MMmdl.
 44 46  0  0  0  0  0  0  0  0  1 V2000
  146.8951  141.6727  154.2817 C   0  0  0  0  0  0  0  0  0  0  0  0
  147.9822  140.6915  154.2930 N   0  0  0  0  0  0  0  0  0  0  0  0
  147.9726  139.6492  153.4025 C   0  0  0  0  0  0  0  0  0  0  0  0
  147.0695  139.4940  152.5803 O   0  0  0  0  0  0  0  0  0  0  0  0
  149.0151  138.7656  153.4484 N   0  0  0  0  0  0  0  0  0  0  0  0
  150.0798  138.7890  154.2865 C   0  0  0  0  0  0  0  0  0  0  0  0
  150.9846  137.9589  154.2455 O   0  0  0  0  0  0  0  0  0  0  0  0
  150.0404  139.9081  155.2407 C   0  0  0  0  0  0  0  0  0  0  0  0
  149.0391  140.8252  155.2382 C   0  0  0  0  0  0  0  0  0  0  0  0
  149.2527  141.7925  156.2073 N   0  0  0  0  0  0  0  0  0  0  0  0
  150.3908  141.3985  156.7843 C   0  0  0  0  0  0  0  0  0  0  0  0
  150.9968  142.1003  157.8279 N   0  0  0  0  0  0  0  0  0  0  0  0
  151.4110  141.5399  159.1149 C   0  0  0  0  0  0  0  0  0  0  0  0
  152.8529  141.9409  159.4722 C   0  0  0  0  0  0  0  0  0  0  0  0
  152.9901  143.4689  159.5067 C   0  0  0  0  0  0  0  0  0  0  0  0
  152.4531  144.0738  158.2021 C   0  0  0  0  0  0  0  0  0  0  0  0
  151.0327  143.5602  157.9051 C   0  0  0  0  0  0  0  0  0  0  0  0
  150.9424  140.2769  156.2434 N   0  0  0  0  0  0  0  0  0  0  0  0
  152.2121  139.6350  156.5847 C   0  0  0  0  0  0  0  0  0  0  0  0
  152.1435  138.8809  157.9292 C   0  0  2  0  0  0  0  0  0  0  0  0
  153.4082  138.8361  158.5608 O   0  0  0  0  0  0  0  0  0  0  0  0
  151.5733  137.4546  157.8173 C   0  0  0  0  0  0  0  0  0  0  0  0
  151.4074  136.8543  159.0860 O   0  0  0  0  0  0  0  0  0  0  0  0
  148.9905  138.0108  152.7785 H   0  0  0  0  0  0  0  0  0  0  0  0
  146.7942  142.1248  153.2937 H   0  0  0  0  0  0  0  0  0  0  0  0
  147.0537  142.4835  154.9926 H   0  0  0  0  0  0  0  0  0  0  0  0
  145.9482  141.1941  154.5355 H   0  0  0  0  0  0  0  0  0  0  0  0
  150.7294  141.9003  159.8868 H   0  0  0  0  0  0  0  0  0  0  0  0
  151.2994  140.4563  159.1133 H   0  0  0  0  0  0  0  0  0  0  0  0
  153.1306  141.5192  160.4384 H   0  0  0  0  0  0  0  0  0  0  0  0
  153.5468  141.5255  158.7414 H   0  0  0  0  0  0  0  0  0  0  0  0
  152.4264  143.8665  160.3516 H   0  0  0  0  0  0  0  0  0  0  0  0
  154.0308  143.7557  159.6608 H   0  0  0  0  0  0  0  0  0  0  0  0
  152.4520  145.1622  158.2676 H   0  0  0  0  0  0  0  0  0  0  0  0
  153.1163  143.8134  157.3762 H   0  0  0  0  0  0  0  0  0  0  0  0
  150.6843  143.9839  156.9626 H   0  0  0  0  0  0  0  0  0  0  0  0
  150.3370  143.8989  158.6738 H   0  0  0  0  0  0  0  0  0  0  0  0
  152.4992  138.9508  155.7918 H   0  0  0  0  0  0  0  0  0  0  0  0
  153.0058  140.3783  156.5980 H   0  0  0  0  0  0  0  0  0  0  0  0
  151.4916  139.4383  158.6020 H   0  0  0  0  0  0  0  0  0  0  0  0
  153.3720  139.3647  159.3431 H   0  0  0  0  0  0  0  0  0  0  0  0
  150.6182  137.4602  157.2908 H   0  0  0  0  0  0  0  0  0  0  0  0
  152.2504  136.8290  157.2352 H   0  0  0  0  0  0  0  0  0  0  0  0
  150.7534  137.3399  159.5652 H   0  0  0  0  0  0  0  0  0  0  0  0
  1  2  1  0  0  0  0
  1 25  1  0  0  0  0
  1 26  1  0  0  0  0
  1 27  1  0  0  0  0
  2  9  1  0  0  0  0
  2  3  1  0  0  0  0
  3  4  2  0  0  0  0
  3  5  1  0  0  0  0
  5 24  1  0  0  0  0
  5  6  1  0  0  0  0
  6  7  2  0  0  0  0
  6  8  1  0  0  0  0
  8 18  1  0  0  0  0
  8  9  2  0  0  0  0
  9 10  1  0  0  0  0
 10 11  2  0  0  0  0
 11 12  1  0  0  0  0
 11 18  1  0  0  0  0
 12 17  1  0  0  0  0
 12 13  1  0  0  0  0
 13 14  1  0  0  0  0
 13 28  1  0  0  0  0
 13 29  1  0  0  0  0
 14 15  1  0  0  0  0
 14 30  1  0  0  0  0
 14 31  1  0  0  0  0
 15 16  1  0  0  0  0
 15 32  1  0  0  0  0
 15 33  1  0  0  0  0
 16 17  1  0  0  0  0
 16 34  1  0  0  0  0
 16 35  1  0  0  0  0
 17 36  1  0  0  0  0
 17 37  1  0  0  0  0
 18 19  1  0  0  0  0
 19 20  1  0  0  0  0
 19 38  1  0  0  0  0
 19 39  1  0  0  0  0
 20 21  1  0  0  0  0
 20 22  1  0  0  0  0
 20 40  1  0  0  0  0
 21 41  1  0  0  0  0
 22 23  1  0  0  0  0
 22 42  1  0  0  0  0
 22 43  1  0  0  0  0
 23 44  1  0  0  0  0
M  END
> <s_m_source_file>
AV-unprocessed.smi

> <i_m_source_file_index>
2559

> <i_lp_mmshare_version>
43012

> <i_f3d_flags>
0

> <s_epik_input>
Tz1jMVtuSF1jKD1PKW4oW0NIM10pYyhjMTIpbmMobjJbQ0gyXVtDQEhdKFtPSF0pW0NIMl1bT0hdKU4zW0NIMl1bQ0gyXVtDSDJdW0NIMl1bQ0gyXTM=

> <s_epik_cmdline>
J2VwaWtfcHl0aG9uJywgJy1waCcsICc3LjAnLCAnLXRuJywgJzgnLCAnLW1hJywgJzIwMCcsICctbWV0YWxfYmluZGluZycsICctaW1hZScsICc8aW5maWxlLm1hZT4nLCAnLW9tYWUnLCAnPG91dGZpbGUubWFlPic=

> <r_lp_tautomer_probability>
1

> <r_epik_Ionization_Penalty>
0.0023969

> <r_epik_Ionization_Penalty_Charging>
9.35512e-05

> <r_epik_Ionization_Penalty_Neutral>
0.00230335

> <r_epik_State_Penalty>
-0

> <r_epik_Charging_Adjusted_Penalty>
9.35512e-05

> <i_epik_Tot_Q>
0

> <i_epik_Tot_abs_Q>
0

> <r_epik_Metal_State_Penalty>
0.0757518

> <b_epik_Metal_Only>
0

> <s_lp_Force_Field>
OPLS_2005

> <r_lp_Energy>
44.2112

> <b_lp_Chiralities_Consistent>
1

> <s_lp_Variant>
AV-unprocessed.smi:2559-1

> <Gold.Version>
5.8.1

> <Gold.Id.Protein>
6NUR|6NUR_protein|mol2

> <Gold.PLP.Fitness>
48.6578

> <Gold.PLP.PLP>
-41.8083

> <Gold.PLP.part.hbond>
-4.0000

> <Gold.PLP.part.metal>
0.0000

> <Gold.PLP.part.buried>
-3.3850

> <Gold.PLP.part.nonpolar>
-37.8156

> <Gold.PLP.part.repulsive>
2.6361

> <Gold.PLP.ligand.clash>
0.0000

> <Gold.PLP.ligand.torsion>
1.2422

> <Gold.PLP.Chemscore.Hbond>
2.9360

> <Gold.PLP.Chemscore.CHOScore>
0.0000

> <Gold.PLP.Chemscore.Metal>
0.0000

> <Gold.Chemscore.Hbonds>
donor molecule, donor type, donor heavy atom, donor atom, acceptor molecule, acceptor atom, score
      L1  H     5    24       P1  7948  1.00
      P1  H  6896  6909       L1    23  0.99
      P1  H  7997  8008       L1    21  0.32

> <Gold.PLP.Chemscore.Internal.Correction>
0.5259

> <Gold.Rescore>
     Score         DG    S(hbond)    S(metal)    S(lipo)     H(rot)  DE(clash)    DE(int)     intcor
     11.09     -13.90       1.92        0.00      82.15       2.97       1.15       1.66       ----

> <Gold.Chemscore.Fitness>
11.0857

> <Gold.Chemscore.DG>
-13.8951

> <Gold.Chemscore.ZeroCoef>
-5.4800

> <Gold.Chemscore.Hbond>
1.9172

> <Gold.Chemscore.Metal>
0.0000

> <Gold.Chemscore.Lipo>
82.1453

> <Gold.Chemscore.Internal_Hbond>
0.0000

> <Gold.Chemscore.DEClash>
1.1538

> <Gold.Chemscore.DEInternal>
1.6556

> <Gold.Chemscore.Rot>
2.9685

> <Gold.Chemscore.Internal.Correction>
   9.000000E+99

> <Gold.Chemscore.Hbonds>
donor molecule, donor type, donor heavy atom, donor atom, acceptor molecule, acceptor atom, score
      L1  H     5    24       P1  7948  0.98
      P1  H  6896  6909       L1    23  0.52
      P1  H  7997  8008       L1    21  0.04

> <Gold.Chemscore.Hbond.Weighted>
-6.4035

> <Gold.Chemscore.Metal.Weighted>
-0.0000

> <Gold.Chemscore.Lipo.Weighted>
-9.6110

> <Gold.Chemscore.Internal_Hbond.Weighted>
0.0000

> <Gold.Chemscore.DEClash.Weighted>
1.1538

> <Gold.Chemscore.DEInternal.Weighted>
1.6556

> <Gold.Chemscore.Rot.Weighted>
7.5994

> <Gold.Chemscore.Internal.Correction.Weighted>
   9.000000E+99

> <Gold.Protein.RotatedTorsions>
[ 6907 6896 6895 6894 ] final  119.44 input  -60.11 | X-H torsion
[ 7974 7965 7964 7962 ] final  -25.77 input  175.53 | X-H torsion
[ 8008 7997 7996 7995 ] final  -82.76 input   59.86 | X-H torsion
[ 10167 10162 10161 10158 ] final -140.51 input  -65.29 | X-H torsion
[ 10718 10713 10712 10709 ] final  105.47 input   66.30 | X-H torsion
[ 10763 10752 10751 10750 ] final   99.69 input  -60.55 | X-H torsion
[ 11005 11000 10999 10996 ] final  174.98 input  -57.11 | X-H torsion

> <Gold.Protein.ActiveResidues>
 VAL166  LYS551  ARG553  GLY616  TRP617  ASP618  TYR619  PRO620  LYS621  CYS622 
 ASP623  PHE694  ASN695  SER759  ASP760  ASP761  ALA762  ILE779  LEU786  VAL792 
 PHE793  MET794  SER795  GLU796  ALA797  LYS798  CYS799  TRP800  GLU811  SER814 

> <Gold.Protein.RotatedAtoms>
  152.4471  133.7558  159.6718 H   0  0  0  0  0  0  0  0  0  0  0  0  # atno 6907 bound_to 6896
  150.8374  133.7981  159.3080 H   0  0  0  0  0  0  0  0  0  0  0  0  # atno 6908 bound_to 6896
  151.5616  135.1068  160.0026 H   0  0  0  0  0  0  0  0  0  0  0  0  # atno 6909 bound_to 6896
  146.1469  140.4931  142.8628 H   0  0  0  0  0  0  0  0  0  0  0  0  # atno 7974 bound_to 7965
  154.6120  140.0628  156.9506 H   0  0  0  0  0  0  0  0  0  0  0  0  # atno 8008 bound_to 7997
  155.1957  140.3311  155.4333 H   0  0  0  0  0  0  0  0  0  0  0  0  # atno 8009 bound_to 7997
  156.2382  140.1873  156.7044 H   0  0  0  0  0  0  0  0  0  0  0  0  # atno 8010 bound_to 7997
  139.8274  143.7492  152.2666 H   0  0  0  0  0  0  0  0  0  0  0  0  # atno 10167 bound_to 10162
  157.6704  131.0828  150.5861 H   0  0  0  0  0  0  0  0  0  0  0  0  # atno 10718 bound_to 10713
  153.3045  135.4105  155.1282 H   0  0  0  0  0  0  0  0  0  0  0  0  # atno 10763 bound_to 10752
  154.8559  135.3549  154.5807 H   0  0  0  0  0  0  0  0  0  0  0  0  # atno 10764 bound_to 10752
  153.6233  135.7063  153.5361 H   0  0  0  0  0  0  0  0  0  0  0  0  # atno 10765 bound_to 10752
  140.3572  134.7144  157.4307 H   0  0  0  0  0  0  0  0  0  0  0  0  # atno 11005 bound_to 11000
  144.7857  140.5932  143.6575 LP  0  0  0  0  0  0  0  0  0  0  0  0  # atno 17320 bound_to 7965
  145.4916  139.1488  143.3707 LP  0  0  0  0  0  0  0  0  0  0  0  0  # atno 17321 bound_to 7965
  139.7689  144.7483  151.0253 LP  0  0  0  0  0  0  0  0  0  0  0  0  # atno 17342 bound_to 10162
  140.7809  143.4667  151.0203 LP  0  0  0  0  0  0  0  0  0  0  0  0  # atno 17343 bound_to 10162
  156.6162  130.4393  149.5840 LP  0  0  0  0  0  0  0  0  0  0  0  0  # atno 17370 bound_to 10713
  156.2391  130.6841  151.1539 LP  0  0  0  0  0  0  0  0  0  0  0  0  # atno 17371 bound_to 10713
  140.0655  134.5935  155.8700 LP  0  0  0  0  0  0  0  0  0  0  0  0  # atno 17394 bound_to 11000
  141.1995  133.6607  156.5845 LP  0  0  0  0  0  0  0  0  0  0  0  0  # atno 17395 bound_to 11000

$$$$
