AV-unprocessed.smi:2174|AV-procd|sdf|8842|dock5
  -GOLD-   2272012 33D 1   1.00000     0.00000
 Structure written by MMmdl.
 46 47  0  0  0  0  0  0  0  0  2 V2000
  148.4823  141.2879  153.9830 C   0  0  0  0  0  0  0  0  0  0  0  0
  149.6601  140.9524  154.8525 C   0  0  0  0  0  0  0  0  0  0  0  0
  150.1969  141.8879  155.6176 N   0  0  0  0  0  0  0  0  0  0  0  0
  151.2507  141.2697  156.2978 O   0  0  0  0  0  0  0  0  0  0  0  0
  151.3050  139.9693  155.9137 C   0  0  0  0  0  0  0  0  0  0  0  0
  152.3663  139.1280  156.5382 C   0  0  0  0  0  0  0  0  0  0  0  0
  150.3232  139.7003  155.0000 C   0  0  0  0  0  0  0  0  0  0  0  0
  150.0081  138.3930  154.3140 C   0  0  0  0  0  0  0  0  0  0  0  0
  148.7741  137.7222  154.9277 C   0  0  0  0  0  0  0  0  0  0  0  0
  148.2531  138.2049  155.9321 O   0  0  0  0  0  0  0  0  0  0  0  0
  148.2951  136.6309  154.3086 N   0  0  0  0  0  0  0  0  0  0  0  0
  147.1240  135.8678  154.7289 C   0  0  0  0  0  0  0  0  0  0  0  0
  145.9607  135.9515  153.7176 C   0  0  0  0  0  0  0  0  0  0  0  0
  146.2687  135.3299  152.4000 N   0  3  0  0  0  0  0  0  0  0  0  0
  145.3228  135.7591  151.3324 C   0  0  0  0  0  0  0  0  0  0  0  0
  144.0540  134.8938  151.2111 C   0  0  0  0  0  0  0  0  0  0  0  0
  144.2277  133.7251  150.2276 C   0  0  0  0  0  0  0  0  0  0  0  0
  145.1618  132.6149  150.7272 C   0  0  0  0  0  0  0  0  0  0  0  0
  146.5529  133.1052  151.1626 C   0  0  0  0  0  0  0  0  0  0  0  0
  146.5259  133.8648  152.5028 C   0  0  0  0  0  0  0  0  0  0  0  0
  148.6143  140.8924  152.9757 H   0  0  0  0  0  0  0  0  0  0  0  0
  148.3366  142.3654  153.8973 H   0  0  0  0  0  0  0  0  0  0  0  0
  147.5659  140.8597  154.3898 H   0  0  0  0  0  0  0  0  0  0  0  0
  151.9705  138.1518  156.8201 H   0  0  0  0  0  0  0  0  0  0  0  0
  152.7658  139.6013  157.4356 H   0  0  0  0  0  0  0  0  0  0  0  0
  153.1910  138.9706  155.8428 H   0  0  0  0  0  0  0  0  0  0  0  0
  149.8339  138.5462  153.2481 H   0  0  0  0  0  0  0  0  0  0  0  0
  150.8440  137.6965  154.3846 H   0  0  0  0  0  0  0  0  0  0  0  0
  148.7946  136.2934  153.4983 H   0  0  0  0  0  0  0  0  0  0  0  0
  147.4326  134.8302  154.8575 H   0  0  0  0  0  0  0  0  0  0  0  0
  146.7926  136.2050  155.7124 H   0  0  0  0  0  0  0  0  0  0  0  0
  145.0613  135.5018  154.1403 H   0  0  0  0  0  0  0  0  0  0  0  0
  145.7292  137.0070  153.5685 H   0  0  0  0  0  0  0  0  0  0  0  0
  145.0355  136.7979  151.4987 H   0  0  0  0  0  0  0  0  0  0  0  0
  145.8547  135.7738  150.3807 H   0  0  0  0  0  0  0  0  0  0  0  0
  143.7103  134.5457  152.1859 H   0  0  0  0  0  0  0  0  0  0  0  0
  143.2533  135.5260  150.8256 H   0  0  0  0  0  0  0  0  0  0  0  0
  143.2503  133.2875  150.0217 H   0  0  0  0  0  0  0  0  0  0  0  0
  144.5887  134.1031  149.2703 H   0  0  0  0  0  0  0  0  0  0  0  0
  144.6871  132.0794  151.5505 H   0  0  0  0  0  0  0  0  0  0  0  0
  145.2799  131.8816  149.9286 H   0  0  0  0  0  0  0  0  0  0  0  0
  147.1774  132.2212  151.2973 H   0  0  0  0  0  0  0  0  0  0  0  0
  147.0385  133.6873  150.3785 H   0  0  0  0  0  0  0  0  0  0  0  0
  147.4971  133.7380  152.9814 H   0  0  0  0  0  0  0  0  0  0  0  0
  145.8003  133.4027  153.1738 H   0  0  0  0  0  0  0  0  0  0  0  0
  147.1495  135.7397  152.1235 H   0  0  0  0  0  0  0  0  0  0  0  0
  1  2  1  0  0  0  0
  1 21  1  0  0  0  0
  1 22  1  0  0  0  0
  1 23  1  0  0  0  0
  2  7  1  0  0  0  0
  2  3  2  0  0  0  0
  3  4  1  0  0  0  0
  4  5  1  0  0  0  0
  5  6  1  0  0  0  0
  5  7  2  0  0  0  0
  6 24  1  0  0  0  0
  6 25  1  0  0  0  0
  6 26  1  0  0  0  0
  7  8  1  0  0  0  0
  8  9  1  0  0  0  0
  8 27  1  0  0  0  0
  8 28  1  0  0  0  0
  9 10  2  0  0  0  0
  9 11  1  0  0  0  0
 11 12  1  0  0  0  0
 11 29  1  0  0  0  0
 12 13  1  0  0  0  0
 12 30  1  0  0  0  0
 12 31  1  0  0  0  0
 13 14  1  0  0  0  0
 13 32  1  0  0  0  0
 13 33  1  0  0  0  0
 14 20  1  0  0  0  0
 14 15  1  0  0  0  0
 14 46  1  0  0  0  0
 15 16  1  0  0  0  0
 15 34  1  0  0  0  0
 15 35  1  0  0  0  0
 16 17  1  0  0  0  0
 16 36  1  0  0  0  0
 16 37  1  0  0  0  0
 17 18  1  0  0  0  0
 17 38  1  0  0  0  0
 17 39  1  0  0  0  0
 18 19  1  0  0  0  0
 18 40  1  0  0  0  0
 18 41  1  0  0  0  0
 19 20  1  0  0  0  0
 19 42  1  0  0  0  0
 19 43  1  0  0  0  0
 20 44  1  0  0  0  0
 20 45  1  0  0  0  0
M  CHG  1  14   1
M  END
> <s_m_source_file>
AV-unprocessed.smi

> <i_m_source_file_index>
2174

> <i_lp_mmshare_version>
43012

> <i_f3d_flags>
0

> <s_epik_input>
W0NIM11jMW5vYyhbQ0gzXSljMVtDSDJdQyg9TylbTkhdW0NIMl1bQ0gyXU4yW0NIMl1bQ0gyXVtDSDJdW0NIMl1bQ0gyXVtDSDJdMg==

> <s_epik_cmdline>
J2VwaWtfcHl0aG9uJywgJy1waCcsICc3LjAnLCAnLXRuJywgJzgnLCAnLW1hJywgJzIwMCcsICctbWV0YWxfYmluZGluZycsICctaW1hZScsICc8aW5maWxlLm1hZT4nLCAnLW9tYWUnLCAnPG91dGZpbGUubWFlPic=

> <r_epik_Ionization_Penalty>
0.0024041

> <r_epik_Ionization_Penalty_Charging>
0.00240401

> <r_epik_Ionization_Penalty_Neutral>
9.67143e-08

> <r_epik_State_Penalty>
0.00166275

> <r_epik_Charging_Adjusted_Penalty>
0.00406676

> <i_epik_Tot_Q>
1

> <i_epik_Tot_abs_Q>
1

> <r_epik_Metal_State_Penalty>
-0

> <b_epik_Metal_Only>
0

> <s_lp_Force_Field>
OPLS_2005

> <r_lp_Energy>
23.9456

> <b_lp_Chiralities_Consistent>
1

> <s_lp_Variant>
AV-unprocessed.smi:2174-1

> <Gold.Version>
5.8.1

> <Gold.Id.Protein>
6NUR|6NUR_protein|mol2

> <Gold.PLP.Fitness>
41.4579

> <Gold.PLP.PLP>
-33.1076

> <Gold.PLP.part.hbond>
-1.8549

> <Gold.PLP.part.metal>
0.0000

> <Gold.PLP.part.buried>
-1.0961

> <Gold.PLP.part.nonpolar>
-29.6960

> <Gold.PLP.part.repulsive>
1.0468

> <Gold.PLP.ligand.clash>
0.0000

> <Gold.PLP.ligand.torsion>
0.3544

> <Gold.PLP.Chemscore.Hbond>
3.0000

> <Gold.PLP.Chemscore.CHOScore>
0.0000

> <Gold.PLP.Chemscore.Metal>
0.0000

> <Gold.Chemscore.Hbonds>
donor molecule, donor type, donor heavy atom, donor atom, acceptor molecule, acceptor atom, score
      L1  H    11    29       P1  7948  1.00
      L1  H    14    46       P1  7948  2.00

> <Gold.PLP.Chemscore.Internal.Correction>
0.0591

> <Gold.Rescore>
     Score         DG    S(hbond)    S(metal)    S(lipo)     H(rot)  DE(clash)    DE(int)     intcor
     16.92     -17.33       1.90        0.00      84.05       1.69       0.02       0.39       ----

> <Gold.Chemscore.Fitness>
16.9171

> <Gold.Chemscore.DG>
-17.3326

> <Gold.Chemscore.ZeroCoef>
-5.4800

> <Gold.Chemscore.Hbond>
1.8969

> <Gold.Chemscore.Metal>
0.0000

> <Gold.Chemscore.Lipo>
84.0549

> <Gold.Chemscore.Internal_Hbond>
0.0000

> <Gold.Chemscore.DEClash>
0.0249

> <Gold.Chemscore.DEInternal>
0.3906

> <Gold.Chemscore.Rot>
1.6865

> <Gold.Chemscore.Internal.Correction>
   9.000000E+99

> <Gold.Chemscore.Hbonds>
donor molecule, donor type, donor heavy atom, donor atom, acceptor molecule, acceptor atom, score
      L1  H    11    29       P1  7948  0.94
      L1  H    14    46       P1  7948  1.00

> <Gold.Chemscore.Hbond.Weighted>
-6.3355

> <Gold.Chemscore.Metal.Weighted>
-0.0000

> <Gold.Chemscore.Lipo.Weighted>
-9.8344

> <Gold.Chemscore.Internal_Hbond.Weighted>
0.0000

> <Gold.Chemscore.DEClash.Weighted>
0.0249

> <Gold.Chemscore.DEInternal.Weighted>
0.3906

> <Gold.Chemscore.Rot.Weighted>
4.3174

> <Gold.Chemscore.Internal.Correction.Weighted>
   9.000000E+99

> <Gold.Protein.RotatedTorsions>
[ 6907 6896 6895 6894 ] final   14.06 input  -60.11 | X-H torsion
[ 7974 7965 7964 7962 ] final   79.42 input  175.53 | X-H torsion
[ 8008 7997 7996 7995 ] final  130.39 input   59.86 | X-H torsion
[ 10167 10162 10161 10158 ] final  111.85 input  -65.29 | X-H torsion
[ 10718 10713 10712 10709 ] final   44.08 input   66.30 | X-H torsion
[ 10763 10752 10751 10750 ] final   39.21 input  -60.55 | X-H torsion
[ 11005 11000 10999 10996 ] final -130.73 input  -57.11 | X-H torsion

> <Gold.Protein.ActiveResidues>
 VAL166  LYS551  ARG553  GLY616  TRP617  ASP618  TYR619  PRO620  LYS621  CYS622 
 ASP623  PHE694  ASN695  SER759  ASP760  ASP761  ALA762  ILE779  LEU786  VAL792 
 PHE793  MET794  SER795  GLU796  ALA797  LYS798  CYS799  TRP800  GLU811  SER814 

> <Gold.Protein.RotatedAtoms>
  151.7962  135.0722  160.0393 H   0  0  0  0  0  0  0  0  0  0  0  0  # atno 6907 bound_to 6896
  152.3121  133.5760  159.5696 H   0  0  0  0  0  0  0  0  0  0  0  0  # atno 6908 bound_to 6896
  150.7325  134.0052  159.3693 H   0  0  0  0  0  0  0  0  0  0  0  0  # atno 6909 bound_to 6896
  145.6644  139.2480  143.1904 H   0  0  0  0  0  0  0  0  0  0  0  0  # atno 7974 bound_to 7965
  156.2953  140.2597  156.2754 H   0  0  0  0  0  0  0  0  0  0  0  0  # atno 8008 bound_to 7997
  154.9654  140.0392  157.2228 H   0  0  0  0  0  0  0  0  0  0  0  0  # atno 8009 bound_to 7997
  154.7908  140.2811  155.5997 H   0  0  0  0  0  0  0  0  0  0  0  0  # atno 8010 bound_to 7997
  139.6580  144.7129  151.1920 H   0  0  0  0  0  0  0  0  0  0  0  0  # atno 10167 bound_to 10162
  157.4230  130.7980  149.7532 H   0  0  0  0  0  0  0  0  0  0  0  0  # atno 10718 bound_to 10713
  152.9975  135.6227  154.2429 H   0  0  0  0  0  0  0  0  0  0  0  0  # atno 10763 bound_to 10752
  154.2169  135.2797  155.2940 H   0  0  0  0  0  0  0  0  0  0  0  0  # atno 10764 bound_to 10752
  154.5560  135.5719  153.7023 H   0  0  0  0  0  0  0  0  0  0  0  0  # atno 10765 bound_to 10752
  140.9320  134.1306  157.4226 H   0  0  0  0  0  0  0  0  0  0  0  0  # atno 11005 bound_to 11000
  146.1098  140.7442  142.9509 LP  0  0  0  0  0  0  0  0  0  0  0  0  # atno 17320 bound_to 7965
  144.7078  140.3920  143.7104 LP  0  0  0  0  0  0  0  0  0  0  0  0  # atno 17321 bound_to 7965
  140.7567  143.6041  150.8670 LP  0  0  0  0  0  0  0  0  0  0  0  0  # atno 17342 bound_to 10162
  139.9696  143.6072  152.2978 LP  0  0  0  0  0  0  0  0  0  0  0  0  # atno 17343 bound_to 10162
  155.9887  130.3957  150.3107 LP  0  0  0  0  0  0  0  0  0  0  0  0  # atno 17370 bound_to 10713
  157.1257  131.0258  151.2990 LP  0  0  0  0  0  0  0  0  0  0  0  0  # atno 17371 bound_to 10713
  139.8799  135.0008  156.6032 LP  0  0  0  0  0  0  0  0  0  0  0  0  # atno 17394 bound_to 11000
  140.7849  133.8629  155.8598 LP  0  0  0  0  0  0  0  0  0  0  0  0  # atno 17395 bound_to 11000

$$$$
