AV-unprocessed.smi:3090|AV-procd|sdf|11777|dock1
  -GOLD-   2272017153D 1   1.00000     0.00000
 Structure written by MMmdl.
 21 21  0  0  0  0  0  0  0  0  1 V2000
  152.3918  141.2224  158.5561 C   0  0  0  0  0  0  0  0  0  0  0  0
  151.8088  140.7314  157.3260 N   0  0  0  0  0  0  0  0  0  0  0  0
  150.5747  141.0174  156.7832 C   0  0  0  0  0  0  0  0  0  0  0  0
  150.4653  140.3146  155.6148 C   0  0  0  0  0  0  0  0  0  0  0  0
  149.3269  140.2692  154.6294 C   0  0  1  0  0  0  0  0  0  0  0  0
  149.6997  140.8615  153.4010 O   0  0  0  0  0  0  0  0  0  0  0  0
  148.9150  138.8137  154.3503 C   0  0  0  0  0  0  0  0  0  0  0  0
  148.3949  138.6183  152.9880 N   0  0  0  0  0  0  0  0  0  0  0  0
  151.7088  139.6245  155.5314 C   0  0  0  0  0  0  0  0  0  0  0  0
  152.5085  139.8743  156.5553 N   0  0  0  0  0  0  0  0  0  0  0  0
  151.7000  141.9032  159.0530 H   0  0  0  0  0  0  0  0  0  0  0  0
  153.3187  141.7542  158.3391 H   0  0  0  0  0  0  0  0  0  0  0  0
  152.6057  140.3858  159.2219 H   0  0  0  0  0  0  0  0  0  0  0  0
  149.8813  141.6897  157.2671 H   0  0  0  0  0  0  0  0  0  0  0  0
  148.4709  140.8203  155.0213 H   0  0  0  0  0  0  0  0  0  0  0  0
  149.6551  140.2030  152.7250 H   0  0  0  0  0  0  0  0  0  0  0  0
  149.7504  138.1389  154.5418 H   0  0  0  0  0  0  0  0  0  0  0  0
  148.1326  138.5314  155.0558 H   0  0  0  0  0  0  0  0  0  0  0  0
  148.7750  139.3227  152.3574 H   0  0  0  0  0  0  0  0  0  0  0  0
  148.6765  137.7087  152.6258 H   0  0  0  0  0  0  0  0  0  0  0  0
  152.0511  138.9516  154.7591 H   0  0  0  0  0  0  0  0  0  0  0  0
  1  2  1  0  0  0  0
  1 11  1  0  0  0  0
  1 12  1  0  0  0  0
  1 13  1  0  0  0  0
  2 10  1  0  0  0  0
  2  3  1  0  0  0  0
  3  4  2  0  0  0  0
  3 14  1  0  0  0  0
  4  5  1  0  0  0  0
  4  9  1  0  0  0  0
  5  6  1  0  0  0  0
  5  7  1  0  0  0  0
  5 15  1  0  0  0  0
  6 16  1  0  0  0  0
  7  8  1  0  0  0  0
  7 17  1  0  0  0  0
  7 18  1  0  0  0  0
  8 19  1  0  0  0  0
  8 20  1  0  0  0  0
  9 10  2  0  0  0  0
  9 21  1  0  0  0  0
M  END
> <s_m_source_file>
AV-unprocessed.smi

> <i_m_source_file_index>
3090

> <i_lp_mmshare_version>
43012

> <i_f3d_flags>
0

> <s_epik_input>
W0NIM11uMVtjSF1jKFtjSF1uMSlbQ0BIXShbT0hdKVtDSDJdW05IMl0=

> <s_epik_cmdline>
J2VwaWtfcHl0aG9uJywgJy1waCcsICc3LjAnLCAnLXRuJywgJzgnLCAnLW1hJywgJzIwMCcsICctbWV0YWxfYmluZGluZycsICctaW1hZScsICc8aW5maWxlLm1hZT4nLCAnLW9tYWUnLCAnPG91dGZpbGUubWFlPic=

> <r_lp_tautomer_probability>
1

> <r_epik_Ionization_Penalty>
2.22426

> <r_epik_Ionization_Penalty_Charging>
0

> <r_epik_Ionization_Penalty_Neutral>
2.22426

> <r_epik_State_Penalty>
2.36938

> <r_epik_Charging_Adjusted_Penalty>
2.36938

> <i_epik_Tot_Q>
0

> <i_epik_Tot_abs_Q>
0

> <r_epik_Metal_State_Penalty>
2.36934

> <b_epik_Metal_Only>
0

> <s_lp_Force_Field>
OPLS_2005

> <r_lp_Energy>
8.04815

> <b_lp_Chiralities_Consistent>
1

> <s_lp_Variant>
AV-unprocessed.smi:3090-4

> <Gold.Version>
5.8.1

> <Gold.Id.Protein>
6NUR|6NUR_protein|mol2

> <Gold.PLP.Fitness>
36.0399

> <Gold.PLP.PLP>
-21.8960

> <Gold.PLP.part.hbond>
-5.3415

> <Gold.PLP.part.metal>
0.0000

> <Gold.PLP.part.buried>
-2.3537

> <Gold.PLP.part.nonpolar>
-14.0031

> <Gold.PLP.part.repulsive>
0.0000

> <Gold.PLP.ligand.clash>
0.0000

> <Gold.PLP.ligand.torsion>
0.5009

> <Gold.PLP.Chemscore.Hbond>
5.0480

> <Gold.PLP.Chemscore.CHOScore>
0.0000

> <Gold.PLP.Chemscore.Metal>
0.0000

> <Gold.Chemscore.Hbonds>
donor molecule, donor type, donor heavy atom, donor atom, acceptor molecule, acceptor atom, score
      L1  H     6    16       P1  7957  0.83
      L1  H     8    19       P1  7957  1.00
      L1  H     8    20       P1  7948  1.00
      P1  H  7989  7998       L1     6  0.22
      P1  H  7997  8010       L1    10  1.00
      P1  H  8011  8017       L1     6  0.95

> <Gold.PLP.Chemscore.Internal.Correction>
0.0017

> <Gold.Rescore>
     Score         DG    S(hbond)    S(metal)    S(lipo)     H(rot)  DE(clash)    DE(int)     intcor
     18.92     -19.39       4.24        0.00      39.59       1.90       0.00       0.47       ----

> <Gold.Chemscore.Fitness>
18.9210

> <Gold.Chemscore.DG>
-19.3925

> <Gold.Chemscore.ZeroCoef>
-5.4800

> <Gold.Chemscore.Hbond>
4.2379

> <Gold.Chemscore.Metal>
0.0000

> <Gold.Chemscore.Lipo>
39.5868

> <Gold.Chemscore.Internal_Hbond>
0.0000

> <Gold.Chemscore.DEClash>
0.0000

> <Gold.Chemscore.DEInternal>
0.4715

> <Gold.Chemscore.Rot>
1.9039

> <Gold.Chemscore.Internal.Correction>
   9.000000E+99

> <Gold.Chemscore.Hbonds>
donor molecule, donor type, donor heavy atom, donor atom, acceptor molecule, acceptor atom, score
      L1  H     6    16       P1  7957  0.79
      L1  H     8    19       P1  7957  0.99
      L1  H     8    20       P1  7948  1.00
      P1  H  7989  7998       L1     6  0.01
      P1  H  7997  8010       L1    10  0.93
      P1  H  8011  8017       L1     6  0.21

> <Gold.Chemscore.Hbond.Weighted>
-14.1548

> <Gold.Chemscore.Metal.Weighted>
-0.0000

> <Gold.Chemscore.Lipo.Weighted>
-4.6317

> <Gold.Chemscore.Internal_Hbond.Weighted>
0.0000

> <Gold.Chemscore.DEClash.Weighted>
0.0000

> <Gold.Chemscore.DEInternal.Weighted>
0.4715

> <Gold.Chemscore.Rot.Weighted>
4.8739

> <Gold.Chemscore.Internal.Correction.Weighted>
   9.000000E+99

> <Gold.Protein.RotatedTorsions>
[ 6907 6896 6895 6894 ] final -144.83 input  -60.11 | X-H torsion
[ 7974 7965 7964 7962 ] final   70.83 input  175.53 | X-H torsion
[ 8008 7997 7996 7995 ] final   85.40 input   59.86 | X-H torsion
[ 10167 10162 10161 10158 ] final  125.77 input  -65.29 | X-H torsion
[ 10718 10713 10712 10709 ] final -176.09 input   66.30 | X-H torsion
[ 10763 10752 10751 10750 ] final  -75.60 input  -60.55 | X-H torsion
[ 11005 11000 10999 10996 ] final   55.69 input  -57.11 | X-H torsion

> <Gold.Protein.ActiveResidues>
 VAL166  LYS551  ARG553  GLY616  TRP617  ASP618  TYR619  PRO620  LYS621  CYS622 
 ASP623  PHE694  ASN695  SER759  ASP760  ASP761  ALA762  ILE779  LEU786  VAL792 
 PHE793  MET794  SER795  GLU796  ALA797  LYS798  CYS799  TRP800  GLU811  SER814 

> <Gold.Protein.RotatedAtoms>
  151.1194  133.5115  159.2602 H   0  0  0  0  0  0  0  0  0  0  0  0  # atno 6907 bound_to 6896
  151.1878  135.0389  159.8830 H   0  0  0  0  0  0  0  0  0  0  0  0  # atno 6908 bound_to 6896
  152.5455  134.1038  159.8383 H   0  0  0  0  0  0  0  0  0  0  0  0  # atno 6909 bound_to 6896
  145.7734  139.2853  143.1308 H   0  0  0  0  0  0  0  0  0  0  0  0  # atno 7974 bound_to 7965
  155.9495  140.3402  155.6396 H   0  0  0  0  0  0  0  0  0  0  0  0  # atno 8008 bound_to 7997
  155.6938  140.0752  157.2456 H   0  0  0  0  0  0  0  0  0  0  0  0  # atno 8009 bound_to 7997
  154.4119  140.1652  156.2103 H   0  0  0  0  0  0  0  0  0  0  0  0  # atno 8010 bound_to 7997
  139.5667  144.6915  151.3891 H   0  0  0  0  0  0  0  0  0  0  0  0  # atno 10167 bound_to 10162
  156.8095  130.9581  151.3116 H   0  0  0  0  0  0  0  0  0  0  0  0  # atno 10718 bound_to 10713
  154.4887  135.5826  153.6443 H   0  0  0  0  0  0  0  0  0  0  0  0  # atno 10763 bound_to 10752
  152.9858  135.6107  154.3153 H   0  0  0  0  0  0  0  0  0  0  0  0  # atno 10764 bound_to 10752
  154.3051  135.2846  155.2572 H   0  0  0  0  0  0  0  0  0  0  0  0  # atno 10765 bound_to 10752
  140.0587  134.5633  155.9177 H   0  0  0  0  0  0  0  0  0  0  0  0  # atno 11005 bound_to 11000
  146.0147  140.8403  142.9953 LP  0  0  0  0  0  0  0  0  0  0  0  0  # atno 17320 bound_to 7965
  144.6809  140.2541  143.7327 LP  0  0  0  0  0  0  0  0  0  0  0  0  # atno 17321 bound_to 7965
  140.6951  143.7769  150.7314 LP  0  0  0  0  0  0  0  0  0  0  0  0  # atno 17342 bound_to 10162
  140.1263  143.4566  152.2282 LP  0  0  0  0  0  0  0  0  0  0  0  0  # atno 17343 bound_to 10162
  157.6513  130.8887  149.9639 LP  0  0  0  0  0  0  0  0  0  0  0  0  # atno 17370 bound_to 10713
  156.1053  130.3653  150.0145 LP  0  0  0  0  0  0  0  0  0  0  0  0  # atno 17371 bound_to 10713
  141.1964  133.6591  156.5688 LP  0  0  0  0  0  0  0  0  0  0  0  0  # atno 17394 bound_to 11000
  140.3803  134.7529  157.4657 LP  0  0  0  0  0  0  0  0  0  0  0  0  # atno 17395 bound_to 11000

$$$$
