AV-unprocessed.smi:1134|AV-procd|sdf|4857|dock1
  -GOLD-   22720 3423D 1   1.00000     0.00000
 Structure written by MMmdl.
 35 36  0  0  0  0  0  0  0  0  3 V2000
  155.4899  141.1183  160.3894 O   0  0  0  0  0  0  0  0  0  0  0  0
  154.3026  141.0166  160.6953 C   0  0  0  0  0  0  0  0  0  0  0  0
  153.4134  142.2718  160.6540 C   0  0  0  0  0  0  0  0  0  0  0  0
  152.5544  142.3895  159.4616 N   0  0  0  0  0  0  0  0  0  0  0  0
  152.5761  141.3126  158.5536 C   0  0  0  0  0  0  0  0  0  0  0  0
  151.8301  141.3067  157.4316 C   0  0  0  0  0  0  0  0  0  0  0  0
  151.8595  140.1884  156.5149 N   0  3  0  0  0  0  0  0  0  0  0  0
  151.1866  140.2494  155.4910 O   0  0  0  0  0  0  0  0  0  0  0  0
  152.5540  139.2136  156.7871 O   0  5  0  0  0  0  0  0  0  0  0  0
  150.9897  142.4602  157.1749 C   0  0  0  0  0  0  0  0  0  0  0  0
  150.9612  143.4918  158.0415 C   0  0  0  0  0  0  0  0  0  0  0  0
  151.7689  143.4928  159.2656 C   0  0  0  0  0  0  0  0  0  0  0  0
  151.7361  144.4249  160.0685 O   0  0  0  0  0  0  0  0  0  0  0  0
  153.7450  139.8491  161.0594 N   0  0  0  0  0  0  0  0  0  0  0  0
  154.4429  138.5729  161.1381 C   0  0  0  0  0  0  0  0  0  0  0  0
  153.7470  137.6138  162.1206 C   0  0  0  0  0  0  0  0  0  0  0  0
  154.4912  136.3555  162.2539 N   0  0  0  0  0  0  0  0  0  0  0  0
  154.6962  135.5123  161.2160 C   0  0  0  0  0  0  0  0  0  0  0  0
  154.2964  135.7014  160.0674 O   0  0  0  0  0  0  0  0  0  0  0  0
  155.4846  134.2464  161.5737 C   0  0  0  0  0  0  0  0  0  0  0  0
  155.8184  134.3919  163.3312 S   0  0  0  0  0  0  0  0  0  0  0  0
  154.9965  135.9262  163.4226 C   0  0  0  0  0  0  0  0  0  0  0  0
  154.9033  136.5315  164.4901 O   0  0  0  0  0  0  0  0  0  0  0  0
  152.8101  142.2951  161.5632 H   0  0  0  0  0  0  0  0  0  0  0  0
  154.0625  143.1454  160.7305 H   0  0  0  0  0  0  0  0  0  0  0  0
  153.2294  140.5005  158.8389 H   0  0  0  0  0  0  0  0  0  0  0  0
  150.3764  142.5051  156.2870 H   0  0  0  0  0  0  0  0  0  0  0  0
  150.3275  144.3407  157.8308 H   0  0  0  0  0  0  0  0  0  0  0  0
  152.7638  139.8454  161.2971 H   0  0  0  0  0  0  0  0  0  0  0  0
  154.5197  138.1232  160.1467 H   0  0  0  0  0  0  0  0  0  0  0  0
  155.4630  138.7714  161.4683 H   0  0  0  0  0  0  0  0  0  0  0  0
  153.6427  138.0933  163.0957 H   0  0  0  0  0  0  0  0  0  0  0  0
  152.7260  137.4137  161.7906 H   0  0  0  0  0  0  0  0  0  0  0  0
  154.8954  133.3527  161.3677 H   0  0  0  0  0  0  0  0  0  0  0  0
  156.4157  134.1988  161.0088 H   0  0  0  0  0  0  0  0  0  0  0  0
  1  2  2  0  0  0  0
  2  3  1  0  0  0  0
  2 14  1  0  0  0  0
  3  4  1  0  0  0  0
  3 24  1  0  0  0  0
  3 25  1  0  0  0  0
  4 12  1  0  0  0  0
  4  5  1  0  0  0  0
  5  6  2  0  0  0  0
  5 26  1  0  0  0  0
  6  7  1  0  0  0  0
  6 10  1  0  0  0  0
  7  8  2  0  0  0  0
  7  9  1  0  0  0  0
 10 11  2  0  0  0  0
 10 27  1  0  0  0  0
 11 12  1  0  0  0  0
 11 28  1  0  0  0  0
 12 13  2  0  0  0  0
 14 15  1  0  0  0  0
 14 29  1  0  0  0  0
 15 16  1  0  0  0  0
 15 30  1  0  0  0  0
 15 31  1  0  0  0  0
 16 17  1  0  0  0  0
 16 32  1  0  0  0  0
 16 33  1  0  0  0  0
 17 22  1  0  0  0  0
 17 18  1  0  0  0  0
 18 19  2  0  0  0  0
 18 20  1  0  0  0  0
 20 21  1  0  0  0  0
 20 34  1  0  0  0  0
 20 35  1  0  0  0  0
 21 22  1  0  0  0  0
 22 23  2  0  0  0  0
M  CHG  1   7   1
M  CHG  1   9  -1
M  END
> <s_m_source_file>
AV-unprocessed.smi

> <i_m_source_file_index>
1134

> <i_lp_mmshare_version>
43012

> <i_f3d_flags>
0

> <s_epik_input>
Tz1jMVtjSF1bY0hdYyhbTitdKD1PKVtPLV0pW2NIXW4xW0NIMl1DKD1PKVtOSF1bQ0gyXVtDSDJdTjJDKD1PKVtDSDJdU0MyPU8=

> <s_epik_cmdline>
J2VwaWtfcHl0aG9uJywgJy1waCcsICc3LjAnLCAnLXRuJywgJzgnLCAnLW1hJywgJzIwMCcsICctbWV0YWxfYmluZGluZycsICctaW1hZScsICc8aW5maWxlLm1hZT4nLCAnLW9tYWUnLCAnPG91dGZpbGUubWFlPic=

> <r_lp_tautomer_probability>
1

> <r_epik_Ionization_Penalty>
5.49556e-08

> <r_epik_Ionization_Penalty_Charging>
6.94392e-11

> <r_epik_Ionization_Penalty_Neutral>
5.48861e-08

> <r_epik_State_Penalty>
-0

> <r_epik_Charging_Adjusted_Penalty>
6.94392e-11

> <i_epik_Tot_Q>
0

> <i_epik_Tot_abs_Q>
2

> <r_epik_Metal_State_Penalty>
-0

> <b_epik_Metal_Only>
0

> <s_lp_Force_Field>
OPLS_2005

> <r_lp_Energy>
19.8089

> <b_lp_Chiralities_Consistent>
1

> <s_lp_Variant>
AV-unprocessed.smi:1134-1

> <Gold.Version>
5.8.1

> <Gold.Id.Protein>
6NUR|6NUR_protein|mol2

> <Gold.PLP.Fitness>
47.8450

> <Gold.PLP.PLP>
-39.7163

> <Gold.PLP.part.hbond>
-3.9721

> <Gold.PLP.part.metal>
0.0000

> <Gold.PLP.part.buried>
-5.6335

> <Gold.PLP.part.nonpolar>
-29.8665

> <Gold.PLP.part.repulsive>
0.2074

> <Gold.PLP.ligand.clash>
0.0000

> <Gold.PLP.ligand.torsion>
0.4574

> <Gold.PLP.Chemscore.Hbond>
2.9920

> <Gold.PLP.Chemscore.CHOScore>
0.0000

> <Gold.PLP.Chemscore.Metal>
0.0000

> <Gold.Chemscore.Hbonds>
donor molecule, donor type, donor heavy atom, donor atom, acceptor molecule, acceptor atom, score
      P1  H  6896  6909       L1    19  0.81
      P1  H  7989  7998       L1     8  0.75
      P1  H  7997  8010       L1     9  0.91

> <Gold.PLP.Chemscore.Internal.Correction>
0.0675

> <Gold.Rescore>
     Score         DG    S(hbond)    S(metal)    S(lipo)     H(rot)  DE(clash)    DE(int)     intcor
     14.47     -15.29       2.85        0.00      62.46       2.74       0.21       0.60       ----

> <Gold.Chemscore.Fitness>
14.4727

> <Gold.Chemscore.DG>
-15.2874

> <Gold.Chemscore.ZeroCoef>
-5.4800

> <Gold.Chemscore.Hbond>
2.8467

> <Gold.Chemscore.Metal>
0.0000

> <Gold.Chemscore.Lipo>
62.4614

> <Gold.Chemscore.Internal_Hbond>
0.0000

> <Gold.Chemscore.DEClash>
0.2124

> <Gold.Chemscore.DEInternal>
0.6023

> <Gold.Chemscore.Rot>
2.7377

> <Gold.Chemscore.Internal.Correction>
   9.000000E+99

> <Gold.Chemscore.Hbonds>
donor molecule, donor type, donor heavy atom, donor atom, acceptor molecule, acceptor atom, score
      P1  H  6896  6909       L1    19  0.31
      P1  H  7989  7998       L1     8  0.71
      P1  H  7997  8010       L1     9  0.26

> <Gold.Chemscore.Hbond.Weighted>
-9.5080

> <Gold.Chemscore.Metal.Weighted>
-0.0000

> <Gold.Chemscore.Lipo.Weighted>
-7.3080

> <Gold.Chemscore.Internal_Hbond.Weighted>
0.0000

> <Gold.Chemscore.DEClash.Weighted>
0.2124

> <Gold.Chemscore.DEInternal.Weighted>
0.6023

> <Gold.Chemscore.Rot.Weighted>
7.0085

> <Gold.Chemscore.Internal.Correction.Weighted>
   9.000000E+99

> <Gold.Protein.RotatedTorsions>
[ 6907 6896 6895 6894 ] final -179.34 input  -60.11 | X-H torsion
[ 7974 7965 7964 7962 ] final    3.10 input  175.53 | X-H torsion
[ 8008 7997 7996 7995 ] final   49.28 input   59.86 | X-H torsion
[ 10167 10162 10161 10158 ] final   15.11 input  -65.29 | X-H torsion
[ 10718 10713 10712 10709 ] final  -48.92 input   66.30 | X-H torsion
[ 10763 10752 10751 10750 ] final   48.09 input  -60.55 | X-H torsion
[ 11005 11000 10999 10996 ] final -146.24 input  -57.11 | X-H torsion

> <Gold.Protein.ActiveResidues>
 VAL166  LYS551  ARG553  GLY616  TRP617  ASP618  TYR619  PRO620  LYS621  CYS622 
 ASP623  PHE694  ASN695  SER759  ASP760  ASP761  ALA762  ILE779  LEU786  VAL792 
 PHE793  MET794  SER795  GLU796  ALA797  LYS798  CYS799  TRP800  GLU811  SER814 

> <Gold.Protein.RotatedAtoms>
  151.6518  133.3320  159.3153 H   0  0  0  0  0  0  0  0  0  0  0  0  # atno 6907 bound_to 6896
  150.7956  134.7018  159.6563 H   0  0  0  0  0  0  0  0  0  0  0  0  # atno 6908 bound_to 6896
  152.4043  134.6238  160.0109 H   0  0  0  0  0  0  0  0  0  0  0  0  # atno 6909 bound_to 6896
  146.2445  140.0737  142.8361 H   0  0  0  0  0  0  0  0  0  0  0  0  # atno 7974 bound_to 7965
  155.3996  140.3437  155.4256 H   0  0  0  0  0  0  0  0  0  0  0  0  # atno 8008 bound_to 7997
  156.1511  140.1571  156.8800 H   0  0  0  0  0  0  0  0  0  0  0  0  # atno 8009 bound_to 7997
  154.5053  140.0804  156.7863 H   0  0  0  0  0  0  0  0  0  0  0  0  # atno 8010 bound_to 7997
  140.5890  143.8833  150.6856 H   0  0  0  0  0  0  0  0  0  0  0  0  # atno 10167 bound_to 10162
  156.1942  130.4154  149.9329 H   0  0  0  0  0  0  0  0  0  0  0  0  # atno 10718 bound_to 10713
  152.9794  135.5955  154.3868 H   0  0  0  0  0  0  0  0  0  0  0  0  # atno 10763 bound_to 10752
  154.3528  135.2767  155.2365 H   0  0  0  0  0  0  0  0  0  0  0  0  # atno 10764 bound_to 10752
  154.4396  135.6016  153.6176 H   0  0  0  0  0  0  0  0  0  0  0  0  # atno 10765 bound_to 10752
  140.7840  134.3046  157.5036 H   0  0  0  0  0  0  0  0  0  0  0  0  # atno 11005 bound_to 11000
  145.0794  140.9210  143.4834 LP  0  0  0  0  0  0  0  0  0  0  0  0  # atno 17320 bound_to 7965
  145.0886  139.2906  143.5746 LP  0  0  0  0  0  0  0  0  0  0  0  0  # atno 17321 bound_to 7965
  140.2351  143.3706  152.1533 LP  0  0  0  0  0  0  0  0  0  0  0  0  # atno 17342 bound_to 10162
  139.5215  144.7047  151.5389 LP  0  0  0  0  0  0  0  0  0  0  0  0  # atno 17343 bound_to 10162
  156.7059  130.8951  151.3604 LP  0  0  0  0  0  0  0  0  0  0  0  0  # atno 17370 bound_to 10713
  157.6948  130.9270  150.0613 LP  0  0  0  0  0  0  0  0  0  0  0  0  # atno 17371 bound_to 10713
  139.8739  134.9335  156.3583 LP  0  0  0  0  0  0  0  0  0  0  0  0  # atno 17394 bound_to 11000
  140.9455  133.7486  156.0202 LP  0  0  0  0  0  0  0  0  0  0  0  0  # atno 17395 bound_to 11000

$$$$
