AV-unprocessed.smi:3249|AV-procd|sdf|12417|dock5
  -GOLD-   2272018303D 1   1.00000     0.00000
 Structure written by MMmdl.
 44 45  0  0  0  0  0  0  0  0  2 V2000
  147.1224  140.0865  153.5615 C   0  0  0  0  0  0  0  0  0  0  0  0
  148.4521  140.2533  154.2390 C   0  0  0  0  0  0  0  0  0  0  0  0
  148.9793  141.4233  154.8554 C   0  0  0  0  0  0  0  0  0  0  0  0
  150.1843  141.2356  155.3679 N   0  0  0  0  0  0  0  0  0  0  0  0
  150.4726  139.9445  155.0975 N   0  0  0  0  0  0  0  0  0  0  0  0
  151.7417  139.3798  155.5399 C   0  0  2  0  0  0  0  0  0  0  0  0
  151.8567  137.9186  155.0668 C   0  0  0  0  0  0  0  0  0  0  0  0
  151.9433  139.5285  157.0708 C   0  0  2  0  0  0  0  0  0  0  0  0
  151.0881  138.5387  157.8902 C   0  0  0  0  0  0  0  0  0  0  0  0
  151.6396  140.9190  157.4799 N   0  3  0  0  0  0  0  0  0  0  0  0
  151.9427  141.2439  158.8897 C   0  0  0  0  0  0  0  0  0  0  0  0
  151.3663  142.6139  159.2735 C   0  0  2  0  0  0  0  0  0  0  0  0
  152.0193  143.7565  158.4713 C   0  0  0  0  0  0  0  0  0  0  0  0
  151.4986  145.1172  158.9478 C   0  0  0  0  0  0  0  0  0  0  0  0
  151.6779  145.2353  160.4647 C   0  0  0  0  0  0  0  0  0  0  0  0
  151.0522  144.0229  161.1716 C   0  0  0  0  0  0  0  0  0  0  0  0
  151.6184  142.8189  160.6624 O   0  0  0  0  0  0  0  0  0  0  0  0
  149.4411  139.3280  154.4174 C   0  0  0  0  0  0  0  0  0  0  0  0
  146.6798  141.0468  153.2960 H   0  0  0  0  0  0  0  0  0  0  0  0
  146.4080  139.5696  154.2022 H   0  0  0  0  0  0  0  0  0  0  0  0
  147.2077  139.5080  152.6414 H   0  0  0  0  0  0  0  0  0  0  0  0
  148.5230  142.3981  154.9468 H   0  0  0  0  0  0  0  0  0  0  0  0
  152.5347  139.9439  155.0442 H   0  0  0  0  0  0  0  0  0  0  0  0
  152.8395  137.5016  155.2864 H   0  0  0  0  0  0  0  0  0  0  0  0
  151.7089  137.8456  153.9888 H   0  0  0  0  0  0  0  0  0  0  0  0
  151.1125  137.2823  155.5467 H   0  0  0  0  0  0  0  0  0  0  0  0
  152.9941  139.3299  157.2884 H   0  0  0  0  0  0  0  0  0  0  0  0
  151.3510  137.5026  157.6763 H   0  0  0  0  0  0  0  0  0  0  0  0
  150.0269  138.6624  157.6723 H   0  0  0  0  0  0  0  0  0  0  0  0
  151.2223  138.6757  158.9626 H   0  0  0  0  0  0  0  0  0  0  0  0
  152.1938  141.5370  156.9046 H   0  0  0  0  0  0  0  0  0  0  0  0
  151.5452  140.4767  159.5540 H   0  0  0  0  0  0  0  0  0  0  0  0
  153.0258  141.2497  159.0182 H   0  0  0  0  0  0  0  0  0  0  0  0
  150.2894  142.6139  159.0938 H   0  0  0  0  0  0  0  0  0  0  0  0
  153.1028  143.7199  158.5930 H   0  0  0  0  0  0  0  0  0  0  0  0
  151.8205  143.6347  157.4062 H   0  0  0  0  0  0  0  0  0  0  0  0
  152.0232  145.9259  158.4386 H   0  0  0  0  0  0  0  0  0  0  0  0
  150.4427  145.2177  158.6931 H   0  0  0  0  0  0  0  0  0  0  0  0
  152.7406  145.2880  160.7052 H   0  0  0  0  0  0  0  0  0  0  0  0
  151.2287  146.1597  160.8286 H   0  0  0  0  0  0  0  0  0  0  0  0
  151.2430  144.0755  162.2435 H   0  0  0  0  0  0  0  0  0  0  0  0
  149.9690  144.0118  161.0415 H   0  0  0  0  0  0  0  0  0  0  0  0
  149.4935  138.2904  154.1218 H   0  0  0  0  0  0  0  0  0  0  0  0
  150.6634  141.1054  157.2982 H   0  0  0  0  0  0  0  0  0  0  0  0
  1  2  1  0  0  0  0
  1 19  1  0  0  0  0
  1 20  1  0  0  0  0
  1 21  1  0  0  0  0
  2 18  2  0  0  0  0
  2  3  1  0  0  0  0
  3  4  2  0  0  0  0
  3 22  1  0  0  0  0
  4  5  1  0  0  0  0
  5  6  1  0  0  0  0
  5 18  1  0  0  0  0
  6  7  1  0  0  0  0
  6  8  1  0  0  0  0
  6 23  1  0  0  0  0
  7 24  1  0  0  0  0
  7 25  1  0  0  0  0
  7 26  1  0  0  0  0
  8  9  1  0  0  0  0
  8 10  1  0  0  0  0
  8 27  1  0  0  0  0
  9 28  1  0  0  0  0
  9 29  1  0  0  0  0
  9 30  1  0  0  0  0
 10 11  1  0  0  0  0
 10 31  1  0  0  0  0
 10 44  1  0  0  0  0
 11 12  1  0  0  0  0
 11 32  1  0  0  0  0
 11 33  1  0  0  0  0
 12 17  1  0  0  0  0
 12 13  1  0  0  0  0
 12 34  1  0  0  0  0
 13 14  1  0  0  0  0
 13 35  1  0  0  0  0
 13 36  1  0  0  0  0
 14 15  1  0  0  0  0
 14 37  1  0  0  0  0
 14 38  1  0  0  0  0
 15 16  1  0  0  0  0
 15 39  1  0  0  0  0
 15 40  1  0  0  0  0
 16 17  1  0  0  0  0
 16 41  1  0  0  0  0
 16 42  1  0  0  0  0
 18 43  1  0  0  0  0
M  CHG  1  10   1
M  END
> <s_m_source_file>
AV-unprocessed.smi

> <i_m_source_file_index>
3249

> <i_lp_mmshare_version>
43012

> <i_f3d_flags>
0

> <s_epik_input>
W0NIM11jMVtjSF1ubihbY0hdMSlbQ0BIXShbQ0gzXSlbQ0BIXShbQ0gzXSlbTkhdW0NIMl1bQ0BASF0yW0NIMl1bQ0gyXVtDSDJdW0NIMl1PMg==

> <s_epik_cmdline>
J2VwaWtfcHl0aG9uJywgJy1waCcsICc3LjAnLCAnLXRuJywgJzgnLCAnLW1hJywgJzIwMCcsICctbWV0YWxfYmluZGluZycsICctaW1hZScsICc8aW5maWxlLm1hZT4nLCAnLW9tYWUnLCAnPG91dGZpbGUubWFlPic=

> <r_lp_tautomer_probability>
1

> <r_epik_Ionization_Penalty>
0.00659207

> <r_epik_Ionization_Penalty_Charging>
0.00656881

> <r_epik_Ionization_Penalty_Neutral>
2.32662e-05

> <r_epik_State_Penalty>
0.0048654

> <r_epik_Charging_Adjusted_Penalty>
0.0114342

> <i_epik_Tot_Q>
1

> <i_epik_Tot_abs_Q>
1

> <r_epik_Metal_State_Penalty>
-0

> <b_epik_Metal_Only>
0

> <s_lp_Force_Field>
OPLS_2005

> <r_lp_Energy>
18.0263

> <b_lp_Chiralities_Consistent>
1

> <s_lp_Variant>
AV-unprocessed.smi:3249-1

> <Gold.Version>
5.8.1

> <Gold.Id.Protein>
6NUR|6NUR_protein|mol2

> <Gold.PLP.Fitness>
43.9893

> <Gold.PLP.PLP>
-41.3235

> <Gold.PLP.part.hbond>
-1.3238

> <Gold.PLP.part.metal>
0.0000

> <Gold.PLP.part.buried>
-2.7832

> <Gold.PLP.part.nonpolar>
-37.7779

> <Gold.PLP.part.repulsive>
0.2371

> <Gold.PLP.ligand.clash>
0.0000

> <Gold.PLP.ligand.torsion>
0.2002

> <Gold.PLP.Chemscore.Hbond>
0.0000

> <Gold.PLP.Chemscore.CHOScore>
1.0000

> <Gold.PLP.Chemscore.Metal>
0.0000

> <Gold.Chemscore.Hbonds>
donor molecule, donor type, donor heavy atom, donor atom, acceptor molecule, acceptor atom, score
      L1  C     3    22       P1  8028  1.00

> <Gold.PLP.Chemscore.Internal.Correction>
0.0661

> <Gold.Rescore>
     Score         DG    S(hbond)    S(metal)    S(lipo)     H(rot)  DE(clash)    DE(int)     intcor
     14.82     -15.18       0.00        0.00     116.45       1.53       0.05       0.31       ----

> <Gold.Chemscore.Fitness>
14.8177

> <Gold.Chemscore.DG>
-15.1795

> <Gold.Chemscore.ZeroCoef>
-5.4800

> <Gold.Chemscore.Hbond>
0.0000

> <Gold.Chemscore.Metal>
0.0000

> <Gold.Chemscore.Lipo>
116.4507

> <Gold.Chemscore.Internal_Hbond>
0.0000

> <Gold.Chemscore.DEClash>
0.0536

> <Gold.Chemscore.DEInternal>
0.3082

> <Gold.Chemscore.Rot>
1.5333

> <Gold.Chemscore.Internal.Correction>
   9.000000E+99

> <Gold.Chemscore.Hbond.Weighted>
-0.0000

> <Gold.Chemscore.Metal.Weighted>
-0.0000

> <Gold.Chemscore.Lipo.Weighted>
-13.6247

> <Gold.Chemscore.Internal_Hbond.Weighted>
0.0000

> <Gold.Chemscore.DEClash.Weighted>
0.0536

> <Gold.Chemscore.DEInternal.Weighted>
0.3082

> <Gold.Chemscore.Rot.Weighted>
3.9252

> <Gold.Chemscore.Internal.Correction.Weighted>
   9.000000E+99

> <Gold.Protein.RotatedTorsions>
[ 6907 6896 6895 6894 ] final  115.76 input  -60.11 | X-H torsion
[ 7974 7965 7964 7962 ] final   37.65 input  175.53 | X-H torsion
[ 8008 7997 7996 7995 ] final  143.65 input   59.86 | X-H torsion
[ 10167 10162 10161 10158 ] final   -3.01 input  -65.29 | X-H torsion
[ 10718 10713 10712 10709 ] final -157.85 input   66.30 | X-H torsion
[ 10763 10752 10751 10750 ] final   -2.49 input  -60.55 | X-H torsion
[ 11005 11000 10999 10996 ] final   42.98 input  -57.11 | X-H torsion

> <Gold.Protein.ActiveResidues>
 VAL166  LYS551  ARG553  GLY616  TRP617  ASP618  TYR619  PRO620  LYS621  CYS622 
 ASP623  PHE694  ASN695  SER759  ASP760  ASP761  ALA762  ILE779  LEU786  VAL792 
 PHE793  MET794  SER795  GLU796  ALA797  LYS798  CYS799  TRP800  GLU811  SER814 

> <Gold.Protein.RotatedAtoms>
  152.4721  133.8054  159.6974 H   0  0  0  0  0  0  0  0  0  0  0  0  # atno 6907 bound_to 6896
  150.8717  133.7487  159.2966 H   0  0  0  0  0  0  0  0  0  0  0  0  # atno 6908 bound_to 6896
  151.5020  135.1065  159.9883 H   0  0  0  0  0  0  0  0  0  0  0  0  # atno 6909 bound_to 6896
  146.1121  139.5867  142.9345 H   0  0  0  0  0  0  0  0  0  0  0  0  # atno 7974 bound_to 7965
  156.2925  140.2256  156.4925 H   0  0  0  0  0  0  0  0  0  0  0  0  # atno 8008 bound_to 7997
  154.7759  140.0463  157.1109 H   0  0  0  0  0  0  0  0  0  0  0  0  # atno 8009 bound_to 7997
  154.9818  140.3079  155.4946 H   0  0  0  0  0  0  0  0  0  0  0  0  # atno 8010 bound_to 7997
  140.6873  143.6590  150.8283 H   0  0  0  0  0  0  0  0  0  0  0  0  # atno 10167 bound_to 10162
  156.5460  130.8584  151.2764 H   0  0  0  0  0  0  0  0  0  0  0  0  # atno 10718 bound_to 10713
  153.3587  135.6989  153.6730 H   0  0  0  0  0  0  0  0  0  0  0  0  # atno 10763 bound_to 10752
  153.5427  135.3569  155.2726 H   0  0  0  0  0  0  0  0  0  0  0  0  # atno 10764 bound_to 10752
  154.8665  135.4207  154.2839 H   0  0  0  0  0  0  0  0  0  0  0  0  # atno 10765 bound_to 10752
  140.1688  134.4248  155.8270 H   0  0  0  0  0  0  0  0  0  0  0  0  # atno 11005 bound_to 11000
  145.5642  141.0401  143.2209 LP  0  0  0  0  0  0  0  0  0  0  0  0  # atno 17320 bound_to 7965
  144.7521  139.7168  143.7269 LP  0  0  0  0  0  0  0  0  0  0  0  0  # atno 17321 bound_to 7965
  140.0299  143.5455  152.2764 LP  0  0  0  0  0  0  0  0  0  0  0  0  # atno 17342 bound_to 10162
  139.6243  144.7634  151.2672 LP  0  0  0  0  0  0  0  0  0  0  0  0  # atno 17343 bound_to 10162
  157.7396  130.9835  150.2327 LP  0  0  0  0  0  0  0  0  0  0  0  0  # atno 17370 bound_to 10713
  156.2928  130.3748  149.7825 LP  0  0  0  0  0  0  0  0  0  0  0  0  # atno 17371 bound_to 10713
  141.2216  133.6946  156.7727 LP  0  0  0  0  0  0  0  0  0  0  0  0  # atno 17394 bound_to 11000
  140.2402  134.8620  157.3565 LP  0  0  0  0  0  0  0  0  0  0  0  0  # atno 17395 bound_to 11000

$$$$
