AV-unprocessed.smi:2784|AV-procd|sdf|10737|dock2
  -GOLD-   2272015173D 1   1.00000     0.00000
 Structure written by MMmdl.
 31 32  0  0  0  0  0  0  0  0  1 V2000
  153.0770  141.4931  159.6357 C   0  0  0  0  0  0  0  0  0  0  0  0
  151.6782  141.4392  159.4080 O   0  0  0  0  0  0  0  0  0  0  0  0
  151.1258  142.6688  158.9574 C   0  0  1  0  0  0  0  0  0  0  0  0
  151.6208  143.8592  159.7899 C   0  0  0  0  0  0  0  0  0  0  0  0
  151.6480  145.0249  158.8080 C   0  0  0  0  0  0  0  0  0  0  0  0
  152.1285  144.3916  157.5034 C   0  0  0  0  0  0  0  0  0  0  0  0
  151.5785  142.9538  157.5067 C   0  0  2  0  0  0  0  0  0  0  0  0
  150.4693  142.8363  156.5632 N   0  0  0  0  0  0  0  0  0  0  0  0
  150.1051  141.7102  155.9320 C   0  0  0  0  0  0  0  0  0  0  0  0
  150.7121  140.6470  156.0952 O   0  0  0  0  0  0  0  0  0  0  0  0
  149.0296  141.9538  155.0923 N   0  0  0  0  0  0  0  0  0  0  0  0
  148.5211  140.9683  154.4186 C   0  0  0  0  0  0  0  0  0  0  0  0
  148.8536  139.6197  154.3188 N   0  0  0  0  0  0  0  0  0  0  0  0
  147.9838  139.0306  153.4445 C   0  0  0  0  0  0  0  0  0  0  0  0
  147.1405  139.9629  153.0111 C   0  0  0  0  0  0  0  0  0  0  0  0
  147.4445  141.1588  153.5897 O   0  0  0  0  0  0  0  0  0  0  0  0
  153.4249  140.5229  159.9899 H   0  0  0  0  0  0  0  0  0  0  0  0
  153.3234  142.2351  160.3962 H   0  0  0  0  0  0  0  0  0  0  0  0
  153.6249  141.7313  158.7235 H   0  0  0  0  0  0  0  0  0  0  0  0
  150.0349  142.6317  159.0007 H   0  0  0  0  0  0  0  0  0  0  0  0
  150.9919  144.0562  160.6583 H   0  0  0  0  0  0  0  0  0  0  0  0
  152.6333  143.6674  160.1482 H   0  0  0  0  0  0  0  0  0  0  0  0
  150.6401  145.4209  158.6775 H   0  0  0  0  0  0  0  0  0  0  0  0
  152.2895  145.8412  159.1407 H   0  0  0  0  0  0  0  0  0  0  0  0
  151.8285  144.9708  156.6292 H   0  0  0  0  0  0  0  0  0  0  0  0
  153.2187  144.3574  157.5048 H   0  0  0  0  0  0  0  0  0  0  0  0
  152.3789  142.2741  157.2073 H   0  0  0  0  0  0  0  0  0  0  0  0
  149.9382  143.6746  156.3768 H   0  0  0  0  0  0  0  0  0  0  0  0
  149.5982  139.1233  154.7875 H   0  0  0  0  0  0  0  0  0  0  0  0
  148.0641  137.9774  153.2193 H   0  0  0  0  0  0  0  0  0  0  0  0
  146.3094  139.9366  152.3219 H   0  0  0  0  0  0  0  0  0  0  0  0
  1  2  1  0  0  0  0
  1 17  1  0  0  0  0
  1 18  1  0  0  0  0
  1 19  1  0  0  0  0
  2  3  1  0  0  0  0
  3  7  1  0  0  0  0
  3  4  1  0  0  0  0
  3 20  1  0  0  0  0
  4  5  1  0  0  0  0
  4 21  1  0  0  0  0
  4 22  1  0  0  0  0
  5  6  1  0  0  0  0
  5 23  1  0  0  0  0
  5 24  1  0  0  0  0
  6  7  1  0  0  0  0
  6 25  1  0  0  0  0
  6 26  1  0  0  0  0
  7  8  1  0  0  0  0
  7 27  1  0  0  0  0
  8 28  1  0  0  0  0
  8  9  1  0  0  0  0
  9 11  1  0  0  0  0
  9 10  2  0  0  0  0
 11 12  2  0  0  0  0
 12 16  1  0  0  0  0
 12 13  1  0  0  0  0
 13 29  1  0  0  0  0
 13 14  1  0  0  0  0
 14 30  1  0  0  0  0
 14 15  2  0  0  0  0
 15 31  1  0  0  0  0
 15 16  1  0  0  0  0
M  END
> <s_m_source_file>
AV-unprocessed.smi

> <i_m_source_file_index>
2784

> <i_lp_mmshare_version>
43012

> <i_f3d_flags>
0

> <s_epik_input>
W0NIM11PW0NAQEhdMVtDSDJdW0NIMl1bQ0gyXVtDQEhdMVtOSF1DKD1PKVtOSF1jMm5bY0hdW2NIXW8y

> <s_epik_cmdline>
J2VwaWtfcHl0aG9uJywgJy1waCcsICc3LjAnLCAnLXRuJywgJzgnLCAnLW1hJywgJzIwMCcsICctbWV0YWxfYmluZGluZycsICctaW1hZScsICc8aW5maWxlLm1hZT4nLCAnLW9tYWUnLCAnPG91dGZpbGUubWFlPic=

> <r_lp_tautomer_probability>
0.107061

> <r_epik_Ionization_Penalty>
1.29244

> <r_epik_Ionization_Penalty_Charging>
1.29208

> <r_epik_Ionization_Penalty_Neutral>
0.000359742

> <r_epik_State_Penalty>
2.59896

> <r_epik_Charging_Adjusted_Penalty>
3.89105

> <i_epik_Tot_Q>
0

> <i_epik_Tot_abs_Q>
0

> <r_epik_Metal_State_Penalty>
3.62496

> <b_epik_Metal_Only>
0

> <s_lp_Force_Field>
OPLS_2005

> <r_lp_Energy>
42.837

> <b_lp_Chiralities_Consistent>
1

> <s_lp_Variant>
AV-unprocessed.smi:2784-12

> <Gold.Version>
5.8.1

> <Gold.Id.Protein>
6NUR|6NUR_protein|mol2

> <Gold.PLP.Fitness>
37.3993

> <Gold.PLP.PLP>
-29.3357

> <Gold.PLP.part.hbond>
-1.0000

> <Gold.PLP.part.metal>
0.0000

> <Gold.PLP.part.buried>
-5.2908

> <Gold.PLP.part.nonpolar>
-24.6070

> <Gold.PLP.part.repulsive>
2.4296

> <Gold.PLP.ligand.clash>
0.0000

> <Gold.PLP.ligand.torsion>
0.4479

> <Gold.PLP.Chemscore.Hbond>
1.0000

> <Gold.PLP.Chemscore.CHOScore>
1.9845

> <Gold.PLP.Chemscore.Metal>
0.0000

> <Gold.Chemscore.Hbonds>
donor molecule, donor type, donor heavy atom, donor atom, acceptor molecule, acceptor atom, score
      L1  H     8    28       P1  8028  1.00
      L1  C    14    30       P1  7948  1.00
      L1  C    15    31       P1 10175  0.64

> <Gold.PLP.Chemscore.Internal.Correction>
0.0059

> <Gold.Rescore>
     Score         DG    S(hbond)    S(metal)    S(lipo)     H(rot)  DE(clash)    DE(int)     intcor
     13.50     -14.87       1.00        0.00      80.73       1.32       1.02       0.35       ----

> <Gold.Chemscore.Fitness>
13.5025

> <Gold.Chemscore.DG>
-14.8729

> <Gold.Chemscore.ZeroCoef>
-5.4800

> <Gold.Chemscore.Hbond>
0.9985

> <Gold.Chemscore.Metal>
0.0000

> <Gold.Chemscore.Lipo>
80.7348

> <Gold.Chemscore.Internal_Hbond>
0.0000

> <Gold.Chemscore.DEClash>
1.0199

> <Gold.Chemscore.DEInternal>
0.3506

> <Gold.Chemscore.Rot>
1.3235

> <Gold.Chemscore.Internal.Correction>
   9.000000E+99

> <Gold.Chemscore.Hbonds>
donor molecule, donor type, donor heavy atom, donor atom, acceptor molecule, acceptor atom, score
      L1  H     8    28       P1  8028  0.99

> <Gold.Chemscore.Hbond.Weighted>
-3.3351

> <Gold.Chemscore.Metal.Weighted>
-0.0000

> <Gold.Chemscore.Lipo.Weighted>
-9.4460

> <Gold.Chemscore.Internal_Hbond.Weighted>
0.0000

> <Gold.Chemscore.DEClash.Weighted>
1.0199

> <Gold.Chemscore.DEInternal.Weighted>
0.3506

> <Gold.Chemscore.Rot.Weighted>
3.3882

> <Gold.Chemscore.Internal.Correction.Weighted>
   9.000000E+99

> <Gold.Protein.RotatedTorsions>
[ 6907 6896 6895 6894 ] final  135.76 input  -60.11 | X-H torsion
[ 7974 7965 7964 7962 ] final -172.90 input  175.53 | X-H torsion
[ 8008 7997 7996 7995 ] final   79.77 input   59.86 | X-H torsion
[ 10167 10162 10161 10158 ] final   38.84 input  -65.29 | X-H torsion
[ 10718 10713 10712 10709 ] final  170.53 input   66.30 | X-H torsion
[ 10763 10752 10751 10750 ] final   78.10 input  -60.55 | X-H torsion
[ 11005 11000 10999 10996 ] final -162.32 input  -57.11 | X-H torsion

> <Gold.Protein.ActiveResidues>
 VAL166  LYS551  ARG553  GLY616  TRP617  ASP618  TYR619  PRO620  LYS621  CYS622 
 ASP623  PHE694  ASN695  SER759  ASP760  ASP761  ALA762  ILE779  LEU786  VAL792 
 PHE793  MET794  SER795  GLU796  ALA797  LYS798  CYS799  TRP800  GLU811  SER814 

> <Gold.Protein.RotatedAtoms>
  152.2969  133.5616  159.5593 H   0  0  0  0  0  0  0  0  0  0  0  0  # atno 6907 bound_to 6896
  150.7260  134.0348  159.3754 H   0  0  0  0  0  0  0  0  0  0  0  0  # atno 6908 bound_to 6896
  151.8250  135.0640  160.0480 H   0  0  0  0  0  0  0  0  0  0  0  0  # atno 6909 bound_to 6896
  144.7142  140.1702  143.6368 H   0  0  0  0  0  0  0  0  0  0  0  0  # atno 7974 bound_to 7965
  155.8743  140.3447  155.5843 H   0  0  0  0  0  0  0  0  0  0  0  0  # atno 8008 bound_to 7997
  155.7792  140.0856  157.2087 H   0  0  0  0  0  0  0  0  0  0  0  0  # atno 8009 bound_to 7997
  154.4019  140.1504  156.3020 H   0  0  0  0  0  0  0  0  0  0  0  0  # atno 8010 bound_to 7997
  140.3897  144.1869  150.6131 H   0  0  0  0  0  0  0  0  0  0  0  0  # atno 10167 bound_to 10162
  157.0068  131.0192  151.2815 H   0  0  0  0  0  0  0  0  0  0  0  0  # atno 10718 bound_to 10713
  153.0848  135.4889  154.8576 H   0  0  0  0  0  0  0  0  0  0  0  0  # atno 10763 bound_to 10752
  154.7197  135.3037  154.9069 H   0  0  0  0  0  0  0  0  0  0  0  0  # atno 10764 bound_to 10752
  153.9737  135.6798  153.4801 H   0  0  0  0  0  0  0  0  0  0  0  0  # atno 10765 bound_to 10752
  140.6106  134.4853  157.5215 H   0  0  0  0  0  0  0  0  0  0  0  0  # atno 11005 bound_to 11000
  145.8951  139.2398  143.1527 LP  0  0  0  0  0  0  0  0  0  0  0  0  # atno 17320 bound_to 7965
  145.9866  140.8638  143.0087 LP  0  0  0  0  0  0  0  0  0  0  0  0  # atno 17321 bound_to 7965
  140.4852  143.2365  151.8898 LP  0  0  0  0  0  0  0  0  0  0  0  0  # atno 17342 bound_to 10162
  139.4790  144.5226  151.8780 LP  0  0  0  0  0  0  0  0  0  0  0  0  # atno 17343 bound_to 10162
  157.5350  130.8082  149.7961 LP  0  0  0  0  0  0  0  0  0  0  0  0  # atno 17370 bound_to 10713
  156.0150  130.3817  150.2139 LP  0  0  0  0  0  0  0  0  0  0  0  0  # atno 17371 bound_to 10713
  139.9194  134.8180  156.1261 LP  0  0  0  0  0  0  0  0  0  0  0  0  # atno 17394 bound_to 11000
  141.0810  133.6754  156.2337 LP  0  0  0  0  0  0  0  0  0  0  0  0  # atno 17395 bound_to 11000

$$$$
