AV-unprocessed.smi:1824|AV-procd|sdf|7401|dock5
  -GOLD-   22720 9 73D 1   1.00000     0.00000
 Structure written by MMmdl.
 45 47  0  0  0  0  0  0  0  0  2 V2000
  151.1262  134.3850  156.3424 C   0  0  0  0  0  0  0  0  0  0  0  0
  150.3218  135.5140  155.6890 C   0  0  2  0  0  0  0  0  0  0  0  0
  151.1972  136.7410  155.3766 C   0  0  0  0  0  0  0  0  0  0  0  0
  150.3671  137.8371  154.8221 N   0  3  2  0  0  0  0  0  0  0  0  0
  151.1498  139.0254  154.3959 C   0  0  0  0  0  0  0  0  0  0  0  0
  152.0361  139.5903  155.5243 C   0  0  1  0  0  0  0  0  0  0  0  0
  152.9987  140.4590  154.9567 O   0  0  0  0  0  0  0  0  0  0  0  0
  151.2048  140.3605  156.5687 C   0  0  0  0  0  0  0  0  0  0  0  0
  151.9442  140.6208  157.7913 N   0  0  0  0  0  0  0  0  0  0  0  0
  152.8234  139.8021  158.4012 C   0  0  0  0  0  0  0  0  0  0  0  0
  153.3940  140.2437  159.5181 N   0  0  0  0  0  0  0  0  0  0  0  0
  152.8221  141.4974  159.6477 C   0  0  0  0  0  0  0  0  0  0  0  0
  153.0094  142.4937  160.6321 C   0  0  0  0  0  0  0  0  0  0  0  0
  152.3070  143.7144  160.5568 C   0  0  0  0  0  0  0  0  0  0  0  0
  152.5001  144.6592  161.5074 F   0  0  0  0  0  0  0  0  0  0  0  0
  151.4063  143.9560  159.4980 C   0  0  0  0  0  0  0  0  0  0  0  0
  150.7352  145.1304  159.4327 F   0  0  0  0  0  0  0  0  0  0  0  0
  151.2031  142.9783  158.5051 C   0  0  0  0  0  0  0  0  0  0  0  0
  151.9080  141.7631  158.5836 C   0  0  0  0  0  0  0  0  0  0  0  0
  149.2776  138.1830  155.7655 C   0  0  0  0  0  0  0  0  0  0  0  0
  148.4366  136.9418  156.1242 C   0  0  1  0  0  0  0  0  0  0  0  0
  147.5051  136.4808  154.9889 C   0  0  0  0  0  0  0  0  0  0  0  0
  149.2831  135.8905  156.5895 O   0  0  0  0  0  0  0  0  0  0  0  0
  151.9341  134.0503  155.6910 H   0  0  0  0  0  0  0  0  0  0  0  0
  150.4906  133.5240  156.5509 H   0  0  0  0  0  0  0  0  0  0  0  0
  151.5681  134.7085  157.2852 H   0  0  0  0  0  0  0  0  0  0  0  0
  149.8884  135.1280  154.7661 H   0  0  0  0  0  0  0  0  0  0  0  0
  151.7008  137.0860  156.2810 H   0  0  0  0  0  0  0  0  0  0  0  0
  151.9749  136.4559  154.6690 H   0  0  0  0  0  0  0  0  0  0  0  0
  151.7919  138.7578  153.5551 H   0  0  0  0  0  0  0  0  0  0  0  0
  150.4675  139.7914  154.0244 H   0  0  0  0  0  0  0  0  0  0  0  0
  152.5647  138.7835  156.0312 H   0  0  0  0  0  0  0  0  0  0  0  0
  152.7538  140.6408  154.0619 H   0  0  0  0  0  0  0  0  0  0  0  0
  150.8615  141.3122  156.1603 H   0  0  0  0  0  0  0  0  0  0  0  0
  150.3095  139.7939  156.8276 H   0  0  0  0  0  0  0  0  0  0  0  0
  153.0570  138.8251  158.0036 H   0  0  0  0  0  0  0  0  0  0  0  0
  153.6961  142.3191  161.4470 H   0  0  0  0  0  0  0  0  0  0  0  0
  150.5160  143.1621  157.6928 H   0  0  0  0  0  0  0  0  0  0  0  0
  149.7141  138.6054  156.6721 H   0  0  0  0  0  0  0  0  0  0  0  0
  148.6357  138.9533  155.3357 H   0  0  0  0  0  0  0  0  0  0  0  0
  147.7964  137.2074  156.9662 H   0  0  0  0  0  0  0  0  0  0  0  0
  146.7769  137.2557  154.7478 H   0  0  0  0  0  0  0  0  0  0  0  0
  146.9505  135.5887  155.2804 H   0  0  0  0  0  0  0  0  0  0  0  0
  148.0484  136.2522  154.0726 H   0  0  0  0  0  0  0  0  0  0  0  0
  149.9185  137.4796  153.9902 H   0  0  0  0  0  0  0  0  0  0  0  0
  1  2  1  0  0  0  0
  1 24  1  0  0  0  0
  1 25  1  0  0  0  0
  1 26  1  0  0  0  0
  2 23  1  0  0  0  0
  2  3  1  0  0  0  0
  2 27  1  0  0  0  0
  3  4  1  0  0  0  0
  3 28  1  0  0  0  0
  3 29  1  0  0  0  0
  4  5  1  0  0  0  0
  4 20  1  0  0  0  0
  4 45  1  0  0  0  0
  5  6  1  0  0  0  0
  5 30  1  0  0  0  0
  5 31  1  0  0  0  0
  6  7  1  0  0  0  0
  6  8  1  0  0  0  0
  6 32  1  0  0  0  0
  7 33  1  0  0  0  0
  8  9  1  0  0  0  0
  8 34  1  0  0  0  0
  8 35  1  0  0  0  0
  9 19  1  0  0  0  0
  9 10  1  0  0  0  0
 10 11  2  0  0  0  0
 10 36  1  0  0  0  0
 11 12  1  0  0  0  0
 12 19  2  0  0  0  0
 12 13  1  0  0  0  0
 13 14  2  0  0  0  0
 13 37  1  0  0  0  0
 14 15  1  0  0  0  0
 14 16  1  0  0  0  0
 16 17  1  0  0  0  0
 16 18  2  0  0  0  0
 18 19  1  0  0  0  0
 18 38  1  0  0  0  0
 20 21  1  0  0  0  0
 20 39  1  0  0  0  0
 20 40  1  0  0  0  0
 21 22  1  0  0  0  0
 21 23  1  0  0  0  0
 21 41  1  0  0  0  0
 22 42  1  0  0  0  0
 22 43  1  0  0  0  0
 22 44  1  0  0  0  0
M  CHG  1   4   1
M  END
> <s_m_source_file>
AV-unprocessed.smi

> <i_m_source_file_index>
1824

> <i_lp_mmshare_version>
43012

> <i_f3d_flags>
0

> <s_epik_input>
W0NIM11bQ0BASF0xW0NIMl1OKFtDSDJdW0NASF0oTzEpW0NIM10pW0NIMl1bQ0BIXShbT0hdKVtDSDJdbihbY0hdbjIpYyhjMjMpW2NIXWMoRiljKEYpW2NIXTM=

> <s_epik_cmdline>
J2VwaWtfcHl0aG9uJywgJy1waCcsICc3LjAnLCAnLXRuJywgJzgnLCAnLW1hJywgJzIwMCcsICctbWV0YWxfYmluZGluZycsICctaW1hZScsICc8aW5maWxlLm1hZT4nLCAnLW9tYWUnLCAnPG91dGZpbGUubWFlPic=

> <r_epik_Ionization_Penalty>
0.61967

> <r_epik_Ionization_Penalty_Charging>
0.608065

> <r_epik_Ionization_Penalty_Neutral>
0.0116057

> <r_epik_State_Penalty>
0.664205

> <r_epik_Charging_Adjusted_Penalty>
1.27227

> <i_epik_Tot_Q>
1

> <i_epik_Tot_abs_Q>
1

> <r_epik_Metal_State_Penalty>
0.654947

> <b_epik_Metal_Only>
0

> <s_lp_Force_Field>
OPLS_2005

> <r_lp_Energy>
23.0579

> <b_lp_Chiralities_Consistent>
1

> <s_lp_Variant>
AV-unprocessed.smi:1824-9

> <Gold.Version>
5.8.1

> <Gold.Id.Protein>
6NUR|6NUR_protein|mol2

> <Gold.PLP.Fitness>
50.6244

> <Gold.PLP.PLP>
-42.6903

> <Gold.PLP.part.hbond>
-3.0000

> <Gold.PLP.part.metal>
0.0000

> <Gold.PLP.part.buried>
-6.4227

> <Gold.PLP.part.nonpolar>
-32.9738

> <Gold.PLP.part.repulsive>
0.0691

> <Gold.PLP.ligand.clash>
0.0000

> <Gold.PLP.ligand.torsion>
0.5617

> <Gold.PLP.Chemscore.Hbond>
3.0000

> <Gold.PLP.Chemscore.CHOScore>
0.0000

> <Gold.PLP.Chemscore.Metal>
0.0000

> <Gold.Chemscore.Hbonds>
donor molecule, donor type, donor heavy atom, donor atom, acceptor molecule, acceptor atom, score
      P1  H  7997  8008       L1     7  0.88

> <Gold.PLP.Chemscore.Internal.Correction>
0.0575

> <Gold.Rescore>
     Score         DG    S(hbond)    S(metal)    S(lipo)     H(rot)  DE(clash)    DE(int)     intcor
     15.38     -16.67       1.80        0.00      95.00       2.33       0.02       1.27       ----

> <Gold.Chemscore.Fitness>
15.3791

> <Gold.Chemscore.DG>
-16.6654

> <Gold.Chemscore.ZeroCoef>
-5.4800

> <Gold.Chemscore.Hbond>
1.8031

> <Gold.Chemscore.Metal>
0.0000

> <Gold.Chemscore.Lipo>
95.0024

> <Gold.Chemscore.Internal_Hbond>
0.0000

> <Gold.Chemscore.DEClash>
0.0155

> <Gold.Chemscore.DEInternal>
1.2708

> <Gold.Chemscore.Rot>
2.3251

> <Gold.Chemscore.Internal.Correction>
   9.000000E+99

> <Gold.Chemscore.Hbonds>
donor molecule, donor type, donor heavy atom, donor atom, acceptor molecule, acceptor atom, score
      P1  H  7997  8008       L1     7  0.22

> <Gold.Chemscore.Hbond.Weighted>
-6.0225

> <Gold.Chemscore.Metal.Weighted>
-0.0000

> <Gold.Chemscore.Lipo.Weighted>
-11.1153

> <Gold.Chemscore.Internal_Hbond.Weighted>
0.0000

> <Gold.Chemscore.DEClash.Weighted>
0.0155

> <Gold.Chemscore.DEInternal.Weighted>
1.2708

> <Gold.Chemscore.Rot.Weighted>
5.9523

> <Gold.Chemscore.Internal.Correction.Weighted>
   9.000000E+99

> <Gold.Protein.RotatedTorsions>
[ 6907 6896 6895 6894 ] final   74.06 input  -60.11 | X-H torsion
[ 7974 7965 7964 7962 ] final   14.88 input  175.53 | X-H torsion
[ 8008 7997 7996 7995 ] final  -30.20 input   59.86 | X-H torsion
[ 10167 10162 10161 10158 ] final  162.82 input  -65.29 | X-H torsion
[ 10718 10713 10712 10709 ] final   14.17 input   66.30 | X-H torsion
[ 10763 10752 10751 10750 ] final  169.99 input  -60.55 | X-H torsion
[ 11005 11000 10999 10996 ] final -108.70 input  -57.11 | X-H torsion

> <Gold.Protein.ActiveResidues>
 VAL166  LYS551  ARG553  GLY616  TRP617  ASP618  TYR619  PRO620  LYS621  CYS622 
 ASP623  PHE694  ASN695  SER759  ASP760  ASP761  ALA762  ILE779  LEU786  VAL792 
 PHE793  MET794  SER795  GLU796  ALA797  LYS798  CYS799  TRP800  GLU811  SER814 

> <Gold.Protein.RotatedAtoms>
  152.4956  134.4329  159.9517 H   0  0  0  0  0  0  0  0  0  0  0  0  # atno 6907 bound_to 6896
  151.4308  133.3665  159.2776 H   0  0  0  0  0  0  0  0  0  0  0  0  # atno 6908 bound_to 6896
  150.9156  134.8596  159.7514 H   0  0  0  0  0  0  0  0  0  0  0  0  # atno 6909 bound_to 6896
  146.2293  139.8977  142.8544 H   0  0  0  0  0  0  0  0  0  0  0  0  # atno 7974 bound_to 7965
  154.4259  140.1797  156.1369 H   0  0  0  0  0  0  0  0  0  0  0  0  # atno 8008 bound_to 7997
  156.0022  140.3359  155.6832 H   0  0  0  0  0  0  0  0  0  0  0  0  # atno 8009 bound_to 7997
  155.6226  140.0661  157.2664 H   0  0  0  0  0  0  0  0  0  0  0  0  # atno 8010 bound_to 7997
  139.4865  144.4399  151.8965 H   0  0  0  0  0  0  0  0  0  0  0  0  # atno 10167 bound_to 10162
  157.0353  130.6209  149.5742 H   0  0  0  0  0  0  0  0  0  0  0  0  # atno 10718 bound_to 10713
  154.3911  135.2754  155.2154 H   0  0  0  0  0  0  0  0  0  0  0  0  # atno 10763 bound_to 10752
  154.4219  135.5998  153.6019 H   0  0  0  0  0  0  0  0  0  0  0  0  # atno 10764 bound_to 10752
  152.9832  135.5974  154.4166 H   0  0  0  0  0  0  0  0  0  0  0  0  # atno 10765 bound_to 10752
  141.0887  133.9093  157.2125 H   0  0  0  0  0  0  0  0  0  0  0  0  # atno 11005 bound_to 11000
  145.2355  140.9989  143.3966 LP  0  0  0  0  0  0  0  0  0  0  0  0  # atno 17320 bound_to 7965
  144.9495  139.4098  143.6409 LP  0  0  0  0  0  0  0  0  0  0  0  0  # atno 17321 bound_to 7965
  140.3850  144.2688  150.5905 LP  0  0  0  0  0  0  0  0  0  0  0  0  # atno 17342 bound_to 10162
  140.5198  143.2268  151.8406 LP  0  0  0  0  0  0  0  0  0  0  0  0  # atno 17343 bound_to 10162
  156.0056  130.5142  150.7817 LP  0  0  0  0  0  0  0  0  0  0  0  0  # atno 17370 bound_to 10713
  157.5146  131.0927  151.0155 LP  0  0  0  0  0  0  0  0  0  0  0  0  # atno 17371 bound_to 10713
  139.9709  135.0128  156.9510 LP  0  0  0  0  0  0  0  0  0  0  0  0  # atno 17394 bound_to 11000
  140.5302  134.0821  155.7314 LP  0  0  0  0  0  0  0  0  0  0  0  0  # atno 17395 bound_to 11000

$$$$
