AV-unprocessed.smi:2095|AV-procd|sdf|8555|dock6
  -GOLD-   2272011283D 1   1.00000     0.00000
 Structure written by MMmdl.
 42 43  0  0  0  0  0  0  0  0  2 V2000
  149.7426  144.8621  160.1362 C   0  0  0  0  0  0  0  0  0  0  0  0
  150.8285  144.8211  159.0466 C   0  0  1  0  0  0  0  0  0  0  0  0
  152.2496  145.0003  159.6154 C   0  0  0  0  0  0  0  0  0  0  0  0
  152.7300  143.7322  160.3372 C   0  0  0  0  0  0  0  0  0  0  0  0
  152.6027  142.5007  159.4272 C   0  0  0  0  0  0  0  0  0  0  0  0
  151.2020  142.3467  158.9490 N   0  3  2  0  0  0  0  0  0  0  0  0
  150.8916  141.0519  158.2752 C   0  0  2  0  0  0  0  0  0  0  0  0
  151.6389  139.8933  158.9652 C   0  0  0  0  0  0  0  0  0  0  0  0
  151.1031  141.0971  156.7396 C   0  0  0  0  0  0  0  0  0  0  0  0
  150.7506  139.8302  156.1060 N   0  0  0  0  0  0  0  0  0  0  0  0
  151.5357  139.1344  155.2674 C   0  0  0  0  0  0  0  0  0  0  0  0
  152.6318  139.5321  154.8745 O   0  0  0  0  0  0  0  0  0  0  0  0
  151.0200  137.7629  154.8323 C   0  0  0  0  0  0  0  0  0  0  0  0
  150.9460  136.8631  155.9683 N   0  0  0  0  0  0  0  0  0  0  0  0
  150.3291  136.9853  157.1454 C   0  0  0  0  0  0  0  0  0  0  0  0
  150.5446  135.9350  157.9220 N   0  0  0  0  0  0  0  0  0  0  0  0
  151.3502  135.1249  157.1395 N   0  0  0  0  0  0  0  0  0  0  0  0
  151.5924  135.6704  155.9794 N   0  0  0  0  0  0  0  0  0  0  0  0
  150.7445  143.5410  158.1890 C   0  0  0  0  0  0  0  0  0  0  0  0
  149.8366  144.0336  160.8382 H   0  0  0  0  0  0  0  0  0  0  0  0
  148.7462  144.8086  159.6966 H   0  0  0  0  0  0  0  0  0  0  0  0
  149.7973  145.7889  160.7081 H   0  0  0  0  0  0  0  0  0  0  0  0
  150.6337  145.6687  158.3883 H   0  0  0  0  0  0  0  0  0  0  0  0
  152.9363  145.2248  158.7980 H   0  0  0  0  0  0  0  0  0  0  0  0
  152.2882  145.8573  160.2887 H   0  0  0  0  0  0  0  0  0  0  0  0
  153.7668  143.8560  160.6512 H   0  0  0  0  0  0  0  0  0  0  0  0
  152.1520  143.5786  161.2489 H   0  0  0  0  0  0  0  0  0  0  0  0
  153.2798  142.6055  158.5788 H   0  0  0  0  0  0  0  0  0  0  0  0
  152.9188  141.6169  159.9802 H   0  0  0  0  0  0  0  0  0  0  0  0
  149.8326  140.8571  158.4514 H   0  0  0  0  0  0  0  0  0  0  0  0
  151.2536  138.9247  158.6453 H   0  0  0  0  0  0  0  0  0  0  0  0
  151.5201  139.9387  160.0481 H   0  0  0  0  0  0  0  0  0  0  0  0
  152.7060  139.9069  158.7442 H   0  0  0  0  0  0  0  0  0  0  0  0
  150.4727  141.8660  156.2939 H   0  0  0  0  0  0  0  0  0  0  0  0
  152.1308  141.3666  156.4930 H   0  0  0  0  0  0  0  0  0  0  0  0
  149.8613  139.4262  156.3631 H   0  0  0  0  0  0  0  0  0  0  0  0
  150.0291  137.8575  154.3863 H   0  0  0  0  0  0  0  0  0  0  0  0
  151.6777  137.3323  154.0756 H   0  0  0  0  0  0  0  0  0  0  0  0
  149.7374  137.8411  157.4351 H   0  0  0  0  0  0  0  0  0  0  0  0
  149.7189  143.4009  157.8451 H   0  0  0  0  0  0  0  0  0  0  0  0
  151.3592  143.6592  157.2958 H   0  0  0  0  0  0  0  0  0  0  0  0
  150.6327  142.3403  159.7834 H   0  0  0  0  0  0  0  0  0  0  0  0
  1  2  1  0  0  0  0
  1 20  1  0  0  0  0
  1 21  1  0  0  0  0
  1 22  1  0  0  0  0
  2 19  1  0  0  0  0
  2  3  1  0  0  0  0
  2 23  1  0  0  0  0
  3  4  1  0  0  0  0
  3 24  1  0  0  0  0
  3 25  1  0  0  0  0
  4  5  1  0  0  0  0
  4 26  1  0  0  0  0
  4 27  1  0  0  0  0
  5  6  1  0  0  0  0
  5 28  1  0  0  0  0
  5 29  1  0  0  0  0
  6  7  1  0  0  0  0
  6 19  1  0  0  0  0
  6 42  1  0  0  0  0
  7  8  1  0  0  0  0
  7  9  1  0  0  0  0
  7 30  1  0  0  0  0
  8 31  1  0  0  0  0
  8 32  1  0  0  0  0
  8 33  1  0  0  0  0
  9 10  1  0  0  0  0
  9 34  1  0  0  0  0
  9 35  1  0  0  0  0
 10 11  1  0  0  0  0
 10 36  1  0  0  0  0
 11 12  2  0  0  0  0
 11 13  1  0  0  0  0
 13 14  1  0  0  0  0
 13 37  1  0  0  0  0
 13 38  1  0  0  0  0
 14 18  1  0  0  0  0
 14 15  1  0  0  0  0
 15 16  2  0  0  0  0
 15 39  1  0  0  0  0
 16 17  1  0  0  0  0
 17 18  2  0  0  0  0
 19 40  1  0  0  0  0
 19 41  1  0  0  0  0
M  CHG  1   6   1
M  END
> <s_m_source_file>
AV-unprocessed.smi

> <i_m_source_file_index>
2095

> <i_lp_mmshare_version>
43012

> <i_f3d_flags>
0

> <s_epik_input>
W0NIM11bQ0BASF0xW0NIMl1bQ0gyXVtDSDJdTihbQ0gyXTEpW0NASF0oW0NIM10pW0NIMl1bTkhdQyg9TylbQ0gyXW4yW2NIXW5ubjI=

> <s_epik_cmdline>
J2VwaWtfcHl0aG9uJywgJy1waCcsICc3LjAnLCAnLXRuJywgJzgnLCAnLW1hJywgJzIwMCcsICctbWV0YWxfYmluZGluZycsICctaW1hZScsICc8aW5maWxlLm1hZT4nLCAnLW9tYWUnLCAnPG91dGZpbGUubWFlPic=

> <r_lp_tautomer_probability>
1

> <r_epik_Ionization_Penalty>
0.00268321

> <r_epik_Ionization_Penalty_Charging>
0.00267875

> <r_epik_Ionization_Penalty_Neutral>
4.46125e-06

> <r_epik_State_Penalty>
0.00186642

> <r_epik_Charging_Adjusted_Penalty>
0.00454517

> <i_epik_Tot_Q>
1

> <i_epik_Tot_abs_Q>
1

> <r_epik_Metal_State_Penalty>
-0

> <b_epik_Metal_Only>
0

> <s_lp_Force_Field>
OPLS_2005

> <r_lp_Energy>
25.1095

> <b_lp_Chiralities_Consistent>
1

> <s_lp_Variant>
AV-unprocessed.smi:2095-2

> <Gold.Version>
5.8.1

> <Gold.Id.Protein>
6NUR|6NUR_protein|mol2

> <Gold.PLP.Fitness>
44.5954

> <Gold.PLP.PLP>
-37.6225

> <Gold.PLP.part.hbond>
-5.0000

> <Gold.PLP.part.metal>
0.0000

> <Gold.PLP.part.buried>
-7.4114

> <Gold.PLP.part.nonpolar>
-26.3637

> <Gold.PLP.part.repulsive>
0.2221

> <Gold.PLP.ligand.clash>
0.0000

> <Gold.PLP.ligand.torsion>
0.5383

> <Gold.PLP.Chemscore.Hbond>
2.6432

> <Gold.PLP.Chemscore.CHOScore>
0.0000

> <Gold.PLP.Chemscore.Metal>
0.0000

> <Gold.Chemscore.Hbonds>
donor molecule, donor type, donor heavy atom, donor atom, acceptor molecule, acceptor atom, score
      P1  H  6896  6909       L1    16  0.40
      P1  H  7989  7998       L1    12  0.24
      P1  H  7997  8009       L1    12  0.60
      P1  H 10752 10764       L1    18  1.00

> <Gold.PLP.Chemscore.Internal.Correction>
0.1198

> <Gold.Rescore>
     Score         DG    S(hbond)    S(metal)    S(lipo)     H(rot)  DE(clash)    DE(int)     intcor
     15.68     -16.24       2.18        0.00      87.53       2.64       0.01       0.56       ----

> <Gold.Chemscore.Fitness>
15.6796

> <Gold.Chemscore.DG>
-16.2447

> <Gold.Chemscore.ZeroCoef>
-5.4800

> <Gold.Chemscore.Hbond>
2.1833

> <Gold.Chemscore.Metal>
0.0000

> <Gold.Chemscore.Lipo>
87.5300

> <Gold.Chemscore.Internal_Hbond>
0.0000

> <Gold.Chemscore.DEClash>
0.0064

> <Gold.Chemscore.DEInternal>
0.5588

> <Gold.Chemscore.Rot>
2.6439

> <Gold.Chemscore.Internal.Correction>
   9.000000E+99

> <Gold.Chemscore.Hbonds>
donor molecule, donor type, donor heavy atom, donor atom, acceptor molecule, acceptor atom, score
      P1  H  6896  6909       L1    16  0.05
      P1  H  7989  7998       L1    12  0.01
      P1  H  7997  8009       L1    12  0.60
      P1  H 10752 10764       L1    18  0.97

> <Gold.Chemscore.Hbond.Weighted>
-7.2922

> <Gold.Chemscore.Metal.Weighted>
-0.0000

> <Gold.Chemscore.Lipo.Weighted>
-10.2410

> <Gold.Chemscore.Internal_Hbond.Weighted>
0.0000

> <Gold.Chemscore.DEClash.Weighted>
0.0064

> <Gold.Chemscore.DEInternal.Weighted>
0.5588

> <Gold.Chemscore.Rot.Weighted>
6.7685

> <Gold.Chemscore.Internal.Correction.Weighted>
   9.000000E+99

> <Gold.Protein.RotatedTorsions>
[ 6907 6896 6895 6894 ] final   74.45 input  -60.11 | X-H torsion
[ 7974 7965 7964 7962 ] final -178.46 input  175.53 | X-H torsion
[ 8008 7997 7996 7995 ] final -143.57 input   59.86 | X-H torsion
[ 10167 10162 10161 10158 ] final   43.32 input  -65.29 | X-H torsion
[ 10718 10713 10712 10709 ] final   52.37 input   66.30 | X-H torsion
[ 10763 10752 10751 10750 ] final  -36.47 input  -60.55 | X-H torsion
[ 11005 11000 10999 10996 ] final   34.15 input  -57.11 | X-H torsion

> <Gold.Protein.ActiveResidues>
 VAL166  LYS551  ARG553  GLY616  TRP617  ASP618  TYR619  PRO620  LYS621  CYS622 
 ASP623  PHE694  ASN695  SER759  ASP760  ASP761  ALA762  ILE779  LEU786  VAL792 
 PHE793  MET794  SER795  GLU796  ALA797  LYS798  CYS799  TRP800  GLU811  SER814 

> <Gold.Protein.RotatedAtoms>
  152.4976  134.4269  159.9499 H   0  0  0  0  0  0  0  0  0  0  0  0  # atno 6907 bound_to 6896
  151.4245  133.3682  159.2768 H   0  0  0  0  0  0  0  0  0  0  0  0  # atno 6908 bound_to 6896
  150.9199  134.8639  159.7541 H   0  0  0  0  0  0  0  0  0  0  0  0  # atno 6909 bound_to 6896
  144.7131  140.0865  143.6423 H   0  0  0  0  0  0  0  0  0  0  0  0  # atno 7974 bound_to 7965
  155.5127  140.0585  157.2920 H   0  0  0  0  0  0  0  0  0  0  0  0  # atno 8008 bound_to 7997
  154.4546  140.1966  156.0365 H   0  0  0  0  0  0  0  0  0  0  0  0  # atno 8009 bound_to 7997
  156.0773  140.3252  155.7654 H   0  0  0  0  0  0  0  0  0  0  0  0  # atno 8010 bound_to 7997
  140.3456  144.2415  150.6151 H   0  0  0  0  0  0  0  0  0  0  0  0  # atno 10167 bound_to 10162
  157.5068  130.8474  149.8385 H   0  0  0  0  0  0  0  0  0  0  0  0  # atno 10718 bound_to 10713
  153.8804  135.6822  153.4767 H   0  0  0  0  0  0  0  0  0  0  0  0  # atno 10763 bound_to 10752
  153.1237  135.4728  154.9235 H   0  0  0  0  0  0  0  0  0  0  0  0  # atno 10764 bound_to 10752
  154.7672  135.3227  154.8215 H   0  0  0  0  0  0  0  0  0  0  0  0  # atno 10765 bound_to 10752
  140.2558  134.3249  155.7874 H   0  0  0  0  0  0  0  0  0  0  0  0  # atno 11005 bound_to 11000
  145.9657  139.2833  143.1129 LP  0  0  0  0  0  0  0  0  0  0  0  0  # atno 17320 bound_to 7965
  145.9172  140.9140  143.0424 LP  0  0  0  0  0  0  0  0  0  0  0  0  # atno 17321 bound_to 7965
  140.5268  143.2252  151.8302 LP  0  0  0  0  0  0  0  0  0  0  0  0  # atno 17342 bound_to 10162
  139.4834  144.4770  151.9355 LP  0  0  0  0  0  0  0  0  0  0  0  0  # atno 17343 bound_to 10162
  156.0264  130.3778  150.1812 LP  0  0  0  0  0  0  0  0  0  0  0  0  # atno 17370 bound_to 10713
  157.0002  130.9920  151.3393 LP  0  0  0  0  0  0  0  0  0  0  0  0  # atno 17371 bound_to 10713
  141.2196  133.7380  156.9109 LP  0  0  0  0  0  0  0  0  0  0  0  0  # atno 17394 bound_to 11000
  140.1513  134.9228  157.2596 LP  0  0  0  0  0  0  0  0  0  0  0  0  # atno 17395 bound_to 11000

$$$$
