AV-unprocessed.smi:546|AV-procd|sdf|2888|dock5
  -GOLD-   2262023383D 1   1.00000     0.00000
 Structure written by MMmdl.
 51 53  0  0  0  0  0  0  0  0  2 V2000
  152.4627  138.4073  154.5878 C   0  0  0  0  0  0  0  0  0  0  0  0
  151.0821  139.0552  154.7118 C   0  0  0  0  0  0  0  0  0  0  0  0
  150.7900  139.2296  156.0859 O   0  0  0  0  0  0  0  0  0  0  0  0
  151.8068  139.9225  156.7899 C   0  0  0  0  0  0  0  0  0  0  0  0
  151.3470  140.1882  158.2310 C   0  0  0  0  0  0  0  0  0  0  0  0
  152.3760  139.8176  159.1981 N   0  0  0  0  0  0  0  0  0  0  0  0
  153.0276  140.6301  160.0732 C   0  0  0  0  0  0  0  0  0  0  0  0
  152.8176  142.0110  160.1159 N   0  0  0  0  0  0  0  0  0  0  0  0
  152.7998  142.8714  158.9285 C   0  0  0  0  0  0  0  0  0  0  0  0
  151.8502  144.0869  159.0445 C   0  0  1  0  0  0  0  0  0  0  0  0
  150.3646  143.7187  158.9029 C   0  0  0  0  0  0  0  0  0  0  0  0
  152.1398  144.8789  160.3304 C   0  0  0  0  0  0  0  0  0  0  0  0
  152.1780  143.9501  161.5539 C   0  0  2  0  0  0  0  0  0  0  0  0
  152.5365  144.7189  162.8324 C   0  0  0  0  0  0  0  0  0  0  0  0
  153.1672  142.8001  161.2968 C   0  0  0  0  0  0  0  0  0  0  0  0
  153.8588  139.9973  160.9038 N   0  0  0  0  0  0  0  0  0  0  0  0
  153.7444  138.6728  160.5127 C   0  0  0  0  0  0  0  0  0  0  0  0
  152.8602  138.5360  159.4883 C   0  0  0  0  0  0  0  0  0  0  0  0
  152.5103  137.2329  158.8764 C   0  0  0  0  0  0  0  0  0  0  0  0
  151.6934  137.1550  157.9613 O   0  0  0  0  0  0  0  0  0  0  0  0
  153.1930  136.1917  159.4496 N   0  5  0  0  0  0  0  0  0  0  0  0
  154.0981  136.2875  160.4841 C   0  0  0  0  0  0  0  0  0  0  0  0
  154.6706  135.2970  160.9407 O   0  0  0  0  0  0  0  0  0  0  0  0
  154.3801  137.5115  161.0305 N   0  0  0  0  0  0  0  0  0  0  0  0
  155.3307  137.6425  162.1384 C   0  0  0  0  0  0  0  0  0  0  0  0
  152.7296  138.2531  153.5423 H   0  0  0  0  0  0  0  0  0  0  0  0
  152.4847  137.4380  155.0867 H   0  0  0  0  0  0  0  0  0  0  0  0
  153.2307  139.0339  155.0419 H   0  0  0  0  0  0  0  0  0  0  0  0
  151.0710  140.0177  154.1988 H   0  0  0  0  0  0  0  0  0  0  0  0
  150.3291  138.4193  154.2439 H   0  0  0  0  0  0  0  0  0  0  0  0
  152.7278  139.3381  156.7929 H   0  0  0  0  0  0  0  0  0  0  0  0
  152.0196  140.8683  156.2897 H   0  0  0  0  0  0  0  0  0  0  0  0
  151.0743  141.2330  158.3609 H   0  0  0  0  0  0  0  0  0  0  0  0
  150.4345  139.6397  158.4398 H   0  0  0  0  0  0  0  0  0  0  0  0
  153.8174  143.2315  158.7723 H   0  0  0  0  0  0  0  0  0  0  0  0
  152.5620  142.2874  158.0400 H   0  0  0  0  0  0  0  0  0  0  0  0
  152.0735  144.7461  158.2048 H   0  0  0  0  0  0  0  0  0  0  0  0
  150.0341  143.0496  159.6956 H   0  0  0  0  0  0  0  0  0  0  0  0
  150.1714  143.2295  157.9482 H   0  0  0  0  0  0  0  0  0  0  0  0
  149.7369  144.6092  158.9428 H   0  0  0  0  0  0  0  0  0  0  0  0
  153.1044  145.3787  160.2297 H   0  0  0  0  0  0  0  0  0  0  0  0
  151.3998  145.6681  160.4687 H   0  0  0  0  0  0  0  0  0  0  0  0
  151.1861  143.5205  161.6999 H   0  0  0  0  0  0  0  0  0  0  0  0
  153.5296  145.1642  162.7634 H   0  0  0  0  0  0  0  0  0  0  0  0
  152.5272  144.0599  163.7012 H   0  0  0  0  0  0  0  0  0  0  0  0
  151.8231  145.5216  163.0201 H   0  0  0  0  0  0  0  0  0  0  0  0
  153.1883  142.1427  162.1671 H   0  0  0  0  0  0  0  0  0  0  0  0
  154.1798  143.1881  161.1782 H   0  0  0  0  0  0  0  0  0  0  0  0
  156.3279  137.3357  161.8213 H   0  0  0  0  0  0  0  0  0  0  0  0
  155.0313  137.0143  162.9785 H   0  0  0  0  0  0  0  0  0  0  0  0
  155.4052  138.6637  162.5107 H   0  0  0  0  0  0  0  0  0  0  0  0
  1  2  1  0  0  0  0
  1 26  1  0  0  0  0
  1 27  1  0  0  0  0
  1 28  1  0  0  0  0
  2  3  1  0  0  0  0
  2 29  1  0  0  0  0
  2 30  1  0  0  0  0
  3  4  1  0  0  0  0
  4  5  1  0  0  0  0
  4 31  1  0  0  0  0
  4 32  1  0  0  0  0
  5  6  1  0  0  0  0
  5 33  1  0  0  0  0
  5 34  1  0  0  0  0
  6 18  1  0  0  0  0
  6  7  1  0  0  0  0
  7  8  1  0  0  0  0
  7 16  2  0  0  0  0
  8 15  1  0  0  0  0
  8  9  1  0  0  0  0
  9 10  1  0  0  0  0
  9 35  1  0  0  0  0
  9 36  1  0  0  0  0
 10 11  1  0  0  0  0
 10 12  1  0  0  0  0
 10 37  1  0  0  0  0
 11 38  1  0  0  0  0
 11 39  1  0  0  0  0
 11 40  1  0  0  0  0
 12 13  1  0  0  0  0
 12 41  1  0  0  0  0
 12 42  1  0  0  0  0
 13 14  1  0  0  0  0
 13 15  1  0  0  0  0
 13 43  1  0  0  0  0
 14 44  1  0  0  0  0
 14 45  1  0  0  0  0
 14 46  1  0  0  0  0
 15 47  1  0  0  0  0
 15 48  1  0  0  0  0
 16 17  1  0  0  0  0
 17 24  1  0  0  0  0
 17 18  2  0  0  0  0
 18 19  1  0  0  0  0
 19 20  2  0  0  0  0
 19 21  1  0  0  0  0
 21 22  1  0  0  0  0
 22 23  2  0  0  0  0
 22 24  1  0  0  0  0
 24 25  1  0  0  0  0
 25 49  1  0  0  0  0
 25 50  1  0  0  0  0
 25 51  1  0  0  0  0
M  CHG  1  21  -1
M  END
> <s_m_source_file>
AV-unprocessed.smi

> <i_m_source_file_index>
546

> <i_lp_mmshare_version>
43012

> <i_f3d_flags>
0

> <s_epik_input>
W0NIM11uMWMoPU8pW25IXWMoPU8pYyhjMTIpbihbQ0gyXVtDSDJdT1tDSDJdW0NIM10pYyhuMilOM1tDSDJdW0NAQEhdKFtDSDNdKVtDSDJdW0NAQEhdKFtDSDNdKVtDSDJdMw==

> <s_epik_cmdline>
J2VwaWtfcHl0aG9uJywgJy1waCcsICc3LjAnLCAnLXRuJywgJzgnLCAnLW1hJywgJzIwMCcsICctbWV0YWxfYmluZGluZycsICctaW1hZScsICc8aW5maWxlLm1hZT4nLCAnLW9tYWUnLCAnPG91dGZpbGUubWFlPic=

> <r_lp_tautomer_probability>
1

> <r_epik_Ionization_Penalty>
5.12825

> <r_epik_Ionization_Penalty_Charging>
0.0743105

> <r_epik_Ionization_Penalty_Neutral>
5.05394

> <r_epik_State_Penalty>
5.04406

> <r_epik_Charging_Adjusted_Penalty>
5.11837

> <i_epik_Tot_Q>
-1

> <i_epik_Tot_abs_Q>
1

> <r_epik_Metal_State_Penalty>
1.15122

> <b_epik_Metal_Only>
1

> <s_lp_Force_Field>
OPLS_2005

> <r_lp_Energy>
44.0722

> <b_lp_Chiralities_Consistent>
1

> <s_lp_Variant>
AV-unprocessed.smi:546-6

> <Gold.Version>
5.8.1

> <Gold.Id.Protein>
6NUR|6NUR_protein|mol2

> <Gold.PLP.Fitness>
51.5691

> <Gold.PLP.PLP>
-46.6797

> <Gold.PLP.part.hbond>
-1.0000

> <Gold.PLP.part.metal>
0.0000

> <Gold.PLP.part.buried>
-2.3509

> <Gold.PLP.part.nonpolar>
-43.0432

> <Gold.PLP.part.repulsive>
0.0000

> <Gold.PLP.ligand.clash>
0.0000

> <Gold.PLP.ligand.torsion>
0.8590

> <Gold.PLP.Chemscore.Hbond>
2.0000

> <Gold.PLP.Chemscore.CHOScore>
0.0000

> <Gold.PLP.Chemscore.Metal>
0.0000

> <Gold.Chemscore.Hbonds>
donor molecule, donor type, donor heavy atom, donor atom, acceptor molecule, acceptor atom, score
      P1  H  6896  6907       L1    21  2.00

> <Gold.PLP.Chemscore.Internal.Correction>
0.6075

> <Gold.Rescore>
     Score         DG    S(hbond)    S(metal)    S(lipo)     H(rot)  DE(clash)    DE(int)     intcor
     14.92     -17.50       0.58        0.00     119.39       1.52       1.70       0.88       ----

> <Gold.Chemscore.Fitness>
14.9205

> <Gold.Chemscore.DG>
-17.5003

> <Gold.Chemscore.ZeroCoef>
-5.4800

> <Gold.Chemscore.Hbond>
0.5822

> <Gold.Chemscore.Metal>
0.0000

> <Gold.Chemscore.Lipo>
119.3868

> <Gold.Chemscore.Internal_Hbond>
0.0000

> <Gold.Chemscore.DEClash>
1.6963

> <Gold.Chemscore.DEInternal>
0.8835

> <Gold.Chemscore.Rot>
1.5206

> <Gold.Chemscore.Internal.Correction>
   9.000000E+99

> <Gold.Chemscore.Hbonds>
donor molecule, donor type, donor heavy atom, donor atom, acceptor molecule, acceptor atom, score
      P1  H  6896  6907       L1    21  0.24

> <Gold.Chemscore.Hbond.Weighted>
-1.9447

> <Gold.Chemscore.Metal.Weighted>
-0.0000

> <Gold.Chemscore.Lipo.Weighted>
-13.9683

> <Gold.Chemscore.Internal_Hbond.Weighted>
0.0000

> <Gold.Chemscore.DEClash.Weighted>
1.6963

> <Gold.Chemscore.DEInternal.Weighted>
0.8835

> <Gold.Chemscore.Rot.Weighted>
3.8926

> <Gold.Chemscore.Internal.Correction.Weighted>
   9.000000E+99

> <Gold.Protein.RotatedTorsions>
[ 6907 6896 6895 6894 ] final   33.79 input  -60.11 | X-H torsion
[ 7974 7965 7964 7962 ] final  -25.58 input  175.53 | X-H torsion
[ 8008 7997 7996 7995 ] final  130.18 input   59.86 | X-H torsion
[ 10167 10162 10161 10158 ] final  167.72 input  -65.29 | X-H torsion
[ 10718 10713 10712 10709 ] final -121.84 input   66.30 | X-H torsion
[ 10763 10752 10751 10750 ] final  -25.85 input  -60.55 | X-H torsion
[ 11005 11000 10999 10996 ] final -162.29 input  -57.11 | X-H torsion

> <Gold.Protein.ActiveResidues>
 VAL166  LYS551  ARG553  GLY616  TRP617  ASP618  TYR619  PRO620  LYS621  CYS622 
 ASP623  PHE694  ASN695  SER759  ASP760  ASP761  ALA762  ILE779  LEU786  VAL792 
 PHE793  MET794  SER795  GLU796  ALA797  LYS798  CYS799  TRP800  GLU811  SER814 

> <Gold.Protein.RotatedAtoms>
  152.0934  134.9391  160.0571 H   0  0  0  0  0  0  0  0  0  0  0  0  # atno 6907 bound_to 6896
  152.0634  133.4068  159.4436 H   0  0  0  0  0  0  0  0  0  0  0  0  # atno 6908 bound_to 6896
  150.6837  134.3095  159.4783 H   0  0  0  0  0  0  0  0  0  0  0  0  # atno 6909 bound_to 6896
  146.1482  140.4905  142.8623 H   0  0  0  0  0  0  0  0  0  0  0  0  # atno 7974 bound_to 7965
  156.2950  140.2602  156.2720 H   0  0  0  0  0  0  0  0  0  0  0  0  # atno 8008 bound_to 7997
  154.9686  140.0391  157.2242 H   0  0  0  0  0  0  0  0  0  0  0  0  # atno 8009 bound_to 7997
  154.7880  140.2807  155.6018 H   0  0  0  0  0  0  0  0  0  0  0  0  # atno 8010 bound_to 7997
  139.4951  144.3891  151.9537 H   0  0  0  0  0  0  0  0  0  0  0  0  # atno 10167 bound_to 10162
  156.1369  130.6437  150.9711 H   0  0  0  0  0  0  0  0  0  0  0  0  # atno 10718 bound_to 10713
  153.7064  135.6953  153.5049 H   0  0  0  0  0  0  0  0  0  0  0  0  # atno 10763 bound_to 10752
  153.2304  135.4339  155.0588 H   0  0  0  0  0  0  0  0  0  0  0  0  # atno 10764 bound_to 10752
  154.8328  135.3483  154.6602 H   0  0  0  0  0  0  0  0  0  0  0  0  # atno 10765 bound_to 10752
  140.6108  134.4851  157.5215 H   0  0  0  0  0  0  0  0  0  0  0  0  # atno 11005 bound_to 11000
  144.7871  140.5959  143.6566 LP  0  0  0  0  0  0  0  0  0  0  0  0  # atno 17320 bound_to 7965
  145.4887  139.1490  143.3721 LP  0  0  0  0  0  0  0  0  0  0  0  0  # atno 17321 bound_to 7965
  140.3329  144.3295  150.5983 LP  0  0  0  0  0  0  0  0  0  0  0  0  # atno 17342 bound_to 10162
  140.5630  143.2189  151.7732 LP  0  0  0  0  0  0  0  0  0  0  0  0  # atno 17343 bound_to 10162
  157.6541  131.0892  150.7987 LP  0  0  0  0  0  0  0  0  0  0  0  0  # atno 17370 bound_to 10713
  156.8066  130.4938  149.5362 LP  0  0  0  0  0  0  0  0  0  0  0  0  # atno 17371 bound_to 10713
  139.9193  134.8182  156.1264 LP  0  0  0  0  0  0  0  0  0  0  0  0  # atno 17394 bound_to 11000
  141.0809  133.6755  156.2334 LP  0  0  0  0  0  0  0  0  0  0  0  0  # atno 17395 bound_to 11000

$$$$
