AV-unprocessed.smi:876|AV-procd|sdf|4019|dock5
  -GOLD-   22720 1503D 1   1.00000     0.00000
 Structure written by MMmdl.
 41 42  0  0  0  0  0  0  0  0  2 V2000
  146.2786  137.9450  150.8996 C   0  0  0  0  0  0  0  0  0  0  0  0
  146.1460  137.9365  152.3505 N   0  0  0  0  0  0  0  0  0  0  0  0
  145.1879  137.0467  152.9974 C   0  0  0  0  0  0  0  0  0  0  0  0
  146.9272  138.8146  153.1327 C   0  0  0  0  0  0  0  0  0  0  0  0
  148.1390  138.4283  153.7562 C   0  0  0  0  0  0  0  0  0  0  0  0
  148.8664  139.3621  154.5228 C   0  0  0  0  0  0  0  0  0  0  0  0
  148.3818  140.6863  154.6561 C   0  0  0  0  0  0  0  0  0  0  0  0
  149.0257  141.6997  155.4167 N   0  0  0  0  0  0  0  0  0  0  0  0
  150.3064  141.7580  155.8212 C   0  0  0  0  0  0  0  0  0  0  0  0
  151.1718  140.9206  155.5668 O   0  0  0  0  0  0  0  0  0  0  0  0
  150.5411  142.8694  156.5326 N   0  0  0  0  0  0  0  0  0  0  0  0
  151.8329  143.2349  157.1034 C   0  0  2  0  0  0  0  0  0  0  0  0
  152.2827  142.2005  158.0985 C   0  0  0  0  0  0  0  0  0  0  0  0
  152.5595  142.7218  159.2916 C   0  0  0  0  0  0  0  0  0  0  0  0
  152.3445  144.2130  159.3427 C   0  0  2  0  0  0  0  0  0  0  0  0
  151.4164  144.6472  160.4903 C   0  0  0  0  0  0  0  0  0  0  0  0
  151.4527  146.0493  160.6562 O   0  0  0  0  0  0  0  0  0  0  0  0
  151.7750  144.5411  157.9388 C   0  0  0  0  0  0  0  0  0  0  0  0
  147.1640  141.0152  154.0280 C   0  0  0  0  0  0  0  0  0  0  0  0
  146.4999  140.0896  153.3031 N   0  3  0  0  0  0  0  0  0  0  0  0
  152.5883  143.3061  156.3190 H   0  0  0  0  0  0  0  0  0  0  0  0
  153.3198  144.6878  159.4588 H   0  0  0  0  0  0  0  0  0  0  0  0
  147.2961  137.6855  150.6058 H   0  0  0  0  0  0  0  0  0  0  0  0
  146.0398  138.9303  150.4983 H   0  0  0  0  0  0  0  0  0  0  0  0
  145.6048  137.2249  150.4356 H   0  0  0  0  0  0  0  0  0  0  0  0
  144.4442  137.6213  153.5508 H   0  0  0  0  0  0  0  0  0  0  0  0
  145.6956  136.3755  153.6912 H   0  0  0  0  0  0  0  0  0  0  0  0
  144.6600  136.4335  152.2670 H   0  0  0  0  0  0  0  0  0  0  0  0
  148.5246  137.4241  153.6645 H   0  0  0  0  0  0  0  0  0  0  0  0
  149.7757  139.0359  155.0032 H   0  0  0  0  0  0  0  0  0  0  0  0
  148.4566  142.5041  155.6361 H   0  0  0  0  0  0  0  0  0  0  0  0
  149.7764  143.5092  156.6913 H   0  0  0  0  0  0  0  0  0  0  0  0
  152.3793  141.1561  157.8404 H   0  0  0  0  0  0  0  0  0  0  0  0
  152.9128  142.1622  160.1452 H   0  0  0  0  0  0  0  0  0  0  0  0
  150.3886  144.3519  160.2769 H   0  0  0  0  0  0  0  0  0  0  0  0
  151.7037  144.1666  161.4264 H   0  0  0  0  0  0  0  0  0  0  0  0
  152.1354  146.3998  160.1043 H   0  0  0  0  0  0  0  0  0  0  0  0
  152.3486  145.3354  157.4600 H   0  0  0  0  0  0  0  0  0  0  0  0
  150.7493  144.9051  158.0198 H   0  0  0  0  0  0  0  0  0  0  0  0
  146.7021  141.9907  154.0767 H   0  0  0  0  0  0  0  0  0  0  0  0
  145.6250  140.3672  152.8581 H   0  0  0  0  0  0  0  0  0  0  0  0
  1  2  1  0  0  0  0
  1 23  1  0  0  0  0
  1 24  1  0  0  0  0
  1 25  1  0  0  0  0
  2  3  1  0  0  0  0
  2  4  1  0  0  0  0
  3 26  1  0  0  0  0
  3 27  1  0  0  0  0
  3 28  1  0  0  0  0
  4 20  1  0  0  0  0
  4  5  2  0  0  0  0
  5  6  1  0  0  0  0
  5 29  1  0  0  0  0
  6  7  2  0  0  0  0
  6 30  1  0  0  0  0
  7  8  1  0  0  0  0
  7 19  1  0  0  0  0
  8  9  1  0  0  0  0
  8 31  1  0  0  0  0
  9 10  2  0  0  0  0
  9 11  1  0  0  0  0
 11 12  1  0  0  0  0
 11 32  1  0  0  0  0
 12 21  1  0  0  0  0
 12 18  1  0  0  0  0
 12 13  1  0  0  0  0
 13 14  2  0  0  0  0
 13 33  1  0  0  0  0
 14 15  1  0  0  0  0
 14 34  1  0  0  0  0
 15 22  1  0  0  0  0
 15 16  1  0  0  0  0
 15 18  1  0  0  0  0
 16 17  1  0  0  0  0
 16 35  1  0  0  0  0
 16 36  1  0  0  0  0
 17 37  1  0  0  0  0
 18 38  1  0  0  0  0
 18 39  1  0  0  0  0
 19 20  2  0  0  0  0
 19 40  1  0  0  0  0
 20 41  1  0  0  0  0
M  CHG  1  20   1
M  END
> <s_m_source_file>
AV-unprocessed.smi

> <i_m_source_file_index>
876

> <i_lp_mmshare_version>
43012

> <i_f3d_flags>
0

> <s_epik_input>
W0NIM11OKFtDSDNdKWMxW2NIXVtjSF1jKFtjSF1uMSlbTkhdQyg9TylbTkhdW0NAQEhdMltDSF09W0NIXVtDQEBIXShbQ0gyXTIpW0NIMl1bT0hd

> <s_epik_cmdline>
J2VwaWtfcHl0aG9uJywgJy1waCcsICc3LjAnLCAnLXRuJywgJzgnLCAnLW1hJywgJzIwMCcsICctbWV0YWxfYmluZGluZycsICctaW1hZScsICc8aW5maWxlLm1hZT4nLCAnLW9tYWUnLCAnPG91dGZpbGUubWFlPic=

> <r_lp_tautomer_probability>
0.999994

> <r_epik_Ionization_Penalty>
0.257994

> <r_epik_Ionization_Penalty_Charging>
0.257974

> <r_epik_Ionization_Penalty_Neutral>
1.95938e-05

> <r_epik_State_Penalty>
0.249586

> <r_epik_Charging_Adjusted_Penalty>
0.50756

> <i_epik_Tot_Q>
1

> <i_epik_Tot_abs_Q>
1

> <r_epik_Metal_State_Penalty>
0.538508

> <b_epik_Metal_Only>
0

> <s_lp_Force_Field>
OPLS_2005

> <r_lp_Energy>
26.1458

> <b_lp_Chiralities_Consistent>
1

> <s_lp_Variant>
AV-unprocessed.smi:876-1

> <Gold.Version>
5.8.1

> <Gold.Id.Protein>
6NUR|6NUR_protein|mol2

> <Gold.PLP.Fitness>
49.9179

> <Gold.PLP.PLP>
-41.0111

> <Gold.PLP.part.hbond>
-7.1666

> <Gold.PLP.part.metal>
0.0000

> <Gold.PLP.part.buried>
-1.2365

> <Gold.PLP.part.nonpolar>
-34.0111

> <Gold.PLP.part.repulsive>
0.2902

> <Gold.PLP.ligand.clash>
0.0000

> <Gold.PLP.ligand.torsion>
1.6517

> <Gold.PLP.Chemscore.Hbond>
4.0622

> <Gold.PLP.Chemscore.CHOScore>
0.0000

> <Gold.PLP.Chemscore.Metal>
0.0000

> <Gold.Chemscore.Hbonds>
donor molecule, donor type, donor heavy atom, donor atom, acceptor molecule, acceptor atom, score
      L1  H     8    31       P1  8028  0.31
      L1  H    11    32       P1  8028  0.70
      L1  H    20    41       P1 10175  2.00
      P1  H  7989  7998       L1    10  0.56

> <Gold.PLP.Chemscore.Internal.Correction>
0.0237

> <Gold.Rescore>
     Score         DG    S(hbond)    S(metal)    S(lipo)     H(rot)  DE(clash)    DE(int)     intcor
     14.78     -20.48       2.72        0.00      90.43       1.82       1.69       4.01       ----

> <Gold.Chemscore.Fitness>
14.7793

> <Gold.Chemscore.DG>
-20.4825

> <Gold.Chemscore.ZeroCoef>
-5.4800

> <Gold.Chemscore.Hbond>
2.7187

> <Gold.Chemscore.Metal>
0.0000

> <Gold.Chemscore.Lipo>
90.4328

> <Gold.Chemscore.Internal_Hbond>
0.0000

> <Gold.Chemscore.DEClash>
1.6897

> <Gold.Chemscore.DEInternal>
4.0135

> <Gold.Chemscore.Rot>
1.8197

> <Gold.Chemscore.Internal.Correction>
   9.000000E+99

> <Gold.Chemscore.Hbonds>
donor molecule, donor type, donor heavy atom, donor atom, acceptor molecule, acceptor atom, score
      L1  H     8    31       P1  8028  0.30
      L1  H    11    32       P1  8028  0.70
      L1  H    20    41       P1 10175  0.86
      P1  H  7989  7998       L1    10  0.44

> <Gold.Chemscore.Hbond.Weighted>
-9.0803

> <Gold.Chemscore.Metal.Weighted>
-0.0000

> <Gold.Chemscore.Lipo.Weighted>
-10.5806

> <Gold.Chemscore.Internal_Hbond.Weighted>
0.0000

> <Gold.Chemscore.DEClash.Weighted>
1.6897

> <Gold.Chemscore.DEInternal.Weighted>
4.0135

> <Gold.Chemscore.Rot.Weighted>
4.6585

> <Gold.Chemscore.Internal.Correction.Weighted>
   9.000000E+99

> <Gold.Protein.RotatedTorsions>
[ 6907 6896 6895 6894 ] final   53.21 input  -60.11 | X-H torsion
[ 7974 7965 7964 7962 ] final   37.71 input  175.53 | X-H torsion
[ 8008 7997 7996 7995 ] final  163.24 input   59.86 | X-H torsion
[ 10167 10162 10161 10158 ] final  -78.17 input  -65.29 | X-H torsion
[ 10718 10713 10712 10709 ] final   -5.83 input   66.30 | X-H torsion
[ 10763 10752 10751 10750 ] final -150.97 input  -60.55 | X-H torsion
[ 11005 11000 10999 10996 ] final   55.87 input  -57.11 | X-H torsion

> <Gold.Protein.ActiveResidues>
 VAL166  LYS551  ARG553  GLY616  TRP617  ASP618  TYR619  PRO620  LYS621  CYS622 
 ASP623  PHE694  ASN695  SER759  ASP760  ASP761  ALA762  ILE779  LEU786  VAL792 
 PHE793  MET794  SER795  GLU796  ALA797  LYS798  CYS799  TRP800  GLU811  SER814 

> <Gold.Protein.RotatedAtoms>
  152.3313  134.7256  160.0288 H   0  0  0  0  0  0  0  0  0  0  0  0  # atno 6907 bound_to 6896
  151.7671  133.3333  159.3442 H   0  0  0  0  0  0  0  0  0  0  0  0  # atno 6908 bound_to 6896
  150.7424  134.5984  159.6068 H   0  0  0  0  0  0  0  0  0  0  0  0  # atno 6909 bound_to 6896
  146.1117  139.5860  142.9348 H   0  0  0  0  0  0  0  0  0  0  0  0  # atno 7974 bound_to 7965
  156.1972  140.1729  156.7974 H   0  0  0  0  0  0  0  0  0  0  0  0  # atno 8008 bound_to 7997
  154.5545  140.0711  156.8752 H   0  0  0  0  0  0  0  0  0  0  0  0  # atno 8009 bound_to 7997
  155.2965  140.3359  155.4252 H   0  0  0  0  0  0  0  0  0  0  0  0  # atno 8010 bound_to 7997
  140.4705  143.2428  151.8212 H   0  0  0  0  0  0  0  0  0  0  0  0  # atno 10167 bound_to 10162
  156.7408  130.5209  149.5824 H   0  0  0  0  0  0  0  0  0  0  0  0  # atno 10718 bound_to 10713
  154.8086  135.3271  154.7365 H   0  0  0  0  0  0  0  0  0  0  0  0  # atno 10763 bound_to 10752
  153.8018  135.6903  153.4859 H   0  0  0  0  0  0  0  0  0  0  0  0  # atno 10764 bound_to 10752
  153.1849  135.4573  155.0021 H   0  0  0  0  0  0  0  0  0  0  0  0  # atno 10765 bound_to 10752
  140.0573  134.5652  155.9193 H   0  0  0  0  0  0  0  0  0  0  0  0  # atno 11005 bound_to 11000
  145.5650  141.0400  143.2205 LP  0  0  0  0  0  0  0  0  0  0  0  0  # atno 17320 bound_to 7965
  144.7517  139.7177  143.7270 LP  0  0  0  0  0  0  0  0  0  0  0  0  # atno 17321 bound_to 7965
  139.4818  144.4897  151.9201 LP  0  0  0  0  0  0  0  0  0  0  0  0  # atno 17342 bound_to 10162
  140.3982  144.2527  150.5894 LP  0  0  0  0  0  0  0  0  0  0  0  0  # atno 17343 bound_to 10162
  156.1466  130.6281  151.0539 LP  0  0  0  0  0  0  0  0  0  0  0  0  # atno 17370 bound_to 10713
  157.6819  131.0835  150.7346 LP  0  0  0  0  0  0  0  0  0  0  0  0  # atno 17371 bound_to 10713
  141.1958  133.6588  156.5659 LP  0  0  0  0  0  0  0  0  0  0  0  0  # atno 17394 bound_to 11000
  140.3824  134.7512  157.4669 LP  0  0  0  0  0  0  0  0  0  0  0  0  # atno 17395 bound_to 11000

$$$$
