AV-unprocessed.smi:3105|AV-procd|sdf|11822|dock2
  -GOLD-   2272017193D 1   1.00000     0.00000
 Structure written by MMmdl.
 34 34  0  0  0  0  0  0  0  0  2 V2000
  145.5027  134.2013  154.3662 C   0  0  0  0  0  0  0  0  0  0  0  0
  146.4710  134.7118  153.2828 C   0  0  1  0  0  0  0  0  0  0  0  0
  147.6531  135.3366  153.9211 N   0  3  0  0  0  0  0  0  0  0  0  0
  147.3675  136.5110  154.7743 C   0  0  0  0  0  0  0  0  0  0  0  0
  148.6590  137.2062  155.2493 C   0  0  0  0  0  0  0  0  0  0  0  0
  148.9976  138.5057  154.5045 C   0  0  0  0  0  0  0  0  0  0  0  0
  149.1921  138.4053  153.1879 N   0  0  0  0  0  0  0  0  0  0  0  0
  149.0795  139.5819  155.0945 O   0  0  0  0  0  0  0  0  0  0  0  0
  146.9286  133.5876  152.3138 C   0  0  1  0  0  0  0  0  0  0  0  0
  147.5830  132.3938  153.0341 C   0  0  0  0  0  0  0  0  0  0  0  0
  145.8265  133.1119  151.4838 N   0  0  0  0  0  0  0  0  0  0  0  0
  145.8715  132.2041  150.4455 C   0  0  0  0  0  0  0  0  0  0  0  0
  144.6001  132.0659  149.9675 C   0  0  0  0  0  0  0  0  0  0  0  0
  143.8319  132.9330  150.7930 C   0  0  0  0  0  0  0  0  0  0  0  0
  144.5669  133.5544  151.7007 N   0  0  0  0  0  0  0  0  0  0  0  0
  144.5792  133.8186  153.9328 H   0  0  0  0  0  0  0  0  0  0  0  0
  145.2160  134.9958  155.0550 H   0  0  0  0  0  0  0  0  0  0  0  0
  145.9521  133.4005  154.9544 H   0  0  0  0  0  0  0  0  0  0  0  0
  145.9570  135.4744  152.6954 H   0  0  0  0  0  0  0  0  0  0  0  0
  148.1561  134.6396  154.4508 H   0  0  0  0  0  0  0  0  0  0  0  0
  146.7471  137.2209  154.2248 H   0  0  0  0  0  0  0  0  0  0  0  0
  146.7890  136.1933  155.6416 H   0  0  0  0  0  0  0  0  0  0  0  0
  148.5595  137.4402  156.3101 H   0  0  0  0  0  0  0  0  0  0  0  0
  149.5041  136.5221  155.1639 H   0  0  0  0  0  0  0  0  0  0  0  0
  149.4150  139.2261  152.6432 H   0  0  0  0  0  0  0  0  0  0  0  0
  149.1128  137.5048  152.7370 H   0  0  0  0  0  0  0  0  0  0  0  0
  147.6728  134.0089  151.6359 H   0  0  0  0  0  0  0  0  0  0  0  0
  148.5101  132.6786  153.5304 H   0  0  0  0  0  0  0  0  0  0  0  0
  147.8324  131.6016  152.3273 H   0  0  0  0  0  0  0  0  0  0  0  0
  146.9182  131.9677  153.7862 H   0  0  0  0  0  0  0  0  0  0  0  0
  146.7947  131.7382  150.1336 H   0  0  0  0  0  0  0  0  0  0  0  0
  144.2682  131.4383  149.1537 H   0  0  0  0  0  0  0  0  0  0  0  0
  142.7701  133.1276  150.7604 H   0  0  0  0  0  0  0  0  0  0  0  0
  148.2512  135.6657  153.1756 H   0  0  0  0  0  0  0  0  0  0  0  0
  1  2  1  0  0  0  0
  1 16  1  0  0  0  0
  1 17  1  0  0  0  0
  1 18  1  0  0  0  0
  2  3  1  0  0  0  0
  2  9  1  0  0  0  0
  2 19  1  0  0  0  0
  3  4  1  0  0  0  0
  3 20  1  0  0  0  0
  3 34  1  0  0  0  0
  4  5  1  0  0  0  0
  4 21  1  0  0  0  0
  4 22  1  0  0  0  0
  5  6  1  0  0  0  0
  5 23  1  0  0  0  0
  5 24  1  0  0  0  0
  6  7  1  0  0  0  0
  6  8  2  0  0  0  0
  7 25  1  0  0  0  0
  7 26  1  0  0  0  0
  9 10  1  0  0  0  0
  9 11  1  0  0  0  0
  9 27  1  0  0  0  0
 10 28  1  0  0  0  0
 10 29  1  0  0  0  0
 10 30  1  0  0  0  0
 11 15  1  0  0  0  0
 11 12  1  0  0  0  0
 12 13  2  0  0  0  0
 12 31  1  0  0  0  0
 13 14  1  0  0  0  0
 13 32  1  0  0  0  0
 14 15  2  0  0  0  0
 14 33  1  0  0  0  0
M  CHG  1   3   1
M  END
> <s_m_source_file>
AV-unprocessed.smi

> <i_m_source_file_index>
3105

> <i_lp_mmshare_version>
43012

> <i_f3d_flags>
0

> <s_epik_input>
W05IMl1DKD1PKVtDSDJdW0NIMl1bTkhdW0NAQEhdKFtDSDNdKVtDQEhdKFtDSDNdKW4xW2NIXVtjSF1bY0hdbjE=

> <s_epik_cmdline>
J2VwaWtfcHl0aG9uJywgJy1waCcsICc3LjAnLCAnLXRuJywgJzgnLCAnLW1hJywgJzIwMCcsICctbWV0YWxfYmluZGluZycsICctaW1hZScsICc8aW5maWxlLm1hZT4nLCAnLW9tYWUnLCAnPG91dGZpbGUubWFlPic=

> <r_lp_tautomer_probability>
1

> <r_epik_Ionization_Penalty>
0.00475669

> <r_epik_Ionization_Penalty_Charging>
0.00474654

> <r_epik_Ionization_Penalty_Neutral>
1.01546e-05

> <r_epik_State_Penalty>
-0

> <r_epik_Charging_Adjusted_Penalty>
0.00474654

> <i_epik_Tot_Q>
1

> <i_epik_Tot_abs_Q>
1

> <r_epik_Metal_State_Penalty>
-0

> <b_epik_Metal_Only>
0

> <s_lp_Force_Field>
OPLS_2005

> <r_lp_Energy>
4.89455

> <b_lp_Chiralities_Consistent>
1

> <s_lp_Variant>
AV-unprocessed.smi:3105-4

> <Gold.Version>
5.8.1

> <Gold.Id.Protein>
6NUR|6NUR_protein|mol2

> <Gold.PLP.Fitness>
41.0286

> <Gold.PLP.PLP>
-23.7558

> <Gold.PLP.part.hbond>
-3.0000

> <Gold.PLP.part.metal>
0.0000

> <Gold.PLP.part.buried>
-4.0934

> <Gold.PLP.part.nonpolar>
-17.3555

> <Gold.PLP.part.repulsive>
0.2604

> <Gold.PLP.ligand.clash>
0.0000

> <Gold.PLP.ligand.torsion>
0.4212

> <Gold.PLP.Chemscore.Hbond>
3.9920

> <Gold.PLP.Chemscore.CHOScore>
2.0000

> <Gold.PLP.Chemscore.Metal>
0.0000

> <Gold.Chemscore.Hbonds>
donor molecule, donor type, donor heavy atom, donor atom, acceptor molecule, acceptor atom, score
      L1  H     3    34       P1  7948  2.00
      L1  H     7    25       P1  7957  1.00
      L1  H     7    26       P1  7948  0.98
      L1  C    12    31       P1 10747  1.00
      L1  C    14    33       P1 10186  1.00

> <Gold.PLP.Chemscore.Internal.Correction>
0.1392

> <Gold.Rescore>
     Score         DG    S(hbond)    S(metal)    S(lipo)     H(rot)  DE(clash)    DE(int)     intcor
     13.08     -13.73       2.95        0.00      48.72       2.85       0.00       0.65       ----

> <Gold.Chemscore.Fitness>
13.0833

> <Gold.Chemscore.DG>
-13.7320

> <Gold.Chemscore.ZeroCoef>
-5.4800

> <Gold.Chemscore.Hbond>
2.9463

> <Gold.Chemscore.Metal>
0.0000

> <Gold.Chemscore.Lipo>
48.7237

> <Gold.Chemscore.Internal_Hbond>
0.0000

> <Gold.Chemscore.DEClash>
0.0000

> <Gold.Chemscore.DEInternal>
0.6486

> <Gold.Chemscore.Rot>
2.8473

> <Gold.Chemscore.Internal.Correction>
   9.000000E+99

> <Gold.Chemscore.Hbonds>
donor molecule, donor type, donor heavy atom, donor atom, acceptor molecule, acceptor atom, score
      L1  H     3    34       P1  7948  0.98
      L1  H     7    25       P1  7957  0.95
      L1  H     7    26       P1  7948  0.92

> <Gold.Chemscore.Hbond.Weighted>
-9.8405

> <Gold.Chemscore.Metal.Weighted>
-0.0000

> <Gold.Chemscore.Lipo.Weighted>
-5.7007

> <Gold.Chemscore.Internal_Hbond.Weighted>
0.0000

> <Gold.Chemscore.DEClash.Weighted>
0.0000

> <Gold.Chemscore.DEInternal.Weighted>
0.6486

> <Gold.Chemscore.Rot.Weighted>
7.2892

> <Gold.Chemscore.Internal.Correction.Weighted>
   9.000000E+99

> <Gold.Protein.RotatedTorsions>
[ 6907 6896 6895 6894 ] final -128.10 input  -60.11 | X-H torsion
[ 7974 7965 7964 7962 ] final  126.92 input  175.53 | X-H torsion
[ 8008 7997 7996 7995 ] final -123.86 input   59.86 | X-H torsion
[ 10167 10162 10161 10158 ] final  128.97 input  -65.29 | X-H torsion
[ 10718 10713 10712 10709 ] final  161.14 input   66.30 | X-H torsion
[ 10763 10752 10751 10750 ] final  -86.95 input  -60.55 | X-H torsion
[ 11005 11000 10999 10996 ] final  -51.11 input  -57.11 | X-H torsion

> <Gold.Protein.ActiveResidues>
 VAL166  LYS551  ARG553  GLY616  TRP617  ASP618  TYR619  PRO620  LYS621  CYS622 
 ASP623  PHE694  ASN695  SER759  ASP760  ASP761  ALA762  ILE779  LEU786  VAL792 
 PHE793  MET794  SER795  GLU796  ALA797  LYS798  CYS799  TRP800  GLU811  SER814 

> <Gold.Protein.RotatedAtoms>
  150.9143  133.6958  159.2846 H   0  0  0  0  0  0  0  0  0  0  0  0  # atno 6907 bound_to 6896
  151.4434  135.1021  159.9686 H   0  0  0  0  0  0  0  0  0  0  0  0  # atno 6908 bound_to 6896
  152.4946  133.8546  159.7274 H   0  0  0  0  0  0  0  0  0  0  0  0  # atno 6909 bound_to 6896
  145.0563  139.3841  143.5028 H   0  0  0  0  0  0  0  0  0  0  0  0  # atno 7974 bound_to 7965
  155.1874  140.0412  157.2894 H   0  0  0  0  0  0  0  0  0  0  0  0  # atno 8008 bound_to 7997
  154.6162  140.2489  155.7579 H   0  0  0  0  0  0  0  0  0  0  0  0  # atno 8009 bound_to 7997
  156.2407  140.2904  156.0448 H   0  0  0  0  0  0  0  0  0  0  0  0  # atno 8010 bound_to 7997
  139.5501  144.6806  151.4351 H   0  0  0  0  0  0  0  0  0  0  0  0  # atno 10167 bound_to 10162
  157.1407  131.0540  151.2328 H   0  0  0  0  0  0  0  0  0  0  0  0  # atno 10718 bound_to 10713
  154.6282  135.5431  153.7651 H   0  0  0  0  0  0  0  0  0  0  0  0  # atno 10763 bound_to 10752
  153.0271  135.6429  154.1340 H   0  0  0  0  0  0  0  0  0  0  0  0  # atno 10764 bound_to 10752
  154.1271  135.2916  155.3174 H   0  0  0  0  0  0  0  0  0  0  0  0  # atno 10765 bound_to 10752
  141.0853  133.6644  156.3830 H   0  0  0  0  0  0  0  0  0  0  0  0  # atno 11005 bound_to 11000
  146.3521  140.0239  142.8656 LP  0  0  0  0  0  0  0  0  0  0  0  0  # atno 17320 bound_to 7965
  145.1464  140.9599  143.4458 LP  0  0  0  0  0  0  0  0  0  0  0  0  # atno 17321 bound_to 7965
  140.6761  143.8187  150.7060 LP  0  0  0  0  0  0  0  0  0  0  0  0  # atno 17342 bound_to 10162
  140.1626  143.4262  152.2056 LP  0  0  0  0  0  0  0  0  0  0  0  0  # atno 17343 bound_to 10162
  157.4310  130.7490  149.6990 LP  0  0  0  0  0  0  0  0  0  0  0  0  # atno 17370 bound_to 10713
  155.9789  130.4046  150.3619 LP  0  0  0  0  0  0  0  0  0  0  0  0  # atno 17371 bound_to 10713
  140.5376  134.6151  157.5370 LP  0  0  0  0  0  0  0  0  0  0  0  0  # atno 17394 bound_to 11000
  139.9671  134.7355  156.0117 LP  0  0  0  0  0  0  0  0  0  0  0  0  # atno 17395 bound_to 11000

$$$$
