AV-unprocessed.smi:2702|AV-procd|sdf|10431|dock6
  -GOLD-   2272014473D 1   1.00000     0.00000
 Structure written by MMmdl.
 47 48  0  0  0  0  0  0  0  0  1 V2000
  153.2517  142.5163  159.3829 C   0  0  0  0  0  0  0  0  0  0  0  0
  153.3851  141.1194  159.1882 O   0  0  0  0  0  0  0  0  0  0  0  0
  152.1397  140.4439  159.2283 C   0  0  0  0  0  0  0  0  0  0  0  0
  151.4005  140.6207  157.9178 C   0  0  0  0  0  0  0  0  0  0  0  0
  151.7627  139.9545  156.7967 C   0  0  0  0  0  0  0  0  0  0  0  0
  151.0397  140.1578  155.5412 C   0  0  0  0  0  0  0  0  0  0  0  0
  151.3298  139.5612  154.5039 O   0  0  0  0  0  0  0  0  0  0  0  0
  150.0186  141.0625  155.6063 N   0  0  0  0  0  0  0  0  0  0  0  0
  149.2016  141.3838  154.4215 C   0  0  0  0  0  0  0  0  0  0  0  0
  147.8952  140.5812  154.3355 C   0  0  0  0  0  0  0  0  0  0  0  0
  147.1096  140.5404  155.2837 O   0  0  0  0  0  0  0  0  0  0  0  0
  147.6745  139.9538  153.1708 N   0  0  0  0  0  0  0  0  0  0  0  0
  146.5034  139.1388  152.8562 C   0  0  1  0  0  0  0  0  0  0  0  0
  146.7271  138.3992  151.5233 C   0  0  0  0  0  0  0  0  0  0  0  0
  145.5006  137.5576  151.1411 C   0  0  0  0  0  0  0  0  0  0  0  0
  145.1092  136.5867  152.2662 C   0  0  0  0  0  0  0  0  0  0  0  0
  144.8920  137.3277  153.6012 C   0  0  1  0  0  0  0  0  0  0  0  0
  144.3986  136.3792  154.7064 C   0  0  0  0  0  0  0  0  0  0  0  0
  146.1408  138.1567  154.0044 C   0  0  1  0  0  0  0  0  0  0  0  0
  147.3364  137.2899  154.4646 C   0  0  0  0  0  0  0  0  0  0  0  0
  149.6852  141.7314  156.8011 C   0  0  0  0  0  0  0  0  0  0  0  0
  150.3390  141.5308  157.9010 N   0  0  0  0  0  0  0  0  0  0  0  0
  154.2345  142.9861  159.3445 H   0  0  0  0  0  0  0  0  0  0  0  0
  152.8097  142.7388  160.3550 H   0  0  0  0  0  0  0  0  0  0  0  0
  152.6329  142.9656  158.6050 H   0  0  0  0  0  0  0  0  0  0  0  0
  152.2963  139.3792  159.4110 H   0  0  0  0  0  0  0  0  0  0  0  0
  151.5289  140.8254  160.0484 H   0  0  0  0  0  0  0  0  0  0  0  0
  152.5914  139.2621  156.8228 H   0  0  0  0  0  0  0  0  0  0  0  0
  148.9516  142.4459  154.3908 H   0  0  0  0  0  0  0  0  0  0  0  0
  149.7808  141.2071  153.5131 H   0  0  0  0  0  0  0  0  0  0  0  0
  148.3731  140.0417  152.4473 H   0  0  0  0  0  0  0  0  0  0  0  0
  145.6581  139.8143  152.7082 H   0  0  0  0  0  0  0  0  0  0  0  0
  146.9332  139.1180  150.7293 H   0  0  0  0  0  0  0  0  0  0  0  0
  147.6062  137.7571  151.5896 H   0  0  0  0  0  0  0  0  0  0  0  0
  144.6605  138.2189  150.9246 H   0  0  0  0  0  0  0  0  0  0  0  0
  145.7006  137.0034  150.2238 H   0  0  0  0  0  0  0  0  0  0  0  0
  144.1986  136.0577  151.9832 H   0  0  0  0  0  0  0  0  0  0  0  0
  145.8801  135.8238  152.3792 H   0  0  0  0  0  0  0  0  0  0  0  0
  144.0831  138.0417  153.4370 H   0  0  0  0  0  0  0  0  0  0  0  0
  145.0973  135.5612  154.8819 H   0  0  0  0  0  0  0  0  0  0  0  0
  143.4412  135.9338  154.4350 H   0  0  0  0  0  0  0  0  0  0  0  0
  144.2575  136.9106  155.6479 H   0  0  0  0  0  0  0  0  0  0  0  0
  145.8548  138.7612  154.8665 H   0  0  0  0  0  0  0  0  0  0  0  0
  147.6873  136.6229  153.6780 H   0  0  0  0  0  0  0  0  0  0  0  0
  147.0763  136.6757  155.3260 H   0  0  0  0  0  0  0  0  0  0  0  0
  148.1820  137.9043  154.7735 H   0  0  0  0  0  0  0  0  0  0  0  0
  148.8426  142.4214  156.7329 H   0  0  0  0  0  0  0  0  0  0  0  0
  1  2  1  0  0  0  0
  1 23  1  0  0  0  0
  1 24  1  0  0  0  0
  1 25  1  0  0  0  0
  2  3  1  0  0  0  0
  3  4  1  0  0  0  0
  3 26  1  0  0  0  0
  3 27  1  0  0  0  0
  4 22  1  0  0  0  0
  4  5  2  0  0  0  0
  5  6  1  0  0  0  0
  5 28  1  0  0  0  0
  6  7  2  0  0  0  0
  6  8  1  0  0  0  0
  8  9  1  0  0  0  0
  8 21  1  0  0  0  0
  9 10  1  0  0  0  0
  9 29  1  0  0  0  0
  9 30  1  0  0  0  0
 10 11  2  0  0  0  0
 10 12  1  0  0  0  0
 12 13  1  0  0  0  0
 12 31  1  0  0  0  0
 13 19  1  0  0  0  0
 13 14  1  0  0  0  0
 13 32  1  0  0  0  0
 14 15  1  0  0  0  0
 14 33  1  0  0  0  0
 14 34  1  0  0  0  0
 15 16  1  0  0  0  0
 15 35  1  0  0  0  0
 15 36  1  0  0  0  0
 16 17  1  0  0  0  0
 16 37  1  0  0  0  0
 16 38  1  0  0  0  0
 17 18  1  0  0  0  0
 17 19  1  0  0  0  0
 17 39  1  0  0  0  0
 18 40  1  0  0  0  0
 18 41  1  0  0  0  0
 18 42  1  0  0  0  0
 19 20  1  0  0  0  0
 19 43  1  0  0  0  0
 20 44  1  0  0  0  0
 20 45  1  0  0  0  0
 20 46  1  0  0  0  0
 21 22  2  0  0  0  0
 21 47  1  0  0  0  0
M  END
> <s_m_source_file>
AV-unprocessed.smi

> <i_m_source_file_index>
2702

> <i_lp_mmshare_version>
43012

> <i_f3d_flags>
0

> <s_epik_input>
W0NIM11PW0NIMl1jMVtjSF1jKD1PKW4oW2NIXW4xKVtDSDJdQyg9TylbTkhdW0NAQEhdMltDSDJdW0NIMl1bQ0gyXVtDQEBIXShbQ0gzXSlbQ0BIXTJbQ0gzXQ==

> <s_epik_cmdline>
J2VwaWtfcHl0aG9uJywgJy1waCcsICc3LjAnLCAnLXRuJywgJzgnLCAnLW1hJywgJzIwMCcsICctbWV0YWxfYmluZGluZycsICctaW1hZScsICc8aW5maWxlLm1hZT4nLCAnLW9tYWUnLCAnPG91dGZpbGUubWFlPic=

> <r_lp_tautomer_probability>
1

> <r_epik_Ionization_Penalty>
1.22164e-06

> <r_epik_Ionization_Penalty_Charging>
3.17988e-07

> <r_epik_Ionization_Penalty_Neutral>
9.03656e-07

> <r_epik_State_Penalty>
-0

> <r_epik_Charging_Adjusted_Penalty>
3.17988e-07

> <i_epik_Tot_Q>
0

> <i_epik_Tot_abs_Q>
0

> <r_epik_Metal_State_Penalty>
-0

> <b_epik_Metal_Only>
0

> <s_lp_Force_Field>
OPLS_2005

> <r_lp_Energy>
18.9829

> <b_lp_Chiralities_Consistent>
1

> <s_lp_Variant>
AV-unprocessed.smi:2702-2

> <Gold.Version>
5.8.1

> <Gold.Id.Protein>
6NUR|6NUR_protein|mol2

> <Gold.PLP.Fitness>
38.8525

> <Gold.PLP.PLP>
-31.6104

> <Gold.PLP.part.hbond>
-2.0000

> <Gold.PLP.part.metal>
0.0000

> <Gold.PLP.part.buried>
5.9208

> <Gold.PLP.part.nonpolar>
-35.2391

> <Gold.PLP.part.repulsive>
0.2732

> <Gold.PLP.ligand.clash>
0.0000

> <Gold.PLP.ligand.torsion>
0.8145

> <Gold.PLP.Chemscore.Hbond>
2.0000

> <Gold.PLP.Chemscore.CHOScore>
0.9347

> <Gold.PLP.Chemscore.Metal>
0.0000

> <Gold.Chemscore.Hbonds>
donor molecule, donor type, donor heavy atom, donor atom, acceptor molecule, acceptor atom, score
      L1  H    12    31       P1  7957  1.00
      P1  H  7989  7998       L1     7  1.00
      L1  C    21    47       P1  8028  0.92

> <Gold.PLP.Chemscore.Internal.Correction>
0.0671

> <Gold.Rescore>
     Score         DG    S(hbond)    S(metal)    S(lipo)     H(rot)  DE(clash)    DE(int)     intcor
     12.18     -15.92       1.96        0.00      75.35       1.93       1.67       2.07       ----

> <Gold.Chemscore.Fitness>
12.1833

> <Gold.Chemscore.DG>
-15.9182

> <Gold.Chemscore.ZeroCoef>
-5.4800

> <Gold.Chemscore.Hbond>
1.9638

> <Gold.Chemscore.Metal>
0.0000

> <Gold.Chemscore.Lipo>
75.3503

> <Gold.Chemscore.Internal_Hbond>
0.0000

> <Gold.Chemscore.DEClash>
1.6675

> <Gold.Chemscore.DEInternal>
2.0674

> <Gold.Chemscore.Rot>
1.9284

> <Gold.Chemscore.Internal.Correction>
   9.000000E+99

> <Gold.Chemscore.Hbonds>
donor molecule, donor type, donor heavy atom, donor atom, acceptor molecule, acceptor atom, score
      L1  H    12    31       P1  7957  1.00
      P1  H  7989  7998       L1     7  0.30

> <Gold.Chemscore.Hbond.Weighted>
-6.5590

> <Gold.Chemscore.Metal.Weighted>
-0.0000

> <Gold.Chemscore.Lipo.Weighted>
-8.8160

> <Gold.Chemscore.Internal_Hbond.Weighted>
0.0000

> <Gold.Chemscore.DEClash.Weighted>
1.6675

> <Gold.Chemscore.DEInternal.Weighted>
2.0674

> <Gold.Chemscore.Rot.Weighted>
4.9368

> <Gold.Chemscore.Internal.Correction.Weighted>
   9.000000E+99

> <Gold.Protein.RotatedTorsions>
[ 6907 6896 6895 6894 ] final -153.09 input  -60.11 | X-H torsion
[ 7974 7965 7964 7962 ] final  141.43 input  175.53 | X-H torsion
[ 8008 7997 7996 7995 ] final   47.54 input   59.86 | X-H torsion
[ 10167 10162 10161 10158 ] final  -11.63 input  -65.29 | X-H torsion
[ 10718 10713 10712 10709 ] final   15.46 input   66.30 | X-H torsion
[ 10763 10752 10751 10750 ] final  174.05 input  -60.55 | X-H torsion
[ 11005 11000 10999 10996 ] final -146.26 input  -57.11 | X-H torsion

> <Gold.Protein.ActiveResidues>
 VAL166  LYS551  ARG553  GLY616  TRP617  ASP618  TYR619  PRO620  LYS621  CYS622 
 ASP623  PHE694  ASN695  SER759  ASP760  ASP761  ALA762  ILE779  LEU786  VAL792 
 PHE793  MET794  SER795  GLU796  ALA797  LYS798  CYS799  TRP800  GLU811  SER814 

> <Gold.Protein.RotatedAtoms>
  151.2374  133.4418  159.2605 H   0  0  0  0  0  0  0  0  0  0  0  0  # atno 6907 bound_to 6896
  151.0737  134.9815  159.8332 H   0  0  0  0  0  0  0  0  0  0  0  0  # atno 6908 bound_to 6896
  152.5415  134.2318  159.8880 H   0  0  0  0  0  0  0  0  0  0  0  0  # atno 6909 bound_to 6896
  144.9097  139.5309  143.5714 H   0  0  0  0  0  0  0  0  0  0  0  0  # atno 7974 bound_to 7965
  155.3708  140.3423  155.4243 H   0  0  0  0  0  0  0  0  0  0  0  0  # atno 8008 bound_to 7997
  156.1663  140.1617  156.8559 H   0  0  0  0  0  0  0  0  0  0  0  0  # atno 8009 bound_to 7997
  154.5189  140.0772  156.8116 H   0  0  0  0  0  0  0  0  0  0  0  0  # atno 8010 bound_to 7997
  140.7143  143.5619  150.9186 H   0  0  0  0  0  0  0  0  0  0  0  0  # atno 10167 bound_to 10162
  157.0538  130.6281  149.5773 H   0  0  0  0  0  0  0  0  0  0  0  0  # atno 10718 bound_to 10713
  154.4485  135.2764  155.1798 H   0  0  0  0  0  0  0  0  0  0  0  0  # atno 10763 bound_to 10752
  154.3635  135.6124  153.5706 H   0  0  0  0  0  0  0  0  0  0  0  0  # atno 10764 bound_to 10752
  152.9845  135.5840  154.4825 H   0  0  0  0  0  0  0  0  0  0  0  0  # atno 10765 bound_to 10752
  140.7838  134.3048  157.5037 H   0  0  0  0  0  0  0  0  0  0  0  0  # atno 11005 bound_to 11000
  146.3152  139.7894  142.8989 LP  0  0  0  0  0  0  0  0  0  0  0  0  # atno 17320 bound_to 7965
  145.3475  141.0300  143.3357 LP  0  0  0  0  0  0  0  0  0  0  0  0  # atno 17321 bound_to 7965
  139.9345  143.6454  152.3068 LP  0  0  0  0  0  0  0  0  0  0  0  0  # atno 17342 bound_to 10162
  139.6917  144.7646  151.1427 LP  0  0  0  0  0  0  0  0  0  0  0  0  # atno 17343 bound_to 10162
  155.9999  130.5076  150.7624 LP  0  0  0  0  0  0  0  0  0  0  0  0  # atno 17370 bound_to 10713
  157.5009  131.0918  151.0315 LP  0  0  0  0  0  0  0  0  0  0  0  0  # atno 17371 bound_to 10713
  139.8739  134.9334  156.3579 LP  0  0  0  0  0  0  0  0  0  0  0  0  # atno 17394 bound_to 11000
  140.9457  133.7485  156.0205 LP  0  0  0  0  0  0  0  0  0  0  0  0  # atno 17395 bound_to 11000

$$$$
