AV-unprocessed.smi:1991|AV-procd|sdf|8067|dock6
  -GOLD-   2272010273D 1   1.00000     0.00000
 Structure written by MMmdl.
 44 45  0  0  0  0  0  0  0  0  1 V2000
  144.2119  136.8654  152.2856 C   0  0  0  0  0  0  0  0  0  0  0  0
  145.5683  136.1661  152.4621 C   0  0  2  0  0  0  0  0  0  0  0  0
  145.3631  134.7710  152.2543 O   0  0  0  0  0  0  0  0  0  0  0  0
  145.0994  134.3808  150.9102 C   0  0  0  0  0  0  0  0  0  0  0  0
  144.4256  133.0036  150.9051 C   0  0  0  0  0  0  0  0  0  0  0  0
  143.3085  133.0594  151.6295 F   0  0  0  0  0  0  0  0  0  0  0  0
  144.1114  132.6487  149.6596 F   0  0  0  0  0  0  0  0  0  0  0  0
  145.2367  132.0914  151.4401 F   0  0  0  0  0  0  0  0  0  0  0  0
  146.1572  136.4223  153.8590 C   0  0  0  0  0  0  0  0  0  0  0  0
  145.4140  136.6078  154.8228 O   0  0  0  0  0  0  0  0  0  0  0  0
  147.4966  136.4207  153.9483 N   0  0  0  0  0  0  0  0  0  0  0  0
  148.2721  136.6469  155.1638 C   0  0  0  0  0  0  0  0  0  0  0  0
  149.2289  135.4982  155.4722 C   0  0  0  0  0  0  0  0  0  0  0  0
  148.7747  134.1666  155.3490 C   0  0  0  0  0  0  0  0  0  0  0  0
  149.6549  133.1070  155.6327 C   0  0  0  0  0  0  0  0  0  0  0  0
  150.9677  133.4195  156.0280 C   0  0  0  0  0  0  0  0  0  0  0  0
  151.4209  134.6844  156.1463 N   0  0  0  0  0  0  0  0  0  0  0  0
  150.5750  135.7080  155.8743 C   0  0  0  0  0  0  0  0  0  0  0  0
  151.0846  137.0084  156.0153 N   0  0  0  0  0  0  0  0  0  0  0  0
  151.1917  137.7431  154.7612 C   0  0  0  0  0  0  0  0  0  0  0  0
  151.6141  139.1957  155.0405 C   0  0  0  0  0  0  0  0  0  0  0  0
  152.8297  139.2054  155.7841 O   0  0  0  0  0  0  0  0  0  0  0  0
  152.6948  138.5481  157.0413 C   0  0  0  0  0  0  0  0  0  0  0  0
  152.3003  137.0785  156.8157 C   0  0  0  0  0  0  0  0  0  0  0  0
  144.2933  137.9389  152.4608 H   0  0  0  0  0  0  0  0  0  0  0  0
  143.4629  136.4685  152.9722 H   0  0  0  0  0  0  0  0  0  0  0  0
  143.8344  136.7250  151.2726 H   0  0  0  0  0  0  0  0  0  0  0  0
  146.2493  136.5506  151.7004 H   0  0  0  0  0  0  0  0  0  0  0  0
  144.4457  135.1111  150.4313 H   0  0  0  0  0  0  0  0  0  0  0  0
  146.0211  134.3377  150.3288 H   0  0  0  0  0  0  0  0  0  0  0  0
  148.0228  136.2555  153.1028 H   0  0  0  0  0  0  0  0  0  0  0  0
  148.8532  137.5675  155.0944 H   0  0  0  0  0  0  0  0  0  0  0  0
  147.5614  136.8141  155.9717 H   0  0  0  0  0  0  0  0  0  0  0  0
  147.7620  133.9553  155.0391 H   0  0  0  0  0  0  0  0  0  0  0  0
  149.3313  132.0802  155.5480 H   0  0  0  0  0  0  0  0  0  0  0  0
  151.6731  132.6336  156.2540 H   0  0  0  0  0  0  0  0  0  0  0  0
  151.9252  137.2628  154.1120 H   0  0  0  0  0  0  0  0  0  0  0  0
  150.2343  137.7245  154.2390 H   0  0  0  0  0  0  0  0  0  0  0  0
  151.7658  139.7307  154.1030 H   0  0  0  0  0  0  0  0  0  0  0  0
  150.8358  139.7283  155.5896 H   0  0  0  0  0  0  0  0  0  0  0  0
  153.6425  138.6059  157.5769 H   0  0  0  0  0  0  0  0  0  0  0  0
  151.9507  139.0607  157.6531 H   0  0  0  0  0  0  0  0  0  0  0  0
  152.1422  136.5811  157.7734 H   0  0  0  0  0  0  0  0  0  0  0  0
  153.1083  136.5514  156.3063 H   0  0  0  0  0  0  0  0  0  0  0  0
  1  2  1  0  0  0  0
  1 25  1  0  0  0  0
  1 26  1  0  0  0  0
  1 27  1  0  0  0  0
  2  3  1  0  0  0  0
  2  9  1  0  0  0  0
  2 28  1  0  0  0  0
  3  4  1  0  0  0  0
  4  5  1  0  0  0  0
  4 29  1  0  0  0  0
  4 30  1  0  0  0  0
  5  6  1  0  0  0  0
  5  7  1  0  0  0  0
  5  8  1  0  0  0  0
  9 10  2  0  0  0  0
  9 11  1  0  0  0  0
 11 12  1  0  0  0  0
 11 31  1  0  0  0  0
 12 13  1  0  0  0  0
 12 32  1  0  0  0  0
 12 33  1  0  0  0  0
 13 18  1  0  0  0  0
 13 14  2  0  0  0  0
 14 15  1  0  0  0  0
 14 34  1  0  0  0  0
 15 16  2  0  0  0  0
 15 35  1  0  0  0  0
 16 17  1  0  0  0  0
 16 36  1  0  0  0  0
 17 18  2  0  0  0  0
 18 19  1  0  0  0  0
 19 24  1  0  0  0  0
 19 20  1  0  0  0  0
 20 21  1  0  0  0  0
 20 37  1  0  0  0  0
 20 38  1  0  0  0  0
 21 22  1  0  0  0  0
 21 39  1  0  0  0  0
 21 40  1  0  0  0  0
 22 23  1  0  0  0  0
 23 24  1  0  0  0  0
 23 41  1  0  0  0  0
 23 42  1  0  0  0  0
 24 43  1  0  0  0  0
 24 44  1  0  0  0  0
M  END
> <s_m_source_file>
AV-unprocessed.smi

> <i_m_source_file_index>
1991

> <i_lp_mmshare_version>
43012

> <i_f3d_flags>
0

> <s_epik_input>
RkMoRikoRilbQ0gyXU9bQ0BASF0oW0NIM10pQyg9TylbTkhdW0NIMl1jMVtjSF1bY0hdW2NIXW5jMU4yW0NIMl1bQ0gyXU9bQ0gyXVtDSDJdMg==

> <s_epik_cmdline>
J2VwaWtfcHl0aG9uJywgJy1waCcsICc3LjAnLCAnLXRuJywgJzgnLCAnLW1hJywgJzIwMCcsICctbWV0YWxfYmluZGluZycsICctaW1hZScsICc8aW5maWxlLm1hZT4nLCAnLW9tYWUnLCAnPG91dGZpbGUubWFlPic=

> <r_lp_tautomer_probability>
1

> <r_epik_Ionization_Penalty>
0.00436412

> <r_epik_Ionization_Penalty_Charging>
0

> <r_epik_Ionization_Penalty_Neutral>
0.00436412

> <r_epik_State_Penalty>
0.00314317

> <r_epik_Charging_Adjusted_Penalty>
0.00314317

> <i_epik_Tot_Q>
0

> <i_epik_Tot_abs_Q>
0

> <r_epik_Metal_State_Penalty>
-0

> <b_epik_Metal_Only>
0

> <s_lp_Force_Field>
OPLS_2005

> <r_lp_Energy>
21.8151

> <b_lp_Chiralities_Consistent>
1

> <s_lp_Variant>
AV-unprocessed.smi:1991-1

> <Gold.Version>
5.8.1

> <Gold.Id.Protein>
6NUR|6NUR_protein|mol2

> <Gold.PLP.Fitness>
40.2289

> <Gold.PLP.PLP>
-34.3907

> <Gold.PLP.part.hbond>
-3.0000

> <Gold.PLP.part.metal>
0.0000

> <Gold.PLP.part.buried>
-4.2398

> <Gold.PLP.part.nonpolar>
-26.8051

> <Gold.PLP.part.repulsive>
0.1517

> <Gold.PLP.ligand.clash>
0.0000

> <Gold.PLP.ligand.torsion>
1.4252

> <Gold.PLP.Chemscore.Hbond>
2.8247

> <Gold.PLP.Chemscore.CHOScore>
0.0000

> <Gold.PLP.Chemscore.Metal>
0.0000

> <Gold.Chemscore.Hbonds>
donor molecule, donor type, donor heavy atom, donor atom, acceptor molecule, acceptor atom, score
      L1  H    11    31       P1  7948  1.00
      P1  H  7997  8009       L1    22  0.85
      P1  H 10752 10764       L1    17  0.51

> <Gold.PLP.Chemscore.Internal.Correction>
0.2145

> <Gold.Rescore>
     Score         DG    S(hbond)    S(metal)    S(lipo)     H(rot)  DE(clash)    DE(int)     intcor
     10.97     -12.91       1.94        0.00      62.72       2.49       0.03       1.92       ----

> <Gold.Chemscore.Fitness>
10.9671

> <Gold.Chemscore.DG>
-12.9095

> <Gold.Chemscore.ZeroCoef>
-5.4800

> <Gold.Chemscore.Hbond>
1.9359

> <Gold.Chemscore.Metal>
0.0000

> <Gold.Chemscore.Lipo>
62.7167

> <Gold.Chemscore.Internal_Hbond>
0.0000

> <Gold.Chemscore.DEClash>
0.0256

> <Gold.Chemscore.DEInternal>
1.9169

> <Gold.Chemscore.Rot>
2.4899

> <Gold.Chemscore.Internal.Correction>
   9.000000E+99

> <Gold.Chemscore.Hbonds>
donor molecule, donor type, donor heavy atom, donor atom, acceptor molecule, acceptor atom, score
      L1  H    11    31       P1  7948  0.95
      P1  H  7997  8009       L1    22  0.15
      P1  H 10752 10764       L1    17  0.10

> <Gold.Chemscore.Hbond.Weighted>
-6.4658

> <Gold.Chemscore.Metal.Weighted>
-0.0000

> <Gold.Chemscore.Lipo.Weighted>
-7.3379

> <Gold.Chemscore.Internal_Hbond.Weighted>
0.0000

> <Gold.Chemscore.DEClash.Weighted>
0.0256

> <Gold.Chemscore.DEInternal.Weighted>
1.9169

> <Gold.Chemscore.Rot.Weighted>
6.3741

> <Gold.Chemscore.Internal.Correction.Weighted>
   9.000000E+99

> <Gold.Protein.RotatedTorsions>
[ 6907 6896 6895 6894 ] final   32.98 input  -60.11 | X-H torsion
[ 7974 7965 7964 7962 ] final   62.71 input  175.53 | X-H torsion
[ 8008 7997 7996 7995 ] final -153.44 input   59.86 | X-H torsion
[ 10167 10162 10161 10158 ] final -170.55 input  -65.29 | X-H torsion
[ 10718 10713 10712 10709 ] final  -76.11 input   66.30 | X-H torsion
[ 10763 10752 10751 10750 ] final  -29.42 input  -60.55 | X-H torsion
[ 11005 11000 10999 10996 ] final   89.63 input  -57.11 | X-H torsion

> <Gold.Protein.ActiveResidues>
 VAL166  LYS551  ARG553  GLY616  TRP617  ASP618  TYR619  PRO620  LYS621  CYS622 
 ASP623  PHE694  ASN695  SER759  ASP760  ASP761  ALA762  ILE779  LEU786  VAL792 
 PHE793  MET794  SER795  GLU796  ALA797  LYS798  CYS799  TRP800  GLU811  SER814 

> <Gold.Protein.RotatedAtoms>
  152.0820  134.9464  160.0573 H   0  0  0  0  0  0  0  0  0  0  0  0  # atno 6907 bound_to 6896
  152.0749  133.4120  159.4484 H   0  0  0  0  0  0  0  0  0  0  0  0  # atno 6908 bound_to 6896
  150.6836  134.2968  159.4733 H   0  0  0  0  0  0  0  0  0  0  0  0  # atno 6909 bound_to 6896
  145.8702  139.3373  143.0767 H   0  0  0  0  0  0  0  0  0  0  0  0  # atno 7974 bound_to 7965
  155.6709  140.0733  157.2520 H   0  0  0  0  0  0  0  0  0  0  0  0  # atno 8008 bound_to 7997
  154.4124  140.1699  156.1929 H   0  0  0  0  0  0  0  0  0  0  0  0  # atno 8009 bound_to 7997
  155.9618  140.3369  155.6500 H   0  0  0  0  0  0  0  0  0  0  0  0  # atno 8010 bound_to 7997
  139.5855  144.1328  152.1569 H   0  0  0  0  0  0  0  0  0  0  0  0  # atno 10167 bound_to 10162
  156.0185  130.4457  150.3144 H   0  0  0  0  0  0  0  0  0  0  0  0  # atno 10718 bound_to 10713
  153.7644  135.6917  153.4919 H   0  0  0  0  0  0  0  0  0  0  0  0  # atno 10763 bound_to 10752
  153.1917  135.4469  155.0156 H   0  0  0  0  0  0  0  0  0  0  0  0  # atno 10764 bound_to 10752
  154.8141  135.3391  154.7157 H   0  0  0  0  0  0  0  0  0  0  0  0  # atno 10765 bound_to 10752
  139.8871  134.8563  156.3169 H   0  0  0  0  0  0  0  0  0  0  0  0  # atno 11005 bound_to 11000
  145.9146  140.9157  143.0436 LP  0  0  0  0  0  0  0  0  0  0  0  0  # atno 17320 bound_to 7965
  144.6726  140.1206  143.7450 LP  0  0  0  0  0  0  0  0  0  0  0  0  # atno 17321 bound_to 7965
  140.0891  144.5636  150.7067 LP  0  0  0  0  0  0  0  0  0  0  0  0  # atno 17342 bound_to 10162
  140.7127  143.2518  151.4531 LP  0  0  0  0  0  0  0  0  0  0  0  0  # atno 17343 bound_to 10162
  157.1245  131.0255  151.2995 LP  0  0  0  0  0  0  0  0  0  0  0  0  # atno 17370 bound_to 10713
  157.4601  130.7648  149.7228 LP  0  0  0  0  0  0  0  0  0  0  0  0  # atno 17371 bound_to 10713
  140.9813  133.7266  156.0676 LP  0  0  0  0  0  0  0  0  0  0  0  0  # atno 17394 bound_to 11000
  140.7746  134.3794  157.5500 LP  0  0  0  0  0  0  0  0  0  0  0  0  # atno 17395 bound_to 11000

$$$$
