AV-unprocessed.smi:2597|AV-procd|sdf|10173|dock7
  -GOLD-   2272014183D 1   1.00000     0.00000
 Structure written by MMmdl.
 31 32  0  0  0  0  0  0  0  0  2 V2000
  150.2411  138.0821  153.2348 N   0  3  0  0  0  0  0  0  0  0  0  0
  150.7310  138.6128  154.5212 C   0  0  2  0  0  0  0  0  0  0  0  0
  150.1839  137.7883  155.7044 C   0  0  0  0  0  0  0  0  0  0  0  0
  150.6965  138.3325  157.0473 C   0  0  0  0  0  0  0  0  0  0  0  0
  150.3646  139.8229  157.2199 C   0  0  0  0  0  0  0  0  0  0  0  0
  150.9013  140.6598  156.0434 C   0  0  0  0  0  0  0  0  0  0  0  0
  150.4596  140.1361  154.6567 C   0  0  2  0  0  0  0  0  0  0  0  0
  149.0936  140.5329  154.3109 N   0  0  0  0  0  0  0  0  0  0  0  0
  148.5450  141.7979  154.3874 C   0  0  0  0  0  0  0  0  0  0  0  0
  147.2674  141.6274  153.9356 C   0  0  0  0  0  0  0  0  0  0  0  0
  146.1745  142.6389  153.7722 C   0  0  0  0  0  0  0  0  0  0  0  0
  145.0895  142.1927  154.5568 O   0  0  0  0  0  0  0  0  0  0  0  0
  147.0869  140.2848  153.6123 N   0  0  0  0  0  0  0  0  0  0  0  0
  148.1850  139.6397  153.8451 N   0  0  0  0  0  0  0  0  0  0  0  0
  151.8132  138.4761  154.5092 H   0  0  0  0  0  0  0  0  0  0  0  0
  151.0984  140.6332  153.9247 H   0  0  0  0  0  0  0  0  0  0  0  0
  150.9203  137.4363  152.8577 H   0  0  0  0  0  0  0  0  0  0  0  0
  150.1037  138.8429  152.5850 H   0  0  0  0  0  0  0  0  0  0  0  0
  149.0944  137.7798  155.7025 H   0  0  0  0  0  0  0  0  0  0  0  0
  150.4895  136.7466  155.6003 H   0  0  0  0  0  0  0  0  0  0  0  0
  150.2659  137.7595  157.8690 H   0  0  0  0  0  0  0  0  0  0  0  0
  151.7765  138.1925  157.1077 H   0  0  0  0  0  0  0  0  0  0  0  0
  149.2880  139.9529  157.3219 H   0  0  0  0  0  0  0  0  0  0  0  0
  150.7964  140.1874  158.1525 H   0  0  0  0  0  0  0  0  0  0  0  0
  150.6088  141.7037  156.1636 H   0  0  0  0  0  0  0  0  0  0  0  0
  151.9913  140.6497  156.0863 H   0  0  0  0  0  0  0  0  0  0  0  0
  149.0825  142.6688  154.7329 H   0  0  0  0  0  0  0  0  0  0  0  0
  146.4857  143.6289  154.1070 H   0  0  0  0  0  0  0  0  0  0  0  0
  145.8648  142.7211  152.7303 H   0  0  0  0  0  0  0  0  0  0  0  0
  144.5430  141.6364  154.0230 H   0  0  0  0  0  0  0  0  0  0  0  0
  149.3653  137.6002  153.3794 H   0  0  0  0  0  0  0  0  0  0  0  0
  1  2  1  0  0  0  0
  1 17  1  0  0  0  0
  1 18  1  0  0  0  0
  1 31  1  0  0  0  0
  2 15  1  0  0  0  0
  2  7  1  0  0  0  0
  2  3  1  0  0  0  0
  3  4  1  0  0  0  0
  3 19  1  0  0  0  0
  3 20  1  0  0  0  0
  4  5  1  0  0  0  0
  4 21  1  0  0  0  0
  4 22  1  0  0  0  0
  5  6  1  0  0  0  0
  5 23  1  0  0  0  0
  5 24  1  0  0  0  0
  6  7  1  0  0  0  0
  6 25  1  0  0  0  0
  6 26  1  0  0  0  0
  7 16  1  0  0  0  0
  7  8  1  0  0  0  0
  8 14  1  0  0  0  0
  8  9  1  0  0  0  0
  9 10  2  0  0  0  0
  9 27  1  0  0  0  0
 10 11  1  0  0  0  0
 10 13  1  0  0  0  0
 11 12  1  0  0  0  0
 11 28  1  0  0  0  0
 11 29  1  0  0  0  0
 12 30  1  0  0  0  0
 13 14  2  0  0  0  0
M  CHG  1   1   1
M  END
> <s_m_source_file>
AV-unprocessed.smi

> <i_m_source_file_index>
2597

> <i_lp_mmshare_version>
43012

> <i_f3d_flags>
0

> <s_epik_input>
W05IMl1bQ0BIXTFbQ0gyXVtDSDJdW0NIMl1bQ0gyXVtDQEhdMW4yW2NIXWMobm4yKVtDSDJdW09IXQ==

> <s_epik_cmdline>
J2VwaWtfcHl0aG9uJywgJy1waCcsICc3LjAnLCAnLXRuJywgJzgnLCAnLW1hJywgJzIwMCcsICctbWV0YWxfYmluZGluZycsICctaW1hZScsICc8aW5maWxlLm1hZT4nLCAnLW9tYWUnLCAnPG91dGZpbGUubWFlPic=

> <r_lp_tautomer_probability>
1

> <r_epik_Ionization_Penalty>
0.014346

> <r_epik_Ionization_Penalty_Charging>
0.014316

> <r_epik_Ionization_Penalty_Neutral>
3.00097e-05

> <r_epik_State_Penalty>
0.0111909

> <r_epik_Charging_Adjusted_Penalty>
0.0255069

> <i_epik_Tot_Q>
1

> <i_epik_Tot_abs_Q>
1

> <r_epik_Metal_State_Penalty>
0.011192

> <b_epik_Metal_Only>
0

> <s_lp_Force_Field>
OPLS_2005

> <r_lp_Energy>
16.1833

> <b_lp_Chiralities_Consistent>
1

> <s_lp_Variant>
AV-unprocessed.smi:2597-4

> <Gold.Version>
5.8.1

> <Gold.Id.Protein>
6NUR|6NUR_protein|mol2

> <Gold.PLP.Fitness>
38.4999

> <Gold.PLP.PLP>
-23.2148

> <Gold.PLP.part.hbond>
-4.0000

> <Gold.PLP.part.metal>
0.0000

> <Gold.PLP.part.buried>
3.2052

> <Gold.PLP.part.nonpolar>
-22.1557

> <Gold.PLP.part.repulsive>
0.8675

> <Gold.PLP.ligand.clash>
0.0000

> <Gold.PLP.ligand.torsion>
0.1307

> <Gold.PLP.Chemscore.Hbond>
4.1606

> <Gold.PLP.Chemscore.CHOScore>
1.0000

> <Gold.PLP.Chemscore.Metal>
0.0000

> <Gold.Chemscore.Hbonds>
donor molecule, donor type, donor heavy atom, donor atom, acceptor molecule, acceptor atom, score
      L1  H     1    17       P1  7949  1.53
      L1  H     1    18       P1  7957  1.00
      L1  H     1    31       P1  7948  0.42
      L1  H    12    30       P1 10175  0.75
      L1  C     9    27       P1  8028  1.00

> <Gold.PLP.Chemscore.Internal.Correction>
0.0649

> <Gold.Rescore>
     Score         DG    S(hbond)    S(metal)    S(lipo)     H(rot)  DE(clash)    DE(int)     intcor
      9.29     -13.08       1.72        0.00      56.60       1.86       1.93       1.86       ----

> <Gold.Chemscore.Fitness>
9.2879

> <Gold.Chemscore.DG>
-13.0817

> <Gold.Chemscore.ZeroCoef>
-5.4800

> <Gold.Chemscore.Hbond>
1.7152

> <Gold.Chemscore.Metal>
0.0000

> <Gold.Chemscore.Lipo>
56.5972

> <Gold.Chemscore.Internal_Hbond>
0.0000

> <Gold.Chemscore.DEClash>
1.9319

> <Gold.Chemscore.DEInternal>
1.8619

> <Gold.Chemscore.Rot>
1.8551

> <Gold.Chemscore.Internal.Correction>
   9.000000E+99

> <Gold.Chemscore.Hbonds>
donor molecule, donor type, donor heavy atom, donor atom, acceptor molecule, acceptor atom, score
      L1  H     1    17       P1  7949  0.15
      L1  H     1    18       P1  7957  0.40
      L1  H     1    31       P1  7948  0.19
      L1  H    12    30       P1 10175  0.12

> <Gold.Chemscore.Hbond.Weighted>
-5.7288

> <Gold.Chemscore.Metal.Weighted>
-0.0000

> <Gold.Chemscore.Lipo.Weighted>
-6.6219

> <Gold.Chemscore.Internal_Hbond.Weighted>
0.0000

> <Gold.Chemscore.DEClash.Weighted>
1.9319

> <Gold.Chemscore.DEInternal.Weighted>
1.8619

> <Gold.Chemscore.Rot.Weighted>
4.7489

> <Gold.Chemscore.Internal.Correction.Weighted>
   9.000000E+99

> <Gold.Protein.RotatedTorsions>
[ 6907 6896 6895 6894 ] final   51.79 input  -60.11 | X-H torsion
[ 7974 7965 7964 7962 ] final -130.89 input  175.53 | X-H torsion
[ 8008 7997 7996 7995 ] final  -25.14 input   59.86 | X-H torsion
[ 10167 10162 10161 10158 ] final  126.08 input  -65.29 | X-H torsion
[ 10718 10713 10712 10709 ] final   94.02 input   66.30 | X-H torsion
[ 10763 10752 10751 10750 ] final   23.84 input  -60.55 | X-H torsion
[ 11005 11000 10999 10996 ] final  165.64 input  -57.11 | X-H torsion

> <Gold.Protein.ActiveResidues>
 VAL166  LYS551  ARG553  GLY616  TRP617  ASP618  TYR619  PRO620  LYS621  CYS622 
 ASP623  PHE694  ASN695  SER759  ASP760  ASP761  ALA762  ILE779  LEU786  VAL792 
 PHE793  MET794  SER795  GLU796  ALA797  LYS798  CYS799  TRP800  GLU811  SER814 

> <Gold.Protein.RotatedAtoms>
  152.3164  134.7434  160.0324 H   0  0  0  0  0  0  0  0  0  0  0  0  # atno 6907 bound_to 6896
  151.7898  133.3353  159.3504 H   0  0  0  0  0  0  0  0  0  0  0  0  # atno 6908 bound_to 6896
  150.7347  134.5784  159.5970 H   0  0  0  0  0  0  0  0  0  0  0  0  # atno 6909 bound_to 6896
  144.9431  140.7261  143.4834 H   0  0  0  0  0  0  0  0  0  0  0  0  # atno 7974 bound_to 7965
  154.4492  140.1934  156.0573 H   0  0  0  0  0  0  0  0  0  0  0  0  # atno 8008 bound_to 7997
  156.0609  140.3297  155.7434 H   0  0  0  0  0  0  0  0  0  0  0  0  # atno 8009 bound_to 7997
  155.5412  140.0586  157.2860 H   0  0  0  0  0  0  0  0  0  0  0  0  # atno 8010 bound_to 7997
  139.5650  144.6906  151.3935 H   0  0  0  0  0  0  0  0  0  0  0  0  # atno 10167 bound_to 10162
  157.6951  131.0498  150.4123 H   0  0  0  0  0  0  0  0  0  0  0  0  # atno 10718 bound_to 10713
  153.0808  135.6618  154.0048 H   0  0  0  0  0  0  0  0  0  0  0  0  # atno 10763 bound_to 10752
  153.9671  135.2968  155.3431 H   0  0  0  0  0  0  0  0  0  0  0  0  # atno 10764 bound_to 10752
  154.7207  135.5166  153.8879 H   0  0  0  0  0  0  0  0  0  0  0  0  # atno 10765 bound_to 10752
  140.2582  134.7923  157.3566 H   0  0  0  0  0  0  0  0  0  0  0  0  # atno 11005 bound_to 11000
  145.2960  139.1867  143.4715 LP  0  0  0  0  0  0  0  0  0  0  0  0  # atno 17320 bound_to 7965
  146.3293  140.2944  142.8617 LP  0  0  0  0  0  0  0  0  0  0  0  0  # atno 17321 bound_to 7965
  140.6933  143.7809  150.7288 LP  0  0  0  0  0  0  0  0  0  0  0  0  # atno 17342 bound_to 10162
  140.1298  143.4536  152.2261 LP  0  0  0  0  0  0  0  0  0  0  0  0  # atno 17343 bound_to 10162
  156.4506  130.4011  149.6638 LP  0  0  0  0  0  0  0  0  0  0  0  0  # atno 17370 bound_to 10713
  156.3789  130.7569  151.2560 LP  0  0  0  0  0  0  0  0  0  0  0  0  # atno 17371 bound_to 10713
  140.1490  134.4874  155.7975 LP  0  0  0  0  0  0  0  0  0  0  0  0  # atno 17394 bound_to 11000
  141.2193  133.6855  156.7345 LP  0  0  0  0  0  0  0  0  0  0  0  0  # atno 17395 bound_to 11000

$$$$
