AV-unprocessed.smi:1006|AV-procd|sdf|4397|dock4
  -GOLD-   22720 2333D 1   1.00000     0.00000
 Structure written by MMmdl.
 47 49  0  0  0  0  0  0  0  0  3 V2000
  146.7685  138.8316  150.9519 C   0  0  0  0  0  0  0  0  0  0  0  0
  147.3629  139.4953  152.1760 C   0  0  0  0  0  0  0  0  0  0  0  0
  146.9940  140.7964  152.5749 C   0  0  0  0  0  0  0  0  0  0  0  0
  147.6166  141.3072  153.7271 C   0  0  0  0  0  0  0  0  0  0  0  0
  147.3150  142.5829  154.1968 N   0  0  0  0  0  0  0  0  0  0  0  0
  148.5235  140.5866  154.4159 N   0  0  0  0  0  0  0  0  0  0  0  0
  148.8304  139.3569  153.9814 C   0  0  0  0  0  0  0  0  0  0  0  0
  150.0285  138.3782  154.8713 S   0  0  0  0  0  0  0  0  0  0  0  0
  151.5977  138.8279  154.0647 C   0  0  0  0  0  0  0  0  0  0  0  0
  152.6568  139.2884  155.0798 C   0  0  1  0  0  0  0  0  0  0  0  0
  153.3083  140.4415  154.5819 O   0  0  0  0  0  0  0  0  0  0  0  0
  152.0411  139.5877  156.4606 C   0  0  0  0  0  0  0  0  0  0  0  0
  151.5143  140.9567  156.5651 N   0  0  0  0  0  0  0  0  0  0  0  0
  150.7149  141.6453  155.7054 C   0  0  0  0  0  0  0  0  0  0  0  0
  150.4990  142.8778  156.2418 N   0  3  0  0  0  0  0  0  0  0  0  0
  151.1696  142.9789  157.4622 C   0  0  0  0  0  0  0  0  0  0  0  0
  151.2502  144.0275  158.3709 C   0  0  0  0  0  0  0  0  0  0  0  0
  152.0192  143.8131  159.5367 C   0  0  0  0  0  0  0  0  0  0  0  0
  152.1272  144.9386  160.5517 C   0  0  0  0  0  0  0  0  0  0  0  0
  152.6762  142.5755  159.7602 C   0  0  0  0  0  0  0  0  0  0  0  0
  153.4965  142.3540  161.0198 C   0  0  0  0  0  0  0  0  0  0  0  0
  152.5835  141.5220  158.8225 C   0  0  0  0  0  0  0  0  0  0  0  0
  151.8227  141.7496  157.6777 C   0  0  0  0  0  0  0  0  0  0  0  0
  148.2804  138.7990  152.8932 N   0  3  0  0  0  0  0  0  0  0  0  0
  145.8786  139.3626  150.6121 H   0  0  0  0  0  0  0  0  0  0  0  0
  146.4847  137.8019  151.1722 H   0  0  0  0  0  0  0  0  0  0  0  0
  147.4932  138.8230  150.1374 H   0  0  0  0  0  0  0  0  0  0  0  0
  146.2672  141.3732  152.0206 H   0  0  0  0  0  0  0  0  0  0  0  0
  146.6452  143.1763  153.7284 H   0  0  0  0  0  0  0  0  0  0  0  0
  147.7621  142.9603  155.0201 H   0  0  0  0  0  0  0  0  0  0  0  0
  151.9694  137.9768  153.4924 H   0  0  0  0  0  0  0  0  0  0  0  0
  151.3979  139.6313  153.3547 H   0  0  0  0  0  0  0  0  0  0  0  0
  153.4064  138.5037  155.1925 H   0  0  0  0  0  0  0  0  0  0  0  0
  153.6335  140.2543  153.7148 H   0  0  0  0  0  0  0  0  0  0  0  0
  151.2540  138.8754  156.7087 H   0  0  0  0  0  0  0  0  0  0  0  0
  152.8019  139.4806  157.2349 H   0  0  0  0  0  0  0  0  0  0  0  0
  150.3217  141.2802  154.7676 H   0  0  0  0  0  0  0  0  0  0  0  0
  150.7454  144.9663  158.1948 H   0  0  0  0  0  0  0  0  0  0  0  0
  153.1690  145.2259  160.6965 H   0  0  0  0  0  0  0  0  0  0  0  0
  151.7159  144.6280  161.5125 H   0  0  0  0  0  0  0  0  0  0  0  0
  151.5805  145.8237  160.2254 H   0  0  0  0  0  0  0  0  0  0  0  0
  153.9286  141.3531  161.0445 H   0  0  0  0  0  0  0  0  0  0  0  0
  152.8739  142.4690  161.9073 H   0  0  0  0  0  0  0  0  0  0  0  0
  154.3153  143.0716  161.0748 H   0  0  0  0  0  0  0  0  0  0  0  0
  153.0820  140.5804  158.9972 H   0  0  0  0  0  0  0  0  0  0  0  0
  148.5455  137.8583  152.6003 H   0  0  0  0  0  0  0  0  0  0  0  0
  149.9333  143.5948  155.8056 H   0  0  0  0  0  0  0  0  0  0  0  0
  1  2  1  0  0  0  0
  1 25  1  0  0  0  0
  1 26  1  0  0  0  0
  1 27  1  0  0  0  0
  2 24  1  0  0  0  0
  2  3  2  0  0  0  0
  3  4  1  0  0  0  0
  3 28  1  0  0  0  0
  4  5  1  0  0  0  0
  4  6  2  0  0  0  0
  5 29  1  0  0  0  0
  5 30  1  0  0  0  0
  6  7  1  0  0  0  0
  7  8  1  0  0  0  0
  7 24  2  0  0  0  0
  8  9  1  0  0  0  0
  9 10  1  0  0  0  0
  9 31  1  0  0  0  0
  9 32  1  0  0  0  0
 10 11  1  0  0  0  0
 10 12  1  0  0  0  0
 10 33  1  0  0  0  0
 11 34  1  0  0  0  0
 12 13  1  0  0  0  0
 12 35  1  0  0  0  0
 12 36  1  0  0  0  0
 13 23  1  0  0  0  0
 13 14  1  0  0  0  0
 14 15  2  0  0  0  0
 14 37  1  0  0  0  0
 15 16  1  0  0  0  0
 15 47  1  0  0  0  0
 16 23  2  0  0  0  0
 16 17  1  0  0  0  0
 17 18  2  0  0  0  0
 17 38  1  0  0  0  0
 18 19  1  0  0  0  0
 18 20  1  0  0  0  0
 19 39  1  0  0  0  0
 19 40  1  0  0  0  0
 19 41  1  0  0  0  0
 20 21  1  0  0  0  0
 20 22  2  0  0  0  0
 21 42  1  0  0  0  0
 21 43  1  0  0  0  0
 21 44  1  0  0  0  0
 22 23  1  0  0  0  0
 22 45  1  0  0  0  0
 24 46  1  0  0  0  0
M  CHG  1  15   1
M  CHG  1  24   1
M  END
> <s_m_source_file>
AV-unprocessed.smi

> <i_m_source_file_index>
1006

> <i_lp_mmshare_version>
43012

> <i_f3d_flags>
0

> <s_epik_input>
W0NIM11jMVtjSF1jKFtOSDJdKW5jKG4xKVNbQ0gyXVtDQEhdKFtPSF0pW0NIMl1uKFtjSF1uMiljKGMyMylbY0hdYyhbQ0gzXSljKFtjSF0zKVtDSDNd

> <s_epik_cmdline>
J2VwaWtfcHl0aG9uJywgJy1waCcsICc3LjAnLCAnLXRuJywgJzgnLCAnLW1hJywgJzIwMCcsICctbWV0YWxfYmluZGluZycsICctaW1hZScsICc8aW5maWxlLm1hZT4nLCAnLW9tYWUnLCAnPG91dGZpbGUubWFlPic=

> <r_lp_tautomer_probability>
0.999762

> <r_epik_Ionization_Penalty>
1.50932

> <r_epik_Ionization_Penalty_Charging>
1.50929

> <r_epik_Ionization_Penalty_Neutral>
3.48853e-05

> <r_epik_State_Penalty>
1.56619

> <r_epik_Charging_Adjusted_Penalty>
3.07548

> <i_epik_Tot_Q>
2

> <i_epik_Tot_abs_Q>
2

> <r_epik_Metal_State_Penalty>
1.82892

> <b_epik_Metal_Only>
0

> <s_lp_Force_Field>
OPLS_2005

> <r_lp_Energy>
17.0634

> <b_lp_Chiralities_Consistent>
1

> <s_lp_Variant>
AV-unprocessed.smi:1006-8

> <Gold.Version>
5.8.1

> <Gold.Id.Protein>
6NUR|6NUR_protein|mol2

> <Gold.PLP.Fitness>
67.3216

> <Gold.PLP.PLP>
-53.4459

> <Gold.PLP.part.hbond>
-6.0000

> <Gold.PLP.part.metal>
0.0000

> <Gold.PLP.part.buried>
1.1803

> <Gold.PLP.part.nonpolar>
-47.8500

> <Gold.PLP.part.repulsive>
0.4180

> <Gold.PLP.ligand.clash>
0.0000

> <Gold.PLP.ligand.torsion>
1.7909

> <Gold.PLP.Chemscore.Hbond>
5.7992

> <Gold.PLP.Chemscore.CHOScore>
0.0000

> <Gold.PLP.Chemscore.Metal>
0.0000

> <Gold.Chemscore.Hbonds>
donor molecule, donor type, donor heavy atom, donor atom, acceptor molecule, acceptor atom, score
      L1  H     5    30       P1  8028  0.55
      L1  H    15    47       P1  8028  2.00
      L1  H    24    46       P1  7948  2.00
      P1  H  7997  8010       L1    11  0.11

> <Gold.PLP.Chemscore.Internal.Correction>
0.0599

> <Gold.Rescore>
     Score         DG    S(hbond)    S(metal)    S(lipo)     H(rot)  DE(clash)    DE(int)     intcor
     18.27     -21.55       2.63        0.00     127.13       2.96       0.52       2.76       ----

> <Gold.Chemscore.Fitness>
18.2663

> <Gold.Chemscore.DG>
-21.5535

> <Gold.Chemscore.ZeroCoef>
-5.4800

> <Gold.Chemscore.Hbond>
2.6276

> <Gold.Chemscore.Metal>
0.0000

> <Gold.Chemscore.Lipo>
127.1319

> <Gold.Chemscore.Internal_Hbond>
0.0000

> <Gold.Chemscore.DEClash>
0.5241

> <Gold.Chemscore.DEInternal>
2.7631

> <Gold.Chemscore.Rot>
2.9599

> <Gold.Chemscore.Internal.Correction>
   9.000000E+99

> <Gold.Chemscore.Hbonds>
donor molecule, donor type, donor heavy atom, donor atom, acceptor molecule, acceptor atom, score
      L1  H     5    30       P1  8028  0.41
      L1  H    15    47       P1  8028  0.94
      L1  H    24    46       P1  7948  1.00

> <Gold.Chemscore.Hbond.Weighted>
-8.7763

> <Gold.Chemscore.Metal.Weighted>
-0.0000

> <Gold.Chemscore.Lipo.Weighted>
-14.8744

> <Gold.Chemscore.Internal_Hbond.Weighted>
0.0000

> <Gold.Chemscore.DEClash.Weighted>
0.5241

> <Gold.Chemscore.DEInternal.Weighted>
2.7631

> <Gold.Chemscore.Rot.Weighted>
7.5772

> <Gold.Chemscore.Internal.Correction.Weighted>
   9.000000E+99

> <Gold.Protein.RotatedTorsions>
[ 6907 6896 6895 6894 ] final   33.74 input  -60.11 | X-H torsion
[ 7974 7965 7964 7962 ] final   68.97 input  175.53 | X-H torsion
[ 8008 7997 7996 7995 ] final   91.98 input   59.86 | X-H torsion
[ 10167 10162 10161 10158 ] final    6.96 input  -65.29 | X-H torsion
[ 10718 10713 10712 10709 ] final -166.14 input   66.30 | X-H torsion
[ 10763 10752 10751 10750 ] final  -14.70 input  -60.55 | X-H torsion
[ 11005 11000 10999 10996 ] final  -31.45 input  -57.11 | X-H torsion

> <Gold.Protein.ActiveResidues>
 VAL166  LYS551  ARG553  GLY616  TRP617  ASP618  TYR619  PRO620  LYS621  CYS622 
 ASP623  PHE694  ASN695  SER759  ASP760  ASP761  ALA762  ILE779  LEU786  VAL792 
 PHE793  MET794  SER795  GLU796  ALA797  LYS798  CYS799  TRP800  GLU811  SER814 

> <Gold.Protein.RotatedAtoms>
  152.0927  134.9396  160.0571 H   0  0  0  0  0  0  0  0  0  0  0  0  # atno 6907 bound_to 6896
  152.0641  133.4071  159.4439 H   0  0  0  0  0  0  0  0  0  0  0  0  # atno 6908 bound_to 6896
  150.6837  134.3086  159.4780 H   0  0  0  0  0  0  0  0  0  0  0  0  # atno 6909 bound_to 6896
  145.7961  139.2958  143.1182 H   0  0  0  0  0  0  0  0  0  0  0  0  # atno 7974 bound_to 7965
  156.0300  140.3331  155.7130 H   0  0  0  0  0  0  0  0  0  0  0  0  # atno 8008 bound_to 7997
  155.5898  140.0645  157.2779 H   0  0  0  0  0  0  0  0  0  0  0  0  # atno 8009 bound_to 7997
  154.4349  140.1829  156.1051 H   0  0  0  0  0  0  0  0  0  0  0  0  # atno 8010 bound_to 7997
  140.6399  143.7799  150.7412 H   0  0  0  0  0  0  0  0  0  0  0  0  # atno 10167 bound_to 10162
  156.6635  130.9055  151.3033 H   0  0  0  0  0  0  0  0  0  0  0  0  # atno 10718 bound_to 10713
  153.5322  135.7014  153.5677 H   0  0  0  0  0  0  0  0  0  0  0  0  # atno 10763 bound_to 10752
  153.3680  135.3952  155.1767 H   0  0  0  0  0  0  0  0  0  0  0  0  # atno 10764 bound_to 10752
  154.8683  135.3805  154.4820 H   0  0  0  0  0  0  0  0  0  0  0  0  # atno 10765 bound_to 10752
  140.9469  133.7244  156.1160 H   0  0  0  0  0  0  0  0  0  0  0  0  # atno 11005 bound_to 11000
  145.9926  140.8589  143.0059 LP  0  0  0  0  0  0  0  0  0  0  0  0  # atno 17320 bound_to 7965
  144.6775  140.2237  143.7363 LP  0  0  0  0  0  0  0  0  0  0  0  0  # atno 17321 bound_to 7965
  140.1428  143.4426  152.2182 LP  0  0  0  0  0  0  0  0  0  0  0  0  # atno 17342 bound_to 10162
  139.5608  144.7404  151.4161 LP  0  0  0  0  0  0  0  0  0  0  0  0  # atno 17343 bound_to 10162
  157.7101  130.9431  150.1062 LP  0  0  0  0  0  0  0  0  0  0  0  0  # atno 17370 bound_to 10713
  156.1992  130.3659  149.8809 LP  0  0  0  0  0  0  0  0  0  0  0  0  # atno 17371 bound_to 10713
  140.7657  134.3890  157.5517 LP  0  0  0  0  0  0  0  0  0  0  0  0  # atno 17394 bound_to 11000
  139.8836  134.8990  156.2756 LP  0  0  0  0  0  0  0  0  0  0  0  0  # atno 17395 bound_to 11000

$$$$
