AV-unprocessed.smi:2548|AV-procd|sdf|10007|dock2
  -GOLD-   2272014 53D 1   1.00000     0.00000
 Structure written by MMmdl.
 44 45  0  0  0  0  0  0  0  0  1 V2000
  147.1747  139.6584  153.5271 C   0  0  0  0  0  0  0  0  0  0  0  0
  148.5314  139.4929  154.1221 C   0  0  0  0  0  0  0  0  0  0  0  0
  149.2348  140.2671  155.0011 C   0  0  0  0  0  0  0  0  0  0  0  0
  150.4655  139.5682  155.1819 C   0  0  0  0  0  0  0  0  0  0  0  0
  151.6375  139.9590  156.0461 C   0  0  0  0  0  0  0  0  0  0  0  0
  151.1923  140.5324  157.3973 C   0  0  0  0  0  0  0  0  0  0  0  0
  150.0019  140.7365  157.6411 O   0  0  0  0  0  0  0  0  0  0  0  0
  152.1749  140.7733  158.2801 N   0  0  0  0  0  0  0  0  0  0  0  0
  152.0015  141.3043  159.6324 C   0  0  0  0  0  0  0  0  0  0  0  0
  153.1059  142.3205  160.0564 C   0  0  0  0  0  0  0  0  0  0  0  0
  154.4298  141.5468  160.2623 C   0  0  0  0  0  0  0  0  0  0  0  0
  153.3694  143.3561  158.9247 C   0  0  0  0  0  0  0  0  0  0  0  0
  152.1721  144.2106  158.4581 C   0  0  0  0  0  0  0  0  0  0  0  0
  151.9034  145.4926  159.2644 C   0  0  0  0  0  0  0  0  0  0  0  0
  151.9863  145.3813  160.7959 C   0  0  0  0  0  0  0  0  0  0  0  0
  151.5977  144.0183  161.3890 C   0  0  0  0  0  0  0  0  0  0  0  0
  152.7707  143.0198  161.4006 C   0  0  0  0  0  0  0  0  0  0  0  0
  150.5221  138.4543  154.4647 N   0  0  0  0  0  0  0  0  0  0  0  0
  149.3372  138.4176  153.8276 N   0  0  0  0  0  0  0  0  0  0  0  0
  149.0959  137.6630  153.2010 H   0  0  0  0  0  0  0  0  0  0  0  0
  146.7473  140.6249  153.7951 H   0  0  0  0  0  0  0  0  0  0  0  0
  146.4989  138.8804  153.8827 H   0  0  0  0  0  0  0  0  0  0  0  0
  147.2176  139.5997  152.4394 H   0  0  0  0  0  0  0  0  0  0  0  0
  148.9178  141.1953  155.4532 H   0  0  0  0  0  0  0  0  0  0  0  0
  152.2853  139.1012  156.2311 H   0  0  0  0  0  0  0  0  0  0  0  0
  152.2464  140.6997  155.5263 H   0  0  0  0  0  0  0  0  0  0  0  0
  153.1215  140.5676  157.9954 H   0  0  0  0  0  0  0  0  0  0  0  0
  151.0284  141.7958  159.6585 H   0  0  0  0  0  0  0  0  0  0  0  0
  151.9246  140.4752  160.3337 H   0  0  0  0  0  0  0  0  0  0  0  0
  155.2574  142.2240  160.4770 H   0  0  0  0  0  0  0  0  0  0  0  0
  154.7012  140.9760  159.3734 H   0  0  0  0  0  0  0  0  0  0  0  0
  154.3706  140.8454  161.0952 H   0  0  0  0  0  0  0  0  0  0  0  0
  154.1910  144.0176  159.2036 H   0  0  0  0  0  0  0  0  0  0  0  0
  153.7300  142.8088  158.0523 H   0  0  0  0  0  0  0  0  0  0  0  0
  152.3586  144.5167  157.4281 H   0  0  0  0  0  0  0  0  0  0  0  0
  151.2612  143.6195  158.4004 H   0  0  0  0  0  0  0  0  0  0  0  0
  152.5955  146.2715  158.9420 H   0  0  0  0  0  0  0  0  0  0  0  0
  150.9124  145.8560  158.9909 H   0  0  0  0  0  0  0  0  0  0  0  0
  152.9934  145.6424  161.1229 H   0  0  0  0  0  0  0  0  0  0  0  0
  151.3422  146.1506  161.2237 H   0  0  0  0  0  0  0  0  0  0  0  0
  151.3055  144.1841  162.4265 H   0  0  0  0  0  0  0  0  0  0  0  0
  150.7135  143.6079  160.9015 H   0  0  0  0  0  0  0  0  0  0  0  0
  152.5674  142.2637  162.1586 H   0  0  0  0  0  0  0  0  0  0  0  0
  153.6577  143.5363  161.7700 H   0  0  0  0  0  0  0  0  0  0  0  0
  1  2  1  0  0  0  0
  1 21  1  0  0  0  0
  1 22  1  0  0  0  0
  1 23  1  0  0  0  0
  2 19  1  0  0  0  0
  2  3  2  0  0  0  0
  3  4  1  0  0  0  0
  3 24  1  0  0  0  0
  4  5  1  0  0  0  0
  4 18  2  0  0  0  0
  5  6  1  0  0  0  0
  5 25  1  0  0  0  0
  5 26  1  0  0  0  0
  6  7  2  0  0  0  0
  6  8  1  0  0  0  0
  8  9  1  0  0  0  0
  8 27  1  0  0  0  0
  9 10  1  0  0  0  0
  9 28  1  0  0  0  0
  9 29  1  0  0  0  0
 10 17  1  0  0  0  0
 10 11  1  0  0  0  0
 10 12  1  0  0  0  0
 11 30  1  0  0  0  0
 11 31  1  0  0  0  0
 11 32  1  0  0  0  0
 12 13  1  0  0  0  0
 12 33  1  0  0  0  0
 12 34  1  0  0  0  0
 13 14  1  0  0  0  0
 13 35  1  0  0  0  0
 13 36  1  0  0  0  0
 14 15  1  0  0  0  0
 14 37  1  0  0  0  0
 14 38  1  0  0  0  0
 15 16  1  0  0  0  0
 15 39  1  0  0  0  0
 15 40  1  0  0  0  0
 16 17  1  0  0  0  0
 16 41  1  0  0  0  0
 16 42  1  0  0  0  0
 17 43  1  0  0  0  0
 17 44  1  0  0  0  0
 18 19  1  0  0  0  0
 19 20  1  0  0  0  0
M  END
> <s_m_source_file>
AV-unprocessed.smi

> <i_m_source_file_index>
2548

> <i_lp_mmshare_version>
43012

> <i_f3d_flags>
0

> <s_epik_input>
W0NIM11jMVtjSF1jKG5bbkhdMSlbQ0gyXUMoPU8pW05IXVtDSDJdQzIoW0NIM10pW0NIMl1bQ0gyXVtDSDJdW0NIMl1bQ0gyXVtDSDJdMg==

> <s_epik_cmdline>
J2VwaWtfcHl0aG9uJywgJy1waCcsICc3LjAnLCAnLXRuJywgJzgnLCAnLW1hJywgJzIwMCcsICctbWV0YWxfYmluZGluZycsICctaW1hZScsICc8aW5maWxlLm1hZT4nLCAnLW9tYWUnLCAnPG91dGZpbGUubWFlPic=

> <r_lp_tautomer_probability>
0.5

> <r_epik_Ionization_Penalty>
8.42262e-05

> <r_epik_Ionization_Penalty_Charging>
0

> <r_epik_Ionization_Penalty_Neutral>
8.42262e-05

> <r_epik_State_Penalty>
0.41068

> <r_epik_Charging_Adjusted_Penalty>
0.41068

> <i_epik_Tot_Q>
0

> <i_epik_Tot_abs_Q>
0

> <r_epik_Metal_State_Penalty>
0.410698

> <b_epik_Metal_Only>
0

> <s_lp_Force_Field>
OPLS_2005

> <r_lp_Energy>
22.9227

> <b_lp_Chiralities_Consistent>
1

> <s_lp_Variant>
AV-unprocessed.smi:2548-1

> <Gold.Version>
5.8.1

> <Gold.Id.Protein>
6NUR|6NUR_protein|mol2

> <Gold.PLP.Fitness>
48.2646

> <Gold.PLP.PLP>
-46.3619

> <Gold.PLP.part.hbond>
-2.0000

> <Gold.PLP.part.metal>
0.0000

> <Gold.PLP.part.buried>
-1.3733

> <Gold.PLP.part.nonpolar>
-42.6028

> <Gold.PLP.part.repulsive>
0.4054

> <Gold.PLP.ligand.clash>
0.0000

> <Gold.PLP.ligand.torsion>
0.5620

> <Gold.PLP.Chemscore.Hbond>
1.0000

> <Gold.PLP.Chemscore.CHOScore>
0.0000

> <Gold.PLP.Chemscore.Metal>
0.0000

> <Gold.Chemscore.Hbonds>
donor molecule, donor type, donor heavy atom, donor atom, acceptor molecule, acceptor atom, score
      L1  H    19    20       P1  7948  1.00

> <Gold.PLP.Chemscore.Internal.Correction>
0.0267

> <Gold.Rescore>
     Score         DG    S(hbond)    S(metal)    S(lipo)     H(rot)  DE(clash)    DE(int)     intcor
     18.97     -21.20       0.97        0.00     140.57       1.55       0.60       1.63       ----

> <Gold.Chemscore.Fitness>
18.9749

> <Gold.Chemscore.DG>
-21.2048

> <Gold.Chemscore.ZeroCoef>
-5.4800

> <Gold.Chemscore.Hbond>
0.9710

> <Gold.Chemscore.Metal>
0.0000

> <Gold.Chemscore.Lipo>
140.5712

> <Gold.Chemscore.Internal_Hbond>
0.0000

> <Gold.Chemscore.DEClash>
0.5998

> <Gold.Chemscore.DEInternal>
1.6302

> <Gold.Chemscore.Rot>
1.5489

> <Gold.Chemscore.Internal.Correction>
   9.000000E+99

> <Gold.Chemscore.Hbonds>
donor molecule, donor type, donor heavy atom, donor atom, acceptor molecule, acceptor atom, score
      L1  H    19    20       P1  7948  0.99

> <Gold.Chemscore.Hbond.Weighted>
-3.2432

> <Gold.Chemscore.Metal.Weighted>
-0.0000

> <Gold.Chemscore.Lipo.Weighted>
-16.4468

> <Gold.Chemscore.Internal_Hbond.Weighted>
0.0000

> <Gold.Chemscore.DEClash.Weighted>
0.5998

> <Gold.Chemscore.DEInternal.Weighted>
1.6302

> <Gold.Chemscore.Rot.Weighted>
3.9652

> <Gold.Chemscore.Internal.Correction.Weighted>
   9.000000E+99

> <Gold.Protein.RotatedTorsions>
[ 6907 6896 6895 6894 ] final  144.87 input  -60.11 | X-H torsion
[ 7974 7965 7964 7962 ] final  128.92 input  175.53 | X-H torsion
[ 8008 7997 7996 7995 ] final -153.85 input   59.86 | X-H torsion
[ 10167 10162 10161 10158 ] final  107.08 input  -65.29 | X-H torsion
[ 10718 10713 10712 10709 ] final   -7.19 input   66.30 | X-H torsion
[ 10763 10752 10751 10750 ] final   79.60 input  -60.55 | X-H torsion
[ 11005 11000 10999 10996 ] final  165.37 input  -57.11 | X-H torsion

> <Gold.Protein.ActiveResidues>
 VAL166  LYS551  ARG553  GLY616  TRP617  ASP618  TYR619  PRO620  LYS621  CYS622 
 ASP623  PHE694  ASN695  SER759  ASP760  ASP761  ALA762  ILE779  LEU786  VAL792 
 PHE793  MET794  SER795  GLU796  ALA797  LYS798  CYS799  TRP800  GLU811  SER814 

> <Gold.Protein.RotatedAtoms>
  152.1882  133.4754  159.4993 H   0  0  0  0  0  0  0  0  0  0  0  0  # atno 6907 bound_to 6896
  150.6946  134.1746  159.4234 H   0  0  0  0  0  0  0  0  0  0  0  0  # atno 6908 bound_to 6896
  151.9660  135.0100  160.0601 H   0  0  0  0  0  0  0  0  0  0  0  0  # atno 6909 bound_to 6896
  145.0343  139.4019  143.5134 H   0  0  0  0  0  0  0  0  0  0  0  0  # atno 7974 bound_to 7965
  155.6773  140.0740  157.2498 H   0  0  0  0  0  0  0  0  0  0  0  0  # atno 8008 bound_to 7997
  154.4112  140.1688  156.1996 H   0  0  0  0  0  0  0  0  0  0  0  0  # atno 8009 bound_to 7997
  155.9565  140.3373  155.6456 H   0  0  0  0  0  0  0  0  0  0  0  0  # atno 8010 bound_to 7997
  139.6956  144.7102  151.1273 H   0  0  0  0  0  0  0  0  0  0  0  0  # atno 10167 bound_to 10162
  156.7208  130.5150  149.5868 H   0  0  0  0  0  0  0  0  0  0  0  0  # atno 10718 bound_to 10713
  153.0966  135.4833  154.8789 H   0  0  0  0  0  0  0  0  0  0  0  0  # atno 10763 bound_to 10752
  154.7331  135.3065  154.8860 H   0  0  0  0  0  0  0  0  0  0  0  0  # atno 10764 bound_to 10752
  153.9489  135.6825  153.4797 H   0  0  0  0  0  0  0  0  0  0  0  0  # atno 10765 bound_to 10752
  140.2554  134.7944  157.3541 H   0  0  0  0  0  0  0  0  0  0  0  0  # atno 11005 bound_to 11000
  146.3502  139.9910  142.8686 LP  0  0  0  0  0  0  0  0  0  0  0  0  # atno 17320 bound_to 7965
  145.1730  140.9730  143.4310 LP  0  0  0  0  0  0  0  0  0  0  0  0  # atno 17321 bound_to 7965
  140.7695  143.5496  150.9219 LP  0  0  0  0  0  0  0  0  0  0  0  0  # atno 17342 bound_to 10162
  139.9176  143.6645  152.3103 LP  0  0  0  0  0  0  0  0  0  0  0  0  # atno 17343 bound_to 10162
  156.1596  130.6365  151.0701 LP  0  0  0  0  0  0  0  0  0  0  0  0  # atno 17370 bound_to 10713
  157.6899  131.0813  150.7138 LP  0  0  0  0  0  0  0  0  0  0  0  0  # atno 17371 bound_to 10713
  140.1517  134.4841  155.7957 LP  0  0  0  0  0  0  0  0  0  0  0  0  # atno 17394 bound_to 11000
  141.2196  133.6865  156.7389 LP  0  0  0  0  0  0  0  0  0  0  0  0  # atno 17395 bound_to 11000

$$$$
