AV-unprocessed.smi:3345|AV-procd|sdf|12899|dock2
  -GOLD-   2272019313D 1   1.00000     0.00000
 Structure written by MMmdl.
 40 41  0  0  0  0  0  0  0  0  1 V2000
  154.2114  139.8981  160.9897 C   0  0  0  0  0  0  0  0  0  0  0  0
  153.3549  140.8327  160.1257 C   0  0  2  0  0  0  0  0  0  0  0  0
  152.7877  142.0097  160.9489 C   0  0  0  0  0  0  0  0  0  0  0  0
  152.2230  143.1108  160.1651 N   0  0  0  0  0  0  0  0  0  0  0  0
  153.1377  143.6033  159.1382 C   0  0  0  0  0  0  0  0  0  0  0  0
  152.5192  144.7570  158.3302 C   0  0  0  0  0  0  0  0  0  0  0  0
  152.1318  145.8054  159.2124 O   0  0  0  0  0  0  0  0  0  0  0  0
  151.2072  145.3749  160.2061 C   0  0  0  0  0  0  0  0  0  0  0  0
  151.8223  144.2226  161.0189 C   0  0  0  0  0  0  0  0  0  0  0  0
  152.2524  140.0780  159.5354 N   0  0  0  0  0  0  0  0  0  0  0  0
  152.3653  139.1304  158.5907 C   0  0  0  0  0  0  0  0  0  0  0  0
  153.4430  138.6546  158.2318 O   0  0  0  0  0  0  0  0  0  0  0  0
  151.0525  138.6964  157.9222 C   0  0  2  0  0  0  0  0  0  0  0  0
  150.6857  137.2267  158.2138 C   0  0  0  0  0  0  0  0  0  0  0  0
  151.1201  138.9791  156.4922 N   0  0  0  0  0  0  0  0  0  0  0  0
  152.1475  139.3982  155.7498 C   0  0  0  0  0  0  0  0  0  0  0  0
  151.8779  139.4864  154.4552 N   0  0  0  0  0  0  0  0  0  0  0  0
  150.5790  139.0647  154.4646 C   0  0  0  0  0  0  0  0  0  0  0  0
  150.0794  138.7379  155.6562 N   0  0  0  0  0  0  0  0  0  0  0  0
  155.0482  140.4363  161.4358 H   0  0  0  0  0  0  0  0  0  0  0  0
  154.6248  139.0830  160.3947 H   0  0  0  0  0  0  0  0  0  0  0  0
  153.6290  139.4579  161.7997 H   0  0  0  0  0  0  0  0  0  0  0  0
  154.0052  141.2317  159.3464 H   0  0  0  0  0  0  0  0  0  0  0  0
  152.0069  141.6118  161.5988 H   0  0  0  0  0  0  0  0  0  0  0  0
  153.5609  142.3935  161.6161 H   0  0  0  0  0  0  0  0  0  0  0  0
  154.0662  143.9417  159.6003 H   0  0  0  0  0  0  0  0  0  0  0  0
  153.4047  142.8022  158.4503 H   0  0  0  0  0  0  0  0  0  0  0  0
  153.2392  145.1440  157.6093 H   0  0  0  0  0  0  0  0  0  0  0  0
  151.6538  144.4099  157.7642 H   0  0  0  0  0  0  0  0  0  0  0  0
  150.9682  146.2146  160.8587 H   0  0  0  0  0  0  0  0  0  0  0  0
  150.2756  145.0606  159.7340 H   0  0  0  0  0  0  0  0  0  0  0  0
  151.0981  143.8793  161.7584 H   0  0  0  0  0  0  0  0  0  0  0  0
  152.6854  144.5924  161.5745 H   0  0  0  0  0  0  0  0  0  0  0  0
  151.3220  140.3918  159.7705 H   0  0  0  0  0  0  0  0  0  0  0  0
  150.2558  139.3173  158.3350 H   0  0  0  0  0  0  0  0  0  0  0  0
  150.5817  137.0536  159.2854 H   0  0  0  0  0  0  0  0  0  0  0  0
  151.4394  136.5327  157.8393 H   0  0  0  0  0  0  0  0  0  0  0  0
  149.7356  136.9642  157.7477 H   0  0  0  0  0  0  0  0  0  0  0  0
  153.1167  139.6340  156.1641 H   0  0  0  0  0  0  0  0  0  0  0  0
  149.9867  138.9864  153.5648 H   0  0  0  0  0  0  0  0  0  0  0  0
  1  2  1  0  0  0  0
  1 20  1  0  0  0  0
  1 21  1  0  0  0  0
  1 22  1  0  0  0  0
  2  3  1  0  0  0  0
  2 10  1  0  0  0  0
  2 23  1  0  0  0  0
  3  4  1  0  0  0  0
  3 24  1  0  0  0  0
  3 25  1  0  0  0  0
  4  9  1  0  0  0  0
  4  5  1  0  0  0  0
  5  6  1  0  0  0  0
  5 26  1  0  0  0  0
  5 27  1  0  0  0  0
  6  7  1  0  0  0  0
  6 28  1  0  0  0  0
  6 29  1  0  0  0  0
  7  8  1  0  0  0  0
  8  9  1  0  0  0  0
  8 30  1  0  0  0  0
  8 31  1  0  0  0  0
  9 32  1  0  0  0  0
  9 33  1  0  0  0  0
 10 11  1  0  0  0  0
 10 34  1  0  0  0  0
 11 12  2  0  0  0  0
 11 13  1  0  0  0  0
 13 14  1  0  0  0  0
 13 15  1  0  0  0  0
 13 35  1  0  0  0  0
 14 36  1  0  0  0  0
 14 37  1  0  0  0  0
 14 38  1  0  0  0  0
 15 19  1  0  0  0  0
 15 16  1  0  0  0  0
 16 17  2  0  0  0  0
 16 39  1  0  0  0  0
 17 18  1  0  0  0  0
 18 19  2  0  0  0  0
 18 40  1  0  0  0  0
M  END
> <s_m_source_file>
AV-unprocessed.smi

> <i_m_source_file_index>
3345

> <i_lp_mmshare_version>
43012

> <i_f3d_flags>
0

> <s_epik_input>
W0NIMl0xW0NIMl1PW0NIMl1bQ0gyXU4xW0NIMl1bQ0BASF0oW0NIM10pW05IXUMoPU8pW0NASF0oW0NIM10pbjJbY0hdbltjSF1uMg==

> <s_epik_cmdline>
J2VwaWtfcHl0aG9uJywgJy1waCcsICc3LjAnLCAnLXRuJywgJzgnLCAnLW1hJywgJzIwMCcsICctbWV0YWxfYmluZGluZycsICctaW1hZScsICc8aW5maWxlLm1hZT4nLCAnLW9tYWUnLCAnPG91dGZpbGUubWFlPic=

> <r_lp_tautomer_probability>
1

> <r_epik_Ionization_Penalty>
0.211373

> <r_epik_Ionization_Penalty_Charging>
0

> <r_epik_Ionization_Penalty_Neutral>
0.211373

> <r_epik_State_Penalty>
0.201459

> <r_epik_Charging_Adjusted_Penalty>
0.201459

> <i_epik_Tot_Q>
0

> <i_epik_Tot_abs_Q>
0

> <r_epik_Metal_State_Penalty>
0.201458

> <b_epik_Metal_Only>
0

> <s_lp_Force_Field>
OPLS_2005

> <r_lp_Energy>
29.1887

> <b_lp_Chiralities_Consistent>
1

> <s_lp_Variant>
AV-unprocessed.smi:3345-1

> <Gold.Version>
5.8.1

> <Gold.Id.Protein>
6NUR|6NUR_protein|mol2

> <Gold.PLP.Fitness>
47.3932

> <Gold.PLP.PLP>
-39.8561

> <Gold.PLP.part.hbond>
-2.7679

> <Gold.PLP.part.metal>
0.0000

> <Gold.PLP.part.buried>
-2.7828

> <Gold.PLP.part.nonpolar>
-33.6684

> <Gold.PLP.part.repulsive>
0.3918

> <Gold.PLP.ligand.clash>
0.0000

> <Gold.PLP.ligand.torsion>
0.2814

> <Gold.PLP.Chemscore.Hbond>
2.0000

> <Gold.PLP.Chemscore.CHOScore>
0.6283

> <Gold.PLP.Chemscore.Metal>
0.0000

> <Gold.Chemscore.Hbonds>
donor molecule, donor type, donor heavy atom, donor atom, acceptor molecule, acceptor atom, score
      P1  H  7989  7998       L1    17  0.86
      P1  H  7997  8008       L1    12  0.65
      L1  C    18    40       P1  7957  0.72

> <Gold.PLP.Chemscore.Internal.Correction>
0.2150

> <Gold.Rescore>
     Score         DG    S(hbond)    S(metal)    S(lipo)     H(rot)  DE(clash)    DE(int)     intcor
     13.68     -15.67       1.96        0.00      86.48       2.54       0.28       1.71       ----

> <Gold.Chemscore.Fitness>
13.6787

> <Gold.Chemscore.DG>
-15.6690

> <Gold.Chemscore.ZeroCoef>
-5.4800

> <Gold.Chemscore.Hbond>
1.9644

> <Gold.Chemscore.Metal>
0.0000

> <Gold.Chemscore.Lipo>
86.4813

> <Gold.Chemscore.Internal_Hbond>
0.0000

> <Gold.Chemscore.DEClash>
0.2774

> <Gold.Chemscore.DEInternal>
1.7129

> <Gold.Chemscore.Rot>
2.5353

> <Gold.Chemscore.Internal.Correction>
   9.000000E+99

> <Gold.Chemscore.Hbonds>
donor molecule, donor type, donor heavy atom, donor atom, acceptor molecule, acceptor atom, score
      P1  H  7989  7998       L1    17  0.16
      P1  H  7997  8008       L1    12  0.53

> <Gold.Chemscore.Hbond.Weighted>
-6.5612

> <Gold.Chemscore.Metal.Weighted>
-0.0000

> <Gold.Chemscore.Lipo.Weighted>
-10.1183

> <Gold.Chemscore.Internal_Hbond.Weighted>
0.0000

> <Gold.Chemscore.DEClash.Weighted>
0.2774

> <Gold.Chemscore.DEInternal.Weighted>
1.7129

> <Gold.Chemscore.Rot.Weighted>
6.4905

> <Gold.Chemscore.Internal.Correction.Weighted>
   9.000000E+99

> <Gold.Protein.RotatedTorsions>
[ 6907 6896 6895 6894 ] final   58.44 input  -60.11 | X-H torsion
[ 7974 7965 7964 7962 ] final -143.13 input  175.53 | X-H torsion
[ 8008 7997 7996 7995 ] final  -81.68 input   59.86 | X-H torsion
[ 10167 10162 10161 10158 ] final   72.23 input  -65.29 | X-H torsion
[ 10718 10713 10712 10709 ] final -129.88 input   66.30 | X-H torsion
[ 10763 10752 10751 10750 ] final  177.69 input  -60.55 | X-H torsion
[ 11005 11000 10999 10996 ] final   99.66 input  -57.11 | X-H torsion

> <Gold.Protein.ActiveResidues>
 VAL166  LYS551  ARG553  GLY616  TRP617  ASP618  TYR619  PRO620  LYS621  CYS622 
 ASP623  PHE694  ASN695  SER759  ASP760  ASP761  ALA762  ILE779  LEU786  VAL792 
 PHE793  MET794  SER795  GLU796  ALA797  LYS798  CYS799  TRP800  GLU811  SER814 

> <Gold.Protein.RotatedAtoms>
  152.3824  134.6570  160.0137 H   0  0  0  0  0  0  0  0  0  0  0  0  # atno 6907 bound_to 6896
  151.6829  133.3306  159.3232 H   0  0  0  0  0  0  0  0  0  0  0  0  # atno 6908 bound_to 6896
  150.7758  134.6701  159.6431 H   0  0  0  0  0  0  0  0  0  0  0  0  # atno 6909 bound_to 6896
  144.8392  140.5872  143.5464 H   0  0  0  0  0  0  0  0  0  0  0  0  # atno 7974 bound_to 7965
  154.6008  140.0644  156.9366 H   0  0  0  0  0  0  0  0  0  0  0  0  # atno 8008 bound_to 7997
  155.2135  140.3324  155.4307 H   0  0  0  0  0  0  0  0  0  0  0  0  # atno 8009 bound_to 7997
  156.2317  140.1844  156.7209 H   0  0  0  0  0  0  0  0  0  0  0  0  # atno 8010 bound_to 7997
  140.0375  144.5416  150.7459 H   0  0  0  0  0  0  0  0  0  0  0  0  # atno 10167 bound_to 10162
  156.2089  130.6906  151.0627 H   0  0  0  0  0  0  0  0  0  0  0  0  # atno 10718 bound_to 10713
  154.4978  135.2782  155.1445 H   0  0  0  0  0  0  0  0  0  0  0  0  # atno 10763 bound_to 10752
  154.3090  135.6233  153.5461 H   0  0  0  0  0  0  0  0  0  0  0  0  # atno 10764 bound_to 10752
  152.9898  135.5715  154.5414 H   0  0  0  0  0  0  0  0  0  0  0  0  # atno 10765 bound_to 10752
  139.8770  134.9105  156.4639 H   0  0  0  0  0  0  0  0  0  0  0  0  # atno 11005 bound_to 11000
  145.4730  139.1502  143.3803 LP  0  0  0  0  0  0  0  0  0  0  0  0  # atno 17320 bound_to 7965
  146.2687  140.4864  142.8823 LP  0  0  0  0  0  0  0  0  0  0  0  0  # atno 17321 bound_to 7965
  140.7275  143.2652  151.4070 LP  0  0  0  0  0  0  0  0  0  0  0  0  # atno 17342 bound_to 10162
  139.6035  144.1245  152.2224 LP  0  0  0  0  0  0  0  0  0  0  0  0  # atno 17343 bound_to 10162
  157.7028  131.0769  150.6766 LP  0  0  0  0  0  0  0  0  0  0  0  0  # atno 17370 bound_to 10713
  156.6825  130.4571  149.5623 LP  0  0  0  0  0  0  0  0  0  0  0  0  # atno 17371 bound_to 10713
  140.8844  133.7894  155.9502 LP  0  0  0  0  0  0  0  0  0  0  0  0  # atno 17394 bound_to 11000
  140.8820  134.2600  157.5139 LP  0  0  0  0  0  0  0  0  0  0  0  0  # atno 17395 bound_to 11000

$$$$
