AV-unprocessed.smi:642|AV-procd|sdf|3152|dock1
  -GOLD-   22720 0 73D 1   1.00000     0.00000
 Structure written by MMmdl.
 49 51  0  0  0  0  0  0  0  0  1 V2000
  145.0867  137.8280  153.1709 O   0  0  0  0  0  0  0  0  0  0  0  0
  146.1955  137.3968  152.8542 C   0  0  0  0  0  0  0  0  0  0  0  0
  147.3510  138.0659  152.9945 N   0  0  0  0  0  0  0  0  0  0  0  0
  147.5402  139.3604  153.5535 C   0  0  0  0  0  0  0  0  0  0  0  0
  146.5442  140.3629  153.4742 C   0  0  0  0  0  0  0  0  0  0  0  0
  146.8123  141.6387  154.0014 C   0  0  0  0  0  0  0  0  0  0  0  0
  148.0730  141.8704  154.5792 C   0  0  0  0  0  0  0  0  0  0  0  0
  149.0362  140.9294  154.6514 N   0  0  0  0  0  0  0  0  0  0  0  0
  148.7854  139.6950  154.1501 C   0  0  0  0  0  0  0  0  0  0  0  0
  149.8019  138.7260  154.2697 N   0  0  0  0  0  0  0  0  0  0  0  0
  149.4281  137.5924  155.1085 C   0  0  0  0  0  0  0  0  0  0  0  0
  150.4764  136.4740  154.9799 C   0  0  0  0  0  0  0  0  0  0  0  0
  151.7673  136.9872  155.2970 O   0  0  0  0  0  0  0  0  0  0  0  0
  152.1546  138.0436  154.4229 C   0  0  0  0  0  0  0  0  0  0  0  0
  151.1534  139.2056  154.5421 C   0  0  0  0  0  0  0  0  0  0  0  0
  146.4038  136.1732  152.3470 N   0  0  0  0  0  0  0  0  0  0  0  0
  145.3772  135.1579  152.1205 C   0  0  0  0  0  0  0  0  0  0  0  0
  145.7642  133.8369  152.8236 C   0  0  0  0  0  0  0  0  0  0  0  0
  146.6735  132.8954  152.0154 C   0  0  0  0  0  0  0  0  0  0  0  0
  145.8800  131.9463  151.0994 C   0  0  0  0  0  0  0  0  0  0  0  0
  145.2563  132.6093  149.8610 C   0  0  0  0  0  0  0  0  0  0  0  0
  144.3327  133.8041  150.1588 C   0  0  0  0  0  0  0  0  0  0  0  0
  145.1088  135.0541  150.6048 C   0  0  0  0  0  0  0  0  0  0  0  0
  148.1957  137.5505  152.7936 H   0  0  0  0  0  0  0  0  0  0  0  0
  145.5909  140.1767  153.0028 H   0  0  0  0  0  0  0  0  0  0  0  0
  146.0718  142.4234  153.9560 H   0  0  0  0  0  0  0  0  0  0  0  0
  148.3166  142.8385  154.9910 H   0  0  0  0  0  0  0  0  0  0  0  0
  149.3618  137.9243  156.1456 H   0  0  0  0  0  0  0  0  0  0  0  0
  148.4445  137.2107  154.8344 H   0  0  0  0  0  0  0  0  0  0  0  0
  150.2407  135.6580  155.6632 H   0  0  0  0  0  0  0  0  0  0  0  0
  150.4760  136.0563  153.9717 H   0  0  0  0  0  0  0  0  0  0  0  0
  153.1553  138.3807  154.6938 H   0  0  0  0  0  0  0  0  0  0  0  0
  152.2073  137.6789  153.3958 H   0  0  0  0  0  0  0  0  0  0  0  0
  151.4147  139.9994  153.8410 H   0  0  0  0  0  0  0  0  0  0  0  0
  151.1997  139.6288  155.5466 H   0  0  0  0  0  0  0  0  0  0  0  0
  147.3520  135.9124  152.1192 H   0  0  0  0  0  0  0  0  0  0  0  0
  144.4489  135.4992  152.5826 H   0  0  0  0  0  0  0  0  0  0  0  0
  146.2483  134.0675  153.7736 H   0  0  0  0  0  0  0  0  0  0  0  0
  144.8564  133.3010  153.1033 H   0  0  0  0  0  0  0  0  0  0  0  0
  147.4219  133.4553  151.4535 H   0  0  0  0  0  0  0  0  0  0  0  0
  147.2321  132.2801  152.7217 H   0  0  0  0  0  0  0  0  0  0  0  0
  146.5473  131.1536  150.7592 H   0  0  0  0  0  0  0  0  0  0  0  0
  145.1019  131.4452  151.6764 H   0  0  0  0  0  0  0  0  0  0  0  0
  146.0463  132.9185  149.1754 H   0  0  0  0  0  0  0  0  0  0  0  0
  144.6832  131.8526  149.3243 H   0  0  0  0  0  0  0  0  0  0  0  0
  143.8020  134.0481  149.2379 H   0  0  0  0  0  0  0  0  0  0  0  0
  143.5629  133.5382  150.8840 H   0  0  0  0  0  0  0  0  0  0  0  0
  144.5460  135.9392  150.3049 H   0  0  0  0  0  0  0  0  0  0  0  0
  146.0454  135.1102  150.0481 H   0  0  0  0  0  0  0  0  0  0  0  0
  1  2  2  0  0  0  0
  2  3  1  0  0  0  0
  2 16  1  0  0  0  0
  3  4  1  0  0  0  0
  3 24  1  0  0  0  0
  4  9  1  0  0  0  0
  4  5  2  0  0  0  0
  5  6  1  0  0  0  0
  5 25  1  0  0  0  0
  6  7  2  0  0  0  0
  6 26  1  0  0  0  0
  7  8  1  0  0  0  0
  7 27  1  0  0  0  0
  8  9  2  0  0  0  0
  9 10  1  0  0  0  0
 10 15  1  0  0  0  0
 10 11  1  0  0  0  0
 11 12  1  0  0  0  0
 11 28  1  0  0  0  0
 11 29  1  0  0  0  0
 12 13  1  0  0  0  0
 12 30  1  0  0  0  0
 12 31  1  0  0  0  0
 13 14  1  0  0  0  0
 14 15  1  0  0  0  0
 14 32  1  0  0  0  0
 14 33  1  0  0  0  0
 15 34  1  0  0  0  0
 15 35  1  0  0  0  0
 16 17  1  0  0  0  0
 16 36  1  0  0  0  0
 17 23  1  0  0  0  0
 17 18  1  0  0  0  0
 17 37  1  0  0  0  0
 18 19  1  0  0  0  0
 18 38  1  0  0  0  0
 18 39  1  0  0  0  0
 19 20  1  0  0  0  0
 19 40  1  0  0  0  0
 19 41  1  0  0  0  0
 20 21  1  0  0  0  0
 20 42  1  0  0  0  0
 20 43  1  0  0  0  0
 21 22  1  0  0  0  0
 21 44  1  0  0  0  0
 21 45  1  0  0  0  0
 22 23  1  0  0  0  0
 22 46  1  0  0  0  0
 22 47  1  0  0  0  0
 23 48  1  0  0  0  0
 23 49  1  0  0  0  0
M  END
> <s_m_source_file>
AV-unprocessed.smi

> <i_m_source_file_index>
642

> <i_lp_mmshare_version>
43012

> <i_f3d_flags>
0

> <s_epik_input>
W0NIMl0xW0NIMl1bQ0gyXVtDSDJdW0NIMl1bQ0gyXVtDSF0xW05IXUMoPU8pW05IXWMyW2NIXVtjSF1bY0hdbmMyTjNbQ0gyXVtDSDJdT1tDSDJdW0NIMl0z

> <s_epik_cmdline>
J2VwaWtfcHl0aG9uJywgJy1waCcsICc3LjAnLCAnLXRuJywgJzgnLCAnLW1hJywgJzIwMCcsICctbWV0YWxfYmluZGluZycsICctaW1hZScsICc8aW5maWxlLm1hZT4nLCAnLW9tYWUnLCAnPG91dGZpbGUubWFlPic=

> <r_lp_tautomer_probability>
1

> <r_epik_Ionization_Penalty>
0.00218327

> <r_epik_Ionization_Penalty_Charging>
0

> <r_epik_Ionization_Penalty_Neutral>
0.00218327

> <r_epik_State_Penalty>
0.00146969

> <r_epik_Charging_Adjusted_Penalty>
0.00146969

> <i_epik_Tot_Q>
0

> <i_epik_Tot_abs_Q>
0

> <r_epik_Metal_State_Penalty>
-0

> <b_epik_Metal_Only>
0

> <s_lp_Force_Field>
OPLS_2005

> <r_lp_Energy>
33.5624

> <b_lp_Chiralities_Consistent>
1

> <s_lp_Variant>
AV-unprocessed.smi:642-1

> <Gold.Version>
5.8.1

> <Gold.Id.Protein>
6NUR|6NUR_protein|mol2

> <Gold.PLP.Fitness>
47.7821

> <Gold.PLP.PLP>
-36.7398

> <Gold.PLP.part.hbond>
-3.0000

> <Gold.PLP.part.metal>
0.0000

> <Gold.PLP.part.buried>
-0.2180

> <Gold.PLP.part.nonpolar>
-34.0860

> <Gold.PLP.part.repulsive>
0.9806

> <Gold.PLP.ligand.clash>
0.0000

> <Gold.PLP.ligand.torsion>
0.5116

> <Gold.PLP.Chemscore.Hbond>
2.9440

> <Gold.PLP.Chemscore.CHOScore>
1.0000

> <Gold.PLP.Chemscore.Metal>
0.0000

> <Gold.Chemscore.Hbonds>
donor molecule, donor type, donor heavy atom, donor atom, acceptor molecule, acceptor atom, score
      L1  H     3    24       P1  7948  0.94
      L1  H    16    36       P1  7948  1.00
      P1  H 10752 10763       L1    13  1.00
      L1  C     7    27       P1  8028  1.00

> <Gold.PLP.Chemscore.Internal.Correction>
0.2335

> <Gold.Rescore>
     Score         DG    S(hbond)    S(metal)    S(lipo)     H(rot)  DE(clash)    DE(int)     intcor
     19.42     -22.59       2.50        0.00     100.52       1.18       0.38       2.79       ----

> <Gold.Chemscore.Fitness>
19.4203

> <Gold.Chemscore.DG>
-22.5854

> <Gold.Chemscore.ZeroCoef>
-5.4800

> <Gold.Chemscore.Hbond>
2.5039

> <Gold.Chemscore.Metal>
0.0000

> <Gold.Chemscore.Lipo>
100.5204

> <Gold.Chemscore.Internal_Hbond>
0.0000

> <Gold.Chemscore.DEClash>
0.3777

> <Gold.Chemscore.DEInternal>
2.7873

> <Gold.Chemscore.Rot>
1.1791

> <Gold.Chemscore.Internal.Correction>
   9.000000E+99

> <Gold.Chemscore.Hbonds>
donor molecule, donor type, donor heavy atom, donor atom, acceptor molecule, acceptor atom, score
      L1  H     3    24       P1  7948  0.91
      L1  H    16    36       P1  7948  0.97
      P1  H 10752 10763       L1    13  0.13

> <Gold.Chemscore.Hbond.Weighted>
-8.3629

> <Gold.Chemscore.Metal.Weighted>
-0.0000

> <Gold.Chemscore.Lipo.Weighted>
-11.7609

> <Gold.Chemscore.Internal_Hbond.Weighted>
0.0000

> <Gold.Chemscore.DEClash.Weighted>
0.3777

> <Gold.Chemscore.DEInternal.Weighted>
2.7873

> <Gold.Chemscore.Rot.Weighted>
3.0184

> <Gold.Chemscore.Internal.Correction.Weighted>
   9.000000E+99

> <Gold.Protein.RotatedTorsions>
[ 6907 6896 6895 6894 ] final  151.36 input  -60.11 | X-H torsion
[ 7974 7965 7964 7962 ] final   31.92 input  175.53 | X-H torsion
[ 8008 7997 7996 7995 ] final  172.09 input   59.86 | X-H torsion
[ 10167 10162 10161 10158 ] final  -72.58 input  -65.29 | X-H torsion
[ 10718 10713 10712 10709 ] final   56.38 input   66.30 | X-H torsion
[ 10763 10752 10751 10750 ] final   67.94 input  -60.55 | X-H torsion
[ 11005 11000 10999 10996 ] final -127.95 input  -57.11 | X-H torsion

> <Gold.Protein.ActiveResidues>
 VAL166  LYS551  ARG553  GLY616  TRP617  ASP618  TYR619  PRO620  LYS621  CYS622 
 ASP623  PHE694  ASN695  SER759  ASP760  ASP761  ALA762  ILE779  LEU786  VAL792 
 PHE793  MET794  SER795  GLU796  ALA797  LYS798  CYS799  TRP800  GLU811  SER814 

> <Gold.Protein.RotatedAtoms>
  152.1017  133.4253  159.4590 H   0  0  0  0  0  0  0  0  0  0  0  0  # atno 6907 bound_to 6896
  150.6864  134.2752  159.4613 H   0  0  0  0  0  0  0  0  0  0  0  0  # atno 6908 bound_to 6896
  152.0613  134.9592  160.0625 H   0  0  0  0  0  0  0  0  0  0  0  0  # atno 6909 bound_to 6896
  146.1520  139.6594  142.9092 H   0  0  0  0  0  0  0  0  0  0  0  0  # atno 7974 bound_to 7965
  156.1208  140.1495  156.9206 H   0  0  0  0  0  0  0  0  0  0  0  0  # atno 8008 bound_to 7997
  154.4835  140.0872  156.7473 H   0  0  0  0  0  0  0  0  0  0  0  0  # atno 8009 bound_to 7997
  155.4431  140.3432  155.4294 H   0  0  0  0  0  0  0  0  0  0  0  0  # atno 8010 bound_to 7997
  140.5180  143.2335  151.7479 H   0  0  0  0  0  0  0  0  0  0  0  0  # atno 10167 bound_to 10162
  157.5426  130.8708  149.8844 H   0  0  0  0  0  0  0  0  0  0  0  0  # atno 10718 bound_to 10713
  153.0211  135.5265  154.7058 H   0  0  0  0  0  0  0  0  0  0  0  0  # atno 10763 bound_to 10752
  154.6154  135.2883  155.0388 H   0  0  0  0  0  0  0  0  0  0  0  0  # atno 10764 bound_to 10752
  154.1394  135.6580  153.4991 H   0  0  0  0  0  0  0  0  0  0  0  0  # atno 10765 bound_to 10752
  140.9557  134.1005  157.4018 H   0  0  0  0  0  0  0  0  0  0  0  0  # atno 11005 bound_to 11000
  145.4801  141.0438  143.2651 LP  0  0  0  0  0  0  0  0  0  0  0  0  # atno 17320 bound_to 7965
  144.7915  139.6318  143.7111 LP  0  0  0  0  0  0  0  0  0  0  0  0  # atno 17321 bound_to 7965
  139.4915  144.4296  151.9888 LP  0  0  0  0  0  0  0  0  0  0  0  0  # atno 17342 bound_to 10162
  140.3391  144.3225  150.5971 LP  0  0  0  0  0  0  0  0  0  0  0  0  # atno 17343 bound_to 10162
  156.0509  130.3718  150.1203 LP  0  0  0  0  0  0  0  0  0  0  0  0  # atno 17370 bound_to 10713
  156.9382  130.9736  151.3521 LP  0  0  0  0  0  0  0  0  0  0  0  0  # atno 17371 bound_to 10713
  139.8861  135.0079  156.6480 LP  0  0  0  0  0  0  0  0  0  0  0  0  # atno 17394 bound_to 11000
  140.7539  133.8874  155.8367 LP  0  0  0  0  0  0  0  0  0  0  0  0  # atno 17395 bound_to 11000

$$$$
