AV-unprocessed.smi:546|AV-procd|sdf|2888|dock8
  -GOLD-   2262023383D 1   1.00000     0.00000
 Structure written by MMmdl.
 51 53  0  0  0  0  0  0  0  0  2 V2000
  148.7550  140.5712  154.4412 C   0  0  0  0  0  0  0  0  0  0  0  0
  147.6490  139.7120  155.0574 C   0  0  0  0  0  0  0  0  0  0  0  0
  148.0240  138.3514  154.9476 O   0  0  0  0  0  0  0  0  0  0  0  0
  149.0949  137.9957  155.8055 C   0  0  0  0  0  0  0  0  0  0  0  0
  148.6832  138.2253  157.2671 C   0  0  0  0  0  0  0  0  0  0  0  0
  149.7732  137.9110  158.1861 N   0  0  0  0  0  0  0  0  0  0  0  0
  149.7688  137.0114  159.2065 C   0  0  0  0  0  0  0  0  0  0  0  0
  148.6335  136.2748  159.5542 N   0  0  0  0  0  0  0  0  0  0  0  0
  147.6944  135.7123  158.5783 C   0  0  0  0  0  0  0  0  0  0  0  0
  147.0330  134.3889  159.0297 C   0  0  1  0  0  0  0  0  0  0  0  0
  147.9736  133.1759  158.9489 C   0  0  0  0  0  0  0  0  0  0  0  0
  146.3974  134.5486  160.4207 C   0  0  0  0  0  0  0  0  0  0  0  0
  147.3941  135.1631  161.4157 C   0  0  2  0  0  0  0  0  0  0  0  0
  146.7487  135.3929  162.7886 C   0  0  0  0  0  0  0  0  0  0  0  0
  147.9589  136.4719  160.8370 C   0  0  0  0  0  0  0  0  0  0  0  0
  150.9424  136.8700  159.8260 N   0  0  0  0  0  0  0  0  0  0  0  0
  151.7591  137.7697  159.1597 C   0  0  0  0  0  0  0  0  0  0  0  0
  151.0816  138.4102  158.1694 C   0  0  0  0  0  0  0  0  0  0  0  0
  151.6996  139.4105  157.2682 C   0  0  0  0  0  0  0  0  0  0  0  0
  151.0520  139.9539  156.3760 O   0  0  0  0  0  0  0  0  0  0  0  0
  153.0212  139.6252  157.5615 N   0  5  0  0  0  0  0  0  0  0  0  0
  153.7424  139.0016  158.5563 C   0  0  0  0  0  0  0  0  0  0  0  0
  154.9314  139.2558  158.7540 O   0  0  0  0  0  0  0  0  0  0  0  0
  153.1342  138.0711  159.3566 N   0  0  0  0  0  0  0  0  0  0  0  0
  153.8790  137.3844  160.4159 C   0  0  0  0  0  0  0  0  0  0  0  0
  148.5072  141.6308  154.5034 H   0  0  0  0  0  0  0  0  0  0  0  0
  148.9023  140.3218  153.3900 H   0  0  0  0  0  0  0  0  0  0  0  0
  149.7030  140.4168  154.9569 H   0  0  0  0  0  0  0  0  0  0  0  0
  147.5043  139.9798  156.1048 H   0  0  0  0  0  0  0  0  0  0  0  0
  146.7072  139.8869  154.5354 H   0  0  0  0  0  0  0  0  0  0  0  0
  149.3678  136.9505  155.6536 H   0  0  0  0  0  0  0  0  0  0  0  0
  149.9708  138.6015  155.5689 H   0  0  0  0  0  0  0  0  0  0  0  0
  148.3550  139.2513  157.4174 H   0  0  0  0  0  0  0  0  0  0  0  0
  147.8146  137.6223  157.5103 H   0  0  0  0  0  0  0  0  0  0  0  0
  146.9156  136.4571  158.4094 H   0  0  0  0  0  0  0  0  0  0  0  0
  148.1824  135.5828  157.6129 H   0  0  0  0  0  0  0  0  0  0  0  0
  146.2230  134.1831  158.3288 H   0  0  0  0  0  0  0  0  0  0  0  0
  148.8310  133.2813  159.6115 H   0  0  0  0  0  0  0  0  0  0  0  0
  148.3481  133.0372  157.9347 H   0  0  0  0  0  0  0  0  0  0  0  0
  147.4531  132.2599  159.2295 H   0  0  0  0  0  0  0  0  0  0  0  0
  145.5250  135.1990  160.3397 H   0  0  0  0  0  0  0  0  0  0  0  0
  146.0300  133.5889  160.7862 H   0  0  0  0  0  0  0  0  0  0  0  0
  148.2223  134.4676  161.5579 H   0  0  0  0  0  0  0  0  0  0  0  0
  145.9176  136.0960  162.7246 H   0  0  0  0  0  0  0  0  0  0  0  0
  147.4715  135.7961  163.4986 H   0  0  0  0  0  0  0  0  0  0  0  0
  146.3655  134.4600  163.2026 H   0  0  0  0  0  0  0  0  0  0  0  0
  148.6676  136.9022  161.5460 H   0  0  0  0  0  0  0  0  0  0  0  0
  147.1631  137.2074  160.7111 H   0  0  0  0  0  0  0  0  0  0  0  0
  154.2153  138.0989  161.1679 H   0  0  0  0  0  0  0  0  0  0  0  0
  154.7563  136.8822  160.0059 H   0  0  0  0  0  0  0  0  0  0  0  0
  153.2841  136.6277  160.9262 H   0  0  0  0  0  0  0  0  0  0  0  0
  1  2  1  0  0  0  0
  1 26  1  0  0  0  0
  1 27  1  0  0  0  0
  1 28  1  0  0  0  0
  2  3  1  0  0  0  0
  2 29  1  0  0  0  0
  2 30  1  0  0  0  0
  3  4  1  0  0  0  0
  4  5  1  0  0  0  0
  4 31  1  0  0  0  0
  4 32  1  0  0  0  0
  5  6  1  0  0  0  0
  5 33  1  0  0  0  0
  5 34  1  0  0  0  0
  6 18  1  0  0  0  0
  6  7  1  0  0  0  0
  7  8  1  0  0  0  0
  7 16  2  0  0  0  0
  8 15  1  0  0  0  0
  8  9  1  0  0  0  0
  9 10  1  0  0  0  0
  9 35  1  0  0  0  0
  9 36  1  0  0  0  0
 10 11  1  0  0  0  0
 10 12  1  0  0  0  0
 10 37  1  0  0  0  0
 11 38  1  0  0  0  0
 11 39  1  0  0  0  0
 11 40  1  0  0  0  0
 12 13  1  0  0  0  0
 12 41  1  0  0  0  0
 12 42  1  0  0  0  0
 13 14  1  0  0  0  0
 13 15  1  0  0  0  0
 13 43  1  0  0  0  0
 14 44  1  0  0  0  0
 14 45  1  0  0  0  0
 14 46  1  0  0  0  0
 15 47  1  0  0  0  0
 15 48  1  0  0  0  0
 16 17  1  0  0  0  0
 17 24  1  0  0  0  0
 17 18  2  0  0  0  0
 18 19  1  0  0  0  0
 19 20  2  0  0  0  0
 19 21  1  0  0  0  0
 21 22  1  0  0  0  0
 22 23  2  0  0  0  0
 22 24  1  0  0  0  0
 24 25  1  0  0  0  0
 25 49  1  0  0  0  0
 25 50  1  0  0  0  0
 25 51  1  0  0  0  0
M  CHG  1  21  -1
M  END
> <s_m_source_file>
AV-unprocessed.smi

> <i_m_source_file_index>
546

> <i_lp_mmshare_version>
43012

> <i_f3d_flags>
0

> <s_epik_input>
W0NIM11uMWMoPU8pW25IXWMoPU8pYyhjMTIpbihbQ0gyXVtDSDJdT1tDSDJdW0NIM10pYyhuMilOM1tDSDJdW0NAQEhdKFtDSDNdKVtDSDJdW0NAQEhdKFtDSDNdKVtDSDJdMw==

> <s_epik_cmdline>
J2VwaWtfcHl0aG9uJywgJy1waCcsICc3LjAnLCAnLXRuJywgJzgnLCAnLW1hJywgJzIwMCcsICctbWV0YWxfYmluZGluZycsICctaW1hZScsICc8aW5maWxlLm1hZT4nLCAnLW9tYWUnLCAnPG91dGZpbGUubWFlPic=

> <r_lp_tautomer_probability>
1

> <r_epik_Ionization_Penalty>
5.12825

> <r_epik_Ionization_Penalty_Charging>
0.0743105

> <r_epik_Ionization_Penalty_Neutral>
5.05394

> <r_epik_State_Penalty>
5.04406

> <r_epik_Charging_Adjusted_Penalty>
5.11837

> <i_epik_Tot_Q>
-1

> <i_epik_Tot_abs_Q>
1

> <r_epik_Metal_State_Penalty>
1.15122

> <b_epik_Metal_Only>
1

> <s_lp_Force_Field>
OPLS_2005

> <r_lp_Energy>
44.0722

> <b_lp_Chiralities_Consistent>
1

> <s_lp_Variant>
AV-unprocessed.smi:546-6

> <Gold.Version>
5.8.1

> <Gold.Id.Protein>
6NUR|6NUR_protein|mol2

> <Gold.PLP.Fitness>
37.4488

> <Gold.PLP.PLP>
-29.2917

> <Gold.PLP.part.hbond>
-3.0000

> <Gold.PLP.part.metal>
0.0000

> <Gold.PLP.part.buried>
-2.4136

> <Gold.PLP.part.nonpolar>
-23.6591

> <Gold.PLP.part.repulsive>
0.0929

> <Gold.PLP.ligand.clash>
0.0000

> <Gold.PLP.ligand.torsion>
0.9934

> <Gold.PLP.Chemscore.Hbond>
3.1837

> <Gold.PLP.Chemscore.CHOScore>
0.0000

> <Gold.PLP.Chemscore.Metal>
0.0000

> <Gold.Chemscore.Hbonds>
donor molecule, donor type, donor heavy atom, donor atom, acceptor molecule, acceptor atom, score
      P1  H  6896  6908       L1    16  1.00
      P1  H  7997  8009       L1    23  0.18
      P1  H  7997  8010       L1    21  1.70

> <Gold.PLP.Chemscore.Internal.Correction>
0.5929

> <Gold.Rescore>
     Score         DG    S(hbond)    S(metal)    S(lipo)     H(rot)  DE(clash)    DE(int)     intcor
     11.29     -13.95       1.87        0.00      52.13       1.52       0.02       2.64       ----

> <Gold.Chemscore.Fitness>
11.2937

> <Gold.Chemscore.DG>
-13.9465

> <Gold.Chemscore.ZeroCoef>
-5.4800

> <Gold.Chemscore.Hbond>
1.8741

> <Gold.Chemscore.Metal>
0.0000

> <Gold.Chemscore.Lipo>
52.1342

> <Gold.Chemscore.Internal_Hbond>
0.0000

> <Gold.Chemscore.DEClash>
0.0169

> <Gold.Chemscore.DEInternal>
2.6359

> <Gold.Chemscore.Rot>
1.5206

> <Gold.Chemscore.Internal.Correction>
   9.000000E+99

> <Gold.Chemscore.Hbonds>
donor molecule, donor type, donor heavy atom, donor atom, acceptor molecule, acceptor atom, score
      P1  H  6896  6908       L1    16  0.40
      P1  H  7997  8009       L1    23  0.17
      P1  H  7997  8010       L1    21  0.14

> <Gold.Chemscore.Hbond.Weighted>
-6.2594

> <Gold.Chemscore.Metal.Weighted>
-0.0000

> <Gold.Chemscore.Lipo.Weighted>
-6.0997

> <Gold.Chemscore.Internal_Hbond.Weighted>
0.0000

> <Gold.Chemscore.DEClash.Weighted>
0.0169

> <Gold.Chemscore.DEInternal.Weighted>
2.6359

> <Gold.Chemscore.Rot.Weighted>
3.8926

> <Gold.Chemscore.Internal.Correction.Weighted>
   9.000000E+99

> <Gold.Protein.RotatedTorsions>
[ 6907 6896 6895 6894 ] final -145.94 input  -60.11 | X-H torsion
[ 7974 7965 7964 7962 ] final  -35.89 input  175.53 | X-H torsion
[ 8008 7997 7996 7995 ] final   64.99 input   59.86 | X-H torsion
[ 10167 10162 10161 10158 ] final  -44.48 input  -65.29 | X-H torsion
[ 10718 10713 10712 10709 ] final   53.43 input   66.30 | X-H torsion
[ 10763 10752 10751 10750 ] final   66.39 input  -60.55 | X-H torsion
[ 11005 11000 10999 10996 ] final  -31.16 input  -57.11 | X-H torsion

> <Gold.Protein.ActiveResidues>
 VAL166  LYS551  ARG553  GLY616  TRP617  ASP618  TYR619  PRO620  LYS621  CYS622 
 ASP623  PHE694  ASN695  SER759  ASP760  ASP761  ALA762  ILE779  LEU786  VAL792 
 PHE793  MET794  SER795  GLU796  ALA797  LYS798  CYS799  TRP800  GLU811  SER814 

> <Gold.Protein.RotatedAtoms>
  151.1347  133.5013  159.2598 H   0  0  0  0  0  0  0  0  0  0  0  0  # atno 6907 bound_to 6896
  151.1720  135.0321  159.8765 H   0  0  0  0  0  0  0  0  0  0  0  0  # atno 6908 bound_to 6896
  152.5461  134.1209  159.8452 H   0  0  0  0  0  0  0  0  0  0  0  0  # atno 6909 bound_to 6896
  146.0708  140.6213  142.8953 H   0  0  0  0  0  0  0  0  0  0  0  0  # atno 7974 bound_to 7965
  155.6547  140.3497  155.4760 H   0  0  0  0  0  0  0  0  0  0  0  0  # atno 8008 bound_to 7997
  155.9819  140.1176  157.0742 H   0  0  0  0  0  0  0  0  0  0  0  0  # atno 8009 bound_to 7997
  154.4194  140.1136  156.5433 H   0  0  0  0  0  0  0  0  0  0  0  0  # atno 8010 bound_to 7997
  140.6895  143.2928  151.3501 H   0  0  0  0  0  0  0  0  0  0  0  0  # atno 10167 bound_to 10162
  157.5166  130.8537  149.8504 H   0  0  0  0  0  0  0  0  0  0  0  0  # atno 10718 bound_to 10713
  153.0138  135.5322  154.6816 H   0  0  0  0  0  0  0  0  0  0  0  0  # atno 10763 bound_to 10752
  154.5974  135.2865  155.0574 H   0  0  0  0  0  0  0  0  0  0  0  0  # atno 10764 bound_to 10752
  154.1644  135.6542  153.5046 H   0  0  0  0  0  0  0  0  0  0  0  0  # atno 10765 bound_to 10752
  140.9444  133.7259  156.1125 H   0  0  0  0  0  0  0  0  0  0  0  0  # atno 11005 bound_to 11000
  144.7231  140.4437  143.6993 LP  0  0  0  0  0  0  0  0  0  0  0  0  # atno 17320 bound_to 7965
  145.6394  139.1548  143.2924 LP  0  0  0  0  0  0  0  0  0  0  0  0  # atno 17321 bound_to 7965
  139.6284  144.0769  152.2455 LP  0  0  0  0  0  0  0  0  0  0  0  0  # atno 17342 bound_to 10162
  140.0235  144.6135  150.7546 LP  0  0  0  0  0  0  0  0  0  0  0  0  # atno 17343 bound_to 10162
  156.0325  130.3760  150.1650 LP  0  0  0  0  0  0  0  0  0  0  0  0  # atno 17370 bound_to 10713
  156.9838  130.9872  151.3431 LP  0  0  0  0  0  0  0  0  0  0  0  0  # atno 17371 bound_to 10713
  140.7689  134.3855  157.5511 LP  0  0  0  0  0  0  0  0  0  0  0  0  # atno 17394 bound_to 11000
  139.8829  134.9009  156.2800 LP  0  0  0  0  0  0  0  0  0  0  0  0  # atno 17395 bound_to 11000

$$$$
