AV-unprocessed.smi:2034|AV-procd|sdf|8267|dock4
  -GOLD-   2272010543D 1   1.00000     0.00000
 Structure written by MMmdl.
 50 52  0  0  0  0  0  0  0  0  1 V2000
  152.4094  144.5922  157.8628 C   0  0  0  0  0  0  0  0  0  0  0  0
  151.4708  143.7995  158.7899 C   0  0  1  0  0  0  0  0  0  0  0  0
  150.5865  142.7834  158.0414 C   0  0  0  0  0  0  0  0  0  0  0  0
  151.3514  141.5995  157.6537 N   0  0  0  0  0  0  0  0  0  0  0  0
  150.7552  140.7539  156.6915 C   0  0  0  0  0  0  0  0  0  0  0  0
  151.5105  140.1130  155.6773 C   0  0  0  0  0  0  0  0  0  0  0  0
  150.8526  139.2895  154.7435 C   0  0  0  0  0  0  0  0  0  0  0  0
  149.4532  139.1183  154.8454 C   0  0  0  0  0  0  0  0  0  0  0  0
  148.6771  138.3347  153.9496 N   0  0  0  0  0  0  0  0  0  0  0  0
  147.3561  138.4042  153.7121 C   0  0  0  0  0  0  0  0  0  0  0  0
  146.5891  139.2329  154.2024 O   0  0  0  0  0  0  0  0  0  0  0  0
  146.9699  137.4585  152.8443 N   0  0  0  0  0  0  0  0  0  0  0  0
  145.6009  137.2487  152.3867 C   0  0  0  0  0  0  0  0  0  0  0  0
  145.5137  136.0912  151.3779 C   0  0  2  0  0  0  0  0  0  0  0  0
  144.0820  135.6436  151.0835 C   0  0  0  0  0  0  0  0  0  0  0  0
  144.2892  134.2085  150.6567 C   0  0  0  0  0  0  0  0  0  0  0  0
  145.3875  133.7627  151.6155 C   0  0  0  0  0  0  0  0  0  0  0  0
  146.1704  134.9249  151.8727 O   0  0  0  0  0  0  0  0  0  0  0  0
  148.7859  139.8072  155.8765 C   0  0  0  0  0  0  0  0  0  0  0  0
  149.4125  140.5951  156.7747 N   0  0  0  0  0  0  0  0  0  0  0  0
  152.0986  140.9963  158.7520 C   0  0  0  0  0  0  0  0  0  0  0  0
  152.9787  142.0483  159.4500 C   0  0  2  0  0  0  0  0  0  0  0  0
  153.6656  141.4803  160.6963 C   0  0  0  0  0  0  0  0  0  0  0  0
  152.1754  143.1558  159.8534 O   0  0  0  0  0  0  0  0  0  0  0  0
  151.8361  145.1822  157.1478 H   0  0  0  0  0  0  0  0  0  0  0  0
  153.0689  143.9431  157.2877 H   0  0  0  0  0  0  0  0  0  0  0  0
  153.0305  145.2812  158.4353 H   0  0  0  0  0  0  0  0  0  0  0  0
  150.8103  144.5272  159.2621 H   0  0  0  0  0  0  0  0  0  0  0  0
  149.7709  142.4611  158.6897 H   0  0  0  0  0  0  0  0  0  0  0  0
  150.1279  143.2738  157.1830 H   0  0  0  0  0  0  0  0  0  0  0  0
  152.5804  140.2292  155.5964 H   0  0  0  0  0  0  0  0  0  0  0  0
  151.4317  138.8201  153.9634 H   0  0  0  0  0  0  0  0  0  0  0  0
  149.1950  137.6674  153.3970 H   0  0  0  0  0  0  0  0  0  0  0  0
  147.6703  136.8251  152.4873 H   0  0  0  0  0  0  0  0  0  0  0  0
  144.9297  137.0780  153.2303 H   0  0  0  0  0  0  0  0  0  0  0  0
  145.2690  138.1719  151.9110 H   0  0  0  0  0  0  0  0  0  0  0  0
  145.9953  136.3716  150.4395 H   0  0  0  0  0  0  0  0  0  0  0  0
  143.4733  135.6769  151.9886 H   0  0  0  0  0  0  0  0  0  0  0  0
  143.5949  136.2519  150.3210 H   0  0  0  0  0  0  0  0  0  0  0  0
  143.3864  133.6015  150.7286 H   0  0  0  0  0  0  0  0  0  0  0  0
  144.6483  134.1706  149.6273 H   0  0  0  0  0  0  0  0  0  0  0  0
  144.9554  133.4228  152.5574 H   0  0  0  0  0  0  0  0  0  0  0  0
  145.9945  132.9536  151.2089 H   0  0  0  0  0  0  0  0  0  0  0  0
  147.7149  139.7219  155.9899 H   0  0  0  0  0  0  0  0  0  0  0  0
  151.3973  140.5556  159.4620 H   0  0  0  0  0  0  0  0  0  0  0  0
  152.7391  140.1961  158.3797 H   0  0  0  0  0  0  0  0  0  0  0  0
  153.7554  142.3878  158.7646 H   0  0  0  0  0  0  0  0  0  0  0  0
  154.3042  140.6345  160.4408 H   0  0  0  0  0  0  0  0  0  0  0  0
  152.9341  141.1387  161.4292 H   0  0  0  0  0  0  0  0  0  0  0  0
  154.2898  142.2348  161.1754 H   0  0  0  0  0  0  0  0  0  0  0  0
  1  2  1  0  0  0  0
  1 25  1  0  0  0  0
  1 26  1  0  0  0  0
  1 27  1  0  0  0  0
  2 24  1  0  0  0  0
  2  3  1  0  0  0  0
  2 28  1  0  0  0  0
  3  4  1  0  0  0  0
  3 29  1  0  0  0  0
  3 30  1  0  0  0  0
  4  5  1  0  0  0  0
  4 21  1  0  0  0  0
  5 20  1  0  0  0  0
  5  6  2  0  0  0  0
  6  7  1  0  0  0  0
  6 31  1  0  0  0  0
  7  8  2  0  0  0  0
  7 32  1  0  0  0  0
  8  9  1  0  0  0  0
  8 19  1  0  0  0  0
  9 10  1  0  0  0  0
  9 33  1  0  0  0  0
 10 11  2  0  0  0  0
 10 12  1  0  0  0  0
 12 13  1  0  0  0  0
 12 34  1  0  0  0  0
 13 14  1  0  0  0  0
 13 35  1  0  0  0  0
 13 36  1  0  0  0  0
 14 18  1  0  0  0  0
 14 15  1  0  0  0  0
 14 37  1  0  0  0  0
 15 16  1  0  0  0  0
 15 38  1  0  0  0  0
 15 39  1  0  0  0  0
 16 17  1  0  0  0  0
 16 40  1  0  0  0  0
 16 41  1  0  0  0  0
 17 18  1  0  0  0  0
 17 42  1  0  0  0  0
 17 43  1  0  0  0  0
 19 20  2  0  0  0  0
 19 44  1  0  0  0  0
 21 22  1  0  0  0  0
 21 45  1  0  0  0  0
 21 46  1  0  0  0  0
 22 23  1  0  0  0  0
 22 24  1  0  0  0  0
 22 47  1  0  0  0  0
 23 48  1  0  0  0  0
 23 49  1  0  0  0  0
 23 50  1  0  0  0  0
M  END
> <s_m_source_file>
AV-unprocessed.smi

> <i_m_source_file_index>
2034

> <i_lp_mmshare_version>
43012

> <i_f3d_flags>
0

> <s_epik_input>
W0NIM11bQ0BASF0xW0NIMl1OKFtDSDJdW0NASF0oTzEpW0NIM10pYzJbY0hdW2NIXWMoW2NIXW4yKVtOSF1DKD1PKVtOSF1bQ0gyXVtDQEBIXTNbQ0gyXVtDSDJdW0NIMl1PMw==

> <s_epik_cmdline>
J2VwaWtfcHl0aG9uJywgJy1waCcsICc3LjAnLCAnLXRuJywgJzgnLCAnLW1hJywgJzIwMCcsICctbWV0YWxfYmluZGluZycsICctaW1hZScsICc8aW5maWxlLm1hZT4nLCAnLW9tYWUnLCAnPG91dGZpbGUubWFlPic=

> <r_lp_tautomer_probability>
1

> <r_epik_Ionization_Penalty>
0.00268225

> <r_epik_Ionization_Penalty_Charging>
0

> <r_epik_Ionization_Penalty_Neutral>
0.00268225

> <r_epik_State_Penalty>
0.00184408

> <r_epik_Charging_Adjusted_Penalty>
0.00184408

> <i_epik_Tot_Q>
0

> <i_epik_Tot_abs_Q>
0

> <r_epik_Metal_State_Penalty>
-0

> <b_epik_Metal_Only>
0

> <s_lp_Force_Field>
OPLS_2005

> <r_lp_Energy>
36.2022

> <b_lp_Chiralities_Consistent>
1

> <s_lp_Variant>
AV-unprocessed.smi:2034-5

> <Gold.Version>
5.8.1

> <Gold.Id.Protein>
6NUR|6NUR_protein|mol2

> <Gold.PLP.Fitness>
48.0007

> <Gold.PLP.PLP>
-43.6816

> <Gold.PLP.part.hbond>
-1.9404

> <Gold.PLP.part.metal>
0.0000

> <Gold.PLP.part.buried>
-6.0255

> <Gold.PLP.part.nonpolar>
-37.3467

> <Gold.PLP.part.repulsive>
1.0852

> <Gold.PLP.ligand.clash>
0.0000

> <Gold.PLP.ligand.torsion>
0.6677

> <Gold.PLP.Chemscore.Hbond>
1.7354

> <Gold.PLP.Chemscore.CHOScore>
0.0000

> <Gold.PLP.Chemscore.Metal>
0.0000

> <Gold.Chemscore.Hbonds>
donor molecule, donor type, donor heavy atom, donor atom, acceptor molecule, acceptor atom, score
      L1  H     9    33       P1  7948  0.73
      L1  H    12    34       P1  7948  1.00

> <Gold.PLP.Chemscore.Internal.Correction>
0.4484

> <Gold.Rescore>
     Score         DG    S(hbond)    S(metal)    S(lipo)     H(rot)  DE(clash)    DE(int)     intcor
     19.38     -21.43       1.89        0.00     112.25       1.37       0.04       2.00       ----

> <Gold.Chemscore.Fitness>
19.3850

> <Gold.Chemscore.DG>
-21.4295

> <Gold.Chemscore.ZeroCoef>
-5.4800

> <Gold.Chemscore.Hbond>
1.8905

> <Gold.Chemscore.Metal>
0.0000

> <Gold.Chemscore.Lipo>
112.2470

> <Gold.Chemscore.Internal_Hbond>
0.0000

> <Gold.Chemscore.DEClash>
0.0416

> <Gold.Chemscore.DEInternal>
2.0029

> <Gold.Chemscore.Rot>
1.3663

> <Gold.Chemscore.Internal.Correction>
   9.000000E+99

> <Gold.Chemscore.Hbonds>
donor molecule, donor type, donor heavy atom, donor atom, acceptor molecule, acceptor atom, score
      L1  H     9    33       P1  7948  0.69
      L1  H    12    34       P1  7948  0.94

> <Gold.Chemscore.Hbond.Weighted>
-6.3143

> <Gold.Chemscore.Metal.Weighted>
-0.0000

> <Gold.Chemscore.Lipo.Weighted>
-13.1329

> <Gold.Chemscore.Internal_Hbond.Weighted>
0.0000

> <Gold.Chemscore.DEClash.Weighted>
0.0416

> <Gold.Chemscore.DEInternal.Weighted>
2.0029

> <Gold.Chemscore.Rot.Weighted>
3.4977

> <Gold.Chemscore.Internal.Correction.Weighted>
   9.000000E+99

> <Gold.Protein.RotatedTorsions>
[ 6907 6896 6895 6894 ] final  164.19 input  -60.11 | X-H torsion
[ 7974 7965 7964 7962 ] final   35.81 input  175.53 | X-H torsion
[ 8008 7997 7996 7995 ] final  174.61 input   59.86 | X-H torsion
[ 10167 10162 10161 10158 ] final  -93.03 input  -65.29 | X-H torsion
[ 10718 10713 10712 10709 ] final  -70.98 input   66.30 | X-H torsion
[ 10763 10752 10751 10750 ] final   38.77 input  -60.55 | X-H torsion
[ 11005 11000 10999 10996 ] final  -93.12 input  -57.11 | X-H torsion

> <Gold.Protein.ActiveResidues>
 VAL166  LYS551  ARG553  GLY616  TRP617  ASP618  TYR619  PRO620  LYS621  CYS622 
 ASP623  PHE694  ASN695  SER759  ASP760  ASP761  ALA762  ILE779  LEU786  VAL792 
 PHE793  MET794  SER795  GLU796  ALA797  LYS798  CYS799  TRP800  GLU811  SER814 

> <Gold.Protein.RotatedAtoms>
  151.9136  133.3567  159.3872 H   0  0  0  0  0  0  0  0  0  0  0  0  # atno 6907 bound_to 6896
  150.7052  134.4706  159.5433 H   0  0  0  0  0  0  0  0  0  0  0  0  # atno 6908 bound_to 6896
  152.2317  134.8315  160.0523 H   0  0  0  0  0  0  0  0  0  0  0  0  # atno 6909 bound_to 6896
  146.1256  139.6096  142.9260 H   0  0  0  0  0  0  0  0  0  0  0  0  # atno 7974 bound_to 7965
  156.0957  140.1430  156.9534 H   0  0  0  0  0  0  0  0  0  0  0  0  # atno 8008 bound_to 7997
  154.4670  140.0923  156.7091 H   0  0  0  0  0  0  0  0  0  0  0  0  # atno 8009 bound_to 7997
  155.4845  140.3446  155.4347 H   0  0  0  0  0  0  0  0  0  0  0  0  # atno 8010 bound_to 7997
  140.3288  143.3007  151.9965 H   0  0  0  0  0  0  0  0  0  0  0  0  # atno 10167 bound_to 10162
  156.0383  130.4342  150.2376 H   0  0  0  0  0  0  0  0  0  0  0  0  # atno 10718 bound_to 10713
  152.9989  135.6240  154.2358 H   0  0  0  0  0  0  0  0  0  0  0  0  # atno 10763 bound_to 10752
  154.2099  135.2800  155.2963 H   0  0  0  0  0  0  0  0  0  0  0  0  # atno 10764 bound_to 10752
  154.5615  135.5704  153.7070 H   0  0  0  0  0  0  0  0  0  0  0  0  # atno 10765 bound_to 10752
  141.1505  133.7866  157.0116 H   0  0  0  0  0  0  0  0  0  0  0  0  # atno 11005 bound_to 11000
  145.5372  141.0423  143.2351 LP  0  0  0  0  0  0  0  0  0  0  0  0  # atno 17320 bound_to 7965
  144.7639  139.6890  143.7223 LP  0  0  0  0  0  0  0  0  0  0  0  0  # atno 17321 bound_to 7965
  139.4860  144.6252  151.7179 LP  0  0  0  0  0  0  0  0  0  0  0  0  # atno 17342 bound_to 10162
  140.5416  144.0570  150.6091 LP  0  0  0  0  0  0  0  0  0  0  0  0  # atno 17343 bound_to 10162
  157.0473  131.0052  151.3265 LP  0  0  0  0  0  0  0  0  0  0  0  0  # atno 17370 bound_to 10713
  157.5166  130.7972  149.7763 LP  0  0  0  0  0  0  0  0  0  0  0  0  # atno 17371 bound_to 10713
  140.0874  134.9612  157.1722 LP  0  0  0  0  0  0  0  0  0  0  0  0  # atno 17394 bound_to 11000
  140.3493  134.2617  155.7201 LP  0  0  0  0  0  0  0  0  0  0  0  0  # atno 17395 bound_to 11000

$$$$
