AV-unprocessed.smi:646|AV-procd|sdf|3166|dock5
  -GOLD-   22720 0 83D 1   1.00000     0.00000
 Structure written by MMmdl.
 44 45  0  0  0  0  0  0  0  0  1 V2000
  149.1691  144.9928  160.9578 C   0  0  0  0  0  0  0  0  0  0  0  0
  150.3369  144.1812  160.9465 O   0  0  0  0  0  0  0  0  0  0  0  0
  151.2551  144.3648  159.8603 C   0  0  2  0  0  0  0  0  0  0  0  0
  151.8191  145.7914  159.8641 C   0  0  0  0  0  0  0  0  0  0  0  0
  150.6596  143.7919  158.5596 C   0  0  0  0  0  0  0  0  0  0  0  0
  151.1630  142.4246  159.0180 C   0  0  1  0  0  0  0  0  0  0  0  0
  151.6836  141.6186  157.9213 N   0  0  0  0  0  0  0  0  0  0  0  0
  151.6092  140.2810  157.8616 C   0  0  0  0  0  0  0  0  0  0  0  0
  150.9976  139.5960  158.6810 O   0  0  0  0  0  0  0  0  0  0  0  0
  152.3775  139.6119  156.7235 C   0  0  0  0  0  0  0  0  0  0  0  0
  152.2171  138.1171  156.8353 C   0  0  0  0  0  0  0  0  0  0  0  0
  152.6184  137.2731  157.9104 C   0  0  0  0  0  0  0  0  0  0  0  0
  153.2929  137.6572  159.1958 C   0  0  0  0  0  0  0  0  0  0  0  0
  152.3415  136.0024  157.6711 N   0  0  0  0  0  0  0  0  0  0  0  0
  151.7418  135.9723  156.4086 O   0  0  0  0  0  0  0  0  0  0  0  0
  151.6820  137.2411  155.9309 C   0  0  0  0  0  0  0  0  0  0  0  0
  151.0816  137.4146  154.5770 C   0  0  0  0  0  0  0  0  0  0  0  0
  152.2497  143.1585  159.8458 C   0  0  0  0  0  0  0  0  0  0  0  0
  153.6017  143.4082  159.1481 C   0  0  0  0  0  0  0  0  0  0  0  0
  152.5922  142.5332  161.2024 C   0  0  0  0  0  0  0  0  0  0  0  0
  148.4906  144.6288  161.7293 H   0  0  0  0  0  0  0  0  0  0  0  0
  148.6348  144.9674  160.0086 H   0  0  0  0  0  0  0  0  0  0  0  0
  149.4050  146.0288  161.2003 H   0  0  0  0  0  0  0  0  0  0  0  0
  152.5902  145.9246  159.1061 H   0  0  0  0  0  0  0  0  0  0  0  0
  152.2628  146.0390  160.8287 H   0  0  0  0  0  0  0  0  0  0  0  0
  151.0522  146.5345  159.6468 H   0  0  0  0  0  0  0  0  0  0  0  0
  149.5769  143.8586  158.4578 H   0  0  0  0  0  0  0  0  0  0  0  0
  151.1602  144.1649  157.6641 H   0  0  0  0  0  0  0  0  0  0  0  0
  150.4262  141.9099  159.6391 H   0  0  0  0  0  0  0  0  0  0  0  0
  152.2055  142.1003  157.2039 H   0  0  0  0  0  0  0  0  0  0  0  0
  152.0007  139.9825  155.7695 H   0  0  0  0  0  0  0  0  0  0  0  0
  153.4255  139.9097  156.7722 H   0  0  0  0  0  0  0  0  0  0  0  0
  152.8076  138.5218  159.6486 H   0  0  0  0  0  0  0  0  0  0  0  0
  154.3376  137.9164  159.0225 H   0  0  0  0  0  0  0  0  0  0  0  0
  153.2671  136.8460  159.9244 H   0  0  0  0  0  0  0  0  0  0  0  0
  151.4492  138.3225  154.0993 H   0  0  0  0  0  0  0  0  0  0  0  0
  149.9960  137.4827  154.6439 H   0  0  0  0  0  0  0  0  0  0  0  0
  151.3301  136.5725  153.9308 H   0  0  0  0  0  0  0  0  0  0  0  0
  154.1712  142.4858  159.0283 H   0  0  0  0  0  0  0  0  0  0  0  0
  154.2248  144.0967  159.7197 H   0  0  0  0  0  0  0  0  0  0  0  0
  153.4801  143.8358  158.1527 H   0  0  0  0  0  0  0  0  0  0  0  0
  153.2354  141.6596  161.0903 H   0  0  0  0  0  0  0  0  0  0  0  0
  151.7016  142.1977  161.7339 H   0  0  0  0  0  0  0  0  0  0  0  0
  153.1085  143.2431  161.8490 H   0  0  0  0  0  0  0  0  0  0  0  0
  1  2  1  0  0  0  0
  1 21  1  0  0  0  0
  1 22  1  0  0  0  0
  1 23  1  0  0  0  0
  2  3  1  0  0  0  0
  3 18  1  0  0  0  0
  3  4  1  0  0  0  0
  3  5  1  0  0  0  0
  4 24  1  0  0  0  0
  4 25  1  0  0  0  0
  4 26  1  0  0  0  0
  5  6  1  0  0  0  0
  5 27  1  0  0  0  0
  5 28  1  0  0  0  0
  6  7  1  0  0  0  0
  6 18  1  0  0  0  0
  6 29  1  0  0  0  0
  7  8  1  0  0  0  0
  7 30  1  0  0  0  0
  8  9  2  0  0  0  0
  8 10  1  0  0  0  0
 10 11  1  0  0  0  0
 10 31  1  0  0  0  0
 10 32  1  0  0  0  0
 11 16  2  0  0  0  0
 11 12  1  0  0  0  0
 12 13  1  0  0  0  0
 12 14  2  0  0  0  0
 13 33  1  0  0  0  0
 13 34  1  0  0  0  0
 13 35  1  0  0  0  0
 14 15  1  0  0  0  0
 15 16  1  0  0  0  0
 16 17  1  0  0  0  0
 17 36  1  0  0  0  0
 17 37  1  0  0  0  0
 17 38  1  0  0  0  0
 18 19  1  0  0  0  0
 18 20  1  0  0  0  0
 19 39  1  0  0  0  0
 19 40  1  0  0  0  0
 19 41  1  0  0  0  0
 20 42  1  0  0  0  0
 20 43  1  0  0  0  0
 20 44  1  0  0  0  0
M  END
> <s_m_source_file>
AV-unprocessed.smi

> <i_m_source_file_index>
646

> <i_lp_mmshare_version>
43012

> <i_f3d_flags>
0

> <s_epik_input>
W0NIM11PW0NAQF0xKFtDSDNdKVtDSDJdW0NASF0oQzEoW0NIM10pW0NIM10pW05IXUMoPU8pW0NIMl1jMmMoW0NIM10pbm9jMltDSDNd

> <s_epik_cmdline>
J2VwaWtfcHl0aG9uJywgJy1waCcsICc3LjAnLCAnLXRuJywgJzgnLCAnLW1hJywgJzIwMCcsICctbWV0YWxfYmluZGluZycsICctaW1hZScsICc8aW5maWxlLm1hZT4nLCAnLW9tYWUnLCAnPG91dGZpbGUubWFlPic=

> <r_lp_tautomer_probability>
1

> <r_epik_Ionization_Penalty>
2.13169e-08

> <r_epik_Ionization_Penalty_Charging>
0

> <r_epik_Ionization_Penalty_Neutral>
2.13169e-08

> <r_epik_State_Penalty>
-0

> <r_epik_Charging_Adjusted_Penalty>
0

> <i_epik_Tot_Q>
0

> <i_epik_Tot_abs_Q>
0

> <r_epik_Metal_State_Penalty>
-0

> <b_epik_Metal_Only>
0

> <s_lp_Force_Field>
OPLS_2005

> <r_lp_Energy>
15.8314

> <b_lp_Chiralities_Consistent>
1

> <s_lp_Variant>
AV-unprocessed.smi:646-2

> <Gold.Version>
5.8.1

> <Gold.Id.Protein>
6NUR|6NUR_protein|mol2

> <Gold.PLP.Fitness>
38.1141

> <Gold.PLP.PLP>
-36.0668

> <Gold.PLP.part.hbond>
-2.6653

> <Gold.PLP.part.metal>
0.0000

> <Gold.PLP.part.buried>
-3.8759

> <Gold.PLP.part.nonpolar>
-29.7692

> <Gold.PLP.part.repulsive>
0.2576

> <Gold.PLP.ligand.clash>
0.0000

> <Gold.PLP.ligand.torsion>
0.2935

> <Gold.PLP.Chemscore.Hbond>
0.7500

> <Gold.PLP.Chemscore.CHOScore>
0.0000

> <Gold.PLP.Chemscore.Metal>
0.0000

> <Gold.Chemscore.Hbonds>
donor molecule, donor type, donor heavy atom, donor atom, acceptor molecule, acceptor atom, score
      P1  H 10752 10765       L1    15  0.60

> <Gold.PLP.Chemscore.Internal.Correction>
0.3844

> <Gold.Rescore>
     Score         DG    S(hbond)    S(metal)    S(lipo)     H(rot)  DE(clash)    DE(int)     intcor
     14.84     -15.20       0.00        0.00     115.74       1.49       0.03       0.33       ----

> <Gold.Chemscore.Fitness>
14.8366

> <Gold.Chemscore.DG>
-15.2000

> <Gold.Chemscore.ZeroCoef>
-5.4800

> <Gold.Chemscore.Hbond>
0.0000

> <Gold.Chemscore.Metal>
0.0000

> <Gold.Chemscore.Lipo>
115.7398

> <Gold.Chemscore.Internal_Hbond>
0.0000

> <Gold.Chemscore.DEClash>
0.0344

> <Gold.Chemscore.DEInternal>
0.3290

> <Gold.Chemscore.Rot>
1.4928

> <Gold.Chemscore.Internal.Correction>
   9.000000E+99

> <Gold.Chemscore.Hbonds>
donor molecule, donor type, donor heavy atom, donor atom, acceptor molecule, acceptor atom, score
      P1  H 10752 10765       L1    15  0.03

> <Gold.Chemscore.Hbond.Weighted>
-0.0001

> <Gold.Chemscore.Metal.Weighted>
-0.0000

> <Gold.Chemscore.Lipo.Weighted>
-13.5416

> <Gold.Chemscore.Internal_Hbond.Weighted>
0.0000

> <Gold.Chemscore.DEClash.Weighted>
0.0344

> <Gold.Chemscore.DEInternal.Weighted>
0.3290

> <Gold.Chemscore.Rot.Weighted>
3.8217

> <Gold.Chemscore.Internal.Correction.Weighted>
   9.000000E+99

> <Gold.Protein.RotatedTorsions>
[ 6907 6896 6895 6894 ] final   38.06 input  -60.11 | X-H torsion
[ 7974 7965 7964 7962 ] final  -60.71 input  175.53 | X-H torsion
[ 8008 7997 7996 7995 ] final  -71.67 input   59.86 | X-H torsion
[ 10167 10162 10161 10158 ] final -137.28 input  -65.29 | X-H torsion
[ 10718 10713 10712 10709 ] final   71.53 input   66.30 | X-H torsion
[ 10763 10752 10751 10750 ] final -149.79 input  -60.55 | X-H torsion
[ 11005 11000 10999 10996 ] final -111.47 input  -57.11 | X-H torsion

> <Gold.Protein.ActiveResidues>
 VAL166  LYS551  ARG553  GLY616  TRP617  ASP618  TYR619  PRO620  LYS621  CYS622 
 ASP623  PHE694  ASN695  SER759  ASP760  ASP761  ALA762  ILE779  LEU786  VAL792 
 PHE793  MET794  SER795  GLU796  ALA797  LYS798  CYS799  TRP800  GLU811  SER814 

> <Gold.Protein.RotatedAtoms>
  152.1514  134.8985  160.0547 H   0  0  0  0  0  0  0  0  0  0  0  0  # atno 6907 bound_to 6896
  152.0015  133.3822  159.4192 H   0  0  0  0  0  0  0  0  0  0  0  0  # atno 6908 bound_to 6896
  150.6876  134.3750  159.5053 H   0  0  0  0  0  0  0  0  0  0  0  0  # atno 6909 bound_to 6896
  145.8123  140.8591  143.0176 H   0  0  0  0  0  0  0  0  0  0  0  0  # atno 7974 bound_to 7965
  154.5106  140.0811  156.7982 H   0  0  0  0  0  0  0  0  0  0  0  0  # atno 8008 bound_to 7997
  155.3794  140.3427  155.4228 H   0  0  0  0  0  0  0  0  0  0  0  0  # atno 8009 bound_to 7997
  156.1568  140.1576  156.8666 H   0  0  0  0  0  0  0  0  0  0  0  0  # atno 8010 bound_to 7997
  139.8594  143.7097  152.2651 H   0  0  0  0  0  0  0  0  0  0  0  0  # atno 10167 bound_to 10162
  157.6456  130.9533  150.0802 H   0  0  0  0  0  0  0  0  0  0  0  0  # atno 10718 bound_to 10713
  154.8157  135.3300  154.7183 H   0  0  0  0  0  0  0  0  0  0  0  0  # atno 10763 bound_to 10752
  153.7824  135.6917  153.4890 H   0  0  0  0  0  0  0  0  0  0  0  0  # atno 10764 bound_to 10752
  153.1971  135.4529  155.0169 H   0  0  0  0  0  0  0  0  0  0  0  0  # atno 10765 bound_to 10752
  141.0732  133.9344  157.2442 H   0  0  0  0  0  0  0  0  0  0  0  0  # atno 11005 bound_to 11000
  144.6756  140.0413  143.7481 LP  0  0  0  0  0  0  0  0  0  0  0  0  # atno 17320 bound_to 7965
  145.9764  139.2908  143.1068 LP  0  0  0  0  0  0  0  0  0  0  0  0  # atno 17321 bound_to 7965
  139.7389  144.7564  151.0684 LP  0  0  0  0  0  0  0  0  0  0  0  0  # atno 17342 bound_to 10162
  140.7777  143.4997  150.9787 LP  0  0  0  0  0  0  0  0  0  0  0  0  # atno 17343 bound_to 10162
  156.1781  130.3649  149.9073 LP  0  0  0  0  0  0  0  0  0  0  0  0  # atno 17370 bound_to 10713
  156.7032  130.8941  151.3601 LP  0  0  0  0  0  0  0  0  0  0  0  0  # atno 17371 bound_to 10713
  139.9545  135.0168  156.9089 LP  0  0  0  0  0  0  0  0  0  0  0  0  # atno 17394 bound_to 11000
  140.5628  134.0518  155.7404 LP  0  0  0  0  0  0  0  0  0  0  0  0  # atno 17395 bound_to 11000

$$$$
