AV-unprocessed.smi:2854|AV-procd|sdf|10975|dock6
  -GOLD-   2272015433D 1   1.00000     0.00000
 Structure written by MMmdl.
 27 28  0  0  0  0  0  0  0  0  2 V2000
  148.4109  137.4202  154.1591 N   0  0  0  0  0  0  0  0  0  0  0  0
  148.0800  138.7613  153.9543 C   0  0  0  0  0  0  0  0  0  0  0  0
  146.8899  139.0835  153.2682 C   0  0  0  0  0  0  0  0  0  0  0  0
  146.5560  140.3753  153.0617 N   0  3  0  0  0  0  0  0  0  0  0  0
  147.3189  141.4043  153.4874 C   0  0  0  0  0  0  0  0  0  0  0  0
  148.5195  141.1481  154.1790 C   0  0  0  0  0  0  0  0  0  0  0  0
  148.9141  139.8098  154.4210 C   0  0  0  0  0  0  0  0  0  0  0  0
  150.1054  139.5193  155.1060 N   0  0  0  0  0  0  0  0  0  0  0  0
  151.0953  138.8276  154.2899 C   0  0  0  0  0  0  0  0  0  0  0  0
  152.3035  138.4292  155.1551 C   0  0  0  0  0  0  0  0  0  0  0  0
  152.8345  139.5871  155.7935 O   0  0  0  0  0  0  0  0  0  0  0  0
  151.8821  140.2097  156.6512 C   0  0  0  0  0  0  0  0  0  0  0  0
  150.6630  140.6572  155.8263 C   0  0  0  0  0  0  0  0  0  0  0  0
  149.2526  137.1457  154.6450 H   0  0  0  0  0  0  0  0  0  0  0  0
  147.8105  136.6774  153.8290 H   0  0  0  0  0  0  0  0  0  0  0  0
  146.1972  138.3514  152.8791 H   0  0  0  0  0  0  0  0  0  0  0  0
  146.9495  142.3945  153.2634 H   0  0  0  0  0  0  0  0  0  0  0  0
  149.1287  141.9733  154.5179 H   0  0  0  0  0  0  0  0  0  0  0  0
  150.6491  137.9404  153.8391 H   0  0  0  0  0  0  0  0  0  0  0  0
  151.4234  139.4749  153.4755 H   0  0  0  0  0  0  0  0  0  0  0  0
  152.0194  137.6868  155.9028 H   0  0  0  0  0  0  0  0  0  0  0  0
  153.0778  137.9773  154.5352 H   0  0  0  0  0  0  0  0  0  0  0  0
  151.5852  139.5205  157.4434 H   0  0  0  0  0  0  0  0  0  0  0  0
  152.3462  141.0697  157.1342 H   0  0  0  0  0  0  0  0  0  0  0  0
  150.9613  141.4343  155.1215 H   0  0  0  0  0  0  0  0  0  0  0  0
  149.9051  141.0876  156.4820 H   0  0  0  0  0  0  0  0  0  0  0  0
  145.6903  140.5820  152.5625 H   0  0  0  0  0  0  0  0  0  0  0  0
  1  2  1  0  0  0  0
  1 14  1  0  0  0  0
  1 15  1  0  0  0  0
  2  7  1  0  0  0  0
  2  3  2  0  0  0  0
  3  4  1  0  0  0  0
  3 16  1  0  0  0  0
  4  5  2  0  0  0  0
  4 27  1  0  0  0  0
  5  6  1  0  0  0  0
  5 17  1  0  0  0  0
  6  7  2  0  0  0  0
  6 18  1  0  0  0  0
  7  8  1  0  0  0  0
  8 13  1  0  0  0  0
  8  9  1  0  0  0  0
  9 10  1  0  0  0  0
  9 19  1  0  0  0  0
  9 20  1  0  0  0  0
 10 11  1  0  0  0  0
 10 21  1  0  0  0  0
 10 22  1  0  0  0  0
 11 12  1  0  0  0  0
 12 13  1  0  0  0  0
 12 23  1  0  0  0  0
 12 24  1  0  0  0  0
 13 25  1  0  0  0  0
 13 26  1  0  0  0  0
M  CHG  1   4   1
M  END
> <s_m_source_file>
AV-unprocessed.smi

> <i_m_source_file_index>
2854

> <i_lp_mmshare_version>
43012

> <i_f3d_flags>
0

> <s_epik_input>
W05IMl1jMVtjSF1uW2NIXVtjSF1jMU4yW0NIMl1bQ0gyXU9bQ0gyXVtDSDJdMg==

> <s_epik_cmdline>
J2VwaWtfcHl0aG9uJywgJy1waCcsICc3LjAnLCAnLXRuJywgJzgnLCAnLW1hJywgJzIwMCcsICctbWV0YWxfYmluZGluZycsICctaW1hZScsICc8aW5maWxlLm1hZT4nLCAnLW9tYWUnLCAnPG91dGZpbGUubWFlPic=

> <r_lp_tautomer_probability>
0.999846

> <r_epik_Ionization_Penalty>
0.0229726

> <r_epik_Ionization_Penalty_Charging>
0.0229724

> <r_epik_Ionization_Penalty_Neutral>
1.97994e-07

> <r_epik_State_Penalty>
0.0185659

> <r_epik_Charging_Adjusted_Penalty>
0.0415384

> <i_epik_Tot_Q>
1

> <i_epik_Tot_abs_Q>
1

> <r_epik_Metal_State_Penalty>
2.0686

> <b_epik_Metal_Only>
0

> <s_lp_Force_Field>
OPLS_2005

> <r_lp_Energy>
29.6275

> <b_lp_Chiralities_Consistent>
1

> <s_lp_Variant>
AV-unprocessed.smi:2854-1

> <Gold.Version>
5.8.1

> <Gold.Id.Protein>
6NUR|6NUR_protein|mol2

> <Gold.PLP.Fitness>
33.9329

> <Gold.PLP.PLP>
-25.8524

> <Gold.PLP.part.hbond>
-3.0000

> <Gold.PLP.part.metal>
0.0000

> <Gold.PLP.part.buried>
-4.3821

> <Gold.PLP.part.nonpolar>
-18.8972

> <Gold.PLP.part.repulsive>
0.0775

> <Gold.PLP.ligand.clash>
0.0894

> <Gold.PLP.ligand.torsion>
0.2243

> <Gold.PLP.Chemscore.Hbond>
2.8320

> <Gold.PLP.Chemscore.CHOScore>
0.0000

> <Gold.PLP.Chemscore.Metal>
0.0000

> <Gold.Chemscore.Hbonds>
donor molecule, donor type, donor heavy atom, donor atom, acceptor molecule, acceptor atom, score
      L1  H     4    27       P1 10175  2.00
      P1  H  7997  8008       L1    11  0.83

> <Gold.PLP.Chemscore.Internal.Correction>
0.1224

> <Gold.Rescore>
     Score         DG    S(hbond)    S(metal)    S(lipo)     H(rot)  DE(clash)    DE(int)     intcor
     14.28     -15.40       1.89        0.00      52.58       1.00       0.00       1.12       ----

> <Gold.Chemscore.Fitness>
14.2786

> <Gold.Chemscore.DG>
-15.3991

> <Gold.Chemscore.ZeroCoef>
-5.4800

> <Gold.Chemscore.Hbond>
1.8943

> <Gold.Chemscore.Metal>
0.0000

> <Gold.Chemscore.Lipo>
52.5833

> <Gold.Chemscore.Internal_Hbond>
0.0000

> <Gold.Chemscore.DEClash>
0.0015

> <Gold.Chemscore.DEInternal>
1.1190

> <Gold.Chemscore.Rot>
1.0000

> <Gold.Chemscore.Internal.Correction>
   9.000000E+99

> <Gold.Chemscore.Hbonds>
donor molecule, donor type, donor heavy atom, donor atom, acceptor molecule, acceptor atom, score
      L1  H     1    15       P1  7948  0.01
      L1  H     4    27       P1 10175  0.41
      P1  H  7997  8008       L1    11  0.24

> <Gold.Chemscore.Hbond.Weighted>
-6.3268

> <Gold.Chemscore.Metal.Weighted>
-0.0000

> <Gold.Chemscore.Lipo.Weighted>
-6.1522

> <Gold.Chemscore.Internal_Hbond.Weighted>
0.0000

> <Gold.Chemscore.DEClash.Weighted>
0.0015

> <Gold.Chemscore.DEInternal.Weighted>
1.1190

> <Gold.Chemscore.Rot.Weighted>
2.5600

> <Gold.Chemscore.Internal.Correction.Weighted>
   9.000000E+99

> <Gold.Protein.RotatedTorsions>
[ 6907 6896 6895 6894 ] final   20.74 input  -60.11 | X-H torsion
[ 7974 7965 7964 7962 ] final  -46.27 input  175.53 | X-H torsion
[ 8008 7997 7996 7995 ] final  -60.21 input   59.86 | X-H torsion
[ 10167 10162 10161 10158 ] final   -5.25 input  -65.29 | X-H torsion
[ 10718 10713 10712 10709 ] final  136.76 input   66.30 | X-H torsion
[ 10763 10752 10751 10750 ] final    8.69 input  -60.55 | X-H torsion
[ 11005 11000 10999 10996 ] final -128.21 input  -57.11 | X-H torsion

> <Gold.Protein.ActiveResidues>
 VAL166  LYS551  ARG553  GLY616  TRP617  ASP618  TYR619  PRO620  LYS621  CYS622 
 ASP623  PHE694  ASN695  SER759  ASP760  ASP761  ALA762  ILE779  LEU786  VAL792 
 PHE793  MET794  SER795  GLU796  ALA797  LYS798  CYS799  TRP800  GLU811  SER814 

> <Gold.Protein.RotatedAtoms>
  151.9010  135.0378  160.0506 H   0  0  0  0  0  0  0  0  0  0  0  0  # atno 6907 bound_to 6896
  152.2358  133.5090  159.5250 H   0  0  0  0  0  0  0  0  0  0  0  0  # atno 6908 bound_to 6896
  150.7038  134.1072  159.4029 H   0  0  0  0  0  0  0  0  0  0  0  0  # atno 6909 bound_to 6896
  145.9736  140.7357  142.9398 H   0  0  0  0  0  0  0  0  0  0  0  0  # atno 7974 bound_to 7965
  154.4388  140.1044  156.6238 H   0  0  0  0  0  0  0  0  0  0  0  0  # atno 8008 bound_to 7997
  155.5679  140.3488  155.4489 H   0  0  0  0  0  0  0  0  0  0  0  0  # atno 8009 bound_to 7997
  156.0411  140.1282  157.0143 H   0  0  0  0  0  0  0  0  0  0  0  0  # atno 8010 bound_to 7997
  140.6956  143.6330  150.8506 H   0  0  0  0  0  0  0  0  0  0  0  0  # atno 10167 bound_to 10162
  157.4432  131.1059  151.0119 H   0  0  0  0  0  0  0  0  0  0  0  0  # atno 10718 bound_to 10713
  153.2223  135.6882  153.7986 H   0  0  0  0  0  0  0  0  0  0  0  0  # atno 10763 bound_to 10752
  153.7180  135.3272  155.3261 H   0  0  0  0  0  0  0  0  0  0  0  0  # atno 10764 bound_to 10752
  154.8275  135.4606  154.1075 H   0  0  0  0  0  0  0  0  0  0  0  0  # atno 10765 bound_to 10752
  140.9535  134.1034  157.4039 H   0  0  0  0  0  0  0  0  0  0  0  0  # atno 11005 bound_to 11000
  144.6843  140.2790  143.7295 LP  0  0  0  0  0  0  0  0  0  0  0  0  # atno 17320 bound_to 7965
  145.7871  139.1913  143.2124 LP  0  0  0  0  0  0  0  0  0  0  0  0  # atno 17321 bound_to 7965
  140.0047  143.5706  152.2862 LP  0  0  0  0  0  0  0  0  0  0  0  0  # atno 17342 bound_to 10162
  139.6408  144.7654  151.2342 LP  0  0  0  0  0  0  0  0  0  0  0  0  # atno 17343 bound_to 10162
  157.0974  130.5967  149.5453 LP  0  0  0  0  0  0  0  0  0  0  0  0  # atno 17370 bound_to 10713
  155.9957  130.5024  150.7469 LP  0  0  0  0  0  0  0  0  0  0  0  0  # atno 17371 bound_to 10713
  139.8855  135.0072  156.6437 LP  0  0  0  0  0  0  0  0  0  0  0  0  # atno 17394 bound_to 11000
  140.7569  133.8850  155.8389 LP  0  0  0  0  0  0  0  0  0  0  0  0  # atno 17395 bound_to 11000

$$$$
