AV-unprocessed.smi:2026|AV-procd|sdf|8205|dock1
  -GOLD-   2272010463D 1   1.00000     0.00000
 Structure written by MMmdl.
 45 47  0  0  0  0  0  0  0  0  2 V2000
  152.8242  142.8963  161.5069 C   0  0  0  0  0  0  0  0  0  0  0  0
  152.2585  142.5436  160.1427 C   0  0  0  0  0  0  0  0  0  0  0  0
  152.6912  141.3586  159.5042 C   0  0  0  0  0  0  0  0  0  0  0  0
  152.1889  140.9952  158.2349 C   0  0  0  0  0  0  0  0  0  0  0  0
  152.4643  139.8978  157.4358 N   0  0  0  0  0  0  0  0  0  0  0  0
  151.6840  140.1298  156.3830 C   0  0  0  0  0  0  0  0  0  0  0  0
  150.9365  141.2494  156.4070 N   0  0  0  0  0  0  0  0  0  0  0  0
  150.0175  141.7267  155.3921 C   0  0  0  0  0  0  0  0  0  0  0  0
  149.2578  140.5682  154.7141 C   0  0  2  0  0  0  0  0  0  0  0  0
  150.1164  139.9181  153.7987 O   0  0  0  0  0  0  0  0  0  0  0  0
  147.9831  141.0097  153.9656 C   0  0  0  0  0  0  0  0  0  0  0  0
  146.9002  141.3873  154.8834 N   0  0  0  0  0  0  0  0  0  0  0  0
  146.5985  140.7596  156.0366 C   0  0  0  0  0  0  0  0  0  0  0  0
  147.2356  139.7889  156.4443 O   0  0  0  0  0  0  0  0  0  0  0  0
  145.5296  141.3337  156.6372 N   0  5  0  0  0  0  0  0  0  0  0  0
  145.0662  142.4348  155.8170 C   0  0  0  0  0  0  0  0  0  0  0  0
  143.6282  142.1669  155.3330 C   0  0  0  0  0  0  0  0  0  0  0  0
  145.1659  143.7581  156.5985 C   0  0  0  0  0  0  0  0  0  0  0  0
  146.0522  142.3981  154.6636 C   0  0  0  0  0  0  0  0  0  0  0  0
  146.0370  143.1727  153.7058 O   0  0  0  0  0  0  0  0  0  0  0  0
  151.2372  141.8582  157.6188 C   0  0  0  0  0  0  0  0  0  0  0  0
  150.7988  143.0387  158.2430 C   0  0  0  0  0  0  0  0  0  0  0  0
  151.3090  143.3864  159.5105 C   0  0  0  0  0  0  0  0  0  0  0  0
  150.8259  144.6633  160.1751 C   0  0  0  0  0  0  0  0  0  0  0  0
  153.4978  142.1202  161.8716 H   0  0  0  0  0  0  0  0  0  0  0  0
  152.0224  143.0108  162.2364 H   0  0  0  0  0  0  0  0  0  0  0  0
  153.3842  143.8304  161.4567 H   0  0  0  0  0  0  0  0  0  0  0  0
  153.4140  140.7165  159.9856 H   0  0  0  0  0  0  0  0  0  0  0  0
  151.6522  139.4468  155.5467 H   0  0  0  0  0  0  0  0  0  0  0  0
  149.3241  142.4093  155.8830 H   0  0  0  0  0  0  0  0  0  0  0  0
  150.5664  142.3166  154.6566 H   0  0  0  0  0  0  0  0  0  0  0  0
  148.9826  139.8301  155.4685 H   0  0  0  0  0  0  0  0  0  0  0  0
  149.7127  139.9399  152.9447 H   0  0  0  0  0  0  0  0  0  0  0  0
  148.2172  141.8268  153.2814 H   0  0  0  0  0  0  0  0  0  0  0  0
  147.6282  140.1937  153.3335 H   0  0  0  0  0  0  0  0  0  0  0  0
  143.2633  142.9820  154.7070 H   0  0  0  0  0  0  0  0  0  0  0  0
  142.9410  142.0691  156.1740 H   0  0  0  0  0  0  0  0  0  0  0  0
  143.5615  141.2485  154.7476 H   0  0  0  0  0  0  0  0  0  0  0  0
  144.8134  144.5985  155.9991 H   0  0  0  0  0  0  0  0  0  0  0  0
  146.1926  143.9761  156.8975 H   0  0  0  0  0  0  0  0  0  0  0  0
  144.5603  143.7264  157.5050 H   0  0  0  0  0  0  0  0  0  0  0  0
  150.0729  143.6682  157.7492 H   0  0  0  0  0  0  0  0  0  0  0  0
  150.1246  145.2021  159.5368 H   0  0  0  0  0  0  0  0  0  0  0  0
  151.6646  145.3271  160.3851 H   0  0  0  0  0  0  0  0  0  0  0  0
  150.3186  144.4366  161.1130 H   0  0  0  0  0  0  0  0  0  0  0  0
  1  2  1  0  0  0  0
  1 25  1  0  0  0  0
  1 26  1  0  0  0  0
  1 27  1  0  0  0  0
  2 23  1  0  0  0  0
  2  3  2  0  0  0  0
  3  4  1  0  0  0  0
  3 28  1  0  0  0  0
  4 21  2  0  0  0  0
  4  5  1  0  0  0  0
  5  6  2  0  0  0  0
  6  7  1  0  0  0  0
  6 29  1  0  0  0  0
  7  8  1  0  0  0  0
  7 21  1  0  0  0  0
  8  9  1  0  0  0  0
  8 30  1  0  0  0  0
  8 31  1  0  0  0  0
  9 10  1  0  0  0  0
  9 11  1  0  0  0  0
  9 32  1  0  0  0  0
 10 33  1  0  0  0  0
 11 12  1  0  0  0  0
 11 34  1  0  0  0  0
 11 35  1  0  0  0  0
 12 19  1  0  0  0  0
 12 13  1  0  0  0  0
 13 14  2  0  0  0  0
 13 15  1  0  0  0  0
 15 16  1  0  0  0  0
 16 17  1  0  0  0  0
 16 18  1  0  0  0  0
 16 19  1  0  0  0  0
 17 36  1  0  0  0  0
 17 37  1  0  0  0  0
 17 38  1  0  0  0  0
 18 39  1  0  0  0  0
 18 40  1  0  0  0  0
 18 41  1  0  0  0  0
 19 20  2  0  0  0  0
 21 22  1  0  0  0  0
 22 23  2  0  0  0  0
 22 42  1  0  0  0  0
 23 24  1  0  0  0  0
 24 43  1  0  0  0  0
 24 44  1  0  0  0  0
 24 45  1  0  0  0  0
M  CHG  1  15  -1
M  END
> <s_m_source_file>
AV-unprocessed.smi

> <i_m_source_file_index>
2026

> <i_lp_mmshare_version>
43012

> <i_f3d_flags>
0

> <s_epik_input>
W0NIM11jKFtjSF0xKWMoW0NIM10pW2NIXWMoYzEyKW4oW2NIXW4yKVtDSDJdW0NASF0oW09IXSlbQ0gyXU4oQzM9TylDKD1PKVtOSF1DMyhbQ0gzXSlbQ0gzXQ==

> <s_epik_cmdline>
J2VwaWtfcHl0aG9uJywgJy1waCcsICc3LjAnLCAnLXRuJywgJzgnLCAnLW1hJywgJzIwMCcsICctbWV0YWxfYmluZGluZycsICctaW1hZScsICc8aW5maWxlLm1hZT4nLCAnLW9tYWUnLCAnPG91dGZpbGUubWFlPic=

> <r_lp_tautomer_probability>
1

> <r_epik_Ionization_Penalty>
5.78785

> <r_epik_Ionization_Penalty_Charging>
5.68049

> <r_epik_Ionization_Penalty_Neutral>
0.107354

> <r_epik_State_Penalty>
5.7743

> <r_epik_Charging_Adjusted_Penalty>
11.4548

> <i_epik_Tot_Q>
-1

> <i_epik_Tot_abs_Q>
1

> <r_epik_Metal_State_Penalty>
1.83778

> <b_epik_Metal_Only>
1

> <s_lp_Force_Field>
OPLS_2005

> <r_lp_Energy>
16.8856

> <b_lp_Chiralities_Consistent>
1

> <s_lp_Variant>
AV-unprocessed.smi:2026-5

> <Gold.Version>
5.8.1

> <Gold.Id.Protein>
6NUR|6NUR_protein|mol2

> <Gold.PLP.Fitness>
52.8426

> <Gold.PLP.PLP>
-45.9624

> <Gold.PLP.part.hbond>
-3.0000

> <Gold.PLP.part.metal>
0.0000

> <Gold.PLP.part.buried>
-6.6576

> <Gold.PLP.part.nonpolar>
-35.8616

> <Gold.PLP.part.repulsive>
0.2320

> <Gold.PLP.ligand.clash>
0.0000

> <Gold.PLP.ligand.torsion>
0.8663

> <Gold.PLP.Chemscore.Hbond>
2.8640

> <Gold.PLP.Chemscore.CHOScore>
0.0000

> <Gold.PLP.Chemscore.Metal>
0.0000

> <Gold.Chemscore.Hbonds>
donor molecule, donor type, donor heavy atom, donor atom, acceptor molecule, acceptor atom, score
      L1  H    10    33       P1  7957  1.00
      P1  H  7989  7998       L1    10  0.86
      P1  H  7997  8008       L1     5  0.89

> <Gold.PLP.Chemscore.Internal.Correction>
0.0207

> <Gold.Rescore>
     Score         DG    S(hbond)    S(metal)    S(lipo)     H(rot)  DE(clash)    DE(int)     intcor
     15.84     -18.90       2.26        0.00     102.06       2.38       0.25       2.81       ----

> <Gold.Chemscore.Fitness>
15.8357

> <Gold.Chemscore.DG>
-18.8978

> <Gold.Chemscore.ZeroCoef>
-5.4800

> <Gold.Chemscore.Hbond>
2.2650

> <Gold.Chemscore.Metal>
0.0000

> <Gold.Chemscore.Lipo>
102.0611

> <Gold.Chemscore.Internal_Hbond>
0.0000

> <Gold.Chemscore.DEClash>
0.2504

> <Gold.Chemscore.DEInternal>
2.8117

> <Gold.Chemscore.Rot>
2.3783

> <Gold.Chemscore.Internal.Correction>
   9.000000E+99

> <Gold.Chemscore.Hbonds>
donor molecule, donor type, donor heavy atom, donor atom, acceptor molecule, acceptor atom, score
      L1  H    10    33       P1  7957  0.99
      P1  H  7989  7998       L1    10  0.18
      P1  H  7997  8008       L1     5  0.28

> <Gold.Chemscore.Hbond.Weighted>
-7.5650

> <Gold.Chemscore.Metal.Weighted>
-0.0000

> <Gold.Chemscore.Lipo.Weighted>
-11.9412

> <Gold.Chemscore.Internal_Hbond.Weighted>
0.0000

> <Gold.Chemscore.DEClash.Weighted>
0.2504

> <Gold.Chemscore.DEInternal.Weighted>
2.8117

> <Gold.Chemscore.Rot.Weighted>
6.0884

> <Gold.Chemscore.Internal.Correction.Weighted>
   9.000000E+99

> <Gold.Protein.RotatedTorsions>
[ 6907 6896 6895 6894 ] final  140.15 input  -60.11 | X-H torsion
[ 7974 7965 7964 7962 ] final  104.88 input  175.53 | X-H torsion
[ 8008 7997 7996 7995 ] final  -65.46 input   59.86 | X-H torsion
[ 10167 10162 10161 10158 ] final   85.94 input  -65.29 | X-H torsion
[ 10718 10713 10712 10709 ] final   56.88 input   66.30 | X-H torsion
[ 10763 10752 10751 10750 ] final  -60.01 input  -60.55 | X-H torsion
[ 11005 11000 10999 10996 ] final  -83.85 input  -57.11 | X-H torsion

> <Gold.Protein.ActiveResidues>
 VAL166  LYS551  ARG553  GLY616  TRP617  ASP618  TYR619  PRO620  LYS621  CYS622 
 ASP623  PHE694  ASN695  SER759  ASP760  ASP761  ALA762  ILE779  LEU786  VAL792 
 PHE793  MET794  SER795  GLU796  ALA797  LYS798  CYS799  TRP800  GLU811  SER814 

> <Gold.Protein.RotatedAtoms>
  152.2464  133.5178  159.5299 H   0  0  0  0  0  0  0  0  0  0  0  0  # atno 6907 bound_to 6896
  150.7080  134.1019  159.3978 H   0  0  0  0  0  0  0  0  0  0  0  0  # atno 6908 bound_to 6896
  151.8940  135.0405  160.0551 H   0  0  0  0  0  0  0  0  0  0  0  0  # atno 6909 bound_to 6896
  145.3270  139.2497  143.3681 H   0  0  0  0  0  0  0  0  0  0  0  0  # atno 7974 bound_to 7965
  154.4673  140.0932  156.7054 H   0  0  0  0  0  0  0  0  0  0  0  0  # atno 8008 bound_to 7997
  155.4821  140.3468  155.4323 H   0  0  0  0  0  0  0  0  0  0  0  0  # atno 8009 bound_to 7997
  156.0979  140.1414  156.9495 H   0  0  0  0  0  0  0  0  0  0  0  0  # atno 8010 bound_to 7997
  139.8926  144.6376  150.8722 H   0  0  0  0  0  0  0  0  0  0  0  0  # atno 10167 bound_to 10162
  157.5468  130.8736  149.8903 H   0  0  0  0  0  0  0  0  0  0  0  0  # atno 10718 bound_to 10713
  154.2626  135.6305  153.5280 H   0  0  0  0  0  0  0  0  0  0  0  0  # atno 10763 bound_to 10752
  152.9893  135.5591  154.5687 H   0  0  0  0  0  0  0  0  0  0  0  0  # atno 10764 bound_to 10752
  154.5240  135.2884  155.1213 H   0  0  0  0  0  0  0  0  0  0  0  0  # atno 10765 bound_to 10752
  141.1655  133.7315  156.8781 H   0  0  0  0  0  0  0  0  0  0  0  0  # atno 11005 bound_to 11000
  146.3060  140.3840  142.8687 LP  0  0  0  0  0  0  0  0  0  0  0  0  # atno 17320 bound_to 7965
  144.8894  140.7504  143.5936 LP  0  0  0  0  0  0  0  0  0  0  0  0  # atno 17321 bound_to 7965
  140.7723  143.3498  151.2037 LP  0  0  0  0  0  0  0  0  0  0  0  0  # atno 17342 bound_to 10162
  139.7096  143.9399  152.2941 LP  0  0  0  0  0  0  0  0  0  0  0  0  # atno 17343 bound_to 10162
  156.0542  130.3711  150.1129 LP  0  0  0  0  0  0  0  0  0  0  0  0  # atno 17370 bound_to 10713
  156.9305  130.9712  151.3533 LP  0  0  0  0  0  0  0  0  0  0  0  0  # atno 17371 bound_to 10713
  140.1734  134.9084  157.2861 LP  0  0  0  0  0  0  0  0  0  0  0  0  # atno 17394 bound_to 11000
  140.2476  134.3721  155.7455 LP  0  0  0  0  0  0  0  0  0  0  0  0  # atno 17395 bound_to 11000

$$$$
