AV-unprocessed.smi:1175|AV-procd|sdf|4950|dock8
  -GOLD-   22720 3543D 1   1.00000     0.00000
 Structure written by MMmdl.
 36 37  0  0  0  0  0  0  0  0  1 V2000
  149.8118  135.5841  158.6918 O   0  0  0  0  0  0  0  0  0  0  0  0
  149.2002  136.6441  158.5490 C   0  0  0  0  0  0  0  0  0  0  0  0
  147.9284  136.9398  159.3574 C   0  0  0  0  0  0  0  0  0  0  0  0
  147.6304  135.9191  160.3763 N   0  0  0  0  0  0  0  0  0  0  0  0
  147.5452  134.5831  159.9374 C   0  0  0  0  0  0  0  0  0  0  0  0
  147.2714  133.5557  160.7642 C   0  0  0  0  0  0  0  0  0  0  0  0
  147.2484  132.1167  160.2723 C   0  0  0  0  0  0  0  0  0  0  0  0
  148.4319  131.7619  159.7714 F   0  0  0  0  0  0  0  0  0  0  0  0
  146.9633  131.2974  161.2838 F   0  0  0  0  0  0  0  0  0  0  0  0
  146.3241  131.9450  159.3261 F   0  0  0  0  0  0  0  0  0  0  0  0
  147.0940  133.8850  162.1648 C   0  0  0  0  0  0  0  0  0  0  0  0
  147.1871  135.1555  162.6038 C   0  0  0  0  0  0  0  0  0  0  0  0
  147.4702  136.2641  161.6891 C   0  0  0  0  0  0  0  0  0  0  0  0
  147.5594  137.4288  162.0781 O   0  0  0  0  0  0  0  0  0  0  0  0
  149.5799  137.5985  157.6865 N   0  0  0  0  0  0  0  0  0  0  0  0
  150.7534  137.5277  156.8226 C   0  0  0  0  0  0  0  0  0  0  0  0
  151.0239  138.8645  156.1070 C   0  0  2  0  0  0  0  0  0  0  0  0
  150.7322  140.1002  156.9357 C   0  0  0  0  0  0  0  0  0  0  0  0
  150.6162  141.1756  155.8604 C   0  0  0  0  0  0  0  0  0  0  0  0
  150.0851  140.5200  154.7125 O   0  0  0  0  0  0  0  0  0  0  0  0
  150.1330  139.1068  154.8888 C   0  0  0  0  0  0  0  0  0  0  0  0
  148.0214  137.9229  159.8228 H   0  0  0  0  0  0  0  0  0  0  0  0
  147.0947  137.0338  158.6600 H   0  0  0  0  0  0  0  0  0  0  0  0
  147.7295  134.4455  158.8817 H   0  0  0  0  0  0  0  0  0  0  0  0
  146.8795  133.1000  162.8749 H   0  0  0  0  0  0  0  0  0  0  0  0
  147.0483  135.3637  163.6546 H   0  0  0  0  0  0  0  0  0  0  0  0
  149.0205  138.4374  157.6284 H   0  0  0  0  0  0  0  0  0  0  0  0
  151.6268  137.2272  157.4040 H   0  0  0  0  0  0  0  0  0  0  0  0
  150.5858  136.7369  156.0908 H   0  0  0  0  0  0  0  0  0  0  0  0
  152.0654  138.9024  155.7826 H   0  0  0  0  0  0  0  0  0  0  0  0
  149.7824  139.9928  157.4617 H   0  0  0  0  0  0  0  0  0  0  0  0
  151.5076  140.3189  157.6706 H   0  0  0  0  0  0  0  0  0  0  0  0
  149.9873  142.0103  156.1709 H   0  0  0  0  0  0  0  0  0  0  0  0
  151.6020  141.5689  155.6089 H   0  0  0  0  0  0  0  0  0  0  0  0
  150.5064  138.6068  153.9948 H   0  0  0  0  0  0  0  0  0  0  0  0
  149.1180  138.7523  155.0736 H   0  0  0  0  0  0  0  0  0  0  0  0
  1  2  2  0  0  0  0
  2  3  1  0  0  0  0
  2 15  1  0  0  0  0
  3  4  1  0  0  0  0
  3 22  1  0  0  0  0
  3 23  1  0  0  0  0
  4 13  1  0  0  0  0
  4  5  1  0  0  0  0
  5  6  2  0  0  0  0
  5 24  1  0  0  0  0
  6  7  1  0  0  0  0
  6 11  1  0  0  0  0
  7  8  1  0  0  0  0
  7  9  1  0  0  0  0
  7 10  1  0  0  0  0
 11 12  2  0  0  0  0
 11 25  1  0  0  0  0
 12 13  1  0  0  0  0
 12 26  1  0  0  0  0
 13 14  2  0  0  0  0
 15 16  1  0  0  0  0
 15 27  1  0  0  0  0
 16 17  1  0  0  0  0
 16 28  1  0  0  0  0
 16 29  1  0  0  0  0
 17 21  1  0  0  0  0
 17 18  1  0  0  0  0
 17 30  1  0  0  0  0
 18 19  1  0  0  0  0
 18 31  1  0  0  0  0
 18 32  1  0  0  0  0
 19 20  1  0  0  0  0
 19 33  1  0  0  0  0
 19 34  1  0  0  0  0
 20 21  1  0  0  0  0
 21 35  1  0  0  0  0
 21 36  1  0  0  0  0
M  END
> <s_m_source_file>
AV-unprocessed.smi

> <i_m_source_file_index>
1175

> <i_lp_mmshare_version>
43012

> <i_f3d_flags>
0

> <s_epik_input>
W0NIMl0xT1tDSDJdW0NIMl1bQ0BIXTFbQ0gyXVtOSF1DKD1PKVtDSDJdbjJbY0hdYyhDKEYpKEYpRilbY0hdW2NIXWMyPU8=

> <s_epik_cmdline>
J2VwaWtfcHl0aG9uJywgJy1waCcsICc3LjAnLCAnLXRuJywgJzgnLCAnLW1hJywgJzIwMCcsICctbWV0YWxfYmluZGluZycsICctaW1hZScsICc8aW5maWxlLm1hZT4nLCAnLW9tYWUnLCAnPG91dGZpbGUubWFlPic=

> <r_lp_tautomer_probability>
1

> <r_epik_Ionization_Penalty>
3.67963e-08

> <r_epik_Ionization_Penalty_Charging>
1.809e-08

> <r_epik_Ionization_Penalty_Neutral>
1.87063e-08

> <r_epik_State_Penalty>
-0

> <r_epik_Charging_Adjusted_Penalty>
1.809e-08

> <i_epik_Tot_Q>
0

> <i_epik_Tot_abs_Q>
0

> <r_epik_Metal_State_Penalty>
-0

> <b_epik_Metal_Only>
0

> <s_lp_Force_Field>
OPLS_2005

> <r_lp_Energy>
30.0254

> <b_lp_Chiralities_Consistent>
1

> <s_lp_Variant>
AV-unprocessed.smi:1175-1

> <Gold.Version>
5.8.1

> <Gold.Id.Protein>
6NUR|6NUR_protein|mol2

> <Gold.PLP.Fitness>
42.8549

> <Gold.PLP.PLP>
-34.1851

> <Gold.PLP.part.hbond>
-3.8512

> <Gold.PLP.part.metal>
0.0000

> <Gold.PLP.part.buried>
-3.7095

> <Gold.PLP.part.nonpolar>
-27.2610

> <Gold.PLP.part.repulsive>
0.1662

> <Gold.PLP.ligand.clash>
0.4843

> <Gold.PLP.ligand.torsion>
0.3296

> <Gold.PLP.Chemscore.Hbond>
3.2560

> <Gold.PLP.Chemscore.CHOScore>
0.0000

> <Gold.PLP.Chemscore.Metal>
0.0000

> <Gold.Chemscore.Hbonds>
donor molecule, donor type, donor heavy atom, donor atom, acceptor molecule, acceptor atom, score
      P1  H  6896  6909       L1     1  1.00
      P1  H  6931  6943       L1    14  0.82
      P1  H  6934  6947       L1    14  0.58
      P1  H  7989  7998       L1    20  0.78

> <Gold.PLP.Chemscore.Internal.Correction>
0.0453

> <Gold.Rescore>
     Score         DG    S(hbond)    S(metal)    S(lipo)     H(rot)  DE(clash)    DE(int)     intcor
     16.67     -18.18       3.31        0.00      54.91       1.87       0.02       1.49       ----

> <Gold.Chemscore.Fitness>
16.6731

> <Gold.Chemscore.DG>
-18.1822

> <Gold.Chemscore.ZeroCoef>
-5.4800

> <Gold.Chemscore.Hbond>
3.3115

> <Gold.Chemscore.Metal>
0.0000

> <Gold.Chemscore.Lipo>
54.9065

> <Gold.Chemscore.Internal_Hbond>
0.0000

> <Gold.Chemscore.DEClash>
0.0234

> <Gold.Chemscore.DEInternal>
1.4858

> <Gold.Chemscore.Rot>
1.8681

> <Gold.Chemscore.Internal.Correction>
   9.000000E+99

> <Gold.Chemscore.Hbonds>
donor molecule, donor type, donor heavy atom, donor atom, acceptor molecule, acceptor atom, score
      P1  H  6896  6909       L1     1  0.96
      P1  H  6931  6943       L1    14  0.79
      P1  H  6934  6947       L1    14  0.56
      P1  H  7989  7998       L1    20  0.06

> <Gold.Chemscore.Hbond.Weighted>
-11.0604

> <Gold.Chemscore.Metal.Weighted>
-0.0000

> <Gold.Chemscore.Lipo.Weighted>
-6.4241

> <Gold.Chemscore.Internal_Hbond.Weighted>
0.0000

> <Gold.Chemscore.DEClash.Weighted>
0.0234

> <Gold.Chemscore.DEInternal.Weighted>
1.4858

> <Gold.Chemscore.Rot.Weighted>
4.7822

> <Gold.Chemscore.Internal.Correction.Weighted>
   9.000000E+99

> <Gold.Protein.RotatedTorsions>
[ 6907 6896 6895 6894 ] final   45.69 input  -60.11 | X-H torsion
[ 7974 7965 7964 7962 ] final  -46.76 input  175.53 | X-H torsion
[ 8008 7997 7996 7995 ] final  -23.24 input   59.86 | X-H torsion
[ 10167 10162 10161 10158 ] final   30.23 input  -65.29 | X-H torsion
[ 10718 10713 10712 10709 ] final  -36.09 input   66.30 | X-H torsion
[ 10763 10752 10751 10750 ] final   22.25 input  -60.55 | X-H torsion
[ 11005 11000 10999 10996 ] final  119.04 input  -57.11 | X-H torsion

> <Gold.Protein.ActiveResidues>
 VAL166  LYS551  ARG553  GLY616  TRP617  ASP618  TYR619  PRO620  LYS621  CYS622 
 ASP623  PHE694  ASN695  SER759  ASP760  ASP761  ALA762  ILE779  LEU786  VAL792 
 PHE793  MET794  SER795  GLU796  ALA797  LYS798  CYS799  TRP800  GLU811  SER814 

> <Gold.Protein.RotatedAtoms>
  152.2475  134.8166  160.0450 H   0  0  0  0  0  0  0  0  0  0  0  0  # atno 6907 bound_to 6896
  151.8858  133.3500  159.3790 H   0  0  0  0  0  0  0  0  0  0  0  0  # atno 6908 bound_to 6896
  150.7073  134.4900  159.5555 H   0  0  0  0  0  0  0  0  0  0  0  0  # atno 6909 bound_to 6896
  145.9686  140.7406  142.9421 H   0  0  0  0  0  0  0  0  0  0  0  0  # atno 7974 bound_to 7965
  154.4596  140.1986  156.0281 H   0  0  0  0  0  0  0  0  0  0  0  0  # atno 8008 bound_to 7997
  156.0815  140.3271  155.7671 H   0  0  0  0  0  0  0  0  0  0  0  0  # atno 8009 bound_to 7997
  155.5104  140.0561  157.2915 H   0  0  0  0  0  0  0  0  0  0  0  0  # atno 8010 bound_to 7997
  140.4696  144.0782  150.6234 H   0  0  0  0  0  0  0  0  0  0  0  0  # atno 10167 bound_to 10162
  156.3309  130.4279  149.7873 H   0  0  0  0  0  0  0  0  0  0  0  0  # atno 10718 bound_to 10713
  153.0930  135.6652  153.9817 H   0  0  0  0  0  0  0  0  0  0  0  0  # atno 10763 bound_to 10752
  153.9409  135.2994  155.3444 H   0  0  0  0  0  0  0  0  0  0  0  0  # atno 10764 bound_to 10752
  154.7346  135.5107  153.9094 H   0  0  0  0  0  0  0  0  0  0  0  0  # atno 10765 bound_to 10752
  139.9131  134.9625  156.7595 H   0  0  0  0  0  0  0  0  0  0  0  0  # atno 11005 bound_to 11000
  144.6831  140.2711  143.7305 LP  0  0  0  0  0  0  0  0  0  0  0  0  # atno 17320 bound_to 7965
  145.7938  139.1937  143.2087 LP  0  0  0  0  0  0  0  0  0  0  0  0  # atno 17321 bound_to 7965
  140.3993  143.2712  151.9967 LP  0  0  0  0  0  0  0  0  0  0  0  0  # atno 17342 bound_to 10162
  139.4817  144.6011  151.7604 LP  0  0  0  0  0  0  0  0  0  0  0  0  # atno 17343 bound_to 10162
  156.5146  130.8187  151.3181 LP  0  0  0  0  0  0  0  0  0  0  0  0  # atno 17370 bound_to 10713
  157.7430  130.9903  150.2560 LP  0  0  0  0  0  0  0  0  0  0  0  0  # atno 17371 bound_to 10713
  140.6709  133.9560  155.7856 LP  0  0  0  0  0  0  0  0  0  0  0  0  # atno 17394 bound_to 11000
  141.0578  134.0391  157.3699 LP  0  0  0  0  0  0  0  0  0  0  0  0  # atno 17395 bound_to 11000

$$$$
