AV-unprocessed.smi:218|AV-procd|sdf|1669|dock10
  -GOLD-   2262020 83D 1   1.00000     0.00000
 Structure written by MMmdl.
 54 57  0  0  0  0  0  0  0  0  1 V2000
  152.5184  142.8935  161.9094 C   0  0  0  0  0  0  0  0  0  0  0  0
  152.5632  143.8951  160.7492 C   0  0  0  0  0  0  0  0  0  0  0  0
  151.1461  144.3059  160.3133 C   0  0  0  0  0  0  0  0  0  0  0  0
  153.2492  143.2525  159.6725 O   0  0  0  0  0  0  0  0  0  0  0  0
  152.8052  142.0343  159.1950 C   0  0  0  0  0  0  0  0  0  0  0  0
  151.6218  142.0077  158.4287 C   0  0  0  0  0  0  0  0  0  0  0  0
  151.1534  140.7706  157.9413 C   0  0  0  0  0  0  0  0  0  0  0  0
  149.8890  140.6983  157.1117 C   0  0  0  0  0  0  0  0  0  0  0  0
  149.3831  139.3403  156.9698 N   0  0  0  0  0  0  0  0  0  0  0  0
  149.9996  138.4734  156.1387 C   0  0  0  0  0  0  0  0  0  0  0  0
  151.0503  138.8660  155.3711 N   0  0  0  0  0  0  0  0  0  0  0  0
  151.6462  137.9896  154.5566 C   0  0  0  0  0  0  0  0  0  0  0  0
  151.3563  136.7015  154.3623 N   0  0  0  0  0  0  0  0  0  0  0  0
  150.3003  136.3038  155.1291 C   0  0  0  0  0  0  0  0  0  0  0  0
  149.5748  137.1233  156.0374 C   0  0  0  0  0  0  0  0  0  0  0  0
  148.5714  136.3786  156.6437 N   0  0  0  0  0  0  0  0  0  0  0  0
  148.7010  135.1885  156.1207 C   0  0  0  0  0  0  0  0  0  0  0  0
  149.7204  135.0539  155.2042 N   0  0  0  0  0  0  0  0  0  0  0  0
  150.1088  133.8285  154.4351 C   0  0  1  0  0  0  0  0  0  0  0  0
  150.3789  132.8214  155.3596 O   0  0  0  0  0  0  0  0  0  0  0  0
  149.8776  131.5934  154.8588 C   0  0  1  0  0  0  0  0  0  0  0  0
  149.7219  130.5564  155.9862 C   0  0  0  0  0  0  0  0  0  0  0  0
  150.9381  130.3102  156.6612 O   0  0  0  0  0  0  0  0  0  0  0  0
  148.6157  131.9724  154.0766 C   0  0  2  0  0  0  0  0  0  0  0  0
  148.3658  131.0268  153.0560 O   0  0  0  0  0  0  0  0  0  0  0  0
  148.9977  133.3231  153.4794 C   0  0  1  0  0  0  0  0  0  0  0  0
  147.8690  134.1733  153.3830 O   0  0  0  0  0  0  0  0  0  0  0  0
  151.8889  139.6055  158.2364 C   0  0  0  0  0  0  0  0  0  0  0  0
  153.0586  139.7315  159.0102 C   0  0  0  0  0  0  0  0  0  0  0  0
  153.5110  140.9122  159.4825 N   0  0  0  0  0  0  0  0  0  0  0  0
  151.0198  134.1112  153.9058 H   0  0  0  0  0  0  0  0  0  0  0  0
  150.6343  131.2290  154.1607 H   0  0  0  0  0  0  0  0  0  0  0  0
  147.7507  132.0697  154.7335 H   0  0  0  0  0  0  0  0  0  0  0  0
  149.4460  133.2019  152.4920 H   0  0  0  0  0  0  0  0  0  0  0  0
  152.0123  143.3185  162.7767 H   0  0  0  0  0  0  0  0  0  0  0  0
  153.5250  142.6116  162.2190 H   0  0  0  0  0  0  0  0  0  0  0  0
  151.9900  141.9828  161.6261 H   0  0  0  0  0  0  0  0  0  0  0  0
  153.1138  144.7691  161.1004 H   0  0  0  0  0  0  0  0  0  0  0  0
  150.6014  144.7626  161.1399 H   0  0  0  0  0  0  0  0  0  0  0  0
  150.5733  143.4425  159.9743 H   0  0  0  0  0  0  0  0  0  0  0  0
  151.1664  145.0290  159.4985 H   0  0  0  0  0  0  0  0  0  0  0  0
  151.0837  142.9209  158.2208 H   0  0  0  0  0  0  0  0  0  0  0  0
  149.1215  141.3256  157.5671 H   0  0  0  0  0  0  0  0  0  0  0  0
  150.0996  141.1127  156.1249 H   0  0  0  0  0  0  0  0  0  0  0  0
  148.5506  139.1157  157.4957 H   0  0  0  0  0  0  0  0  0  0  0  0
  152.4731  138.3736  153.9775 H   0  0  0  0  0  0  0  0  0  0  0  0
  148.0518  134.3692  156.3933 H   0  0  0  0  0  0  0  0  0  0  0  0
  149.0038  130.9213  156.7207 H   0  0  0  0  0  0  0  0  0  0  0  0
  149.3264  129.6197  155.5929 H   0  0  0  0  0  0  0  0  0  0  0  0
  150.7422  130.0590  157.5509 H   0  0  0  0  0  0  0  0  0  0  0  0
  148.7870  131.3262  152.2646 H   0  0  0  0  0  0  0  0  0  0  0  0
  148.0862  134.8881  152.8034 H   0  0  0  0  0  0  0  0  0  0  0  0
  151.5687  138.6376  157.8796 H   0  0  0  0  0  0  0  0  0  0  0  0
  153.6474  138.8604  159.2564 H   0  0  0  0  0  0  0  0  0  0  0  0
  1  2  1  0  0  0  0
  1 35  1  0  0  0  0
  1 36  1  0  0  0  0
  1 37  1  0  0  0  0
  2  3  1  0  0  0  0
  2  4  1  0  0  0  0
  2 38  1  0  0  0  0
  3 39  1  0  0  0  0
  3 40  1  0  0  0  0
  3 41  1  0  0  0  0
  4  5  1  0  0  0  0
  5 30  1  0  0  0  0
  5  6  2  0  0  0  0
  6  7  1  0  0  0  0
  6 42  1  0  0  0  0
  7  8  1  0  0  0  0
  7 28  2  0  0  0  0
  8  9  1  0  0  0  0
  8 43  1  0  0  0  0
  8 44  1  0  0  0  0
  9 10  1  0  0  0  0
  9 45  1  0  0  0  0
 10 15  1  0  0  0  0
 10 11  2  0  0  0  0
 11 12  1  0  0  0  0
 12 13  2  0  0  0  0
 12 46  1  0  0  0  0
 13 14  1  0  0  0  0
 14 18  1  0  0  0  0
 14 15  2  0  0  0  0
 15 16  1  0  0  0  0
 16 17  2  0  0  0  0
 17 18  1  0  0  0  0
 17 47  1  0  0  0  0
 18 19  1  0  0  0  0
 19 31  1  0  0  0  0
 19 26  1  0  0  0  0
 19 20  1  0  0  0  0
 20 21  1  0  0  0  0
 21 32  1  0  0  0  0
 21 22  1  0  0  0  0
 21 24  1  0  0  0  0
 22 23  1  0  0  0  0
 22 48  1  0  0  0  0
 22 49  1  0  0  0  0
 23 50  1  0  0  0  0
 24 33  1  0  0  0  0
 24 25  1  0  0  0  0
 24 26  1  0  0  0  0
 25 51  1  0  0  0  0
 26 34  1  0  0  0  0
 26 27  1  0  0  0  0
 27 52  1  0  0  0  0
 28 29  1  0  0  0  0
 28 53  1  0  0  0  0
 29 30  2  0  0  0  0
 29 54  1  0  0  0  0
M  END
> <s_m_source_file>
AV-unprocessed.smi

> <i_m_source_file_index>
218

> <i_lp_mmshare_version>
43012

> <i_f3d_flags>
0

> <s_epik_input>
W0NIM11bQ0hdKFtDSDNdKU9jMVtjSF1jKFtjSF1bY0hdbjEpW0NIMl1bTkhdYyhuW2NIXW4yKWMoYzIzKW5bY0hdbjNbQ0BASF00T1tDQEhdKFtDSDJdW09IXSlbQ0BASF0oW09IXSlbQ0BIXTRbT0hd

> <s_epik_cmdline>
J2VwaWtfcHl0aG9uJywgJy1waCcsICc3LjAnLCAnLXRuJywgJzgnLCAnLW1hJywgJzIwMCcsICctbWV0YWxfYmluZGluZycsICctaW1hZScsICc8aW5maWxlLm1hZT4nLCAnLW9tYWUnLCAnPG91dGZpbGUubWFlPic=

> <r_lp_tautomer_probability>
1

> <r_epik_Ionization_Penalty>
0.00457014

> <r_epik_Ionization_Penalty_Charging>
0

> <r_epik_Ionization_Penalty_Neutral>
0.00457014

> <r_epik_State_Penalty>
-0

> <r_epik_Charging_Adjusted_Penalty>
0

> <i_epik_Tot_Q>
0

> <i_epik_Tot_abs_Q>
0

> <r_epik_Metal_State_Penalty>
-0

> <b_epik_Metal_Only>
0

> <s_epik_Chemistry_Notes>
This compound contains an acetal/aminal-like group ( X-CH(R)-Y where X, Y are N, S, or O) that may be acid/base labile, releasing an aldehyde.

> <s_lp_Force_Field>
OPLS_2005

> <r_lp_Energy>
42.4644

> <b_lp_Chiralities_Consistent>
1

> <s_lp_Variant>
AV-unprocessed.smi:218-8

> <Gold.Version>
5.8.1

> <Gold.Id.Protein>
6NUR|6NUR_protein|mol2

> <Gold.PLP.Fitness>
51.8202

> <Gold.PLP.PLP>
-44.0994

> <Gold.PLP.part.hbond>
-3.0000

> <Gold.PLP.part.metal>
0.0000

> <Gold.PLP.part.buried>
-9.6347

> <Gold.PLP.part.nonpolar>
-32.8776

> <Gold.PLP.part.repulsive>
1.2645

> <Gold.PLP.ligand.clash>
0.0000

> <Gold.PLP.ligand.torsion>
0.4576

> <Gold.PLP.Chemscore.Hbond>
2.8406

> <Gold.PLP.Chemscore.CHOScore>
0.0000

> <Gold.PLP.Chemscore.Metal>
0.0000

> <Gold.Chemscore.Hbonds>
donor molecule, donor type, donor heavy atom, donor atom, acceptor molecule, acceptor atom, score
      L1  H    25    51       P1 10747  0.83
      L1  H    27    52       P1  7948  1.00
      P1  H 10752 10764       L1    13  1.00

> <Gold.PLP.Chemscore.Internal.Correction>
0.1143

> <Gold.Rescore>
     Score         DG    S(hbond)    S(metal)    S(lipo)     H(rot)  DE(clash)    DE(int)     intcor
      8.88     -10.92       2.34        0.00      86.90       4.90       0.61       1.42       ----

> <Gold.Chemscore.Fitness>
8.8843

> <Gold.Chemscore.DG>
-10.9151

> <Gold.Chemscore.ZeroCoef>
-5.4800

> <Gold.Chemscore.Hbond>
2.3410

> <Gold.Chemscore.Metal>
0.0000

> <Gold.Chemscore.Lipo>
86.9023

> <Gold.Chemscore.Internal_Hbond>
0.0000

> <Gold.Chemscore.DEClash>
0.6081

> <Gold.Chemscore.DEInternal>
1.4227

> <Gold.Chemscore.Rot>
4.9029

> <Gold.Chemscore.Internal.Correction>
   9.000000E+99

> <Gold.Chemscore.Hbonds>
donor molecule, donor type, donor heavy atom, donor atom, acceptor molecule, acceptor atom, score
      L1  H    25    51       P1 10747  0.66
      L1  H    27    52       P1  7948  0.85
      P1  H 10752 10764       L1    13  0.63

> <Gold.Chemscore.Hbond.Weighted>
-7.8191

> <Gold.Chemscore.Metal.Weighted>
-0.0000

> <Gold.Chemscore.Lipo.Weighted>
-10.1676

> <Gold.Chemscore.Internal_Hbond.Weighted>
0.0000

> <Gold.Chemscore.DEClash.Weighted>
0.6081

> <Gold.Chemscore.DEInternal.Weighted>
1.4227

> <Gold.Chemscore.Rot.Weighted>
12.5515

> <Gold.Chemscore.Internal.Correction.Weighted>
   9.000000E+99

> <Gold.Protein.RotatedTorsions>
[ 6907 6896 6895 6894 ] final -146.39 input  -60.11 | X-H torsion
[ 7974 7965 7964 7962 ] final  135.28 input  175.53 | X-H torsion
[ 8008 7997 7996 7995 ] final  161.40 input   59.86 | X-H torsion
[ 10167 10162 10161 10158 ] final  -52.49 input  -65.29 | X-H torsion
[ 10718 10713 10712 10709 ] final  -19.31 input   66.30 | X-H torsion
[ 10763 10752 10751 10750 ] final  -55.23 input  -60.55 | X-H torsion
[ 11005 11000 10999 10996 ] final  146.35 input  -57.11 | X-H torsion

> <Gold.Protein.ActiveResidues>
 VAL166  LYS551  ARG553  GLY616  TRP617  ASP618  TYR619  PRO620  LYS621  CYS622 
 ASP623  PHE694  ASN695  SER759  ASP760  ASP761  ALA762  ILE779  LEU786  VAL792 
 PHE793  MET794  SER795  GLU796  ALA797  LYS798  CYS799  TRP800  GLU811  SER814 

> <Gold.Protein.RotatedAtoms>
  151.1410  133.4971  159.2596 H   0  0  0  0  0  0  0  0  0  0  0  0  # atno 6907 bound_to 6896
  151.1655  135.0293  159.8739 H   0  0  0  0  0  0  0  0  0  0  0  0  # atno 6908 bound_to 6896
  152.5462  134.1279  159.8480 H   0  0  0  0  0  0  0  0  0  0  0  0  # atno 6909 bound_to 6896
  144.9679  139.4637  143.5447 H   0  0  0  0  0  0  0  0  0  0  0  0  # atno 7974 bound_to 7965
  156.2105  140.1778  156.7704 H   0  0  0  0  0  0  0  0  0  0  0  0  # atno 8008 bound_to 7997
  154.5716  140.0681  156.9003 H   0  0  0  0  0  0  0  0  0  0  0  0  # atno 8009 bound_to 7997
  155.2662  140.3339  155.4271 H   0  0  0  0  0  0  0  0  0  0  0  0  # atno 8010 bound_to 7997
  140.6534  143.2582  151.4655 H   0  0  0  0  0  0  0  0  0  0  0  0  # atno 10167 bound_to 10162
  156.5474  130.4693  149.6469 H   0  0  0  0  0  0  0  0  0  0  0  0  # atno 10718 bound_to 10713
  154.1874  135.6433  153.5050 H   0  0  0  0  0  0  0  0  0  0  0  0  # atno 10763 bound_to 10752
  153.0043  135.5420  154.6451 H   0  0  0  0  0  0  0  0  0  0  0  0  # atno 10764 bound_to 10752
  154.5831  135.2927  155.0686 H   0  0  0  0  0  0  0  0  0  0  0  0  # atno 10765 bound_to 10752
  140.0786  134.9110  157.1464 H   0  0  0  0  0  0  0  0  0  0  0  0  # atno 11005 bound_to 11000
  146.3373  139.8873  142.8815 LP  0  0  0  0  0  0  0  0  0  0  0  0  # atno 17320 bound_to 7965
  145.2602  141.0074  143.3831 LP  0  0  0  0  0  0  0  0  0  0  0  0  # atno 17321 bound_to 7965
  139.5753  144.1833  152.1894 LP  0  0  0  0  0  0  0  0  0  0  0  0  # atno 17342 bound_to 10162
  140.1142  144.5430  150.6905 LP  0  0  0  0  0  0  0  0  0  0  0  0  # atno 17343 bound_to 10162
  156.2916  130.7127  151.1977 LP  0  0  0  0  0  0  0  0  0  0  0  0  # atno 17370 bound_to 10713
  157.7394  131.0530  150.5234 LP  0  0  0  0  0  0  0  0  0  0  0  0  # atno 17371 bound_to 10713
  140.3521  134.2587  155.7197 LP  0  0  0  0  0  0  0  0  0  0  0  0  # atno 17394 bound_to 11000
  141.2038  133.7901  157.0318 LP  0  0  0  0  0  0  0  0  0  0  0  0  # atno 17395 bound_to 11000

$$$$
