AV-unprocessed.smi:2713|AV-procd|sdf|10479|dock10
  -GOLD-   2272014523D 1   1.00000     0.00000
 Structure written by MMmdl.
 52 53  0  0  0  0  0  0  0  0  1 V2000
  150.2177  143.7661  159.5540 C   0  0  0  0  0  0  0  0  0  0  0  0
  151.7391  143.5188  159.4513 C   0  0  0  0  0  0  0  0  0  0  0  0
  152.3209  144.6661  158.5981 C   0  0  0  0  0  0  0  0  0  0  0  0
  152.3761  143.6152  160.8525 C   0  0  0  0  0  0  0  0  0  0  0  0
  152.0722  142.1803  158.7100 C   0  0  0  0  0  0  0  0  0  0  0  0
  151.2317  141.6696  157.4954 C   0  0  0  0  0  0  0  0  0  0  0  0
  149.8641  141.0785  157.9013 C   0  0  0  0  0  0  0  0  0  0  0  0
  151.0000  142.8726  156.5533 C   0  0  0  0  0  0  0  0  0  0  0  0
  152.0594  140.6948  156.7760 N   0  0  0  0  0  0  0  0  0  0  0  0
  151.7839  140.5025  155.3566 C   0  0  0  0  0  0  0  0  0  0  0  0
  151.4659  139.0576  155.0287 C   0  0  0  0  0  0  0  0  0  0  0  0
  152.2762  137.9923  155.4716 C   0  0  0  0  0  0  0  0  0  0  0  0
  151.9787  136.7075  155.1814 N   0  0  0  0  0  0  0  0  0  0  0  0
  150.8761  136.4680  154.4574 C   0  0  0  0  0  0  0  0  0  0  0  0
  150.5716  135.1338  154.1587 N   0  0  0  0  0  0  0  0  0  0  0  0
  151.1229  134.0176  154.9302 C   0  0  0  0  0  0  0  0  0  0  0  0
  151.3084  132.7779  154.0387 C   0  0  0  0  0  0  0  0  0  0  0  0
  150.0765  132.4471  153.4093 O   0  0  0  0  0  0  0  0  0  0  0  0
  149.6212  133.4980  152.5661 C   0  0  0  0  0  0  0  0  0  0  0  0
  149.3727  134.7650  153.4018 C   0  0  0  0  0  0  0  0  0  0  0  0
  150.0420  137.4107  153.9968 N   0  0  0  0  0  0  0  0  0  0  0  0
  150.3288  138.6996  154.2778 C   0  0  0  0  0  0  0  0  0  0  0  0
  150.0089  144.7778  159.9041 H   0  0  0  0  0  0  0  0  0  0  0  0
  149.7240  143.0977  160.2549 H   0  0  0  0  0  0  0  0  0  0  0  0
  149.7280  143.6533  158.5862 H   0  0  0  0  0  0  0  0  0  0  0  0
  151.9077  144.6612  157.5886 H   0  0  0  0  0  0  0  0  0  0  0  0
  153.4051  144.5885  158.5083 H   0  0  0  0  0  0  0  0  0  0  0  0
  152.1040  145.6422  159.0340 H   0  0  0  0  0  0  0  0  0  0  0  0
  152.2106  144.5984  161.2941 H   0  0  0  0  0  0  0  0  0  0  0  0
  153.4540  143.4546  160.8115 H   0  0  0  0  0  0  0  0  0  0  0  0
  151.9564  142.8851  161.5435 H   0  0  0  0  0  0  0  0  0  0  0  0
  153.1137  142.2485  158.3919 H   0  0  0  0  0  0  0  0  0  0  0  0
  152.0748  141.3783  159.4507 H   0  0  0  0  0  0  0  0  0  0  0  0
  149.3368  141.7445  158.5849 H   0  0  0  0  0  0  0  0  0  0  0  0
  149.9634  140.1051  158.3797 H   0  0  0  0  0  0  0  0  0  0  0  0
  149.2124  140.9395  157.0380 H   0  0  0  0  0  0  0  0  0  0  0  0
  150.4753  143.6779  157.0688 H   0  0  0  0  0  0  0  0  0  0  0  0
  150.3936  142.6131  155.6857 H   0  0  0  0  0  0  0  0  0  0  0  0
  151.9420  143.2826  156.1862 H   0  0  0  0  0  0  0  0  0  0  0  0
  153.0365  140.9121  156.9113 H   0  0  0  0  0  0  0  0  0  0  0  0
  150.9302  141.1073  155.0516 H   0  0  0  0  0  0  0  0  0  0  0  0
  152.6375  140.8160  154.7571 H   0  0  0  0  0  0  0  0  0  0  0  0
  153.1652  138.1683  156.0597 H   0  0  0  0  0  0  0  0  0  0  0  0
  152.0871  134.2666  155.3731 H   0  0  0  0  0  0  0  0  0  0  0  0
  150.4436  133.7908  155.7527 H   0  0  0  0  0  0  0  0  0  0  0  0
  152.0793  132.9521  153.2861 H   0  0  0  0  0  0  0  0  0  0  0  0
  151.6374  131.9302  154.6395 H   0  0  0  0  0  0  0  0  0  0  0  0
  150.3493  133.6892  151.7760 H   0  0  0  0  0  0  0  0  0  0  0  0
  148.6980  133.1846  152.0781 H   0  0  0  0  0  0  0  0  0  0  0  0
  148.5585  134.5926  154.1066 H   0  0  0  0  0  0  0  0  0  0  0  0
  149.0442  135.5590  152.7321 H   0  0  0  0  0  0  0  0  0  0  0  0
  149.6451  139.4458  153.9001 H   0  0  0  0  0  0  0  0  0  0  0  0
  1  2  1  0  0  0  0
  1 23  1  0  0  0  0
  1 24  1  0  0  0  0
  1 25  1  0  0  0  0
  2  3  1  0  0  0  0
  2  4  1  0  0  0  0
  2  5  1  0  0  0  0
  3 26  1  0  0  0  0
  3 27  1  0  0  0  0
  3 28  1  0  0  0  0
  4 29  1  0  0  0  0
  4 30  1  0  0  0  0
  4 31  1  0  0  0  0
  5  6  1  0  0  0  0
  5 32  1  0  0  0  0
  5 33  1  0  0  0  0
  6  7  1  0  0  0  0
  6  8  1  0  0  0  0
  6  9  1  0  0  0  0
  7 34  1  0  0  0  0
  7 35  1  0  0  0  0
  7 36  1  0  0  0  0
  8 37  1  0  0  0  0
  8 38  1  0  0  0  0
  8 39  1  0  0  0  0
  9 10  1  0  0  0  0
  9 40  1  0  0  0  0
 10 11  1  0  0  0  0
 10 41  1  0  0  0  0
 10 42  1  0  0  0  0
 11 22  1  0  0  0  0
 11 12  2  0  0  0  0
 12 13  1  0  0  0  0
 12 43  1  0  0  0  0
 13 14  2  0  0  0  0
 14 15  1  0  0  0  0
 14 21  1  0  0  0  0
 15 20  1  0  0  0  0
 15 16  1  0  0  0  0
 16 17  1  0  0  0  0
 16 44  1  0  0  0  0
 16 45  1  0  0  0  0
 17 18  1  0  0  0  0
 17 46  1  0  0  0  0
 17 47  1  0  0  0  0
 18 19  1  0  0  0  0
 19 20  1  0  0  0  0
 19 48  1  0  0  0  0
 19 49  1  0  0  0  0
 20 50  1  0  0  0  0
 20 51  1  0  0  0  0
 21 22  2  0  0  0  0
 22 52  1  0  0  0  0
M  END
> <s_m_source_file>
AV-unprocessed.smi

> <i_m_source_file_index>
2713

> <i_lp_mmshare_version>
43012

> <i_f3d_flags>
0

> <s_epik_input>
W0NIM11DKFtDSDNdKShbQ0gzXSlbQ0gyXUMoW0NIM10pKFtDSDNdKVtOSF1bQ0gyXWMxW2NIXW5jKG5bY0hdMSlOMltDSDJdW0NIMl1PW0NIMl1bQ0gyXTI=

> <s_epik_cmdline>
J2VwaWtfcHl0aG9uJywgJy1waCcsICc3LjAnLCAnLXRuJywgJzgnLCAnLW1hJywgJzIwMCcsICctbWV0YWxfYmluZGluZycsICctaW1hZScsICc8aW5maWxlLm1hZT4nLCAnLW9tYWUnLCAnPG91dGZpbGUubWFlPic=

> <r_lp_tautomer_probability>
1

> <r_epik_Ionization_Penalty>
1.66691

> <r_epik_Ionization_Penalty_Charging>
0

> <r_epik_Ionization_Penalty_Neutral>
1.66691

> <r_epik_State_Penalty>
1.77023

> <r_epik_Charging_Adjusted_Penalty>
1.77023

> <i_epik_Tot_Q>
0

> <i_epik_Tot_abs_Q>
0

> <r_epik_Metal_State_Penalty>
1.77023

> <b_epik_Metal_Only>
0

> <s_lp_Force_Field>
OPLS_2005

> <r_lp_Energy>
27.9038

> <b_lp_Chiralities_Consistent>
1

> <s_lp_Variant>
AV-unprocessed.smi:2713-2

> <Gold.Version>
5.8.1

> <Gold.Id.Protein>
6NUR|6NUR_protein|mol2

> <Gold.PLP.Fitness>
42.8590

> <Gold.PLP.PLP>
-42.5081

> <Gold.PLP.part.hbond>
-1.3329

> <Gold.PLP.part.metal>
0.0000

> <Gold.PLP.part.buried>
-5.6249

> <Gold.PLP.part.nonpolar>
-35.2246

> <Gold.PLP.part.repulsive>
0.2662

> <Gold.PLP.ligand.clash>
0.0000

> <Gold.PLP.ligand.torsion>
1.4015

> <Gold.PLP.Chemscore.Hbond>
1.0000

> <Gold.PLP.Chemscore.CHOScore>
0.0000

> <Gold.PLP.Chemscore.Metal>
0.0000

> <Gold.Chemscore.Hbonds>
donor molecule, donor type, donor heavy atom, donor atom, acceptor molecule, acceptor atom, score
      P1  H 10752 10763       L1    13  0.43
      L1  C    22    52       P1  7957  0.25

> <Gold.PLP.Chemscore.Internal.Correction>
0.1539

> <Gold.Rescore>
     Score         DG    S(hbond)    S(metal)    S(lipo)     H(rot)  DE(clash)    DE(int)     intcor
     16.16     -18.46       0.71        0.00     123.01       1.48       0.25       2.05       ----

> <Gold.Chemscore.Fitness>
16.1633

> <Gold.Chemscore.DG>
-18.4630

> <Gold.Chemscore.ZeroCoef>
-5.4800

> <Gold.Chemscore.Hbond>
0.7128

> <Gold.Chemscore.Metal>
0.0000

> <Gold.Chemscore.Lipo>
123.0096

> <Gold.Chemscore.Internal_Hbond>
0.0000

> <Gold.Chemscore.DEClash>
0.2528

> <Gold.Chemscore.DEInternal>
2.0469

> <Gold.Chemscore.Rot>
1.4805

> <Gold.Chemscore.Internal.Correction>
   9.000000E+99

> <Gold.Chemscore.Hbonds>
donor molecule, donor type, donor heavy atom, donor atom, acceptor molecule, acceptor atom, score
      P1  H 10752 10763       L1    13  0.39

> <Gold.Chemscore.Hbond.Weighted>
-2.3809

> <Gold.Chemscore.Metal.Weighted>
-0.0000

> <Gold.Chemscore.Lipo.Weighted>
-14.3921

> <Gold.Chemscore.Internal_Hbond.Weighted>
0.0000

> <Gold.Chemscore.DEClash.Weighted>
0.2528

> <Gold.Chemscore.DEInternal.Weighted>
2.0469

> <Gold.Chemscore.Rot.Weighted>
3.7900

> <Gold.Chemscore.Internal.Correction.Weighted>
   9.000000E+99

> <Gold.Protein.RotatedTorsions>
[ 6907 6896 6895 6894 ] final   28.48 input  -60.11 | X-H torsion
[ 7974 7965 7964 7962 ] final  129.79 input  175.53 | X-H torsion
[ 8008 7997 7996 7995 ] final  105.41 input   59.86 | X-H torsion
[ 10167 10162 10161 10158 ] final -121.78 input  -65.29 | X-H torsion
[ 10718 10713 10712 10709 ] final -167.77 input   66.30 | X-H torsion
[ 10763 10752 10751 10750 ] final  105.70 input  -60.55 | X-H torsion
[ 11005 11000 10999 10996 ] final   74.46 input  -57.11 | X-H torsion

> <Gold.Protein.ActiveResidues>
 VAL166  LYS551  ARG553  GLY616  TRP617  ASP618  TYR619  PRO620  LYS621  CYS622 
 ASP623  PHE694  ASN695  SER759  ASP760  ASP761  ALA762  ILE779  LEU786  VAL792 
 PHE793  MET794  SER795  GLU796  ALA797  LYS798  CYS799  TRP800  GLU811  SER814 

> <Gold.Protein.RotatedAtoms>
  152.0176  134.9841  160.0569 H   0  0  0  0  0  0  0  0  0  0  0  0  # atno 6907 bound_to 6896
  152.1368  133.4435  159.4756 H   0  0  0  0  0  0  0  0  0  0  0  0  # atno 6908 bound_to 6896
  150.6861  134.2272  159.4463 H   0  0  0  0  0  0  0  0  0  0  0  0  # atno 6909 bound_to 6896
  145.0249  139.4098  143.5179 H   0  0  0  0  0  0  0  0  0  0  0  0  # atno 7974 bound_to 7965
  156.1657  140.3131  155.8884 H   0  0  0  0  0  0  0  0  0  0  0  0  # atno 8008 bound_to 7997
  155.3691  140.0481  157.3062 H   0  0  0  0  0  0  0  0  0  0  0  0  # atno 8009 bound_to 7997
  154.5190  140.2191  155.9022 H   0  0  0  0  0  0  0  0  0  0  0  0  # atno 8010 bound_to 7997
  140.0213  143.5341  152.2219 H   0  0  0  0  0  0  0  0  0  0  0  0  # atno 10167 bound_to 10162
  156.6873  130.9145  151.3064 H   0  0  0  0  0  0  0  0  0  0  0  0  # atno 10718 bound_to 10713
  153.3829  135.3901  155.1869 H   0  0  0  0  0  0  0  0  0  0  0  0  # atno 10763 bound_to 10752
  154.8710  135.3730  154.4834 H   0  0  0  0  0  0  0  0  0  0  0  0  # atno 10764 bound_to 10752
  153.5313  135.7086  153.5743 H   0  0  0  0  0  0  0  0  0  0  0  0  # atno 10765 bound_to 10752
  139.9390  134.7434  156.1150 H   0  0  0  0  0  0  0  0  0  0  0  0  # atno 11005 bound_to 11000
  146.3490  139.9766  142.8700 LP  0  0  0  0  0  0  0  0  0  0  0  0  # atno 17320 bound_to 7965
  145.1847  140.9784  143.4246 LP  0  0  0  0  0  0  0  0  0  0  0  0  # atno 17321 bound_to 7965
  139.6138  144.7615  151.2893 LP  0  0  0  0  0  0  0  0  0  0  0  0  # atno 17342 bound_to 10162
  140.7341  143.6775  150.8029 LP  0  0  0  0  0  0  0  0  0  0  0  0  # atno 17343 bound_to 10162
  157.7022  130.9345  150.0820 LP  0  0  0  0  0  0  0  0  0  0  0  0  # atno 17370 bound_to 10713
  156.1824  130.3650  149.9018 LP  0  0  0  0  0  0  0  0  0  0  0  0  # atno 17371 bound_to 10713
  141.1017  133.6675  156.2769 LP  0  0  0  0  0  0  0  0  0  0  0  0  # atno 17394 bound_to 11000
  140.6000  134.5564  157.5516 LP  0  0  0  0  0  0  0  0  0  0  0  0  # atno 17395 bound_to 11000

$$$$
