AV-unprocessed.smi:2317|AV-procd|sdf|9273|dock7
  -GOLD-   2272012493D 1   1.00000     0.00000
 Structure written by MMmdl.
 37 38  0  0  0  0  0  0  0  0  1 V2000
  144.6148  137.1641  151.9907 O   0  0  0  0  0  0  0  0  0  0  0  0
  145.8061  136.8872  151.8540 C   0  0  0  0  0  0  0  0  0  0  0  0
  146.7845  137.8010  151.9073 N   0  0  0  0  0  0  0  0  0  0  0  0
  146.5742  139.2258  152.1370 C   0  0  0  0  0  0  0  0  0  0  0  0
  147.0897  139.6655  153.5236 C   0  0  2  0  0  0  0  0  0  0  0  0
  147.5373  141.1425  153.5114 C   0  0  0  0  0  0  0  0  0  0  0  0
  147.9955  141.6105  154.9018 C   0  0  0  0  0  0  0  0  0  0  0  0
  149.1184  140.7172  155.4481 C   0  0  0  0  0  0  0  0  0  0  0  0
  148.6911  139.2397  155.4730 C   0  0  0  0  0  0  0  0  0  0  0  0
  148.2047  138.7500  154.0948 C   0  0  2  0  0  0  0  0  0  0  0  0
  149.3077  138.6785  153.2108 O   0  0  0  0  0  0  0  0  0  0  0  0
  146.3018  135.6599  151.6198 N   0  0  0  0  0  0  0  0  0  0  0  0
  145.6093  134.4260  151.4745 C   0  0  0  0  0  0  0  0  0  0  0  0
  144.2694  134.3088  151.0306 C   0  0  0  0  0  0  0  0  0  0  0  0
  143.6964  133.0240  150.9453 C   0  0  0  0  0  0  0  0  0  0  0  0
  144.3550  131.8918  151.2717 N   0  0  0  0  0  0  0  0  0  0  0  0
  145.6274  132.0080  151.7069 C   0  0  0  0  0  0  0  0  0  0  0  0
  146.2934  133.2439  151.8296 C   0  0  0  0  0  0  0  0  0  0  0  0
  147.5714  133.2897  152.2783 F   0  0  0  0  0  0  0  0  0  0  0  0
  147.7375  137.4922  151.7819 H   0  0  0  0  0  0  0  0  0  0  0  0
  147.0637  139.8079  151.3543 H   0  0  0  0  0  0  0  0  0  0  0  0
  145.5059  139.4305  152.0558 H   0  0  0  0  0  0  0  0  0  0  0  0
  146.2430  139.5998  154.2094 H   0  0  0  0  0  0  0  0  0  0  0  0
  148.3483  141.2792  152.7951 H   0  0  0  0  0  0  0  0  0  0  0  0
  146.7183  141.7764  153.1697 H   0  0  0  0  0  0  0  0  0  0  0  0
  148.3352  142.6455  154.8522 H   0  0  0  0  0  0  0  0  0  0  0  0
  147.1496  141.5956  155.5901 H   0  0  0  0  0  0  0  0  0  0  0  0
  150.0106  140.8336  154.8315 H   0  0  0  0  0  0  0  0  0  0  0  0
  149.3948  141.0404  156.4520 H   0  0  0  0  0  0  0  0  0  0  0  0
  149.5145  138.6179  155.8264 H   0  0  0  0  0  0  0  0  0  0  0  0
  147.8861  139.1170  156.1988 H   0  0  0  0  0  0  0  0  0  0  0  0
  147.8228  137.7351  154.2096 H   0  0  0  0  0  0  0  0  0  0  0  0
  149.1998  139.3368  152.5413 H   0  0  0  0  0  0  0  0  0  0  0  0
  147.2987  135.6084  151.4687 H   0  0  0  0  0  0  0  0  0  0  0  0
  143.6698  135.1661  150.7672 H   0  0  0  0  0  0  0  0  0  0  0  0
  142.6768  132.9033  150.6103 H   0  0  0  0  0  0  0  0  0  0  0  0
  146.1302  131.0885  151.9670 H   0  0  0  0  0  0  0  0  0  0  0  0
  1  2  2  0  0  0  0
  2  3  1  0  0  0  0
  2 12  1  0  0  0  0
  3  4  1  0  0  0  0
  3 20  1  0  0  0  0
  4  5  1  0  0  0  0
  4 21  1  0  0  0  0
  4 22  1  0  0  0  0
  5 10  1  0  0  0  0
  5  6  1  0  0  0  0
  5 23  1  0  0  0  0
  6  7  1  0  0  0  0
  6 24  1  0  0  0  0
  6 25  1  0  0  0  0
  7  8  1  0  0  0  0
  7 26  1  0  0  0  0
  7 27  1  0  0  0  0
  8  9  1  0  0  0  0
  8 28  1  0  0  0  0
  8 29  1  0  0  0  0
  9 10  1  0  0  0  0
  9 30  1  0  0  0  0
  9 31  1  0  0  0  0
 10 11  1  0  0  0  0
 10 32  1  0  0  0  0
 11 33  1  0  0  0  0
 12 13  1  0  0  0  0
 12 34  1  0  0  0  0
 13 18  1  0  0  0  0
 13 14  2  0  0  0  0
 14 15  1  0  0  0  0
 14 35  1  0  0  0  0
 15 16  2  0  0  0  0
 15 36  1  0  0  0  0
 16 17  1  0  0  0  0
 17 18  2  0  0  0  0
 17 37  1  0  0  0  0
 18 19  1  0  0  0  0
M  END
> <s_m_source_file>
AV-unprocessed.smi

> <i_m_source_file_index>
2317

> <i_lp_mmshare_version>
43012

> <i_f3d_flags>
0

> <s_epik_input>
RmMxW2NIXW5bY0hdW2NIXWMxW05IXUMoPU8pW05IXVtDSDJdW0NAQEhdMltDSDJdW0NIMl1bQ0gyXVtDSDJdW0NASF0yW09IXQ==

> <s_epik_cmdline>
J2VwaWtfcHl0aG9uJywgJy1waCcsICc3LjAnLCAnLXRuJywgJzgnLCAnLW1hJywgJzIwMCcsICctbWV0YWxfYmluZGluZycsICctaW1hZScsICc8aW5maWxlLm1hZT4nLCAnLW9tYWUnLCAnPG91dGZpbGUubWFlPic=

> <r_epik_Ionization_Penalty>
0.00317647

> <r_epik_Ionization_Penalty_Charging>
0

> <r_epik_Ionization_Penalty_Neutral>
0.00317647

> <r_epik_State_Penalty>
0.0022093

> <r_epik_Charging_Adjusted_Penalty>
0.0022093

> <i_epik_Tot_Q>
0

> <i_epik_Tot_abs_Q>
0

> <r_epik_Metal_State_Penalty>
-0

> <b_epik_Metal_Only>
0

> <s_lp_Force_Field>
OPLS_2005

> <r_lp_Energy>
20.2731

> <b_lp_Chiralities_Consistent>
1

> <s_lp_Variant>
AV-unprocessed.smi:2317-3

> <Gold.Version>
5.8.1

> <Gold.Id.Protein>
6NUR|6NUR_protein|mol2

> <Gold.PLP.Fitness>
43.4003

> <Gold.PLP.PLP>
-32.6442

> <Gold.PLP.part.hbond>
-3.6973

> <Gold.PLP.part.metal>
0.0000

> <Gold.PLP.part.buried>
-4.9052

> <Gold.PLP.part.nonpolar>
-26.9431

> <Gold.PLP.part.repulsive>
2.9823

> <Gold.PLP.ligand.clash>
0.0000

> <Gold.PLP.ligand.torsion>
0.6178

> <Gold.PLP.Chemscore.Hbond>
3.0000

> <Gold.PLP.Chemscore.CHOScore>
0.9936

> <Gold.PLP.Chemscore.Metal>
0.0000

> <Gold.Chemscore.Hbonds>
donor molecule, donor type, donor heavy atom, donor atom, acceptor molecule, acceptor atom, score
      L1  H     3    20       P1  7948  1.00
      L1  H    11    33       P1  7957  1.00
      L1  H    12    34       P1  7948  1.00
      L1  C    15    36       P1 10186  1.00

> <Gold.PLP.Chemscore.Internal.Correction>
0.0109

> <Gold.Rescore>
     Score         DG    S(hbond)    S(metal)    S(lipo)     H(rot)  DE(clash)    DE(int)     intcor
     15.75     -19.31       2.89        0.00      74.85       1.79       1.66       1.90       ----

> <Gold.Chemscore.Fitness>
15.7497

> <Gold.Chemscore.DG>
-19.3149

> <Gold.Chemscore.ZeroCoef>
-5.4800

> <Gold.Chemscore.Hbond>
2.8886

> <Gold.Chemscore.Metal>
0.0000

> <Gold.Chemscore.Lipo>
74.8501

> <Gold.Chemscore.Internal_Hbond>
0.0000

> <Gold.Chemscore.DEClash>
1.6633

> <Gold.Chemscore.DEInternal>
1.9020

> <Gold.Chemscore.Rot>
1.7853

> <Gold.Chemscore.Internal.Correction>
   9.000000E+99

> <Gold.Chemscore.Hbonds>
donor molecule, donor type, donor heavy atom, donor atom, acceptor molecule, acceptor atom, score
      L1  H     3    20       P1  7948  0.95
      L1  H    11    33       P1  7957  0.95
      L1  H    12    34       P1  7948  0.92

> <Gold.Chemscore.Hbond.Weighted>
-9.6479

> <Gold.Chemscore.Metal.Weighted>
-0.0000

> <Gold.Chemscore.Lipo.Weighted>
-8.7575

> <Gold.Chemscore.Internal_Hbond.Weighted>
0.0000

> <Gold.Chemscore.DEClash.Weighted>
1.6633

> <Gold.Chemscore.DEInternal.Weighted>
1.9020

> <Gold.Chemscore.Rot.Weighted>
4.5704

> <Gold.Chemscore.Internal.Correction.Weighted>
   9.000000E+99

> <Gold.Protein.RotatedTorsions>
[ 6907 6896 6895 6894 ] final -120.09 input  -60.11 | X-H torsion
[ 7974 7965 7964 7962 ] final -158.48 input  175.53 | X-H torsion
[ 8008 7997 7996 7995 ] final  -15.31 input   59.86 | X-H torsion
[ 10167 10162 10161 10158 ] final   72.34 input  -65.29 | X-H torsion
[ 10718 10713 10712 10709 ] final   11.05 input   66.30 | X-H torsion
[ 10763 10752 10751 10750 ] final    1.94 input  -60.55 | X-H torsion
[ 11005 11000 10999 10996 ] final  -51.45 input  -57.11 | X-H torsion

> <Gold.Protein.ActiveResidues>
 VAL166  LYS551  ARG553  GLY616  TRP617  ASP618  TYR619  PRO620  LYS621  CYS622 
 ASP623  PHE694  ASN695  SER759  ASP760  ASP761  ALA762  ILE779  LEU786  VAL792 
 PHE793  MET794  SER795  GLU796  ALA797  LYS798  CYS799  TRP800  GLU811  SER814 

> <Gold.Protein.RotatedAtoms>
  150.8362  133.8010  159.3078 H   0  0  0  0  0  0  0  0  0  0  0  0  # atno 6907 bound_to 6896
  151.5725  135.1060  160.0008 H   0  0  0  0  0  0  0  0  0  0  0  0  # atno 6908 bound_to 6896
  152.4434  133.7448  159.6717 H   0  0  0  0  0  0  0  0  0  0  0  0  # atno 6909 bound_to 6896
  144.7504  140.3822  143.6052 H   0  0  0  0  0  0  0  0  0  0  0  0  # atno 7974 bound_to 7965
  154.5140  140.2199  155.9101 H   0  0  0  0  0  0  0  0  0  0  0  0  # atno 8008 bound_to 7997
  156.1586  140.3147  155.8734 H   0  0  0  0  0  0  0  0  0  0  0  0  # atno 8009 bound_to 7997
  155.3797  140.0471  157.3034 H   0  0  0  0  0  0  0  0  0  0  0  0  # atno 8010 bound_to 7997
  140.0363  144.5425  150.7468 H   0  0  0  0  0  0  0  0  0  0  0  0  # atno 10167 bound_to 10162
  156.9899  130.6038  149.5685 H   0  0  0  0  0  0  0  0  0  0  0  0  # atno 10718 bound_to 10713
  153.3018  135.6956  153.7196 H   0  0  0  0  0  0  0  0  0  0  0  0  # atno 10763 bound_to 10752
  153.6107  135.3445  155.2978 H   0  0  0  0  0  0  0  0  0  0  0  0  # atno 10764 bound_to 10752
  154.8552  135.4363  154.2131 H   0  0  0  0  0  0  0  0  0  0  0  0  # atno 10765 bound_to 10752
  141.0871  133.6640  156.3879 H   0  0  0  0  0  0  0  0  0  0  0  0  # atno 11005 bound_to 11000
  145.6966  139.1651  143.2617 LP  0  0  0  0  0  0  0  0  0  0  0  0  # atno 17320 bound_to 7965
  146.1446  140.7011  142.9351 LP  0  0  0  0  0  0  0  0  0  0  0  0  # atno 17321 bound_to 7965
  140.7280  143.2657  151.4054 LP  0  0  0  0  0  0  0  0  0  0  0  0  # atno 17342 bound_to 10162
  139.6043  144.1231  152.2231 LP  0  0  0  0  0  0  0  0  0  0  0  0  # atno 17343 bound_to 10162
  156.0211  130.5306  150.8278 LP  0  0  0  0  0  0  0  0  0  0  0  0  # atno 17370 bound_to 10713
  157.5466  131.0942  150.9753 LP  0  0  0  0  0  0  0  0  0  0  0  0  # atno 17371 bound_to 10713
  140.5337  134.6188  157.5358 LP  0  0  0  0  0  0  0  0  0  0  0  0  # atno 17394 bound_to 11000
  139.9691  134.7322  156.0077 LP  0  0  0  0  0  0  0  0  0  0  0  0  # atno 17395 bound_to 11000

$$$$
