AV-unprocessed.smi:36|AV-procd|sdf|296|dock2
  -GOLD-   2262016 93D 1   1.00000     0.00000
 Structure written by MMmdl.
 63 66  0  0  0  0  0  0  0  0  2 V2000
  145.6611  133.6833  162.2114 C   0  0  0  0  0  0  0  0  0  0  0  0
  147.0643  134.2877  162.0344 C   0  0  0  0  0  0  0  0  0  0  0  0
  147.3860  135.2163  163.2170 C   0  0  0  0  0  0  0  0  0  0  0  0
  148.1113  133.1641  161.9580 C   0  0  0  0  0  0  0  0  0  0  0  0
  147.1210  135.2992  160.4143 Si  0  0  0  0  0  0  0  0  0  0  0  0
  145.5907  136.4148  160.2570 C   0  0  0  0  0  0  0  0  0  0  0  0
  148.6966  136.3572  160.3214 C   0  0  0  0  0  0  0  0  0  0  0  0
  147.1438  134.2087  159.1190 O   0  0  0  0  0  0  0  0  0  0  0  0
  148.2241  133.3446  158.8301 C   0  0  0  0  0  0  0  0  0  0  0  0
  148.5243  133.3917  157.3233 C   0  0  1  0  0  0  0  0  0  0  0  0
  148.2212  134.6692  156.7644 O   0  0  0  0  0  0  0  0  0  0  0  0
  149.1576  135.0256  155.7911 C   0  0  1  0  0  0  0  0  0  0  0  0
  149.9308  136.2041  156.2931 N   0  0  0  0  0  0  0  0  0  0  0  0
  150.7051  136.3193  157.3926 C   0  0  0  0  0  0  0  0  0  0  0  0
  151.2867  137.4969  157.6135 N   0  0  0  0  0  0  0  0  0  0  0  0
  150.8403  138.2376  156.5289 C   0  0  0  0  0  0  0  0  0  0  0  0
  151.0722  139.5803  156.1214 C   0  0  0  0  0  0  0  0  0  0  0  0
  151.8409  140.4300  156.8195 N   0  5  0  0  0  0  0  0  0  0  0  0
  151.6122  140.6200  158.1437 C   0  0  0  0  0  0  0  0  0  0  0  0
  151.5696  139.7685  159.0343 O   0  0  0  0  0  0  0  0  0  0  0  0
  151.4693  142.0710  158.5196 C   0  0  0  0  0  0  0  0  0  0  0  0
  150.7894  142.9555  157.6510 C   0  0  0  0  0  0  0  0  0  0  0  0
  150.6627  144.3206  157.9735 C   0  0  0  0  0  0  0  0  0  0  0  0
  151.2237  144.8189  159.1645 C   0  0  0  0  0  0  0  0  0  0  0  0
  151.9157  143.9514  160.0302 C   0  0  0  0  0  0  0  0  0  0  0  0
  152.0427  142.5859  159.7083 C   0  0  0  0  0  0  0  0  0  0  0  0
  150.4548  139.9927  154.9847 N   0  0  0  0  0  0  0  0  0  0  0  0
  149.6802  139.1501  154.2911 C   0  0  0  0  0  0  0  0  0  0  0  0
  149.3841  137.8728  154.5507 N   0  0  0  0  0  0  0  0  0  0  0  0
  149.9930  137.4503  155.6968 C   0  0  0  0  0  0  0  0  0  0  0  0
  150.0922  133.8284  155.5961 C   0  0  0  0  0  0  0  0  0  0  0  0
  149.9726  133.0876  156.9145 C   0  0  1  0  0  0  0  0  0  0  0  0
  150.9196  133.5577  157.8559 O   0  0  0  0  0  0  0  0  0  0  0  0
  145.5952  133.0975  163.1289 H   0  0  0  0  0  0  0  0  0  0  0  0
  145.4047  133.0236  161.3822 H   0  0  0  0  0  0  0  0  0  0  0  0
  144.8977  134.4600  162.2626 H   0  0  0  0  0  0  0  0  0  0  0  0
  146.6574  136.0230  163.2993 H   0  0  0  0  0  0  0  0  0  0  0  0
  148.3703  135.6724  163.1057 H   0  0  0  0  0  0  0  0  0  0  0  0
  147.3803  134.6719  164.1619 H   0  0  0  0  0  0  0  0  0  0  0  0
  148.1270  132.5728  162.8742 H   0  0  0  0  0  0  0  0  0  0  0  0
  149.1137  133.5671  161.8084 H   0  0  0  0  0  0  0  0  0  0  0  0
  147.9045  132.4830  161.1321 H   0  0  0  0  0  0  0  0  0  0  0  0
  145.5149  137.1119  161.0908 H   0  0  0  0  0  0  0  0  0  0  0  0
  144.6698  135.8325  160.2346 H   0  0  0  0  0  0  0  0  0  0  0  0
  145.6202  137.0077  159.3437 H   0  0  0  0  0  0  0  0  0  0  0  0
  148.7538  137.0649  161.1481 H   0  0  0  0  0  0  0  0  0  0  0  0
  148.7358  136.9344  159.3979 H   0  0  0  0  0  0  0  0  0  0  0  0
  149.5952  135.7417  160.3566 H   0  0  0  0  0  0  0  0  0  0  0  0
  149.1039  133.6033  159.4200 H   0  0  0  0  0  0  0  0  0  0  0  0
  147.9258  132.3375  159.1218 H   0  0  0  0  0  0  0  0  0  0  0  0
  147.8849  132.6694  156.8129 H   0  0  0  0  0  0  0  0  0  0  0  0
  148.6809  135.3772  154.8753 H   0  0  0  0  0  0  0  0  0  0  0  0
  150.8569  135.4930  158.0700 H   0  0  0  0  0  0  0  0  0  0  0  0
  150.3538  142.5893  156.7322 H   0  0  0  0  0  0  0  0  0  0  0  0
  150.1355  144.9855  157.3054 H   0  0  0  0  0  0  0  0  0  0  0  0
  151.1270  145.8657  159.4116 H   0  0  0  0  0  0  0  0  0  0  0  0
  152.3523  144.3330  160.9413 H   0  0  0  0  0  0  0  0  0  0  0  0
  152.5866  141.9392  160.3818 H   0  0  0  0  0  0  0  0  0  0  0  0
  149.2311  139.5599  153.3988 H   0  0  0  0  0  0  0  0  0  0  0  0
  149.6902  133.2168  154.7875 H   0  0  0  0  0  0  0  0  0  0  0  0
  151.1072  134.1286  155.3308 H   0  0  0  0  0  0  0  0  0  0  0  0
  150.1331  132.0166  156.7869 H   0  0  0  0  0  0  0  0  0  0  0  0
  151.7049  133.8088  157.3942 H   0  0  0  0  0  0  0  0  0  0  0  0
  1  2  1  0  0  0  0
  1 34  1  0  0  0  0
  1 35  1  0  0  0  0
  1 36  1  0  0  0  0
  2  3  1  0  0  0  0
  2  4  1  0  0  0  0
  2  5  1  0  0  0  0
  3 37  1  0  0  0  0
  3 38  1  0  0  0  0
  3 39  1  0  0  0  0
  4 40  1  0  0  0  0
  4 41  1  0  0  0  0
  4 42  1  0  0  0  0
  5  6  1  0  0  0  0
  5  7  1  0  0  0  0
  5  8  1  0  0  0  0
  6 43  1  0  0  0  0
  6 44  1  0  0  0  0
  6 45  1  0  0  0  0
  7 46  1  0  0  0  0
  7 47  1  0  0  0  0
  7 48  1  0  0  0  0
  8  9  1  0  0  0  0
  9 10  1  0  0  0  0
  9 49  1  0  0  0  0
  9 50  1  0  0  0  0
 10 32  1  0  0  0  0
 10 11  1  0  0  0  0
 10 51  1  0  0  0  0
 11 12  1  0  0  0  0
 12 13  1  0  0  0  0
 12 31  1  0  0  0  0
 12 52  1  0  0  0  0
 13 30  1  0  0  0  0
 13 14  1  0  0  0  0
 14 15  2  0  0  0  0
 14 53  1  0  0  0  0
 15 16  1  0  0  0  0
 16 30  2  0  0  0  0
 16 17  1  0  0  0  0
 17 18  1  0  0  0  0
 17 27  2  0  0  0  0
 18 19  1  0  0  0  0
 19 20  2  0  0  0  0
 19 21  1  0  0  0  0
 21 26  1  0  0  0  0
 21 22  2  0  0  0  0
 22 23  1  0  0  0  0
 22 54  1  0  0  0  0
 23 24  2  0  0  0  0
 23 55  1  0  0  0  0
 24 25  1  0  0  0  0
 24 56  1  0  0  0  0
 25 26  2  0  0  0  0
 25 57  1  0  0  0  0
 26 58  1  0  0  0  0
 27 28  1  0  0  0  0
 28 29  2  0  0  0  0
 28 59  1  0  0  0  0
 29 30  1  0  0  0  0
 31 32  1  0  0  0  0
 31 60  1  0  0  0  0
 31 61  1  0  0  0  0
 32 33  1  0  0  0  0
 32 62  1  0  0  0  0
 33 63  1  0  0  0  0
M  CHG  1  18  -1
M  END
> <s_m_source_file>
AV-unprocessed.smi

> <i_m_source_file_index>
36

> <i_lp_mmshare_version>
43012

> <i_f3d_flags>
0

> <s_epik_input>
W0NIM11DKFtDSDNdKShbQ0gzXSlbU2ldKFtDSDNdKShbQ0gzXSlPW0NIMl1bQ0BASF0xT1tDQEhdKFtDSDJdW0NASF0xW09IXSluKFtjSF1uMiljKGMyMyluW2NIXW5jM1tOSF1DKD1PKWM0W2NIXVtjSF1bY0hdW2NIXVtjSF00

> <s_epik_cmdline>
J2VwaWtfcHl0aG9uJywgJy1waCcsICc3LjAnLCAnLXRuJywgJzgnLCAnLW1hJywgJzIwMCcsICctbWV0YWxfYmluZGluZycsICctaW1hZScsICc8aW5maWxlLm1hZT4nLCAnLW9tYWUnLCAnPG91dGZpbGUubWFlPic=

> <r_lp_tautomer_probability>
1

> <r_epik_Ionization_Penalty>
4.75685

> <r_epik_Ionization_Penalty_Charging>
3.55822

> <r_epik_Ionization_Penalty_Neutral>
1.19863

> <r_epik_State_Penalty>
3.564

> <r_epik_Charging_Adjusted_Penalty>
7.12222

> <i_epik_Tot_Q>
-1

> <i_epik_Tot_abs_Q>
1

> <r_epik_Metal_State_Penalty>
0.523258

> <b_epik_Metal_Only>
1

> <s_epik_Chemistry_Notes>
This compound contains an acetal/aminal-like group ( X-CH(R)-Y where X, Y are N, S, or O) that may be acid/base labile, releasing an aldehyde.

> <s_lp_Force_Field>
OPLS_2005

> <r_lp_Energy>
35.5948

> <b_lp_Chiralities_Consistent>
1

> <s_lp_Variant>
AV-unprocessed.smi:36-18

> <Gold.Version>
5.8.1

> <Gold.Id.Protein>
6NUR|6NUR_protein|mol2

> <Gold.PLP.Fitness>
58.0860

> <Gold.PLP.PLP>
-53.8273

> <Gold.PLP.part.hbond>
-2.7119

> <Gold.PLP.part.metal>
0.0000

> <Gold.PLP.part.buried>
-6.5521

> <Gold.PLP.part.nonpolar>
-45.2119

> <Gold.PLP.part.repulsive>
0.8074

> <Gold.PLP.ligand.clash>
6.1834

> <Gold.PLP.ligand.torsion>
2.6361

> <Gold.PLP.Chemscore.Hbond>
3.8800

> <Gold.PLP.Chemscore.CHOScore>
1.0000

> <Gold.PLP.Chemscore.Metal>
0.0000

> <Gold.Chemscore.Hbonds>
donor molecule, donor type, donor heavy atom, donor atom, acceptor molecule, acceptor atom, score
      P1  H  6896  6908       L1    33  0.40
      P1  H  7989  7998       L1    27  0.86
      L1  C    28    59       P1  7957  1.00

> <Gold.PLP.Chemscore.Internal.Correction>
1.0744

> <Gold.Rescore>
     Score         DG    S(hbond)    S(metal)    S(lipo)     H(rot)  DE(clash)    DE(int)     intcor
     12.98     -18.61       1.50        0.00     127.94       2.67       0.04       5.59       ----

> <Gold.Chemscore.Fitness>
12.9760

> <Gold.Chemscore.DG>
-18.6086

> <Gold.Chemscore.ZeroCoef>
-5.4800

> <Gold.Chemscore.Hbond>
1.4956

> <Gold.Chemscore.Metal>
0.0000

> <Gold.Chemscore.Lipo>
127.9417

> <Gold.Chemscore.Internal_Hbond>
0.0000

> <Gold.Chemscore.DEClash>
0.0435

> <Gold.Chemscore.DEInternal>
5.5890

> <Gold.Chemscore.Rot>
2.6702

> <Gold.Chemscore.Internal.Correction>
   9.000000E+99

> <Gold.Chemscore.Hbonds>
donor molecule, donor type, donor heavy atom, donor atom, acceptor molecule, acceptor atom, score
      P1  H  6896  6908       L1    33  0.37
      P1  H  7989  7998       L1    27  0.32

> <Gold.Chemscore.Hbond.Weighted>
-4.9952

> <Gold.Chemscore.Metal.Weighted>
-0.0000

> <Gold.Chemscore.Lipo.Weighted>
-14.9692

> <Gold.Chemscore.Internal_Hbond.Weighted>
0.0000

> <Gold.Chemscore.DEClash.Weighted>
0.0435

> <Gold.Chemscore.DEInternal.Weighted>
5.5890

> <Gold.Chemscore.Rot.Weighted>
6.8358

> <Gold.Chemscore.Internal.Correction.Weighted>
   9.000000E+99

> <Gold.Protein.RotatedTorsions>
[ 6907 6896 6895 6894 ] final  101.41 input  -60.11 | X-H torsion
[ 7974 7965 7964 7962 ] final  104.92 input  175.53 | X-H torsion
[ 8008 7997 7996 7995 ] final  -60.71 input   59.86 | X-H torsion
[ 10167 10162 10161 10158 ] final  -90.30 input  -65.29 | X-H torsion
[ 10718 10713 10712 10709 ] final  173.25 input   66.30 | X-H torsion
[ 10763 10752 10751 10750 ] final  -87.32 input  -60.55 | X-H torsion
[ 11005 11000 10999 10996 ] final  -55.40 input  -57.11 | X-H torsion

> <Gold.Protein.ActiveResidues>
 VAL166  LYS551  ARG553  GLY616  TRP617  ASP618  TYR619  PRO620  LYS621  CYS622 
 ASP623  PHE694  ASN695  SER759  ASP760  ASP761  ALA762  ILE779  LEU786  VAL792 
 PHE793  MET794  SER795  GLU796  ALA797  LYS798  CYS799  TRP800  GLU811  SER814 

> <Gold.Protein.RotatedAtoms>
  152.5350  134.0130  159.7946 H   0  0  0  0  0  0  0  0  0  0  0  0  # atno 6907 bound_to 6896
  151.0329  133.5766  159.2666 H   0  0  0  0  0  0  0  0  0  0  0  0  # atno 6908 bound_to 6896
  151.2764  135.0707  159.9206 H   0  0  0  0  0  0  0  0  0  0  0  0  # atno 6909 bound_to 6896
  145.3264  139.2498  143.3684 H   0  0  0  0  0  0  0  0  0  0  0  0  # atno 7974 bound_to 7965
  154.4412  140.1033  156.6317 H   0  0  0  0  0  0  0  0  0  0  0  0  # atno 8008 bound_to 7997
  155.5598  140.3487  155.4470 H   0  0  0  0  0  0  0  0  0  0  0  0  # atno 8009 bound_to 7997
  156.0468  140.1294  157.0084 H   0  0  0  0  0  0  0  0  0  0  0  0  # atno 8010 bound_to 7997
  140.3563  143.2865  151.9667 H   0  0  0  0  0  0  0  0  0  0  0  0  # atno 10167 bound_to 10162
  156.9670  131.0078  151.2914 H   0  0  0  0  0  0  0  0  0  0  0  0  # atno 10718 bound_to 10713
  154.6322  135.5417  153.7694 H   0  0  0  0  0  0  0  0  0  0  0  0  # atno 10763 bound_to 10752
  153.0290  135.6439  154.1283 H   0  0  0  0  0  0  0  0  0  0  0  0  # atno 10764 bound_to 10752
  154.1213  135.2920  155.3188 H   0  0  0  0  0  0  0  0  0  0  0  0  # atno 10765 bound_to 10752
  141.1072  133.6612  156.4465 H   0  0  0  0  0  0  0  0  0  0  0  0  # atno 11005 bound_to 11000
  146.3062  140.3833  142.8686 LP  0  0  0  0  0  0  0  0  0  0  0  0  # atno 17320 bound_to 7965
  144.8898  140.7509  143.5933 LP  0  0  0  0  0  0  0  0  0  0  0  0  # atno 17321 bound_to 7965
  139.4820  144.6032  151.7568 LP  0  0  0  0  0  0  0  0  0  0  0  0  # atno 17342 bound_to 10162
  140.5171  144.0937  150.6011 LP  0  0  0  0  0  0  0  0  0  0  0  0  # atno 17343 bound_to 10162
  157.5618  130.8251  149.8276 LP  0  0  0  0  0  0  0  0  0  0  0  0  # atno 17370 bound_to 10713
  156.0298  130.3768  150.1719 LP  0  0  0  0  0  0  0  0  0  0  0  0  # atno 17371 bound_to 10713
  140.4871  134.6610  157.5195 LP  0  0  0  0  0  0  0  0  0  0  0  0  # atno 17394 bound_to 11000
  139.9948  134.6929  155.9628 LP  0  0  0  0  0  0  0  0  0  0  0  0  # atno 17395 bound_to 11000

$$$$
