AV-unprocessed.smi:93|AV-procd|sdf|849|dock7
  -GOLD-   2262017293D 1   1.00000     0.00000
 Structure written by MMmdl.
 50 52  0  0  0  0  0  0  0  0  1 V2000
  147.0668  139.8947  153.8053 C   0  0  0  0  0  0  0  0  0  0  0  0
  147.9052  138.7490  154.1415 N   0  0  0  0  0  0  0  0  0  0  0  0
  149.3189  138.9630  154.4772 C   0  0  0  0  0  0  0  0  0  0  0  0
  149.5798  139.9785  155.6311 C   0  0  0  0  0  0  0  0  0  0  0  0
  148.6659  139.6861  156.8436 C   0  0  0  0  0  0  0  0  0  0  0  0
  151.0663  139.8482  156.0590 C   0  0  0  0  0  0  0  0  0  0  0  0
  151.9534  139.8717  154.9574 O   0  0  0  0  0  0  0  0  0  0  0  0
  149.3275  141.4248  155.1270 C   0  0  0  0  0  0  0  0  0  0  0  0
  149.6558  142.4068  156.0905 O   0  0  0  0  0  0  0  0  0  0  0  0
  147.3740  137.4958  154.0842 C   0  0  0  0  0  0  0  0  0  0  0  0
  147.8893  136.5304  154.8909 N   0  0  0  0  0  0  0  0  0  0  0  0
  147.3961  135.2898  154.8753 C   0  0  0  0  0  0  0  0  0  0  0  0
  146.3958  134.8008  154.1425 N   0  0  0  0  0  0  0  0  0  0  0  0
  145.8639  135.7595  153.3323 C   0  0  0  0  0  0  0  0  0  0  0  0
  146.2905  137.1164  153.2344 C   0  0  0  0  0  0  0  0  0  0  0  0
  145.5002  137.7826  152.3030 N   0  0  0  0  0  0  0  0  0  0  0  0
  144.6655  136.8767  151.8749 C   0  0  0  0  0  0  0  0  0  0  0  0
  144.8039  135.6350  152.4507 N   0  0  0  0  0  0  0  0  0  0  0  0
  144.0029  134.4522  152.1723 C   0  0  0  0  0  0  0  0  0  0  0  0
  144.3266  133.7959  150.8092 C   0  0  1  0  0  0  0  0  0  0  0  0
  144.1629  134.7616  149.7843 O   0  0  0  0  0  0  0  0  0  0  0  0
  145.7478  133.2536  150.7318 C   0  0  0  0  0  0  0  0  0  0  0  0
  145.6182  132.1198  149.7237 C   0  0  0  0  0  0  0  0  0  0  0  0
  144.3709  131.5356  150.0593 O   0  0  0  0  0  0  0  0  0  0  0  0
  143.4676  132.5622  150.4602 C   0  0  0  0  0  0  0  0  0  0  0  0
  146.4544  139.6828  152.9283 H   0  0  0  0  0  0  0  0  0  0  0  0
  147.6719  140.7727  153.5793 H   0  0  0  0  0  0  0  0  0  0  0  0
  146.4082  140.1500  154.6351 H   0  0  0  0  0  0  0  0  0  0  0  0
  149.8031  138.0113  154.6950 H   0  0  0  0  0  0  0  0  0  0  0  0
  149.8225  139.3208  153.5787 H   0  0  0  0  0  0  0  0  0  0  0  0
  148.9269  140.3083  157.6999 H   0  0  0  0  0  0  0  0  0  0  0  0
  148.7443  138.6468  157.1636 H   0  0  0  0  0  0  0  0  0  0  0  0
  147.6181  139.8800  156.6146 H   0  0  0  0  0  0  0  0  0  0  0  0
  151.3402  140.6577  156.7363 H   0  0  0  0  0  0  0  0  0  0  0  0
  151.2389  138.9171  156.5997 H   0  0  0  0  0  0  0  0  0  0  0  0
  152.2838  138.9972  154.8196 H   0  0  0  0  0  0  0  0  0  0  0  0
  149.9048  141.6224  154.2232 H   0  0  0  0  0  0  0  0  0  0  0  0
  148.2779  141.5679  154.8709 H   0  0  0  0  0  0  0  0  0  0  0  0
  149.5180  143.2601  155.7086 H   0  0  0  0  0  0  0  0  0  0  0  0
  147.8698  134.5901  155.5479 H   0  0  0  0  0  0  0  0  0  0  0  0
  143.9136  137.0934  151.1298 H   0  0  0  0  0  0  0  0  0  0  0  0
  144.1553  133.7375  152.9822 H   0  0  0  0  0  0  0  0  0  0  0  0
  142.9504  134.7356  152.2114 H   0  0  0  0  0  0  0  0  0  0  0  0
  144.8951  134.6946  149.1906 H   0  0  0  0  0  0  0  0  0  0  0  0
  146.4896  134.0007  150.4462 H   0  0  0  0  0  0  0  0  0  0  0  0
  146.0476  132.8390  151.6952 H   0  0  0  0  0  0  0  0  0  0  0  0
  145.5800  132.5046  148.7033 H   0  0  0  0  0  0  0  0  0  0  0  0
  146.4319  131.3978  149.7911 H   0  0  0  0  0  0  0  0  0  0  0  0
  142.9073  132.1933  151.3183 H   0  0  0  0  0  0  0  0  0  0  0  0
  142.7490  132.7676  149.6653 H   0  0  0  0  0  0  0  0  0  0  0  0
  1  2  1  0  0  0  0
  1 26  1  0  0  0  0
  1 27  1  0  0  0  0
  1 28  1  0  0  0  0
  2  3  1  0  0  0  0
  2 10  1  0  0  0  0
  3  4  1  0  0  0  0
  3 29  1  0  0  0  0
  3 30  1  0  0  0  0
  4  5  1  0  0  0  0
  4  6  1  0  0  0  0
  4  8  1  0  0  0  0
  5 31  1  0  0  0  0
  5 32  1  0  0  0  0
  5 33  1  0  0  0  0
  6  7  1  0  0  0  0
  6 34  1  0  0  0  0
  6 35  1  0  0  0  0
  7 36  1  0  0  0  0
  8  9  1  0  0  0  0
  8 37  1  0  0  0  0
  8 38  1  0  0  0  0
  9 39  1  0  0  0  0
 10 15  1  0  0  0  0
 10 11  2  0  0  0  0
 11 12  1  0  0  0  0
 12 13  2  0  0  0  0
 12 40  1  0  0  0  0
 13 14  1  0  0  0  0
 14 18  1  0  0  0  0
 14 15  2  0  0  0  0
 15 16  1  0  0  0  0
 16 17  2  0  0  0  0
 17 18  1  0  0  0  0
 17 41  1  0  0  0  0
 18 19  1  0  0  0  0
 19 20  1  0  0  0  0
 19 42  1  0  0  0  0
 19 43  1  0  0  0  0
 20 25  1  0  0  0  0
 20 21  1  0  0  0  0
 20 22  1  0  0  0  0
 21 44  1  0  0  0  0
 22 23  1  0  0  0  0
 22 45  1  0  0  0  0
 22 46  1  0  0  0  0
 23 24  1  0  0  0  0
 23 47  1  0  0  0  0
 23 48  1  0  0  0  0
 24 25  1  0  0  0  0
 25 49  1  0  0  0  0
 25 50  1  0  0  0  0
M  END
> <s_m_source_file>
AV-unprocessed.smi

> <i_m_source_file_index>
93

> <i_lp_mmshare_version>
43012

> <i_f3d_flags>
0

> <s_epik_input>
W09IXVtDSDJdQyhbQ0gzXSkoW0NIMl1bT0hdKVtDSDJdTihbQ0gzXSljKG5bY0hdbjEpYyhjMTIpbltjSF1uMltDSDJdW0NAQF0zKFtPSF0pW0NIMl1bQ0gyXU9bQ0gyXTM=

> <s_epik_cmdline>
J2VwaWtfcHl0aG9uJywgJy1waCcsICc3LjAnLCAnLXRuJywgJzgnLCAnLW1hJywgJzIwMCcsICctbWV0YWxfYmluZGluZycsICctaW1hZScsICc8aW5maWxlLm1hZT4nLCAnLW9tYWUnLCAnPG91dGZpbGUubWFlPic=

> <r_lp_tautomer_probability>
1

> <r_epik_Ionization_Penalty>
0.00325397

> <r_epik_Ionization_Penalty_Charging>
0

> <r_epik_Ionization_Penalty_Neutral>
0.00325397

> <r_epik_State_Penalty>
0.00225047

> <r_epik_Charging_Adjusted_Penalty>
0.00225047

> <i_epik_Tot_Q>
0

> <i_epik_Tot_abs_Q>
0

> <r_epik_Metal_State_Penalty>
-0

> <b_epik_Metal_Only>
0

> <s_lp_Force_Field>
OPLS_2005

> <r_lp_Energy>
39.2325

> <b_lp_Chiralities_Consistent>
1

> <s_lp_Variant>
AV-unprocessed.smi:93-1

> <Gold.Version>
5.8.1

> <Gold.Id.Protein>
6NUR|6NUR_protein|mol2

> <Gold.PLP.Fitness>
43.6137

> <Gold.PLP.PLP>
-32.2898

> <Gold.PLP.part.hbond>
-4.6040

> <Gold.PLP.part.metal>
0.0000

> <Gold.PLP.part.buried>
-1.4508

> <Gold.PLP.part.nonpolar>
-28.4166

> <Gold.PLP.part.repulsive>
0.9128

> <Gold.PLP.ligand.clash>
0.0000

> <Gold.PLP.ligand.torsion>
0.7930

> <Gold.PLP.Chemscore.Hbond>
3.1734

> <Gold.PLP.Chemscore.CHOScore>
0.9590

> <Gold.PLP.Chemscore.Metal>
0.0000

> <Gold.Chemscore.Hbonds>
donor molecule, donor type, donor heavy atom, donor atom, acceptor molecule, acceptor atom, score
      L1  H     9    39       P1  8028  1.00
      L1  H    21    44       P1  7921  1.00
      P1  H  7989  7998       L1     7  0.90
      P1  H 10785 10796       L1    24  0.27
      L1  C    17    41       P1 10171  0.87

> <Gold.PLP.Chemscore.Internal.Correction>
0.5128

> <Gold.Rescore>
     Score         DG    S(hbond)    S(metal)    S(lipo)     H(rot)  DE(clash)    DE(int)     intcor
      7.30     -13.24       3.25        0.00      74.07       4.60       3.02       2.92       ----

> <Gold.Chemscore.Fitness>
7.2995

> <Gold.Chemscore.DG>
-13.2383

> <Gold.Chemscore.ZeroCoef>
-5.4800

> <Gold.Chemscore.Hbond>
3.2547

> <Gold.Chemscore.Metal>
0.0000

> <Gold.Chemscore.Lipo>
74.0698

> <Gold.Chemscore.Internal_Hbond>
0.0000

> <Gold.Chemscore.DEClash>
3.0157

> <Gold.Chemscore.DEInternal>
2.9230

> <Gold.Chemscore.Rot>
4.6010

> <Gold.Chemscore.Internal.Correction>
   9.000000E+99

> <Gold.Chemscore.Hbonds>
donor molecule, donor type, donor heavy atom, donor atom, acceptor molecule, acceptor atom, score
      L1  H     9    39       P1  8028  0.96
      L1  H    21    44       P1  7921  0.97
      P1  H  7989  7998       L1     7  0.83
      P1  H 10785 10796       L1    24  0.16

> <Gold.Chemscore.Hbond.Weighted>
-10.8708

> <Gold.Chemscore.Metal.Weighted>
-0.0000

> <Gold.Chemscore.Lipo.Weighted>
-8.6662

> <Gold.Chemscore.Internal_Hbond.Weighted>
0.0000

> <Gold.Chemscore.DEClash.Weighted>
3.0157

> <Gold.Chemscore.DEInternal.Weighted>
2.9230

> <Gold.Chemscore.Rot.Weighted>
11.7787

> <Gold.Chemscore.Internal.Correction.Weighted>
   9.000000E+99

> <Gold.Protein.RotatedTorsions>
[ 6907 6896 6895 6894 ] final -113.16 input  -60.11 | X-H torsion
[ 7974 7965 7964 7962 ] final -147.94 input  175.53 | X-H torsion
[ 8008 7997 7996 7995 ] final  -22.35 input   59.86 | X-H torsion
[ 10167 10162 10161 10158 ] final  101.30 input  -65.29 | X-H torsion
[ 10718 10713 10712 10709 ] final  170.52 input   66.30 | X-H torsion
[ 10763 10752 10751 10750 ] final  -24.65 input  -60.55 | X-H torsion
[ 11005 11000 10999 10996 ] final  -22.94 input  -57.11 | X-H torsion

> <Gold.Protein.ActiveResidues>
 VAL166  LYS551  ARG553  GLY616  TRP617  ASP618  TYR619  PRO620  LYS621  CYS622 
 ASP623  PHE694  ASN695  SER759  ASP760  ASP761  ALA762  ILE779  LEU786  VAL792 
 PHE793  MET794  SER795  GLU796  ALA797  LYS798  CYS799  TRP800  GLU811  SER814 

> <Gold.Protein.RotatedAtoms>
  150.7809  133.8985  159.3334 H   0  0  0  0  0  0  0  0  0  0  0  0  # atno 6907 bound_to 6896
  151.6848  135.0954  160.0232 H   0  0  0  0  0  0  0  0  0  0  0  0  # atno 6908 bound_to 6896
  152.3860  133.6573  159.6234 H   0  0  0  0  0  0  0  0  0  0  0  0  # atno 6909 bound_to 6896
  144.8061  140.5261  143.5674 H   0  0  0  0  0  0  0  0  0  0  0  0  # atno 7974 bound_to 7965
  154.4649  140.2010  156.0144 H   0  0  0  0  0  0  0  0  0  0  0  0  # atno 8008 bound_to 7997
  156.0909  140.3258  155.7786 H   0  0  0  0  0  0  0  0  0  0  0  0  # atno 8009 bound_to 7997
  155.4958  140.0550  157.2937 H   0  0  0  0  0  0  0  0  0  0  0  0  # atno 8010 bound_to 7997
  139.7450  144.7000  151.0518 H   0  0  0  0  0  0  0  0  0  0  0  0  # atno 10167 bound_to 10162
  157.0069  131.0193  151.2814 H   0  0  0  0  0  0  0  0  0  0  0  0  # atno 10718 bound_to 10713
  153.6872  135.6963  153.5100 H   0  0  0  0  0  0  0  0  0  0  0  0  # atno 10763 bound_to 10752
  153.2440  135.4296  155.0727 H   0  0  0  0  0  0  0  0  0  0  0  0  # atno 10764 bound_to 10752
  154.8383  135.3515  154.6414 H   0  0  0  0  0  0  0  0  0  0  0  0  # atno 10765 bound_to 10752
  140.8704  133.7724  156.0180 H   0  0  0  0  0  0  0  0  0  0  0  0  # atno 11005 bound_to 11000
  145.5436  139.1475  143.3433 LP  0  0  0  0  0  0  0  0  0  0  0  0  # atno 17320 bound_to 7965
  146.2352  140.5575  142.8958 LP  0  0  0  0  0  0  0  0  0  0  0  0  # atno 17321 bound_to 7965
  140.7791  143.4878  150.9933 LP  0  0  0  0  0  0  0  0  0  0  0  0  # atno 17342 bound_to 10162
  139.8566  143.7369  152.3175 LP  0  0  0  0  0  0  0  0  0  0  0  0  # atno 17343 bound_to 10162
  157.5349  130.8082  149.7960 LP  0  0  0  0  0  0  0  0  0  0  0  0  # atno 17370 bound_to 10713
  156.0150  130.3817  150.2140 LP  0  0  0  0  0  0  0  0  0  0  0  0  # atno 17371 bound_to 10713
  140.8580  134.2875  157.5247 LP  0  0  0  0  0  0  0  0  0  0  0  0  # atno 17394 bound_to 11000
  139.8712  134.9503  156.4051 LP  0  0  0  0  0  0  0  0  0  0  0  0  # atno 17395 bound_to 11000

$$$$
