AV-unprocessed.smi:1900|AV-procd|sdf|7713|dock6
  -GOLD-   22720 9453D 1   1.00000     0.00000
 Structure written by MMmdl.
 43 44  0  0  0  0  0  0  0  0  1 V2000
  153.6041  141.7812  160.7001 C   0  0  0  0  0  0  0  0  0  0  0  0
  152.5500  142.5682  159.9149 C   0  0  2  0  0  0  0  0  0  0  0  0
  152.2483  141.9273  158.5481 C   0  0  0  0  0  0  0  0  0  0  0  0
  151.3107  142.7249  157.7695 N   0  0  0  0  0  0  0  0  0  0  0  0
  150.9860  142.0731  156.5006 C   0  0  0  0  0  0  0  0  0  0  0  0
  150.0923  140.8243  156.6120 C   0  0  0  0  0  0  0  0  0  0  0  0
  148.5935  141.1418  156.4636 C   0  0  0  0  0  0  0  0  0  0  0  0
  148.2294  142.3590  157.1791 N   0  0  0  0  0  0  0  0  0  0  0  0
  147.5273  142.3924  158.3212 C   0  0  0  0  0  0  0  0  0  0  0  0
  147.1159  141.3846  158.8965 O   0  0  0  0  0  0  0  0  0  0  0  0
  147.3405  143.6534  158.7437 N   0  0  0  0  0  0  0  0  0  0  0  0
  146.6490  144.0737  159.9074 C   0  0  0  0  0  0  0  0  0  0  0  0
  146.0729  143.2878  160.9484 C   0  0  0  0  0  0  0  0  0  0  0  0
  145.5083  144.0539  161.8713 N   0  0  0  0  0  0  0  0  0  0  0  0
  145.7173  145.3151  161.4317 N   0  0  0  0  0  0  0  0  0  0  0  0
  146.4067  145.3728  160.2405 C   0  0  0  0  0  0  0  0  0  0  0  0
  151.8590  144.0680  157.5943 C   0  0  0  0  0  0  0  0  0  0  0  0
  152.2054  144.7451  158.9348 C   0  0  1  0  0  0  0  0  0  0  0  0
  150.9638  145.2079  159.7166 C   0  0  0  0  0  0  0  0  0  0  0  0
  153.0417  143.8932  159.7200 O   0  0  0  0  0  0  0  0  0  0  0  0
  145.3869  146.1166  161.9501 H   0  0  0  0  0  0  0  0  0  0  0  0
  153.2744  140.7585  160.8845 H   0  0  0  0  0  0  0  0  0  0  0  0
  153.7978  142.2475  161.6662 H   0  0  0  0  0  0  0  0  0  0  0  0
  154.5481  141.7362  160.1565 H   0  0  0  0  0  0  0  0  0  0  0  0
  151.6364  142.6051  160.5090 H   0  0  0  0  0  0  0  0  0  0  0  0
  153.1773  141.8011  157.9895 H   0  0  0  0  0  0  0  0  0  0  0  0
  151.8406  140.9278  158.7041 H   0  0  0  0  0  0  0  0  0  0  0  0
  150.5116  142.7936  155.8329 H   0  0  0  0  0  0  0  0  0  0  0  0
  151.9120  141.7755  156.0065 H   0  0  0  0  0  0  0  0  0  0  0  0
  150.3971  140.0738  155.8832 H   0  0  0  0  0  0  0  0  0  0  0  0
  150.2591  140.3649  157.5867 H   0  0  0  0  0  0  0  0  0  0  0  0
  148.3444  141.2745  155.4107 H   0  0  0  0  0  0  0  0  0  0  0  0
  147.9837  140.3108  156.8226 H   0  0  0  0  0  0  0  0  0  0  0  0
  148.5290  143.2340  156.7747 H   0  0  0  0  0  0  0  0  0  0  0  0
  147.7339  144.3887  158.1750 H   0  0  0  0  0  0  0  0  0  0  0  0
  146.0409  142.2156  161.0718 H   0  0  0  0  0  0  0  0  0  0  0  0
  146.6557  146.3035  159.7526 H   0  0  0  0  0  0  0  0  0  0  0  0
  152.7599  144.0143  156.9813 H   0  0  0  0  0  0  0  0  0  0  0  0
  151.1566  144.7032  157.0559 H   0  0  0  0  0  0  0  0  0  0  0  0
  152.7943  145.6366  158.7174 H   0  0  0  0  0  0  0  0  0  0  0  0
  150.3966  145.9411  159.1426 H   0  0  0  0  0  0  0  0  0  0  0  0
  151.2487  145.6745  160.6596 H   0  0  0  0  0  0  0  0  0  0  0  0
  150.2899  144.3817  159.9416 H   0  0  0  0  0  0  0  0  0  0  0  0
  1  2  1  0  0  0  0
  1 22  1  0  0  0  0
  1 23  1  0  0  0  0
  1 24  1  0  0  0  0
  2 20  1  0  0  0  0
  2  3  1  0  0  0  0
  2 25  1  0  0  0  0
  3  4  1  0  0  0  0
  3 26  1  0  0  0  0
  3 27  1  0  0  0  0
  4  5  1  0  0  0  0
  4 17  1  0  0  0  0
  5  6  1  0  0  0  0
  5 28  1  0  0  0  0
  5 29  1  0  0  0  0
  6  7  1  0  0  0  0
  6 30  1  0  0  0  0
  6 31  1  0  0  0  0
  7  8  1  0  0  0  0
  7 32  1  0  0  0  0
  7 33  1  0  0  0  0
  8  9  1  0  0  0  0
  8 34  1  0  0  0  0
  9 10  2  0  0  0  0
  9 11  1  0  0  0  0
 11 12  1  0  0  0  0
 11 35  1  0  0  0  0
 12 16  2  0  0  0  0
 12 13  1  0  0  0  0
 13 14  2  0  0  0  0
 13 36  1  0  0  0  0
 14 15  1  0  0  0  0
 15 21  1  0  0  0  0
 15 16  1  0  0  0  0
 16 37  1  0  0  0  0
 17 18  1  0  0  0  0
 17 38  1  0  0  0  0
 17 39  1  0  0  0  0
 18 19  1  0  0  0  0
 18 20  1  0  0  0  0
 18 40  1  0  0  0  0
 19 41  1  0  0  0  0
 19 42  1  0  0  0  0
 19 43  1  0  0  0  0
M  END
> <s_m_source_file>
AV-unprocessed.smi

> <i_m_source_file_index>
1900

> <i_lp_mmshare_version>
43012

> <i_f3d_flags>
0

> <s_epik_input>
W0NIM11bQ0BASF0xW0NIMl1OKFtDSDJdW0NASF0oTzEpW0NIM10pW0NIMl1bQ0gyXVtDSDJdW05IXUMoPU8pW05IXWMyW2NIXW5bbkhdW2NIXTI=

> <s_epik_cmdline>
J2VwaWtfcHl0aG9uJywgJy1waCcsICc3LjAnLCAnLXRuJywgJzgnLCAnLW1hJywgJzIwMCcsICctbWV0YWxfYmluZGluZycsICctaW1hZScsICc8aW5maWxlLm1hZT4nLCAnLW9tYWUnLCAnPG91dGZpbGUubWFlPic=

> <r_lp_tautomer_probability>
0.5

> <r_epik_Ionization_Penalty>
0.594715

> <r_epik_Ionization_Penalty_Charging>
0

> <r_epik_Ionization_Penalty_Neutral>
0.594715

> <r_epik_State_Penalty>
0.608529

> <r_epik_Charging_Adjusted_Penalty>
0.608529

> <i_epik_Tot_Q>
0

> <i_epik_Tot_abs_Q>
0

> <r_epik_Metal_State_Penalty>
0.608528

> <b_epik_Metal_Only>
0

> <s_lp_Force_Field>
OPLS_2005

> <r_lp_Energy>
27.7437

> <b_lp_Chiralities_Consistent>
1

> <s_lp_Variant>
AV-unprocessed.smi:1900-5

> <Gold.Version>
5.8.1

> <Gold.Id.Protein>
6NUR|6NUR_protein|mol2

> <Gold.PLP.Fitness>
48.0623

> <Gold.PLP.PLP>
-40.1374

> <Gold.PLP.part.hbond>
-4.0000

> <Gold.PLP.part.metal>
0.0000

> <Gold.PLP.part.buried>
-4.8832

> <Gold.PLP.part.nonpolar>
-29.9241

> <Gold.PLP.part.repulsive>
0.4011

> <Gold.PLP.ligand.clash>
0.0000

> <Gold.PLP.ligand.torsion>
0.4605

> <Gold.PLP.Chemscore.Hbond>
2.4800

> <Gold.PLP.Chemscore.CHOScore>
0.4553

> <Gold.PLP.Chemscore.Metal>
0.0000

> <Gold.Chemscore.Hbonds>
donor molecule, donor type, donor heavy atom, donor atom, acceptor molecule, acceptor atom, score
      L1  H     8    34       P1  8028  1.00
      L1  H    11    35       P1  8029  1.00
      P1  H  6934  6946       L1    10  0.37
      L1  C    16    37       P1  8029  0.30

> <Gold.PLP.Chemscore.Internal.Correction>
0.0402

> <Gold.Rescore>
     Score         DG    S(hbond)    S(metal)    S(lipo)     H(rot)  DE(clash)    DE(int)     intcor
     14.52     -17.42       1.64        0.00      96.23       1.88       1.38       1.52       ----

> <Gold.Chemscore.Fitness>
14.5231

> <Gold.Chemscore.DG>
-17.4188

> <Gold.Chemscore.ZeroCoef>
-5.4800

> <Gold.Chemscore.Hbond>
1.6444

> <Gold.Chemscore.Metal>
0.0000

> <Gold.Chemscore.Lipo>
96.2315

> <Gold.Chemscore.Internal_Hbond>
0.0000

> <Gold.Chemscore.DEClash>
1.3778

> <Gold.Chemscore.DEInternal>
1.5179

> <Gold.Chemscore.Rot>
1.8799

> <Gold.Chemscore.Internal.Correction>
   9.000000E+99

> <Gold.Chemscore.Hbonds>
donor molecule, donor type, donor heavy atom, donor atom, acceptor molecule, acceptor atom, score
      L1  H     8    34       P1  8028  0.55
      L1  H    11    35       P1  8029  0.55
      P1  H  6934  6946       L1    10  0.38

> <Gold.Chemscore.Hbond.Weighted>
-5.4923

> <Gold.Chemscore.Metal.Weighted>
-0.0000

> <Gold.Chemscore.Lipo.Weighted>
-11.2591

> <Gold.Chemscore.Internal_Hbond.Weighted>
0.0000

> <Gold.Chemscore.DEClash.Weighted>
1.3778

> <Gold.Chemscore.DEInternal.Weighted>
1.5179

> <Gold.Chemscore.Rot.Weighted>
4.8126

> <Gold.Chemscore.Internal.Correction.Weighted>
   9.000000E+99

> <Gold.Protein.RotatedTorsions>
[ 6907 6896 6895 6894 ] final  -88.67 input  -60.11 | X-H torsion
[ 7974 7965 7964 7962 ] final   -0.80 input  175.53 | X-H torsion
[ 8008 7997 7996 7995 ] final  -23.14 input   59.86 | X-H torsion
[ 10167 10162 10161 10158 ] final  -57.77 input  -65.29 | X-H torsion
[ 10718 10713 10712 10709 ] final  -80.30 input   66.30 | X-H torsion
[ 10763 10752 10751 10750 ] final  -17.94 input  -60.55 | X-H torsion
[ 11005 11000 10999 10996 ] final  -99.39 input  -57.11 | X-H torsion

> <Gold.Protein.ActiveResidues>
 VAL166  LYS551  ARG553  GLY616  TRP617  ASP618  TYR619  PRO620  LYS621  CYS622 
 ASP623  PHE694  ASN695  SER759  ASP760  ASP761  ALA762  ILE779  LEU786  VAL792 
 PHE793  MET794  SER795  GLU796  ALA797  LYS798  CYS799  TRP800  GLU811  SER814 

> <Gold.Protein.RotatedAtoms>
  150.6870  134.2706  159.4586 H   0  0  0  0  0  0  0  0  0  0  0  0  # atno 6907 bound_to 6896
  152.0628  134.9581  160.0584 H   0  0  0  0  0  0  0  0  0  0  0  0  # atno 6908 bound_to 6896
  152.1001  133.4210  159.4620 H   0  0  0  0  0  0  0  0  0  0  0  0  # atno 6909 bound_to 6896
  146.2424  140.1324  142.8337 H   0  0  0  0  0  0  0  0  0  0  0  0  # atno 7974 bound_to 7965
  154.4602  140.1988  156.0265 H   0  0  0  0  0  0  0  0  0  0  0  0  # atno 8008 bound_to 7997
  156.0826  140.3269  155.7684 H   0  0  0  0  0  0  0  0  0  0  0  0  # atno 8009 bound_to 7997
  155.5087  140.0560  157.2918 H   0  0  0  0  0  0  0  0  0  0  0  0  # atno 8010 bound_to 7997
  140.6238  143.2430  151.5415 H   0  0  0  0  0  0  0  0  0  0  0  0  # atno 10167 bound_to 10162
  156.0073  130.4570  150.3779 H   0  0  0  0  0  0  0  0  0  0  0  0  # atno 10718 bound_to 10713
  153.5816  135.7005  153.5461 H   0  0  0  0  0  0  0  0  0  0  0  0  # atno 10763 bound_to 10752
  153.3255  135.4062  155.1452 H   0  0  0  0  0  0  0  0  0  0  0  0  # atno 10764 bound_to 10752
  154.8616  135.3706  154.5344 H   0  0  0  0  0  0  0  0  0  0  0  0  # atno 10765 bound_to 10752
  141.1310  133.8318  157.0966 H   0  0  0  0  0  0  0  0  0  0  0  0  # atno 11005 bound_to 11000
  145.0315  140.8874  143.5107 LP  0  0  0  0  0  0  0  0  0  0  0  0  # atno 17320 bound_to 7965
  145.1389  139.2584  143.5500 LP  0  0  0  0  0  0  0  0  0  0  0  0  # atno 17321 bound_to 7965
  139.5461  144.2516  152.1445 LP  0  0  0  0  0  0  0  0  0  0  0  0  # atno 17342 bound_to 10162
  140.1743  144.4906  150.6562 LP  0  0  0  0  0  0  0  0  0  0  0  0  # atno 17343 bound_to 10162
  157.1861  131.0404  151.2724 LP  0  0  0  0  0  0  0  0  0  0  0  0  # atno 17370 bound_to 10713
  157.4103  130.7381  149.6834 LP  0  0  0  0  0  0  0  0  0  0  0  0  # atno 17371 bound_to 10713
  140.0359  134.9878  157.0870 LP  0  0  0  0  0  0  0  0  0  0  0  0  # atno 17394 bound_to 11000
  140.4211  134.1880  155.7164 LP  0  0  0  0  0  0  0  0  0  0  0  0  # atno 17395 bound_to 11000

$$$$
