AV-unprocessed.smi:2469|AV-procd|sdf|9734|dock9
  -GOLD-   2272013373D 1   1.00000     0.00000
 Structure written by MMmdl.
 32 33  0  0  0  0  0  0  0  0  1 V2000
  148.8897  136.3669  154.6475 O   0  0  0  0  0  0  0  0  0  0  0  0
  150.1232  136.3157  155.3322 C   0  0  0  0  0  0  0  0  0  0  0  0
  151.1641  137.1883  154.6201 C   0  0  0  0  0  0  0  0  0  0  0  0
  150.5155  138.3364  154.0796 O   0  0  0  0  0  0  0  0  0  0  0  0
  150.5499  139.5135  154.7988 C   0  0  0  0  0  0  0  0  0  0  0  0
  151.4432  139.6147  155.8838 C   0  0  0  0  0  0  0  0  0  0  0  0
  151.4868  140.8140  156.6200 C   0  0  0  0  0  0  0  0  0  0  0  0
  150.6356  141.8803  156.2475 C   0  0  0  0  0  0  0  0  0  0  0  0
  150.6001  143.1151  156.9129 N   0  0  0  0  0  0  0  0  0  0  0  0
  151.6269  143.5009  157.8726 C   0  0  1  0  0  0  0  0  0  0  0  0
  151.3603  144.8310  158.5503 C   0  0  0  0  0  0  0  0  0  0  0  0
  152.2366  144.7236  159.7951 C   0  0  0  0  0  0  0  0  0  0  0  0
  152.2893  143.3361  160.1187 O   0  0  0  0  0  0  0  0  0  0  0  0
  151.6833  142.5703  159.0818 C   0  0  0  0  0  0  0  0  0  0  0  0
  149.7761  141.6755  155.1474 C   0  0  0  0  0  0  0  0  0  0  0  0
  149.7278  140.5290  154.4367 N   0  0  0  0  0  0  0  0  0  0  0  0
  149.0242  136.0631  153.7628 H   0  0  0  0  0  0  0  0  0  0  0  0
  149.9963  136.6171  156.3724 H   0  0  0  0  0  0  0  0  0  0  0  0
  150.4543  135.2768  155.3352 H   0  0  0  0  0  0  0  0  0  0  0  0
  151.9041  137.5155  155.3524 H   0  0  0  0  0  0  0  0  0  0  0  0
  151.6886  136.6191  153.8503 H   0  0  0  0  0  0  0  0  0  0  0  0
  152.0840  138.7863  156.1474 H   0  0  0  0  0  0  0  0  0  0  0  0
  152.1686  140.8943  157.4528 H   0  0  0  0  0  0  0  0  0  0  0  0
  149.9439  143.8195  156.6067 H   0  0  0  0  0  0  0  0  0  0  0  0
  152.6082  143.5123  157.3964 H   0  0  0  0  0  0  0  0  0  0  0  0
  151.6080  145.6942  157.9322 H   0  0  0  0  0  0  0  0  0  0  0  0
  150.3114  144.9095  158.8414 H   0  0  0  0  0  0  0  0  0  0  0  0
  153.2490  145.0673  159.5795 H   0  0  0  0  0  0  0  0  0  0  0  0
  151.8490  145.3123  160.6269 H   0  0  0  0  0  0  0  0  0  0  0  0
  150.6792  142.2930  159.4075 H   0  0  0  0  0  0  0  0  0  0  0  0
  152.2391  141.6541  158.8815 H   0  0  0  0  0  0  0  0  0  0  0  0
  149.1047  142.4576  154.8235 H   0  0  0  0  0  0  0  0  0  0  0  0
  1  2  1  0  0  0  0
  1 17  1  0  0  0  0
  2  3  1  0  0  0  0
  2 18  1  0  0  0  0
  2 19  1  0  0  0  0
  3  4  1  0  0  0  0
  3 20  1  0  0  0  0
  3 21  1  0  0  0  0
  4  5  1  0  0  0  0
  5 16  1  0  0  0  0
  5  6  2  0  0  0  0
  6  7  1  0  0  0  0
  6 22  1  0  0  0  0
  7  8  2  0  0  0  0
  7 23  1  0  0  0  0
  8  9  1  0  0  0  0
  8 15  1  0  0  0  0
  9 10  1  0  0  0  0
  9 24  1  0  0  0  0
 10 14  1  0  0  0  0
 10 11  1  0  0  0  0
 10 25  1  0  0  0  0
 11 12  1  0  0  0  0
 11 26  1  0  0  0  0
 11 27  1  0  0  0  0
 12 13  1  0  0  0  0
 12 28  1  0  0  0  0
 12 29  1  0  0  0  0
 13 14  1  0  0  0  0
 14 30  1  0  0  0  0
 14 31  1  0  0  0  0
 15 16  2  0  0  0  0
 15 32  1  0  0  0  0
M  END
> <s_m_source_file>
AV-unprocessed.smi

> <i_m_source_file_index>
2469

> <i_lp_mmshare_version>
43012

> <i_f3d_flags>
0

> <s_epik_input>
W09IXVtDSDJdW0NIMl1PYzFbY0hdW2NIXWMoW2NIXW4xKVtOSF1bQ0BASF0yW0NIMl1bQ0gyXU9bQ0gyXTI=

> <s_epik_cmdline>
J2VwaWtfcHl0aG9uJywgJy1waCcsICc3LjAnLCAnLXRuJywgJzgnLCAnLW1hJywgJzIwMCcsICctbWV0YWxfYmluZGluZycsICctaW1hZScsICc8aW5maWxlLm1hZT4nLCAnLW9tYWUnLCAnPG91dGZpbGUubWFlPic=

> <r_lp_tautomer_probability>
1

> <r_epik_Ionization_Penalty>
0.000432265

> <r_epik_Ionization_Penalty_Charging>
0

> <r_epik_Ionization_Penalty_Neutral>
0.000432265

> <r_epik_State_Penalty>
-0

> <r_epik_Charging_Adjusted_Penalty>
0

> <i_epik_Tot_Q>
0

> <i_epik_Tot_abs_Q>
0

> <r_epik_Metal_State_Penalty>
-0

> <b_epik_Metal_Only>
0

> <s_lp_Force_Field>
OPLS_2005

> <r_lp_Energy>
23.2185

> <b_lp_Chiralities_Consistent>
1

> <s_lp_Variant>
AV-unprocessed.smi:2469-2

> <Gold.Version>
5.8.1

> <Gold.Id.Protein>
6NUR|6NUR_protein|mol2

> <Gold.PLP.Fitness>
42.7044

> <Gold.PLP.PLP>
-34.8614

> <Gold.PLP.part.hbond>
-3.0000

> <Gold.PLP.part.metal>
0.0000

> <Gold.PLP.part.buried>
-4.0502

> <Gold.PLP.part.nonpolar>
-27.8328

> <Gold.PLP.part.repulsive>
0.4012

> <Gold.PLP.ligand.clash>
0.0022

> <Gold.PLP.ligand.torsion>
0.5876

> <Gold.PLP.Chemscore.Hbond>
2.0000

> <Gold.PLP.Chemscore.CHOScore>
0.9898

> <Gold.PLP.Chemscore.Metal>
0.0000

> <Gold.Chemscore.Hbonds>
donor molecule, donor type, donor heavy atom, donor atom, acceptor molecule, acceptor atom, score
      L1  H     1    17       P1  7948  1.00
      L1  H     9    24       P1  8028  1.00
      L1  C    15    32       P1  8028  1.00

> <Gold.PLP.Chemscore.Internal.Correction>
0.0508

> <Gold.Rescore>
     Score         DG    S(hbond)    S(metal)    S(lipo)     H(rot)  DE(clash)    DE(int)     intcor
     15.81     -16.60       2.00        0.00      88.91       2.32       0.03       0.76       ----

> <Gold.Chemscore.Fitness>
15.8149

> <Gold.Chemscore.DG>
-16.6017

> <Gold.Chemscore.ZeroCoef>
-5.4800

> <Gold.Chemscore.Hbond>
1.9956

> <Gold.Chemscore.Metal>
0.0000

> <Gold.Chemscore.Lipo>
88.9054

> <Gold.Chemscore.Internal_Hbond>
0.0000

> <Gold.Chemscore.DEClash>
0.0255

> <Gold.Chemscore.DEInternal>
0.7613

> <Gold.Chemscore.Rot>
2.3225

> <Gold.Chemscore.Internal.Correction>
   9.000000E+99

> <Gold.Chemscore.Hbonds>
donor molecule, donor type, donor heavy atom, donor atom, acceptor molecule, acceptor atom, score
      L1  H     1    17       P1  7948  0.95
      L1  H     9    24       P1  8028  1.00

> <Gold.Chemscore.Hbond.Weighted>
-6.6654

> <Gold.Chemscore.Metal.Weighted>
-0.0000

> <Gold.Chemscore.Lipo.Weighted>
-10.4019

> <Gold.Chemscore.Internal_Hbond.Weighted>
0.0000

> <Gold.Chemscore.DEClash.Weighted>
0.0255

> <Gold.Chemscore.DEInternal.Weighted>
0.7613

> <Gold.Chemscore.Rot.Weighted>
5.9456

> <Gold.Chemscore.Internal.Correction.Weighted>
   9.000000E+99

> <Gold.Protein.RotatedTorsions>
[ 6907 6896 6895 6894 ] final   14.38 input  -60.11 | X-H torsion
[ 7974 7965 7964 7962 ] final   89.25 input  175.53 | X-H torsion
[ 8008 7997 7996 7995 ] final   85.26 input   59.86 | X-H torsion
[ 10167 10162 10161 10158 ] final  149.31 input  -65.29 | X-H torsion
[ 10718 10713 10712 10709 ] final  170.17 input   66.30 | X-H torsion
[ 10763 10752 10751 10750 ] final  139.10 input  -60.55 | X-H torsion
[ 11005 11000 10999 10996 ] final   28.39 input  -57.11 | X-H torsion

> <Gold.Protein.ActiveResidues>
 VAL166  LYS551  ARG553  GLY616  TRP617  ASP618  TYR619  PRO620  LYS621  CYS622 
 ASP623  PHE694  ASN695  SER759  ASP760  ASP761  ALA762  ILE779  LEU786  VAL792 
 PHE793  MET794  SER795  GLU796  ALA797  LYS798  CYS799  TRP800  GLU811  SER814 

> <Gold.Protein.RotatedAtoms>
  151.8013  135.0708  160.0400 H   0  0  0  0  0  0  0  0  0  0  0  0  # atno 6907 bound_to 6896
  152.3087  133.5725  159.5674 H   0  0  0  0  0  0  0  0  0  0  0  0  # atno 6908 bound_to 6896
  150.7309  134.0101  159.3708 H   0  0  0  0  0  0  0  0  0  0  0  0  # atno 6909 bound_to 6896
  145.5348  139.2285  143.2598 H   0  0  0  0  0  0  0  0  0  0  0  0  # atno 7974 bound_to 7965
  155.9477  140.3403  155.6381 H   0  0  0  0  0  0  0  0  0  0  0  0  # atno 8008 bound_to 7997
  155.6959  140.0754  157.2448 H   0  0  0  0  0  0  0  0  0  0  0  0  # atno 8009 bound_to 7997
  154.4115  140.1649  156.2125 H   0  0  0  0  0  0  0  0  0  0  0  0  # atno 8010 bound_to 7997
  139.4863  144.5612  151.7228 H   0  0  0  0  0  0  0  0  0  0  0  0  # atno 10167 bound_to 10162
  157.0119  131.0207  151.2800 H   0  0  0  0  0  0  0  0  0  0  0  0  # atno 10718 bound_to 10713
  153.9005  135.3022  155.3448 H   0  0  0  0  0  0  0  0  0  0  0  0  # atno 10763 bound_to 10752
  154.7673  135.4904  153.9582 H   0  0  0  0  0  0  0  0  0  0  0  0  # atno 10764 bound_to 10752
  153.1247  135.6790  153.9376 H   0  0  0  0  0  0  0  0  0  0  0  0  # atno 10765 bound_to 10752
  140.3161  134.2595  155.7725 H   0  0  0  0  0  0  0  0  0  0  0  0  # atno 11005 bound_to 11000
  146.2020  140.6166  142.9098 LP  0  0  0  0  0  0  0  0  0  0  0  0  # atno 17320 bound_to 7965
  144.7607  140.5415  143.6737 LP  0  0  0  0  0  0  0  0  0  0  0  0  # atno 17321 bound_to 7965
  140.5182  144.0920  150.6014 LP  0  0  0  0  0  0  0  0  0  0  0  0  # atno 17342 bound_to 10162
  140.3869  143.2773  152.0105 LP  0  0  0  0  0  0  0  0  0  0  0  0  # atno 17343 bound_to 10162
  157.5314  130.8061  149.7921 LP  0  0  0  0  0  0  0  0  0  0  0  0  # atno 17370 bound_to 10713
  156.0133  130.3824  150.2193 LP  0  0  0  0  0  0  0  0  0  0  0  0  # atno 17371 bound_to 10713
  141.2097  133.7740  156.9978 LP  0  0  0  0  0  0  0  0  0  0  0  0  # atno 17394 bound_to 11000
  140.0982  134.9551  157.1883 LP  0  0  0  0  0  0  0  0  0  0  0  0  # atno 17395 bound_to 11000

$$$$
