AV-unprocessed.smi:2663|AV-procd|sdf|10324|dock9
  -GOLD-   2272014343D 1   1.00000     0.00000
 Structure written by MMmdl.
 38 39  0  0  0  0  0  0  0  0  2 V2000
  151.9539  137.3619  158.1431 C   0  0  0  0  0  0  0  0  0  0  0  0
  150.6978  138.2330  157.8814 C   0  0  1  0  0  0  0  0  0  0  0  0
  150.0360  137.7637  156.5525 C   0  0  0  0  0  0  0  0  0  0  0  0
  150.9297  137.8247  155.4585 O   0  0  0  0  0  0  0  0  0  0  0  0
  149.7359  138.0732  158.9837 N   0  0  0  0  0  0  0  0  0  0  0  0
  149.0939  136.9751  159.4160 C   0  0  0  0  0  0  0  0  0  0  0  0
  149.2692  135.8862  158.8659 O   0  0  0  0  0  0  0  0  0  0  0  0
  148.2834  137.2117  160.4725 N   0  5  0  0  0  0  0  0  0  0  0  0
  147.7824  136.1848  161.1786 C   0  0  0  0  0  0  0  0  0  0  0  0
  147.8080  134.9205  160.7273 N   0  0  0  0  0  0  0  0  0  0  0  0
  147.2366  134.0142  161.6106 N   0  0  0  0  0  0  0  0  0  0  0  0
  146.7847  134.6231  162.7067 C   0  0  0  0  0  0  0  0  0  0  0  0
  147.0114  136.3583  162.7576 S   0  0  0  0  0  0  0  0  0  0  0  0
  151.0959  139.7516  157.8266 C   0  0  0  0  0  0  0  0  0  0  0  0
  151.9500  140.2120  159.0401 C   0  0  0  0  0  0  0  0  0  0  0  0
  152.3694  141.6870  158.9348 C   0  0  0  0  0  0  0  0  0  0  0  0
  151.1496  142.6034  158.7803 C   0  0  0  0  0  0  0  0  0  0  0  0
  150.3066  142.1801  157.5715 C   0  0  0  0  0  0  0  0  0  0  0  0
  149.8810  140.7066  157.6750 C   0  0  0  0  0  0  0  0  0  0  0  0
  152.7645  137.6209  157.4615 H   0  0  0  0  0  0  0  0  0  0  0  0
  151.7520  136.3002  158.0023 H   0  0  0  0  0  0  0  0  0  0  0  0
  152.3279  137.4757  159.1603 H   0  0  0  0  0  0  0  0  0  0  0  0
  149.6857  136.7347  156.6287 H   0  0  0  0  0  0  0  0  0  0  0  0
  149.1544  138.3596  156.3168 H   0  0  0  0  0  0  0  0  0  0  0  0
  151.7330  137.3940  155.7076 H   0  0  0  0  0  0  0  0  0  0  0  0
  149.5303  138.9197  159.4937 H   0  0  0  0  0  0  0  0  0  0  0  0
  146.3121  134.0476  163.4885 H   0  0  0  0  0  0  0  0  0  0  0  0
  151.7196  139.8943  156.9429 H   0  0  0  0  0  0  0  0  0  0  0  0
  151.3967  140.0678  159.9690 H   0  0  0  0  0  0  0  0  0  0  0  0
  152.8553  139.6131  159.1263 H   0  0  0  0  0  0  0  0  0  0  0  0
  152.9384  141.9745  159.8193 H   0  0  0  0  0  0  0  0  0  0  0  0
  153.0366  141.8180  158.0818 H   0  0  0  0  0  0  0  0  0  0  0  0
  150.5417  142.5632  159.6851 H   0  0  0  0  0  0  0  0  0  0  0  0
  151.4720  143.6389  158.6676 H   0  0  0  0  0  0  0  0  0  0  0  0
  149.4242  142.8158  157.4938 H   0  0  0  0  0  0  0  0  0  0  0  0
  150.8783  142.3317  156.6550 H   0  0  0  0  0  0  0  0  0  0  0  0
  149.3070  140.4639  156.7822 H   0  0  0  0  0  0  0  0  0  0  0  0
  149.2011  140.5889  158.5196 H   0  0  0  0  0  0  0  0  0  0  0  0
  1  2  1  0  0  0  0
  1 20  1  0  0  0  0
  1 21  1  0  0  0  0
  1 22  1  0  0  0  0
  2  3  1  0  0  0  0
  2  5  1  0  0  0  0
  2 14  1  0  0  0  0
  3  4  1  0  0  0  0
  3 23  1  0  0  0  0
  3 24  1  0  0  0  0
  4 25  1  0  0  0  0
  5  6  1  0  0  0  0
  5 26  1  0  0  0  0
  6  7  2  0  0  0  0
  6  8  1  0  0  0  0
  8  9  1  0  0  0  0
  9 13  1  0  0  0  0
  9 10  2  0  0  0  0
 10 11  1  0  0  0  0
 11 12  2  0  0  0  0
 12 13  1  0  0  0  0
 12 27  1  0  0  0  0
 14 19  1  0  0  0  0
 14 15  1  0  0  0  0
 14 28  1  0  0  0  0
 15 16  1  0  0  0  0
 15 29  1  0  0  0  0
 15 30  1  0  0  0  0
 16 17  1  0  0  0  0
 16 31  1  0  0  0  0
 16 32  1  0  0  0  0
 17 18  1  0  0  0  0
 17 33  1  0  0  0  0
 17 34  1  0  0  0  0
 18 19  1  0  0  0  0
 18 35  1  0  0  0  0
 18 36  1  0  0  0  0
 19 37  1  0  0  0  0
 19 38  1  0  0  0  0
M  CHG  1   8  -1
M  END
> <s_m_source_file>
AV-unprocessed.smi

> <i_m_source_file_index>
2663

> <i_lp_mmshare_version>
43012

> <i_f3d_flags>
0

> <s_epik_input>
W0NIMl0xW0NIMl1bQ0gyXVtDSDJdW0NIMl1bQ0hdMVtDQF0oW0NIM10pKFtDSDJdW09IXSlbTkhdQyg9TylbTkhdYzJubltjSF1zMg==

> <s_epik_cmdline>
J2VwaWtfcHl0aG9uJywgJy1waCcsICc3LjAnLCAnLXRuJywgJzgnLCAnLW1hJywgJzIwMCcsICctbWV0YWxfYmluZGluZycsICctaW1hZScsICc8aW5maWxlLm1hZT4nLCAnLW9tYWUnLCAnPG91dGZpbGUubWFlPic=

> <r_lp_tautomer_probability>
1

> <r_epik_Ionization_Penalty>
4.39194

> <r_epik_Ionization_Penalty_Charging>
4.34423

> <r_epik_Ionization_Penalty_Neutral>
0.047714

> <r_epik_State_Penalty>
4.34384

> <r_epik_Charging_Adjusted_Penalty>
8.68806

> <i_epik_Tot_Q>
-1

> <i_epik_Tot_abs_Q>
1

> <r_epik_Metal_State_Penalty>
0.746645

> <b_epik_Metal_Only>
1

> <s_lp_Force_Field>
OPLS_2005

> <r_lp_Energy>
17.2717

> <b_lp_Chiralities_Consistent>
1

> <s_lp_Variant>
AV-unprocessed.smi:2663-3

> <Gold.Version>
5.8.1

> <Gold.Id.Protein>
6NUR|6NUR_protein|mol2

> <Gold.PLP.Fitness>
38.3586

> <Gold.PLP.PLP>
-28.5841

> <Gold.PLP.part.hbond>
-3.0000

> <Gold.PLP.part.metal>
0.0000

> <Gold.PLP.part.buried>
-5.8847

> <Gold.PLP.part.nonpolar>
-21.1821

> <Gold.PLP.part.repulsive>
0.2297

> <Gold.PLP.ligand.clash>
0.0000

> <Gold.PLP.ligand.torsion>
0.1721

> <Gold.PLP.Chemscore.Hbond>
3.3567

> <Gold.PLP.Chemscore.CHOScore>
0.0000

> <Gold.PLP.Chemscore.Metal>
0.0000

> <Gold.Chemscore.Hbonds>
donor molecule, donor type, donor heavy atom, donor atom, acceptor molecule, acceptor atom, score
      P1  H  6896  6908       L1     7  1.00
      P1  H  6931  6943       L1     8  1.47
      P1  H  6934  6947       L1     8  0.85

> <Gold.PLP.Chemscore.Internal.Correction>
0.0486

> <Gold.Rescore>
     Score         DG    S(hbond)    S(metal)    S(lipo)     H(rot)  DE(clash)    DE(int)     intcor
     10.61     -12.51       1.38        0.00      68.39       2.18       0.01       1.89       ----

> <Gold.Chemscore.Fitness>
10.6051

> <Gold.Chemscore.DG>
-12.5072

> <Gold.Chemscore.ZeroCoef>
-5.4800

> <Gold.Chemscore.Hbond>
1.3779

> <Gold.Chemscore.Metal>
0.0000

> <Gold.Chemscore.Lipo>
68.3904

> <Gold.Chemscore.Internal_Hbond>
0.0000

> <Gold.Chemscore.DEClash>
0.0147

> <Gold.Chemscore.DEInternal>
1.8874

> <Gold.Chemscore.Rot>
2.1783

> <Gold.Chemscore.Internal.Correction>
   9.000000E+99

> <Gold.Chemscore.Hbonds>
donor molecule, donor type, donor heavy atom, donor atom, acceptor molecule, acceptor atom, score
      P1  H  6896  6908       L1     7  0.86
      P1  H  6931  6943       L1     8  0.20
      P1  H  6934  6947       L1     8  0.33

> <Gold.Chemscore.Hbond.Weighted>
-4.6020

> <Gold.Chemscore.Metal.Weighted>
-0.0000

> <Gold.Chemscore.Lipo.Weighted>
-8.0017

> <Gold.Chemscore.Internal_Hbond.Weighted>
0.0000

> <Gold.Chemscore.DEClash.Weighted>
0.0147

> <Gold.Chemscore.DEInternal.Weighted>
1.8874

> <Gold.Chemscore.Rot.Weighted>
5.5765

> <Gold.Chemscore.Internal.Correction.Weighted>
   9.000000E+99

> <Gold.Protein.RotatedTorsions>
[ 6907 6896 6895 6894 ] final -176.27 input  -60.11 | X-H torsion
[ 7974 7965 7964 7962 ] final  120.69 input  175.53 | X-H torsion
[ 8008 7997 7996 7995 ] final  116.81 input   59.86 | X-H torsion
[ 10167 10162 10161 10158 ] final  158.12 input  -65.29 | X-H torsion
[ 10718 10713 10712 10709 ] final -115.54 input   66.30 | X-H torsion
[ 10763 10752 10751 10750 ] final    8.63 input  -60.55 | X-H torsion
[ 11005 11000 10999 10996 ] final  -52.59 input  -57.11 | X-H torsion

> <Gold.Protein.ActiveResidues>
 VAL166  LYS551  ARG553  GLY616  TRP617  ASP618  TYR619  PRO620  LYS621  CYS622 
 ASP623  PHE694  ASN695  SER759  ASP760  ASP761  ALA762  ILE779  LEU786  VAL792 
 PHE793  MET794  SER795  GLU796  ALA797  LYS798  CYS799  TRP800  GLU811  SER814 

> <Gold.Protein.RotatedAtoms>
  151.6020  133.3355  159.3049 H   0  0  0  0  0  0  0  0  0  0  0  0  # atno 6907 bound_to 6896
  150.8202  134.7410  159.6777 H   0  0  0  0  0  0  0  0  0  0  0  0  # atno 6908 bound_to 6896
  152.4296  134.5808  159.9999 H   0  0  0  0  0  0  0  0  0  0  0  0  # atno 6909 bound_to 6896
  145.1282  139.3345  143.4679 H   0  0  0  0  0  0  0  0  0  0  0  0  # atno 7974 bound_to 7965
  156.2460  140.2909  156.0581 H   0  0  0  0  0  0  0  0  0  0  0  0  # atno 8008 bound_to 7997
  155.1806  140.0404  157.2898 H   0  0  0  0  0  0  0  0  0  0  0  0  # atno 8009 bound_to 7997
  154.6262  140.2488  155.7495 H   0  0  0  0  0  0  0  0  0  0  0  0  # atno 8010 bound_to 7997
  139.4825  144.4854  151.8384 H   0  0  0  0  0  0  0  0  0  0  0  0  # atno 10167 bound_to 10162
  156.0902  130.6086  150.8919 H   0  0  0  0  0  0  0  0  0  0  0  0  # atno 10718 bound_to 10713
  153.2229  135.6883  153.7979 H   0  0  0  0  0  0  0  0  0  0  0  0  # atno 10763 bound_to 10752
  153.7171  135.3273  155.3260 H   0  0  0  0  0  0  0  0  0  0  0  0  # atno 10764 bound_to 10752
  154.8278  135.4604  154.1083 H   0  0  0  0  0  0  0  0  0  0  0  0  # atno 10765 bound_to 10752
  141.0932  133.6629  156.4047 H   0  0  0  0  0  0  0  0  0  0  0  0  # atno 11005 bound_to 11000
  146.3516  140.1269  142.8598 LP  0  0  0  0  0  0  0  0  0  0  0  0  # atno 17320 bound_to 7965
  145.0665  140.9125  143.4907 LP  0  0  0  0  0  0  0  0  0  0  0  0  # atno 17321 bound_to 7965
  140.4334  144.2085  150.5888 LP  0  0  0  0  0  0  0  0  0  0  0  0  # atno 17342 bound_to 10162
  140.4757  143.2397  151.9027 LP  0  0  0  0  0  0  0  0  0  0  0  0  # atno 17343 bound_to 10162
  157.6049  131.0939  150.8896 LP  0  0  0  0  0  0  0  0  0  0  0  0  # atno 17370 bound_to 10713
  156.9047  130.5259  149.5282 LP  0  0  0  0  0  0  0  0  0  0  0  0  # atno 17371 bound_to 10713
  140.5202  134.6312  157.5315 LP  0  0  0  0  0  0  0  0  0  0  0  0  # atno 17394 bound_to 11000
  139.9763  134.7210  155.9944 LP  0  0  0  0  0  0  0  0  0  0  0  0  # atno 17395 bound_to 11000

$$$$
