AV-unprocessed.smi:483|AV-procd|sdf|2685|dock4
  -GOLD-   2262023113D 1   1.00000     0.00000
 Structure written by MMmdl.
 44 44  0  0  0  0  0  0  0  0  1 V2000
  146.9528  135.1005  162.0446 C   0  0  0  0  0  0  0  0  0  0  0  0
  147.3263  135.5048  160.6147 C   0  0  0  0  0  0  0  0  0  0  0  0
  148.2886  136.7031  160.5766 C   0  0  0  0  0  0  0  0  0  0  0  0
  148.5160  137.1665  159.2129 N   0  0  0  0  0  0  0  0  0  0  0  0
  149.7199  137.3139  158.6389 C   0  0  0  0  0  0  0  0  0  0  0  0
  150.7782  137.0577  159.2160 O   0  0  0  0  0  0  0  0  0  0  0  0
  149.7208  137.8079  157.1829 C   0  0  2  0  0  0  0  0  0  0  0  0
  150.3295  136.6997  156.3075 C   0  0  0  0  0  0  0  0  0  0  0  0
  150.5541  139.0015  157.0442 N   0  0  0  0  0  0  0  0  0  0  0  0
  150.1191  140.2090  156.6513 C   0  0  0  0  0  0  0  0  0  0  0  0
  148.9452  140.4395  156.3575 O   0  0  0  0  0  0  0  0  0  0  0  0
  151.1727  141.3250  156.6094 C   0  0  0  0  0  0  0  0  0  0  0  0
  151.5856  141.7808  157.9449 N   0  0  0  0  0  0  0  0  0  0  0  0
  151.0649  143.0077  158.3088 N   0  0  0  0  0  0  0  0  0  0  0  0
  151.3508  143.5496  159.4470 C   0  0  0  0  0  0  0  0  0  0  0  0
  150.7342  144.8934  159.7289 C   0  0  0  0  0  0  0  0  0  0  0  0
  152.2321  142.8526  160.3789 C   0  0  0  0  0  0  0  0  0  0  0  0
  152.5321  143.5355  161.7063 C   0  0  0  0  0  0  0  0  0  0  0  0
  152.7377  141.6492  160.0097 C   0  0  0  0  0  0  0  0  0  0  0  0
  153.6140  140.8994  160.8510 C   0  0  0  0  0  0  0  0  0  0  0  0
  154.3261  140.3072  161.5456 N   0  0  0  0  0  0  0  0  0  0  0  0
  152.4235  141.0325  158.7190 C   0  0  0  0  0  0  0  0  0  0  0  0
  152.8674  139.9430  158.3526 O   0  0  0  0  0  0  0  0  0  0  0  0
  146.2689  134.2514  162.0419 H   0  0  0  0  0  0  0  0  0  0  0  0
  146.4638  135.9205  162.5711 H   0  0  0  0  0  0  0  0  0  0  0  0
  147.8366  134.8142  162.6153 H   0  0  0  0  0  0  0  0  0  0  0  0
  147.7780  134.6494  160.1107 H   0  0  0  0  0  0  0  0  0  0  0  0
  146.4181  135.7452  160.0604 H   0  0  0  0  0  0  0  0  0  0  0  0
  147.8720  137.5321  161.1493 H   0  0  0  0  0  0  0  0  0  0  0  0
  149.2388  136.4468  161.0486 H   0  0  0  0  0  0  0  0  0  0  0  0
  147.6988  137.3979  158.6666 H   0  0  0  0  0  0  0  0  0  0  0  0
  148.7018  138.0193  156.8520 H   0  0  0  0  0  0  0  0  0  0  0  0
  149.7409  135.7830  156.3635 H   0  0  0  0  0  0  0  0  0  0  0  0
  151.3509  136.4584  156.6066 H   0  0  0  0  0  0  0  0  0  0  0  0
  150.3564  137.0023  155.2601 H   0  0  0  0  0  0  0  0  0  0  0  0
  151.5309  138.9027  157.2800 H   0  0  0  0  0  0  0  0  0  0  0  0
  152.0352  140.9518  156.0543 H   0  0  0  0  0  0  0  0  0  0  0  0
  150.7948  142.1681  156.0276 H   0  0  0  0  0  0  0  0  0  0  0  0
  150.0135  144.8243  160.5439 H   0  0  0  0  0  0  0  0  0  0  0  0
  150.2110  145.2911  158.8578 H   0  0  0  0  0  0  0  0  0  0  0  0
  151.4969  145.6195  160.0111 H   0  0  0  0  0  0  0  0  0  0  0  0
  153.0663  142.8804  162.3937 H   0  0  0  0  0  0  0  0  0  0  0  0
  151.6111  143.8413  162.2038 H   0  0  0  0  0  0  0  0  0  0  0  0
  153.1477  144.4214  161.5460 H   0  0  0  0  0  0  0  0  0  0  0  0
  1  2  1  0  0  0  0
  1 24  1  0  0  0  0
  1 25  1  0  0  0  0
  1 26  1  0  0  0  0
  2  3  1  0  0  0  0
  2 27  1  0  0  0  0
  2 28  1  0  0  0  0
  3  4  1  0  0  0  0
  3 29  1  0  0  0  0
  3 30  1  0  0  0  0
  4  5  1  0  0  0  0
  4 31  1  0  0  0  0
  5  6  2  0  0  0  0
  5  7  1  0  0  0  0
  7  8  1  0  0  0  0
  7  9  1  0  0  0  0
  7 32  1  0  0  0  0
  8 33  1  0  0  0  0
  8 34  1  0  0  0  0
  8 35  1  0  0  0  0
  9 10  1  0  0  0  0
  9 36  1  0  0  0  0
 10 11  2  0  0  0  0
 10 12  1  0  0  0  0
 12 13  1  0  0  0  0
 12 37  1  0  0  0  0
 12 38  1  0  0  0  0
 13 22  1  0  0  0  0
 13 14  1  0  0  0  0
 14 15  2  0  0  0  0
 15 16  1  0  0  0  0
 15 17  1  0  0  0  0
 16 39  1  0  0  0  0
 16 40  1  0  0  0  0
 16 41  1  0  0  0  0
 17 18  1  0  0  0  0
 17 19  2  0  0  0  0
 18 42  1  0  0  0  0
 18 43  1  0  0  0  0
 18 44  1  0  0  0  0
 19 20  1  0  0  0  0
 19 22  1  0  0  0  0
 20 21  3  0  0  0  0
 22 23  2  0  0  0  0
M  END
> <s_m_source_file>
AV-unprocessed.smi

> <i_m_source_file_index>
483

> <i_lp_mmshare_version>
43012

> <i_f3d_flags>
0

> <s_epik_input>
W0NIM11bQ0gyXVtDSDJdW05IXUMoPU8pW0NASF0oW0NIM10pW05IXUMoPU8pW0NIMl1uMW5jKFtDSDNdKWMoW0NIM10pYyhDI04pYzE9Tw==

> <s_epik_cmdline>
J2VwaWtfcHl0aG9uJywgJy1waCcsICc3LjAnLCAnLXRuJywgJzgnLCAnLW1hJywgJzIwMCcsICctbWV0YWxfYmluZGluZycsICctaW1hZScsICc8aW5maWxlLm1hZT4nLCAnLW9tYWUnLCAnPG91dGZpbGUubWFlPic=

> <r_lp_tautomer_probability>
1

> <r_epik_Ionization_Penalty>
5.96698e-08

> <r_epik_Ionization_Penalty_Charging>
1.88177e-11

> <r_epik_Ionization_Penalty_Neutral>
5.9651e-08

> <r_epik_State_Penalty>
-0

> <r_epik_Charging_Adjusted_Penalty>
1.88177e-11

> <i_epik_Tot_Q>
0

> <i_epik_Tot_abs_Q>
0

> <r_epik_Metal_State_Penalty>
-0

> <b_epik_Metal_Only>
0

> <s_lp_Force_Field>
OPLS_2005

> <r_lp_Energy>
17.9954

> <b_lp_Chiralities_Consistent>
1

> <s_lp_Variant>
AV-unprocessed.smi:483-1

> <Gold.Version>
5.8.1

> <Gold.Id.Protein>
6NUR|6NUR_protein|mol2

> <Gold.PLP.Fitness>
45.6055

> <Gold.PLP.PLP>
-40.3064

> <Gold.PLP.part.hbond>
-2.0000

> <Gold.PLP.part.metal>
0.0000

> <Gold.PLP.part.buried>
-6.2295

> <Gold.PLP.part.nonpolar>
-32.3471

> <Gold.PLP.part.repulsive>
0.3081

> <Gold.PLP.ligand.clash>
0.0000

> <Gold.PLP.ligand.torsion>
0.4056

> <Gold.PLP.Chemscore.Hbond>
2.0000

> <Gold.PLP.Chemscore.CHOScore>
0.0000

> <Gold.PLP.Chemscore.Metal>
0.0000

> <Gold.Chemscore.Hbonds>
donor molecule, donor type, donor heavy atom, donor atom, acceptor molecule, acceptor atom, score
      P1  H  6896  6909       L1     6  0.78
      P1  H  7997  8009       L1    23  0.65

> <Gold.PLP.Chemscore.Internal.Correction>
0.1103

> <Gold.Rescore>
     Score         DG    S(hbond)    S(metal)    S(lipo)     H(rot)  DE(clash)    DE(int)     intcor
     14.88     -15.58       1.96        0.00      82.28       2.38       0.01       0.69       ----

> <Gold.Chemscore.Fitness>
14.8815

> <Gold.Chemscore.DG>
-15.5790

> <Gold.Chemscore.ZeroCoef>
-5.4800

> <Gold.Chemscore.Hbond>
1.9643

> <Gold.Chemscore.Metal>
0.0000

> <Gold.Chemscore.Lipo>
82.2843

> <Gold.Chemscore.Internal_Hbond>
0.0000

> <Gold.Chemscore.DEClash>
0.0089

> <Gold.Chemscore.DEInternal>
0.6887

> <Gold.Chemscore.Rot>
2.3785

> <Gold.Chemscore.Internal.Correction>
   9.000000E+99

> <Gold.Chemscore.Hbonds>
donor molecule, donor type, donor heavy atom, donor atom, acceptor molecule, acceptor atom, score
      P1  H  6896  6909       L1     6  0.72
      P1  H  7997  8009       L1    23  0.57

> <Gold.Chemscore.Hbond.Weighted>
-6.5608

> <Gold.Chemscore.Metal.Weighted>
-0.0000

> <Gold.Chemscore.Lipo.Weighted>
-9.6273

> <Gold.Chemscore.Internal_Hbond.Weighted>
0.0000

> <Gold.Chemscore.DEClash.Weighted>
0.0089

> <Gold.Chemscore.DEInternal.Weighted>
0.6887

> <Gold.Chemscore.Rot.Weighted>
6.0890

> <Gold.Chemscore.Internal.Correction.Weighted>
   9.000000E+99

> <Gold.Protein.RotatedTorsions>
[ 6907 6896 6895 6894 ] final   87.22 input  -60.11 | X-H torsion
[ 7974 7965 7964 7962 ] final  120.76 input  175.53 | X-H torsion
[ 8008 7997 7996 7995 ] final  154.30 input   59.86 | X-H torsion
[ 10167 10162 10161 10158 ] final  -38.80 input  -65.29 | X-H torsion
[ 10718 10713 10712 10709 ] final  -20.44 input   66.30 | X-H torsion
[ 10763 10752 10751 10750 ] final   57.71 input  -60.55 | X-H torsion
[ 11005 11000 10999 10996 ] final  108.21 input  -57.11 | X-H torsion

> <Gold.Protein.ActiveResidues>
 VAL166  LYS551  ARG553  GLY616  TRP617  ASP618  TYR619  PRO620  LYS621  CYS622 
 ASP623  PHE694  ASN695  SER759  ASP760  ASP761  ALA762  ILE779  LEU786  VAL792 
 PHE793  MET794  SER795  GLU796  ALA797  LYS798  CYS799  TRP800  GLU811  SER814 

> <Gold.Protein.RotatedAtoms>
  152.5407  134.2310  159.8824 H   0  0  0  0  0  0  0  0  0  0  0  0  # atno 6907 bound_to 6896
  151.2282  133.4458  159.2610 H   0  0  0  0  0  0  0  0  0  0  0  0  # atno 6908 bound_to 6896
  151.0740  134.9830  159.8379 H   0  0  0  0  0  0  0  0  0  0  0  0  # atno 6909 bound_to 6896
  145.1273  139.3350  143.4683 H   0  0  0  0  0  0  0  0  0  0  0  0  # atno 7974 bound_to 7965
  156.2538  140.1970  156.6624 H   0  0  0  0  0  0  0  0  0  0  0  0  # atno 8008 bound_to 7997
  154.6454  140.0578  156.9920 H   0  0  0  0  0  0  0  0  0  0  0  0  # atno 8009 bound_to 7997
  155.1499  140.3250  155.4436 H   0  0  0  0  0  0  0  0  0  0  0  0  # atno 8010 bound_to 7997
  140.7082  143.3254  151.2693 H   0  0  0  0  0  0  0  0  0  0  0  0  # atno 10167 bound_to 10162
  156.5318  130.4657  149.6543 H   0  0  0  0  0  0  0  0  0  0  0  0  # atno 10718 bound_to 10713
  152.9855  135.5632  154.5435 H   0  0  0  0  0  0  0  0  0  0  0  0  # atno 10763 bound_to 10752
  154.4886  135.2792  155.1517 H   0  0  0  0  0  0  0  0  0  0  0  0  # atno 10764 bound_to 10752
  154.2996  135.6310  153.5472 H   0  0  0  0  0  0  0  0  0  0  0  0  # atno 10765 bound_to 10752
  139.8840  134.9424  156.5937 H   0  0  0  0  0  0  0  0  0  0  0  0  # atno 11005 bound_to 11000
  146.3516  140.1258  142.8599 LP  0  0  0  0  0  0  0  0  0  0  0  0  # atno 17320 bound_to 7965
  145.0674  140.9131  143.4902 LP  0  0  0  0  0  0  0  0  0  0  0  0  # atno 17321 bound_to 7965
  139.6720  144.0003  152.2759 LP  0  0  0  0  0  0  0  0  0  0  0  0  # atno 17342 bound_to 10162
  139.9604  144.6561  150.8085 LP  0  0  0  0  0  0  0  0  0  0  0  0  # atno 17343 bound_to 10162
  156.3053  130.7199  151.2080 LP  0  0  0  0  0  0  0  0  0  0  0  0  # atno 17370 bound_to 10713
  157.7420  131.0495  150.5053 LP  0  0  0  0  0  0  0  0  0  0  0  0  # atno 17371 bound_to 10713
  140.7936  133.8562  155.8667 LP  0  0  0  0  0  0  0  0  0  0  0  0  # atno 17394 bound_to 11000
  140.9655  134.1599  157.4619 LP  0  0  0  0  0  0  0  0  0  0  0  0  # atno 17395 bound_to 11000

$$$$
