AV-unprocessed.smi:278|AV-procd|sdf|2090|dock8
  -GOLD-   2262021373D 1   1.00000     0.00000
 Structure written by MMmdl.
 50 54  0  0  0  0  0  0  0  0  1 V2000
  147.3208  141.7879  157.2676 O   0  0  0  0  0  0  0  0  0  0  0  0
  146.1994  141.3232  156.4366 S   0  0  0  0  0  0  0  0  0  0  0  0
  144.9506  140.8416  157.0458 O   0  0  0  0  0  0  0  0  0  0  0  0
  145.8316  142.5855  155.1738 C   0  0  0  0  0  0  0  0  0  0  0  0
  146.9327  142.4195  154.1164 C   0  0  0  0  0  0  0  0  0  0  0  0
  147.3948  140.9396  154.0536 C   0  0  1  0  0  0  0  0  0  0  0  0
  148.9066  140.7474  154.2135 C   0  0  0  0  0  0  0  0  0  0  0  0
  149.0626  139.4290  154.8066 N   0  0  0  0  0  0  0  0  0  0  0  0
  150.2849  139.1660  155.3154 C   0  0  0  0  0  0  0  0  0  0  0  0
  151.3470  139.3938  154.5051 N   0  0  0  0  0  0  0  0  0  0  0  0
  152.5859  139.1481  154.9425 C   0  0  0  0  0  0  0  0  0  0  0  0
  152.9750  138.6810  156.1310 N   0  0  0  0  0  0  0  0  0  0  0  0
  151.9073  138.4524  156.9482 C   0  0  0  0  0  0  0  0  0  0  0  0
  150.5380  138.6657  156.6247 C   0  0  0  0  0  0  0  0  0  0  0  0
  149.7370  138.3176  157.7060 N   0  0  0  0  0  0  0  0  0  0  0  0
  150.5834  137.9195  158.6159 C   0  0  0  0  0  0  0  0  0  0  0  0
  151.9075  137.9657  158.2434 N   0  0  0  0  0  0  0  0  0  0  0  0
  153.0498  137.5778  159.0518 C   0  0  0  0  0  0  0  0  0  0  0  0
  154.0286  138.7457  159.2815 C   0  0  1  0  0  0  0  0  0  0  0  0
  154.6904  139.0872  158.0780 O   0  0  0  0  0  0  0  0  0  0  0  0
  153.3461  139.9836  159.8994 C   0  0  1  0  0  0  0  0  0  0  0  0
  154.2668  141.1355  160.3158 C   0  0  0  0  0  0  0  0  0  0  0  0
  153.3189  142.3126  160.2535 C   0  0  0  0  0  0  0  0  0  0  0  0
  152.4786  141.9659  159.0276 C   0  0  0  0  0  0  0  0  0  0  0  0
  152.3674  140.5458  159.0271 O   0  0  0  0  0  0  0  0  0  0  0  0
  147.9518  139.2270  155.7267 C   0  0  0  0  0  0  0  0  0  0  0  0
  146.8098  140.1117  155.2076 C   0  0  1  0  0  0  0  0  0  0  0  0
  147.0766  140.4884  153.1125 H   0  0  0  0  0  0  0  0  0  0  0  0
  145.9612  139.5202  154.8625 H   0  0  0  0  0  0  0  0  0  0  0  0
  144.8523  142.3615  154.7503 H   0  0  0  0  0  0  0  0  0  0  0  0
  145.8051  143.5783  155.6230 H   0  0  0  0  0  0  0  0  0  0  0  0
  146.5932  142.7691  153.1412 H   0  0  0  0  0  0  0  0  0  0  0  0
  147.7723  143.0579  154.3928 H   0  0  0  0  0  0  0  0  0  0  0  0
  149.4218  140.8102  153.2546 H   0  0  0  0  0  0  0  0  0  0  0  0
  149.3271  141.5091  154.8704 H   0  0  0  0  0  0  0  0  0  0  0  0
  153.3794  139.3536  154.2392 H   0  0  0  0  0  0  0  0  0  0  0  0
  150.2629  137.5753  159.5885 H   0  0  0  0  0  0  0  0  0  0  0  0
  152.6876  137.1861  160.0031 H   0  0  0  0  0  0  0  0  0  0  0  0
  153.5581  136.7537  158.5499 H   0  0  0  0  0  0  0  0  0  0  0  0
  154.8031  138.4130  159.9737 H   0  0  0  0  0  0  0  0  0  0  0  0
  154.7799  138.3063  157.5534 H   0  0  0  0  0  0  0  0  0  0  0  0
  152.7981  139.6626  160.7866 H   0  0  0  0  0  0  0  0  0  0  0  0
  154.7074  140.9919  161.3025 H   0  0  0  0  0  0  0  0  0  0  0  0
  155.0767  141.2848  159.6009 H   0  0  0  0  0  0  0  0  0  0  0  0
  152.6920  142.3392  161.1458 H   0  0  0  0  0  0  0  0  0  0  0  0
  153.8299  143.2715  160.1636 H   0  0  0  0  0  0  0  0  0  0  0  0
  151.4993  142.4447  159.0399 H   0  0  0  0  0  0  0  0  0  0  0  0
  152.9940  142.2725  158.1165 H   0  0  0  0  0  0  0  0  0  0  0  0
  147.6580  138.1769  155.7151 H   0  0  0  0  0  0  0  0  0  0  0  0
  148.2208  139.4758  156.7531 H   0  0  0  0  0  0  0  0  0  0  0  0
  1  2  2  0  0  0  0
  2 27  1  0  0  0  0
  2  3  2  0  0  0  0
  2  4  1  0  0  0  0
  4  5  1  0  0  0  0
  4 30  1  0  0  0  0
  4 31  1  0  0  0  0
  5  6  1  0  0  0  0
  5 32  1  0  0  0  0
  5 33  1  0  0  0  0
  6 28  1  0  0  0  0
  6 27  1  0  0  0  0
  6  7  1  0  0  0  0
  7  8  1  0  0  0  0
  7 34  1  0  0  0  0
  7 35  1  0  0  0  0
  8  9  1  0  0  0  0
  8 26  1  0  0  0  0
  9 14  1  0  0  0  0
  9 10  2  0  0  0  0
 10 11  1  0  0  0  0
 11 12  2  0  0  0  0
 11 36  1  0  0  0  0
 12 13  1  0  0  0  0
 13 17  1  0  0  0  0
 13 14  2  0  0  0  0
 14 15  1  0  0  0  0
 15 16  2  0  0  0  0
 16 17  1  0  0  0  0
 16 37  1  0  0  0  0
 17 18  1  0  0  0  0
 18 19  1  0  0  0  0
 18 38  1  0  0  0  0
 18 39  1  0  0  0  0
 19 20  1  0  0  0  0
 19 21  1  0  0  0  0
 19 40  1  0  0  0  0
 20 41  1  0  0  0  0
 21 25  1  0  0  0  0
 21 22  1  0  0  0  0
 21 42  1  0  0  0  0
 22 23  1  0  0  0  0
 22 43  1  0  0  0  0
 22 44  1  0  0  0  0
 23 24  1  0  0  0  0
 23 45  1  0  0  0  0
 23 46  1  0  0  0  0
 24 25  1  0  0  0  0
 24 47  1  0  0  0  0
 24 48  1  0  0  0  0
 26 27  1  0  0  0  0
 26 49  1  0  0  0  0
 26 50  1  0  0  0  0
 27 29  1  0  0  0  0
M  END
> <s_m_source_file>
AV-unprocessed.smi

> <i_m_source_file_index>
278

> <i_lp_mmshare_version>
43012

> <i_f3d_flags>
0

> <s_epik_input>
W0NIMl0xW0NIMl1TKD1PKSg9TylbQ0BASF0oW0NAQEhdMTIpW0NIMl1OKFtDSDJdMiljKG5bY0hdbjMpYyhjMzQpbltjSF1uNFtDSDJdW0NASF0oW09IXSlbQ0BASF01W0NIMl1bQ0gyXVtDSDJdTzU=

> <s_epik_cmdline>
J2VwaWtfcHl0aG9uJywgJy1waCcsICc3LjAnLCAnLXRuJywgJzgnLCAnLW1hJywgJzIwMCcsICctbWV0YWxfYmluZGluZycsICctaW1hZScsICc8aW5maWxlLm1hZT4nLCAnLW9tYWUnLCAnPG91dGZpbGUubWFlPic=

> <r_lp_tautomer_probability>
1

> <r_epik_Ionization_Penalty>
0.000636766

> <r_epik_Ionization_Penalty_Charging>
0

> <r_epik_Ionization_Penalty_Neutral>
0.000636766

> <r_epik_State_Penalty>
0.000329976

> <r_epik_Charging_Adjusted_Penalty>
0.000329976

> <i_epik_Tot_Q>
0

> <i_epik_Tot_abs_Q>
0

> <r_epik_Metal_State_Penalty>
-0

> <b_epik_Metal_Only>
0

> <s_lp_Force_Field>
OPLS_2005

> <r_lp_Energy>
54.1016

> <b_lp_Chiralities_Consistent>
1

> <s_lp_Variant>
AV-unprocessed.smi:278-4

> <Gold.Version>
5.8.1

> <Gold.Id.Protein>
6NUR|6NUR_protein|mol2

> <Gold.PLP.Fitness>
42.4959

> <Gold.PLP.PLP>
-37.1708

> <Gold.PLP.part.hbond>
-1.8611

> <Gold.PLP.part.metal>
0.0000

> <Gold.PLP.part.buried>
-5.0063

> <Gold.PLP.part.nonpolar>
-30.5382

> <Gold.PLP.part.repulsive>
0.3337

> <Gold.PLP.ligand.clash>
0.0000

> <Gold.PLP.ligand.torsion>
0.1315

> <Gold.PLP.Chemscore.Hbond>
1.8388

> <Gold.PLP.Chemscore.CHOScore>
0.0000

> <Gold.PLP.Chemscore.Metal>
0.0000

> <Gold.Chemscore.Hbonds>
donor molecule, donor type, donor heavy atom, donor atom, acceptor molecule, acceptor atom, score
      P1  H  7989  7998       L1    10  1.00
      P1  H  7997  8008       L1    20  0.29
      P1  H  7997  8009       L1    12  0.50

> <Gold.PLP.Chemscore.Internal.Correction>
0.0717

> <Gold.Rescore>
     Score         DG    S(hbond)    S(metal)    S(lipo)     H(rot)  DE(clash)    DE(int)     intcor
      7.66     -10.67       0.78        0.00      75.89       2.46       0.09       2.92       ----

> <Gold.Chemscore.Fitness>
7.6563

> <Gold.Chemscore.DG>
-10.6650

> <Gold.Chemscore.ZeroCoef>
-5.4800

> <Gold.Chemscore.Hbond>
0.7823

> <Gold.Chemscore.Metal>
0.0000

> <Gold.Chemscore.Lipo>
75.8878

> <Gold.Chemscore.Internal_Hbond>
0.0000

> <Gold.Chemscore.DEClash>
0.0907

> <Gold.Chemscore.DEInternal>
2.9181

> <Gold.Chemscore.Rot>
2.4636

> <Gold.Chemscore.Internal.Correction>
   9.000000E+99

> <Gold.Chemscore.Hbonds>
donor molecule, donor type, donor heavy atom, donor atom, acceptor molecule, acceptor atom, score
      P1  H  7989  7998       L1    10  0.26
      P1  H  7997  8008       L1    20  0.06
      P1  H  7997  8009       L1    12  0.02

> <Gold.Chemscore.Hbond.Weighted>
-2.6130

> <Gold.Chemscore.Metal.Weighted>
-0.0000

> <Gold.Chemscore.Lipo.Weighted>
-8.8789

> <Gold.Chemscore.Internal_Hbond.Weighted>
0.0000

> <Gold.Chemscore.DEClash.Weighted>
0.0907

> <Gold.Chemscore.DEInternal.Weighted>
2.9181

> <Gold.Chemscore.Rot.Weighted>
6.3068

> <Gold.Chemscore.Internal.Correction.Weighted>
   9.000000E+99

> <Gold.Protein.RotatedTorsions>
[ 6907 6896 6895 6894 ] final  -51.89 input  -60.11 | X-H torsion
[ 7974 7965 7964 7962 ] final  114.64 input  175.53 | X-H torsion
[ 8008 7997 7996 7995 ] final -157.68 input   59.86 | X-H torsion
[ 10167 10162 10161 10158 ] final -174.80 input  -65.29 | X-H torsion
[ 10718 10713 10712 10709 ] final   53.75 input   66.30 | X-H torsion
[ 10763 10752 10751 10750 ] final  131.32 input  -60.55 | X-H torsion
[ 11005 11000 10999 10996 ] final -151.85 input  -57.11 | X-H torsion

> <Gold.Protein.ActiveResidues>
 VAL166  LYS551  ARG553  GLY616  TRP617  ASP618  TYR619  PRO620  LYS621  CYS622 
 ASP623  PHE694  ASN695  SER759  ASP760  ASP761  ALA762  ILE779  LEU786  VAL792 
 PHE793  MET794  SER795  GLU796  ALA797  LYS798  CYS799  TRP800  GLU811  SER814 

> <Gold.Protein.RotatedAtoms>
  150.8569  134.7910  159.7052 H   0  0  0  0  0  0  0  0  0  0  0  0  # atno 6907 bound_to 6896
  152.4618  134.5164  159.9779 H   0  0  0  0  0  0  0  0  0  0  0  0  # atno 6908 bound_to 6896
  151.5274  133.3417  159.2948 H   0  0  0  0  0  0  0  0  0  0  0  0  # atno 6909 bound_to 6896
  145.2019  139.2948  143.4314 H   0  0  0  0  0  0  0  0  0  0  0  0  # atno 7974 bound_to 7965
  155.7360  140.0808  157.2267 H   0  0  0  0  0  0  0  0  0  0  0  0  # atno 8008 bound_to 7997
  154.4027  140.1586  156.2617 H   0  0  0  0  0  0  0  0  0  0  0  0  # atno 8009 bound_to 7997
  155.9064  140.3406  155.6068 H   0  0  0  0  0  0  0  0  0  0  0  0  # atno 8010 bound_to 7997
  139.5614  144.1860  152.1245 H   0  0  0  0  0  0  0  0  0  0  0  0  # atno 10167 bound_to 10162
  157.5195  130.8555  149.8539 H   0  0  0  0  0  0  0  0  0  0  0  0  # atno 10718 bound_to 10713
  153.7725  135.3180  155.3354 H   0  0  0  0  0  0  0  0  0  0  0  0  # atno 10763 bound_to 10752
  154.8191  135.4616  154.0730 H   0  0  0  0  0  0  0  0  0  0  0  0  # atno 10764 bound_to 10752
  153.1994  135.6920  153.8335 H   0  0  0  0  0  0  0  0  0  0  0  0  # atno 10765 bound_to 10752
  140.7252  134.3683  157.5176 H   0  0  0  0  0  0  0  0  0  0  0  0  # atno 11005 bound_to 11000
  146.3416  140.2266  142.8592 LP  0  0  0  0  0  0  0  0  0  0  0  0  # atno 17320 bound_to 7965
  144.9940  140.8572  143.5322 LP  0  0  0  0  0  0  0  0  0  0  0  0  # atno 17321 bound_to 7965
  140.1374  144.5233  150.6765 LP  0  0  0  0  0  0  0  0  0  0  0  0  # atno 17342 bound_to 10162
  140.6894  143.2368  151.5171 LP  0  0  0  0  0  0  0  0  0  0  0  0  # atno 17343 bound_to 10162
  156.0343  130.3755  150.1602 LP  0  0  0  0  0  0  0  0  0  0  0  0  # atno 17370 bound_to 10713
  156.9790  130.9858  151.3441 LP  0  0  0  0  0  0  0  0  0  0  0  0  # atno 17371 bound_to 10713
  139.8839  134.8981  156.2738 LP  0  0  0  0  0  0  0  0  0  0  0  0  # atno 17394 bound_to 11000
  140.9969  133.7175  156.0900 LP  0  0  0  0  0  0  0  0  0  0  0  0  # atno 17395 bound_to 11000

$$$$
