AV-unprocessed.smi:2319|AV-procd|sdf|9278|dock2
  -GOLD-   2272012503D 1   1.00000     0.00000
 Structure written by MMmdl.
 46 47  0  0  0  0  0  0  0  0  1 V2000
  145.7938  132.5444  150.6487 C   0  0  0  0  0  0  0  0  0  0  0  0
  146.6968  133.4037  151.5396 C   0  0  0  0  0  0  0  0  0  0  0  0
  147.5414  132.5960  152.4694 C   0  0  0  0  0  0  0  0  0  0  0  0
  147.3459  131.2511  152.4739 O   0  0  0  0  0  0  0  0  0  0  0  0
  148.2281  130.6664  153.3956 N   0  0  0  0  0  0  0  0  0  0  0  0
  148.9359  131.6539  153.9243 C   0  0  0  0  0  0  0  0  0  0  0  0
  150.0199  131.3271  154.9131 C   0  0  0  0  0  0  0  0  0  0  0  0
  148.5093  132.9009  153.3801 C   0  0  0  0  0  0  0  0  0  0  0  0
  148.9974  134.2073  153.6311 N   0  0  0  0  0  0  0  0  0  0  0  0
  149.4534  134.6828  154.7995 C   0  0  0  0  0  0  0  0  0  0  0  0
  149.5066  134.0407  155.8478 O   0  0  0  0  0  0  0  0  0  0  0  0
  149.8196  135.9671  154.6933 N   0  0  0  0  0  0  0  0  0  0  0  0
  150.3035  136.7968  155.7949 C   0  0  1  0  0  0  0  0  0  0  0  0
  151.3628  136.0817  156.6100 C   0  0  0  0  0  0  0  0  0  0  0  0
  152.1379  137.2341  157.2612 C   0  0  0  0  0  0  0  0  0  0  0  0
  151.5485  137.6234  158.6276 C   0  0  0  0  0  0  0  0  0  0  0  0
  153.6406  136.9346  157.3750 C   0  0  0  0  0  0  0  0  0  0  0  0
  151.9630  138.3513  156.3907 O   0  0  0  0  0  0  0  0  0  0  0  0
  151.0427  138.0727  155.3366 C   0  0  0  0  0  0  0  0  0  0  0  0
  151.8841  137.8946  154.0551 C   0  0  0  0  0  0  0  0  0  0  0  0
  150.0996  139.2788  155.2032 C   0  0  0  0  0  0  0  0  0  0  0  0
  145.1895  133.1681  149.9899 H   0  0  0  0  0  0  0  0  0  0  0  0
  145.1153  131.9361  151.2477 H   0  0  0  0  0  0  0  0  0  0  0  0
  146.3823  131.8724  150.0229 H   0  0  0  0  0  0  0  0  0  0  0  0
  147.3418  134.0208  150.9134 H   0  0  0  0  0  0  0  0  0  0  0  0
  146.0804  134.0956  152.1139 H   0  0  0  0  0  0  0  0  0  0  0  0
  150.8614  132.0134  154.8175 H   0  0  0  0  0  0  0  0  0  0  0  0
  150.4053  130.3180  154.7645 H   0  0  0  0  0  0  0  0  0  0  0  0
  149.6482  131.3901  155.9358 H   0  0  0  0  0  0  0  0  0  0  0  0
  148.8907  134.8731  152.8800 H   0  0  0  0  0  0  0  0  0  0  0  0
  149.7373  136.4130  153.7917 H   0  0  0  0  0  0  0  0  0  0  0  0
  149.4817  137.0580  156.4647 H   0  0  0  0  0  0  0  0  0  0  0  0
  150.9409  135.3841  157.3346 H   0  0  0  0  0  0  0  0  0  0  0  0
  152.0175  135.5097  155.9506 H   0  0  0  0  0  0  0  0  0  0  0  0
  151.6373  136.8056  159.3431 H   0  0  0  0  0  0  0  0  0  0  0  0
  150.4923  137.8825  158.5488 H   0  0  0  0  0  0  0  0  0  0  0  0
  152.0657  138.4873  159.0464 H   0  0  0  0  0  0  0  0  0  0  0  0
  153.8232  136.0722  158.0168 H   0  0  0  0  0  0  0  0  0  0  0  0
  154.1805  137.7831  157.7958 H   0  0  0  0  0  0  0  0  0  0  0  0
  154.0765  136.7218  156.3982 H   0  0  0  0  0  0  0  0  0  0  0  0
  151.2551  137.7185  153.1819 H   0  0  0  0  0  0  0  0  0  0  0  0
  152.5772  137.0577  154.1408 H   0  0  0  0  0  0  0  0  0  0  0  0
  152.4770  138.7867  153.8521 H   0  0  0  0  0  0  0  0  0  0  0  0
  149.3701  139.1251  154.4079 H   0  0  0  0  0  0  0  0  0  0  0  0
  150.6541  140.1884  154.9714 H   0  0  0  0  0  0  0  0  0  0  0  0
  149.5509  139.4562  156.1285 H   0  0  0  0  0  0  0  0  0  0  0  0
  1  2  1  0  0  0  0
  1 22  1  0  0  0  0
  1 23  1  0  0  0  0
  1 24  1  0  0  0  0
  2  3  1  0  0  0  0
  2 25  1  0  0  0  0
  2 26  1  0  0  0  0
  3  8  2  0  0  0  0
  3  4  1  0  0  0  0
  4  5  1  0  0  0  0
  5  6  2  0  0  0  0
  6  7  1  0  0  0  0
  6  8  1  0  0  0  0
  7 27  1  0  0  0  0
  7 28  1  0  0  0  0
  7 29  1  0  0  0  0
  8  9  1  0  0  0  0
  9 10  1  0  0  0  0
  9 30  1  0  0  0  0
 10 11  2  0  0  0  0
 10 12  1  0  0  0  0
 12 13  1  0  0  0  0
 12 31  1  0  0  0  0
 13 19  1  0  0  0  0
 13 14  1  0  0  0  0
 13 32  1  0  0  0  0
 14 15  1  0  0  0  0
 14 33  1  0  0  0  0
 14 34  1  0  0  0  0
 15 16  1  0  0  0  0
 15 17  1  0  0  0  0
 15 18  1  0  0  0  0
 16 35  1  0  0  0  0
 16 36  1  0  0  0  0
 16 37  1  0  0  0  0
 17 38  1  0  0  0  0
 17 39  1  0  0  0  0
 17 40  1  0  0  0  0
 18 19  1  0  0  0  0
 19 20  1  0  0  0  0
 19 21  1  0  0  0  0
 20 41  1  0  0  0  0
 20 42  1  0  0  0  0
 20 43  1  0  0  0  0
 21 44  1  0  0  0  0
 21 45  1  0  0  0  0
 21 46  1  0  0  0  0
M  END
> <s_m_source_file>
AV-unprocessed.smi

> <i_m_source_file_index>
2319

> <i_lp_mmshare_version>
43012

> <i_f3d_flags>
0

> <s_epik_input>
W0NIM11bQ0gyXWMxb25jKFtDSDNdKWMxW05IXUMoPU8pW05IXVtDQEBIXShDKE8yKShbQ0gzXSlbQ0gzXSlbQ0gyXUMyKFtDSDNdKVtDSDNd

> <s_epik_cmdline>
J2VwaWtfcHl0aG9uJywgJy1waCcsICc3LjAnLCAnLXRuJywgJzgnLCAnLW1hJywgJzIwMCcsICctbWV0YWxfYmluZGluZycsICctaW1hZScsICc8aW5maWxlLm1hZT4nLCAnLW9tYWUnLCAnPG91dGZpbGUubWFlPic=

> <r_lp_tautomer_probability>
1

> <r_epik_Ionization_Penalty>
3.17207e-05

> <r_epik_Ionization_Penalty_Charging>
0

> <r_epik_Ionization_Penalty_Neutral>
3.17207e-05

> <r_epik_State_Penalty>
-0

> <r_epik_Charging_Adjusted_Penalty>
0

> <i_epik_Tot_Q>
0

> <i_epik_Tot_abs_Q>
0

> <r_epik_Metal_State_Penalty>
-0

> <b_epik_Metal_Only>
0

> <s_lp_Force_Field>
OPLS_2005

> <r_lp_Energy>
19.7342

> <b_lp_Chiralities_Consistent>
1

> <s_lp_Variant>
AV-unprocessed.smi:2319-2

> <Gold.Version>
5.8.1

> <Gold.Id.Protein>
6NUR|6NUR_protein|mol2

> <Gold.PLP.Fitness>
33.6545

> <Gold.PLP.PLP>
-28.9008

> <Gold.PLP.part.hbond>
-2.0000

> <Gold.PLP.part.metal>
0.0000

> <Gold.PLP.part.buried>
-4.4894

> <Gold.PLP.part.nonpolar>
-23.5411

> <Gold.PLP.part.repulsive>
0.9792

> <Gold.PLP.ligand.clash>
0.0000

> <Gold.PLP.ligand.torsion>
0.4292

> <Gold.PLP.Chemscore.Hbond>
1.7794

> <Gold.PLP.Chemscore.CHOScore>
0.0000

> <Gold.PLP.Chemscore.Metal>
0.0000

> <Gold.Chemscore.Hbonds>
donor molecule, donor type, donor heavy atom, donor atom, acceptor molecule, acceptor atom, score
      L1  H     9    30       P1  7948  0.75
      L1  H    12    31       P1  7948  0.84

> <Gold.PLP.Chemscore.Internal.Correction>
0.2740

> <Gold.Rescore>
     Score         DG    S(hbond)    S(metal)    S(lipo)     H(rot)  DE(clash)    DE(int)     intcor
     13.42     -16.35       1.68        0.00      70.28       1.16       0.02       2.91       ----

> <Gold.Chemscore.Fitness>
13.4231

> <Gold.Chemscore.DG>
-16.3537

> <Gold.Chemscore.ZeroCoef>
-5.4800

> <Gold.Chemscore.Hbond>
1.6822

> <Gold.Chemscore.Metal>
0.0000

> <Gold.Chemscore.Lipo>
70.2766

> <Gold.Chemscore.Internal_Hbond>
0.0000

> <Gold.Chemscore.DEClash>
0.0195

> <Gold.Chemscore.DEInternal>
2.9111

> <Gold.Chemscore.Rot>
1.1590

> <Gold.Chemscore.Internal.Correction>
   9.000000E+99

> <Gold.Chemscore.Hbonds>
donor molecule, donor type, donor heavy atom, donor atom, acceptor molecule, acceptor atom, score
      L1  H     9    30       P1  7948  0.09
      L1  H    12    31       P1  7948  0.35

> <Gold.Chemscore.Hbond.Weighted>
-5.6184

> <Gold.Chemscore.Metal.Weighted>
-0.0000

> <Gold.Chemscore.Lipo.Weighted>
-8.2224

> <Gold.Chemscore.Internal_Hbond.Weighted>
0.0000

> <Gold.Chemscore.DEClash.Weighted>
0.0195

> <Gold.Chemscore.DEInternal.Weighted>
2.9111

> <Gold.Chemscore.Rot.Weighted>
2.9671

> <Gold.Chemscore.Internal.Correction.Weighted>
   9.000000E+99

> <Gold.Protein.RotatedTorsions>
[ 6907 6896 6895 6894 ] final   14.99 input  -60.11 | X-H torsion
[ 7974 7965 7964 7962 ] final -177.13 input  175.53 | X-H torsion
[ 8008 7997 7996 7995 ] final  -58.41 input   59.86 | X-H torsion
[ 10167 10162 10161 10158 ] final    0.19 input  -65.29 | X-H torsion
[ 10718 10713 10712 10709 ] final   79.47 input   66.30 | X-H torsion
[ 10763 10752 10751 10750 ] final   85.59 input  -60.55 | X-H torsion
[ 11005 11000 10999 10996 ] final  108.49 input  -57.11 | X-H torsion

> <Gold.Protein.ActiveResidues>
 VAL166  LYS551  ARG553  GLY616  TRP617  ASP618  TYR619  PRO620  LYS621  CYS622 
 ASP623  PHE694  ASN695  SER759  ASP760  ASP761  ALA762  ILE779  LEU786  VAL792 
 PHE793  MET794  SER795  GLU796  ALA797  LYS798  CYS799  TRP800  GLU811  SER814 

> <Gold.Protein.RotatedAtoms>
  151.8110  135.0681  160.0412 H   0  0  0  0  0  0  0  0  0  0  0  0  # atno 6907 bound_to 6896
  152.3021  133.5661  159.5633 H   0  0  0  0  0  0  0  0  0  0  0  0  # atno 6908 bound_to 6896
  150.7278  134.0193  159.3738 H   0  0  0  0  0  0  0  0  0  0  0  0  # atno 6909 bound_to 6896
  144.7127  140.1066  143.6413 H   0  0  0  0  0  0  0  0  0  0  0  0  # atno 7974 bound_to 7965
  154.4308  140.1085  156.5952 H   0  0  0  0  0  0  0  0  0  0  0  0  # atno 8008 bound_to 7997
  155.5969  140.3493  155.4564 H   0  0  0  0  0  0  0  0  0  0  0  0  # atno 8009 bound_to 7997
  156.0203  140.1238  157.0353 H   0  0  0  0  0  0  0  0  0  0  0  0  # atno 8010 bound_to 7997
  140.6740  143.6969  150.7983 H   0  0  0  0  0  0  0  0  0  0  0  0  # atno 10167 bound_to 10162
  157.6777  130.9915  150.1937 H   0  0  0  0  0  0  0  0  0  0  0  0  # atno 10718 bound_to 10713
  153.1489  135.4612  154.9607 H   0  0  0  0  0  0  0  0  0  0  0  0  # atno 10763 bound_to 10752
  154.7809  135.3188  154.7995 H   0  0  0  0  0  0  0  0  0  0  0  0  # atno 10764 bound_to 10752
  153.8503  135.6922  153.4847 H   0  0  0  0  0  0  0  0  0  0  0  0  # atno 10765 bound_to 10752
  139.8845  134.9432  156.5980 H   0  0  0  0  0  0  0  0  0  0  0  0  # atno 11005 bound_to 11000
  145.9491  139.2721  143.1223 LP  0  0  0  0  0  0  0  0  0  0  0  0  # atno 17320 bound_to 7965
  145.9342  140.9027  143.0341 LP  0  0  0  0  0  0  0  0  0  0  0  0  # atno 17321 bound_to 7965
  140.0659  143.5109  152.2604 LP  0  0  0  0  0  0  0  0  0  0  0  0  # atno 17342 bound_to 10162
  139.6022  144.7586  151.3145 LP  0  0  0  0  0  0  0  0  0  0  0  0  # atno 17343 bound_to 10162
  156.2643  130.3714  149.8098 LP  0  0  0  0  0  0  0  0  0  0  0  0  # atno 17370 bound_to 10713
  156.5834  130.8475  151.3389 LP  0  0  0  0  0  0  0  0  0  0  0  0  # atno 17371 bound_to 10713
  140.7905  133.8586  155.8642 LP  0  0  0  0  0  0  0  0  0  0  0  0  # atno 17394 bound_to 11000
  140.9681  134.1567  157.4599 LP  0  0  0  0  0  0  0  0  0  0  0  0  # atno 17395 bound_to 11000

$$$$
