AV-unprocessed.smi:2792|AV-procd|sdf|10772|dock6
  -GOLD-   2272015213D 1   1.00000     0.00000
 Structure written by MMmdl.
 44 46  0  0  0  0  0  0  0  0  1 V2000
  149.3547  132.5701  154.9403 C   0  0  0  0  0  0  0  0  0  0  0  0
  149.3686  133.0068  156.4153 C   0  0  0  0  0  0  0  0  0  0  0  0
  149.3787  134.5347  156.6674 C   0  0  1  0  0  0  0  0  0  0  0  0
  148.3725  135.2813  155.7657 C   0  0  0  0  0  0  0  0  0  0  0  0
  148.9901  134.7564  158.0099 O   0  0  0  0  0  0  0  0  0  0  0  0
  150.8251  135.0691  156.4954 C   0  0  0  0  0  0  0  0  0  0  0  0
  150.9878  136.4824  156.8040 N   0  0  0  0  0  0  0  0  0  0  0  0
  151.1975  137.0333  158.0491 C   0  0  0  0  0  0  0  0  0  0  0  0
  151.3121  138.3334  158.0727 N   0  0  0  0  0  0  0  0  0  0  0  0
  151.1575  138.7072  156.7441 C   0  0  0  0  0  0  0  0  0  0  0  0
  151.1702  139.9528  156.0650 C   0  0  0  0  0  0  0  0  0  0  0  0
  151.3639  141.1117  156.7326 N   0  0  0  0  0  0  0  0  0  0  0  0
  151.9452  141.1044  158.0713 C   0  0  0  0  0  0  0  0  0  0  0  0
  151.9881  142.4599  158.7592 C   0  0  0  0  0  0  0  0  0  0  0  0
  151.7614  143.6433  158.0236 C   0  0  0  0  0  0  0  0  0  0  0  0
  151.7977  144.8954  158.6674 C   0  0  0  0  0  0  0  0  0  0  0  0
  152.0635  144.9703  160.0484 C   0  0  0  0  0  0  0  0  0  0  0  0
  152.2953  143.7924  160.7848 C   0  0  0  0  0  0  0  0  0  0  0  0
  152.2597  142.5400  160.1412 C   0  0  0  0  0  0  0  0  0  0  0  0
  150.9714  139.9421  154.7204 N   0  0  0  0  0  0  0  0  0  0  0  0
  150.7823  138.7841  154.0803 C   0  0  0  0  0  0  0  0  0  0  0  0
  150.7516  137.5476  154.5830 N   0  0  0  0  0  0  0  0  0  0  0  0
  150.9469  137.5572  155.9329 C   0  0  0  0  0  0  0  0  0  0  0  0
  149.2782  131.4852  154.8657 H   0  0  0  0  0  0  0  0  0  0  0  0
  150.2671  132.8633  154.4219 H   0  0  0  0  0  0  0  0  0  0  0  0
  148.5073  132.9946  154.4020 H   0  0  0  0  0  0  0  0  0  0  0  0
  148.4985  132.5702  156.9079 H   0  0  0  0  0  0  0  0  0  0  0  0
  150.2370  132.5575  156.8986 H   0  0  0  0  0  0  0  0  0  0  0  0
  148.6215  135.1543  154.7118 H   0  0  0  0  0  0  0  0  0  0  0  0
  148.3537  136.3510  155.9743 H   0  0  0  0  0  0  0  0  0  0  0  0
  147.3531  134.9248  155.9105 H   0  0  0  0  0  0  0  0  0  0  0  0
  149.0351  135.6838  158.1872 H   0  0  0  0  0  0  0  0  0  0  0  0
  151.5179  134.5024  157.1194 H   0  0  0  0  0  0  0  0  0  0  0  0
  151.1539  134.9151  155.4668 H   0  0  0  0  0  0  0  0  0  0  0  0
  151.2716  136.4340  158.9451 H   0  0  0  0  0  0  0  0  0  0  0  0
  150.9526  141.9860  156.4392 H   0  0  0  0  0  0  0  0  0  0  0  0
  151.4085  140.3867  158.6932 H   0  0  0  0  0  0  0  0  0  0  0  0
  152.9672  140.7334  157.9923 H   0  0  0  0  0  0  0  0  0  0  0  0
  151.5561  143.5938  156.9642 H   0  0  0  0  0  0  0  0  0  0  0  0
  151.6214  145.7986  158.1017 H   0  0  0  0  0  0  0  0  0  0  0  0
  152.0905  145.9303  160.5426 H   0  0  0  0  0  0  0  0  0  0  0  0
  152.4996  143.8492  161.8438 H   0  0  0  0  0  0  0  0  0  0  0  0
  152.4354  141.6408  160.7134 H   0  0  0  0  0  0  0  0  0  0  0  0
  150.6349  138.8591  153.0130 H   0  0  0  0  0  0  0  0  0  0  0  0
  1  2  1  0  0  0  0
  1 24  1  0  0  0  0
  1 25  1  0  0  0  0
  1 26  1  0  0  0  0
  2  3  1  0  0  0  0
  2 27  1  0  0  0  0
  2 28  1  0  0  0  0
  3  4  1  0  0  0  0
  3  5  1  0  0  0  0
  3  6  1  0  0  0  0
  4 29  1  0  0  0  0
  4 30  1  0  0  0  0
  4 31  1  0  0  0  0
  5 32  1  0  0  0  0
  6  7  1  0  0  0  0
  6 33  1  0  0  0  0
  6 34  1  0  0  0  0
  7 23  1  0  0  0  0
  7  8  1  0  0  0  0
  8  9  2  0  0  0  0
  8 35  1  0  0  0  0
  9 10  1  0  0  0  0
 10 23  2  0  0  0  0
 10 11  1  0  0  0  0
 11 12  1  0  0  0  0
 11 20  2  0  0  0  0
 12 13  1  0  0  0  0
 12 36  1  0  0  0  0
 13 14  1  0  0  0  0
 13 37  1  0  0  0  0
 13 38  1  0  0  0  0
 14 19  1  0  0  0  0
 14 15  2  0  0  0  0
 15 16  1  0  0  0  0
 15 39  1  0  0  0  0
 16 17  2  0  0  0  0
 16 40  1  0  0  0  0
 17 18  1  0  0  0  0
 17 41  1  0  0  0  0
 18 19  2  0  0  0  0
 18 42  1  0  0  0  0
 19 43  1  0  0  0  0
 20 21  1  0  0  0  0
 21 22  2  0  0  0  0
 21 44  1  0  0  0  0
 22 23  1  0  0  0  0
M  END
> <s_m_source_file>
AV-unprocessed.smi

> <i_m_source_file_index>
2792

> <i_lp_mmshare_version>
43012

> <i_f3d_flags>
0

> <s_epik_input>
W0NIM11bQ0gyXVtDQEBdKFtDSDNdKShbT0hdKVtDSDJdbihbY0hdbjEpYyhjMTIpbltjSF1uYzJbTkhdW0NIMl1jM1tjSF1bY0hdW2NIXVtjSF1bY0hdMw==

> <s_epik_cmdline>
J2VwaWtfcHl0aG9uJywgJy1waCcsICc3LjAnLCAnLXRuJywgJzgnLCAnLW1hJywgJzIwMCcsICctbWV0YWxfYmluZGluZycsICctaW1hZScsICc8aW5maWxlLm1hZT4nLCAnLW9tYWUnLCAnPG91dGZpbGUubWFlPic=

> <r_lp_tautomer_probability>
1

> <r_epik_Ionization_Penalty>
0.00163025

> <r_epik_Ionization_Penalty_Charging>
0

> <r_epik_Ionization_Penalty_Neutral>
0.00163025

> <r_epik_State_Penalty>
-0

> <r_epik_Charging_Adjusted_Penalty>
0

> <i_epik_Tot_Q>
0

> <i_epik_Tot_abs_Q>
0

> <r_epik_Metal_State_Penalty>
-0

> <b_epik_Metal_Only>
0

> <s_lp_Force_Field>
OPLS_2005

> <r_lp_Energy>
13.0485

> <b_lp_Chiralities_Consistent>
1

> <s_lp_Variant>
AV-unprocessed.smi:2792-1

> <Gold.Version>
5.8.1

> <Gold.Id.Protein>
6NUR|6NUR_protein|mol2

> <Gold.PLP.Fitness>
48.1169

> <Gold.PLP.PLP>
-40.6179

> <Gold.PLP.part.hbond>
-2.0000

> <Gold.PLP.part.metal>
0.0000

> <Gold.PLP.part.buried>
-6.2083

> <Gold.PLP.part.nonpolar>
-32.5766

> <Gold.PLP.part.repulsive>
0.3754

> <Gold.PLP.ligand.clash>
0.0000

> <Gold.PLP.ligand.torsion>
0.8231

> <Gold.PLP.Chemscore.Hbond>
2.0000

> <Gold.PLP.Chemscore.CHOScore>
1.0000

> <Gold.PLP.Chemscore.Metal>
0.0000

> <Gold.Chemscore.Hbonds>
donor molecule, donor type, donor heavy atom, donor atom, acceptor molecule, acceptor atom, score
      P1  H  6896  6908       L1     5  0.39
      P1  H  7989  7998       L1    20  1.00
      L1  C    21    44       P1  7957  1.00

> <Gold.PLP.Chemscore.Internal.Correction>
0.1451

> <Gold.Rescore>
     Score         DG    S(hbond)    S(metal)    S(lipo)     H(rot)  DE(clash)    DE(int)     intcor
     14.50     -17.03       1.71        0.00     105.07       2.52       0.18       2.34       ----

> <Gold.Chemscore.Fitness>
14.5033

> <Gold.Chemscore.DG>
-17.0271

> <Gold.Chemscore.ZeroCoef>
-5.4800

> <Gold.Chemscore.Hbond>
1.7120

> <Gold.Chemscore.Metal>
0.0000

> <Gold.Chemscore.Lipo>
105.0674

> <Gold.Chemscore.Internal_Hbond>
0.0000

> <Gold.Chemscore.DEClash>
0.1842

> <Gold.Chemscore.DEInternal>
2.3396

> <Gold.Chemscore.Rot>
2.5250

> <Gold.Chemscore.Internal.Correction>
   9.000000E+99

> <Gold.Chemscore.Hbonds>
donor molecule, donor type, donor heavy atom, donor atom, acceptor molecule, acceptor atom, score
      P1  H  6896  6908       L1     5  0.06
      P1  H  7989  7998       L1    20  0.30

> <Gold.Chemscore.Hbond.Weighted>
-5.7182

> <Gold.Chemscore.Metal.Weighted>
-0.0000

> <Gold.Chemscore.Lipo.Weighted>
-12.2929

> <Gold.Chemscore.Internal_Hbond.Weighted>
0.0000

> <Gold.Chemscore.DEClash.Weighted>
0.1842

> <Gold.Chemscore.DEInternal.Weighted>
2.3396

> <Gold.Chemscore.Rot.Weighted>
6.4639

> <Gold.Chemscore.Internal.Correction.Weighted>
   9.000000E+99

> <Gold.Protein.RotatedTorsions>
[ 6907 6896 6895 6894 ] final  132.18 input  -60.11 | X-H torsion
[ 7974 7965 7964 7962 ] final   54.13 input  175.53 | X-H torsion
[ 8008 7997 7996 7995 ] final  -37.06 input   59.86 | X-H torsion
[ 10167 10162 10161 10158 ] final  147.31 input  -65.29 | X-H torsion
[ 10718 10713 10712 10709 ] final   14.35 input   66.30 | X-H torsion
[ 10763 10752 10751 10750 ] final   94.69 input  -60.55 | X-H torsion
[ 11005 11000 10999 10996 ] final  154.62 input  -57.11 | X-H torsion

> <Gold.Protein.ActiveResidues>
 VAL166  LYS551  ARG553  GLY616  TRP617  ASP618  TYR619  PRO620  LYS621  CYS622 
 ASP623  PHE694  ASN695  SER759  ASP760  ASP761  ALA762  ILE779  LEU786  VAL792 
 PHE793  MET794  SER795  GLU796  ALA797  LYS798  CYS799  TRP800  GLU811  SER814 

> <Gold.Protein.RotatedAtoms>
  152.3350  133.6001  159.5835 H   0  0  0  0  0  0  0  0  0  0  0  0  # atno 6907 bound_to 6896
  150.7445  133.9810  159.3585 H   0  0  0  0  0  0  0  0  0  0  0  0  # atno 6908 bound_to 6896
  151.7680  135.0794  160.0406 H   0  0  0  0  0  0  0  0  0  0  0  0  # atno 6909 bound_to 6896
  145.9640  139.4086  143.0230 H   0  0  0  0  0  0  0  0  0  0  0  0  # atno 7974 bound_to 7965
  154.4060  140.1614  156.2476 H   0  0  0  0  0  0  0  0  0  0  0  0  # atno 8008 bound_to 7997
  155.9147  140.3425  155.6103 H   0  0  0  0  0  0  0  0  0  0  0  0  # atno 8009 bound_to 7997
  155.7294  140.0778  157.2286 H   0  0  0  0  0  0  0  0  0  0  0  0  # atno 8010 bound_to 7997
  139.4892  144.5764  151.6956 H   0  0  0  0  0  0  0  0  0  0  0  0  # atno 10167 bound_to 10162
  157.0378  130.6219  149.5746 H   0  0  0  0  0  0  0  0  0  0  0  0  # atno 10718 bound_to 10713
  153.2446  135.4280  155.0734 H   0  0  0  0  0  0  0  0  0  0  0  0  # atno 10763 bound_to 10752
  154.8355  135.3411  154.6600 H   0  0  0  0  0  0  0  0  0  0  0  0  # atno 10764 bound_to 10752
  153.7023  135.7027  153.5116 H   0  0  0  0  0  0  0  0  0  0  0  0  # atno 10765 bound_to 10752
  140.1505  134.8678  157.2449 H   0  0  0  0  0  0  0  0  0  0  0  0  # atno 11005 bound_to 11000
  145.7999  140.9775  143.1004 LP  0  0  0  0  0  0  0  0  0  0  0  0  # atno 17320 bound_to 7965
  144.6821  139.9789  143.7483 LP  0  0  0  0  0  0  0  0  0  0  0  0  # atno 17321 bound_to 7965
  140.5362  144.0652  150.6071 LP  0  0  0  0  0  0  0  0  0  0  0  0  # atno 17342 bound_to 10162
  140.3659  143.2882  152.0332 LP  0  0  0  0  0  0  0  0  0  0  0  0  # atno 17343 bound_to 10162
  156.0048  130.5133  150.7791 LP  0  0  0  0  0  0  0  0  0  0  0  0  # atno 17370 bound_to 10713
  157.5128  131.0926  151.0177 LP  0  0  0  0  0  0  0  0  0  0  0  0  # atno 17371 bound_to 10713
  140.2610  134.3571  155.7407 LP  0  0  0  0  0  0  0  0  0  0  0  0  # atno 17394 bound_to 11000
  141.2198  133.7369  156.9080 LP  0  0  0  0  0  0  0  0  0  0  0  0  # atno 17395 bound_to 11000

$$$$
