AV-unprocessed.smi:764|AV-procd|sdf|3642|dock7
  -GOLD-   22720 1 43D 1   1.00000     0.00000
 Structure written by MMmdl.
 37 37  0  0  0  0  0  0  0  0  2 V2000
  149.6657  140.0963  154.9671 C   0  0  0  0  0  0  0  0  0  0  0  0
  149.3560  138.6208  154.6785 C   0  0  0  0  0  0  0  0  0  0  0  0
  150.6351  137.7844  154.5407 C   0  0  0  0  0  0  0  0  0  0  0  0
  148.5695  138.5146  153.4520 N   0  0  0  0  0  0  0  0  0  0  0  0
  147.4892  139.2477  153.1395 C   0  0  0  0  0  0  0  0  0  0  0  0
  147.0226  140.1201  153.8720 O   0  0  0  0  0  0  0  0  0  0  0  0
  146.8411  138.9505  151.7842 C   0  0  0  0  0  0  0  0  0  0  0  0
  145.7326  137.8877  151.8728 C   0  0  0  0  0  0  0  0  0  0  0  0
  146.3081  136.5447  152.0812 N   0  3  0  0  0  0  0  0  0  0  0  0
  145.8024  135.5197  151.1480 C   0  0  0  0  0  0  0  0  0  0  0  0
  145.7660  134.1392  151.8184 C   0  0  0  0  0  0  0  0  0  0  0  0
  144.9204  133.2118  151.0931 N   0  0  0  0  0  0  0  0  0  0  0  0
  145.2452  131.9731  150.5812 C   0  0  0  0  0  0  0  0  0  0  0  0
  144.1248  131.4774  149.9782 C   0  0  0  0  0  0  0  0  0  0  0  0
  143.1538  132.4985  150.1764 C   0  0  0  0  0  0  0  0  0  0  0  0
  143.6330  133.5347  150.8460 N   0  0  0  0  0  0  0  0  0  0  0  0
  150.2507  140.2023  155.8811 H   0  0  0  0  0  0  0  0  0  0  0  0
  148.7488  140.6727  155.0949 H   0  0  0  0  0  0  0  0  0  0  0  0
  150.2344  140.5499  154.1544 H   0  0  0  0  0  0  0  0  0  0  0  0
  148.7930  138.2244  155.5251 H   0  0  0  0  0  0  0  0  0  0  0  0
  151.2369  137.8371  155.4483 H   0  0  0  0  0  0  0  0  0  0  0  0
  151.2525  138.1330  153.7120 H   0  0  0  0  0  0  0  0  0  0  0  0
  150.4003  136.7344  154.3632 H   0  0  0  0  0  0  0  0  0  0  0  0
  148.8799  137.8262  152.7815 H   0  0  0  0  0  0  0  0  0  0  0  0
  146.4358  139.8810  151.3849 H   0  0  0  0  0  0  0  0  0  0  0  0
  147.6108  138.6179  151.0857 H   0  0  0  0  0  0  0  0  0  0  0  0
  145.0564  138.1163  152.6983 H   0  0  0  0  0  0  0  0  0  0  0  0
  145.1373  137.8815  150.9583 H   0  0  0  0  0  0  0  0  0  0  0  0
  147.3110  136.6056  151.9763 H   0  0  0  0  0  0  0  0  0  0  0  0
  144.8021  135.7987  150.8139 H   0  0  0  0  0  0  0  0  0  0  0  0
  146.4428  135.4937  150.2653 H   0  0  0  0  0  0  0  0  0  0  0  0
  146.7702  133.7170  151.8808 H   0  0  0  0  0  0  0  0  0  0  0  0
  145.3929  134.2214  152.8402 H   0  0  0  0  0  0  0  0  0  0  0  0
  146.2344  131.5522  150.6859 H   0  0  0  0  0  0  0  0  0  0  0  0
  144.0156  130.5301  149.4710 H   0  0  0  0  0  0  0  0  0  0  0  0
  142.1226  132.5179  149.8557 H   0  0  0  0  0  0  0  0  0  0  0  0
  146.0981  136.2502  153.0242 H   0  0  0  0  0  0  0  0  0  0  0  0
  1  2  1  0  0  0  0
  1 17  1  0  0  0  0
  1 18  1  0  0  0  0
  1 19  1  0  0  0  0
  2  3  1  0  0  0  0
  2  4  1  0  0  0  0
  2 20  1  0  0  0  0
  3 21  1  0  0  0  0
  3 22  1  0  0  0  0
  3 23  1  0  0  0  0
  4  5  1  0  0  0  0
  4 24  1  0  0  0  0
  5  6  2  0  0  0  0
  5  7  1  0  0  0  0
  7  8  1  0  0  0  0
  7 25  1  0  0  0  0
  7 26  1  0  0  0  0
  8  9  1  0  0  0  0
  8 27  1  0  0  0  0
  8 28  1  0  0  0  0
  9 10  1  0  0  0  0
  9 29  1  0  0  0  0
  9 37  1  0  0  0  0
 10 11  1  0  0  0  0
 10 30  1  0  0  0  0
 10 31  1  0  0  0  0
 11 12  1  0  0  0  0
 11 32  1  0  0  0  0
 11 33  1  0  0  0  0
 12 16  1  0  0  0  0
 12 13  1  0  0  0  0
 13 14  2  0  0  0  0
 13 34  1  0  0  0  0
 14 15  1  0  0  0  0
 14 35  1  0  0  0  0
 15 16  2  0  0  0  0
 15 36  1  0  0  0  0
M  CHG  1   9   1
M  END
> <s_m_source_file>
AV-unprocessed.smi

> <i_m_source_file_index>
764

> <i_lp_mmshare_version>
43012

> <i_f3d_flags>
0

> <s_epik_input>
W0NIM11bQ0hdKFtDSDNdKVtOSF1DKD1PKVtDSDJdW0NIMl1bTkhdW0NIMl1bQ0gyXW4xW2NIXVtjSF1bY0hdbjE=

> <s_epik_cmdline>
J2VwaWtfcHl0aG9uJywgJy1waCcsICc3LjAnLCAnLXRuJywgJzgnLCAnLW1hJywgJzIwMCcsICctbWV0YWxfYmluZGluZycsICctaW1hZScsICc8aW5maWxlLm1hZT4nLCAnLW9tYWUnLCAnPG91dGZpbGUubWFlPic=

> <r_lp_tautomer_probability>
1

> <r_epik_Ionization_Penalty>
0.00578048

> <r_epik_Ionization_Penalty_Charging>
0.00577767

> <r_epik_Ionization_Penalty_Neutral>
2.80872e-06

> <r_epik_State_Penalty>
-0

> <r_epik_Charging_Adjusted_Penalty>
0.00577767

> <i_epik_Tot_Q>
1

> <i_epik_Tot_abs_Q>
1

> <r_epik_Metal_State_Penalty>
-0

> <b_epik_Metal_Only>
0

> <s_lp_Force_Field>
OPLS_2005

> <r_lp_Energy>
3.7627

> <b_lp_Chiralities_Consistent>
1

> <s_lp_Variant>
AV-unprocessed.smi:764-1

> <Gold.Version>
5.8.1

> <Gold.Id.Protein>
6NUR|6NUR_protein|mol2

> <Gold.PLP.Fitness>
44.8042

> <Gold.PLP.PLP>
-29.7307

> <Gold.PLP.part.hbond>
-2.9589

> <Gold.PLP.part.metal>
0.0000

> <Gold.PLP.part.buried>
5.0470

> <Gold.PLP.part.nonpolar>
-31.5572

> <Gold.PLP.part.repulsive>
0.4488

> <Gold.PLP.ligand.clash>
0.0000

> <Gold.PLP.ligand.torsion>
1.1783

> <Gold.PLP.Chemscore.Hbond>
3.0000

> <Gold.PLP.Chemscore.CHOScore>
2.7524

> <Gold.PLP.Chemscore.Metal>
0.0000

> <Gold.Chemscore.Hbonds>
donor molecule, donor type, donor heavy atom, donor atom, acceptor molecule, acceptor atom, score
      L1  H     4    24       P1  7948  1.00
      L1  H     9    29       P1  7948  2.00
      L1  C    13    34       P1 10747  0.19
      L1  C    15    36       P1 10186  0.86
      L1  C    15    36       P1 10952  0.82

> <Gold.PLP.Chemscore.Internal.Correction>
0.1729

> <Gold.Rescore>
     Score         DG    S(hbond)    S(metal)    S(lipo)     H(rot)  DE(clash)    DE(int)     intcor
     11.23     -15.39       1.91        0.00      82.23       2.37       2.94       1.22       ----

> <Gold.Chemscore.Fitness>
11.2327

> <Gold.Chemscore.DG>
-15.3888

> <Gold.Chemscore.ZeroCoef>
-5.4800

> <Gold.Chemscore.Hbond>
1.9056

> <Gold.Chemscore.Metal>
0.0000

> <Gold.Chemscore.Lipo>
82.2293

> <Gold.Chemscore.Internal_Hbond>
0.0000

> <Gold.Chemscore.DEClash>
2.9379

> <Gold.Chemscore.DEInternal>
1.2182

> <Gold.Chemscore.Rot>
2.3738

> <Gold.Chemscore.Internal.Correction>
   9.000000E+99

> <Gold.Chemscore.Hbonds>
donor molecule, donor type, donor heavy atom, donor atom, acceptor molecule, acceptor atom, score
      L1  H     4    24       P1  7948  1.00
      L1  H     9    29       P1  7948  1.00

> <Gold.Chemscore.Hbond.Weighted>
-6.3649

> <Gold.Chemscore.Metal.Weighted>
-0.0000

> <Gold.Chemscore.Lipo.Weighted>
-9.6208

> <Gold.Chemscore.Internal_Hbond.Weighted>
0.0000

> <Gold.Chemscore.DEClash.Weighted>
2.9379

> <Gold.Chemscore.DEInternal.Weighted>
1.2182

> <Gold.Chemscore.Rot.Weighted>
6.0769

> <Gold.Chemscore.Internal.Correction.Weighted>
   9.000000E+99

> <Gold.Protein.RotatedTorsions>
[ 6907 6896 6895 6894 ] final  102.31 input  -60.11 | X-H torsion
[ 7974 7965 7964 7962 ] final   -8.40 input  175.53 | X-H torsion
[ 8008 7997 7996 7995 ] final -153.19 input   59.86 | X-H torsion
[ 10167 10162 10161 10158 ] final  159.48 input  -65.29 | X-H torsion
[ 10718 10713 10712 10709 ] final  167.69 input   66.30 | X-H torsion
[ 10763 10752 10751 10750 ] final   89.49 input  -60.55 | X-H torsion
[ 11005 11000 10999 10996 ] final  -55.72 input  -57.11 | X-H torsion

> <Gold.Protein.ActiveResidues>
 VAL166  LYS551  ARG553  GLY616  TRP617  ASP618  TYR619  PRO620  LYS621  CYS622 
 ASP623  PHE694  ASN695  SER759  ASP760  ASP761  ALA762  ILE779  LEU786  VAL792 
 PHE793  MET794  SER795  GLU796  ALA797  LYS798  CYS799  TRP800  GLU811  SER814 

> <Gold.Protein.RotatedAtoms>
  152.5327  133.9994  159.7887 H   0  0  0  0  0  0  0  0  0  0  0  0  # atno 6907 bound_to 6896
  151.0216  133.5864  159.2678 H   0  0  0  0  0  0  0  0  0  0  0  0  # atno 6908 bound_to 6896
  151.2901  135.0746  159.9254 H   0  0  0  0  0  0  0  0  0  0  0  0  # atno 6909 bound_to 6896
  146.2281  140.2462  142.8345 H   0  0  0  0  0  0  0  0  0  0  0  0  # atno 7974 bound_to 7965
  155.6669  140.0729  157.2534 H   0  0  0  0  0  0  0  0  0  0  0  0  # atno 8008 bound_to 7997
  154.4131  140.1706  156.1888 H   0  0  0  0  0  0  0  0  0  0  0  0  # atno 8009 bound_to 7997
  155.9649  140.3367  155.6527 H   0  0  0  0  0  0  0  0  0  0  0  0  # atno 8010 bound_to 7997
  139.4833  144.4726  151.8556 H   0  0  0  0  0  0  0  0  0  0  0  0  # atno 10167 bound_to 10162
  157.0479  131.0305  151.2691 H   0  0  0  0  0  0  0  0  0  0  0  0  # atno 10718 bound_to 10713
  153.1877  135.4468  155.0109 H   0  0  0  0  0  0  0  0  0  0  0  0  # atno 10763 bound_to 10752
  154.8070  135.3278  154.7407 H   0  0  0  0  0  0  0  0  0  0  0  0  # atno 10764 bound_to 10752
  153.7864  135.6973  153.4934 H   0  0  0  0  0  0  0  0  0  0  0  0  # atno 10765 bound_to 10752
  141.1087  133.6611  156.4511 H   0  0  0  0  0  0  0  0  0  0  0  0  # atno 11005 bound_to 11000
  144.9446  140.8115  143.5609 LP  0  0  0  0  0  0  0  0  0  0  0  0  # atno 17320 bound_to 7965
  145.2417  139.2069  143.4989 LP  0  0  0  0  0  0  0  0  0  0  0  0  # atno 17321 bound_to 7965
  140.4196  144.2261  150.5887 LP  0  0  0  0  0  0  0  0  0  0  0  0  # atno 17342 bound_to 10162
  140.4887  143.2354  151.8850 LP  0  0  0  0  0  0  0  0  0  0  0  0  # atno 17343 bound_to 10162
  157.5053  130.7905  149.7647 LP  0  0  0  0  0  0  0  0  0  0  0  0  # atno 17370 bound_to 10713
  156.0017  130.3877  150.2582 LP  0  0  0  0  0  0  0  0  0  0  0  0  # atno 17371 bound_to 10713
  140.4834  134.6643  157.5180 LP  0  0  0  0  0  0  0  0  0  0  0  0  # atno 17394 bound_to 11000
  139.9969  134.6897  155.9594 LP  0  0  0  0  0  0  0  0  0  0  0  0  # atno 17395 bound_to 11000

$$$$
