AV-unprocessed.smi:2123|AV-procd|sdf|8647|dock2
  -GOLD-   2272011393D 1   1.00000     0.00000
 Structure written by MMmdl.
 47 48  0  0  0  0  0  0  0  0  1 V2000
  148.2645  133.0326  153.1895 C   0  0  0  0  0  0  0  0  0  0  0  0
  149.5572  132.7973  154.4362 S   0  0  0  0  0  0  0  0  0  0  0  0
  150.0817  134.5226  154.6546 C   0  0  0  0  0  0  0  0  0  0  0  0
  149.0486  135.3622  155.4299 C   0  0  0  0  0  0  0  0  0  0  0  0
  149.2268  136.8763  155.2634 C   0  0  0  0  0  0  0  0  0  0  0  0
  148.5125  137.6660  155.8813 O   0  0  0  0  0  0  0  0  0  0  0  0
  150.1893  137.2677  154.4136 N   0  0  0  0  0  0  0  0  0  0  0  0
  150.5315  138.6504  154.0912 C   0  0  0  0  0  0  0  0  0  0  0  0
  151.0075  139.4615  155.2876 C   0  0  0  0  0  0  0  0  0  0  0  0
  150.2175  140.4779  155.8643 C   0  0  0  0  0  0  0  0  0  0  0  0
  150.7149  141.1846  156.9755 C   0  0  0  0  0  0  0  0  0  0  0  0
  151.9936  140.8587  157.4870 C   0  0  0  0  0  0  0  0  0  0  0  0
  152.5160  141.5587  158.5970 N   0  0  0  0  0  0  0  0  0  0  0  0
  151.8057  142.7527  159.0508 C   0  0  0  0  0  0  0  0  0  0  0  0
  152.6639  143.5434  160.0558 C   0  0  1  0  0  0  0  0  0  0  0  0
  151.9034  144.7343  160.6486 C   0  0  0  0  0  0  0  0  0  0  0  0
  153.0484  142.6818  161.1237 O   0  0  0  0  0  0  0  0  0  0  0  0
  153.8372  141.5819  160.6782 C   0  0  1  0  0  0  0  0  0  0  0  0
  154.2768  140.7770  161.9055 C   0  0  0  0  0  0  0  0  0  0  0  0
  153.0111  140.7317  159.6945 C   0  0  0  0  0  0  0  0  0  0  0  0
  152.7434  139.8707  156.9384 N   0  0  0  0  0  0  0  0  0  0  0  0
  152.2608  139.1952  155.8746 C   0  0  0  0  0  0  0  0  0  0  0  0
  147.8197  132.0741  152.9229 H   0  0  0  0  0  0  0  0  0  0  0  0
  148.6815  133.4838  152.2892 H   0  0  0  0  0  0  0  0  0  0  0  0
  147.4792  133.6837  153.5740 H   0  0  0  0  0  0  0  0  0  0  0  0
  151.0250  134.5172  155.2010 H   0  0  0  0  0  0  0  0  0  0  0  0
  150.2911  134.9638  153.6789 H   0  0  0  0  0  0  0  0  0  0  0  0
  148.0342  135.0835  155.1428 H   0  0  0  0  0  0  0  0  0  0  0  0
  149.1403  135.1242  156.4908 H   0  0  0  0  0  0  0  0  0  0  0  0
  150.7281  136.5497  153.9508 H   0  0  0  0  0  0  0  0  0  0  0  0
  151.2926  138.6952  153.3108 H   0  0  0  0  0  0  0  0  0  0  0  0
  149.6406  139.1187  153.6712 H   0  0  0  0  0  0  0  0  0  0  0  0
  149.2401  140.7153  155.4727 H   0  0  0  0  0  0  0  0  0  0  0  0
  150.1054  141.9521  157.4280 H   0  0  0  0  0  0  0  0  0  0  0  0
  151.5655  143.3928  158.2008 H   0  0  0  0  0  0  0  0  0  0  0  0
  150.8629  142.4552  159.5122 H   0  0  0  0  0  0  0  0  0  0  0  0
  153.5603  143.9178  159.5582 H   0  0  0  0  0  0  0  0  0  0  0  0
  151.5973  145.4318  159.8685 H   0  0  0  0  0  0  0  0  0  0  0  0
  152.5261  145.2807  161.3575 H   0  0  0  0  0  0  0  0  0  0  0  0
  151.0067  144.4072  161.1758 H   0  0  0  0  0  0  0  0  0  0  0  0
  154.7292  141.9610  160.1762 H   0  0  0  0  0  0  0  0  0  0  0  0
  154.8938  139.9260  161.6165 H   0  0  0  0  0  0  0  0  0  0  0  0
  153.4163  140.3957  162.4563 H   0  0  0  0  0  0  0  0  0  0  0  0
  154.8615  141.3950  162.5873 H   0  0  0  0  0  0  0  0  0  0  0  0
  152.1579  140.2855  160.2075 H   0  0  0  0  0  0  0  0  0  0  0  0
  153.6275  139.9095  159.3343 H   0  0  0  0  0  0  0  0  0  0  0  0
  152.9000  138.4196  155.4790 H   0  0  0  0  0  0  0  0  0  0  0  0
  1  2  1  0  0  0  0
  1 23  1  0  0  0  0
  1 24  1  0  0  0  0
  1 25  1  0  0  0  0
  2  3  1  0  0  0  0
  3  4  1  0  0  0  0
  3 26  1  0  0  0  0
  3 27  1  0  0  0  0
  4  5  1  0  0  0  0
  4 28  1  0  0  0  0
  4 29  1  0  0  0  0
  5  6  2  0  0  0  0
  5  7  1  0  0  0  0
  7  8  1  0  0  0  0
  7 30  1  0  0  0  0
  8  9  1  0  0  0  0
  8 31  1  0  0  0  0
  8 32  1  0  0  0  0
  9 22  1  0  0  0  0
  9 10  2  0  0  0  0
 10 11  1  0  0  0  0
 10 33  1  0  0  0  0
 11 12  2  0  0  0  0
 11 34  1  0  0  0  0
 12 13  1  0  0  0  0
 12 21  1  0  0  0  0
 13 20  1  0  0  0  0
 13 14  1  0  0  0  0
 14 15  1  0  0  0  0
 14 35  1  0  0  0  0
 14 36  1  0  0  0  0
 15 16  1  0  0  0  0
 15 17  1  0  0  0  0
 15 37  1  0  0  0  0
 16 38  1  0  0  0  0
 16 39  1  0  0  0  0
 16 40  1  0  0  0  0
 17 18  1  0  0  0  0
 18 19  1  0  0  0  0
 18 20  1  0  0  0  0
 18 41  1  0  0  0  0
 19 42  1  0  0  0  0
 19 43  1  0  0  0  0
 19 44  1  0  0  0  0
 20 45  1  0  0  0  0
 20 46  1  0  0  0  0
 21 22  2  0  0  0  0
 22 47  1  0  0  0  0
M  END
> <s_m_source_file>
AV-unprocessed.smi

> <i_m_source_file_index>
2123

> <i_lp_mmshare_version>
43012

> <i_f3d_flags>
0

> <s_epik_input>
W0NIM11TW0NIMl1bQ0gyXUMoPU8pW05IXVtDSDJdYzFbY0hdW2NIXWMobltjSF0xKU4yW0NIMl1bQ0BASF0oW0NIM10pT1tDQEBIXShbQ0gzXSlbQ0gyXTI=

> <s_epik_cmdline>
J2VwaWtfcHl0aG9uJywgJy1waCcsICc3LjAnLCAnLXRuJywgJzgnLCAnLW1hJywgJzIwMCcsICctbWV0YWxfYmluZGluZycsICctaW1hZScsICc8aW5maWxlLm1hZT4nLCAnLW9tYWUnLCAnPG91dGZpbGUubWFlPic=

> <r_lp_tautomer_probability>
1

> <r_epik_Ionization_Penalty>
0.00642497

> <r_epik_Ionization_Penalty_Charging>
0

> <r_epik_Ionization_Penalty_Neutral>
0.00642497

> <r_epik_State_Penalty>
0.0047515

> <r_epik_Charging_Adjusted_Penalty>
0.0047515

> <i_epik_Tot_Q>
0

> <i_epik_Tot_abs_Q>
0

> <r_epik_Metal_State_Penalty>
-0

> <b_epik_Metal_Only>
0

> <s_lp_Force_Field>
OPLS_2005

> <r_lp_Energy>
15.9329

> <b_lp_Chiralities_Consistent>
1

> <s_lp_Variant>
AV-unprocessed.smi:2123-1

> <Gold.Version>
5.8.1

> <Gold.Id.Protein>
6NUR|6NUR_protein|mol2

> <Gold.PLP.Fitness>
48.3702

> <Gold.PLP.PLP>
-45.8137

> <Gold.PLP.part.hbond>
-2.0223

> <Gold.PLP.part.metal>
0.0000

> <Gold.PLP.part.buried>
-5.7054

> <Gold.PLP.part.nonpolar>
-38.4688

> <Gold.PLP.part.repulsive>
0.1076

> <Gold.PLP.ligand.clash>
0.0000

> <Gold.PLP.ligand.torsion>
0.4141

> <Gold.PLP.Chemscore.Hbond>
1.0000

> <Gold.PLP.Chemscore.CHOScore>
0.0000

> <Gold.PLP.Chemscore.Metal>
0.0000

> <Gold.Chemscore.Hbonds>
donor molecule, donor type, donor heavy atom, donor atom, acceptor molecule, acceptor atom, score
      P1  H  7997  8009       L1    21  1.00

> <Gold.PLP.Chemscore.Internal.Correction>
0.3847

> <Gold.Rescore>
     Score         DG    S(hbond)    S(metal)    S(lipo)     H(rot)  DE(clash)    DE(int)     intcor
     17.45     -17.95       0.93        0.00     117.31       1.70       0.13       0.37       ----

> <Gold.Chemscore.Fitness>
17.4478

> <Gold.Chemscore.DG>
-17.9460

> <Gold.Chemscore.ZeroCoef>
-5.4800

> <Gold.Chemscore.Hbond>
0.9297

> <Gold.Chemscore.Metal>
0.0000

> <Gold.Chemscore.Lipo>
117.3119

> <Gold.Chemscore.Internal_Hbond>
0.0000

> <Gold.Chemscore.DEClash>
0.1306

> <Gold.Chemscore.DEInternal>
0.3676

> <Gold.Chemscore.Rot>
1.7049

> <Gold.Chemscore.Internal.Correction>
   9.000000E+99

> <Gold.Chemscore.Hbonds>
donor molecule, donor type, donor heavy atom, donor atom, acceptor molecule, acceptor atom, score
      P1  H  7997  8009       L1    21  0.39

> <Gold.Chemscore.Hbond.Weighted>
-3.1052

> <Gold.Chemscore.Metal.Weighted>
-0.0000

> <Gold.Chemscore.Lipo.Weighted>
-13.7255

> <Gold.Chemscore.Internal_Hbond.Weighted>
0.0000

> <Gold.Chemscore.DEClash.Weighted>
0.1306

> <Gold.Chemscore.DEInternal.Weighted>
0.3676

> <Gold.Chemscore.Rot.Weighted>
4.3647

> <Gold.Chemscore.Internal.Correction.Weighted>
   9.000000E+99

> <Gold.Protein.RotatedTorsions>
[ 6907 6896 6895 6894 ] final  -83.62 input  -60.11 | X-H torsion
[ 7974 7965 7964 7962 ] final  117.72 input  175.53 | X-H torsion
[ 8008 7997 7996 7995 ] final -172.81 input   59.86 | X-H torsion
[ 10167 10162 10161 10158 ] final  -91.28 input  -65.29 | X-H torsion
[ 10718 10713 10712 10709 ] final  143.00 input   66.30 | X-H torsion
[ 10763 10752 10751 10750 ] final  -77.58 input  -60.55 | X-H torsion
[ 11005 11000 10999 10996 ] final  168.94 input  -57.11 | X-H torsion

> <Gold.Protein.ActiveResidues>
 VAL166  LYS551  ARG553  GLY616  TRP617  ASP618  TYR619  PRO620  LYS621  CYS622 
 ASP623  PHE694  ASN695  SER759  ASP760  ASP761  ALA762  ILE779  LEU786  VAL792 
 PHE793  MET794  SER795  GLU796  ALA797  LYS798  CYS799  TRP800  GLU811  SER814 

> <Gold.Protein.RotatedAtoms>
  150.6884  134.3484  159.4897 H   0  0  0  0  0  0  0  0  0  0  0  0  # atno 6907 bound_to 6896
  152.1328  134.9119  160.0567 H   0  0  0  0  0  0  0  0  0  0  0  0  # atno 6908 bound_to 6896
  152.0282  133.3892  159.4323 H   0  0  0  0  0  0  0  0  0  0  0  0  # atno 6909 bound_to 6896
  145.1640  139.3139  143.4502 H   0  0  0  0  0  0  0  0  0  0  0  0  # atno 7974 bound_to 7965
  155.9494  140.1123  157.0989 H   0  0  0  0  0  0  0  0  0  0  0  0  # atno 8008 bound_to 7997
  154.4106  140.1203  156.5099 H   0  0  0  0  0  0  0  0  0  0  0  0  # atno 8009 bound_to 7997
  155.6861  140.3473  155.4877 H   0  0  0  0  0  0  0  0  0  0  0  0  # atno 8010 bound_to 7997
  140.3464  143.2914  151.9776 H   0  0  0  0  0  0  0  0  0  0  0  0  # atno 10167 bound_to 10162
  157.3740  131.0983  151.0801 H   0  0  0  0  0  0  0  0  0  0  0  0  # atno 10718 bound_to 10713
  154.5148  135.5759  153.6633 H   0  0  0  0  0  0  0  0  0  0  0  0  # atno 10763 bound_to 10752
  152.9904  135.6167  154.2832 H   0  0  0  0  0  0  0  0  0  0  0  0  # atno 10764 bound_to 10752
  154.2749  135.2852  155.2702 H   0  0  0  0  0  0  0  0  0  0  0  0  # atno 10765 bound_to 10752
  140.2925  134.7661  157.3850 H   0  0  0  0  0  0  0  0  0  0  0  0  # atno 11005 bound_to 11000
  146.3478  140.1760  142.8589 LP  0  0  0  0  0  0  0  0  0  0  0  0  # atno 17320 bound_to 7965
  145.0302  140.8864  143.5114 LP  0  0  0  0  0  0  0  0  0  0  0  0  # atno 17321 bound_to 7965
  139.4832  144.6113  151.7428 LP  0  0  0  0  0  0  0  0  0  0  0  0  # atno 17342 bound_to 10162
  140.5260  144.0805  150.6038 LP  0  0  0  0  0  0  0  0  0  0  0  0  # atno 17343 bound_to 10162
  157.1895  130.6345  149.5699 LP  0  0  0  0  0  0  0  0  0  0  0  0  # atno 17370 bound_to 10713
  155.9761  130.4727  150.6508 LP  0  0  0  0  0  0  0  0  0  0  0  0  # atno 17371 bound_to 10713
  140.1182  134.5255  155.8206 LP  0  0  0  0  0  0  0  0  0  0  0  0  # atno 17394 bound_to 11000
  141.2143  133.6747  156.6816 LP  0  0  0  0  0  0  0  0  0  0  0  0  # atno 17395 bound_to 11000

$$$$
