AV-unprocessed.smi:2724|AV-procd|sdf|10508|dock9
  -GOLD-   2272014553D 1   1.00000     0.00000
 Structure written by MMmdl.
 25 26  0  0  0  0  0  0  0  0  1 V2000
  149.4718  144.1116  158.5286 O   0  0  0  0  0  0  0  0  0  0  0  0
  150.7071  144.4975  159.0992 C   0  0  1  0  0  0  0  0  0  0  0  0
  150.7027  144.4111  160.6254 C   0  0  0  0  0  0  0  0  0  0  0  0
  152.1878  144.3928  160.9794 C   0  0  0  0  0  0  0  0  0  0  0  0
  152.8293  143.5303  159.8879 C   0  0  0  0  0  0  0  0  0  0  0  0
  151.9389  143.6829  158.6353 C   0  0  1  0  0  0  0  0  0  0  0  0
  151.6239  142.3436  157.9712 C   0  0  0  0  0  0  0  0  0  0  0  0
  151.9120  141.1145  158.6056 C   0  0  0  0  0  0  0  0  0  0  0  0
  151.5940  139.9130  157.9443 C   0  0  0  0  0  0  0  0  0  0  0  0
  151.0002  139.9874  156.6692 C   0  0  0  0  0  0  0  0  0  0  0  0
  150.7214  141.1537  156.0489 N   0  0  0  0  0  0  0  0  0  0  0  0
  151.0288  142.3011  156.6912 C   0  0  0  0  0  0  0  0  0  0  0  0
  149.0843  144.8669  158.1135 H   0  0  0  0  0  0  0  0  0  0  0  0
  150.8745  145.5420  158.8320 H   0  0  0  0  0  0  0  0  0  0  0  0
  150.1675  145.2383  161.0928 H   0  0  0  0  0  0  0  0  0  0  0  0
  150.2351  143.4819  160.9541 H   0  0  0  0  0  0  0  0  0  0  0  0
  152.5877  145.4066  160.9307 H   0  0  0  0  0  0  0  0  0  0  0  0
  152.3764  144.0085  161.9820 H   0  0  0  0  0  0  0  0  0  0  0  0
  153.8647  143.8126  159.6943 H   0  0  0  0  0  0  0  0  0  0  0  0
  152.8447  142.4953  160.2308 H   0  0  0  0  0  0  0  0  0  0  0  0
  152.4750  144.2917  157.9054 H   0  0  0  0  0  0  0  0  0  0  0  0
  152.3669  141.0896  159.5848 H   0  0  0  0  0  0  0  0  0  0  0  0
  151.7992  138.9577  158.4040 H   0  0  0  0  0  0  0  0  0  0  0  0
  150.7425  139.0860  156.1331 H   0  0  0  0  0  0  0  0  0  0  0  0
  150.7909  143.2129  156.1636 H   0  0  0  0  0  0  0  0  0  0  0  0
  1  2  1  0  0  0  0
  1 13  1  0  0  0  0
  2  6  1  0  0  0  0
  2  3  1  0  0  0  0
  2 14  1  0  0  0  0
  3  4  1  0  0  0  0
  3 15  1  0  0  0  0
  3 16  1  0  0  0  0
  4  5  1  0  0  0  0
  4 17  1  0  0  0  0
  4 18  1  0  0  0  0
  5  6  1  0  0  0  0
  5 19  1  0  0  0  0
  5 20  1  0  0  0  0
  6  7  1  0  0  0  0
  6 21  1  0  0  0  0
  7 12  1  0  0  0  0
  7  8  2  0  0  0  0
  8  9  1  0  0  0  0
  8 22  1  0  0  0  0
  9 10  2  0  0  0  0
  9 23  1  0  0  0  0
 10 11  1  0  0  0  0
 10 24  1  0  0  0  0
 11 12  2  0  0  0  0
 12 25  1  0  0  0  0
M  END
> <s_m_source_file>
AV-unprocessed.smi

> <i_m_source_file_index>
2724

> <i_lp_mmshare_version>
43012

> <i_f3d_flags>
0

> <s_epik_input>
W09IXVtDQEBIXTFbQ0gyXVtDSDJdW0NIMl1bQ0BIXTFjMltjSF1bY0hdW2NIXW5bY0hdMg==

> <s_epik_cmdline>
J2VwaWtfcHl0aG9uJywgJy1waCcsICc3LjAnLCAnLXRuJywgJzgnLCAnLW1hJywgJzIwMCcsICctbWV0YWxfYmluZGluZycsICctaW1hZScsICc8aW5maWxlLm1hZT4nLCAnLW9tYWUnLCAnPG91dGZpbGUubWFlPic=

> <r_epik_Ionization_Penalty>
0.0175299

> <r_epik_Ionization_Penalty_Charging>
0

> <r_epik_Ionization_Penalty_Neutral>
0.0175299

> <r_epik_State_Penalty>
0.0138989

> <r_epik_Charging_Adjusted_Penalty>
0.0138989

> <i_epik_Tot_Q>
0

> <i_epik_Tot_abs_Q>
0

> <r_epik_Metal_State_Penalty>
1.40631e-05

> <b_epik_Metal_Only>
0

> <s_lp_Force_Field>
OPLS_2005

> <r_lp_Energy>
23.8775

> <b_lp_Chiralities_Consistent>
1

> <s_lp_Variant>
AV-unprocessed.smi:2724-2

> <Gold.Version>
5.8.1

> <Gold.Id.Protein>
6NUR|6NUR_protein|mol2

> <Gold.PLP.Fitness>
33.4888

> <Gold.PLP.PLP>
-27.9140

> <Gold.PLP.part.hbond>
-2.0000

> <Gold.PLP.part.metal>
0.0000

> <Gold.PLP.part.buried>
-4.1498

> <Gold.PLP.part.nonpolar>
-21.9456

> <Gold.PLP.part.repulsive>
0.0517

> <Gold.PLP.ligand.clash>
0.0000

> <Gold.PLP.ligand.torsion>
0.2134

> <Gold.PLP.Chemscore.Hbond>
1.0000

> <Gold.PLP.Chemscore.CHOScore>
1.0000

> <Gold.PLP.Chemscore.Metal>
0.0000

> <Gold.Chemscore.Hbonds>
donor molecule, donor type, donor heavy atom, donor atom, acceptor molecule, acceptor atom, score
      L1  H     1    13       P1  8029  1.00
      L1  C    12    25       P1  8028  1.00

> <Gold.PLP.Chemscore.Internal.Correction>
0.0015

> <Gold.Rescore>
     Score         DG    S(hbond)    S(metal)    S(lipo)     H(rot)  DE(clash)    DE(int)     intcor
     15.32     -15.84       0.86        0.00      93.01       1.32       0.09       0.43       ----

> <Gold.Chemscore.Fitness>
15.3241

> <Gold.Chemscore.DG>
-15.8405

> <Gold.Chemscore.ZeroCoef>
-5.4800

> <Gold.Chemscore.Hbond>
0.8550

> <Gold.Chemscore.Metal>
0.0000

> <Gold.Chemscore.Lipo>
93.0069

> <Gold.Chemscore.Internal_Hbond>
0.0000

> <Gold.Chemscore.DEClash>
0.0853

> <Gold.Chemscore.DEInternal>
0.4311

> <Gold.Chemscore.Rot>
1.3192

> <Gold.Chemscore.Internal.Correction>
   9.000000E+99

> <Gold.Chemscore.Hbonds>
donor molecule, donor type, donor heavy atom, donor atom, acceptor molecule, acceptor atom, score
      L1  H     1    13       P1  8029  0.35

> <Gold.Chemscore.Hbond.Weighted>
-2.8558

> <Gold.Chemscore.Metal.Weighted>
-0.0000

> <Gold.Chemscore.Lipo.Weighted>
-10.8818

> <Gold.Chemscore.Internal_Hbond.Weighted>
0.0000

> <Gold.Chemscore.DEClash.Weighted>
0.0853

> <Gold.Chemscore.DEInternal.Weighted>
0.4311

> <Gold.Chemscore.Rot.Weighted>
3.3772

> <Gold.Chemscore.Internal.Correction.Weighted>
   9.000000E+99

> <Gold.Protein.RotatedTorsions>
[ 6907 6896 6895 6894 ] final  -42.86 input  -60.11 | X-H torsion
[ 7974 7965 7964 7962 ] final   26.34 input  175.53 | X-H torsion
[ 8008 7997 7996 7995 ] final  144.46 input   59.86 | X-H torsion
[ 10167 10162 10161 10158 ] final  101.32 input  -65.29 | X-H torsion
[ 10718 10713 10712 10709 ] final  163.68 input   66.30 | X-H torsion
[ 10763 10752 10751 10750 ] final    2.34 input  -60.55 | X-H torsion
[ 11005 11000 10999 10996 ] final  -87.52 input  -57.11 | X-H torsion

> <Gold.Protein.ActiveResidues>
 VAL166  LYS551  ARG553  GLY616  TRP617  ASP618  TYR619  PRO620  LYS621  CYS622 
 ASP623  PHE694  ASN695  SER759  ASP760  ASP761  ALA762  ILE779  LEU786  VAL792 
 PHE793  MET794  SER795  GLU796  ALA797  LYS798  CYS799  TRP800  GLU811  SER814 

> <Gold.Protein.RotatedAtoms>
  150.9504  134.8904  159.7667 H   0  0  0  0  0  0  0  0  0  0  0  0  # atno 6907 bound_to 6896
  152.5117  134.3815  159.9362 H   0  0  0  0  0  0  0  0  0  0  0  0  # atno 6908 bound_to 6896
  151.3831  133.3774  159.2747 H   0  0  0  0  0  0  0  0  0  0  0  0  # atno 6909 bound_to 6896
  146.1842  139.7341  142.8878 H   0  0  0  0  0  0  0  0  0  0  0  0  # atno 7974 bound_to 7965
  156.2907  140.2235  156.5056 H   0  0  0  0  0  0  0  0  0  0  0  0  # atno 8008 bound_to 7997
  154.7652  140.0470  157.1028 H   0  0  0  0  0  0  0  0  0  0  0  0  # atno 8009 bound_to 7997
  154.9941  140.3094  155.4897 H   0  0  0  0  0  0  0  0  0  0  0  0  # atno 8010 bound_to 7997
  139.7449  144.7001  151.0520 H   0  0  0  0  0  0  0  0  0  0  0  0  # atno 10167 bound_to 10162
  157.1051  131.0453  151.2481 H   0  0  0  0  0  0  0  0  0  0  0  0  # atno 10718 bound_to 10713
  153.2968  135.6953  153.7241 H   0  0  0  0  0  0  0  0  0  0  0  0  # atno 10763 bound_to 10752
  153.6171  135.3434  155.2999 H   0  0  0  0  0  0  0  0  0  0  0  0  # atno 10764 bound_to 10752
  154.8539  135.4377  154.2067 H   0  0  0  0  0  0  0  0  0  0  0  0  # atno 10765 bound_to 10752
  141.1615  133.7516  156.9319 H   0  0  0  0  0  0  0  0  0  0  0  0  # atno 11005 bound_to 11000
  145.3987  141.0382  143.3083 LP  0  0  0  0  0  0  0  0  0  0  0  0  # atno 17320 bound_to 7965
  144.8368  139.5537  143.6918 LP  0  0  0  0  0  0  0  0  0  0  0  0  # atno 17321 bound_to 7965
  140.7791  143.4879  150.9931 LP  0  0  0  0  0  0  0  0  0  0  0  0  # atno 17342 bound_to 10162
  139.8567  143.7367  152.3175 LP  0  0  0  0  0  0  0  0  0  0  0  0  # atno 17343 bound_to 10162
  157.4607  130.7652  149.7234 LP  0  0  0  0  0  0  0  0  0  0  0  0  # atno 17370 bound_to 10713
  155.9864  130.3975  150.3215 LP  0  0  0  0  0  0  0  0  0  0  0  0  # atno 17371 bound_to 10713
  140.1381  134.9312  157.2429 LP  0  0  0  0  0  0  0  0  0  0  0  0  # atno 17394 bound_to 11000
  140.2871  134.3283  155.7326 LP  0  0  0  0  0  0  0  0  0  0  0  0  # atno 17395 bound_to 11000

$$$$
