AV-unprocessed.smi:2021|AV-procd|sdf|8178|dock5
  -GOLD-   2272010433D 1   1.00000     0.00000
 Structure written by MMmdl.
 42 43  0  0  0  0  0  0  0  0  2 V2000
  152.3472  144.0081  160.7089 C   0  0  0  0  0  0  0  0  0  0  0  0
  152.4273  143.2958  159.3481 C   0  0  0  0  0  0  0  0  0  0  0  0
  152.1474  144.2857  158.2072 C   0  0  0  0  0  0  0  0  0  0  0  0
  151.4606  142.0949  159.2707 C   0  0  0  0  0  0  0  0  0  0  0  0
  151.4408  141.4451  157.9352 N   0  3  2  0  0  0  0  0  0  0  0  0
  150.5000  142.0786  156.9786 C   0  0  0  0  0  0  0  0  0  0  0  0
  150.5606  141.3675  155.6174 C   0  0  0  0  0  0  0  0  0  0  0  0
  150.2826  139.9852  155.7934 O   0  0  0  0  0  0  0  0  0  0  0  0
  151.2426  139.3391  156.6235 C   0  0  2  0  0  0  0  0  0  0  0  0
  150.9253  137.8341  156.6811 C   0  0  0  0  0  0  0  0  0  0  0  0
  149.6337  137.5750  157.3092 N   0  0  0  0  0  0  0  0  0  0  0  0
  149.4641  137.1086  158.5551 C   0  0  0  0  0  0  0  0  0  0  0  0
  150.3984  136.8465  159.3128 O   0  0  0  0  0  0  0  0  0  0  0  0
  148.1598  136.9738  158.8523 N   0  0  0  0  0  0  0  0  0  0  0  0
  147.5768  136.5112  160.0620 C   0  0  0  0  0  0  0  0  0  0  0  0
  147.2308  137.3174  161.0779 N   0  0  0  0  0  0  0  0  0  0  0  0
  146.6845  136.6091  162.1404 N   0  0  0  0  0  0  0  0  0  0  0  0
  146.6394  135.2987  161.8843 C   0  0  0  0  0  0  0  0  0  0  0  0
  147.2579  134.8017  160.3186 S   0  0  0  0  0  0  0  0  0  0  0  0
  151.1879  139.9869  158.0209 C   0  0  0  0  0  0  0  0  0  0  0  0
  151.3398  144.3774  160.9037 H   0  0  0  0  0  0  0  0  0  0  0  0
  153.0258  144.8607  160.7466 H   0  0  0  0  0  0  0  0  0  0  0  0
  152.6214  143.3407  161.5261 H   0  0  0  0  0  0  0  0  0  0  0  0
  153.4496  142.9433  159.2134 H   0  0  0  0  0  0  0  0  0  0  0  0
  151.1375  144.6922  158.2725 H   0  0  0  0  0  0  0  0  0  0  0  0
  152.2495  143.8039  157.2344 H   0  0  0  0  0  0  0  0  0  0  0  0
  152.8450  145.1234  158.2316 H   0  0  0  0  0  0  0  0  0  0  0  0
  151.7645  141.3652  160.0230 H   0  0  0  0  0  0  0  0  0  0  0  0
  150.4468  142.3984  159.5368 H   0  0  0  0  0  0  0  0  0  0  0  0
  149.4850  142.0313  157.3761 H   0  0  0  0  0  0  0  0  0  0  0  0
  150.7415  143.1322  156.8431 H   0  0  0  0  0  0  0  0  0  0  0  0
  149.8218  141.7920  154.9376 H   0  0  0  0  0  0  0  0  0  0  0  0
  151.5374  141.4995  155.1493 H   0  0  0  0  0  0  0  0  0  0  0  0
  152.2394  139.4731  156.1988 H   0  0  0  0  0  0  0  0  0  0  0  0
  150.8811  137.4311  155.6691 H   0  0  0  0  0  0  0  0  0  0  0  0
  151.7225  137.2907  157.1918 H   0  0  0  0  0  0  0  0  0  0  0  0
  148.8111  137.7627  156.7546 H   0  0  0  0  0  0  0  0  0  0  0  0
  147.5051  137.2276  158.1273 H   0  0  0  0  0  0  0  0  0  0  0  0
  146.2385  134.6201  162.6224 H   0  0  0  0  0  0  0  0  0  0  0  0
  151.9342  139.5237  158.6679 H   0  0  0  0  0  0  0  0  0  0  0  0
  150.2129  139.8134  158.4802 H   0  0  0  0  0  0  0  0  0  0  0  0
  152.3693  141.5483  157.5509 H   0  0  0  0  0  0  0  0  0  0  0  0
  1  2  1  0  0  0  0
  1 21  1  0  0  0  0
  1 22  1  0  0  0  0
  1 23  1  0  0  0  0
  2  3  1  0  0  0  0
  2  4  1  0  0  0  0
  2 24  1  0  0  0  0
  3 25  1  0  0  0  0
  3 26  1  0  0  0  0
  3 27  1  0  0  0  0
  4  5  1  0  0  0  0
  4 28  1  0  0  0  0
  4 29  1  0  0  0  0
  5 20  1  0  0  0  0
  5  6  1  0  0  0  0
  5 42  1  0  0  0  0
  6  7  1  0  0  0  0
  6 30  1  0  0  0  0
  6 31  1  0  0  0  0
  7  8  1  0  0  0  0
  7 32  1  0  0  0  0
  7 33  1  0  0  0  0
  8  9  1  0  0  0  0
  9 10  1  0  0  0  0
  9 20  1  0  0  0  0
  9 34  1  0  0  0  0
 10 11  1  0  0  0  0
 10 35  1  0  0  0  0
 10 36  1  0  0  0  0
 11 12  1  0  0  0  0
 11 37  1  0  0  0  0
 12 13  2  0  0  0  0
 12 14  1  0  0  0  0
 14 15  1  0  0  0  0
 14 38  1  0  0  0  0
 15 19  1  0  0  0  0
 15 16  2  0  0  0  0
 16 17  1  0  0  0  0
 17 18  2  0  0  0  0
 18 19  1  0  0  0  0
 18 39  1  0  0  0  0
 20 40  1  0  0  0  0
 20 41  1  0  0  0  0
M  CHG  1   5   1
M  END
> <s_m_source_file>
AV-unprocessed.smi

> <i_m_source_file_index>
2021

> <i_lp_mmshare_version>
43012

> <i_f3d_flags>
0

> <s_epik_input>
W0NIM11bQ0hdKFtDSDNdKVtDSDJdTjFbQ0gyXVtDSDJdT1tDQEhdKFtDSDJdMSlbQ0gyXVtOSF1DKD1PKVtOSF1jMm5uW2NIXXMy

> <s_epik_cmdline>
J2VwaWtfcHl0aG9uJywgJy1waCcsICc3LjAnLCAnLXRuJywgJzgnLCAnLW1hJywgJzIwMCcsICctbWV0YWxfYmluZGluZycsICctaW1hZScsICc8aW5maWxlLm1hZT4nLCAnLW9tYWUnLCAnPG91dGZpbGUubWFlPic=

> <r_lp_tautomer_probability>
1

> <r_epik_Ionization_Penalty>
0.102019

> <r_epik_Ionization_Penalty_Charging>
0.098413

> <r_epik_Ionization_Penalty_Neutral>
0.00360555

> <r_epik_State_Penalty>
0.0884988

> <r_epik_Charging_Adjusted_Penalty>
0.186912

> <i_epik_Tot_Q>
1

> <i_epik_Tot_abs_Q>
1

> <r_epik_Metal_State_Penalty>
0.454709

> <b_epik_Metal_Only>
0

> <s_lp_Force_Field>
OPLS_2005

> <r_lp_Energy>
16.3226

> <b_lp_Chiralities_Consistent>
1

> <s_lp_Variant>
AV-unprocessed.smi:2021-4

> <Gold.Version>
5.8.1

> <Gold.Id.Protein>
6NUR|6NUR_protein|mol2

> <Gold.PLP.Fitness>
42.8905

> <Gold.PLP.PLP>
-36.8995

> <Gold.PLP.part.hbond>
-3.0000

> <Gold.PLP.part.metal>
0.0000

> <Gold.PLP.part.buried>
-5.2905

> <Gold.PLP.part.nonpolar>
-28.6402

> <Gold.PLP.part.repulsive>
0.2827

> <Gold.PLP.ligand.clash>
0.0000

> <Gold.PLP.ligand.torsion>
1.2320

> <Gold.PLP.Chemscore.Hbond>
2.7920

> <Gold.PLP.Chemscore.CHOScore>
0.0000

> <Gold.PLP.Chemscore.Metal>
0.0000

> <Gold.Chemscore.Hbonds>
donor molecule, donor type, donor heavy atom, donor atom, acceptor molecule, acceptor atom, score
      P1  H  6896  6907       L1    13  0.96
      P1  H  6931  6943       L1    16  0.47
      P1  H  6934  6947       L1    16  1.00

> <Gold.PLP.Chemscore.Internal.Correction>
0.0788

> <Gold.Rescore>
     Score         DG    S(hbond)    S(metal)    S(lipo)     H(rot)  DE(clash)    DE(int)     intcor
     17.67     -19.13       2.52        0.00      85.89       1.88       0.01       1.45       ----

> <Gold.Chemscore.Fitness>
17.6705

> <Gold.Chemscore.DG>
-19.1342

> <Gold.Chemscore.ZeroCoef>
-5.4800

> <Gold.Chemscore.Hbond>
2.5214

> <Gold.Chemscore.Metal>
0.0000

> <Gold.Chemscore.Lipo>
85.8856

> <Gold.Chemscore.Internal_Hbond>
0.0000

> <Gold.Chemscore.DEClash>
0.0149

> <Gold.Chemscore.DEInternal>
1.4488

> <Gold.Chemscore.Rot>
1.8812

> <Gold.Chemscore.Internal.Correction>
   9.000000E+99

> <Gold.Chemscore.Hbonds>
donor molecule, donor type, donor heavy atom, donor atom, acceptor molecule, acceptor atom, score
      P1  H  6896  6907       L1    13  0.88
      P1  H  6931  6943       L1    16  0.17
      P1  H  6934  6947       L1    16  0.97

> <Gold.Chemscore.Hbond.Weighted>
-8.4215

> <Gold.Chemscore.Metal.Weighted>
-0.0000

> <Gold.Chemscore.Lipo.Weighted>
-10.0486

> <Gold.Chemscore.Internal_Hbond.Weighted>
0.0000

> <Gold.Chemscore.DEClash.Weighted>
0.0149

> <Gold.Chemscore.DEInternal.Weighted>
1.4488

> <Gold.Chemscore.Rot.Weighted>
4.8159

> <Gold.Chemscore.Internal.Correction.Weighted>
   9.000000E+99

> <Gold.Protein.RotatedTorsions>
[ 6907 6896 6895 6894 ] final  -10.89 input  -60.11 | X-H torsion
[ 7974 7965 7964 7962 ] final  -49.26 input  175.53 | X-H torsion
[ 8008 7997 7996 7995 ] final  169.85 input   59.86 | X-H torsion
[ 10167 10162 10161 10158 ] final  -37.23 input  -65.29 | X-H torsion
[ 10718 10713 10712 10709 ] final  144.99 input   66.30 | X-H torsion
[ 10763 10752 10751 10750 ] final -138.44 input  -60.55 | X-H torsion
[ 11005 11000 10999 10996 ] final -123.59 input  -57.11 | X-H torsion

> <Gold.Protein.ActiveResidues>
 VAL166  LYS551  ARG553  GLY616  TRP617  ASP618  TYR619  PRO620  LYS621  CYS622 
 ASP623  PHE694  ASN695  SER759  ASP760  ASP761  ALA762  ILE779  LEU786  VAL792 
 PHE793  MET794  SER795  GLU796  ALA797  LYS798  CYS799  TRP800  GLU811  SER814 

> <Gold.Protein.RotatedAtoms>
  151.3949  135.0962  159.9537 H   0  0  0  0  0  0  0  0  0  0  0  0  # atno 6907 bound_to 6896
  152.5068  133.8944  159.7420 H   0  0  0  0  0  0  0  0  0  0  0  0  # atno 6908 bound_to 6896
  150.9405  133.6605  159.2820 H   0  0  0  0  0  0  0  0  0  0  0  0  # atno 6909 bound_to 6896
  145.9425  140.7649  142.9545 H   0  0  0  0  0  0  0  0  0  0  0  0  # atno 7974 bound_to 7965
  156.1420  140.1553  156.8906 H   0  0  0  0  0  0  0  0  0  0  0  0  # atno 8008 bound_to 7997
  154.4995  140.0829  156.7806 H   0  0  0  0  0  0  0  0  0  0  0  0  # atno 8009 bound_to 7997
  155.4061  140.3416  155.4262 H   0  0  0  0  0  0  0  0  0  0  0  0  # atno 8010 bound_to 7997
  140.7123  143.3355  151.2471 H   0  0  0  0  0  0  0  0  0  0  0  0  # atno 10167 bound_to 10162
  157.3507  131.0950  151.1003 H   0  0  0  0  0  0  0  0  0  0  0  0  # atno 10718 bound_to 10713
  154.8637  135.3612  154.5385 H   0  0  0  0  0  0  0  0  0  0  0  0  # atno 10763 bound_to 10752
  153.6008  135.7012  153.5390 H   0  0  0  0  0  0  0  0  0  0  0  0  # atno 10764 bound_to 10752
  153.3292  135.4129  155.1443 H   0  0  0  0  0  0  0  0  0  0  0  0  # atno 10765 bound_to 10752
  140.9907  134.0543  157.3658 H   0  0  0  0  0  0  0  0  0  0  0  0  # atno 11005 bound_to 11000
  144.6781  140.2303  143.7356 LP  0  0  0  0  0  0  0  0  0  0  0  0  # atno 17320 bound_to 7965
  145.8281  139.2073  143.1899 LP  0  0  0  0  0  0  0  0  0  0  0  0  # atno 17321 bound_to 7965
  139.6849  143.9790  152.2829 LP  0  0  0  0  0  0  0  0  0  0  0  0  # atno 17342 bound_to 10162
  139.9432  144.6668  150.8245 LP  0  0  0  0  0  0  0  0  0  0  0  0  # atno 17343 bound_to 10162
  157.2180  130.6468  149.5800 LP  0  0  0  0  0  0  0  0  0  0  0  0  # atno 17370 bound_to 10713
  155.9721  130.4638  150.6196 LP  0  0  0  0  0  0  0  0  0  0  0  0  # atno 17371 bound_to 10713
  139.8991  135.0157  156.7179 LP  0  0  0  0  0  0  0  0  0  0  0  0  # atno 17394 bound_to 11000
  140.7044  133.9278  155.8045 LP  0  0  0  0  0  0  0  0  0  0  0  0  # atno 17395 bound_to 11000

$$$$
