AV-unprocessed.smi:2302|AV-procd|sdf|9241|dock7
  -GOLD-   2272012463D 1   1.00000     0.00000
 Structure written by MMmdl.
 39 40  0  0  0  0  0  0  0  0  1 V2000
  153.8442  140.8100  160.1096 C   0  0  0  0  0  0  0  0  0  0  0  0
  153.0356  142.0348  159.7365 C   0  0  0  0  0  0  0  0  0  0  0  0
  153.1014  143.2100  160.5105 C   0  0  0  0  0  0  0  0  0  0  0  0
  152.3214  144.3103  160.1123 C   0  0  0  0  0  0  0  0  0  0  0  0
  151.5135  144.1912  158.9648 C   0  0  0  0  0  0  0  0  0  0  0  0
  151.5043  142.9757  158.2440 C   0  0  0  0  0  0  0  0  0  0  0  0
  150.6540  142.9558  157.1064 N   0  0  0  0  0  0  0  0  0  0  0  0
  150.2469  141.8918  156.3919 C   0  0  0  0  0  0  0  0  0  0  0  0
  150.5792  140.7246  156.6007 O   0  0  0  0  0  0  0  0  0  0  0  0
  149.4192  142.2602  155.4032 N   0  0  0  0  0  0  0  0  0  0  0  0
  148.8065  141.3518  154.4374 C   0  0  0  0  0  0  0  0  0  0  0  0
  147.3198  141.6670  154.1844 C   0  0  1  0  0  0  0  0  0  0  0  0
  146.3984  141.3016  155.3683 C   0  0  0  0  0  0  0  0  0  0  0  0
  145.0096  141.6482  155.0971 N   0  0  0  0  0  0  0  0  0  0  0  0
  144.1415  141.3026  156.2124 C   0  0  0  0  0  0  0  0  0  0  0  0
  144.9170  143.0628  154.7612 C   0  0  0  0  0  0  0  0  0  0  0  0
  145.8346  143.4277  153.5820 C   0  0  0  0  0  0  0  0  0  0  0  0
  147.1755  143.0538  153.8829 O   0  0  0  0  0  0  0  0  0  0  0  0
  152.2601  141.9201  158.6371 N   0  0  0  0  0  0  0  0  0  0  0  0
  154.6085  141.0526  160.8484 H   0  0  0  0  0  0  0  0  0  0  0  0
  154.3414  140.3963  159.2317 H   0  0  0  0  0  0  0  0  0  0  0  0
  153.1928  140.0430  160.5295 H   0  0  0  0  0  0  0  0  0  0  0  0
  153.7305  143.2689  161.3866 H   0  0  0  0  0  0  0  0  0  0  0  0
  152.3412  145.2305  160.6773 H   0  0  0  0  0  0  0  0  0  0  0  0
  150.9079  145.0270  158.6457 H   0  0  0  0  0  0  0  0  0  0  0  0
  150.3062  143.8552  156.8093 H   0  0  0  0  0  0  0  0  0  0  0  0
  149.2009  143.2407  155.3060 H   0  0  0  0  0  0  0  0  0  0  0  0
  149.3589  141.3584  153.4963 H   0  0  0  0  0  0  0  0  0  0  0  0
  148.8986  140.3402  154.8331 H   0  0  0  0  0  0  0  0  0  0  0  0
  147.0055  141.0988  153.3070 H   0  0  0  0  0  0  0  0  0  0  0  0
  146.4773  140.2332  155.5729 H   0  0  0  0  0  0  0  0  0  0  0  0
  146.7317  141.8173  156.2702 H   0  0  0  0  0  0  0  0  0  0  0  0
  143.1021  141.5350  155.9784 H   0  0  0  0  0  0  0  0  0  0  0  0
  144.4185  141.8520  157.1132 H   0  0  0  0  0  0  0  0  0  0  0  0
  144.2014  140.2363  156.4321 H   0  0  0  0  0  0  0  0  0  0  0  0
  143.8864  143.3179  154.5119 H   0  0  0  0  0  0  0  0  0  0  0  0
  145.1879  143.6673  155.6283 H   0  0  0  0  0  0  0  0  0  0  0  0
  145.5075  142.9277  152.6691 H   0  0  0  0  0  0  0  0  0  0  0  0
  145.7980  144.5002  153.3907 H   0  0  0  0  0  0  0  0  0  0  0  0
  1  2  1  0  0  0  0
  1 20  1  0  0  0  0
  1 21  1  0  0  0  0
  1 22  1  0  0  0  0
  2 19  1  0  0  0  0
  2  3  2  0  0  0  0
  3  4  1  0  0  0  0
  3 23  1  0  0  0  0
  4  5  2  0  0  0  0
  4 24  1  0  0  0  0
  5  6  1  0  0  0  0
  5 25  1  0  0  0  0
  6  7  1  0  0  0  0
  6 19  2  0  0  0  0
  7  8  1  0  0  0  0
  7 26  1  0  0  0  0
  8  9  2  0  0  0  0
  8 10  1  0  0  0  0
 10 11  1  0  0  0  0
 10 27  1  0  0  0  0
 11 12  1  0  0  0  0
 11 28  1  0  0  0  0
 11 29  1  0  0  0  0
 12 18  1  0  0  0  0
 12 13  1  0  0  0  0
 12 30  1  0  0  0  0
 13 14  1  0  0  0  0
 13 31  1  0  0  0  0
 13 32  1  0  0  0  0
 14 15  1  0  0  0  0
 14 16  1  0  0  0  0
 15 33  1  0  0  0  0
 15 34  1  0  0  0  0
 15 35  1  0  0  0  0
 16 17  1  0  0  0  0
 16 36  1  0  0  0  0
 16 37  1  0  0  0  0
 17 18  1  0  0  0  0
 17 38  1  0  0  0  0
 17 39  1  0  0  0  0
M  END
> <s_m_source_file>
AV-unprocessed.smi

> <i_m_source_file_index>
2302

> <i_lp_mmshare_version>
43012

> <i_f3d_flags>
0

> <s_epik_input>
W0NIM11jMVtjSF1bY0hdW2NIXWMobjEpW05IXUMoPU8pW05IXVtDSDJdW0NAQEhdMltDSDJdTihbQ0gzXSlbQ0gyXVtDSDJdTzI=

> <s_epik_cmdline>
J2VwaWtfcHl0aG9uJywgJy1waCcsICc3LjAnLCAnLXRuJywgJzgnLCAnLW1hJywgJzIwMCcsICctbWV0YWxfYmluZGluZycsICctaW1hZScsICc8aW5maWxlLm1hZT4nLCAnLW9tYWUnLCAnPG91dGZpbGUubWFlPic=

> <r_epik_Ionization_Penalty>
0.729465

> <r_epik_Ionization_Penalty_Charging>
0

> <r_epik_Ionization_Penalty_Neutral>
0.729465

> <r_epik_State_Penalty>
0.754525

> <r_epik_Charging_Adjusted_Penalty>
0.754525

> <i_epik_Tot_Q>
0

> <i_epik_Tot_abs_Q>
0

> <r_epik_Metal_State_Penalty>
0.754521

> <b_epik_Metal_Only>
0

> <s_lp_Force_Field>
OPLS_2005

> <r_lp_Energy>
21.4946

> <b_lp_Chiralities_Consistent>
1

> <s_lp_Variant>
AV-unprocessed.smi:2302-6

> <Gold.Version>
5.8.1

> <Gold.Id.Protein>
6NUR|6NUR_protein|mol2

> <Gold.PLP.Fitness>
44.2216

> <Gold.PLP.PLP>
-38.0364

> <Gold.PLP.part.hbond>
-3.0772

> <Gold.PLP.part.metal>
0.0000

> <Gold.PLP.part.buried>
-4.7631

> <Gold.PLP.part.nonpolar>
-31.9538

> <Gold.PLP.part.repulsive>
2.2772

> <Gold.PLP.ligand.clash>
0.0000

> <Gold.PLP.ligand.torsion>
0.2116

> <Gold.PLP.Chemscore.Hbond>
2.2020

> <Gold.PLP.Chemscore.CHOScore>
0.0000

> <Gold.PLP.Chemscore.Metal>
0.0000

> <Gold.Chemscore.Hbonds>
donor molecule, donor type, donor heavy atom, donor atom, acceptor molecule, acceptor atom, score
      L1  H     7    26       P1  8028  0.86
      L1  H    10    27       P1  8028  1.00
      P1  H  8022  8030       L1    18  0.27

> <Gold.PLP.Chemscore.Internal.Correction>
0.0027

> <Gold.Rescore>
     Score         DG    S(hbond)    S(metal)    S(lipo)     H(rot)  DE(clash)    DE(int)     intcor
     17.04     -18.82       1.95        0.00      85.63       1.25       0.23       1.55       ----

> <Gold.Chemscore.Fitness>
17.0415

> <Gold.Chemscore.DG>
-18.8164

> <Gold.Chemscore.ZeroCoef>
-5.4800

> <Gold.Chemscore.Hbond>
1.9519

> <Gold.Chemscore.Metal>
0.0000

> <Gold.Chemscore.Lipo>
85.6279

> <Gold.Chemscore.Internal_Hbond>
0.0000

> <Gold.Chemscore.DEClash>
0.2266

> <Gold.Chemscore.DEInternal>
1.5484

> <Gold.Chemscore.Rot>
1.2506

> <Gold.Chemscore.Internal.Correction>
   9.000000E+99

> <Gold.Chemscore.Hbonds>
donor molecule, donor type, donor heavy atom, donor atom, acceptor molecule, acceptor atom, score
      L1  H     7    26       P1  8028  0.83
      L1  H    10    27       P1  8028  0.94
      P1  H  8022  8030       L1    18  0.21

> <Gold.Chemscore.Hbond.Weighted>
-6.5195

> <Gold.Chemscore.Metal.Weighted>
-0.0000

> <Gold.Chemscore.Lipo.Weighted>
-10.0185

> <Gold.Chemscore.Internal_Hbond.Weighted>
0.0000

> <Gold.Chemscore.DEClash.Weighted>
0.2266

> <Gold.Chemscore.DEInternal.Weighted>
1.5484

> <Gold.Chemscore.Rot.Weighted>
3.2015

> <Gold.Chemscore.Internal.Correction.Weighted>
   9.000000E+99

> <Gold.Protein.RotatedTorsions>
[ 6907 6896 6895 6894 ] final   14.81 input  -60.11 | X-H torsion
[ 7974 7965 7964 7962 ] final -172.26 input  175.53 | X-H torsion
[ 8008 7997 7996 7995 ] final   55.61 input   59.86 | X-H torsion
[ 10167 10162 10161 10158 ] final  155.34 input  -65.29 | X-H torsion
[ 10718 10713 10712 10709 ] final   21.33 input   66.30 | X-H torsion
[ 10763 10752 10751 10750 ] final  154.11 input  -60.55 | X-H torsion
[ 11005 11000 10999 10996 ] final  138.61 input  -57.11 | X-H torsion

> <Gold.Protein.ActiveResidues>
 VAL166  LYS551  ARG553  GLY616  TRP617  ASP618  TYR619  PRO620  LYS621  CYS622 
 ASP623  PHE694  ASN695  SER759  ASP760  ASP761  ALA762  ILE779  LEU786  VAL792 
 PHE793  MET794  SER795  GLU796  ALA797  LYS798  CYS799  TRP800  GLU811  SER814 

> <Gold.Protein.RotatedAtoms>
  151.8081  135.0689  160.0409 H   0  0  0  0  0  0  0  0  0  0  0  0  # atno 6907 bound_to 6896
  152.3040  133.5680  159.5645 H   0  0  0  0  0  0  0  0  0  0  0  0  # atno 6908 bound_to 6896
  150.7287  134.0166  159.3729 H   0  0  0  0  0  0  0  0  0  0  0  0  # atno 6909 bound_to 6896
  144.7148  140.1799  143.6359 H   0  0  0  0  0  0  0  0  0  0  0  0  # atno 7974 bound_to 7965
  155.5040  140.3475  155.4376 H   0  0  0  0  0  0  0  0  0  0  0  0  # atno 8008 bound_to 7997
  156.0895  140.1407  156.9638 H   0  0  0  0  0  0  0  0  0  0  0  0  # atno 8009 bound_to 7997
  154.4626  140.0929  156.6912 H   0  0  0  0  0  0  0  0  0  0  0  0  # atno 8010 bound_to 7997
  139.4821  144.5107  151.8028 H   0  0  0  0  0  0  0  0  0  0  0  0  # atno 10167 bound_to 10162
  157.1370  130.6616  149.5969 H   0  0  0  0  0  0  0  0  0  0  0  0  # atno 10718 bound_to 10713
  154.1470  135.2817  155.3146 H   0  0  0  0  0  0  0  0  0  0  0  0  # atno 10763 bound_to 10752
  154.6245  135.5456  153.7615 H   0  0  0  0  0  0  0  0  0  0  0  0  # atno 10764 bound_to 10752
  153.0233  135.6447  154.1615 H   0  0  0  0  0  0  0  0  0  0  0  0  # atno 10765 bound_to 10752
  140.0195  134.9403  157.0446 H   0  0  0  0  0  0  0  0  0  0  0  0  # atno 11005 bound_to 11000
  145.8866  139.2352  143.1574 LP  0  0  0  0  0  0  0  0  0  0  0  0  # atno 17320 bound_to 7965
  145.9944  140.8575  143.0050 LP  0  0  0  0  0  0  0  0  0  0  0  0  # atno 17321 bound_to 7965
  140.4610  144.1722  150.5906 LP  0  0  0  0  0  0  0  0  0  0  0  0  # atno 17342 bound_to 10162
  140.4484  143.2497  151.9380 LP  0  0  0  0  0  0  0  0  0  0  0  0  # atno 17343 bound_to 10162
  155.9796  130.4791  150.6725 LP  0  0  0  0  0  0  0  0  0  0  0  0  # atno 17370 bound_to 10713
  157.4341  131.0853  151.1009 LP  0  0  0  0  0  0  0  0  0  0  0  0  # atno 17371 bound_to 10713
  140.4411  134.1680  155.7174 LP  0  0  0  0  0  0  0  0  0  0  0  0  # atno 17394 bound_to 11000
  141.1765  133.8503  157.1404 LP  0  0  0  0  0  0  0  0  0  0  0  0  # atno 17395 bound_to 11000

$$$$
