AV-unprocessed.smi:1080|AV-procd|sdf|4708|dock10
  -GOLD-   22720 3233D 1   1.00000     0.00000
 Structure written by MMmdl.
 49 51  0  0  0  0  0  0  0  0  2 V2000
  147.0271  136.7789  154.6856 O   0  0  0  0  0  0  0  0  0  0  0  0
  147.3973  137.4277  153.7075 C   0  0  0  0  0  0  0  0  0  0  0  0
  146.7889  137.4419  152.5085 N   0  0  0  0  0  0  0  0  0  0  0  0
  145.6414  136.7170  152.0846 C   0  0  0  0  0  0  0  0  0  0  0  0
  145.6678  136.1561  150.7881 C   0  0  0  0  0  0  0  0  0  0  0  0
  144.5605  135.4154  150.3269 C   0  0  0  0  0  0  0  0  0  0  0  0
  143.4882  135.2398  151.1283 N   0  3  0  0  0  0  0  0  0  0  0  0
  143.4216  135.7443  152.3790 C   0  0  0  0  0  0  0  0  0  0  0  0
  144.4988  136.4933  152.8951 C   0  0  0  0  0  0  0  0  0  0  0  0
  148.4670  138.2364  153.7184 N   0  0  0  0  0  0  0  0  0  0  0  0
  149.3503  138.4505  154.8610 C   0  0  2  0  0  0  0  0  0  0  0  0
  148.7060  139.4134  155.8790 C   0  0  0  0  0  0  0  0  0  0  0  0
  149.6562  139.7128  157.0498 C   0  0  0  0  0  0  0  0  0  0  0  0
  151.0035  140.2778  156.5539 C   0  0  1  0  0  0  0  0  0  0  0  0
  151.9393  140.5775  157.7458 C   0  0  0  0  0  0  0  0  0  0  0  0
  152.9676  139.9083  157.8611 O   0  0  0  0  0  0  0  0  0  0  0  0
  151.6365  141.5766  158.6132 N   0  0  0  0  0  0  0  0  0  0  0  0
  152.5897  142.0516  159.6241 C   0  0  0  0  0  0  0  0  0  0  0  0
  153.2365  143.3551  159.1241 C   0  0  0  0  0  0  0  0  0  0  0  0
  151.9906  144.6642  158.8968 S   0  0  0  0  0  0  0  0  0  0  0  0
  150.7529  143.7505  157.9227 C   0  0  0  0  0  0  0  0  0  0  0  0
  150.4239  142.4034  158.5861 C   0  0  0  0  0  0  0  0  0  0  0  0
  151.6458  139.2930  155.5505 C   0  0  0  0  0  0  0  0  0  0  0  0
  150.7024  139.0015  154.3725 C   0  0  0  0  0  0  0  0  0  0  0  0
  147.1664  138.0882  151.8311 H   0  0  0  0  0  0  0  0  0  0  0  0
  146.5265  136.2945  150.1470 H   0  0  0  0  0  0  0  0  0  0  0  0
  144.5016  134.9603  149.3491 H   0  0  0  0  0  0  0  0  0  0  0  0
  142.5169  135.5302  152.9292 H   0  0  0  0  0  0  0  0  0  0  0  0
  144.4298  136.8691  153.9043 H   0  0  0  0  0  0  0  0  0  0  0  0
  148.6949  138.7372  152.8719 H   0  0  0  0  0  0  0  0  0  0  0  0
  149.5344  137.4921  155.3508 H   0  0  0  0  0  0  0  0  0  0  0  0
  148.4357  140.3480  155.3853 H   0  0  0  0  0  0  0  0  0  0  0  0
  147.7783  138.9891  156.2647 H   0  0  0  0  0  0  0  0  0  0  0  0
  149.1774  140.4163  157.7320 H   0  0  0  0  0  0  0  0  0  0  0  0
  149.8231  138.7983  157.6213 H   0  0  0  0  0  0  0  0  0  0  0  0
  150.8238  141.1928  155.9912 H   0  0  0  0  0  0  0  0  0  0  0  0
  152.0810  142.2224  160.5740 H   0  0  0  0  0  0  0  0  0  0  0  0
  153.3651  141.3159  159.8415 H   0  0  0  0  0  0  0  0  0  0  0  0
  153.9862  143.7048  159.8339 H   0  0  0  0  0  0  0  0  0  0  0  0
  153.7491  143.1845  158.1766 H   0  0  0  0  0  0  0  0  0  0  0  0
  149.8552  144.3625  157.8358 H   0  0  0  0  0  0  0  0  0  0  0  0
  151.1354  143.5969  156.9129 H   0  0  0  0  0  0  0  0  0  0  0  0
  149.5894  141.9162  158.0841 H   0  0  0  0  0  0  0  0  0  0  0  0
  150.0670  142.5720  159.6033 H   0  0  0  0  0  0  0  0  0  0  0  0
  152.5843  139.7012  155.1729 H   0  0  0  0  0  0  0  0  0  0  0  0
  151.8939  138.3514  156.0433 H   0  0  0  0  0  0  0  0  0  0  0  0
  151.1735  138.2888  153.6947 H   0  0  0  0  0  0  0  0  0  0  0  0
  150.5463  139.9167  153.7993 H   0  0  0  0  0  0  0  0  0  0  0  0
  142.6974  134.6995  150.7762 H   0  0  0  0  0  0  0  0  0  0  0  0
  1  2  2  0  0  0  0
  2  3  1  0  0  0  0
  2 10  1  0  0  0  0
  3  4  1  0  0  0  0
  3 25  1  0  0  0  0
  4  9  1  0  0  0  0
  4  5  2  0  0  0  0
  5  6  1  0  0  0  0
  5 26  1  0  0  0  0
  6  7  2  0  0  0  0
  6 27  1  0  0  0  0
  7  8  1  0  0  0  0
  7 49  1  0  0  0  0
  8  9  2  0  0  0  0
  8 28  1  0  0  0  0
  9 29  1  0  0  0  0
 10 11  1  0  0  0  0
 10 30  1  0  0  0  0
 11 24  1  0  0  0  0
 11 12  1  0  0  0  0
 11 31  1  0  0  0  0
 12 13  1  0  0  0  0
 12 32  1  0  0  0  0
 12 33  1  0  0  0  0
 13 14  1  0  0  0  0
 13 34  1  0  0  0  0
 13 35  1  0  0  0  0
 14 15  1  0  0  0  0
 14 23  1  0  0  0  0
 14 36  1  0  0  0  0
 15 16  2  0  0  0  0
 15 17  1  0  0  0  0
 17 22  1  0  0  0  0
 17 18  1  0  0  0  0
 18 19  1  0  0  0  0
 18 37  1  0  0  0  0
 18 38  1  0  0  0  0
 19 20  1  0  0  0  0
 19 39  1  0  0  0  0
 19 40  1  0  0  0  0
 20 21  1  0  0  0  0
 21 22  1  0  0  0  0
 21 41  1  0  0  0  0
 21 42  1  0  0  0  0
 22 43  1  0  0  0  0
 22 44  1  0  0  0  0
 23 24  1  0  0  0  0
 23 45  1  0  0  0  0
 23 46  1  0  0  0  0
 24 47  1  0  0  0  0
 24 48  1  0  0  0  0
M  CHG  1   7   1
M  END
> <s_m_source_file>
AV-unprocessed.smi

> <i_m_source_file_index>
1080

> <i_lp_mmshare_version>
43012

> <i_f3d_flags>
0

> <s_epik_input>
W2NIXTFbY0hdbltjSF1bY0hdYzFbTkhdQyg9TylbTkhdW0NAQEhdMltDSDJdW0NIMl1bQ0BIXShbQ0gyXVtDSDJdMilDKD1PKU4zW0NIMl1bQ0gyXVNbQ0gyXVtDSDJdMw==

> <s_epik_cmdline>
J2VwaWtfcHl0aG9uJywgJy1waCcsICc3LjAnLCAnLXRuJywgJzgnLCAnLW1hJywgJzIwMCcsICctbWV0YWxfYmluZGluZycsICctaW1hZScsICc8aW5maWxlLm1hZT4nLCAnLW9tYWUnLCAnPG91dGZpbGUubWFlPic=

> <r_epik_Ionization_Penalty>
1.01281

> <r_epik_Ionization_Penalty_Charging>
1.01278

> <r_epik_Ionization_Penalty_Neutral>
2.07681e-05

> <r_epik_State_Penalty>
1.06237

> <r_epik_Charging_Adjusted_Penalty>
2.07515

> <i_epik_Tot_Q>
1

> <i_epik_Tot_abs_Q>
1

> <r_epik_Metal_State_Penalty>
1.16243

> <b_epik_Metal_Only>
0

> <s_lp_Force_Field>
OPLS_2005

> <r_lp_Energy>
38.1228

> <b_lp_Chiralities_Consistent>
1

> <s_lp_Variant>
AV-unprocessed.smi:1080-3

> <Gold.Version>
5.8.1

> <Gold.Id.Protein>
6NUR|6NUR_protein|mol2

> <Gold.PLP.Fitness>
46.1475

> <Gold.PLP.PLP>
-39.6944

> <Gold.PLP.part.hbond>
-4.0225

> <Gold.PLP.part.metal>
0.0000

> <Gold.PLP.part.buried>
1.6140

> <Gold.PLP.part.nonpolar>
-37.7286

> <Gold.PLP.part.repulsive>
0.1805

> <Gold.PLP.ligand.clash>
0.0000

> <Gold.PLP.ligand.torsion>
0.7459

> <Gold.PLP.Chemscore.Hbond>
2.6283

> <Gold.PLP.Chemscore.CHOScore>
0.0000

> <Gold.PLP.Chemscore.Metal>
0.0000

> <Gold.Chemscore.Hbonds>
donor molecule, donor type, donor heavy atom, donor atom, acceptor molecule, acceptor atom, score
      L1  H     7    49       P1 10186  1.27
      L1  H    10    30       P1  7957  0.26
      P1  H  7997  8010       L1    16  1.00

> <Gold.PLP.Chemscore.Internal.Correction>
0.0601

> <Gold.Rescore>
     Score         DG    S(hbond)    S(metal)    S(lipo)     H(rot)  DE(clash)    DE(int)     intcor
     18.03     -21.09       1.61        0.00     114.69       1.25       2.35       0.71       ----

> <Gold.Chemscore.Fitness>
18.0308

> <Gold.Chemscore.DG>
-21.0905

> <Gold.Chemscore.ZeroCoef>
-5.4800

> <Gold.Chemscore.Hbond>
1.6133

> <Gold.Chemscore.Metal>
0.0000

> <Gold.Chemscore.Lipo>
114.6873

> <Gold.Chemscore.Internal_Hbond>
0.0000

> <Gold.Chemscore.DEClash>
2.3472

> <Gold.Chemscore.DEInternal>
0.7124

> <Gold.Chemscore.Rot>
1.2486

> <Gold.Chemscore.Internal.Correction>
   9.000000E+99

> <Gold.Chemscore.Hbonds>
donor molecule, donor type, donor heavy atom, donor atom, acceptor molecule, acceptor atom, score
      L1  H     7    49       P1 10186  0.07
      L1  H    10    30       P1  7957  0.27
      P1  H  7997  8010       L1    16  0.98

> <Gold.Chemscore.Hbond.Weighted>
-5.3884

> <Gold.Chemscore.Metal.Weighted>
-0.0000

> <Gold.Chemscore.Lipo.Weighted>
-13.4184

> <Gold.Chemscore.Internal_Hbond.Weighted>
0.0000

> <Gold.Chemscore.DEClash.Weighted>
2.3472

> <Gold.Chemscore.DEInternal.Weighted>
0.7124

> <Gold.Chemscore.Rot.Weighted>
3.1963

> <Gold.Chemscore.Internal.Correction.Weighted>
   9.000000E+99

> <Gold.Protein.RotatedTorsions>
[ 6907 6896 6895 6894 ] final   11.46 input  -60.11 | X-H torsion
[ 7974 7965 7964 7962 ] final  -62.83 input  175.53 | X-H torsion
[ 8008 7997 7996 7995 ] final   34.13 input   59.86 | X-H torsion
[ 10167 10162 10161 10158 ] final   99.40 input  -65.29 | X-H torsion
[ 10718 10713 10712 10709 ] final -109.58 input   66.30 | X-H torsion
[ 10763 10752 10751 10750 ] final  162.27 input  -60.55 | X-H torsion
[ 11005 11000 10999 10996 ] final -102.14 input  -57.11 | X-H torsion

> <Gold.Protein.ActiveResidues>
 VAL166  LYS551  ARG553  GLY616  TRP617  ASP618  TYR619  PRO620  LYS621  CYS622 
 ASP623  PHE694  ASN695  SER759  ASP760  ASP761  ALA762  ILE779  LEU786  VAL792 
 PHE793  MET794  SER795  GLU796  ALA797  LYS798  CYS799  TRP800  GLU811  SER814 

> <Gold.Protein.RotatedAtoms>
  151.7547  135.0824  160.0335 H   0  0  0  0  0  0  0  0  0  0  0  0  # atno 6907 bound_to 6896
  152.3393  133.6044  159.5874 H   0  0  0  0  0  0  0  0  0  0  0  0  # atno 6908 bound_to 6896
  150.7470  133.9662  159.3573 H   0  0  0  0  0  0  0  0  0  0  0  0  # atno 6909 bound_to 6896
  145.7865  140.8733  143.0303 H   0  0  0  0  0  0  0  0  0  0  0  0  # atno 7974 bound_to 7965
  155.1499  140.3274  155.4433 H   0  0  0  0  0  0  0  0  0  0  0  0  # atno 8008 bound_to 7997
  156.2577  140.1979  156.6561 H   0  0  0  0  0  0  0  0  0  0  0  0  # atno 8009 bound_to 7997
  154.6481  140.0562  156.9910 H   0  0  0  0  0  0  0  0  0  0  0  0  # atno 8010 bound_to 7997
  139.7621  144.6951  151.0277 H   0  0  0  0  0  0  0  0  0  0  0  0  # atno 10167 bound_to 10162
  156.0544  130.5771  150.8119 H   0  0  0  0  0  0  0  0  0  0  0  0  # atno 10718 bound_to 10713
  154.2758  135.2764  155.2719 H   0  0  0  0  0  0  0  0  0  0  0  0  # atno 10763 bound_to 10752
  154.5262  135.5742  153.6724 H   0  0  0  0  0  0  0  0  0  0  0  0  # atno 10764 bound_to 10752
  152.9937  135.6216  154.2914 H   0  0  0  0  0  0  0  0  0  0  0  0  # atno 10765 bound_to 10752
  141.1201  133.8534  157.1322 H   0  0  0  0  0  0  0  0  0  0  0  0  # atno 11005 bound_to 11000
  144.6788  140.0062  143.7484 LP  0  0  0  0  0  0  0  0  0  0  0  0  # atno 17320 bound_to 7965
  146.0021  139.3099  143.0921 LP  0  0  0  0  0  0  0  0  0  0  0  0  # atno 17321 bound_to 7965
  140.7808  143.4685  151.0179 LP  0  0  0  0  0  0  0  0  0  0  0  0  # atno 17342 bound_to 10162
  139.8371  143.7614  152.3180 LP  0  0  0  0  0  0  0  0  0  0  0  0  # atno 17343 bound_to 10162
  157.5501  131.0943  150.9707 LP  0  0  0  0  0  0  0  0  0  0  0  0  # atno 17370 bound_to 10713
  156.9969  130.5585  149.5308 LP  0  0  0  0  0  0  0  0  0  0  0  0  # atno 17371 bound_to 10713
  140.0153  134.9970  157.0480 LP  0  0  0  0  0  0  0  0  0  0  0  0  # atno 17394 bound_to 11000
  140.4531  134.1562  155.7183 LP  0  0  0  0  0  0  0  0  0  0  0  0  # atno 17395 bound_to 11000

$$$$
