AV-unprocessed.smi:265|AV-procd|sdf|2025|dock6
  -GOLD-   2262021233D 1   1.00000     0.00000
 Structure written by MMmdl.
 52 56  0  0  0  0  0  0  0  0  1 V2000
  144.0970  135.8377  162.1448 C   0  0  0  0  0  0  0  0  0  0  0  0
  145.3255  134.9970  161.7610 C   0  0  2  0  0  0  0  0  0  0  0  0
  145.7251  134.1706  162.8449 O   0  0  0  0  0  0  0  0  0  0  0  0
  147.0464  133.7407  162.5723 C   0  0  0  0  0  0  0  0  0  0  0  0
  147.7214  135.0176  162.0865 C   0  0  0  0  0  0  0  0  0  0  0  0
  146.6084  135.7665  161.3466 C   0  0  2  0  0  0  0  0  0  0  0  0
  146.5932  137.1058  161.8139 O   0  0  0  0  0  0  0  0  0  0  0  0
  146.8400  135.7896  159.8155 C   0  0  0  0  0  0  0  0  0  0  0  0
  147.7045  136.8745  159.3750 N   0  0  0  0  0  0  0  0  0  0  0  0
  149.0413  137.0337  159.6638 C   0  0  0  0  0  0  0  0  0  0  0  0
  149.5973  138.1002  159.1582 N   0  0  0  0  0  0  0  0  0  0  0  0
  148.5708  138.7172  158.4535 C   0  0  0  0  0  0  0  0  0  0  0  0
  148.4772  139.9071  157.6773 C   0  0  0  0  0  0  0  0  0  0  0  0
  149.5371  140.7278  157.4647 N   0  0  0  0  0  0  0  0  0  0  0  0
  150.8774  140.1569  157.5956 C   0  0  0  0  0  0  0  0  0  0  0  0
  151.9243  141.0729  156.9436 C   0  0  0  0  0  0  0  0  0  0  0  0
  151.8385  142.5120  157.4779 C   0  0  2  0  0  0  0  0  0  0  0  0
  152.2455  142.5574  158.8394 O   0  0  0  0  0  0  0  0  0  0  0  0
  152.3677  143.8822  159.3603 C   0  0  0  0  0  0  0  0  0  0  0  0
  151.1311  144.7483  159.0558 C   0  0  0  0  0  0  0  0  0  0  0  0
  150.9509  145.7969  159.6702 O   0  0  0  0  0  0  0  0  0  0  0  0
  150.2984  144.3431  158.0836 N   0  0  0  0  0  0  0  0  0  0  0  0
  150.3950  143.0556  157.4040 C   0  0  2  0  0  0  0  0  0  0  0  0
  149.3859  142.0690  158.0253 C   0  0  0  0  0  0  0  0  0  0  0  0
  147.2654  140.2075  157.1376 N   0  0  0  0  0  0  0  0  0  0  0  0
  146.2201  139.3987  157.3327 C   0  0  0  0  0  0  0  0  0  0  0  0
  146.1646  138.2596  158.0249 N   0  0  0  0  0  0  0  0  0  0  0  0
  147.3736  137.9573  158.5784 C   0  0  0  0  0  0  0  0  0  0  0  0
  152.5097  143.1414  156.8901 H   0  0  0  0  0  0  0  0  0  0  0  0
  150.1312  143.2087  156.3566 H   0  0  0  0  0  0  0  0  0  0  0  0
  143.7881  136.4821  161.3214 H   0  0  0  0  0  0  0  0  0  0  0  0
  144.2963  136.4681  163.0116 H   0  0  0  0  0  0  0  0  0  0  0  0
  143.2533  135.1945  162.3949 H   0  0  0  0  0  0  0  0  0  0  0  0
  145.0393  134.3155  160.9593 H   0  0  0  0  0  0  0  0  0  0  0  0
  147.5252  133.3201  163.4568 H   0  0  0  0  0  0  0  0  0  0  0  0
  147.0342  132.9805  161.7894 H   0  0  0  0  0  0  0  0  0  0  0  0
  148.0655  135.5826  162.9547 H   0  0  0  0  0  0  0  0  0  0  0  0
  148.5952  134.8117  161.4670 H   0  0  0  0  0  0  0  0  0  0  0  0
  146.5114  137.0948  162.7551 H   0  0  0  0  0  0  0  0  0  0  0  0
  147.2772  134.8476  159.4817 H   0  0  0  0  0  0  0  0  0  0  0  0
  145.8854  135.8805  159.2954 H   0  0  0  0  0  0  0  0  0  0  0  0
  149.5933  136.3338  160.2742 H   0  0  0  0  0  0  0  0  0  0  0  0
  151.1088  140.0181  158.6528 H   0  0  0  0  0  0  0  0  0  0  0  0
  150.9162  139.1737  157.1246 H   0  0  0  0  0  0  0  0  0  0  0  0
  152.9255  140.6718  157.1021 H   0  0  0  0  0  0  0  0  0  0  0  0
  151.7636  141.0832  155.8649 H   0  0  0  0  0  0  0  0  0  0  0  0
  152.5237  143.8266  160.4380 H   0  0  0  0  0  0  0  0  0  0  0  0
  153.2482  144.3611  158.9304 H   0  0  0  0  0  0  0  0  0  0  0  0
  149.5064  144.9270  157.8576 H   0  0  0  0  0  0  0  0  0  0  0  0
  148.3751  142.4497  157.8815 H   0  0  0  0  0  0  0  0  0  0  0  0
  149.5404  142.0059  159.1036 H   0  0  0  0  0  0  0  0  0  0  0  0
  145.2960  139.7088  156.8673 H   0  0  0  0  0  0  0  0  0  0  0  0
  1  2  1  0  0  0  0
  1 31  1  0  0  0  0
  1 32  1  0  0  0  0
  1 33  1  0  0  0  0
  2  6  1  0  0  0  0
  2  3  1  0  0  0  0
  2 34  1  0  0  0  0
  3  4  1  0  0  0  0
  4  5  1  0  0  0  0
  4 35  1  0  0  0  0
  4 36  1  0  0  0  0
  5  6  1  0  0  0  0
  5 37  1  0  0  0  0
  5 38  1  0  0  0  0
  6  7  1  0  0  0  0
  6  8  1  0  0  0  0
  7 39  1  0  0  0  0
  8  9  1  0  0  0  0
  8 40  1  0  0  0  0
  8 41  1  0  0  0  0
  9 28  1  0  0  0  0
  9 10  1  0  0  0  0
 10 11  2  0  0  0  0
 10 42  1  0  0  0  0
 11 12  1  0  0  0  0
 12 28  2  0  0  0  0
 12 13  1  0  0  0  0
 13 14  1  0  0  0  0
 13 25  2  0  0  0  0
 14 24  1  0  0  0  0
 14 15  1  0  0  0  0
 15 16  1  0  0  0  0
 15 43  1  0  0  0  0
 15 44  1  0  0  0  0
 16 17  1  0  0  0  0
 16 45  1  0  0  0  0
 16 46  1  0  0  0  0
 17 29  1  0  0  0  0
 17 23  1  0  0  0  0
 17 18  1  0  0  0  0
 18 19  1  0  0  0  0
 19 20  1  0  0  0  0
 19 47  1  0  0  0  0
 19 48  1  0  0  0  0
 20 21  2  0  0  0  0
 20 22  1  0  0  0  0
 22 23  1  0  0  0  0
 22 49  1  0  0  0  0
 23 30  1  0  0  0  0
 23 24  1  0  0  0  0
 24 50  1  0  0  0  0
 24 51  1  0  0  0  0
 25 26  1  0  0  0  0
 26 27  2  0  0  0  0
 26 52  1  0  0  0  0
 27 28  1  0  0  0  0
M  END
> <s_m_source_file>
AV-unprocessed.smi

> <i_m_source_file_index>
265

> <i_lp_mmshare_version>
43012

> <i_f3d_flags>
0

> <s_epik_input>
W0NIMl0xW0NIMl1PW0NAQEhdKFtDSDNdKVtDQEBdMShbT0hdKVtDSDJdbihbY0hdbjIpYyhjMjMpbltjSF1uYzNOKFtDSDJdW0NIMl00KVtDSDJdW0NAQEhdKFtDQEhdNDUpW05IXUMoPU8pW0NIMl1PNQ==

> <s_epik_cmdline>
J2VwaWtfcHl0aG9uJywgJy1waCcsICc3LjAnLCAnLXRuJywgJzgnLCAnLW1hJywgJzIwMCcsICctbWV0YWxfYmluZGluZycsICctaW1hZScsICc8aW5maWxlLm1hZT4nLCAnLW9tYWUnLCAnPG91dGZpbGUubWFlPic=

> <r_lp_tautomer_probability>
1

> <r_epik_Ionization_Penalty>
0.00221504

> <r_epik_Ionization_Penalty_Charging>
0

> <r_epik_Ionization_Penalty_Neutral>
0.00221504

> <r_epik_State_Penalty>
-0

> <r_epik_Charging_Adjusted_Penalty>
0

> <i_epik_Tot_Q>
0

> <i_epik_Tot_abs_Q>
0

> <r_epik_Metal_State_Penalty>
-0

> <b_epik_Metal_Only>
0

> <s_lp_Force_Field>
OPLS_2005

> <r_lp_Energy>
44.0403

> <b_lp_Chiralities_Consistent>
1

> <s_lp_Variant>
AV-unprocessed.smi:265-11

> <Gold.Version>
5.8.1

> <Gold.Id.Protein>
6NUR|6NUR_protein|mol2

> <Gold.PLP.Fitness>
34.1468

> <Gold.PLP.PLP>
-31.3841

> <Gold.PLP.part.hbond>
-5.8805

> <Gold.PLP.part.metal>
0.0000

> <Gold.PLP.part.buried>
-1.9400

> <Gold.PLP.part.nonpolar>
-24.0108

> <Gold.PLP.part.repulsive>
0.3665

> <Gold.PLP.ligand.clash>
0.0000

> <Gold.PLP.ligand.torsion>
0.7680

> <Gold.PLP.Chemscore.Hbond>
1.3116

> <Gold.PLP.Chemscore.CHOScore>
0.0000

> <Gold.PLP.Chemscore.Metal>
0.0000

> <Gold.Chemscore.Hbonds>
donor molecule, donor type, donor heavy atom, donor atom, acceptor molecule, acceptor atom, score
      L1  H    22    49       P1  8029  0.60
      P1  H  6934  6947       L1     7  0.60

> <Gold.PLP.Chemscore.Internal.Correction>
0.3639

> <Gold.Rescore>
     Score         DG    S(hbond)    S(metal)    S(lipo)     H(rot)  DE(clash)    DE(int)     intcor
      7.23     -12.07       0.74        0.00      84.36       2.25       2.80       2.04       ----

> <Gold.Chemscore.Fitness>
7.2261

> <Gold.Chemscore.DG>
-12.0670

> <Gold.Chemscore.ZeroCoef>
-5.4800

> <Gold.Chemscore.Hbond>
0.7381

> <Gold.Chemscore.Metal>
0.0000

> <Gold.Chemscore.Lipo>
84.3566

> <Gold.Chemscore.Internal_Hbond>
0.0000

> <Gold.Chemscore.DEClash>
2.8003

> <Gold.Chemscore.DEInternal>
2.0406

> <Gold.Chemscore.Rot>
2.2453

> <Gold.Chemscore.Internal.Correction>
   9.000000E+99

> <Gold.Chemscore.Hbonds>
donor molecule, donor type, donor heavy atom, donor atom, acceptor molecule, acceptor atom, score
      L1  H    22    49       P1  8029  0.04
      P1  H  6934  6947       L1     7  0.53

> <Gold.Chemscore.Hbond.Weighted>
-2.4652

> <Gold.Chemscore.Metal.Weighted>
-0.0000

> <Gold.Chemscore.Lipo.Weighted>
-9.8697

> <Gold.Chemscore.Internal_Hbond.Weighted>
0.0000

> <Gold.Chemscore.DEClash.Weighted>
2.8003

> <Gold.Chemscore.DEInternal.Weighted>
2.0406

> <Gold.Chemscore.Rot.Weighted>
5.7479

> <Gold.Chemscore.Internal.Correction.Weighted>
   9.000000E+99

> <Gold.Protein.RotatedTorsions>
[ 6907 6896 6895 6894 ] final  -37.45 input  -60.11 | X-H torsion
[ 7974 7965 7964 7962 ] final -125.05 input  175.53 | X-H torsion
[ 8008 7997 7996 7995 ] final -114.39 input   59.86 | X-H torsion
[ 10167 10162 10161 10158 ] final -114.51 input  -65.29 | X-H torsion
[ 10718 10713 10712 10709 ] final -105.01 input   66.30 | X-H torsion
[ 10763 10752 10751 10750 ] final   27.89 input  -60.55 | X-H torsion
[ 11005 11000 10999 10996 ] final  -39.21 input  -57.11 | X-H torsion

> <Gold.Protein.ActiveResidues>
 VAL166  LYS551  ARG553  GLY616  TRP617  ASP618  TYR619  PRO620  LYS621  CYS622 
 ASP623  PHE694  ASN695  SER759  ASP760  ASP761  ALA762  ILE779  LEU786  VAL792 
 PHE793  MET794  SER795  GLU796  ALA797  LYS798  CYS799  TRP800  GLU811  SER814 

> <Gold.Protein.RotatedAtoms>
  151.0146  134.9423  159.8025 H   0  0  0  0  0  0  0  0  0  0  0  0  # atno 6907 bound_to 6896
  152.5311  134.2983  159.9079 H   0  0  0  0  0  0  0  0  0  0  0  0  # atno 6908 bound_to 6896
  151.2990  133.4089  159.2672 H   0  0  0  0  0  0  0  0  0  0  0  0  # atno 6909 bound_to 6896
  145.0016  140.7826  143.4492 H   0  0  0  0  0  0  0  0  0  0  0  0  # atno 7974 bound_to 7965
  155.0356  140.0392  157.2490 H   0  0  0  0  0  0  0  0  0  0  0  0  # atno 8008 bound_to 7997
  154.7260  140.2721  155.6475 H   0  0  0  0  0  0  0  0  0  0  0  0  # atno 8009 bound_to 7997
  156.2829  140.2693  156.1946 H   0  0  0  0  0  0  0  0  0  0  0  0  # atno 8010 bound_to 7997
  140.1002  143.4620  152.1817 H   0  0  0  0  0  0  0  0  0  0  0  0  # atno 10167 bound_to 10162
  156.0328  130.5543  150.7478 H   0  0  0  0  0  0  0  0  0  0  0  0  # atno 10718 bound_to 10713
  153.0526  135.6526  154.0655 H   0  0  0  0  0  0  0  0  0  0  0  0  # atno 10763 bound_to 10752
  154.0340  135.2909  155.3366 H   0  0  0  0  0  0  0  0  0  0  0  0  # atno 10764 bound_to 10752
  154.6824  135.5315  153.8347 H   0  0  0  0  0  0  0  0  0  0  0  0  # atno 10765 bound_to 10752
  141.0085  133.6920  156.2156 H   0  0  0  0  0  0  0  0  0  0  0  0  # atno 11005 bound_to 11000
  145.2145  139.2189  143.5125 LP  0  0  0  0  0  0  0  0  0  0  0  0  # atno 17320 bound_to 7965
  146.3453  140.1990  142.8589 LP  0  0  0  0  0  0  0  0  0  0  0  0  # atno 17321 bound_to 7965
  139.5676  144.7444  151.3980 LP  0  0  0  0  0  0  0  0  0  0  0  0  # atno 17342 bound_to 10162
  140.6982  143.7697  150.7360 LP  0  0  0  0  0  0  0  0  0  0  0  0  # atno 17343 bound_to 10162
  157.5030  131.0920  151.0291 LP  0  0  0  0  0  0  0  0  0  0  0  0  # atno 17370 bound_to 10713
  157.0667  130.5847  149.5395 LP  0  0  0  0  0  0  0  0  0  0  0  0  # atno 17371 bound_to 10713
  140.6773  134.4804  157.5588 LP  0  0  0  0  0  0  0  0  0  0  0  0  # atno 17394 bound_to 11000
  139.9076  134.8414  156.1646 LP  0  0  0  0  0  0  0  0  0  0  0  0  # atno 17395 bound_to 11000

$$$$
