AV-unprocessed.smi:2870|AV-procd|sdf|11029|dock2
  -GOLD-   2272015493D 1   1.00000     0.00000
 Structure written by MMmdl.
 40 42  0  0  0  0  0  0  0  0  1 V2000
  151.4163  146.1130  160.0813 N   0  0  0  0  0  0  0  0  0  0  0  0
  151.7037  145.0290  159.7949 C   0  0  0  0  0  0  0  0  0  0  0  0
  152.0345  143.6938  159.4208 C   0  0  0  0  0  0  0  0  0  0  0  0
  153.0540  143.0259  159.9986 C   0  0  0  0  0  0  0  0  0  0  0  0
  153.3783  141.7307  159.6591 N   0  0  0  0  0  0  0  0  0  0  0  0
  154.5509  141.0910  160.1859 C   0  0  0  0  0  0  0  0  0  0  0  0
  154.4606  139.7120  160.8106 C   0  0  0  0  0  0  0  0  0  0  0  0
  154.6821  140.9226  161.6839 C   0  0  0  0  0  0  0  0  0  0  0  0
  152.6905  141.0775  158.6131 C   0  0  0  0  0  0  0  0  0  0  0  0
  153.0196  139.9487  158.2398 O   0  0  0  0  0  0  0  0  0  0  0  0
  151.6106  141.7601  158.0021 N   0  0  0  0  0  0  0  0  0  0  0  0
  150.8396  141.0635  156.9488 C   0  0  0  0  0  0  0  0  0  0  0  0
  149.3228  141.0707  157.1946 C   0  0  0  0  0  0  0  0  0  0  0  0
  148.8500  141.5062  158.2456 O   0  0  0  0  0  0  0  0  0  0  0  0
  148.5683  140.5890  156.1973 N   0  0  0  0  0  0  0  0  0  0  0  0
  147.1138  140.5251  156.2170 C   0  0  0  0  0  0  0  0  0  0  0  0
  146.5953  139.8356  154.9608 C   0  0  0  0  0  0  0  0  0  0  0  0
  147.1513  138.4620  154.5542 C   0  0  0  0  0  0  0  0  0  0  0  0
  147.0073  138.8882  153.0908 C   0  0  0  0  0  0  0  0  0  0  0  0
  147.0408  140.3389  153.5798 C   0  0  0  0  0  0  0  0  0  0  0  0
  151.2231  143.0724  158.3766 C   0  0  0  0  0  0  0  0  0  0  0  0
  150.2624  143.6282  157.8414 O   0  0  0  0  0  0  0  0  0  0  0  0
  153.6351  143.5199  160.7641 H   0  0  0  0  0  0  0  0  0  0  0  0
  155.4745  141.3077  159.6519 H   0  0  0  0  0  0  0  0  0  0  0  0
  153.4851  139.2328  160.8667 H   0  0  0  0  0  0  0  0  0  0  0  0
  155.3016  139.0384  160.6603 H   0  0  0  0  0  0  0  0  0  0  0  0
  155.6707  141.0550  162.1184 H   0  0  0  0  0  0  0  0  0  0  0  0
  153.8516  141.2413  162.3110 H   0  0  0  0  0  0  0  0  0  0  0  0
  151.0272  141.5007  155.9670 H   0  0  0  0  0  0  0  0  0  0  0  0
  151.1735  140.0299  156.8432 H   0  0  0  0  0  0  0  0  0  0  0  0
  149.0316  140.2527  155.3656 H   0  0  0  0  0  0  0  0  0  0  0  0
  146.7797  139.9872  157.1057 H   0  0  0  0  0  0  0  0  0  0  0  0
  146.7160  141.5383  156.2917 H   0  0  0  0  0  0  0  0  0  0  0  0
  145.5044  139.7804  154.9735 H   0  0  0  0  0  0  0  0  0  0  0  0
  148.1918  138.3203  154.8515 H   0  0  0  0  0  0  0  0  0  0  0  0
  146.5306  137.6151  154.8478 H   0  0  0  0  0  0  0  0  0  0  0  0
  147.8396  138.6022  152.4470 H   0  0  0  0  0  0  0  0  0  0  0  0
  146.0445  138.6082  152.6606 H   0  0  0  0  0  0  0  0  0  0  0  0
  146.3319  141.0046  153.0865 H   0  0  0  0  0  0  0  0  0  0  0  0
  148.0489  140.7573  153.5847 H   0  0  0  0  0  0  0  0  0  0  0  0
  1  2  3  0  0  0  0
  2  3  1  0  0  0  0
  3 21  1  0  0  0  0
  3  4  2  0  0  0  0
  4  5  1  0  0  0  0
  4 23  1  0  0  0  0
  5  6  1  0  0  0  0
  5  9  1  0  0  0  0
  6  8  1  0  0  0  0
  6  7  1  0  0  0  0
  6 24  1  0  0  0  0
  7  8  1  0  0  0  0
  7 25  1  0  0  0  0
  7 26  1  0  0  0  0
  8 27  1  0  0  0  0
  8 28  1  0  0  0  0
  9 10  2  0  0  0  0
  9 11  1  0  0  0  0
 11 12  1  0  0  0  0
 11 21  1  0  0  0  0
 12 13  1  0  0  0  0
 12 29  1  0  0  0  0
 12 30  1  0  0  0  0
 13 14  2  0  0  0  0
 13 15  1  0  0  0  0
 15 16  1  0  0  0  0
 15 31  1  0  0  0  0
 16 17  1  0  0  0  0
 16 32  1  0  0  0  0
 16 33  1  0  0  0  0
 17 20  1  0  0  0  0
 17 18  1  0  0  0  0
 17 34  1  0  0  0  0
 18 19  1  0  0  0  0
 18 35  1  0  0  0  0
 18 36  1  0  0  0  0
 19 20  1  0  0  0  0
 19 37  1  0  0  0  0
 19 38  1  0  0  0  0
 20 39  1  0  0  0  0
 20 40  1  0  0  0  0
 21 22  2  0  0  0  0
M  END
> <s_m_source_file>
AV-unprocessed.smi

> <i_m_source_file_index>
2870

> <i_lp_mmshare_version>
43012

> <i_f3d_flags>
0

> <s_epik_input>
TiNDYzFbY0hdbihbQ0hdMltDSDJdW0NIMl0yKWMoPU8pbihjMT1PKVtDSDJdQyg9TylbTkhdW0NIMl1bQ0hdM1tDSDJdW0NIMl1bQ0gyXTM=

> <s_epik_cmdline>
J2VwaWtfcHl0aG9uJywgJy1waCcsICc3LjAnLCAnLXRuJywgJzgnLCAnLW1hJywgJzIwMCcsICctbWV0YWxfYmluZGluZycsICctaW1hZScsICc8aW5maWxlLm1hZT4nLCAnLW9tYWUnLCAnPG91dGZpbGUubWFlPic=

> <r_lp_tautomer_probability>
1

> <r_epik_Ionization_Penalty>
1.93838e-08

> <r_epik_Ionization_Penalty_Charging>
8.20545e-11

> <r_epik_Ionization_Penalty_Neutral>
1.93017e-08

> <r_epik_State_Penalty>
-0

> <r_epik_Charging_Adjusted_Penalty>
8.20545e-11

> <i_epik_Tot_Q>
0

> <i_epik_Tot_abs_Q>
0

> <r_epik_Metal_State_Penalty>
-0

> <b_epik_Metal_Only>
0

> <s_lp_Force_Field>
OPLS_2005

> <r_lp_Energy>
38.3845

> <b_lp_Chiralities_Consistent>
1

> <s_lp_Variant>
AV-unprocessed.smi:2870-1

> <Gold.Version>
5.8.1

> <Gold.Id.Protein>
6NUR|6NUR_protein|mol2

> <Gold.PLP.Fitness>
43.5442

> <Gold.PLP.PLP>
-40.7631

> <Gold.PLP.part.hbond>
-2.9075

> <Gold.PLP.part.metal>
0.0000

> <Gold.PLP.part.buried>
-4.5924

> <Gold.PLP.part.nonpolar>
-35.4046

> <Gold.PLP.part.repulsive>
2.6536

> <Gold.PLP.ligand.clash>
0.0000

> <Gold.PLP.ligand.torsion>
0.2517

> <Gold.PLP.Chemscore.Hbond>
1.0000

> <Gold.PLP.Chemscore.CHOScore>
0.0000

> <Gold.PLP.Chemscore.Metal>
0.0000

> <Gold.Chemscore.Hbonds>
donor molecule, donor type, donor heavy atom, donor atom, acceptor molecule, acceptor atom, score
      P1  H  7997  8008       L1    10  1.00

> <Gold.PLP.Chemscore.Internal.Correction>
0.2846

> <Gold.Rescore>
     Score         DG    S(hbond)    S(metal)    S(lipo)     H(rot)  DE(clash)    DE(int)     intcor
      7.42     -11.84       0.75        0.00      76.28       1.98       0.68       3.74       ----

> <Gold.Chemscore.Fitness>
7.4168

> <Gold.Chemscore.DG>
-11.8375

> <Gold.Chemscore.ZeroCoef>
-5.4800

> <Gold.Chemscore.Hbond>
0.7482

> <Gold.Chemscore.Metal>
0.0000

> <Gold.Chemscore.Lipo>
76.2822

> <Gold.Chemscore.Internal_Hbond>
0.0000

> <Gold.Chemscore.DEClash>
0.6815

> <Gold.Chemscore.DEInternal>
3.7393

> <Gold.Chemscore.Rot>
1.9791

> <Gold.Chemscore.Internal.Correction>
   9.000000E+99

> <Gold.Chemscore.Hbonds>
donor molecule, donor type, donor heavy atom, donor atom, acceptor molecule, acceptor atom, score
      P1  H  7997  8008       L1    10  0.69

> <Gold.Chemscore.Hbond.Weighted>
-2.4990

> <Gold.Chemscore.Metal.Weighted>
-0.0000

> <Gold.Chemscore.Lipo.Weighted>
-8.9250

> <Gold.Chemscore.Internal_Hbond.Weighted>
0.0000

> <Gold.Chemscore.DEClash.Weighted>
0.6815

> <Gold.Chemscore.DEInternal.Weighted>
3.7393

> <Gold.Chemscore.Rot.Weighted>
5.0665

> <Gold.Chemscore.Internal.Correction.Weighted>
   9.000000E+99

> <Gold.Protein.RotatedTorsions>
[ 6907 6896 6895 6894 ] final  149.55 input  -60.11 | X-H torsion
[ 7974 7965 7964 7962 ] final  -64.14 input  175.53 | X-H torsion
[ 8008 7997 7996 7995 ] final  -92.76 input   59.86 | X-H torsion
[ 10167 10162 10161 10158 ] final   95.03 input  -65.29 | X-H torsion
[ 10718 10713 10712 10709 ] final -150.23 input   66.30 | X-H torsion
[ 10763 10752 10751 10750 ] final  -41.29 input  -60.55 | X-H torsion
[ 11005 11000 10999 10996 ] final  102.01 input  -57.11 | X-H torsion

> <Gold.Protein.ActiveResidues>
 VAL166  LYS551  ARG553  GLY616  TRP617  ASP618  TYR619  PRO620  LYS621  CYS622 
 ASP623  PHE694  ASN695  SER759  ASP760  ASP761  ALA762  ILE779  LEU786  VAL792 
 PHE793  MET794  SER795  GLU796  ALA797  LYS798  CYS799  TRP800  GLU811  SER814 

> <Gold.Protein.RotatedAtoms>
  152.1265  133.4383  159.4700 H   0  0  0  0  0  0  0  0  0  0  0  0  # atno 6907 bound_to 6896
  150.6875  134.2472  159.4505 H   0  0  0  0  0  0  0  0  0  0  0  0  # atno 6908 bound_to 6896
  152.0353  134.9743  160.0624 H   0  0  0  0  0  0  0  0  0  0  0  0  # atno 6909 bound_to 6896
  145.7704  140.8815  143.0383 H   0  0  0  0  0  0  0  0  0  0  0  0  # atno 7974 bound_to 7965
  154.7271  140.0505  157.0693 H   0  0  0  0  0  0  0  0  0  0  0  0  # atno 8008 bound_to 7997
  155.0350  140.3162  155.4725 H   0  0  0  0  0  0  0  0  0  0  0  0  # atno 8009 bound_to 7997
  156.2832  140.2143  156.5472 H   0  0  0  0  0  0  0  0  0  0  0  0  # atno 8010 bound_to 7997
  139.8027  144.6807  150.9744 H   0  0  0  0  0  0  0  0  0  0  0  0  # atno 10167 bound_to 10162
  156.4434  130.8133  151.2363 H   0  0  0  0  0  0  0  0  0  0  0  0  # atno 10718 bound_to 10713
  153.9601  135.6740  153.4745 H   0  0  0  0  0  0  0  0  0  0  0  0  # atno 10763 bound_to 10752
  153.0842  135.4907  154.8561 H   0  0  0  0  0  0  0  0  0  0  0  0  # atno 10764 bound_to 10752
  154.7277  135.3131  154.8903 H   0  0  0  0  0  0  0  0  0  0  0  0  # atno 10765 bound_to 10752
  139.8775  134.9206  156.4993 H   0  0  0  0  0  0  0  0  0  0  0  0  # atno 11005 bound_to 11000
  144.6813  139.9848  143.7484 LP  0  0  0  0  0  0  0  0  0  0  0  0  # atno 17320 bound_to 7965
  146.0175  139.3222  143.0833 LP  0  0  0  0  0  0  0  0  0  0  0  0  # atno 17321 bound_to 7965
  140.7820  143.4265  151.0760 LP  0  0  0  0  0  0  0  0  0  0  0  0  # atno 17342 bound_to 10162
  139.7936  143.8183  152.3155 LP  0  0  0  0  0  0  0  0  0  0  0  0  # atno 17343 bound_to 10162
  157.7505  131.0161  150.3530 LP  0  0  0  0  0  0  0  0  0  0  0  0  # atno 17370 bound_to 10713
  156.3893  130.3895  149.7042 LP  0  0  0  0  0  0  0  0  0  0  0  0  # atno 17371 bound_to 10713
  140.8601  133.8066  155.9256 LP  0  0  0  0  0  0  0  0  0  0  0  0  # atno 17394 bound_to 11000
  140.9058  134.2322  157.5015 LP  0  0  0  0  0  0  0  0  0  0  0  0  # atno 17395 bound_to 11000

$$$$
