AV-unprocessed.smi:2451|AV-procd|sdf|9683|dock8
  -GOLD-   2272013323D 1   1.00000     0.00000
 Structure written by MMmdl.
 37 38  0  0  0  0  0  0  0  0  2 V2000
  152.7012  143.6668  162.2179 C   0  0  0  0  0  0  0  0  0  0  0  0
  152.5451  142.4827  161.2475 C   0  0  2  0  0  0  0  0  0  0  0  0
  153.8705  141.6921  161.1083 C   0  0  0  0  0  0  0  0  0  0  0  0
  153.6626  140.4706  160.1865 C   0  0  0  0  0  0  0  0  0  0  0  0
  153.0223  140.8330  158.8225 C   0  0  0  0  0  0  0  0  0  0  0  0
  151.6992  141.6261  158.9685 C   0  0  2  0  0  0  0  0  0  0  0  0
  151.1537  141.9842  157.6663 N   0  5  0  0  0  0  0  0  0  0  0  0
  149.9432  141.1138  157.0262 S   0  0  0  0  0  0  0  0  0  0  0  0
  150.2460  139.6746  156.9540 O   0  0  0  0  0  0  0  0  0  0  0  0
  148.6368  141.4976  157.5852 O   0  0  0  0  0  0  0  0  0  0  0  0
  149.9508  141.7393  155.2880 C   0  0  0  0  0  0  0  0  0  0  0  0
  148.8518  141.0953  154.4859 C   0  0  0  0  0  0  0  0  0  0  0  0
  147.7740  141.7186  153.7966 C   0  0  0  0  0  0  0  0  0  0  0  0
  147.0947  140.6698  153.2485 C   0  0  0  0  0  0  0  0  0  0  0  0
  147.6889  139.4953  153.5773 O   0  0  0  0  0  0  0  0  0  0  0  0
  148.8073  139.7767  154.3702 N   0  0  0  0  0  0  0  0  0  0  0  0
  151.9414  142.8900  159.8590 C   0  0  2  0  0  0  0  0  0  0  0  0
  152.7760  144.0024  159.1645 C   0  0  0  0  0  0  0  0  0  0  0  0
  153.4906  144.3498  161.9046 H   0  0  0  0  0  0  0  0  0  0  0  0
  152.9576  143.3156  163.2178 H   0  0  0  0  0  0  0  0  0  0  0  0
  151.7739  144.2344  162.2981 H   0  0  0  0  0  0  0  0  0  0  0  0
  151.8310  141.8156  161.7377 H   0  0  0  0  0  0  0  0  0  0  0  0
  154.6526  142.3334  160.7011 H   0  0  0  0  0  0  0  0  0  0  0  0
  154.2209  141.3610  162.0863 H   0  0  0  0  0  0  0  0  0  0  0  0
  154.6207  139.9785  160.0170 H   0  0  0  0  0  0  0  0  0  0  0  0
  153.0417  139.7347  160.7016 H   0  0  0  0  0  0  0  0  0  0  0  0
  153.7375  141.4091  158.2343 H   0  0  0  0  0  0  0  0  0  0  0  0
  152.8467  139.9150  158.2614 H   0  0  0  0  0  0  0  0  0  0  0  0
  150.9988  140.9895  159.5114 H   0  0  0  0  0  0  0  0  0  0  0  0
  149.8133  142.8199  155.3307 H   0  0  0  0  0  0  0  0  0  0  0  0
  150.9315  141.5533  154.8513 H   0  0  0  0  0  0  0  0  0  0  0  0
  147.5447  142.7704  153.7107 H   0  0  0  0  0  0  0  0  0  0  0  0
  146.2114  140.5993  152.6312 H   0  0  0  0  0  0  0  0  0  0  0  0
  150.9601  143.3249  160.0552 H   0  0  0  0  0  0  0  0  0  0  0  0
  153.7997  143.6911  158.9540 H   0  0  0  0  0  0  0  0  0  0  0  0
  152.8340  144.8956  159.7849 H   0  0  0  0  0  0  0  0  0  0  0  0
  152.3344  144.3329  158.2229 H   0  0  0  0  0  0  0  0  0  0  0  0
  1  2  1  0  0  0  0
  1 19  1  0  0  0  0
  1 20  1  0  0  0  0
  1 21  1  0  0  0  0
  2 17  1  0  0  0  0
  2  3  1  0  0  0  0
  2 22  1  0  0  0  0
  3  4  1  0  0  0  0
  3 23  1  0  0  0  0
  3 24  1  0  0  0  0
  4  5  1  0  0  0  0
  4 25  1  0  0  0  0
  4 26  1  0  0  0  0
  5  6  1  0  0  0  0
  5 27  1  0  0  0  0
  5 28  1  0  0  0  0
  6  7  1  0  0  0  0
  6 17  1  0  0  0  0
  6 29  1  0  0  0  0
  7  8  1  0  0  0  0
  8  9  2  0  0  0  0
  8 10  2  0  0  0  0
  8 11  1  0  0  0  0
 11 12  1  0  0  0  0
 11 30  1  0  0  0  0
 11 31  1  0  0  0  0
 12 16  2  0  0  0  0
 12 13  1  0  0  0  0
 13 14  2  0  0  0  0
 13 32  1  0  0  0  0
 14 15  1  0  0  0  0
 14 33  1  0  0  0  0
 15 16  1  0  0  0  0
 17 18  1  0  0  0  0
 17 34  1  0  0  0  0
 18 35  1  0  0  0  0
 18 36  1  0  0  0  0
 18 37  1  0  0  0  0
M  CHG  1   7  -1
M  END
> <s_m_source_file>
AV-unprocessed.smi

> <i_m_source_file_index>
2451

> <i_lp_mmshare_version>
43012

> <i_f3d_flags>
0

> <s_epik_input>
W0NIM11bQ0BASF0xW0NIMl1bQ0gyXVtDSDJdW0NASF0oW0NASF0xW0NIM10pW05IXVMoPU8pKD1PKVtDSDJdYzJbY0hdW2NIXW9uMg==

> <s_epik_cmdline>
J2VwaWtfcHl0aG9uJywgJy1waCcsICc3LjAnLCAnLXRuJywgJzgnLCAnLW1hJywgJzIwMCcsICctbWV0YWxfYmluZGluZycsICctaW1hZScsICc8aW5maWxlLm1hZT4nLCAnLW9tYWUnLCAnPG91dGZpbGUubWFlPic=

> <r_lp_tautomer_probability>
1

> <r_epik_Ionization_Penalty>
5.22693

> <r_epik_Ionization_Penalty_Charging>
5.22693

> <r_epik_Ionization_Penalty_Neutral>
2.67702e-10

> <r_epik_State_Penalty>
5.22685

> <r_epik_Charging_Adjusted_Penalty>
10.4538

> <i_epik_Tot_Q>
-1

> <i_epik_Tot_abs_Q>
1

> <r_epik_Metal_State_Penalty>
1.28716

> <b_epik_Metal_Only>
1

> <s_lp_Force_Field>
OPLS_2005

> <r_lp_Energy>
15.3168

> <b_lp_Chiralities_Consistent>
1

> <s_lp_Variant>
AV-unprocessed.smi:2451-15

> <Gold.Version>
5.8.1

> <Gold.Id.Protein>
6NUR|6NUR_protein|mol2

> <Gold.PLP.Fitness>
39.8771

> <Gold.PLP.PLP>
-37.6758

> <Gold.PLP.part.hbond>
0.0000

> <Gold.PLP.part.metal>
0.0000

> <Gold.PLP.part.buried>
-4.1786

> <Gold.PLP.part.nonpolar>
-32.4064

> <Gold.PLP.part.repulsive>
0.4498

> <Gold.PLP.ligand.clash>
0.0000

> <Gold.PLP.ligand.torsion>
0.8958

> <Gold.PLP.Chemscore.Hbond>
0.0000

> <Gold.PLP.Chemscore.CHOScore>
0.9997

> <Gold.PLP.Chemscore.Metal>
0.0000

> <Gold.Chemscore.Hbonds>
donor molecule, donor type, donor heavy atom, donor atom, acceptor molecule, acceptor atom, score
      L1  C    14    33       P1 10175  1.00

> <Gold.PLP.Chemscore.Internal.Correction>
0.9938

> <Gold.Rescore>
     Score         DG    S(hbond)    S(metal)    S(lipo)     H(rot)  DE(clash)    DE(int)     intcor
     13.89     -15.15       0.00        0.00     113.22       1.40       0.01       1.25       ----

> <Gold.Chemscore.Fitness>
13.8853

> <Gold.Chemscore.DG>
-15.1465

> <Gold.Chemscore.ZeroCoef>
-5.4800

> <Gold.Chemscore.Hbond>
0.0000

> <Gold.Chemscore.Metal>
0.0000

> <Gold.Chemscore.Lipo>
113.2217

> <Gold.Chemscore.Internal_Hbond>
0.0000

> <Gold.Chemscore.DEClash>
0.0107

> <Gold.Chemscore.DEInternal>
1.2506

> <Gold.Chemscore.Rot>
1.3986

> <Gold.Chemscore.Internal.Correction>
   9.000000E+99

> <Gold.Chemscore.Hbond.Weighted>
-0.0000

> <Gold.Chemscore.Metal.Weighted>
-0.0000

> <Gold.Chemscore.Lipo.Weighted>
-13.2469

> <Gold.Chemscore.Internal_Hbond.Weighted>
0.0000

> <Gold.Chemscore.DEClash.Weighted>
0.0107

> <Gold.Chemscore.DEInternal.Weighted>
1.2506

> <Gold.Chemscore.Rot.Weighted>
3.5804

> <Gold.Chemscore.Internal.Correction.Weighted>
   9.000000E+99

> <Gold.Protein.RotatedTorsions>
[ 6907 6896 6895 6894 ] final   65.84 input  -60.11 | X-H torsion
[ 7974 7965 7964 7962 ] final -135.80 input  175.53 | X-H torsion
[ 8008 7997 7996 7995 ] final   -1.06 input   59.86 | X-H torsion
[ 10167 10162 10161 10158 ] final    7.77 input  -65.29 | X-H torsion
[ 10718 10713 10712 10709 ] final  -67.89 input   66.30 | X-H torsion
[ 10763 10752 10751 10750 ] final  169.51 input  -60.55 | X-H torsion
[ 11005 11000 10999 10996 ] final  -73.53 input  -57.11 | X-H torsion

> <Gold.Protein.ActiveResidues>
 VAL166  LYS551  ARG553  GLY616  TRP617  ASP618  TYR619  PRO620  LYS621  CYS622 
 ASP623  PHE694  ASN695  SER759  ASP760  ASP761  ALA762  ILE779  LEU786  VAL792 
 PHE793  MET794  SER795  GLU796  ALA797  LYS798  CYS799  TRP800  GLU811  SER814 

> <Gold.Protein.RotatedAtoms>
  152.4437  134.5538  159.9874 H   0  0  0  0  0  0  0  0  0  0  0  0  # atno 6907 bound_to 6896
  151.5629  133.3395  159.2982 H   0  0  0  0  0  0  0  0  0  0  0  0  # atno 6908 bound_to 6896
  150.8349  134.7650  159.6948 H   0  0  0  0  0  0  0  0  0  0  0  0  # atno 6909 bound_to 6896
  144.8982  140.6735  143.5102 H   0  0  0  0  0  0  0  0  0  0  0  0  # atno 7974 bound_to 7965
  154.6511  140.2569  155.7213 H   0  0  0  0  0  0  0  0  0  0  0  0  # atno 8008 bound_to 7997
  156.2575  140.2868  156.0865 H   0  0  0  0  0  0  0  0  0  0  0  0  # atno 8009 bound_to 7997
  155.1450  140.0381  157.2798 H   0  0  0  0  0  0  0  0  0  0  0  0  # atno 8010 bound_to 7997
  140.6352  143.7902  150.7350 H   0  0  0  0  0  0  0  0  0  0  0  0  # atno 10167 bound_to 10162
  156.0534  130.4285  150.1920 H   0  0  0  0  0  0  0  0  0  0  0  0  # atno 10718 bound_to 10713
  154.3842  135.2753  155.2193 H   0  0  0  0  0  0  0  0  0  0  0  0  # atno 10763 bound_to 10752
  154.4287  135.5982  153.6059 H   0  0  0  0  0  0  0  0  0  0  0  0  # atno 10764 bound_to 10752
  152.9833  135.5990  154.4088 H   0  0  0  0  0  0  0  0  0  0  0  0  # atno 10765 bound_to 10752
  141.1624  133.6881  156.7226 H   0  0  0  0  0  0  0  0  0  0  0  0  # atno 11005 bound_to 11000
  145.3663  139.1669  143.4356 LP  0  0  0  0  0  0  0  0  0  0  0  0  # atno 17320 bound_to 7965
  146.3093  140.3730  142.8676 LP  0  0  0  0  0  0  0  0  0  0  0  0  # atno 17321 bound_to 7965
  140.1521  143.4348  152.2124 LP  0  0  0  0  0  0  0  0  0  0  0  0  # atno 17342 bound_to 10162
  139.5563  144.7375  151.4284 LP  0  0  0  0  0  0  0  0  0  0  0  0  # atno 17343 bound_to 10162
  157.0000  130.9919  151.3393 LP  0  0  0  0  0  0  0  0  0  0  0  0  # atno 17370 bound_to 10713
  157.5482  130.8164  149.8111 LP  0  0  0  0  0  0  0  0  0  0  0  0  # atno 17371 bound_to 10713
  140.2804  134.8321  157.3928 LP  0  0  0  0  0  0  0  0  0  0  0  0  # atno 17394 bound_to 11000
  140.1438  134.4937  155.8011 LP  0  0  0  0  0  0  0  0  0  0  0  0  # atno 17395 bound_to 11000

$$$$
