AV-unprocessed.smi:3140|AV-procd|sdf|11958|dock5
  -GOLD-   2272017353D 1   1.00000     0.00000
 Structure written by MMmdl.
 38 39  0  0  0  0  0  0  0  0  2 V2000
  151.0404  140.4581  155.7103 C   0  0  0  0  0  0  0  0  0  0  0  0
  150.5953  141.9121  155.9402 C   0  0  2  0  0  0  0  0  0  0  0  0
  150.2236  142.1419  157.4186 C   0  0  0  0  0  0  0  0  0  0  0  0
  151.1856  142.9849  158.1071 N   0  0  0  0  0  0  0  0  0  0  0  0
  151.5353  144.2894  157.8283 C   0  0  0  0  0  0  0  0  0  0  0  0
  152.4719  144.6642  158.7486 C   0  0  0  0  0  0  0  0  0  0  0  0
  152.6342  143.5053  159.5580 C   0  0  0  0  0  0  0  0  0  0  0  0
  151.8611  142.5026  159.1731 N   0  0  0  0  0  0  0  0  0  0  0  0
  149.4526  142.2629  155.0655 N   0  3  0  0  0  0  0  0  0  0  0  0
  148.2961  141.3469  155.1312 C   0  0  0  0  0  0  0  0  0  0  0  0
  147.2613  141.7003  154.0523 C   0  0  0  0  0  0  0  0  0  0  0  0
  146.2418  142.6116  154.5645 N   0  0  0  0  0  0  0  0  0  0  0  0
  145.7111  143.6804  153.7350 C   0  0  0  0  0  0  0  0  0  0  0  0
  144.5470  144.2697  154.5447 C   0  0  0  0  0  0  0  0  0  0  0  0
  144.7153  143.7300  155.9693 C   0  0  0  0  0  0  0  0  0  0  0  0
  145.7332  142.6146  155.8022 C   0  0  0  0  0  0  0  0  0  0  0  0
  146.0276  141.8353  156.7073 O   0  0  0  0  0  0  0  0  0  0  0  0
  151.8604  140.1909  156.3774 H   0  0  0  0  0  0  0  0  0  0  0  0
  151.3942  140.2985  154.6919 H   0  0  0  0  0  0  0  0  0  0  0  0
  150.2238  139.7592  155.8943 H   0  0  0  0  0  0  0  0  0  0  0  0
  151.4306  142.5716  155.6990 H   0  0  0  0  0  0  0  0  0  0  0  0
  149.2317  142.5891  157.5051 H   0  0  0  0  0  0  0  0  0  0  0  0
  150.1795  141.1883  157.9466 H   0  0  0  0  0  0  0  0  0  0  0  0
  151.0934  144.8370  157.0087 H   0  0  0  0  0  0  0  0  0  0  0  0
  152.9679  145.6202  158.8300 H   0  0  0  0  0  0  0  0  0  0  0  0
  153.2848  143.3641  160.4086 H   0  0  0  0  0  0  0  0  0  0  0  0
  149.1489  143.2018  155.2811 H   0  0  0  0  0  0  0  0  0  0  0  0
  148.6377  140.3206  154.9897 H   0  0  0  0  0  0  0  0  0  0  0  0
  147.8420  141.4040  156.1204 H   0  0  0  0  0  0  0  0  0  0  0  0
  147.7531  142.1582  153.1922 H   0  0  0  0  0  0  0  0  0  0  0  0
  146.7811  140.7925  153.6842 H   0  0  0  0  0  0  0  0  0  0  0  0
  146.4886  144.4271  153.5677 H   0  0  0  0  0  0  0  0  0  0  0  0
  145.3807  143.3066  152.7650 H   0  0  0  0  0  0  0  0  0  0  0  0
  144.5464  145.3601  154.5175 H   0  0  0  0  0  0  0  0  0  0  0  0
  143.5954  143.9312  154.1325 H   0  0  0  0  0  0  0  0  0  0  0  0
  145.1182  144.4906  156.6388 H   0  0  0  0  0  0  0  0  0  0  0  0
  143.7777  143.3582  156.3836 H   0  0  0  0  0  0  0  0  0  0  0  0
  149.7917  142.2509  154.1135 H   0  0  0  0  0  0  0  0  0  0  0  0
  1  2  1  0  0  0  0
  1 18  1  0  0  0  0
  1 19  1  0  0  0  0
  1 20  1  0  0  0  0
  2  3  1  0  0  0  0
  2  9  1  0  0  0  0
  2 21  1  0  0  0  0
  3  4  1  0  0  0  0
  3 22  1  0  0  0  0
  3 23  1  0  0  0  0
  4  8  1  0  0  0  0
  4  5  1  0  0  0  0
  5  6  2  0  0  0  0
  5 24  1  0  0  0  0
  6  7  1  0  0  0  0
  6 25  1  0  0  0  0
  7  8  2  0  0  0  0
  7 26  1  0  0  0  0
  9 10  1  0  0  0  0
  9 27  1  0  0  0  0
  9 38  1  0  0  0  0
 10 11  1  0  0  0  0
 10 28  1  0  0  0  0
 10 29  1  0  0  0  0
 11 12  1  0  0  0  0
 11 30  1  0  0  0  0
 11 31  1  0  0  0  0
 12 16  1  0  0  0  0
 12 13  1  0  0  0  0
 13 14  1  0  0  0  0
 13 32  1  0  0  0  0
 13 33  1  0  0  0  0
 14 15  1  0  0  0  0
 14 34  1  0  0  0  0
 14 35  1  0  0  0  0
 15 16  1  0  0  0  0
 15 36  1  0  0  0  0
 15 37  1  0  0  0  0
 16 17  2  0  0  0  0
M  CHG  1   9   1
M  END
> <s_m_source_file>
AV-unprocessed.smi

> <i_m_source_file_index>
3140

> <i_lp_mmshare_version>
43012

> <i_f3d_flags>
0

> <s_epik_input>
bjFbY0hdW2NIXVtjSF1uMVtDSDJdW0NAQEhdKFtDSDNdKVtOSF1bQ0gyXVtDSDJdTjJbQ0gyXVtDSDJdW0NIMl1DMj1P

> <s_epik_cmdline>
J2VwaWtfcHl0aG9uJywgJy1waCcsICc3LjAnLCAnLXRuJywgJzgnLCAnLW1hJywgJzIwMCcsICctbWV0YWxfYmluZGluZycsICctaW1hZScsICc8aW5maWxlLm1hZT4nLCAnLW9tYWUnLCAnPG91dGZpbGUubWFlPic=

> <r_lp_tautomer_probability>
1

> <r_epik_Ionization_Penalty>
0.00826299

> <r_epik_Ionization_Penalty_Charging>
0.00825899

> <r_epik_Ionization_Penalty_Neutral>
3.99893e-06

> <r_epik_State_Penalty>
0.00621436

> <r_epik_Charging_Adjusted_Penalty>
0.0144734

> <i_epik_Tot_Q>
1

> <i_epik_Tot_abs_Q>
1

> <r_epik_Metal_State_Penalty>
0.00621472

> <b_epik_Metal_Only>
0

> <s_lp_Force_Field>
OPLS_2005

> <r_lp_Energy>
18.6849

> <b_lp_Chiralities_Consistent>
1

> <s_lp_Variant>
AV-unprocessed.smi:3140-1

> <Gold.Version>
5.8.1

> <Gold.Id.Protein>
6NUR|6NUR_protein|mol2

> <Gold.PLP.Fitness>
49.3358

> <Gold.PLP.PLP>
-42.8753

> <Gold.PLP.part.hbond>
-1.0000

> <Gold.PLP.part.metal>
0.0000

> <Gold.PLP.part.buried>
-5.5479

> <Gold.PLP.part.nonpolar>
-36.1094

> <Gold.PLP.part.repulsive>
0.3160

> <Gold.PLP.ligand.clash>
0.0000

> <Gold.PLP.ligand.torsion>
1.3084

> <Gold.PLP.Chemscore.Hbond>
2.0000

> <Gold.PLP.Chemscore.CHOScore>
1.0000

> <Gold.PLP.Chemscore.Metal>
0.0000

> <Gold.Chemscore.Hbonds>
donor molecule, donor type, donor heavy atom, donor atom, acceptor molecule, acceptor atom, score
      L1  H     9    27       P1  8028  2.00
      L1  C     5    24       P1  8028  0.96

> <Gold.PLP.Chemscore.Internal.Correction>
0.0773

> <Gold.Rescore>
     Score         DG    S(hbond)    S(metal)    S(lipo)     H(rot)  DE(clash)    DE(int)     intcor
     11.99     -14.67       0.99        0.00      95.15       2.06       0.06       2.61       ----

> <Gold.Chemscore.Fitness>
11.9935

> <Gold.Chemscore.DG>
-14.6690

> <Gold.Chemscore.ZeroCoef>
-5.4800

> <Gold.Chemscore.Hbond>
0.9937

> <Gold.Chemscore.Metal>
0.0000

> <Gold.Chemscore.Lipo>
95.1507

> <Gold.Chemscore.Internal_Hbond>
0.0000

> <Gold.Chemscore.DEClash>
0.0614

> <Gold.Chemscore.DEInternal>
2.6141

> <Gold.Chemscore.Rot>
2.0557

> <Gold.Chemscore.Internal.Correction>
   9.000000E+99

> <Gold.Chemscore.Hbonds>
donor molecule, donor type, donor heavy atom, donor atom, acceptor molecule, acceptor atom, score
      L1  H     9    27       P1  8028  0.97

> <Gold.Chemscore.Hbond.Weighted>
-3.3191

> <Gold.Chemscore.Metal.Weighted>
-0.0000

> <Gold.Chemscore.Lipo.Weighted>
-11.1326

> <Gold.Chemscore.Internal_Hbond.Weighted>
0.0000

> <Gold.Chemscore.DEClash.Weighted>
0.0614

> <Gold.Chemscore.DEInternal.Weighted>
2.6141

> <Gold.Chemscore.Rot.Weighted>
5.2627

> <Gold.Chemscore.Internal.Correction.Weighted>
   9.000000E+99

> <Gold.Protein.RotatedTorsions>
[ 6907 6896 6895 6894 ] final  -57.97 input  -60.11 | X-H torsion
[ 7974 7965 7964 7962 ] final -123.48 input  175.53 | X-H torsion
[ 8008 7997 7996 7995 ] final  102.46 input   59.86 | X-H torsion
[ 10167 10162 10161 10158 ] final  -55.52 input  -65.29 | X-H torsion
[ 10718 10713 10712 10709 ] final  101.24 input   66.30 | X-H torsion
[ 10763 10752 10751 10750 ] final  -62.09 input  -60.55 | X-H torsion
[ 11005 11000 10999 10996 ] final  -12.44 input  -57.11 | X-H torsion

> <Gold.Protein.ActiveResidues>
 VAL166  LYS551  ARG553  GLY616  TRP617  ASP618  TYR619  PRO620  LYS621  CYS622 
 ASP623  PHE694  ASN695  SER759  ASP760  ASP761  ALA762  ILE779  LEU786  VAL792 
 PHE793  MET794  SER795  GLU796  ALA797  LYS798  CYS799  TRP800  GLU811  SER814 

> <Gold.Protein.RotatedAtoms>
  150.8044  134.7159  159.6630 H   0  0  0  0  0  0  0  0  0  0  0  0  # atno 6907 bound_to 6896
  152.4163  134.6033  160.0015 H   0  0  0  0  0  0  0  0  0  0  0  0  # atno 6908 bound_to 6896
  151.6261  133.3298  159.3134 H   0  0  0  0  0  0  0  0  0  0  0  0  # atno 6909 bound_to 6896
  145.0183  140.7966  143.4396 H   0  0  0  0  0  0  0  0  0  0  0  0  # atno 7974 bound_to 7965
  156.1395  140.3181  155.8472 H   0  0  0  0  0  0  0  0  0  0  0  0  # atno 8008 bound_to 7997
  155.4182  140.0510  157.3044 H   0  0  0  0  0  0  0  0  0  0  0  0  # atno 8009 bound_to 7997
  154.4964  140.2112  155.9450 H   0  0  0  0  0  0  0  0  0  0  0  0  # atno 8010 bound_to 7997
  140.6370  143.2487  151.5092 H   0  0  0  0  0  0  0  0  0  0  0  0  # atno 10167 bound_to 10162
  157.6834  131.0721  150.5223 H   0  0  0  0  0  0  0  0  0  0  0  0  # atno 10718 bound_to 10713
  154.2946  135.6246  153.5399 H   0  0  0  0  0  0  0  0  0  0  0  0  # atno 10763 bound_to 10752
  152.9848  135.5664  154.5352 H   0  0  0  0  0  0  0  0  0  0  0  0  # atno 10764 bound_to 10752
  154.4970  135.2870  155.1427 H   0  0  0  0  0  0  0  0  0  0  0  0  # atno 10765 bound_to 10752
  140.7658  133.8478  155.9164 H   0  0  0  0  0  0  0  0  0  0  0  0  # atno 11005 bound_to 11000
  145.1930  139.2291  143.5233 LP  0  0  0  0  0  0  0  0  0  0  0  0  # atno 17320 bound_to 7965
  146.3481  140.1730  142.8589 LP  0  0  0  0  0  0  0  0  0  0  0  0  # atno 17321 bound_to 7965
  139.5580  144.2228  152.1644 LP  0  0  0  0  0  0  0  0  0  0  0  0  # atno 17342 bound_to 10162
  140.1487  144.5135  150.6700 LP  0  0  0  0  0  0  0  0  0  0  0  0  # atno 17343 bound_to 10162
  156.5536  130.4238  149.6096 LP  0  0  0  0  0  0  0  0  0  0  0  0  # atno 17370 bound_to 10713
  156.2882  130.7109  151.1951 LP  0  0  0  0  0  0  0  0  0  0  0  0  # atno 17371 bound_to 10713
  140.9620  134.1643  157.4646 LP  0  0  0  0  0  0  0  0  0  0  0  0  # atno 17394 bound_to 11000
  139.8763  134.9948  156.5713 LP  0  0  0  0  0  0  0  0  0  0  0  0  # atno 17395 bound_to 11000

$$$$
