AV-unprocessed.smi:3193|AV-procd|sdf|12207|dock1
  -GOLD-   2272018 43D 1   1.00000     0.00000
 Structure written by MMmdl.
 41 42  0  0  0  0  0  0  0  0  3 V2000
  152.5553  144.8659  157.9589 C   0  0  0  0  0  0  0  0  0  0  0  0
  151.3791  144.3523  158.8143 C   0  0  2  0  0  0  0  0  0  0  0  0
  151.5145  144.7928  160.2874 C   0  0  0  0  0  0  0  0  0  0  0  0
  152.6144  144.0171  161.0317 C   0  0  0  0  0  0  0  0  0  0  0  0
  152.3888  142.5016  160.9328 C   0  0  0  0  0  0  0  0  0  0  0  0
  152.2624  142.0453  159.4705 C   0  0  0  0  0  0  0  0  0  0  0  0
  151.1492  142.8192  158.7281 C   0  0  2  0  0  0  0  0  0  0  0  0
  150.9607  142.3291  157.2782 C   0  0  0  0  0  0  0  0  0  0  0  0
  149.5322  142.2366  156.9150 N   0  3  0  0  0  0  0  0  0  0  0  0
  149.1902  141.0308  156.1329 C   0  0  0  0  0  0  0  0  0  0  0  0
  148.1764  141.3383  155.0180 C   0  0  0  0  0  0  0  0  0  0  0  0
  147.7561  140.1407  154.2813 N   0  0  0  0  0  0  0  0  0  0  0  0
  146.6391  139.9959  153.4979 C   0  0  0  0  0  0  0  0  0  0  0  0
  146.6730  138.7190  152.9993 C   0  0  0  0  0  0  0  0  0  0  0  0
  147.8121  138.1410  153.4915 N   0  3  0  0  0  0  0  0  0  0  0  0
  148.4721  139.0079  154.2666 C   0  0  0  0  0  0  0  0  0  0  0  0
  153.5006  144.3998  158.2350 H   0  0  0  0  0  0  0  0  0  0  0  0
  152.6771  145.9430  158.0751 H   0  0  0  0  0  0  0  0  0  0  0  0
  152.3917  144.6800  156.8977 H   0  0  0  0  0  0  0  0  0  0  0  0
  150.4844  144.8388  158.4230 H   0  0  0  0  0  0  0  0  0  0  0  0
  151.7104  145.8641  160.3454 H   0  0  0  0  0  0  0  0  0  0  0  0
  150.5632  144.6350  160.7974 H   0  0  0  0  0  0  0  0  0  0  0  0
  153.5926  144.2711  160.6224 H   0  0  0  0  0  0  0  0  0  0  0  0
  152.6357  144.3202  162.0788 H   0  0  0  0  0  0  0  0  0  0  0  0
  153.2090  141.9720  161.4185 H   0  0  0  0  0  0  0  0  0  0  0  0
  151.4832  142.2331  161.4781 H   0  0  0  0  0  0  0  0  0  0  0  0
  153.2175  142.1769  158.9614 H   0  0  0  0  0  0  0  0  0  0  0  0
  152.0562  140.9749  159.4521 H   0  0  0  0  0  0  0  0  0  0  0  0
  150.2133  142.6201  159.2537 H   0  0  0  0  0  0  0  0  0  0  0  0
  151.4453  143.0215  156.5882 H   0  0  0  0  0  0  0  0  0  0  0  0
  151.4307  141.3546  157.1391 H   0  0  0  0  0  0  0  0  0  0  0  0
  148.9892  142.2343  157.7667 H   0  0  0  0  0  0  0  0  0  0  0  0
  150.0981  140.5954  155.7132 H   0  0  0  0  0  0  0  0  0  0  0  0
  148.7658  140.2863  156.8079 H   0  0  0  0  0  0  0  0  0  0  0  0
  147.2775  141.7845  155.4453 H   0  0  0  0  0  0  0  0  0  0  0  0
  148.5849  142.0641  154.3128 H   0  0  0  0  0  0  0  0  0  0  0  0
  145.9211  140.7908  153.3539 H   0  0  0  0  0  0  0  0  0  0  0  0
  145.9931  138.1936  152.3441 H   0  0  0  0  0  0  0  0  0  0  0  0
  149.4020  138.8262  154.7761 H   0  0  0  0  0  0  0  0  0  0  0  0
  149.2876  143.0546  156.3756 H   0  0  0  0  0  0  0  0  0  0  0  0
  148.1182  137.1965  153.2909 H   0  0  0  0  0  0  0  0  0  0  0  0
  1  2  1  0  0  0  0
  1 17  1  0  0  0  0
  1 18  1  0  0  0  0
  1 19  1  0  0  0  0
  2  7  1  0  0  0  0
  2  3  1  0  0  0  0
  2 20  1  0  0  0  0
  3  4  1  0  0  0  0
  3 21  1  0  0  0  0
  3 22  1  0  0  0  0
  4  5  1  0  0  0  0
  4 23  1  0  0  0  0
  4 24  1  0  0  0  0
  5  6  1  0  0  0  0
  5 25  1  0  0  0  0
  5 26  1  0  0  0  0
  6  7  1  0  0  0  0
  6 27  1  0  0  0  0
  6 28  1  0  0  0  0
  7  8  1  0  0  0  0
  7 29  1  0  0  0  0
  8  9  1  0  0  0  0
  8 30  1  0  0  0  0
  8 31  1  0  0  0  0
  9 10  1  0  0  0  0
  9 32  1  0  0  0  0
  9 40  1  0  0  0  0
 10 11  1  0  0  0  0
 10 33  1  0  0  0  0
 10 34  1  0  0  0  0
 11 12  1  0  0  0  0
 11 35  1  0  0  0  0
 11 36  1  0  0  0  0
 12 16  1  0  0  0  0
 12 13  1  0  0  0  0
 13 14  2  0  0  0  0
 13 37  1  0  0  0  0
 14 15  1  0  0  0  0
 14 38  1  0  0  0  0
 15 16  2  0  0  0  0
 15 41  1  0  0  0  0
 16 39  1  0  0  0  0
M  CHG  1   9   1
M  CHG  1  15   1
M  END
> <s_m_source_file>
AV-unprocessed.smi

> <i_m_source_file_index>
3193

> <i_lp_mmshare_version>
43012

> <i_f3d_flags>
0

> <s_epik_input>
W0NIM11bQ0BASF0xW0NIMl1bQ0gyXVtDSDJdW0NIMl1bQ0BIXTFbQ0gyXVtOSF1bQ0gyXVtDSDJdbjJbY0hdW2NIXW5bY0hdMg==

> <s_epik_cmdline>
J2VwaWtfcHl0aG9uJywgJy1waCcsICc3LjAnLCAnLXRuJywgJzgnLCAnLW1hJywgJzIwMCcsICctbWV0YWxfYmluZGluZycsICctaW1hZScsICc8aW5maWxlLm1hZT4nLCAnLW9tYWUnLCAnPG91dGZpbGUubWFlPic=

> <r_lp_tautomer_probability>
1

> <r_epik_Ionization_Penalty>
1.50262

> <r_epik_Ionization_Penalty_Charging>
0.00193432

> <r_epik_Ionization_Penalty_Neutral>
1.50068

> <r_epik_State_Penalty>
1.11854

> <r_epik_Charging_Adjusted_Penalty>
1.12048

> <i_epik_Tot_Q>
2

> <i_epik_Tot_abs_Q>
2

> <r_epik_Metal_State_Penalty>
5.11322

> <b_epik_Metal_Only>
0

> <s_lp_Force_Field>
OPLS_2005

> <r_lp_Energy>
29.0126

> <b_lp_Chiralities_Consistent>
1

> <s_lp_Variant>
AV-unprocessed.smi:3193-7

> <Gold.Version>
5.8.1

> <Gold.Id.Protein>
6NUR|6NUR_protein|mol2

> <Gold.PLP.Fitness>
51.8379

> <Gold.PLP.PLP>
-40.0233

> <Gold.PLP.part.hbond>
-3.0000

> <Gold.PLP.part.metal>
0.0000

> <Gold.PLP.part.buried>
-2.2227

> <Gold.PLP.part.nonpolar>
-35.6377

> <Gold.PLP.part.repulsive>
0.0835

> <Gold.PLP.ligand.clash>
0.0000

> <Gold.PLP.ligand.torsion>
1.3844

> <Gold.PLP.Chemscore.Hbond>
4.0000

> <Gold.PLP.Chemscore.CHOScore>
0.8379

> <Gold.PLP.Chemscore.Metal>
0.0000

> <Gold.Chemscore.Hbonds>
donor molecule, donor type, donor heavy atom, donor atom, acceptor molecule, acceptor atom, score
      L1  H     9    40       P1  8028  2.00
      L1  H    15    41       P1  7948  1.54
      L1  C    13    37       P1 10175  0.90

> <Gold.PLP.Chemscore.Internal.Correction>
0.0698

> <Gold.Rescore>
     Score         DG    S(hbond)    S(metal)    S(lipo)     H(rot)  DE(clash)    DE(int)     intcor
     19.16     -20.89       1.94        0.00     119.53       1.98       0.24       1.50       ----

> <Gold.Chemscore.Fitness>
19.1562

> <Gold.Chemscore.DG>
-20.8920

> <Gold.Chemscore.ZeroCoef>
-5.4800

> <Gold.Chemscore.Hbond>
1.9429

> <Gold.Chemscore.Metal>
0.0000

> <Gold.Chemscore.Lipo>
119.5284

> <Gold.Chemscore.Internal_Hbond>
0.0000

> <Gold.Chemscore.DEClash>
0.2360

> <Gold.Chemscore.DEInternal>
1.4998

> <Gold.Chemscore.Rot>
1.9774

> <Gold.Chemscore.Internal.Correction>
   9.000000E+99

> <Gold.Chemscore.Hbonds>
donor molecule, donor type, donor heavy atom, donor atom, acceptor molecule, acceptor atom, score
      L1  H     9    40       P1  8028  1.00
      L1  H    15    41       P1  7948  0.76

> <Gold.Chemscore.Hbond.Weighted>
-6.4894

> <Gold.Chemscore.Metal.Weighted>
-0.0000

> <Gold.Chemscore.Lipo.Weighted>
-13.9848

> <Gold.Chemscore.Internal_Hbond.Weighted>
0.0000

> <Gold.Chemscore.DEClash.Weighted>
0.2360

> <Gold.Chemscore.DEInternal.Weighted>
1.4998

> <Gold.Chemscore.Rot.Weighted>
5.0622

> <Gold.Chemscore.Internal.Correction.Weighted>
   9.000000E+99

> <Gold.Protein.RotatedTorsions>
[ 6907 6896 6895 6894 ] final  153.63 input  -60.11 | X-H torsion
[ 7974 7965 7964 7962 ] final  172.61 input  175.53 | X-H torsion
[ 8008 7997 7996 7995 ] final  -79.37 input   59.86 | X-H torsion
[ 10167 10162 10161 10158 ] final  178.03 input  -65.29 | X-H torsion
[ 10718 10713 10712 10709 ] final    3.95 input   66.30 | X-H torsion
[ 10763 10752 10751 10750 ] final  -97.11 input  -60.55 | X-H torsion
[ 11005 11000 10999 10996 ] final -131.19 input  -57.11 | X-H torsion

> <Gold.Protein.ActiveResidues>
 VAL166  LYS551  ARG553  GLY616  TRP617  ASP618  TYR619  PRO620  LYS621  CYS622 
 ASP623  PHE694  ASN695  SER759  ASP760  ASP761  ALA762  ILE779  LEU786  VAL792 
 PHE793  MET794  SER795  GLU796  ALA797  LYS798  CYS799  TRP800  GLU811  SER814 

> <Gold.Protein.RotatedAtoms>
  152.0700  133.4102  159.4454 H   0  0  0  0  0  0  0  0  0  0  0  0  # atno 6907 bound_to 6896
  150.6864  134.3103  159.4752 H   0  0  0  0  0  0  0  0  0  0  0  0  # atno 6908 bound_to 6896
  152.0933  134.9391  160.0622 H   0  0  0  0  0  0  0  0  0  0  0  0  # atno 6909 bound_to 6896
  144.7264  139.9524  143.6432 H   0  0  0  0  0  0  0  0  0  0  0  0  # atno 7974 bound_to 7965
  154.5778  140.0679  156.9060 H   0  0  0  0  0  0  0  0  0  0  0  0  # atno 8008 bound_to 7997
  155.2517  140.3352  155.4263 H   0  0  0  0  0  0  0  0  0  0  0  0  # atno 8009 bound_to 7997
  156.2167  140.1781  156.7557 H   0  0  0  0  0  0  0  0  0  0  0  0  # atno 8010 bound_to 7997
  139.5277  144.2729  152.0613 H   0  0  0  0  0  0  0  0  0  0  0  0  # atno 10167 bound_to 10162
  156.8854  130.5668  149.5651 H   0  0  0  0  0  0  0  0  0  0  0  0  # atno 10718 bound_to 10713
  154.7299  135.5058  153.8947 H   0  0  0  0  0  0  0  0  0  0  0  0  # atno 10763 bound_to 10752
  153.0940  135.6667  153.9808 H   0  0  0  0  0  0  0  0  0  0  0  0  # atno 10764 bound_to 10752
  153.9611  135.3048  155.3412 H   0  0  0  0  0  0  0  0  0  0  0  0  # atno 10765 bound_to 10752
  140.9280  134.1357  157.4259 H   0  0  0  0  0  0  0  0  0  0  0  0  # atno 11005 bound_to 11000
  146.0701  139.3690  143.0528 LP  0  0  0  0  0  0  0  0  0  0  0  0  # atno 17320 bound_to 7965
  145.7979  140.9784  143.1014 LP  0  0  0  0  0  0  0  0  0  0  0  0  # atno 17321 bound_to 7965
  140.2187  144.4488  150.6352 LP  0  0  0  0  0  0  0  0  0  0  0  0  # atno 17342 bound_to 10162
  140.6432  143.2208  151.6243 LP  0  0  0  0  0  0  0  0  0  0  0  0  # atno 17343 bound_to 10162
  156.0656  130.5700  150.9281 LP  0  0  0  0  0  0  0  0  0  0  0  0  # atno 17370 bound_to 10713
  157.6115  131.0936  150.8785 LP  0  0  0  0  0  0  0  0  0  0  0  0  # atno 17371 bound_to 10713
  139.8790  134.9995  156.5958 LP  0  0  0  0  0  0  0  0  0  0  0  0  # atno 17394 bound_to 11000
  140.7900  133.8590  155.8638 LP  0  0  0  0  0  0  0  0  0  0  0  0  # atno 17395 bound_to 11000

$$$$
