AV-unprocessed.smi:23|AV-procd|sdf|173|dock3
  -GOLD-   2262015433D 1   1.00000     0.00000
 Structure written by MMmdl.
 53 56  0  0  0  0  0  0  0  0  1 V2000
  151.7819  145.8189  160.4245 C   0  0  0  0  0  0  0  0  0  0  0  0
  151.2079  144.6845  159.7854 O   0  0  0  0  0  0  0  0  0  0  0  0
  152.0754  143.6403  159.3309 C   0  0  1  0  0  0  0  0  0  0  0  0
  153.1006  144.4039  158.4683 C   0  0  0  0  0  0  0  0  0  0  0  0
  152.7614  142.9469  160.5355 C   0  0  0  0  0  0  0  0  0  0  0  0
  153.6402  141.7659  160.0871 C   0  0  0  0  0  0  0  0  0  0  0  0
  152.8502  140.7876  159.2023 C   0  0  0  0  0  0  0  0  0  0  0  0
  152.2152  141.4909  158.0868 N   0  0  0  0  0  0  0  0  0  0  0  0
  151.7913  140.7583  157.0263 C   0  0  0  0  0  0  0  0  0  0  0  0
  152.5422  139.7175  156.5765 N   0  0  0  0  0  0  0  0  0  0  0  0
  152.1277  138.9857  155.5381 C   0  0  0  0  0  0  0  0  0  0  0  0
  151.0130  139.1170  154.8166 N   0  0  0  0  0  0  0  0  0  0  0  0
  150.2559  140.1614  155.2598 C   0  0  0  0  0  0  0  0  0  0  0  0
  150.5719  141.0293  156.3433 C   0  0  0  0  0  0  0  0  0  0  0  0
  149.5808  141.9945  156.4799 N   0  0  0  0  0  0  0  0  0  0  0  0
  148.7258  141.7092  155.5363 C   0  0  0  0  0  0  0  0  0  0  0  0
  149.0364  140.6040  154.7764 N   0  0  0  0  0  0  0  0  0  0  0  0
  148.2943  140.0980  153.6581 C   0  0  0  0  0  0  0  0  0  0  0  0
  146.7634  140.1575  153.6356 C   0  0  0  0  0  0  0  0  0  0  0  0
  146.7068  138.7889  152.9217 C   0  0  0  0  0  0  0  0  0  0  0  0
  145.6985  137.7875  153.5065 C   0  0  0  0  0  0  0  0  0  0  0  0
  144.3807  138.2965  153.4656 O   0  0  0  0  0  0  0  0  0  0  0  0
  146.4994  138.8009  151.3906 C   0  0  0  0  0  0  0  0  0  0  0  0
  146.8030  137.5657  150.7750 O   0  0  0  0  0  0  0  0  0  0  0  0
  148.1579  138.5918  153.4146 C   0  0  0  0  0  0  0  0  0  0  0  0
  151.3291  142.5907  158.4698 C   0  0  0  0  0  0  0  0  0  0  0  0
  150.9940  146.5457  160.6216 H   0  0  0  0  0  0  0  0  0  0  0  0
  152.5325  146.3153  159.8117 H   0  0  0  0  0  0  0  0  0  0  0  0
  152.2229  145.5611  161.3873 H   0  0  0  0  0  0  0  0  0  0  0  0
  153.8411  143.7428  158.0188 H   0  0  0  0  0  0  0  0  0  0  0  0
  153.6382  145.1458  159.0597 H   0  0  0  0  0  0  0  0  0  0  0  0
  152.6068  144.9321  157.6517 H   0  0  0  0  0  0  0  0  0  0  0  0
  153.3557  143.6648  161.1014 H   0  0  0  0  0  0  0  0  0  0  0  0
  152.0155  142.5569  161.2265 H   0  0  0  0  0  0  0  0  0  0  0  0
  154.5095  142.1326  159.5412 H   0  0  0  0  0  0  0  0  0  0  0  0
  154.0312  141.2422  160.9598 H   0  0  0  0  0  0  0  0  0  0  0  0
  153.5245  140.0160  158.8279 H   0  0  0  0  0  0  0  0  0  0  0  0
  152.0828  140.2862  159.7937 H   0  0  0  0  0  0  0  0  0  0  0  0
  152.7811  138.1771  155.2453 H   0  0  0  0  0  0  0  0  0  0  0  0
  147.8361  142.2996  155.3722 H   0  0  0  0  0  0  0  0  0  0  0  0
  148.7111  140.5923  152.7798 H   0  0  0  0  0  0  0  0  0  0  0  0
  146.3307  140.1262  154.6370 H   0  0  0  0  0  0  0  0  0  0  0  0
  146.3542  140.9897  153.0618 H   0  0  0  0  0  0  0  0  0  0  0  0
  145.7284  136.8380  152.9705 H   0  0  0  0  0  0  0  0  0  0  0  0
  145.9336  137.5608  154.5470 H   0  0  0  0  0  0  0  0  0  0  0  0
  144.3816  139.0917  152.9548 H   0  0  0  0  0  0  0  0  0  0  0  0
  145.4662  139.0474  151.1436 H   0  0  0  0  0  0  0  0  0  0  0  0
  147.1227  139.5606  150.9183 H   0  0  0  0  0  0  0  0  0  0  0  0
  147.0958  136.9623  151.4409 H   0  0  0  0  0  0  0  0  0  0  0  0
  148.8467  138.1942  152.6683 H   0  0  0  0  0  0  0  0  0  0  0  0
  148.2196  138.0183  154.3411 H   0  0  0  0  0  0  0  0  0  0  0  0
  150.5080  142.1461  159.0322 H   0  0  0  0  0  0  0  0  0  0  0  0
  150.8820  143.0761  157.6028 H   0  0  0  0  0  0  0  0  0  0  0  0
  1  2  1  0  0  0  0
  1 27  1  0  0  0  0
  1 28  1  0  0  0  0
  1 29  1  0  0  0  0
  2  3  1  0  0  0  0
  3 26  1  0  0  0  0
  3  4  1  0  0  0  0
  3  5  1  0  0  0  0
  4 30  1  0  0  0  0
  4 31  1  0  0  0  0
  4 32  1  0  0  0  0
  5  6  1  0  0  0  0
  5 33  1  0  0  0  0
  5 34  1  0  0  0  0
  6  7  1  0  0  0  0
  6 35  1  0  0  0  0
  6 36  1  0  0  0  0
  7  8  1  0  0  0  0
  7 37  1  0  0  0  0
  7 38  1  0  0  0  0
  8  9  1  0  0  0  0
  8 26  1  0  0  0  0
  9 14  1  0  0  0  0
  9 10  2  0  0  0  0
 10 11  1  0  0  0  0
 11 12  2  0  0  0  0
 11 39  1  0  0  0  0
 12 13  1  0  0  0  0
 13 17  1  0  0  0  0
 13 14  2  0  0  0  0
 14 15  1  0  0  0  0
 15 16  2  0  0  0  0
 16 17  1  0  0  0  0
 16 40  1  0  0  0  0
 17 18  1  0  0  0  0
 18 25  1  0  0  0  0
 18 19  1  0  0  0  0
 18 41  1  0  0  0  0
 19 20  1  0  0  0  0
 19 42  1  0  0  0  0
 19 43  1  0  0  0  0
 20 21  1  0  0  0  0
 20 23  1  0  0  0  0
 20 25  1  0  0  0  0
 21 22  1  0  0  0  0
 21 44  1  0  0  0  0
 21 45  1  0  0  0  0
 22 46  1  0  0  0  0
 23 24  1  0  0  0  0
 23 47  1  0  0  0  0
 23 48  1  0  0  0  0
 24 49  1  0  0  0  0
 25 50  1  0  0  0  0
 25 51  1  0  0  0  0
 26 52  1  0  0  0  0
 26 53  1  0  0  0  0
M  END
> <s_m_source_file>
AV-unprocessed.smi

> <i_m_source_file_index>
23

> <i_lp_mmshare_version>
43012

> <i_f3d_flags>
0

> <s_epik_input>
W0NIM11PW0NAQF0xKFtDSDNdKVtDSDJdW0NIMl1bQ0gyXU4oW0NIMl0xKWMobltjSF1uMiljKGMyMyluW2NIXW4zW0NIXShbQ0gyXTQpW0NIMl1DNChbQ0gyXVtPSF0pW0NIMl1bT0hd

> <s_epik_cmdline>
J2VwaWtfcHl0aG9uJywgJy1waCcsICc3LjAnLCAnLXRuJywgJzgnLCAnLW1hJywgJzIwMCcsICctbWV0YWxfYmluZGluZycsICctaW1hZScsICc8aW5maWxlLm1hZT4nLCAnLW9tYWUnLCAnPG91dGZpbGUubWFlPic=

> <r_lp_tautomer_probability>
1

> <r_epik_Ionization_Penalty>
0.00233978

> <r_epik_Ionization_Penalty_Charging>
0

> <r_epik_Ionization_Penalty_Neutral>
0.00233978

> <r_epik_State_Penalty>
0.00146422

> <r_epik_Charging_Adjusted_Penalty>
0.00146422

> <i_epik_Tot_Q>
0

> <i_epik_Tot_abs_Q>
0

> <r_epik_Metal_State_Penalty>
-0

> <b_epik_Metal_Only>
0

> <s_lp_Force_Field>
OPLS_2005

> <r_lp_Energy>
49.0819

> <b_lp_Chiralities_Consistent>
1

> <s_lp_Variant>
AV-unprocessed.smi:23-1

> <Gold.Version>
5.8.1

> <Gold.Id.Protein>
6NUR|6NUR_protein|mol2

> <Gold.PLP.Fitness>
56.4849

> <Gold.PLP.PLP>
-47.8126

> <Gold.PLP.part.hbond>
-4.3094

> <Gold.PLP.part.metal>
0.0000

> <Gold.PLP.part.buried>
3.3110

> <Gold.PLP.part.nonpolar>
-47.7198

> <Gold.PLP.part.repulsive>
1.5870

> <Gold.PLP.ligand.clash>
1.4560

> <Gold.PLP.ligand.torsion>
1.2050

> <Gold.PLP.Chemscore.Hbond>
3.5920

> <Gold.PLP.Chemscore.CHOScore>
0.3019

> <Gold.PLP.Chemscore.Metal>
0.0000

> <Gold.Chemscore.Hbonds>
donor molecule, donor type, donor heavy atom, donor atom, acceptor molecule, acceptor atom, score
      L1  H    22    46       P1 10175  1.00
      L1  H    24    49       P1  7948  0.59
      P1  H  7954  7966       L1    24  1.00
      P1  H  7997  8010       L1    10  1.00
      L1  C    16    40       P1  8028  0.30

> <Gold.PLP.Chemscore.Internal.Correction>
0.8565

> <Gold.Rescore>
     Score         DG    S(hbond)    S(metal)    S(lipo)     H(rot)  DE(clash)    DE(int)     intcor
     14.71     -20.24       2.67        0.00     123.92       3.38       2.87       2.66       ----

> <Gold.Chemscore.Fitness>
14.7107

> <Gold.Chemscore.DG>
-20.2378

> <Gold.Chemscore.ZeroCoef>
-5.4800

> <Gold.Chemscore.Hbond>
2.6712

> <Gold.Chemscore.Metal>
0.0000

> <Gold.Chemscore.Lipo>
123.9158

> <Gold.Chemscore.Internal_Hbond>
0.0000

> <Gold.Chemscore.DEClash>
2.8675

> <Gold.Chemscore.DEInternal>
2.6597

> <Gold.Chemscore.Rot>
3.3837

> <Gold.Chemscore.Internal.Correction>
   9.000000E+99

> <Gold.Chemscore.Hbonds>
donor molecule, donor type, donor heavy atom, donor atom, acceptor molecule, acceptor atom, score
      L1  H    22    46       P1 10175  0.94
      L1  H    24    49       P1  7948  0.58
      P1  H  7954  7966       L1    24  0.22
      P1  H  7997  8010       L1    10  0.66

> <Gold.Chemscore.Hbond.Weighted>
-8.9219

> <Gold.Chemscore.Metal.Weighted>
-0.0000

> <Gold.Chemscore.Lipo.Weighted>
-14.4981

> <Gold.Chemscore.Internal_Hbond.Weighted>
0.0000

> <Gold.Chemscore.DEClash.Weighted>
2.8675

> <Gold.Chemscore.DEInternal.Weighted>
2.6597

> <Gold.Chemscore.Rot.Weighted>
8.6622

> <Gold.Chemscore.Internal.Correction.Weighted>
   9.000000E+99

> <Gold.Protein.RotatedTorsions>
[ 6907 6896 6895 6894 ] final  -12.76 input  -60.11 | X-H torsion
[ 7974 7965 7964 7962 ] final  137.90 input  175.53 | X-H torsion
[ 8008 7997 7996 7995 ] final   74.19 input   59.86 | X-H torsion
[ 10167 10162 10161 10158 ] final  -96.24 input  -65.29 | X-H torsion
[ 10718 10713 10712 10709 ] final  101.11 input   66.30 | X-H torsion
[ 10763 10752 10751 10750 ] final  106.39 input  -60.55 | X-H torsion
[ 11005 11000 10999 10996 ] final  122.30 input  -57.11 | X-H torsion

> <Gold.Protein.ActiveResidues>
 VAL166  LYS551  ARG553  GLY616  TRP617  ASP618  TYR619  PRO620  LYS621  CYS622 
 ASP623  PHE694  ASN695  SER759  ASP760  ASP761  ALA762  ILE779  LEU786  VAL792 
 PHE793  MET794  SER795  GLU796  ALA797  LYS798  CYS799  TRP800  GLU811  SER814 

> <Gold.Protein.RotatedAtoms>
  151.3655  135.0912  159.9448 H   0  0  0  0  0  0  0  0  0  0  0  0  # atno 6907 bound_to 6896
  152.5150  133.9216  159.7547 H   0  0  0  0  0  0  0  0  0  0  0  0  # atno 6908 bound_to 6896
  150.9619  133.6381  159.2782 H   0  0  0  0  0  0  0  0  0  0  0  0  # atno 6909 bound_to 6896
  144.9423  139.4916  143.5566 H   0  0  0  0  0  0  0  0  0  0  0  0  # atno 7974 bound_to 7965
  155.7947  140.3478  155.5369 H   0  0  0  0  0  0  0  0  0  0  0  0  # atno 8008 bound_to 7997
  155.8598  140.0969  157.1641 H   0  0  0  0  0  0  0  0  0  0  0  0  # atno 8009 bound_to 7997
  154.4011  140.1360  156.3934 H   0  0  0  0  0  0  0  0  0  0  0  0  # atno 8010 bound_to 7997
  140.2958  143.3193  152.0299 H   0  0  0  0  0  0  0  0  0  0  0  0  # atno 10167 bound_to 10162
  157.6837  131.0717  150.5202 H   0  0  0  0  0  0  0  0  0  0  0  0  # atno 10718 bound_to 10713
  153.3924  135.3878  155.1932 H   0  0  0  0  0  0  0  0  0  0  0  0  # atno 10763 bound_to 10752
  154.8720  135.3751  154.4721 H   0  0  0  0  0  0  0  0  0  0  0  0  # atno 10764 bound_to 10752
  153.5209  135.7087  153.5793 H   0  0  0  0  0  0  0  0  0  0  0  0  # atno 10765 bound_to 10752
  139.9262  134.9641  156.8088 H   0  0  0  0  0  0  0  0  0  0  0  0  # atno 11005 bound_to 11000
  146.3290  139.8451  142.8883 LP  0  0  0  0  0  0  0  0  0  0  0  0  # atno 17320 bound_to 7965
  145.2972  141.0184  143.3629 LP  0  0  0  0  0  0  0  0  0  0  0  0  # atno 17321 bound_to 7965
  139.4927  144.6492  151.6713 LP  0  0  0  0  0  0  0  0  0  0  0  0  # atno 17342 bound_to 10162
  140.5693  144.0136  150.6208 LP  0  0  0  0  0  0  0  0  0  0  0  0  # atno 17343 bound_to 10162
  156.5516  130.4233  149.6105 LP  0  0  0  0  0  0  0  0  0  0  0  0  # atno 17370 bound_to 10713
  156.2898  130.7118  151.1963 LP  0  0  0  0  0  0  0  0  0  0  0  0  # atno 17371 bound_to 10713
  140.6329  133.9889  155.7670 LP  0  0  0  0  0  0  0  0  0  0  0  0  # atno 17394 bound_to 11000
  141.0821  134.0046  157.3369 LP  0  0  0  0  0  0  0  0  0  0  0  0  # atno 17395 bound_to 11000

$$$$
