AV-unprocessed.smi:2728|AV-procd|sdf|10525|dock8
  -GOLD-   2272014573D 1   1.00000     0.00000
 Structure written by MMmdl.
 34 35  0  0  0  0  0  0  0  0  1 V2000
  150.5005  140.5912  156.9077 O   0  0  0  0  0  0  0  0  0  0  0  0
  150.3387  141.7473  156.5155 C   0  0  0  0  0  0  0  0  0  0  0  0
  149.7787  142.0558  155.3366 N   0  0  0  0  0  0  0  0  0  0  0  0
  149.2806  141.0863  154.3679 C   0  0  0  0  0  0  0  0  0  0  0  0
  147.7728  141.2601  154.1191 C   0  0  0  0  0  0  0  0  0  0  0  0
  147.1573  140.0650  153.4181 C   0  0  0  0  0  0  0  0  0  0  0  0
  146.5188  139.0484  153.9959 C   0  0  0  0  0  0  0  0  0  0  0  0
  146.0136  138.0399  153.0010 C   0  0  0  0  0  0  0  0  0  0  0  0
  146.4604  138.6057  151.6346 C   0  0  0  0  0  0  0  0  0  0  0  0
  147.1961  139.9351  151.9170 C   0  0  0  0  0  0  0  0  0  0  0  0
  150.6899  142.8553  157.1922 N   0  0  0  0  0  0  0  0  0  0  0  0
  151.2874  142.9472  158.4777 C   0  0  0  0  0  0  0  0  0  0  0  0
  151.2362  144.2292  159.0711 C   0  0  0  0  0  0  0  0  0  0  0  0
  151.7977  144.4249  160.3481 C   0  0  0  0  0  0  0  0  0  0  0  0
  152.3967  143.3312  160.9978 C   0  0  0  0  0  0  0  0  0  0  0  0
  152.9488  143.4708  162.2263 F   0  0  0  0  0  0  0  0  0  0  0  0
  152.4073  142.0883  160.3381 C   0  0  0  0  0  0  0  0  0  0  0  0
  151.8693  141.8994  159.1143 N   0  0  0  0  0  0  0  0  0  0  0  0
  149.6851  143.0309  155.0928 H   0  0  0  0  0  0  0  0  0  0  0  0
  149.8412  141.1711  153.4354 H   0  0  0  0  0  0  0  0  0  0  0  0
  149.4783  140.0880  154.7592 H   0  0  0  0  0  0  0  0  0  0  0  0
  147.2587  141.4133  155.0690 H   0  0  0  0  0  0  0  0  0  0  0  0
  147.5853  142.1485  153.5148 H   0  0  0  0  0  0  0  0  0  0  0  0
  146.3604  138.9342  155.0581 H   0  0  0  0  0  0  0  0  0  0  0  0
  146.4528  137.0617  153.1978 H   0  0  0  0  0  0  0  0  0  0  0  0
  144.9287  137.9559  153.0685 H   0  0  0  0  0  0  0  0  0  0  0  0
  147.1212  137.9024  151.1266 H   0  0  0  0  0  0  0  0  0  0  0  0
  145.6010  138.7694  150.9836 H   0  0  0  0  0  0  0  0  0  0  0  0
  146.6898  140.7818  151.4526 H   0  0  0  0  0  0  0  0  0  0  0  0
  148.2249  139.9053  151.5571 H   0  0  0  0  0  0  0  0  0  0  0  0
  150.4985  143.7363  156.7389 H   0  0  0  0  0  0  0  0  0  0  0  0
  150.7706  145.0577  158.5573 H   0  0  0  0  0  0  0  0  0  0  0  0
  151.7680  145.3963  160.8192 H   0  0  0  0  0  0  0  0  0  0  0  0
  152.8577  141.2241  160.8034 H   0  0  0  0  0  0  0  0  0  0  0  0
  1  2  2  0  0  0  0
  2  3  1  0  0  0  0
  2 11  1  0  0  0  0
  3  4  1  0  0  0  0
  3 19  1  0  0  0  0
  4  5  1  0  0  0  0
  4 20  1  0  0  0  0
  4 21  1  0  0  0  0
  5  6  1  0  0  0  0
  5 22  1  0  0  0  0
  5 23  1  0  0  0  0
  6 10  1  0  0  0  0
  6  7  2  0  0  0  0
  7  8  1  0  0  0  0
  7 24  1  0  0  0  0
  8  9  1  0  0  0  0
  8 25  1  0  0  0  0
  8 26  1  0  0  0  0
  9 10  1  0  0  0  0
  9 27  1  0  0  0  0
  9 28  1  0  0  0  0
 10 29  1  0  0  0  0
 10 30  1  0  0  0  0
 11 12  1  0  0  0  0
 11 31  1  0  0  0  0
 12 18  1  0  0  0  0
 12 13  2  0  0  0  0
 13 14  1  0  0  0  0
 13 32  1  0  0  0  0
 14 15  2  0  0  0  0
 14 33  1  0  0  0  0
 15 16  1  0  0  0  0
 15 17  1  0  0  0  0
 17 18  2  0  0  0  0
 17 34  1  0  0  0  0
M  END
> <s_m_source_file>
AV-unprocessed.smi

> <i_m_source_file_index>
2728

> <i_lp_mmshare_version>
43012

> <i_f3d_flags>
0

> <s_epik_input>
bjFbY0hdYyhGKVtjSF1bY0hdYzFbTkhdQyg9TylbTkhdW0NIMl1bQ0gyXUMyPVtDSF1bQ0gyXVtDSDJdW0NIMl0y

> <s_epik_cmdline>
J2VwaWtfcHl0aG9uJywgJy1waCcsICc3LjAnLCAnLXRuJywgJzgnLCAnLW1hJywgJzIwMCcsICctbWV0YWxfYmluZGluZycsICctaW1hZScsICc8aW5maWxlLm1hZT4nLCAnLW9tYWUnLCAnPG91dGZpbGUubWFlPic=

> <r_lp_tautomer_probability>
1

> <r_epik_Ionization_Penalty>
3.75783e-05

> <r_epik_Ionization_Penalty_Charging>
0

> <r_epik_Ionization_Penalty_Neutral>
3.75783e-05

> <r_epik_State_Penalty>
-0

> <r_epik_Charging_Adjusted_Penalty>
0

> <i_epik_Tot_Q>
0

> <i_epik_Tot_abs_Q>
0

> <r_epik_Metal_State_Penalty>
-0

> <b_epik_Metal_Only>
0

> <s_lp_Force_Field>
OPLS_2005

> <r_lp_Energy>
20.4042

> <b_lp_Chiralities_Consistent>
1

> <s_lp_Variant>
AV-unprocessed.smi:2728-1

> <Gold.Version>
5.8.1

> <Gold.Id.Protein>
6NUR|6NUR_protein|mol2

> <Gold.PLP.Fitness>
44.7683

> <Gold.PLP.PLP>
-39.9248

> <Gold.PLP.part.hbond>
-2.0000

> <Gold.PLP.part.metal>
0.0000

> <Gold.PLP.part.buried>
-0.4618

> <Gold.PLP.part.nonpolar>
-37.8669

> <Gold.PLP.part.repulsive>
0.2257

> <Gold.PLP.ligand.clash>
0.0000

> <Gold.PLP.ligand.torsion>
0.4482

> <Gold.PLP.Chemscore.Hbond>
1.9120

> <Gold.PLP.Chemscore.CHOScore>
0.0000

> <Gold.PLP.Chemscore.Metal>
0.0000

> <Gold.Chemscore.Hbonds>
donor molecule, donor type, donor heavy atom, donor atom, acceptor molecule, acceptor atom, score
      L1  H     3    19       P1  8028  0.90
      L1  H    11    31       P1  8028  0.55

> <Gold.PLP.Chemscore.Internal.Correction>
0.0039

> <Gold.Rescore>
     Score         DG    S(hbond)    S(metal)    S(lipo)     H(rot)  DE(clash)    DE(int)     intcor
     16.05     -19.75       1.87        0.00     100.95       1.48       2.11       1.59       ----

> <Gold.Chemscore.Fitness>
16.0490

> <Gold.Chemscore.DG>
-19.7481

> <Gold.Chemscore.ZeroCoef>
-5.4800

> <Gold.Chemscore.Hbond>
1.8712

> <Gold.Chemscore.Metal>
0.0000

> <Gold.Chemscore.Lipo>
100.9533

> <Gold.Chemscore.Internal_Hbond>
0.0000

> <Gold.Chemscore.DEClash>
2.1122

> <Gold.Chemscore.DEInternal>
1.5869

> <Gold.Chemscore.Rot>
1.4818

> <Gold.Chemscore.Internal.Correction>
   9.000000E+99

> <Gold.Chemscore.Hbonds>
donor molecule, donor type, donor heavy atom, donor atom, acceptor molecule, acceptor atom, score
      L1  H     3    19       P1  8028  0.86
      L1  H    11    31       P1  8028  0.53

> <Gold.Chemscore.Hbond.Weighted>
-6.2499

> <Gold.Chemscore.Metal.Weighted>
-0.0000

> <Gold.Chemscore.Lipo.Weighted>
-11.8115

> <Gold.Chemscore.Internal_Hbond.Weighted>
0.0000

> <Gold.Chemscore.DEClash.Weighted>
2.1122

> <Gold.Chemscore.DEInternal.Weighted>
1.5869

> <Gold.Chemscore.Rot.Weighted>
3.7933

> <Gold.Chemscore.Internal.Correction.Weighted>
   9.000000E+99

> <Gold.Protein.RotatedTorsions>
[ 6907 6896 6895 6894 ] final   98.85 input  -60.11 | X-H torsion
[ 7974 7965 7964 7962 ] final   -6.80 input  175.53 | X-H torsion
[ 8008 7997 7996 7995 ] final   20.22 input   59.86 | X-H torsion
[ 10167 10162 10161 10158 ] final    3.54 input  -65.29 | X-H torsion
[ 10718 10713 10712 10709 ] final   96.89 input   66.30 | X-H torsion
[ 10763 10752 10751 10750 ] final -142.02 input  -60.55 | X-H torsion
[ 11005 11000 10999 10996 ] final  -12.60 input  -57.11 | X-H torsion

> <Gold.Protein.ActiveResidues>
 VAL166  LYS551  ARG553  GLY616  TRP617  ASP618  TYR619  PRO620  LYS621  CYS622 
 ASP623  PHE694  ASN695  SER759  ASP760  ASP761  ALA762  ILE779  LEU786  VAL792 
 PHE793  MET794  SER795  GLU796  ALA797  LYS798  CYS799  TRP800  GLU811  SER814 

> <Gold.Protein.RotatedAtoms>
  152.5402  134.0518  159.8113 H   0  0  0  0  0  0  0  0  0  0  0  0  # atno 6907 bound_to 6896
  151.0659  133.5498  159.2638 H   0  0  0  0  0  0  0  0  0  0  0  0  # atno 6908 bound_to 6896
  151.2379  135.0586  159.9067 H   0  0  0  0  0  0  0  0  0  0  0  0  # atno 6909 bound_to 6896
  146.2322  140.2224  142.8338 H   0  0  0  0  0  0  0  0  0  0  0  0  # atno 7974 bound_to 7965
  154.9323  140.3042  155.5161 H   0  0  0  0  0  0  0  0  0  0  0  0  # atno 8008 bound_to 7997
  156.3002  140.2351  156.4321 H   0  0  0  0  0  0  0  0  0  0  0  0  # atno 8009 bound_to 7997
  154.8225  140.0422  157.1409 H   0  0  0  0  0  0  0  0  0  0  0  0  # atno 8010 bound_to 7997
  140.6581  143.7376  150.7689 H   0  0  0  0  0  0  0  0  0  0  0  0  # atno 10167 bound_to 10162
  157.6920  131.0592  150.4561 H   0  0  0  0  0  0  0  0  0  0  0  0  # atno 10718 bound_to 10713
  154.8524  135.3508  154.5961 H   0  0  0  0  0  0  0  0  0  0  0  0  # atno 10763 bound_to 10752
  153.6570  135.6991  153.5194 H   0  0  0  0  0  0  0  0  0  0  0  0  # atno 10764 bound_to 10752
  153.2848  135.4252  155.1070 H   0  0  0  0  0  0  0  0  0  0  0  0  # atno 10765 bound_to 10752
  140.7674  133.8466  155.9177 H   0  0  0  0  0  0  0  0  0  0  0  0  # atno 11005 bound_to 11000
  144.9621  140.8286  143.5507 LP  0  0  0  0  0  0  0  0  0  0  0  0  # atno 17320 bound_to 7965
  145.2196  139.2165  143.5100 LP  0  0  0  0  0  0  0  0  0  0  0  0  # atno 17321 bound_to 7965
  140.1039  143.4762  152.2409 LP  0  0  0  0  0  0  0  0  0  0  0  0  # atno 17342 bound_to 10162
  139.5808  144.7509  151.3646 LP  0  0  0  0  0  0  0  0  0  0  0  0  # atno 17343 bound_to 10162
  156.4908  130.4095  149.6407 LP  0  0  0  0  0  0  0  0  0  0  0  0  # atno 17370 bound_to 10713
  156.3418  130.7386  151.2332 LP  0  0  0  0  0  0  0  0  0  0  0  0  # atno 17371 bound_to 10713
  140.9606  134.1660  157.4657 LP  0  0  0  0  0  0  0  0  0  0  0  0  # atno 17394 bound_to 11000
  139.8761  134.9943  156.5688 LP  0  0  0  0  0  0  0  0  0  0  0  0  # atno 17395 bound_to 11000

$$$$
