AV-unprocessed.smi:683|AV-procd|sdf|3330|dock5
  -GOLD-   22720 0303D 1   1.00000     0.00000
 Structure written by MMmdl.
 30 31  0  0  0  0  0  0  0  0  1 V2000
  155.7184  141.0151  162.1703 N   0  0  0  0  0  0  0  0  0  0  0  0
  154.8830  141.1668  161.3842 C   0  0  0  0  0  0  0  0  0  0  0  0
  153.8340  141.3572  160.3965 C   0  0  0  0  0  0  0  0  0  0  0  0
  153.0653  142.5380  160.4043 C   0  0  0  0  0  0  0  0  0  0  0  0
  152.0498  142.7193  159.4475 C   0  0  0  0  0  0  0  0  0  0  0  0
  151.8032  141.7222  158.4847 C   0  0  0  0  0  0  0  0  0  0  0  0
  152.5635  140.5348  158.4631 C   0  0  0  0  0  0  0  0  0  0  0  0
  152.2537  139.6128  157.4863 O   0  0  0  0  0  0  0  0  0  0  0  0
  150.9123  139.5488  157.0225 C   0  0  0  0  0  0  0  0  0  0  0  0
  150.7405  140.5661  155.8840 C   0  0  0  0  0  0  0  0  0  0  0  0
  149.6292  140.2571  155.0192 N   0  0  0  0  0  0  0  0  0  0  0  0
  148.4817  141.0339  154.9747 C   0  0  0  0  0  0  0  0  0  0  0  0
  147.4225  140.7488  154.1791 C   0  0  0  0  0  0  0  0  0  0  0  0
  146.0262  141.7657  154.1801 Cl  0  0  0  0  0  0  0  0  0  0  0  0
  147.4539  139.5707  153.3129 C   0  0  0  0  0  0  0  0  0  0  0  0
  146.5532  139.2217  152.5524 O   0  0  0  0  0  0  0  0  0  0  0  0
  148.6260  138.8132  153.3972 N   0  0  0  0  0  0  0  0  0  0  0  0
  149.7198  139.0975  154.2153 C   0  0  0  0  0  0  0  0  0  0  0  0
  150.6986  138.3507  154.2135 O   0  0  0  0  0  0  0  0  0  0  0  0
  153.5853  140.3595  159.4310 C   0  0  0  0  0  0  0  0  0  0  0  0
  148.6850  137.9886  152.8172 H   0  0  0  0  0  0  0  0  0  0  0  0
  153.2491  143.3079  161.1403 H   0  0  0  0  0  0  0  0  0  0  0  0
  151.4594  143.6236  159.4515 H   0  0  0  0  0  0  0  0  0  0  0  0
  151.0220  141.8707  157.7536 H   0  0  0  0  0  0  0  0  0  0  0  0
  150.6887  138.5422  156.6660 H   0  0  0  0  0  0  0  0  0  0  0  0
  150.2215  139.7853  157.8337 H   0  0  0  0  0  0  0  0  0  0  0  0
  150.5487  141.5630  156.2839 H   0  0  0  0  0  0  0  0  0  0  0  0
  151.6330  140.6528  155.2606 H   0  0  0  0  0  0  0  0  0  0  0  0
  148.4229  141.9098  155.6053 H   0  0  0  0  0  0  0  0  0  0  0  0
  154.1895  139.4644  159.4489 H   0  0  0  0  0  0  0  0  0  0  0  0
  1  2  3  0  0  0  0
  2  3  1  0  0  0  0
  3 20  1  0  0  0  0
  3  4  2  0  0  0  0
  4  5  1  0  0  0  0
  4 22  1  0  0  0  0
  5  6  2  0  0  0  0
  5 23  1  0  0  0  0
  6  7  1  0  0  0  0
  6 24  1  0  0  0  0
  7  8  1  0  0  0  0
  7 20  2  0  0  0  0
  8  9  1  0  0  0  0
  9 10  1  0  0  0  0
  9 25  1  0  0  0  0
  9 26  1  0  0  0  0
 10 11  1  0  0  0  0
 10 27  1  0  0  0  0
 10 28  1  0  0  0  0
 11 18  1  0  0  0  0
 11 12  1  0  0  0  0
 12 13  2  0  0  0  0
 12 29  1  0  0  0  0
 13 14  1  0  0  0  0
 13 15  1  0  0  0  0
 15 16  2  0  0  0  0
 15 17  1  0  0  0  0
 17 21  1  0  0  0  0
 17 18  1  0  0  0  0
 18 19  2  0  0  0  0
 20 30  1  0  0  0  0
M  END
> <s_m_source_file>
AV-unprocessed.smi

> <i_m_source_file_index>
683

> <i_lp_mmshare_version>
43012

> <i_f3d_flags>
0

> <s_epik_input>
TiNDYzFbY0hdW2NIXVtjSF1jKFtjSF0xKU9bQ0gyXVtDSDJdbjJbY0hdYyhDbCljKD1PKVtuSF1jMj1P

> <s_epik_cmdline>
J2VwaWtfcHl0aG9uJywgJy1waCcsICc3LjAnLCAnLXRuJywgJzgnLCAnLW1hJywgJzIwMCcsICctbWV0YWxfYmluZGluZycsICctaW1hZScsICc8aW5maWxlLm1hZT4nLCAnLW9tYWUnLCAnPG91dGZpbGUubWFlPic=

> <r_lp_tautomer_probability>
0.999537

> <r_epik_Ionization_Penalty>
0.0498777

> <r_epik_Ionization_Penalty_Charging>
0.0498777

> <r_epik_Ionization_Penalty_Neutral>
0

> <r_epik_State_Penalty>
0.042632

> <r_epik_Charging_Adjusted_Penalty>
0.0925097

> <i_epik_Tot_Q>
0

> <i_epik_Tot_abs_Q>
0

> <r_epik_Metal_State_Penalty>
2.56282

> <b_epik_Metal_Only>
0

> <s_lp_Force_Field>
OPLS_2005

> <r_lp_Energy>
12.7666

> <b_lp_Chiralities_Consistent>
1

> <s_lp_Variant>
AV-unprocessed.smi:683-1

> <Gold.Version>
5.8.1

> <Gold.Id.Protein>
6NUR|6NUR_protein|mol2

> <Gold.PLP.Fitness>
45.9008

> <Gold.PLP.PLP>
-41.4924

> <Gold.PLP.part.hbond>
-2.9401

> <Gold.PLP.part.metal>
0.0000

> <Gold.PLP.part.buried>
-1.9899

> <Gold.PLP.part.nonpolar>
-37.0794

> <Gold.PLP.part.repulsive>
1.3950

> <Gold.PLP.ligand.clash>
0.0000

> <Gold.PLP.ligand.torsion>
0.7146

> <Gold.PLP.Chemscore.Hbond>
0.9588

> <Gold.PLP.Chemscore.CHOScore>
0.9802

> <Gold.PLP.Chemscore.Metal>
0.0000

> <Gold.Chemscore.Hbonds>
donor molecule, donor type, donor heavy atom, donor atom, acceptor molecule, acceptor atom, score
      L1  H    17    21       P1  7948  1.00
      P1  H  7997  8010       L1     8  0.04
      L1  C    12    29       P1  8028  0.23

> <Gold.PLP.Chemscore.Internal.Correction>
0.0207

> <Gold.Rescore>
     Score         DG    S(hbond)    S(metal)    S(lipo)     H(rot)  DE(clash)    DE(int)     intcor
     10.77     -12.28       0.99        0.00      74.13       2.03       0.02       1.49       ----

> <Gold.Chemscore.Fitness>
10.7668

> <Gold.Chemscore.DG>
-12.2762

> <Gold.Chemscore.ZeroCoef>
-5.4800

> <Gold.Chemscore.Hbond>
0.9906

> <Gold.Chemscore.Metal>
0.0000

> <Gold.Chemscore.Lipo>
74.1331

> <Gold.Chemscore.Internal_Hbond>
0.0000

> <Gold.Chemscore.DEClash>
0.0186

> <Gold.Chemscore.DEInternal>
1.4908

> <Gold.Chemscore.Rot>
2.0258

> <Gold.Chemscore.Internal.Correction>
   9.000000E+99

> <Gold.Chemscore.Hbonds>
donor molecule, donor type, donor heavy atom, donor atom, acceptor molecule, acceptor atom, score
      L1  H    17    21       P1  7948  0.97

> <Gold.Chemscore.Hbond.Weighted>
-3.3086

> <Gold.Chemscore.Metal.Weighted>
-0.0000

> <Gold.Chemscore.Lipo.Weighted>
-8.6736

> <Gold.Chemscore.Internal_Hbond.Weighted>
0.0000

> <Gold.Chemscore.DEClash.Weighted>
0.0186

> <Gold.Chemscore.DEInternal.Weighted>
1.4908

> <Gold.Chemscore.Rot.Weighted>
5.1860

> <Gold.Chemscore.Internal.Correction.Weighted>
   9.000000E+99

> <Gold.Protein.RotatedTorsions>
[ 6907 6896 6895 6894 ] final  -41.09 input  -60.11 | X-H torsion
[ 7974 7965 7964 7962 ] final  -65.00 input  175.53 | X-H torsion
[ 8008 7997 7996 7995 ] final   53.06 input   59.86 | X-H torsion
[ 10167 10162 10161 10158 ] final  -48.02 input  -65.29 | X-H torsion
[ 10718 10713 10712 10709 ] final  -53.59 input   66.30 | X-H torsion
[ 10763 10752 10751 10750 ] final  139.98 input  -60.55 | X-H torsion
[ 11005 11000 10999 10996 ] final  144.60 input  -57.11 | X-H torsion

> <Gold.Protein.ActiveResidues>
 VAL166  LYS551  ARG553  GLY616  TRP617  ASP618  TYR619  PRO620  LYS621  CYS622 
 ASP623  PHE694  ASN695  SER759  ASP760  ASP761  ALA762  ILE779  LEU786  VAL792 
 PHE793  MET794  SER795  GLU796  ALA797  LYS798  CYS799  TRP800  GLU811  SER814 

> <Gold.Protein.RotatedAtoms>
  150.9708  134.9081  159.7786 H   0  0  0  0  0  0  0  0  0  0  0  0  # atno 6907 bound_to 6896
  152.5189  134.3543  159.9272 H   0  0  0  0  0  0  0  0  0  0  0  0  # atno 6908 bound_to 6896
  151.3552  133.3869  159.2719 H   0  0  0  0  0  0  0  0  0  0  0  0  # atno 6909 bound_to 6896
  145.7597  140.8867  143.0436 H   0  0  0  0  0  0  0  0  0  0  0  0  # atno 7974 bound_to 7965
  155.4620  140.3462  155.4314 H   0  0  0  0  0  0  0  0  0  0  0  0  # atno 8008 bound_to 7997
  156.1155  140.1472  156.9308 H   0  0  0  0  0  0  0  0  0  0  0  0  # atno 8009 bound_to 7997
  154.4786  140.0877  156.7301 H   0  0  0  0  0  0  0  0  0  0  0  0  # atno 8010 bound_to 7997
  140.6749  143.2758  151.4011 H   0  0  0  0  0  0  0  0  0  0  0  0  # atno 10167 bound_to 10162
  156.1522  130.4151  149.9926 H   0  0  0  0  0  0  0  0  0  0  0  0  # atno 10718 bound_to 10713
  153.9152  135.3006  155.3448 H   0  0  0  0  0  0  0  0  0  0  0  0  # atno 10763 bound_to 10752
  154.7603  135.4937  153.9455 H   0  0  0  0  0  0  0  0  0  0  0  0  # atno 10764 bound_to 10752
  153.1171  135.6773  153.9501 H   0  0  0  0  0  0  0  0  0  0  0  0  # atno 10765 bound_to 10752
  140.0645  134.9186  157.1242 H   0  0  0  0  0  0  0  0  0  0  0  0  # atno 11005 bound_to 11000
  144.6833  139.9705  143.7482 LP  0  0  0  0  0  0  0  0  0  0  0  0  # atno 17320 bound_to 7965
  146.0276  139.3306  143.0775 LP  0  0  0  0  0  0  0  0  0  0  0  0  # atno 17321 bound_to 7965
  139.6036  144.1243  152.2225 LP  0  0  0  0  0  0  0  0  0  0  0  0  # atno 17342 bound_to 10162
  140.0635  144.5837  150.7245 LP  0  0  0  0  0  0  0  0  0  0  0  0  # atno 17343 bound_to 10162
  156.7780  130.9211  151.3645 LP  0  0  0  0  0  0  0  0  0  0  0  0  # atno 17370 bound_to 10713
  157.6666  130.9013  149.9946 LP  0  0  0  0  0  0  0  0  0  0  0  0  # atno 17371 bound_to 10713
  140.3719  134.2381  155.7177 LP  0  0  0  0  0  0  0  0  0  0  0  0  # atno 17394 bound_to 11000
  141.1987  133.8029  157.0570 LP  0  0  0  0  0  0  0  0  0  0  0  0  # atno 17395 bound_to 11000

$$$$
