AV-unprocessed.smi:2062|AV-procd|sdf|8402|dock1
  -GOLD-   2272011 83D 1   1.00000     0.00000
 Structure written by MMmdl.
 42 43  0  0  0  0  0  0  0  0  3 V2000
  144.2417  133.8930  150.9429 C   0  0  0  0  0  0  0  0  0  0  0  0
  145.5457  134.5988  151.3433 C   0  0  0  0  0  0  0  0  0  0  0  0
  146.7453  133.6529  151.1646 C   0  0  0  0  0  0  0  0  0  0  0  0
  145.4469  135.1395  152.7863 C   0  0  0  0  0  0  0  0  0  0  0  0
  146.2818  136.3458  153.0204 N   0  3  1  0  0  0  0  0  0  0  0  0
  145.8844  137.5132  152.1948 C   0  0  0  0  0  0  0  0  0  0  0  0
  146.8048  138.7105  152.4794 C   0  0  0  0  0  0  0  0  0  0  0  0
  146.7719  139.0083  153.8674 O   0  0  0  0  0  0  0  0  0  0  0  0
  147.2618  137.9357  154.6654 C   0  0  1  0  0  0  0  0  0  0  0  0
  147.2954  138.3792  156.1385 C   0  0  0  0  0  0  0  0  0  0  0  0
  147.5221  137.2492  157.0330 N   0  0  0  0  0  0  0  0  0  0  0  0
  147.7198  137.3203  158.3568 C   0  0  0  0  0  0  0  0  0  0  0  0
  147.6899  138.4133  158.9269 O   0  0  0  0  0  0  0  0  0  0  0  0
  147.9455  136.1200  158.9360 N   0  5  0  0  0  0  0  0  0  0  0  0
  147.6996  135.9499  160.2453 C   0  0  0  0  0  0  0  0  0  0  0  0
  147.4888  136.9696  161.0856 N   0  0  0  0  0  0  0  0  0  0  0  0
  147.2568  136.5655  162.4017 C   0  0  0  0  0  0  0  0  0  0  0  0
  147.2994  135.2067  162.5688 C   0  0  0  0  0  0  0  0  0  0  0  0
  147.6358  134.3893  161.0693 S   0  0  0  0  0  0  0  0  0  0  0  0
  146.3383  136.7204  154.4538 C   0  0  0  0  0  0  0  0  0  0  0  0
  144.0431  133.0314  151.5814 H   0  0  0  0  0  0  0  0  0  0  0  0
  144.2856  133.5400  149.9121 H   0  0  0  0  0  0  0  0  0  0  0  0
  143.3888  134.5679  151.0209 H   0  0  0  0  0  0  0  0  0  0  0  0
  145.6715  135.4334  150.6545 H   0  0  0  0  0  0  0  0  0  0  0  0
  146.6748  132.7922  151.8305 H   0  0  0  0  0  0  0  0  0  0  0  0
  147.6883  134.1591  151.3720 H   0  0  0  0  0  0  0  0  0  0  0  0
  146.7980  133.2770  150.1424 H   0  0  0  0  0  0  0  0  0  0  0  0
  144.4110  135.3692  153.0402 H   0  0  0  0  0  0  0  0  0  0  0  0
  145.7571  134.3471  153.4695 H   0  0  0  0  0  0  0  0  0  0  0  0
  145.9343  137.2698  151.1343 H   0  0  0  0  0  0  0  0  0  0  0  0
  144.8499  137.7820  152.4139 H   0  0  0  0  0  0  0  0  0  0  0  0
  147.8278  138.5047  152.1605 H   0  0  0  0  0  0  0  0  0  0  0  0
  146.4668  139.5847  151.9227 H   0  0  0  0  0  0  0  0  0  0  0  0
  148.2760  137.6807  154.3511 H   0  0  0  0  0  0  0  0  0  0  0  0
  148.0438  139.1580  156.2943 H   0  0  0  0  0  0  0  0  0  0  0  0
  146.3353  138.8178  156.4115 H   0  0  0  0  0  0  0  0  0  0  0  0
  147.5486  136.3317  156.6127 H   0  0  0  0  0  0  0  0  0  0  0  0
  147.0707  137.3143  163.1569 H   0  0  0  0  0  0  0  0  0  0  0  0
  147.1561  134.6393  163.4759 H   0  0  0  0  0  0  0  0  0  0  0  0
  145.3318  136.9438  154.8121 H   0  0  0  0  0  0  0  0  0  0  0  0
  146.7069  135.8760  155.0379 H   0  0  0  0  0  0  0  0  0  0  0  0
  147.2256  136.1018  152.7553 H   0  0  0  0  0  0  0  0  0  0  0  0
  1  2  1  0  0  0  0
  1 21  1  0  0  0  0
  1 22  1  0  0  0  0
  1 23  1  0  0  0  0
  2  3  1  0  0  0  0
  2  4  1  0  0  0  0
  2 24  1  0  0  0  0
  3 25  1  0  0  0  0
  3 26  1  0  0  0  0
  3 27  1  0  0  0  0
  4  5  1  0  0  0  0
  4 28  1  0  0  0  0
  4 29  1  0  0  0  0
  5 20  1  0  0  0  0
  5  6  1  0  0  0  0
  5 42  1  0  0  0  0
  6  7  1  0  0  0  0
  6 30  1  0  0  0  0
  6 31  1  0  0  0  0
  7  8  1  0  0  0  0
  7 32  1  0  0  0  0
  7 33  1  0  0  0  0
  8  9  1  0  0  0  0
  9 10  1  0  0  0  0
  9 20  1  0  0  0  0
  9 34  1  0  0  0  0
 10 11  1  0  0  0  0
 10 35  1  0  0  0  0
 10 36  1  0  0  0  0
 11 12  1  0  0  0  0
 11 37  1  0  0  0  0
 12 13  2  0  0  0  0
 12 14  1  0  0  0  0
 14 15  1  0  0  0  0
 15 19  1  0  0  0  0
 15 16  2  0  0  0  0
 16 17  1  0  0  0  0
 17 18  2  0  0  0  0
 17 38  1  0  0  0  0
 18 19  1  0  0  0  0
 18 39  1  0  0  0  0
 20 40  1  0  0  0  0
 20 41  1  0  0  0  0
M  CHG  1   5   1
M  CHG  1  14  -1
M  END
> <s_m_source_file>
AV-unprocessed.smi

> <i_m_source_file_index>
2062

> <i_lp_mmshare_version>
43012

> <i_f3d_flags>
0

> <s_epik_input>
W0NIM11bQ0hdKFtDSDNdKVtDSDJdTjFbQ0gyXVtDSDJdT1tDQEhdKFtDSDJdMSlbQ0gyXVtOSF1DKD1PKVtOSF1jMm5bY0hdW2NIXXMy

> <s_epik_cmdline>
J2VwaWtfcHl0aG9uJywgJy1waCcsICc3LjAnLCAnLXRuJywgJzgnLCAnLW1hJywgJzIwMCcsICctbWV0YWxfYmluZGluZycsICctaW1hZScsICc8aW5maWxlLm1hZT4nLCAnLW9tYWUnLCAnPG91dGZpbGUubWFlPic=

> <r_lp_tautomer_probability>
0.999

> <r_epik_Ionization_Penalty>
6.35835

> <r_epik_Ionization_Penalty_Charging>
5.49938

> <r_epik_Ionization_Penalty_Neutral>
0.858963

> <r_epik_State_Penalty>
5.49328

> <r_epik_Charging_Adjusted_Penalty>
10.9927

> <i_epik_Tot_Q>
0

> <i_epik_Tot_abs_Q>
2

> <r_epik_Metal_State_Penalty>
1.51523

> <b_epik_Metal_Only>
1

> <s_lp_Force_Field>
OPLS_2005

> <r_lp_Energy>
7.56536

> <b_lp_Chiralities_Consistent>
1

> <s_lp_Variant>
AV-unprocessed.smi:2062-7

> <Gold.Version>
5.8.1

> <Gold.Id.Protein>
6NUR|6NUR_protein|mol2

> <Gold.PLP.Fitness>
39.0693

> <Gold.PLP.PLP>
-30.5318

> <Gold.PLP.part.hbond>
-4.0000

> <Gold.PLP.part.metal>
0.0000

> <Gold.PLP.part.buried>
-4.6573

> <Gold.PLP.part.nonpolar>
-23.1522

> <Gold.PLP.part.repulsive>
0.1780

> <Gold.PLP.ligand.clash>
0.0000

> <Gold.PLP.ligand.torsion>
0.5864

> <Gold.PLP.Chemscore.Hbond>
3.1856

> <Gold.PLP.Chemscore.CHOScore>
0.0000

> <Gold.PLP.Chemscore.Metal>
0.0000

> <Gold.Chemscore.Hbonds>
donor molecule, donor type, donor heavy atom, donor atom, acceptor molecule, acceptor atom, score
      L1  H     5    42       P1  7948  2.00
      P1  H  6931  6943       L1    16  0.19
      P1  H  6934  6947       L1    16  0.88

> <Gold.PLP.Chemscore.Internal.Correction>
0.1534

> <Gold.Rescore>
     Score         DG    S(hbond)    S(metal)    S(lipo)     H(rot)  DE(clash)    DE(int)     intcor
     12.44     -14.69       1.89        0.00      62.30       1.72       0.09       2.16       ----

> <Gold.Chemscore.Fitness>
12.4379

> <Gold.Chemscore.DG>
-14.6865

> <Gold.Chemscore.ZeroCoef>
-5.4800

> <Gold.Chemscore.Hbond>
1.8919

> <Gold.Chemscore.Metal>
0.0000

> <Gold.Chemscore.Lipo>
62.3027

> <Gold.Chemscore.Internal_Hbond>
0.0000

> <Gold.Chemscore.DEClash>
0.0855

> <Gold.Chemscore.DEInternal>
2.1631

> <Gold.Chemscore.Rot>
1.7194

> <Gold.Chemscore.Internal.Correction>
   9.000000E+99

> <Gold.Chemscore.Hbonds>
donor molecule, donor type, donor heavy atom, donor atom, acceptor molecule, acceptor atom, score
      L1  H     5    42       P1  7948  0.99
      P1  H  6934  6947       L1    16  0.57

> <Gold.Chemscore.Hbond.Weighted>
-6.3188

> <Gold.Chemscore.Metal.Weighted>
-0.0000

> <Gold.Chemscore.Lipo.Weighted>
-7.2894

> <Gold.Chemscore.Internal_Hbond.Weighted>
0.0000

> <Gold.Chemscore.DEClash.Weighted>
0.0855

> <Gold.Chemscore.DEInternal.Weighted>
2.1631

> <Gold.Chemscore.Rot.Weighted>
4.4017

> <Gold.Chemscore.Internal.Correction.Weighted>
   9.000000E+99

> <Gold.Protein.RotatedTorsions>
[ 6907 6896 6895 6894 ] final   -7.03 input  -60.11 | X-H torsion
[ 7974 7965 7964 7962 ] final  176.42 input  175.53 | X-H torsion
[ 8008 7997 7996 7995 ] final  -42.65 input   59.86 | X-H torsion
[ 10167 10162 10161 10158 ] final  -73.96 input  -65.29 | X-H torsion
[ 10718 10713 10712 10709 ] final   47.87 input   66.30 | X-H torsion
[ 10763 10752 10751 10750 ] final   95.86 input  -60.55 | X-H torsion
[ 11005 11000 10999 10996 ] final   11.03 input  -57.11 | X-H torsion

> <Gold.Protein.ActiveResidues>
 VAL166  LYS551  ARG553  GLY616  TRP617  ASP618  TYR619  PRO620  LYS621  CYS622 
 ASP623  PHE694  ASN695  SER759  ASP760  ASP761  ALA762  ILE779  LEU786  VAL792 
 PHE793  MET794  SER795  GLU796  ALA797  LYS798  CYS799  TRP800  GLU811  SER814 

> <Gold.Protein.RotatedAtoms>
  151.4561  135.1034  159.9711 H   0  0  0  0  0  0  0  0  0  0  0  0  # atno 6907 bound_to 6896
  152.4870  133.8395  159.7156 H   0  0  0  0  0  0  0  0  0  0  0  0  # atno 6908 bound_to 6896
  150.8989  133.7085  159.2911 H   0  0  0  0  0  0  0  0  0  0  0  0  # atno 6909 bound_to 6896
  144.7184  140.0095  143.6440 H   0  0  0  0  0  0  0  0  0  0  0  0  # atno 7974 bound_to 7965
  154.3998  140.1468  156.3389 H   0  0  0  0  0  0  0  0  0  0  0  0  # atno 8008 bound_to 7997
  155.8374  140.3463  155.5589 H   0  0  0  0  0  0  0  0  0  0  0  0  # atno 8009 bound_to 7997
  155.8123  140.0886  157.1887 H   0  0  0  0  0  0  0  0  0  0  0  0  # atno 8010 bound_to 7997
  140.5067  143.2351  151.7662 H   0  0  0  0  0  0  0  0  0  0  0  0  # atno 10167 bound_to 10162
  157.4629  130.8207  149.7905 H   0  0  0  0  0  0  0  0  0  0  0  0  # atno 10718 bound_to 10713
  153.2582  135.4239  155.0867 H   0  0  0  0  0  0  0  0  0  0  0  0  # atno 10763 bound_to 10752
  154.8409  135.3442  154.6416 H   0  0  0  0  0  0  0  0  0  0  0  0  # atno 10764 bound_to 10752
  153.6836  135.7037  153.5167 H   0  0  0  0  0  0  0  0  0  0  0  0  # atno 10765 bound_to 10752
  140.5078  134.0682  155.7810 H   0  0  0  0  0  0  0  0  0  0  0  0  # atno 11005 bound_to 11000
  146.0270  139.3301  143.0778 LP  0  0  0  0  0  0  0  0  0  0  0  0  # atno 17320 bound_to 7965
  145.8499  140.9534  143.0755 LP  0  0  0  0  0  0  0  0  0  0  0  0  # atno 17321 bound_to 7965
  139.4885  144.4447  151.9724 LP  0  0  0  0  0  0  0  0  0  0  0  0  # atno 17342 bound_to 10162
  140.3538  144.3057  150.5945 LP  0  0  0  0  0  0  0  0  0  0  0  0  # atno 17343 bound_to 10162
  156.0037  130.3867  150.2511 LP  0  0  0  0  0  0  0  0  0  0  0  0  # atno 17370 bound_to 10713
  157.0689  131.0111  151.3197 LP  0  0  0  0  0  0  0  0  0  0  0  0  # atno 17371 bound_to 10713
  141.1401  133.9152  157.2344 LP  0  0  0  0  0  0  0  0  0  0  0  0  # atno 17394 bound_to 11000
  139.9676  135.0137  156.9428 LP  0  0  0  0  0  0  0  0  0  0  0  0  # atno 17395 bound_to 11000

$$$$
