AV-unprocessed.smi:3166|AV-procd|sdf|12093|dock3
  -GOLD-   2272017523D 1   1.00000     0.00000
 Structure written by MMmdl.
 41 42  0  0  0  0  0  0  0  0  2 V2000
  148.5034  141.3732  156.4418 C   0  0  0  0  0  0  0  0  0  0  0  0
  149.9956  141.6344  156.1933 C   0  0  2  0  0  0  0  0  0  0  0  0
  150.8670  140.4772  156.7412 C   0  0  0  0  0  0  0  0  0  0  0  0
  150.9426  139.3599  155.8176 N   0  0  0  0  0  0  0  0  0  0  0  0
  151.6500  138.1842  155.9561 C   0  0  0  0  0  0  0  0  0  0  0  0
  151.4131  137.4336  154.8403 C   0  0  0  0  0  0  0  0  0  0  0  0
  150.5363  138.2447  154.0672 C   0  0  0  0  0  0  0  0  0  0  0  0
  150.2570  139.3968  154.6551 N   0  0  0  0  0  0  0  0  0  0  0  0
  150.3681  142.9338  156.7959 N   0  3  0  0  0  0  0  0  0  0  0  0
  150.2569  143.0079  158.2693 C   0  0  0  0  0  0  0  0  0  0  0  0
  151.1090  144.1544  158.8651 C   0  0  0  0  0  0  0  0  0  0  0  0
  150.6541  145.3581  158.2763 O   0  0  0  0  0  0  0  0  0  0  0  0
  150.9787  144.2843  160.4029 C   0  0  0  0  0  0  0  0  0  0  0  0
  151.6547  143.1198  161.1477 C   0  0  0  0  0  0  0  0  0  0  0  0
  153.1326  142.9890  160.7478 C   0  0  0  0  0  0  0  0  0  0  0  0
  153.2937  142.8520  159.2258 C   0  0  0  0  0  0  0  0  0  0  0  0
  152.6003  144.0079  158.4810 C   0  0  0  0  0  0  0  0  0  0  0  0
  148.1846  140.4439  155.9683 H   0  0  0  0  0  0  0  0  0  0  0  0
  147.8900  142.1758  156.0309 H   0  0  0  0  0  0  0  0  0  0  0  0
  148.2838  141.2973  157.5074 H   0  0  0  0  0  0  0  0  0  0  0  0
  150.1256  141.7197  155.1128 H   0  0  0  0  0  0  0  0  0  0  0  0
  151.8794  140.8106  156.9753 H   0  0  0  0  0  0  0  0  0  0  0  0
  150.4606  140.0985  157.6802 H   0  0  0  0  0  0  0  0  0  0  0  0
  152.2555  137.9812  156.8273 H   0  0  0  0  0  0  0  0  0  0  0  0
  151.8061  136.4541  154.6110 H   0  0  0  0  0  0  0  0  0  0  0  0
  150.0973  138.0319  153.1035 H   0  0  0  0  0  0  0  0  0  0  0  0
  151.3348  143.1160  156.5665 H   0  0  0  0  0  0  0  0  0  0  0  0
  149.2117  143.1450  158.5365 H   0  0  0  0  0  0  0  0  0  0  0  0
  150.5657  142.0523  158.6955 H   0  0  0  0  0  0  0  0  0  0  0  0
  149.7286  145.2760  158.1003 H   0  0  0  0  0  0  0  0  0  0  0  0
  151.4459  145.2155  160.7277 H   0  0  0  0  0  0  0  0  0  0  0  0
  149.9333  144.3591  160.7034 H   0  0  0  0  0  0  0  0  0  0  0  0
  151.5781  143.2775  162.2238 H   0  0  0  0  0  0  0  0  0  0  0  0
  151.1314  142.1861  160.9402 H   0  0  0  0  0  0  0  0  0  0  0  0
  153.6810  143.8663  161.0932 H   0  0  0  0  0  0  0  0  0  0  0  0
  153.5796  142.1297  161.2489 H   0  0  0  0  0  0  0  0  0  0  0  0
  154.3533  142.8338  158.9694 H   0  0  0  0  0  0  0  0  0  0  0  0
  152.8878  141.8950  158.8971 H   0  0  0  0  0  0  0  0  0  0  0  0
  152.7043  143.8678  157.4041 H   0  0  0  0  0  0  0  0  0  0  0  0
  153.1299  144.9327  158.7157 H   0  0  0  0  0  0  0  0  0  0  0  0
  149.8006  143.6613  156.3854 H   0  0  0  0  0  0  0  0  0  0  0  0
  1  2  1  0  0  0  0
  1 18  1  0  0  0  0
  1 19  1  0  0  0  0
  1 20  1  0  0  0  0
  2  3  1  0  0  0  0
  2  9  1  0  0  0  0
  2 21  1  0  0  0  0
  3  4  1  0  0  0  0
  3 22  1  0  0  0  0
  3 23  1  0  0  0  0
  4  8  1  0  0  0  0
  4  5  1  0  0  0  0
  5  6  2  0  0  0  0
  5 24  1  0  0  0  0
  6  7  1  0  0  0  0
  6 25  1  0  0  0  0
  7  8  2  0  0  0  0
  7 26  1  0  0  0  0
  9 10  1  0  0  0  0
  9 27  1  0  0  0  0
  9 41  1  0  0  0  0
 10 11  1  0  0  0  0
 10 28  1  0  0  0  0
 10 29  1  0  0  0  0
 11 17  1  0  0  0  0
 11 12  1  0  0  0  0
 11 13  1  0  0  0  0
 12 30  1  0  0  0  0
 13 14  1  0  0  0  0
 13 31  1  0  0  0  0
 13 32  1  0  0  0  0
 14 15  1  0  0  0  0
 14 33  1  0  0  0  0
 14 34  1  0  0  0  0
 15 16  1  0  0  0  0
 15 35  1  0  0  0  0
 15 36  1  0  0  0  0
 16 17  1  0  0  0  0
 16 37  1  0  0  0  0
 16 38  1  0  0  0  0
 17 39  1  0  0  0  0
 17 40  1  0  0  0  0
M  CHG  1   9   1
M  END
> <s_m_source_file>
AV-unprocessed.smi

> <i_m_source_file_index>
3166

> <i_lp_mmshare_version>
43012

> <i_f3d_flags>
0

> <s_epik_input>
bjFbY0hdW2NIXVtjSF1uMVtDSDJdW0NAQEhdKFtDSDNdKVtOSF1bQ0gyXUMyKFtPSF0pW0NIMl1bQ0gyXVtDSDJdW0NIMl1bQ0gyXTI=

> <s_epik_cmdline>
J2VwaWtfcHl0aG9uJywgJy1waCcsICc3LjAnLCAnLXRuJywgJzgnLCAnLW1hJywgJzIwMCcsICctbWV0YWxfYmluZGluZycsICctaW1hZScsICc8aW5maWxlLm1hZT4nLCAnLW9tYWUnLCAnPG91dGZpbGUubWFlPic=

> <r_lp_tautomer_probability>
1

> <r_epik_Ionization_Penalty>
0.0111521

> <r_epik_Ionization_Penalty_Charging>
0.0111472

> <r_epik_Ionization_Penalty_Neutral>
4.96355e-06

> <r_epik_State_Penalty>
0.00856328

> <r_epik_Charging_Adjusted_Penalty>
0.0197104

> <i_epik_Tot_Q>
1

> <i_epik_Tot_abs_Q>
1

> <r_epik_Metal_State_Penalty>
0.00856387

> <b_epik_Metal_Only>
0

> <s_lp_Force_Field>
OPLS_2005

> <r_lp_Energy>
18.587

> <b_lp_Chiralities_Consistent>
1

> <s_lp_Variant>
AV-unprocessed.smi:3166-1

> <Gold.Version>
5.8.1

> <Gold.Id.Protein>
6NUR|6NUR_protein|mol2

> <Gold.PLP.Fitness>
51.0463

> <Gold.PLP.PLP>
-35.6547

> <Gold.PLP.part.hbond>
-3.9434

> <Gold.PLP.part.metal>
0.0000

> <Gold.PLP.part.buried>
-2.0795

> <Gold.PLP.part.nonpolar>
-32.1804

> <Gold.PLP.part.repulsive>
0.1756

> <Gold.PLP.ligand.clash>
0.0000

> <Gold.PLP.ligand.torsion>
0.3592

> <Gold.PLP.Chemscore.Hbond>
3.6975

> <Gold.PLP.Chemscore.CHOScore>
1.6618

> <Gold.PLP.Chemscore.Metal>
0.0000

> <Gold.Chemscore.Hbonds>
donor molecule, donor type, donor heavy atom, donor atom, acceptor molecule, acceptor atom, score
      L1  H     9    41       P1  8028  2.00
      L1  H    12    30       P1  8029  0.83
      P1  H  7989  7998       L1     8  0.26
      L1  C     7    26       P1  7948  1.00
      L1  C     7    26       P1  7949  0.04
      L1  C     7    26       P1  7957  0.26

> <Gold.PLP.Chemscore.Internal.Correction>
0.0322

> <Gold.Rescore>
     Score         DG    S(hbond)    S(metal)    S(lipo)     H(rot)  DE(clash)    DE(int)     intcor
     17.89     -19.84       1.85        0.00     118.08       2.20       1.22       0.73       ----

> <Gold.Chemscore.Fitness>
17.8914

> <Gold.Chemscore.DG>
-19.8391

> <Gold.Chemscore.ZeroCoef>
-5.4800

> <Gold.Chemscore.Hbond>
1.8485

> <Gold.Chemscore.Metal>
0.0000

> <Gold.Chemscore.Lipo>
118.0770

> <Gold.Chemscore.Internal_Hbond>
0.0000

> <Gold.Chemscore.DEClash>
1.2187

> <Gold.Chemscore.DEInternal>
0.7290

> <Gold.Chemscore.Rot>
2.1991

> <Gold.Chemscore.Internal.Correction>
   9.000000E+99

> <Gold.Chemscore.Hbonds>
donor molecule, donor type, donor heavy atom, donor atom, acceptor molecule, acceptor atom, score
      L1  H     9    41       P1  8028  0.97
      L1  H    12    30       P1  8029  0.20
      P1  H  7989  7998       L1     8  0.02

> <Gold.Chemscore.Hbond.Weighted>
-6.1739

> <Gold.Chemscore.Metal.Weighted>
-0.0000

> <Gold.Chemscore.Lipo.Weighted>
-13.8150

> <Gold.Chemscore.Internal_Hbond.Weighted>
0.0000

> <Gold.Chemscore.DEClash.Weighted>
1.2187

> <Gold.Chemscore.DEInternal.Weighted>
0.7290

> <Gold.Chemscore.Rot.Weighted>
5.6298

> <Gold.Chemscore.Internal.Correction.Weighted>
   9.000000E+99

> <Gold.Protein.RotatedTorsions>
[ 6907 6896 6895 6894 ] final   69.24 input  -60.11 | X-H torsion
[ 7974 7965 7964 7962 ] final -124.54 input  175.53 | X-H torsion
[ 8008 7997 7996 7995 ] final   53.10 input   59.86 | X-H torsion
[ 10167 10162 10161 10158 ] final  -24.72 input  -65.29 | X-H torsion
[ 10718 10713 10712 10709 ] final  -84.59 input   66.30 | X-H torsion
[ 10763 10752 10751 10750 ] final -134.13 input  -60.55 | X-H torsion
[ 11005 11000 10999 10996 ] final  -48.08 input  -57.11 | X-H torsion

> <Gold.Protein.ActiveResidues>
 VAL166  LYS551  ARG553  GLY616  TRP617  ASP618  TYR619  PRO620  LYS621  CYS622 
 ASP623  PHE694  ASN695  SER759  ASP760  ASP761  ALA762  ILE779  LEU786  VAL792 
 PHE793  MET794  SER795  GLU796  ALA797  LYS798  CYS799  TRP800  GLU811  SER814 

> <Gold.Protein.RotatedAtoms>
  152.4673  134.5044  159.9734 H   0  0  0  0  0  0  0  0  0  0  0  0  # atno 6907 bound_to 6896
  151.5079  133.3485  159.2888 H   0  0  0  0  0  0  0  0  0  0  0  0  # atno 6908 bound_to 6896
  150.8664  134.8057  159.7184 H   0  0  0  0  0  0  0  0  0  0  0  0  # atno 6909 bound_to 6896
  145.0070  140.7872  143.4461 H   0  0  0  0  0  0  0  0  0  0  0  0  # atno 7974 bound_to 7965
  155.4626  140.3462  155.4315 H   0  0  0  0  0  0  0  0  0  0  0  0  # atno 8008 bound_to 7997
  156.1151  140.1471  156.9313 H   0  0  0  0  0  0  0  0  0  0  0  0  # atno 8009 bound_to 7997
  154.4783  140.0878  156.7295 H   0  0  0  0  0  0  0  0  0  0  0  0  # atno 8010 bound_to 7997
  140.7288  143.4328  151.0776 H   0  0  0  0  0  0  0  0  0  0  0  0  # atno 10167 bound_to 10162
  156.0005  130.4703  150.4433 H   0  0  0  0  0  0  0  0  0  0  0  0  # atno 10718 bound_to 10713
  154.8723  135.3744  154.4686 H   0  0  0  0  0  0  0  0  0  0  0  0  # atno 10763 bound_to 10752
  153.5348  135.7027  153.5670 H   0  0  0  0  0  0  0  0  0  0  0  0  # atno 10764 bound_to 10752
  153.3859  135.3985  155.1854 H   0  0  0  0  0  0  0  0  0  0  0  0  # atno 10765 bound_to 10752
  141.0679  133.6688  156.3390 H   0  0  0  0  0  0  0  0  0  0  0  0  # atno 11005 bound_to 11000
  145.2075  139.2221  143.5160 LP  0  0  0  0  0  0  0  0  0  0  0  0  # atno 17320 bound_to 7965
  146.3463  140.1906  142.8589 LP  0  0  0  0  0  0  0  0  0  0  0  0  # atno 17321 bound_to 7965
  139.7986  143.8115  152.3160 LP  0  0  0  0  0  0  0  0  0  0  0  0  # atno 17342 bound_to 10162
  139.8124  144.7330  150.9679 LP  0  0  0  0  0  0  0  0  0  0  0  0  # atno 17343 bound_to 10162
  157.2473  131.0538  151.2401 LP  0  0  0  0  0  0  0  0  0  0  0  0  # atno 17370 bound_to 10713
  157.3563  130.7108  149.6473 LP  0  0  0  0  0  0  0  0  0  0  0  0  # atno 17371 bound_to 10713
  140.5734  134.5818  157.5463 LP  0  0  0  0  0  0  0  0  0  0  0  0  # atno 17394 bound_to 11000
  139.9495  134.7643  156.0483 LP  0  0  0  0  0  0  0  0  0  0  0  0  # atno 17395 bound_to 11000

$$$$
