AV-unprocessed.smi:1046|AV-procd|sdf|4558|dock7
  -GOLD-   22720 2593D 1   1.00000     0.00000
 Structure written by MMmdl.
 54 56  0  0  0  0  0  0  0  0  3 V2000
  145.9022  129.9296  151.7158 C   0  0  0  0  0  0  0  0  0  0  0  0
  145.7809  131.4391  151.8378 C   0  0  0  0  0  0  0  0  0  0  0  0
  144.8223  132.1053  151.0416 C   0  0  0  0  0  0  0  0  0  0  0  0
  144.7370  133.4863  151.1734 C   0  0  0  0  0  0  0  0  0  0  0  0
  143.9115  134.4157  150.5376 N   0  3  0  0  0  0  0  0  0  0  0  0
  144.1964  135.6657  150.9964 C   0  0  0  0  0  0  0  0  0  0  0  0
  145.1931  135.5489  151.9155 N   0  0  0  0  0  0  0  0  0  0  0  0
  145.8604  136.5895  152.7115 C   0  0  0  0  0  0  0  0  0  0  0  0
  146.1515  137.8717  151.9041 C   0  0  2  0  0  0  0  0  0  0  0  0
  146.6567  137.5267  150.6306 O   0  0  0  0  0  0  0  0  0  0  0  0
  147.1963  138.7765  152.5868 C   0  0  0  0  0  0  0  0  0  0  0  0
  146.9865  139.0137  154.0199 N   0  0  0  0  0  0  0  0  0  0  0  0
  147.7757  138.1162  154.8633 C   0  0  0  0  0  0  0  0  0  0  0  0
  149.2832  138.4429  154.8588 C   0  0  0  0  0  0  0  0  0  0  0  0
  149.5104  139.8479  155.2848 N   0  3  0  0  0  0  0  0  0  0  0  0
  150.9535  140.1885  155.3676 C   0  0  0  0  0  0  0  0  0  0  0  0
  151.6917  139.3874  156.4537 C   0  0  0  0  0  0  0  0  0  0  0  0
  153.0526  139.2392  156.1066 O   0  0  0  0  0  0  0  0  0  0  0  0
  148.7215  140.7853  154.4415 C   0  0  0  0  0  0  0  0  0  0  0  0
  147.2299  140.3918  154.4545 C   0  0  0  0  0  0  0  0  0  0  0  0
  145.5618  134.2057  152.0601 C   0  0  0  0  0  0  0  0  0  0  0  0
  146.5111  133.5638  152.8528 C   0  0  0  0  0  0  0  0  0  0  0  0
  146.6139  132.1594  152.7327 C   0  0  0  0  0  0  0  0  0  0  0  0
  147.6416  131.4334  153.5842 C   0  0  0  0  0  0  0  0  0  0  0  0
  145.2364  129.5368  150.9466 H   0  0  0  0  0  0  0  0  0  0  0  0
  145.6435  129.4482  152.6592 H   0  0  0  0  0  0  0  0  0  0  0  0
  146.9205  129.6460  151.4490 H   0  0  0  0  0  0  0  0  0  0  0  0
  144.1841  131.5635  150.3588 H   0  0  0  0  0  0  0  0  0  0  0  0
  143.7166  136.5833  150.6876 H   0  0  0  0  0  0  0  0  0  0  0  0
  145.2000  136.8191  153.5485 H   0  0  0  0  0  0  0  0  0  0  0  0
  146.7715  136.1810  153.1493 H   0  0  0  0  0  0  0  0  0  0  0  0
  145.2244  138.4188  151.7357 H   0  0  0  0  0  0  0  0  0  0  0  0
  145.9820  137.6842  149.9879 H   0  0  0  0  0  0  0  0  0  0  0  0
  148.1750  138.3144  152.4477 H   0  0  0  0  0  0  0  0  0  0  0  0
  147.2457  139.7260  152.0544 H   0  0  0  0  0  0  0  0  0  0  0  0
  147.4056  138.1755  155.8878 H   0  0  0  0  0  0  0  0  0  0  0  0
  147.6198  137.0823  154.5526 H   0  0  0  0  0  0  0  0  0  0  0  0
  149.7972  137.7670  155.5434 H   0  0  0  0  0  0  0  0  0  0  0  0
  149.7158  138.2777  153.8712 H   0  0  0  0  0  0  0  0  0  0  0  0
  151.4335  139.9887  154.4083 H   0  0  0  0  0  0  0  0  0  0  0  0
  151.0637  141.2593  155.5457 H   0  0  0  0  0  0  0  0  0  0  0  0
  151.6395  139.9215  157.4028 H   0  0  0  0  0  0  0  0  0  0  0  0
  151.2445  138.4080  156.6207 H   0  0  0  0  0  0  0  0  0  0  0  0
  153.1072  138.7488  155.2997 H   0  0  0  0  0  0  0  0  0  0  0  0
  148.8179  141.8020  154.8202 H   0  0  0  0  0  0  0  0  0  0  0  0
  149.1132  140.7938  153.4238 H   0  0  0  0  0  0  0  0  0  0  0  0
  146.6546  141.0924  153.8508 H   0  0  0  0  0  0  0  0  0  0  0  0
  146.8498  140.5100  155.4701 H   0  0  0  0  0  0  0  0  0  0  0  0
  147.1502  134.1104  153.5304 H   0  0  0  0  0  0  0  0  0  0  0  0
  148.1577  132.1185  154.2575 H   0  0  0  0  0  0  0  0  0  0  0  0
  148.3921  130.9567  152.9532 H   0  0  0  0  0  0  0  0  0  0  0  0
  147.1636  130.6664  154.1942 H   0  0  0  0  0  0  0  0  0  0  0  0
  149.1477  139.9184  156.2252 H   0  0  0  0  0  0  0  0  0  0  0  0
  143.2041  134.2145  149.8423 H   0  0  0  0  0  0  0  0  0  0  0  0
  1  2  1  0  0  0  0
  1 25  1  0  0  0  0
  1 26  1  0  0  0  0
  1 27  1  0  0  0  0
  2 23  1  0  0  0  0
  2  3  2  0  0  0  0
  3  4  1  0  0  0  0
  3 28  1  0  0  0  0
  4 21  2  0  0  0  0
  4  5  1  0  0  0  0
  5  6  2  0  0  0  0
  5 54  1  0  0  0  0
  6  7  1  0  0  0  0
  6 29  1  0  0  0  0
  7  8  1  0  0  0  0
  7 21  1  0  0  0  0
  8  9  1  0  0  0  0
  8 30  1  0  0  0  0
  8 31  1  0  0  0  0
  9 10  1  0  0  0  0
  9 11  1  0  0  0  0
  9 32  1  0  0  0  0
 10 33  1  0  0  0  0
 11 12  1  0  0  0  0
 11 34  1  0  0  0  0
 11 35  1  0  0  0  0
 12 20  1  0  0  0  0
 12 13  1  0  0  0  0
 13 14  1  0  0  0  0
 13 36  1  0  0  0  0
 13 37  1  0  0  0  0
 14 15  1  0  0  0  0
 14 38  1  0  0  0  0
 14 39  1  0  0  0  0
 15 16  1  0  0  0  0
 15 19  1  0  0  0  0
 15 53  1  0  0  0  0
 16 17  1  0  0  0  0
 16 40  1  0  0  0  0
 16 41  1  0  0  0  0
 17 18  1  0  0  0  0
 17 42  1  0  0  0  0
 17 43  1  0  0  0  0
 18 44  1  0  0  0  0
 19 20  1  0  0  0  0
 19 45  1  0  0  0  0
 19 46  1  0  0  0  0
 20 47  1  0  0  0  0
 20 48  1  0  0  0  0
 21 22  1  0  0  0  0
 22 23  2  0  0  0  0
 22 49  1  0  0  0  0
 23 24  1  0  0  0  0
 24 50  1  0  0  0  0
 24 51  1  0  0  0  0
 24 52  1  0  0  0  0
M  CHG  1   5   1
M  CHG  1  15   1
M  END
> <s_m_source_file>
AV-unprocessed.smi

> <i_m_source_file_index>
1046

> <i_lp_mmshare_version>
43012

> <i_f3d_flags>
0

> <s_epik_input>
W0NIM11jKFtjSF0xKWMoW0NIM10pW2NIXWMoYzEyKW4oW2NIXW4yKVtDSDJdW0NASF0oW09IXSlbQ0gyXU4zW0NIMl1bQ0gyXU4oW0NIMl1bQ0gyXTMpW0NIMl1bQ0gyXVtPSF0=

> <s_epik_cmdline>
J2VwaWtfcHl0aG9uJywgJy1waCcsICc3LjAnLCAnLXRuJywgJzgnLCAnLW1hJywgJzIwMCcsICctbWV0YWxfYmluZGluZycsICctaW1hZScsICc8aW5maWxlLm1hZT4nLCAnLW9tYWUnLCAnPG91dGZpbGUubWFlPic=

> <r_epik_Ionization_Penalty>
1.37806

> <r_epik_Ionization_Penalty_Charging>
1.32954

> <r_epik_Ionization_Penalty_Neutral>
0.0485178

> <r_epik_State_Penalty>
2.26587

> <r_epik_Charging_Adjusted_Penalty>
3.59541

> <i_epik_Tot_Q>
2

> <i_epik_Tot_abs_Q>
2

> <r_epik_Metal_State_Penalty>
6.27317

> <b_epik_Metal_Only>
0

> <s_lp_Force_Field>
OPLS_2005

> <r_lp_Energy>
41.5641

> <b_lp_Chiralities_Consistent>
1

> <s_lp_Variant>
AV-unprocessed.smi:1046-11

> <Gold.Version>
5.8.1

> <Gold.Id.Protein>
6NUR|6NUR_protein|mol2

> <Gold.PLP.Fitness>
56.5196

> <Gold.PLP.PLP>
-41.0103

> <Gold.PLP.part.hbond>
-4.7592

> <Gold.PLP.part.metal>
0.0000

> <Gold.PLP.part.buried>
-0.8804

> <Gold.PLP.part.nonpolar>
-35.9489

> <Gold.PLP.part.repulsive>
0.2498

> <Gold.PLP.ligand.clash>
0.0000

> <Gold.PLP.ligand.torsion>
1.2310

> <Gold.PLP.Chemscore.Hbond>
4.9760

> <Gold.PLP.Chemscore.CHOScore>
1.0000

> <Gold.PLP.Chemscore.Metal>
0.0000

> <Gold.Chemscore.Hbonds>
donor molecule, donor type, donor heavy atom, donor atom, acceptor molecule, acceptor atom, score
      L1  H     5    54       P1 10186  0.82
      L1  H    10    33       P1 10171  0.31
      P1  H  7954  7966       L1    10  1.00
      P1  H  7997  8009       L1    18  1.00
      L1  C     6    29       P1 10171  1.00

> <Gold.PLP.Chemscore.Internal.Correction>
0.0433

> <Gold.Rescore>
     Score         DG    S(hbond)    S(metal)    S(lipo)     H(rot)  DE(clash)    DE(int)     intcor
     19.40     -21.49       3.66        0.00     104.40       3.29       0.83       1.26       ----

> <Gold.Chemscore.Fitness>
19.3960

> <Gold.Chemscore.DG>
-21.4884

> <Gold.Chemscore.ZeroCoef>
-5.4800

> <Gold.Chemscore.Hbond>
3.6574

> <Gold.Chemscore.Metal>
0.0000

> <Gold.Chemscore.Lipo>
104.3955

> <Gold.Chemscore.Internal_Hbond>
0.0000

> <Gold.Chemscore.DEClash>
0.8350

> <Gold.Chemscore.DEInternal>
1.2574

> <Gold.Chemscore.Rot>
3.2896

> <Gold.Chemscore.Internal.Correction>
   9.000000E+99

> <Gold.Chemscore.Hbonds>
donor molecule, donor type, donor heavy atom, donor atom, acceptor molecule, acceptor atom, score
      L1  H     5    54       P1 10186  0.40
      L1  H    10    33       P1 10171  0.31
      P1  H  7954  7966       L1    10  0.58
      P1  H  7997  8009       L1    18  0.59

> <Gold.Chemscore.Hbond.Weighted>
-12.2156

> <Gold.Chemscore.Metal.Weighted>
-0.0000

> <Gold.Chemscore.Lipo.Weighted>
-12.2143

> <Gold.Chemscore.Internal_Hbond.Weighted>
0.0000

> <Gold.Chemscore.DEClash.Weighted>
0.8350

> <Gold.Chemscore.DEInternal.Weighted>
1.2574

> <Gold.Chemscore.Rot.Weighted>
8.4215

> <Gold.Chemscore.Internal.Correction.Weighted>
   9.000000E+99

> <Gold.Protein.RotatedTorsions>
[ 6907 6896 6895 6894 ] final  113.89 input  -60.11 | X-H torsion
[ 7974 7965 7964 7962 ] final  -20.53 input  175.53 | X-H torsion
[ 8008 7997 7996 7995 ] final -153.83 input   59.86 | X-H torsion
[ 10167 10162 10161 10158 ] final  -86.58 input  -65.29 | X-H torsion
[ 10718 10713 10712 10709 ] final  -12.93 input   66.30 | X-H torsion
[ 10763 10752 10751 10750 ] final  124.93 input  -60.55 | X-H torsion
[ 11005 11000 10999 10996 ] final  -33.95 input  -57.11 | X-H torsion

> <Gold.Protein.ActiveResidues>
 VAL166  LYS551  ARG553  GLY616  TRP617  ASP618  TYR619  PRO620  LYS621  CYS622 
 ASP623  PHE694  ASN695  SER759  ASP760  ASP761  ALA762  ILE779  LEU786  VAL792 
 PHE793  MET794  SER795  GLU796  ALA797  LYS798  CYS799  TRP800  GLU811  SER814 

> <Gold.Protein.RotatedAtoms>
  152.4834  133.8312  159.7103 H   0  0  0  0  0  0  0  0  0  0  0  0  # atno 6907 bound_to 6896
  150.8902  133.7244  159.2913 H   0  0  0  0  0  0  0  0  0  0  0  0  # atno 6908 bound_to 6896
  151.4720  135.1050  159.9806 H   0  0  0  0  0  0  0  0  0  0  0  0  # atno 6909 bound_to 6896
  146.1783  140.4215  142.8504 H   0  0  0  0  0  0  0  0  0  0  0  0  # atno 7974 bound_to 7965
  155.6769  140.0740  157.2499 H   0  0  0  0  0  0  0  0  0  0  0  0  # atno 8008 bound_to 7997
  154.4113  140.1689  156.1992 H   0  0  0  0  0  0  0  0  0  0  0  0  # atno 8009 bound_to 7997
  155.9568  140.3373  155.6459 H   0  0  0  0  0  0  0  0  0  0  0  0  # atno 8010 bound_to 7997
  140.3927  143.2697  151.9244 H   0  0  0  0  0  0  0  0  0  0  0  0  # atno 10167 bound_to 10162
  156.6376  130.4919  149.6106 H   0  0  0  0  0  0  0  0  0  0  0  0  # atno 10718 bound_to 10713
  153.6693  135.3333  155.3149 H   0  0  0  0  0  0  0  0  0  0  0  0  # atno 10763 bound_to 10752
  154.8495  135.4382  154.1722 H   0  0  0  0  0  0  0  0  0  0  0  0  # atno 10764 bound_to 10752
  153.2709  135.7000  153.7558 H   0  0  0  0  0  0  0  0  0  0  0  0  # atno 10765 bound_to 10752
  140.9676  133.7128  156.1471 H   0  0  0  0  0  0  0  0  0  0  0  0  # atno 11005 bound_to 11000
  144.8272  140.6648  143.6314 LP  0  0  0  0  0  0  0  0  0  0  0  0  # atno 17320 bound_to 7965
  145.4149  139.1574  143.4106 LP  0  0  0  0  0  0  0  0  0  0  0  0  # atno 17321 bound_to 7965
  139.4788  144.5711  151.8086 LP  0  0  0  0  0  0  0  0  0  0  0  0  # atno 17342 bound_to 10162
  140.4823  144.1432  150.5935 LP  0  0  0  0  0  0  0  0  0  0  0  0  # atno 17343 bound_to 10162
  156.2185  130.6722  151.1343 LP  0  0  0  0  0  0  0  0  0  0  0  0  # atno 17370 bound_to 10713
  157.7181  131.0698  150.6247 LP  0  0  0  0  0  0  0  0  0  0  0  0  # atno 17371 bound_to 10713
  140.7376  134.4186  157.5559 LP  0  0  0  0  0  0  0  0  0  0  0  0  # atno 17394 bound_to 11000
  139.8900  134.8815  156.2390 LP  0  0  0  0  0  0  0  0  0  0  0  0  # atno 17395 bound_to 11000

$$$$
