AV-unprocessed.smi:3231|AV-procd|sdf|12338|dock3
  -GOLD-   2272018193D 1   1.00000     0.00000
 Structure written by MMmdl.
 40 41  0  0  0  0  0  0  0  0  1 V2000
  145.8928  140.7752  153.8178 O   0  0  0  0  0  0  0  0  0  0  0  0
  146.9406  139.8310  153.9196 C   0  0  1  0  0  0  0  0  0  0  0  0
  147.0575  139.1388  152.5495 C   0  0  0  0  0  0  0  0  0  0  0  0
  145.7471  138.7415  152.0412 N   0  0  0  0  0  0  0  0  0  0  0  0
  145.3982  137.3608  152.3587 C   0  0  0  0  0  0  0  0  0  0  0  0
  145.5132  136.4639  151.1185 C   0  0  0  0  0  0  0  0  0  0  0  0
  145.1892  135.0845  151.4264 N   0  0  0  0  0  0  0  0  0  0  0  0
  145.1556  134.0011  150.5740 C   0  0  0  0  0  0  0  0  0  0  0  0
  144.8022  132.9110  151.3168 C   0  0  0  0  0  0  0  0  0  0  0  0
  144.6390  133.4349  152.6297 C   0  0  0  0  0  0  0  0  0  0  0  0
  144.8713  134.7363  152.6921 N   0  0  0  0  0  0  0  0  0  0  0  0
  148.2363  140.5821  154.2982 C   0  0  0  0  0  0  0  0  0  0  0  0
  149.2631  139.7700  154.9533 N   0  0  0  0  0  0  0  0  0  0  0  0
  150.4252  140.5547  155.3647 C   0  0  0  0  0  0  0  0  0  0  0  0
  151.5074  139.6801  156.0222 C   0  0  0  0  0  0  0  0  0  0  0  0
  151.8870  138.6353  155.1326 O   0  0  0  0  0  0  0  0  0  0  0  0
  150.7873  137.8171  154.7478 C   0  0  0  0  0  0  0  0  0  0  0  0
  149.7079  138.6876  154.0815 C   0  0  0  0  0  0  0  0  0  0  0  0
  145.2369  140.4275  153.2327 H   0  0  0  0  0  0  0  0  0  0  0  0
  146.7041  139.0914  154.6865 H   0  0  0  0  0  0  0  0  0  0  0  0
  147.5727  139.7836  151.8361 H   0  0  0  0  0  0  0  0  0  0  0  0
  147.6725  138.2442  152.6541 H   0  0  0  0  0  0  0  0  0  0  0  0
  145.0356  139.3662  152.4076 H   0  0  0  0  0  0  0  0  0  0  0  0
  146.0511  136.9834  153.1466 H   0  0  0  0  0  0  0  0  0  0  0  0
  144.3796  137.3152  152.7466 H   0  0  0  0  0  0  0  0  0  0  0  0
  144.8453  136.8114  150.3288 H   0  0  0  0  0  0  0  0  0  0  0  0
  146.5264  136.4995  150.7156 H   0  0  0  0  0  0  0  0  0  0  0  0
  145.3836  134.0946  149.5224 H   0  0  0  0  0  0  0  0  0  0  0  0
  144.6790  131.8941  150.9749 H   0  0  0  0  0  0  0  0  0  0  0  0
  144.3608  132.9118  153.5328 H   0  0  0  0  0  0  0  0  0  0  0  0
  148.6714  140.9685  153.3758 H   0  0  0  0  0  0  0  0  0  0  0  0
  148.0059  141.4650  154.8972 H   0  0  0  0  0  0  0  0  0  0  0  0
  150.8503  141.0674  154.5006 H   0  0  0  0  0  0  0  0  0  0  0  0
  150.1268  141.3277  156.0724 H   0  0  0  0  0  0  0  0  0  0  0  0
  152.3850  140.2800  156.2631 H   0  0  0  0  0  0  0  0  0  0  0  0
  151.1432  139.2546  156.9586 H   0  0  0  0  0  0  0  0  0  0  0  0
  151.1373  137.0510  154.0558 H   0  0  0  0  0  0  0  0  0  0  0  0
  150.3844  137.3017  155.6209 H   0  0  0  0  0  0  0  0  0  0  0  0
  148.8592  138.0594  153.8080 H   0  0  0  0  0  0  0  0  0  0  0  0
  150.1029  139.1002  153.1517 H   0  0  0  0  0  0  0  0  0  0  0  0
  1  2  1  0  0  0  0
  1 19  1  0  0  0  0
  2  3  1  0  0  0  0
  2 12  1  0  0  0  0
  2 20  1  0  0  0  0
  3  4  1  0  0  0  0
  3 21  1  0  0  0  0
  3 22  1  0  0  0  0
  4  5  1  0  0  0  0
  4 23  1  0  0  0  0
  5  6  1  0  0  0  0
  5 24  1  0  0  0  0
  5 25  1  0  0  0  0
  6  7  1  0  0  0  0
  6 26  1  0  0  0  0
  6 27  1  0  0  0  0
  7 11  1  0  0  0  0
  7  8  1  0  0  0  0
  8  9  2  0  0  0  0
  8 28  1  0  0  0  0
  9 10  1  0  0  0  0
  9 29  1  0  0  0  0
 10 11  2  0  0  0  0
 10 30  1  0  0  0  0
 12 13  1  0  0  0  0
 12 31  1  0  0  0  0
 12 32  1  0  0  0  0
 13 18  1  0  0  0  0
 13 14  1  0  0  0  0
 14 15  1  0  0  0  0
 14 33  1  0  0  0  0
 14 34  1  0  0  0  0
 15 16  1  0  0  0  0
 15 35  1  0  0  0  0
 15 36  1  0  0  0  0
 16 17  1  0  0  0  0
 17 18  1  0  0  0  0
 17 37  1  0  0  0  0
 17 38  1  0  0  0  0
 18 39  1  0  0  0  0
 18 40  1  0  0  0  0
M  END
> <s_m_source_file>
AV-unprocessed.smi

> <i_m_source_file_index>
3231

> <i_lp_mmshare_version>
43012

> <i_f3d_flags>
0

> <s_epik_input>
W0NIMl0xW0NIMl1PW0NIMl1bQ0gyXU4xW0NIMl1bQ0BIXShbT0hdKVtDSDJdW05IXVtDSDJdW0NIMl1uMltjSF1bY0hdW2NIXW4y

> <s_epik_cmdline>
J2VwaWtfcHl0aG9uJywgJy1waCcsICc3LjAnLCAnLXRuJywgJzgnLCAnLW1hJywgJzIwMCcsICctbWV0YWxfYmluZGluZycsICctaW1hZScsICc8aW5maWxlLm1hZT4nLCAnLW9tYWUnLCAnPG91dGZpbGUubWFlPic=

> <r_lp_tautomer_probability>
1

> <r_epik_Ionization_Penalty>
2.37071

> <r_epik_Ionization_Penalty_Charging>
0

> <r_epik_Ionization_Penalty_Neutral>
2.37071

> <r_epik_State_Penalty>
1.72455

> <r_epik_Charging_Adjusted_Penalty>
1.72455

> <i_epik_Tot_Q>
0

> <i_epik_Tot_abs_Q>
0

> <r_epik_Metal_State_Penalty>
1.72366

> <b_epik_Metal_Only>
0

> <s_lp_Force_Field>
OPLS_2005

> <r_lp_Energy>
35.5688

> <b_lp_Chiralities_Consistent>
1

> <s_lp_Variant>
AV-unprocessed.smi:3231-8

> <Gold.Version>
5.8.1

> <Gold.Id.Protein>
6NUR|6NUR_protein|mol2

> <Gold.PLP.Fitness>
41.2829

> <Gold.PLP.PLP>
-31.1082

> <Gold.PLP.part.hbond>
-3.0000

> <Gold.PLP.part.metal>
0.0000

> <Gold.PLP.part.buried>
-0.4365

> <Gold.PLP.part.nonpolar>
-27.9949

> <Gold.PLP.part.repulsive>
0.1826

> <Gold.PLP.ligand.clash>
0.0000

> <Gold.PLP.ligand.torsion>
0.9346

> <Gold.PLP.Chemscore.Hbond>
1.9600

> <Gold.PLP.Chemscore.CHOScore>
1.9999

> <Gold.PLP.Chemscore.Metal>
0.0000

> <Gold.Chemscore.Hbonds>
donor molecule, donor type, donor heavy atom, donor atom, acceptor molecule, acceptor atom, score
      L1  H     1    19       P1 10175  1.00
      L1  H     4    23       P1 10175  1.00
      L1  C     8    28       P1  7921  1.00
      L1  C    10    30       P1 10957  1.00

> <Gold.PLP.Chemscore.Internal.Correction>
0.1643

> <Gold.Rescore>
     Score         DG    S(hbond)    S(metal)    S(lipo)     H(rot)  DE(clash)    DE(int)     intcor
     12.59     -13.66       1.90        0.00      75.26       2.72       0.10       0.98       ----

> <Gold.Chemscore.Fitness>
12.5887

> <Gold.Chemscore.DG>
-13.6624

> <Gold.Chemscore.ZeroCoef>
-5.4800

> <Gold.Chemscore.Hbond>
1.8968

> <Gold.Chemscore.Metal>
0.0000

> <Gold.Chemscore.Lipo>
75.2635

> <Gold.Chemscore.Internal_Hbond>
0.0000

> <Gold.Chemscore.DEClash>
0.0962

> <Gold.Chemscore.DEInternal>
0.9776

> <Gold.Chemscore.Rot>
2.7183

> <Gold.Chemscore.Internal.Correction>
   9.000000E+99

> <Gold.Chemscore.Hbonds>
donor molecule, donor type, donor heavy atom, donor atom, acceptor molecule, acceptor atom, score
      L1  H     1    19       P1 10175  0.94
      L1  H     4    23       P1 10175  1.00

> <Gold.Chemscore.Hbond.Weighted>
-6.3354

> <Gold.Chemscore.Metal.Weighted>
-0.0000

> <Gold.Chemscore.Lipo.Weighted>
-8.8058

> <Gold.Chemscore.Internal_Hbond.Weighted>
0.0000

> <Gold.Chemscore.DEClash.Weighted>
0.0962

> <Gold.Chemscore.DEInternal.Weighted>
0.9776

> <Gold.Chemscore.Rot.Weighted>
6.9589

> <Gold.Chemscore.Internal.Correction.Weighted>
   9.000000E+99

> <Gold.Protein.RotatedTorsions>
[ 6907 6896 6895 6894 ] final  149.28 input  -60.11 | X-H torsion
[ 7974 7965 7964 7962 ] final  -63.57 input  175.53 | X-H torsion
[ 8008 7997 7996 7995 ] final  106.07 input   59.86 | X-H torsion
[ 10167 10162 10161 10158 ] final  -51.09 input  -65.29 | X-H torsion
[ 10718 10713 10712 10709 ] final   32.14 input   66.30 | X-H torsion
[ 10763 10752 10751 10750 ] final  -78.15 input  -60.55 | X-H torsion
[ 11005 11000 10999 10996 ] final   41.10 input  -57.11 | X-H torsion

> <Gold.Protein.ActiveResidues>
 VAL166  LYS551  ARG553  GLY616  TRP617  ASP618  TYR619  PRO620  LYS621  CYS622 
 ASP623  PHE694  ASN695  SER759  ASP760  ASP761  ALA762  ILE779  LEU786  VAL792 
 PHE793  MET794  SER795  GLU796  ALA797  LYS798  CYS799  TRP800  GLU811  SER814 

> <Gold.Protein.RotatedAtoms>
  152.1302  133.4403  159.4716 H   0  0  0  0  0  0  0  0  0  0  0  0  # atno 6907 bound_to 6896
  150.6877  134.2430  159.4489 H   0  0  0  0  0  0  0  0  0  0  0  0  # atno 6908 bound_to 6896
  152.0313  134.9766  160.0623 H   0  0  0  0  0  0  0  0  0  0  0  0  # atno 6909 bound_to 6896
  145.7774  140.8780  143.0348 H   0  0  0  0  0  0  0  0  0  0  0  0  # atno 7974 bound_to 7965
  156.1712  140.3119  155.8977 H   0  0  0  0  0  0  0  0  0  0  0  0  # atno 8008 bound_to 7997
  155.3582  140.0475  157.3063 H   0  0  0  0  0  0  0  0  0  0  0  0  # atno 8009 bound_to 7997
  154.5243  140.2209  155.8929 H   0  0  0  0  0  0  0  0  0  0  0  0  # atno 8010 bound_to 7997
  140.6605  143.2633  151.4453 H   0  0  0  0  0  0  0  0  0  0  0  0  # atno 10167 bound_to 10162
  157.2815  130.7257  149.6559 H   0  0  0  0  0  0  0  0  0  0  0  0  # atno 10718 bound_to 10713
  154.5222  135.5739  153.6690 H   0  0  0  0  0  0  0  0  0  0  0  0  # atno 10763 bound_to 10752
  152.9920  135.6184  154.2739 H   0  0  0  0  0  0  0  0  0  0  0  0  # atno 10764 bound_to 10752
  154.2661  135.2854  155.2737 H   0  0  0  0  0  0  0  0  0  0  0  0  # atno 10765 bound_to 10752
  140.1867  134.4037  155.8169 H   0  0  0  0  0  0  0  0  0  0  0  0  # atno 11005 bound_to 11000
  144.6802  139.9941  143.7484 LP  0  0  0  0  0  0  0  0  0  0  0  0  # atno 17320 bound_to 7965
  146.0109  139.3169  143.0871 LP  0  0  0  0  0  0  0  0  0  0  0  0  # atno 17321 bound_to 7965
  139.5838  144.1649  152.2003 LP  0  0  0  0  0  0  0  0  0  0  0  0  # atno 17342 bound_to 10162
  140.0983  144.5562  150.7007 LP  0  0  0  0  0  0  0  0  0  0  0  0  # atno 17343 bound_to 10162
  155.9664  130.4337  150.5016 LP  0  0  0  0  0  0  0  0  0  0  0  0  # atno 17370 bound_to 10713
  157.2961  131.0636  151.2101 LP  0  0  0  0  0  0  0  0  0  0  0  0  # atno 17371 bound_to 10713
  141.2225  133.7026  156.8025 LP  0  0  0  0  0  0  0  0  0  0  0  0  # atno 17394 bound_to 11000
  140.2205  134.8760  157.3372 LP  0  0  0  0  0  0  0  0  0  0  0  0  # atno 17395 bound_to 11000

$$$$
