AV-unprocessed.smi:750|AV-procd|sdf|3590|dock4
  -GOLD-   22720 0583D 1   1.00000     0.00000
 Structure written by MMmdl.
 22 23  0  0  0  0  0  0  0  0  2 V2000
  150.5414  139.7646  158.4246 C   0  0  0  0  0  0  0  0  0  0  0  0
  151.0830  140.7849  157.4016 C   0  0  1  0  0  0  0  0  0  0  0  0
  151.4985  142.1100  158.0633 C   0  0  0  0  0  0  0  0  0  0  0  0
  152.5097  142.1769  159.0522 C   0  0  0  0  0  0  0  0  0  0  0  0
  152.8406  143.4232  159.6174 C   0  0  0  0  0  0  0  0  0  0  0  0
  152.1493  144.5658  159.1734 C   0  0  0  0  0  0  0  0  0  0  0  0
  151.1829  144.5258  158.2335 N   0  0  0  0  0  0  0  0  0  0  0  0
  150.8729  143.3260  157.6967 C   0  0  0  0  0  0  0  0  0  0  0  0
  152.1423  140.1644  156.6285 N   0  0  0  0  0  0  0  0  0  0  0  0
  151.8368  140.1053  155.3337 C   0  0  0  0  0  0  0  0  0  0  0  0
  152.6118  139.6279  154.5081 O   0  0  0  0  0  0  0  0  0  0  0  0
  150.6128  140.6256  155.1222 N   0  5  0  0  0  0  0  0  0  0  0  0
  150.0638  141.0475  156.2823 C   0  0  0  0  0  0  0  0  0  0  0  0
  148.9597  141.5472  156.4961 O   0  0  0  0  0  0  0  0  0  0  0  0
  149.6644  140.1403  158.9522 H   0  0  0  0  0  0  0  0  0  0  0  0
  151.2969  139.5227  159.1726 H   0  0  0  0  0  0  0  0  0  0  0  0
  150.2493  138.8307  157.9419 H   0  0  0  0  0  0  0  0  0  0  0  0
  153.0367  141.2956  159.3853 H   0  0  0  0  0  0  0  0  0  0  0  0
  153.6080  143.5007  160.3733 H   0  0  0  0  0  0  0  0  0  0  0  0
  152.3788  145.5379  159.5839 H   0  0  0  0  0  0  0  0  0  0  0  0
  150.0980  143.3431  156.9450 H   0  0  0  0  0  0  0  0  0  0  0  0
  153.0067  139.8352  157.0321 H   0  0  0  0  0  0  0  0  0  0  0  0
  1  2  1  0  0  0  0
  1 15  1  0  0  0  0
  1 16  1  0  0  0  0
  1 17  1  0  0  0  0
  2 13  1  0  0  0  0
  2  3  1  0  0  0  0
  2  9  1  0  0  0  0
  3  8  1  0  0  0  0
  3  4  2  0  0  0  0
  4  5  1  0  0  0  0
  4 18  1  0  0  0  0
  5  6  2  0  0  0  0
  5 19  1  0  0  0  0
  6  7  1  0  0  0  0
  6 20  1  0  0  0  0
  7  8  2  0  0  0  0
  8 21  1  0  0  0  0
  9 10  1  0  0  0  0
  9 22  1  0  0  0  0
 10 11  2  0  0  0  0
 10 12  1  0  0  0  0
 12 13  1  0  0  0  0
 13 14  2  0  0  0  0
M  CHG  1  12  -1
M  END
> <s_m_source_file>
AV-unprocessed.smi

> <i_m_source_file_index>
750

> <i_lp_mmshare_version>
43012

> <i_f3d_flags>
0

> <s_epik_input>
Tz1DMVtOSF1DKD1PKVtOSF1bQ0BAXTEoW0NIM10pYzJbY0hdW2NIXVtjSF1uW2NIXTI=

> <s_epik_cmdline>
J2VwaWtfcHl0aG9uJywgJy1waCcsICc3LjAnLCAnLXRuJywgJzgnLCAnLW1hJywgJzIwMCcsICctbWV0YWxfYmluZGluZycsICctaW1hZScsICc8aW5maWxlLm1hZT4nLCAnLW9tYWUnLCAnPG91dGZpbGUubWFlPic=

> <r_epik_Ionization_Penalty>
1.82311

> <r_epik_Ionization_Penalty_Charging>
1.82122

> <r_epik_Ionization_Penalty_Neutral>
0.00188516

> <r_epik_State_Penalty>
1.93645

> <r_epik_Charging_Adjusted_Penalty>
3.75767

> <i_epik_Tot_Q>
-1

> <i_epik_Tot_abs_Q>
1

> <r_epik_Metal_State_Penalty>
0.533589

> <b_epik_Metal_Only>
0

> <s_lp_Force_Field>
OPLS_2005

> <r_lp_Energy>
8.30846

> <b_lp_Chiralities_Consistent>
1

> <s_lp_Variant>
AV-unprocessed.smi:750-3

> <Gold.Version>
5.8.1

> <Gold.Id.Protein>
6NUR|6NUR_protein|mol2

> <Gold.PLP.Fitness>
36.5937

> <Gold.PLP.PLP>
-28.0698

> <Gold.PLP.part.hbond>
-2.1043

> <Gold.PLP.part.metal>
0.0000

> <Gold.PLP.part.buried>
-2.8693

> <Gold.PLP.part.nonpolar>
-23.0122

> <Gold.PLP.part.repulsive>
0.8046

> <Gold.PLP.ligand.clash>
0.0000

> <Gold.PLP.ligand.torsion>
0.0423

> <Gold.PLP.Chemscore.Hbond>
1.8420

> <Gold.PLP.Chemscore.CHOScore>
1.0000

> <Gold.PLP.Chemscore.Metal>
0.0000

> <Gold.Chemscore.Hbonds>
donor molecule, donor type, donor heavy atom, donor atom, acceptor molecule, acceptor atom, score
      P1  H  7997  8008       L1    11  0.10
      L1  C     8    21       P1  8028  1.00

> <Gold.PLP.Chemscore.Internal.Correction>
0.0826

> <Gold.Rescore>
     Score         DG    S(hbond)    S(metal)    S(lipo)     H(rot)  DE(clash)    DE(int)     intcor
     11.54     -13.63       0.95        0.00      64.47       1.00       0.07       2.02       ----

> <Gold.Chemscore.Fitness>
11.5446

> <Gold.Chemscore.DG>
-13.6318

> <Gold.Chemscore.ZeroCoef>
-5.4800

> <Gold.Chemscore.Hbond>
0.9489

> <Gold.Chemscore.Metal>
0.0000

> <Gold.Chemscore.Lipo>
64.4658

> <Gold.Chemscore.Internal_Hbond>
0.0000

> <Gold.Chemscore.DEClash>
0.0721

> <Gold.Chemscore.DEInternal>
2.0151

> <Gold.Chemscore.Rot>
1.0000

> <Gold.Chemscore.Internal.Correction>
   9.000000E+99

> <Gold.Chemscore.Hbonds>
donor molecule, donor type, donor heavy atom, donor atom, acceptor molecule, acceptor atom, score
      P1  H  7997  8008       L1    11  0.01

> <Gold.Chemscore.Hbond.Weighted>
-3.1694

> <Gold.Chemscore.Metal.Weighted>
-0.0000

> <Gold.Chemscore.Lipo.Weighted>
-7.5425

> <Gold.Chemscore.Internal_Hbond.Weighted>
0.0000

> <Gold.Chemscore.DEClash.Weighted>
0.0721

> <Gold.Chemscore.DEInternal.Weighted>
2.0151

> <Gold.Chemscore.Rot.Weighted>
2.5600

> <Gold.Chemscore.Internal.Correction.Weighted>
   9.000000E+99

> <Gold.Protein.RotatedTorsions>
[ 6907 6896 6895 6894 ] final    6.45 input  -60.11 | X-H torsion
[ 7974 7965 7964 7962 ] final -161.37 input  175.53 | X-H torsion
[ 8008 7997 7996 7995 ] final   -4.15 input   59.86 | X-H torsion
[ 10167 10162 10161 10158 ] final  -81.73 input  -65.29 | X-H torsion
[ 10718 10713 10712 10709 ] final   17.90 input   66.30 | X-H torsion
[ 10763 10752 10751 10750 ] final  -17.88 input  -60.55 | X-H torsion
[ 11005 11000 10999 10996 ] final  -47.91 input  -57.11 | X-H torsion

> <Gold.Protein.ActiveResidues>
 VAL166  LYS551  ARG553  GLY616  TRP617  ASP618  TYR619  PRO620  LYS621  CYS622 
 ASP623  PHE694  ASN695  SER759  ASP760  ASP761  ALA762  ILE779  LEU786  VAL792 
 PHE793  MET794  SER795  GLU796  ALA797  LYS798  CYS799  TRP800  GLU811  SER814 

> <Gold.Protein.RotatedAtoms>
  151.6739  135.0972  160.0202 H   0  0  0  0  0  0  0  0  0  0  0  0  # atno 6907 bound_to 6896
  152.3875  133.6628  159.6219 H   0  0  0  0  0  0  0  0  0  0  0  0  # atno 6908 bound_to 6896
  150.7798  133.8927  159.3359 H   0  0  0  0  0  0  0  0  0  0  0  0  # atno 6909 bound_to 6896
  144.7393  140.3407  143.6135 H   0  0  0  0  0  0  0  0  0  0  0  0  # atno 7974 bound_to 7965
  154.6173  140.2491  155.7593 H   0  0  0  0  0  0  0  0  0  0  0  0  # atno 8008 bound_to 7997
  156.2406  140.2934  156.0383 H   0  0  0  0  0  0  0  0  0  0  0  0  # atno 8009 bound_to 7997
  155.1954  140.0393  157.2898 H   0  0  0  0  0  0  0  0  0  0  0  0  # atno 8010 bound_to 7997
  140.4385  143.2523  151.8660 H   0  0  0  0  0  0  0  0  0  0  0  0  # atno 10167 bound_to 10162
  157.0888  130.6419  149.5843 H   0  0  0  0  0  0  0  0  0  0  0  0  # atno 10718 bound_to 10713
  153.5807  135.7005  153.5464 H   0  0  0  0  0  0  0  0  0  0  0  0  # atno 10763 bound_to 10752
  153.3263  135.4060  155.1458 H   0  0  0  0  0  0  0  0  0  0  0  0  # atno 10764 bound_to 10752
  154.8618  135.3708  154.5335 H   0  0  0  0  0  0  0  0  0  0  0  0  # atno 10765 bound_to 10752
  141.0669  133.6691  156.3366 H   0  0  0  0  0  0  0  0  0  0  0  0  # atno 11005 bound_to 11000
  145.7377  139.1755  143.2394 LP  0  0  0  0  0  0  0  0  0  0  0  0  # atno 17320 bound_to 7965
  146.1158  140.7371  142.9481 LP  0  0  0  0  0  0  0  0  0  0  0  0  # atno 17321 bound_to 7965
  139.4788  144.5256  151.8740 LP  0  0  0  0  0  0  0  0  0  0  0  0  # atno 17342 bound_to 10162
  140.4346  144.2069  150.5889 LP  0  0  0  0  0  0  0  0  0  0  0  0  # atno 17343 bound_to 10162
  155.9904  130.4954  150.7254 LP  0  0  0  0  0  0  0  0  0  0  0  0  # atno 17370 bound_to 10713
  157.4739  131.0896  151.0612 LP  0  0  0  0  0  0  0  0  0  0  0  0  # atno 17371 bound_to 10713
  140.5754  134.5799  157.5467 LP  0  0  0  0  0  0  0  0  0  0  0  0  # atno 17394 bound_to 11000
  139.9485  134.7658  156.0504 LP  0  0  0  0  0  0  0  0  0  0  0  0  # atno 17395 bound_to 11000

$$$$
