AV-unprocessed.smi:2424|AV-procd|sdf|9573|dock2
  -GOLD-   2272013203D 1   1.00000     0.00000
 Structure written by MMmdl.
 49 50  0  0  0  0  0  0  0  0  2 V2000
  148.3078  140.6033  153.8929 C   0  0  0  0  0  0  0  0  0  0  0  0
  148.5732  139.1616  154.3575 C   0  0  0  0  0  0  0  0  0  0  0  0
  149.5763  139.0175  155.5328 C   0  0  0  0  0  0  0  0  0  0  0  0
  148.8321  139.2799  156.8624 C   0  0  0  0  0  0  0  0  0  0  0  0
  148.2116  140.6792  157.0013 C   0  0  0  0  0  0  0  0  0  0  0  0
  150.4675  137.7466  155.5338 C   0  0  1  0  0  0  0  0  0  0  0  0
  149.9114  136.6171  154.7929 N   0  0  0  0  0  0  0  0  0  0  0  0
  149.7704  135.3734  155.2700 C   0  0  0  0  0  0  0  0  0  0  0  0
  150.1114  135.0420  156.4048 O   0  0  0  0  0  0  0  0  0  0  0  0
  149.2133  134.5702  154.3467 N   0  0  0  0  0  0  0  0  0  0  0  0
  148.8928  133.2101  154.4473 C   0  0  0  0  0  0  0  0  0  0  0  0
  149.5756  132.3977  155.3296 C   0  0  0  0  0  0  0  0  0  0  0  0
  149.4131  131.0779  155.5662 N   0  5  0  0  0  0  0  0  0  0  0  0
  148.4543  130.4118  154.8610 C   0  0  0  0  0  0  0  0  0  0  0  0
  148.2485  129.2096  155.0238 O   0  0  0  0  0  0  0  0  0  0  0  0
  147.6455  131.1598  153.8775 C   0  0  0  0  0  0  0  0  0  0  0  0
  146.5797  130.4153  153.0914 C   0  0  0  0  0  0  0  0  0  0  0  0
  147.8679  132.4856  153.6957 C   0  0  0  0  0  0  0  0  0  0  0  0
  151.5291  138.5031  154.7311 C   0  0  2  0  0  0  0  0  0  0  0  0
  153.0054  138.1891  154.9399 C   0  0  0  0  0  0  0  0  0  0  0  0
  150.9178  139.7829  155.3238 C   0  0  2  0  0  0  0  0  0  0  0  0
  151.5834  140.1381  156.5305 O   0  0  0  0  0  0  0  0  0  0  0  0
  151.2000  141.4116  157.0212 C   0  0  0  0  0  0  0  0  0  0  0  0
  147.6970  140.6053  152.9902 H   0  0  0  0  0  0  0  0  0  0  0  0
  149.2329  141.1310  153.6623 H   0  0  0  0  0  0  0  0  0  0  0  0
  147.7677  141.1795  154.6433 H   0  0  0  0  0  0  0  0  0  0  0  0
  147.6219  138.6870  154.5971 H   0  0  0  0  0  0  0  0  0  0  0  0
  148.9374  138.6116  153.4900 H   0  0  0  0  0  0  0  0  0  0  0  0
  148.0144  138.5668  156.9693 H   0  0  0  0  0  0  0  0  0  0  0  0
  149.4776  139.0877  157.7181 H   0  0  0  0  0  0  0  0  0  0  0  0
  147.6360  140.7495  157.9244 H   0  0  0  0  0  0  0  0  0  0  0  0
  147.5325  140.8978  156.1778 H   0  0  0  0  0  0  0  0  0  0  0  0
  148.9678  141.4625  157.0356 H   0  0  0  0  0  0  0  0  0  0  0  0
  150.8315  137.5000  156.5343 H   0  0  0  0  0  0  0  0  0  0  0  0
  149.6046  136.7991  153.8488 H   0  0  0  0  0  0  0  0  0  0  0  0
  148.9901  134.9925  153.4574 H   0  0  0  0  0  0  0  0  0  0  0  0
  150.3718  132.8803  155.9369 H   0  0  0  0  0  0  0  0  0  0  0  0
  146.0552  131.0799  152.4045 H   0  0  0  0  0  0  0  0  0  0  0  0
  145.8428  129.9794  153.7666 H   0  0  0  0  0  0  0  0  0  0  0  0
  147.0291  129.6126  152.5059 H   0  0  0  0  0  0  0  0  0  0  0  0
  147.2580  132.9967  152.9691 H   0  0  0  0  0  0  0  0  0  0  0  0
  151.2906  138.4663  153.6665 H   0  0  0  0  0  0  0  0  0  0  0  0
  153.2611  138.1433  155.9986 H   0  0  0  0  0  0  0  0  0  0  0  0
  153.6384  138.9474  154.4795 H   0  0  0  0  0  0  0  0  0  0  0  0
  153.2670  137.2267  154.4997 H   0  0  0  0  0  0  0  0  0  0  0  0
  150.8856  140.5934  154.5938 H   0  0  0  0  0  0  0  0  0  0  0  0
  151.7082  141.6069  157.9652 H   0  0  0  0  0  0  0  0  0  0  0  0
  150.1262  141.4692  157.1986 H   0  0  0  0  0  0  0  0  0  0  0  0
  151.4788  142.1994  156.3206 H   0  0  0  0  0  0  0  0  0  0  0  0
  1  2  1  0  0  0  0
  1 24  1  0  0  0  0
  1 25  1  0  0  0  0
  1 26  1  0  0  0  0
  2  3  1  0  0  0  0
  2 27  1  0  0  0  0
  2 28  1  0  0  0  0
  3 21  1  0  0  0  0
  3  4  1  0  0  0  0
  3  6  1  0  0  0  0
  4  5  1  0  0  0  0
  4 29  1  0  0  0  0
  4 30  1  0  0  0  0
  5 31  1  0  0  0  0
  5 32  1  0  0  0  0
  5 33  1  0  0  0  0
  6  7  1  0  0  0  0
  6 19  1  0  0  0  0
  6 34  1  0  0  0  0
  7  8  1  0  0  0  0
  7 35  1  0  0  0  0
  8  9  2  0  0  0  0
  8 10  1  0  0  0  0
 10 11  1  0  0  0  0
 10 36  1  0  0  0  0
 11 18  1  0  0  0  0
 11 12  2  0  0  0  0
 12 13  1  0  0  0  0
 12 37  1  0  0  0  0
 13 14  1  0  0  0  0
 14 15  2  0  0  0  0
 14 16  1  0  0  0  0
 16 17  1  0  0  0  0
 16 18  2  0  0  0  0
 17 38  1  0  0  0  0
 17 39  1  0  0  0  0
 17 40  1  0  0  0  0
 18 41  1  0  0  0  0
 19 20  1  0  0  0  0
 19 21  1  0  0  0  0
 19 42  1  0  0  0  0
 20 43  1  0  0  0  0
 20 44  1  0  0  0  0
 20 45  1  0  0  0  0
 21 22  1  0  0  0  0
 21 46  1  0  0  0  0
 22 23  1  0  0  0  0
 23 47  1  0  0  0  0
 23 48  1  0  0  0  0
 23 49  1  0  0  0  0
M  CHG  1  13  -1
M  END
> <s_m_source_file>
AV-unprocessed.smi

> <i_m_source_file_index>
2424

> <i_lp_mmshare_version>
43012

> <i_f3d_flags>
0

> <s_epik_input>
W0NIM11PW0NAQEhdMVtDQEhdKFtDSDNdKVtDQEBIXShDMShbQ0gyXVtDSDNdKVtDSDJdW0NIM10pW05IXUMoPU8pW05IXWMyW2NIXVtuSF1jKD1PKWMoW0NIM10pW2NIXTI=

> <s_epik_cmdline>
J2VwaWtfcHl0aG9uJywgJy1waCcsICc3LjAnLCAnLXRuJywgJzgnLCAnLW1hJywgJzIwMCcsICctbWV0YWxfYmluZGluZycsICctaW1hZScsICc8aW5maWxlLm1hZT4nLCAnLW9tYWUnLCAnPG91dGZpbGUubWFlPic=

> <r_lp_tautomer_probability>
1

> <r_epik_Ionization_Penalty>
7.6122

> <r_epik_Ionization_Penalty_Charging>
1.53843

> <r_epik_Ionization_Penalty_Neutral>
6.07377

> <r_epik_State_Penalty>
6.07371

> <r_epik_Charging_Adjusted_Penalty>
7.61214

> <i_epik_Tot_Q>
-1

> <i_epik_Tot_abs_Q>
1

> <r_epik_Metal_State_Penalty>
2.02136

> <b_epik_Metal_Only>
1

> <s_lp_Force_Field>
OPLS_2005

> <r_lp_Energy>
41.9258

> <b_lp_Chiralities_Consistent>
1

> <s_lp_Variant>
AV-unprocessed.smi:2424-15

> <Gold.Version>
5.8.1

> <Gold.Id.Protein>
6NUR|6NUR_protein|mol2

> <Gold.PLP.Fitness>
40.4618

> <Gold.PLP.PLP>
-35.8669

> <Gold.PLP.part.hbond>
-2.0000

> <Gold.PLP.part.metal>
0.0000

> <Gold.PLP.part.buried>
-4.8405

> <Gold.PLP.part.nonpolar>
-29.4315

> <Gold.PLP.part.repulsive>
0.1627

> <Gold.PLP.ligand.clash>
0.0000

> <Gold.PLP.ligand.torsion>
0.8673

> <Gold.PLP.Chemscore.Hbond>
1.8500

> <Gold.PLP.Chemscore.CHOScore>
0.0000

> <Gold.PLP.Chemscore.Metal>
0.0000

> <Gold.Chemscore.Hbonds>
donor molecule, donor type, donor heavy atom, donor atom, acceptor molecule, acceptor atom, score
      L1  H     7    35       P1  7948  0.73
      L1  H    10    36       P1  7948  1.00

> <Gold.PLP.Chemscore.Internal.Correction>
0.7795

> <Gold.Rescore>
     Score         DG    S(hbond)    S(metal)    S(lipo)     H(rot)  DE(clash)    DE(int)     intcor
     12.90     -15.15       1.25        0.00      80.27       1.52       0.03       2.22       ----

> <Gold.Chemscore.Fitness>
12.8980

> <Gold.Chemscore.DG>
-15.1491

> <Gold.Chemscore.ZeroCoef>
-5.4800

> <Gold.Chemscore.Hbond>
1.2483

> <Gold.Chemscore.Metal>
0.0000

> <Gold.Chemscore.Lipo>
80.2721

> <Gold.Chemscore.Internal_Hbond>
0.0000

> <Gold.Chemscore.DEClash>
0.0304

> <Gold.Chemscore.DEInternal>
2.2207

> <Gold.Chemscore.Rot>
1.5204

> <Gold.Chemscore.Internal.Correction>
   9.000000E+99

> <Gold.Chemscore.Hbonds>
donor molecule, donor type, donor heavy atom, donor atom, acceptor molecule, acceptor atom, score
      L1  H     7    35       P1  7948  0.56
      L1  H    10    36       P1  7948  0.34

> <Gold.Chemscore.Hbond.Weighted>
-4.1695

> <Gold.Chemscore.Metal.Weighted>
-0.0000

> <Gold.Chemscore.Lipo.Weighted>
-9.3918

> <Gold.Chemscore.Internal_Hbond.Weighted>
0.0000

> <Gold.Chemscore.DEClash.Weighted>
0.0304

> <Gold.Chemscore.DEInternal.Weighted>
2.2207

> <Gold.Chemscore.Rot.Weighted>
3.8922

> <Gold.Chemscore.Internal.Correction.Weighted>
   9.000000E+99

> <Gold.Protein.RotatedTorsions>
[ 6907 6896 6895 6894 ] final  -17.73 input  -60.11 | X-H torsion
[ 7974 7965 7964 7962 ] final -174.77 input  175.53 | X-H torsion
[ 8008 7997 7996 7995 ] final  -14.31 input   59.86 | X-H torsion
[ 10167 10162 10161 10158 ] final  125.50 input  -65.29 | X-H torsion
[ 10718 10713 10712 10709 ] final  129.23 input   66.30 | X-H torsion
[ 10763 10752 10751 10750 ] final -109.04 input  -60.55 | X-H torsion
[ 11005 11000 10999 10996 ] final    7.44 input  -57.11 | X-H torsion

> <Gold.Protein.ActiveResidues>
 VAL166  LYS551  ARG553  GLY616  TRP617  ASP618  TYR619  PRO620  LYS621  CYS622 
 ASP623  PHE694  ASN695  SER759  ASP760  ASP761  ALA762  ILE779  LEU786  VAL792 
 PHE793  MET794  SER795  GLU796  ALA797  LYS798  CYS799  TRP800  GLU811  SER814 

> <Gold.Protein.RotatedAtoms>
  151.2888  135.0736  159.9196 H   0  0  0  0  0  0  0  0  0  0  0  0  # atno 6907 bound_to 6896
  152.5320  133.9953  159.7880 H   0  0  0  0  0  0  0  0  0  0  0  0  # atno 6908 bound_to 6896
  151.0220  133.5817  159.2701 H   0  0  0  0  0  0  0  0  0  0  0  0  # atno 6909 bound_to 6896
  144.7130  140.1421  143.6391 H   0  0  0  0  0  0  0  0  0  0  0  0  # atno 7974 bound_to 7965
  154.5220  140.2226  155.8958 H   0  0  0  0  0  0  0  0  0  0  0  0  # atno 8008 bound_to 7997
  156.1672  140.3129  155.8875 H   0  0  0  0  0  0  0  0  0  0  0  0  # atno 8009 bound_to 7997
  155.3631  140.0462  157.3037 H   0  0  0  0  0  0  0  0  0  0  0  0  # atno 8010 bound_to 7997
  139.5682  144.6924  151.3851 H   0  0  0  0  0  0  0  0  0  0  0  0  # atno 10167 bound_to 10162
  157.5173  131.1097  150.9206 H   0  0  0  0  0  0  0  0  0  0  0  0  # atno 10718 bound_to 10713
  154.8171  135.4615  154.0673 H   0  0  0  0  0  0  0  0  0  0  0  0  # atno 10763 bound_to 10752
  153.2057  135.6875  153.8182 H   0  0  0  0  0  0  0  0  0  0  0  0  # atno 10764 bound_to 10752
  153.7651  135.3278  155.3320 H   0  0  0  0  0  0  0  0  0  0  0  0  # atno 10765 bound_to 10752
  140.5482  134.0309  155.7927 H   0  0  0  0  0  0  0  0  0  0  0  0  # atno 11005 bound_to 11000
  145.9192  139.2535  143.1391 LP  0  0  0  0  0  0  0  0  0  0  0  0  # atno 17320 bound_to 7965
  145.9637  140.8815  143.0197 LP  0  0  0  0  0  0  0  0  0  0  0  0  # atno 17321 bound_to 7965
  140.6966  143.7734  150.7336 LP  0  0  0  0  0  0  0  0  0  0  0  0  # atno 17342 bound_to 10162
  140.1232  143.4593  152.2300 LP  0  0  0  0  0  0  0  0  0  0  0  0  # atno 17343 bound_to 10162
  156.9827  130.5533  149.5297 LP  0  0  0  0  0  0  0  0  0  0  0  0  # atno 17370 bound_to 10713
  156.0329  130.5419  150.8580 LP  0  0  0  0  0  0  0  0  0  0  0  0  # atno 17371 bound_to 10713
  141.1187  133.9497  157.2772 LP  0  0  0  0  0  0  0  0  0  0  0  0  # atno 17394 bound_to 11000
  139.9469  135.0182  156.8878 LP  0  0  0  0  0  0  0  0  0  0  0  0  # atno 17395 bound_to 11000

$$$$
