AV-unprocessed.smi:1525|AV-procd|sdf|6144|dock8
  -GOLD-   22720 6293D 1   1.00000     0.00000
 Structure written by MMmdl.
 50 52  0  0  0  0  0  0  0  0  3 V2000
  153.8745  139.7682  158.7840 O   0  0  0  0  0  0  0  0  0  0  0  0
  153.4900  140.8147  159.3051 C   0  0  0  0  0  0  0  0  0  0  0  0
  154.0220  141.3197  160.4272 N   0  0  0  0  0  0  0  0  0  0  0  0
  155.1150  140.7119  161.1777 C   0  0  0  0  0  0  0  0  0  0  0  0
  154.7328  140.4909  162.6543 C   0  0  0  0  0  0  0  0  0  0  0  0
  155.1049  141.6393  163.5181 N   0  3  0  0  0  0  0  0  0  0  0  0
  154.0219  142.6415  163.6786 C   0  0  0  0  0  0  0  0  0  0  0  0
  154.4959  143.8100  164.5598 C   0  0  0  0  0  0  0  0  0  0  0  0
  154.9324  143.3144  165.8192 O   0  0  0  0  0  0  0  0  0  0  0  0
  156.0306  142.4211  165.6862 C   0  0  0  0  0  0  0  0  0  0  0  0
  155.6062  141.2058  164.8446 C   0  0  0  0  0  0  0  0  0  0  0  0
  152.5104  141.6021  158.8294 N   0  0  0  0  0  0  0  0  0  0  0  0
  151.7325  141.4178  157.6505 C   0  0  0  0  0  0  0  0  0  0  0  0
  151.6619  140.1665  156.9861 C   0  0  0  0  0  0  0  0  0  0  0  0
  150.8455  140.0223  155.8479 C   0  0  0  0  0  0  0  0  0  0  0  0
  150.1040  141.1280  155.3960 C   0  0  0  0  0  0  0  0  0  0  0  0
  150.1810  142.3007  156.0587 N   0  3  0  0  0  0  0  0  0  0  0  0
  150.9474  142.4976  157.1598 C   0  0  0  0  0  0  0  0  0  0  0  0
  150.9652  143.7756  157.7582 N   0  0  0  0  0  0  0  0  0  0  0  0
  150.3921  143.8181  159.1010 C   0  0  0  0  0  0  0  0  0  0  0  0
  151.2110  144.8427  159.8888 C   0  0  0  0  0  0  0  0  0  0  0  0
  152.5689  144.8027  159.1992 C   0  0  0  0  0  0  0  0  0  0  0  0
  152.1904  144.5737  157.7370 C   0  0  0  0  0  0  0  0  0  0  0  0
  153.6501  142.1871  160.7861 H   0  0  0  0  0  0  0  0  0  0  0  0
  155.4096  139.7694  160.7125 H   0  0  0  0  0  0  0  0  0  0  0  0
  155.9713  141.3803  161.0946 H   0  0  0  0  0  0  0  0  0  0  0  0
  153.6655  140.2855  162.7513 H   0  0  0  0  0  0  0  0  0  0  0  0
  155.2519  139.6020  163.0161 H   0  0  0  0  0  0  0  0  0  0  0  0
  153.7127  143.0306  162.7095 H   0  0  0  0  0  0  0  0  0  0  0  0
  153.1474  142.1681  164.1280 H   0  0  0  0  0  0  0  0  0  0  0  0
  155.3010  144.3632  164.0735 H   0  0  0  0  0  0  0  0  0  0  0  0
  153.6789  144.5136  164.7213 H   0  0  0  0  0  0  0  0  0  0  0  0
  156.8801  142.9333  165.2317 H   0  0  0  0  0  0  0  0  0  0  0  0
  156.3467  142.0992  166.6787 H   0  0  0  0  0  0  0  0  0  0  0  0
  154.8278  140.6449  165.3647 H   0  0  0  0  0  0  0  0  0  0  0  0
  156.4566  140.5343  164.7197 H   0  0  0  0  0  0  0  0  0  0  0  0
  152.3675  142.4772  159.3123 H   0  0  0  0  0  0  0  0  0  0  0  0
  152.2081  139.3059  157.3410 H   0  0  0  0  0  0  0  0  0  0  0  0
  150.7846  139.0741  155.3338 H   0  0  0  0  0  0  0  0  0  0  0  0
  149.4531  141.1100  154.5338 H   0  0  0  0  0  0  0  0  0  0  0  0
  149.3379  144.0937  159.0734 H   0  0  0  0  0  0  0  0  0  0  0  0
  150.4691  142.8368  159.5726 H   0  0  0  0  0  0  0  0  0  0  0  0
  150.7712  145.8348  159.7766 H   0  0  0  0  0  0  0  0  0  0  0  0
  151.2641  144.6159  160.9540 H   0  0  0  0  0  0  0  0  0  0  0  0
  153.1532  145.7106  159.3500 H   0  0  0  0  0  0  0  0  0  0  0  0
  153.1503  143.9578  159.5711 H   0  0  0  0  0  0  0  0  0  0  0  0
  153.0129  144.1355  157.1725 H   0  0  0  0  0  0  0  0  0  0  0  0
  151.9553  145.5265  157.2619 H   0  0  0  0  0  0  0  0  0  0  0  0
  155.8765  142.1065  163.0635 H   0  0  0  0  0  0  0  0  0  0  0  0
  149.6322  143.0860  155.7077 H   0  0  0  0  0  0  0  0  0  0  0  0
  1  2  2  0  0  0  0
  2  3  1  0  0  0  0
  2 12  1  0  0  0  0
  3  4  1  0  0  0  0
  3 24  1  0  0  0  0
  4  5  1  0  0  0  0
  4 25  1  0  0  0  0
  4 26  1  0  0  0  0
  5  6  1  0  0  0  0
  5 27  1  0  0  0  0
  5 28  1  0  0  0  0
  6 11  1  0  0  0  0
  6  7  1  0  0  0  0
  6 49  1  0  0  0  0
  7  8  1  0  0  0  0
  7 29  1  0  0  0  0
  7 30  1  0  0  0  0
  8  9  1  0  0  0  0
  8 31  1  0  0  0  0
  8 32  1  0  0  0  0
  9 10  1  0  0  0  0
 10 11  1  0  0  0  0
 10 33  1  0  0  0  0
 10 34  1  0  0  0  0
 11 35  1  0  0  0  0
 11 36  1  0  0  0  0
 12 13  1  0  0  0  0
 12 37  1  0  0  0  0
 13 18  1  0  0  0  0
 13 14  2  0  0  0  0
 14 15  1  0  0  0  0
 14 38  1  0  0  0  0
 15 16  2  0  0  0  0
 15 39  1  0  0  0  0
 16 17  1  0  0  0  0
 16 40  1  0  0  0  0
 17 18  2  0  0  0  0
 17 50  1  0  0  0  0
 18 19  1  0  0  0  0
 19 23  1  0  0  0  0
 19 20  1  0  0  0  0
 20 21  1  0  0  0  0
 20 41  1  0  0  0  0
 20 42  1  0  0  0  0
 21 22  1  0  0  0  0
 21 43  1  0  0  0  0
 21 44  1  0  0  0  0
 22 23  1  0  0  0  0
 22 45  1  0  0  0  0
 22 46  1  0  0  0  0
 23 47  1  0  0  0  0
 23 48  1  0  0  0  0
M  CHG  1   6   1
M  CHG  1  17   1
M  END
> <s_m_source_file>
AV-unprocessed.smi

> <i_m_source_file_index>
1525

> <i_lp_mmshare_version>
43012

> <i_f3d_flags>
0

> <s_epik_input>
W0NIMl0xW0NIMl1PW0NIMl1bQ0gyXU4xW0NIMl1bQ0gyXVtOSF1DKD1PKVtOSF1jMltjSF1bY0hdW2NIXW5jMk4zW0NIMl1bQ0gyXVtDSDJdW0NIMl0z

> <s_epik_cmdline>
J2VwaWtfcHl0aG9uJywgJy1waCcsICc3LjAnLCAnLXRuJywgJzgnLCAnLW1hJywgJzIwMCcsICctbWV0YWxfYmluZGluZycsICctaW1hZScsICc8aW5maWxlLm1hZT4nLCAnLW9tYWUnLCAnPG91dGZpbGUubWFlPic=

> <r_lp_tautomer_probability>
0.999994

> <r_epik_Ionization_Penalty>
1.81601

> <r_epik_Ionization_Penalty_Charging>
1.81599

> <r_epik_Ionization_Penalty_Neutral>
2.02981e-05

> <r_epik_State_Penalty>
1.85672

> <r_epik_Charging_Adjusted_Penalty>
3.6727

> <i_epik_Tot_Q>
2

> <i_epik_Tot_abs_Q>
2

> <r_epik_Metal_State_Penalty>
1.93796

> <b_epik_Metal_Only>
0

> <s_lp_Force_Field>
OPLS_2005

> <r_lp_Energy>
52.6706

> <b_lp_Chiralities_Consistent>
1

> <s_lp_Variant>
AV-unprocessed.smi:1525-4

> <Gold.Version>
5.8.1

> <Gold.Id.Protein>
6NUR|6NUR_protein|mol2

> <Gold.PLP.Fitness>
55.1380

> <Gold.PLP.PLP>
-47.5878

> <Gold.PLP.part.hbond>
-3.0000

> <Gold.PLP.part.metal>
0.0000

> <Gold.PLP.part.buried>
-5.7723

> <Gold.PLP.part.nonpolar>
-37.7743

> <Gold.PLP.part.repulsive>
0.7678

> <Gold.PLP.ligand.clash>
0.0000

> <Gold.PLP.ligand.torsion>
0.8206

> <Gold.PLP.Chemscore.Hbond>
3.0000

> <Gold.PLP.Chemscore.CHOScore>
0.0000

> <Gold.PLP.Chemscore.Metal>
0.0000

> <Gold.Chemscore.Hbonds>
donor molecule, donor type, donor heavy atom, donor atom, acceptor molecule, acceptor atom, score
      L1  H    17    50       P1  8028  2.00
      P1  H  7997  8009       L1     1  1.00

> <Gold.PLP.Chemscore.Internal.Correction>
0.1914

> <Gold.Rescore>
     Score         DG    S(hbond)    S(metal)    S(lipo)     H(rot)  DE(clash)    DE(int)     intcor
     17.96     -22.25       1.96        0.00     124.44       1.70       2.11       2.18       ----

> <Gold.Chemscore.Fitness>
17.9632

> <Gold.Chemscore.DG>
-22.2522

> <Gold.Chemscore.ZeroCoef>
-5.4800

> <Gold.Chemscore.Hbond>
1.9617

> <Gold.Chemscore.Metal>
0.0000

> <Gold.Chemscore.Lipo>
124.4441

> <Gold.Chemscore.Internal_Hbond>
0.0000

> <Gold.Chemscore.DEClash>
2.1062

> <Gold.Chemscore.DEInternal>
2.1828

> <Gold.Chemscore.Rot>
1.6952

> <Gold.Chemscore.Internal.Correction>
   9.000000E+99

> <Gold.Chemscore.Hbonds>
donor molecule, donor type, donor heavy atom, donor atom, acceptor molecule, acceptor atom, score
      L1  H    17    50       P1  8028  0.99
      P1  H  7997  8009       L1     1  0.88

> <Gold.Chemscore.Hbond.Weighted>
-6.5519

> <Gold.Chemscore.Metal.Weighted>
-0.0000

> <Gold.Chemscore.Lipo.Weighted>
-14.5600

> <Gold.Chemscore.Internal_Hbond.Weighted>
0.0000

> <Gold.Chemscore.DEClash.Weighted>
2.1062

> <Gold.Chemscore.DEInternal.Weighted>
2.1828

> <Gold.Chemscore.Rot.Weighted>
4.3397

> <Gold.Chemscore.Internal.Correction.Weighted>
   9.000000E+99

> <Gold.Protein.RotatedTorsions>
[ 6907 6896 6895 6894 ] final  116.79 input  -60.11 | X-H torsion
[ 7974 7965 7964 7962 ] final  -60.66 input  175.53 | X-H torsion
[ 8008 7997 7996 7995 ] final  132.95 input   59.86 | X-H torsion
[ 10167 10162 10161 10158 ] final  -81.86 input  -65.29 | X-H torsion
[ 10718 10713 10712 10709 ] final  154.73 input   66.30 | X-H torsion
[ 10763 10752 10751 10750 ] final  -35.87 input  -60.55 | X-H torsion
[ 11005 11000 10999 10996 ] final  140.77 input  -57.11 | X-H torsion

> <Gold.Protein.ActiveResidues>
 VAL166  LYS551  ARG553  GLY616  TRP617  ASP618  TYR619  PRO620  LYS621  CYS622 
 ASP623  PHE694  ASN695  SER759  ASP760  ASP761  ALA762  ILE779  LEU786  VAL792 
 PHE793  MET794  SER795  GLU796  ALA797  LYS798  CYS799  TRP800  GLU811  SER814 

> <Gold.Protein.RotatedAtoms>
  152.4655  133.7914  159.6903 H   0  0  0  0  0  0  0  0  0  0  0  0  # atno 6907 bound_to 6896
  150.8618  133.7623  159.2996 H   0  0  0  0  0  0  0  0  0  0  0  0  # atno 6908 bound_to 6896
  151.5186  135.1070  159.9924 H   0  0  0  0  0  0  0  0  0  0  0  0  # atno 6909 bound_to 6896
  145.8129  140.8588  143.0172 H   0  0  0  0  0  0  0  0  0  0  0  0  # atno 7974 bound_to 7965
  156.2988  140.2533  156.3174 H   0  0  0  0  0  0  0  0  0  0  0  0  # atno 8008 bound_to 7997
  154.9268  140.0399  157.2046 H   0  0  0  0  0  0  0  0  0  0  0  0  # atno 8009 bound_to 7997
  154.8257  140.2867  155.5761 H   0  0  0  0  0  0  0  0  0  0  0  0  # atno 8010 bound_to 7997
  140.4373  143.2527  151.8676 H   0  0  0  0  0  0  0  0  0  0  0  0  # atno 10167 bound_to 10162
  157.2278  131.0732  151.1872 H   0  0  0  0  0  0  0  0  0  0  0  0  # atno 10718 bound_to 10713
  153.8704  135.6831  153.4775 H   0  0  0  0  0  0  0  0  0  0  0  0  # atno 10763 bound_to 10752
  153.1290  135.4706  154.9317 H   0  0  0  0  0  0  0  0  0  0  0  0  # atno 10764 bound_to 10752
  154.7717  135.3240  154.8127 H   0  0  0  0  0  0  0  0  0  0  0  0  # atno 10765 bound_to 10752
  140.0352  134.9332  157.0739 H   0  0  0  0  0  0  0  0  0  0  0  0  # atno 11005 bound_to 11000
  144.6755  140.0421  143.7480 LP  0  0  0  0  0  0  0  0  0  0  0  0  # atno 17320 bound_to 7965
  145.9758  139.2904  143.1071 LP  0  0  0  0  0  0  0  0  0  0  0  0  # atno 17321 bound_to 7965
  139.4787  144.5269  151.8723 LP  0  0  0  0  0  0  0  0  0  0  0  0  # atno 17342 bound_to 10162
  140.4359  144.2052  150.5889 LP  0  0  0  0  0  0  0  0  0  0  0  0  # atno 17343 bound_to 10162
  157.3510  130.7082  149.6440 LP  0  0  0  0  0  0  0  0  0  0  0  0  # atno 17370 bound_to 10713
  155.9677  130.4252  150.4645 LP  0  0  0  0  0  0  0  0  0  0  0  0  # atno 17371 bound_to 10713
  140.4159  134.1931  155.7163 LP  0  0  0  0  0  0  0  0  0  0  0  0  # atno 17394 bound_to 11000
  141.1853  133.8325  157.1108 LP  0  0  0  0  0  0  0  0  0  0  0  0  # atno 17395 bound_to 11000

$$$$
