AV-unprocessed.smi:1534|AV-procd|sdf|6169|dock5
  -GOLD-   22720 6313D 1   1.00000     0.00000
 Structure written by MMmdl.
 37 38  0  0  0  0  0  0  0  0  2 V2000
  146.7236  141.7546  158.4749 O   0  0  0  0  0  0  0  0  0  0  0  0
  147.2388  142.7527  157.9764 C   0  0  0  0  0  0  0  0  0  0  0  0
  148.3518  142.7129  157.2255 N   0  0  0  0  0  0  0  0  0  0  0  0
  149.1567  141.5214  156.9779 C   0  0  0  0  0  0  0  0  0  0  0  0
  150.6410  141.8489  156.7155 C   0  0  0  0  0  0  0  0  0  0  0  0
  151.2588  142.7613  157.7625 C   0  0  0  0  0  0  0  0  0  0  0  0
  152.0972  142.2679  158.7856 C   0  0  0  0  0  0  0  0  0  0  0  0
  152.6591  143.1713  159.7119 C   0  0  0  0  0  0  0  0  0  0  0  0
  152.3738  144.5475  159.5947 C   0  0  0  0  0  0  0  0  0  0  0  0
  151.5298  144.9864  158.5544 C   0  0  0  0  0  0  0  0  0  0  0  0
  151.0091  144.0896  157.6886 N   0  3  0  0  0  0  0  0  0  0  0  0
  146.7230  143.9824  158.1495 N   0  0  0  0  0  0  0  0  0  0  0  0
  145.5280  144.3560  158.9079 C   0  0  1  0  0  0  0  0  0  0  0  0
  144.2370  144.2145  158.0754 C   0  0  0  0  0  0  0  0  0  0  0  0
  143.0272  144.2405  159.0208 C   0  0  0  0  0  0  0  0  0  0  0  0
  143.6250  143.6390  160.6477 S   0  0  0  0  0  0  0  0  0  0  0  0
  143.5065  144.7310  161.6259 O   0  0  0  0  0  0  0  0  0  0  0  0
  143.0677  142.3068  160.9255 O   0  0  0  0  0  0  0  0  0  0  0  0
  145.3776  143.4710  160.1498 C   0  0  0  0  0  0  0  0  0  0  0  0
  148.6905  143.5796  156.8339 H   0  0  0  0  0  0  0  0  0  0  0  0
  149.0621  140.8186  157.8073 H   0  0  0  0  0  0  0  0  0  0  0  0
  148.7372  141.0228  156.1038 H   0  0  0  0  0  0  0  0  0  0  0  0
  151.2186  140.9240  156.6732 H   0  0  0  0  0  0  0  0  0  0  0  0
  150.7454  142.3117  155.7336 H   0  0  0  0  0  0  0  0  0  0  0  0
  152.3114  141.2114  158.8589 H   0  0  0  0  0  0  0  0  0  0  0  0
  153.3036  142.8129  160.5014 H   0  0  0  0  0  0  0  0  0  0  0  0
  152.7964  145.2557  160.2927 H   0  0  0  0  0  0  0  0  0  0  0  0
  151.2584  146.0189  158.3892 H   0  0  0  0  0  0  0  0  0  0  0  0
  147.1716  144.7315  157.6417 H   0  0  0  0  0  0  0  0  0  0  0  0
  145.6093  145.3879  159.2555 H   0  0  0  0  0  0  0  0  0  0  0  0
  144.1577  144.9862  157.3092 H   0  0  0  0  0  0  0  0  0  0  0  0
  144.2512  143.2550  157.5562 H   0  0  0  0  0  0  0  0  0  0  0  0
  142.6565  145.2571  159.1541 H   0  0  0  0  0  0  0  0  0  0  0  0
  142.2061  143.6156  158.6688 H   0  0  0  0  0  0  0  0  0  0  0  0
  145.5563  142.4215  159.9124 H   0  0  0  0  0  0  0  0  0  0  0  0
  146.0326  143.7612  160.9714 H   0  0  0  0  0  0  0  0  0  0  0  0
  150.4020  144.4288  156.9418 H   0  0  0  0  0  0  0  0  0  0  0  0
  1  2  2  0  0  0  0
  2  3  1  0  0  0  0
  2 12  1  0  0  0  0
  3  4  1  0  0  0  0
  3 20  1  0  0  0  0
  4  5  1  0  0  0  0
  4 21  1  0  0  0  0
  4 22  1  0  0  0  0
  5  6  1  0  0  0  0
  5 23  1  0  0  0  0
  5 24  1  0  0  0  0
  6 11  1  0  0  0  0
  6  7  2  0  0  0  0
  7  8  1  0  0  0  0
  7 25  1  0  0  0  0
  8  9  2  0  0  0  0
  8 26  1  0  0  0  0
  9 10  1  0  0  0  0
  9 27  1  0  0  0  0
 10 11  2  0  0  0  0
 10 28  1  0  0  0  0
 11 37  1  0  0  0  0
 12 13  1  0  0  0  0
 12 29  1  0  0  0  0
 13 19  1  0  0  0  0
 13 14  1  0  0  0  0
 13 30  1  0  0  0  0
 14 15  1  0  0  0  0
 14 31  1  0  0  0  0
 14 32  1  0  0  0  0
 15 16  1  0  0  0  0
 15 33  1  0  0  0  0
 15 34  1  0  0  0  0
 16 17  2  0  0  0  0
 16 18  2  0  0  0  0
 16 19  1  0  0  0  0
 19 35  1  0  0  0  0
 19 36  1  0  0  0  0
M  CHG  1  11   1
M  END
> <s_m_source_file>
AV-unprocessed.smi

> <i_m_source_file_index>
1534

> <i_lp_mmshare_version>
43012

> <i_f3d_flags>
0

> <s_epik_input>
Tz1TMSg9TylbQ0gyXVtDSDJdW0NASF0oW0NIMl0xKVtOSF1DKD1PKVtOSF1bQ0gyXVtDSDJdYzJbY0hdW2NIXVtjSF1bY0hdbjI=

> <s_epik_cmdline>
J2VwaWtfcHl0aG9uJywgJy1waCcsICc3LjAnLCAnLXRuJywgJzgnLCAnLW1hJywgJzIwMCcsICctbWV0YWxfYmluZGluZycsICctaW1hZScsICc8aW5maWxlLm1hZT4nLCAnLW9tYWUnLCAnPG91dGZpbGUubWFlPic=

> <r_epik_Ionization_Penalty>
1.58466

> <r_epik_Ionization_Penalty_Charging>
1.58462

> <r_epik_Ionization_Penalty_Neutral>
3.4911e-05

> <r_epik_State_Penalty>
1.6815

> <r_epik_Charging_Adjusted_Penalty>
3.26612

> <i_epik_Tot_Q>
1

> <i_epik_Tot_abs_Q>
1

> <r_epik_Metal_State_Penalty>
1.72144

> <b_epik_Metal_Only>
0

> <s_lp_Force_Field>
OPLS_2005

> <r_lp_Energy>
19.4727

> <b_lp_Chiralities_Consistent>
1

> <s_lp_Variant>
AV-unprocessed.smi:1534-4

> <Gold.Version>
5.8.1

> <Gold.Id.Protein>
6NUR|6NUR_protein|mol2

> <Gold.PLP.Fitness>
45.0189

> <Gold.PLP.PLP>
-33.4494

> <Gold.PLP.part.hbond>
-5.2096

> <Gold.PLP.part.metal>
0.0000

> <Gold.PLP.part.buried>
-6.7066

> <Gold.PLP.part.nonpolar>
-22.5698

> <Gold.PLP.part.repulsive>
0.7610

> <Gold.PLP.ligand.clash>
0.0000

> <Gold.PLP.ligand.torsion>
0.8129

> <Gold.PLP.Chemscore.Hbond>
4.3933

> <Gold.PLP.Chemscore.CHOScore>
0.0000

> <Gold.PLP.Chemscore.Metal>
0.0000

> <Gold.Chemscore.Hbonds>
donor molecule, donor type, donor heavy atom, donor atom, acceptor molecule, acceptor atom, score
      L1  H     3    20       P1  8028  1.00
      L1  H    11    37       P1  8028  2.00
      L1  H    12    29       P1  8029  0.64
      P1  H  6934  6946       L1     1  0.05

> <Gold.PLP.Chemscore.Internal.Correction>
0.0154

> <Gold.Rescore>
     Score         DG    S(hbond)    S(metal)    S(lipo)     H(rot)  DE(clash)    DE(int)     intcor
     12.89     -17.09       2.14        0.00      77.99       1.82       1.91       2.29       ----

> <Gold.Chemscore.Fitness>
12.8925

> <Gold.Chemscore.DG>
-17.0871

> <Gold.Chemscore.ZeroCoef>
-5.4800

> <Gold.Chemscore.Hbond>
2.1397

> <Gold.Chemscore.Metal>
0.0000

> <Gold.Chemscore.Lipo>
77.9899

> <Gold.Chemscore.Internal_Hbond>
0.0000

> <Gold.Chemscore.DEClash>
1.9063

> <Gold.Chemscore.DEInternal>
2.2883

> <Gold.Chemscore.Rot>
1.8220

> <Gold.Chemscore.Internal.Correction>
   9.000000E+99

> <Gold.Chemscore.Hbonds>
donor molecule, donor type, donor heavy atom, donor atom, acceptor molecule, acceptor atom, score
      L1  H     3    20       P1  8028  0.34
      L1  H    11    37       P1  8028  0.86
      L1  H    12    29       P1  8029  0.11
      P1  H  6934  6946       L1     1  0.07

> <Gold.Chemscore.Hbond.Weighted>
-7.1465

> <Gold.Chemscore.Metal.Weighted>
-0.0000

> <Gold.Chemscore.Lipo.Weighted>
-9.1248

> <Gold.Chemscore.Internal_Hbond.Weighted>
0.0000

> <Gold.Chemscore.DEClash.Weighted>
1.9063

> <Gold.Chemscore.DEInternal.Weighted>
2.2883

> <Gold.Chemscore.Rot.Weighted>
4.6642

> <Gold.Chemscore.Internal.Correction.Weighted>
   9.000000E+99

> <Gold.Protein.RotatedTorsions>
[ 6907 6896 6895 6894 ] final  -55.70 input  -60.11 | X-H torsion
[ 7974 7965 7964 7962 ] final  152.86 input  175.53 | X-H torsion
[ 8008 7997 7996 7995 ] final  -55.91 input   59.86 | X-H torsion
[ 10167 10162 10161 10158 ] final   84.56 input  -65.29 | X-H torsion
[ 10718 10713 10712 10709 ] final -154.64 input   66.30 | X-H torsion
[ 10763 10752 10751 10750 ] final -178.48 input  -60.55 | X-H torsion
[ 11005 11000 10999 10996 ] final   67.04 input  -57.11 | X-H torsion

> <Gold.Protein.ActiveResidues>
 VAL166  LYS551  ARG553  GLY616  TRP617  ASP618  TYR619  PRO620  LYS621  CYS622 
 ASP623  PHE694  ASN695  SER759  ASP760  ASP761  ALA762  ILE779  LEU786  VAL792 
 PHE793  MET794  SER795  GLU796  ALA797  LYS798  CYS799  TRP800  GLU811  SER814 

> <Gold.Protein.RotatedAtoms>
  150.8230  134.7447  159.6788 H   0  0  0  0  0  0  0  0  0  0  0  0  # atno 6907 bound_to 6896
  152.4343  134.5713  159.9931 H   0  0  0  0  0  0  0  0  0  0  0  0  # atno 6908 bound_to 6896
  151.5892  133.3331  159.3060 H   0  0  0  0  0  0  0  0  0  0  0  0  # atno 6909 bound_to 6896
  144.8193  139.6725  143.6107 H   0  0  0  0  0  0  0  0  0  0  0  0  # atno 7974 bound_to 7965
  154.4211  140.1142  156.5552 H   0  0  0  0  0  0  0  0  0  0  0  0  # atno 8008 bound_to 7997
  155.6368  140.3496  155.4682 H   0  0  0  0  0  0  0  0  0  0  0  0  # atno 8009 bound_to 7997
  155.9903  140.1178  157.0634 H   0  0  0  0  0  0  0  0  0  0  0  0  # atno 8010 bound_to 7997
  139.9067  144.6296  150.8579 H   0  0  0  0  0  0  0  0  0  0  0  0  # atno 10167 bound_to 10162
  156.5021  130.8396  151.2613 H   0  0  0  0  0  0  0  0  0  0  0  0  # atno 10718 bound_to 10713
  154.5471  135.2810  155.1043 H   0  0  0  0  0  0  0  0  0  0  0  0  # atno 10763 bound_to 10752
  154.2503  135.6340  153.5241 H   0  0  0  0  0  0  0  0  0  0  0  0  # atno 10764 bound_to 10752
  152.9993  135.5581  154.6026 H   0  0  0  0  0  0  0  0  0  0  0  0  # atno 10765 bound_to 10752
  139.9795  134.6768  156.0290 H   0  0  0  0  0  0  0  0  0  0  0  0  # atno 11005 bound_to 11000
  146.2498  139.6175  142.9435 LP  0  0  0  0  0  0  0  0  0  0  0  0  # atno 17320 bound_to 7965
  145.5141  141.0434  143.2471 LP  0  0  0  0  0  0  0  0  0  0  0  0  # atno 17321 bound_to 7965
  140.7694  143.3396  151.2237 LP  0  0  0  0  0  0  0  0  0  0  0  0  # atno 17342 bound_to 10162
  139.6978  143.9584  152.2891 LP  0  0  0  0  0  0  0  0  0  0  0  0  # atno 17343 bound_to 10162
  157.7461  130.9978  150.2830 LP  0  0  0  0  0  0  0  0  0  0  0  0  # atno 17370 bound_to 10713
  156.3323  130.3802  149.7481 LP  0  0  0  0  0  0  0  0  0  0  0  0  # atno 17371 bound_to 10713
  141.1468  133.6554  156.3893 LP  0  0  0  0  0  0  0  0  0  0  0  0  # atno 17394 bound_to 11000
  140.5126  134.6380  157.5290 LP  0  0  0  0  0  0  0  0  0  0  0  0  # atno 17395 bound_to 11000

$$$$
