AV-unprocessed.smi:3338|AV-procd|sdf|12869|dock5
  -GOLD-   2272019273D 1   1.00000     0.00000
 Structure written by MMmdl.
 44 45  0  0  0  0  0  0  0  0  2 V2000
  144.7417  136.0881  153.2816 C   0  0  0  0  0  0  0  0  0  0  0  0
  145.9692  135.3888  152.6807 C   0  0  2  0  0  0  0  0  0  0  0  0
  145.5628  134.3565  151.6160 C   0  0  0  0  0  0  0  0  0  0  0  0
  146.8060  133.6576  151.0525 C   0  0  0  0  0  0  0  0  0  0  0  0
  147.6446  133.0338  152.1790 C   0  0  0  0  0  0  0  0  0  0  0  0
  148.0259  134.0529  153.1911 N   0  3  2  0  0  0  0  0  0  0  0  0
  148.9474  133.5040  154.2174 C   0  0  0  0  0  0  0  0  0  0  0  0
  149.3184  134.5431  155.2936 C   0  0  0  0  0  0  0  0  0  0  0  0
  149.8025  135.7788  154.6907 N   0  0  0  0  0  0  0  0  0  0  0  0
  150.3135  136.8178  155.3712 C   0  0  0  0  0  0  0  0  0  0  0  0
  150.4572  136.8076  156.5946 O   0  0  0  0  0  0  0  0  0  0  0  0
  150.7142  138.0482  154.5380 C   0  0  2  0  0  0  0  0  0  0  0  0
  152.2405  138.2498  154.4523 C   0  0  0  0  0  0  0  0  0  0  0  0
  150.0428  139.2465  155.0298 N   0  0  0  0  0  0  0  0  0  0  0  0
  149.1220  139.3451  156.0531 C   0  0  0  0  0  0  0  0  0  0  0  0
  148.7823  140.6619  156.1748 C   0  0  0  0  0  0  0  0  0  0  0  0
  149.5584  141.3050  155.1712 C   0  0  0  0  0  0  0  0  0  0  0  0
  150.3142  140.4585  154.4915 N   0  0  0  0  0  0  0  0  0  0  0  0
  146.8295  134.7199  153.7721 C   0  0  0  0  0  0  0  0  0  0  0  0
  144.0865  135.3771  153.7859 H   0  0  0  0  0  0  0  0  0  0  0  0
  144.1574  136.5884  152.5089 H   0  0  0  0  0  0  0  0  0  0  0  0
  145.0371  136.8434  154.0106 H   0  0  0  0  0  0  0  0  0  0  0  0
  146.5769  136.1539  152.1950 H   0  0  0  0  0  0  0  0  0  0  0  0
  144.8914  133.6151  152.0518 H   0  0  0  0  0  0  0  0  0  0  0  0
  145.0117  134.8404  150.8088 H   0  0  0  0  0  0  0  0  0  0  0  0
  146.5091  132.8884  150.3390 H   0  0  0  0  0  0  0  0  0  0  0  0
  147.4118  134.3761  150.4986 H   0  0  0  0  0  0  0  0  0  0  0  0
  147.0889  132.2287  152.6626 H   0  0  0  0  0  0  0  0  0  0  0  0
  148.5411  132.5863  151.7477 H   0  0  0  0  0  0  0  0  0  0  0  0
  148.5102  132.6130  154.6710 H   0  0  0  0  0  0  0  0  0  0  0  0
  149.8657  133.1772  153.7272 H   0  0  0  0  0  0  0  0  0  0  0  0
  148.4616  134.7520  155.9368 H   0  0  0  0  0  0  0  0  0  0  0  0
  150.1101  134.1692  155.9416 H   0  0  0  0  0  0  0  0  0  0  0  0
  149.7218  135.8626  153.6873 H   0  0  0  0  0  0  0  0  0  0  0  0
  150.3541  137.8701  153.5234 H   0  0  0  0  0  0  0  0  0  0  0  0
  152.7313  137.3743  154.0258 H   0  0  0  0  0  0  0  0  0  0  0  0
  152.6832  138.4343  155.4320 H   0  0  0  0  0  0  0  0  0  0  0  0
  152.4839  139.1009  153.8155 H   0  0  0  0  0  0  0  0  0  0  0  0
  148.7878  138.4788  156.6048 H   0  0  0  0  0  0  0  0  0  0  0  0
  148.0849  141.0994  156.8740 H   0  0  0  0  0  0  0  0  0  0  0  0
  149.5965  142.3547  154.9197 H   0  0  0  0  0  0  0  0  0  0  0  0
  147.1370  135.4786  154.4910 H   0  0  0  0  0  0  0  0  0  0  0  0
  146.2374  133.9871  154.3231 H   0  0  0  0  0  0  0  0  0  0  0  0
  148.5457  134.7603  152.6916 H   0  0  0  0  0  0  0  0  0  0  0  0
  1  2  1  0  0  0  0
  1 20  1  0  0  0  0
  1 21  1  0  0  0  0
  1 22  1  0  0  0  0
  2 19  1  0  0  0  0
  2  3  1  0  0  0  0
  2 23  1  0  0  0  0
  3  4  1  0  0  0  0
  3 24  1  0  0  0  0
  3 25  1  0  0  0  0
  4  5  1  0  0  0  0
  4 26  1  0  0  0  0
  4 27  1  0  0  0  0
  5  6  1  0  0  0  0
  5 28  1  0  0  0  0
  5 29  1  0  0  0  0
  6  7  1  0  0  0  0
  6 19  1  0  0  0  0
  6 44  1  0  0  0  0
  7  8  1  0  0  0  0
  7 30  1  0  0  0  0
  7 31  1  0  0  0  0
  8  9  1  0  0  0  0
  8 32  1  0  0  0  0
  8 33  1  0  0  0  0
  9 10  1  0  0  0  0
  9 34  1  0  0  0  0
 10 11  2  0  0  0  0
 10 12  1  0  0  0  0
 12 13  1  0  0  0  0
 12 14  1  0  0  0  0
 12 35  1  0  0  0  0
 13 36  1  0  0  0  0
 13 37  1  0  0  0  0
 13 38  1  0  0  0  0
 14 18  1  0  0  0  0
 14 15  1  0  0  0  0
 15 16  2  0  0  0  0
 15 39  1  0  0  0  0
 16 17  1  0  0  0  0
 16 40  1  0  0  0  0
 17 18  2  0  0  0  0
 17 41  1  0  0  0  0
 19 42  1  0  0  0  0
 19 43  1  0  0  0  0
M  CHG  1   6   1
M  END
> <s_m_source_file>
AV-unprocessed.smi

> <i_m_source_file_index>
3338

> <i_lp_mmshare_version>
43012

> <i_f3d_flags>
0

> <s_epik_input>
W0NIM11bQ0BASF0xW0NIMl1bQ0gyXVtDSDJdTihbQ0gyXTEpW0NIMl1bQ0gyXVtOSF1DKD1PKVtDQEhdKFtDSDNdKW4yW2NIXVtjSF1bY0hdbjI=

> <s_epik_cmdline>
J2VwaWtfcHl0aG9uJywgJy1waCcsICc3LjAnLCAnLXRuJywgJzgnLCAnLW1hJywgJzIwMCcsICctbWV0YWxfYmluZGluZycsICctaW1hZScsICc8aW5maWxlLm1hZT4nLCAnLW9tYWUnLCAnPG91dGZpbGUubWFlPic=

> <r_lp_tautomer_probability>
1

> <r_epik_Ionization_Penalty>
0.00225707

> <r_epik_Ionization_Penalty_Charging>
0.00223709

> <r_epik_Ionization_Penalty_Neutral>
1.99775e-05

> <r_epik_State_Penalty>
0.00153978

> <r_epik_Charging_Adjusted_Penalty>
0.00377687

> <i_epik_Tot_Q>
1

> <i_epik_Tot_abs_Q>
1

> <r_epik_Metal_State_Penalty>
-0

> <b_epik_Metal_Only>
0

> <s_lp_Force_Field>
OPLS_2005

> <r_lp_Energy>
19.7834

> <b_lp_Chiralities_Consistent>
1

> <s_lp_Variant>
AV-unprocessed.smi:3338-1

> <Gold.Version>
5.8.1

> <Gold.Id.Protein>
6NUR|6NUR_protein|mol2

> <Gold.PLP.Fitness>
44.4962

> <Gold.PLP.PLP>
-30.2593

> <Gold.PLP.part.hbond>
-3.0000

> <Gold.PLP.part.metal>
0.0000

> <Gold.PLP.part.buried>
-4.6808

> <Gold.PLP.part.nonpolar>
-22.5847

> <Gold.PLP.part.repulsive>
0.1621

> <Gold.PLP.ligand.clash>
0.0000

> <Gold.PLP.ligand.torsion>
0.2910

> <Gold.PLP.Chemscore.Hbond>
3.8960

> <Gold.PLP.Chemscore.CHOScore>
1.0000

> <Gold.PLP.Chemscore.Metal>
0.0000

> <Gold.Chemscore.Hbonds>
donor molecule, donor type, donor heavy atom, donor atom, acceptor molecule, acceptor atom, score
      L1  H     6    44       P1  7948  1.90
      L1  H     9    34       P1  7948  0.90
      P1  H  7989  7998       L1    18  0.98
      L1  C    17    41       P1  8028  0.90

> <Gold.PLP.Chemscore.Internal.Correction>
0.1310

> <Gold.Rescore>
     Score         DG    S(hbond)    S(metal)    S(lipo)     H(rot)  DE(clash)    DE(int)     intcor
     15.46     -17.09       2.66        0.00      61.70       1.76       0.04       1.59       ----

> <Gold.Chemscore.Fitness>
15.4554

> <Gold.Chemscore.DG>
-17.0893

> <Gold.Chemscore.ZeroCoef>
-5.4800

> <Gold.Chemscore.Hbond>
2.6613

> <Gold.Chemscore.Metal>
0.0000

> <Gold.Chemscore.Lipo>
61.6961

> <Gold.Chemscore.Internal_Hbond>
0.0000

> <Gold.Chemscore.DEClash>
0.0402

> <Gold.Chemscore.DEInternal>
1.5937

> <Gold.Chemscore.Rot>
1.7570

> <Gold.Chemscore.Internal.Correction>
   9.000000E+99

> <Gold.Chemscore.Hbonds>
donor molecule, donor type, donor heavy atom, donor atom, acceptor molecule, acceptor atom, score
      L1  H     6    44       P1  7948  0.22
      L1  H     9    34       P1  7948  0.17
      P1  H  7989  7998       L1    18  0.93

> <Gold.Chemscore.Hbond.Weighted>
-8.8887

> <Gold.Chemscore.Metal.Weighted>
-0.0000

> <Gold.Chemscore.Lipo.Weighted>
-7.2184

> <Gold.Chemscore.Internal_Hbond.Weighted>
0.0000

> <Gold.Chemscore.DEClash.Weighted>
0.0402

> <Gold.Chemscore.DEInternal.Weighted>
1.5937

> <Gold.Chemscore.Rot.Weighted>
4.4979

> <Gold.Chemscore.Internal.Correction.Weighted>
   9.000000E+99

> <Gold.Protein.RotatedTorsions>
[ 6907 6896 6895 6894 ] final   37.27 input  -60.11 | X-H torsion
[ 7974 7965 7964 7962 ] final   98.47 input  175.53 | X-H torsion
[ 8008 7997 7996 7995 ] final -140.94 input   59.86 | X-H torsion
[ 10167 10162 10161 10158 ] final  -26.62 input  -65.29 | X-H torsion
[ 10718 10713 10712 10709 ] final   46.48 input   66.30 | X-H torsion
[ 10763 10752 10751 10750 ] final   29.71 input  -60.55 | X-H torsion
[ 11005 11000 10999 10996 ] final   80.76 input  -57.11 | X-H torsion

> <Gold.Protein.ActiveResidues>
 VAL166  LYS551  ARG553  GLY616  TRP617  ASP618  TYR619  PRO620  LYS621  CYS622 
 ASP623  PHE694  ASN695  SER759  ASP760  ASP761  ALA762  ILE779  LEU786  VAL792 
 PHE793  MET794  SER795  GLU796  ALA797  LYS798  CYS799  TRP800  GLU811  SER814 

> <Gold.Protein.RotatedAtoms>
  152.1409  134.9063  160.0553 H   0  0  0  0  0  0  0  0  0  0  0  0  # atno 6907 bound_to 6896
  152.0131  133.3864  159.4236 H   0  0  0  0  0  0  0  0  0  0  0  0  # atno 6908 bound_to 6896
  150.6865  134.3630  159.5002 H   0  0  0  0  0  0  0  0  0  0  0  0  # atno 6909 bound_to 6896
  145.4117  139.2333  143.3244 H   0  0  0  0  0  0  0  0  0  0  0  0  # atno 7974 bound_to 7965
  155.4695  140.0552  157.2981 H   0  0  0  0  0  0  0  0  0  0  0  0  # atno 8008 bound_to 7997
  154.4704  140.2037  155.9963 H   0  0  0  0  0  0  0  0  0  0  0  0  # atno 8009 bound_to 7997
  156.1046  140.3214  155.7993 H   0  0  0  0  0  0  0  0  0  0  0  0  # atno 8010 bound_to 7997
  140.7282  143.4163  151.1023 H   0  0  0  0  0  0  0  0  0  0  0  0  # atno 10167 bound_to 10162
  157.4485  130.8124  149.7765 H   0  0  0  0  0  0  0  0  0  0  0  0  # atno 10718 bound_to 10713
  153.0414  135.6482  154.0933 H   0  0  0  0  0  0  0  0  0  0  0  0  # atno 10763 bound_to 10752
  154.0639  135.2886  155.3321 H   0  0  0  0  0  0  0  0  0  0  0  0  # atno 10764 bound_to 10752
  154.6639  135.5381  153.8118 H   0  0  0  0  0  0  0  0  0  0  0  0  # atno 10765 bound_to 10752
  139.9122  134.7945  156.1952 H   0  0  0  0  0  0  0  0  0  0  0  0  # atno 11005 bound_to 11000
  146.2701  140.4830  142.8818 LP  0  0  0  0  0  0  0  0  0  0  0  0  # atno 17320 bound_to 7965
  144.8304  140.6698  143.6294 LP  0  0  0  0  0  0  0  0  0  0  0  0  # atno 17321 bound_to 7965
  139.7803  143.8365  152.3136 LP  0  0  0  0  0  0  0  0  0  0  0  0  # atno 17342 bound_to 10162
  139.8314  144.7252  150.9446 LP  0  0  0  0  0  0  0  0  0  0  0  0  # atno 17343 bound_to 10162
  155.9977  130.3898  150.2729 LP  0  0  0  0  0  0  0  0  0  0  0  0  # atno 17370 bound_to 10713
  157.0899  131.0166  151.3125 LP  0  0  0  0  0  0  0  0  0  0  0  0  # atno 17371 bound_to 10713
  141.0559  133.6865  156.1859 LP  0  0  0  0  0  0  0  0  0  0  0  0  # atno 17394 bound_to 11000
  140.6738  134.4840  157.5588 LP  0  0  0  0  0  0  0  0  0  0  0  0  # atno 17395 bound_to 11000

$$$$
