AV-unprocessed.smi:1717|AV-procd|sdf|6921|dock9
  -GOLD-   22720 8123D 1   1.00000     0.00000
 Structure written by MMmdl.
 40 41  0  0  0  0  0  0  0  0  3 V2000
  150.8421  141.1867  155.9894 C   0  0  0  0  0  0  0  0  0  0  0  0
  151.9151  140.2776  156.3750 N   0  5  0  0  0  0  0  0  0  0  0  0
  151.7658  138.9275  156.4436 C   0  0  0  0  0  0  0  0  0  0  0  0
  151.9603  138.1412  157.3765 O   0  0  0  0  0  0  0  0  0  0  0  0
  151.2434  138.3608  155.1183 C   0  0  0  0  0  0  0  0  0  0  0  0
  149.7741  138.5482  155.0262 N   0  3  2  0  0  0  0  0  0  0  0  0
  149.0230  137.4391  155.6664 C   0  0  0  0  0  0  0  0  0  0  0  0
  147.5134  137.7354  155.6969 C   0  0  0  0  0  0  0  0  0  0  0  0
  146.9522  138.0330  154.2921 C   0  0  2  0  0  0  0  0  0  0  0  0
  146.9034  136.8334  153.4565 N   0  0  0  0  0  0  0  0  0  0  0  0
  145.7846  136.2643  152.9846 C   0  0  0  0  0  0  0  0  0  0  0  0
  144.6535  136.6817  153.2322 O   0  0  0  0  0  0  0  0  0  0  0  0
  146.0638  135.1992  152.2162 N   0  0  0  0  0  0  0  0  0  0  0  0
  145.1380  134.3591  151.5479 C   0  0  0  0  0  0  0  0  0  0  0  0
  143.9335  133.7737  152.0379 C   0  0  0  0  0  0  0  0  0  0  0  0
  143.3412  133.0427  151.1040 N   0  0  0  0  0  0  0  0  0  0  0  0
  144.1525  133.1540  150.0282 N   0  0  0  0  0  0  0  0  0  0  0  0
  145.2575  133.9442  150.2552 C   0  0  0  0  0  0  0  0  0  0  0  0
  147.7952  139.1280  153.6158 C   0  0  0  0  0  0  0  0  0  0  0  0
  149.2990  138.8002  153.6389 C   0  0  0  0  0  0  0  0  0  0  0  0
  143.9406  132.6891  149.1569 H   0  0  0  0  0  0  0  0  0  0  0  0
  151.1657  142.2272  156.0096 H   0  0  0  0  0  0  0  0  0  0  0  0
  149.9790  141.1185  156.6523 H   0  0  0  0  0  0  0  0  0  0  0  0
  150.4802  140.9962  154.9785 H   0  0  0  0  0  0  0  0  0  0  0  0
  151.7403  138.7901  154.2454 H   0  0  0  0  0  0  0  0  0  0  0  0
  151.4838  137.2968  155.1154 H   0  0  0  0  0  0  0  0  0  0  0  0
  149.2188  136.5079  155.1322 H   0  0  0  0  0  0  0  0  0  0  0  0
  149.3765  137.2973  156.6882 H   0  0  0  0  0  0  0  0  0  0  0  0
  146.9781  136.9051  156.1589 H   0  0  0  0  0  0  0  0  0  0  0  0
  147.3365  138.5990  156.3392 H   0  0  0  0  0  0  0  0  0  0  0  0
  145.9326  138.4095  154.3941 H   0  0  0  0  0  0  0  0  0  0  0  0
  147.7882  136.4216  153.1989 H   0  0  0  0  0  0  0  0  0  0  0  0
  147.0384  134.9731  152.0838 H   0  0  0  0  0  0  0  0  0  0  0  0
  143.4735  133.8451  153.0120 H   0  0  0  0  0  0  0  0  0  0  0  0
  146.0055  134.1345  149.4996 H   0  0  0  0  0  0  0  0  0  0  0  0
  147.4610  139.2852  152.5895 H   0  0  0  0  0  0  0  0  0  0  0  0
  147.6329  140.0742  154.1339 H   0  0  0  0  0  0  0  0  0  0  0  0
  149.8457  139.6334  153.1970 H   0  0  0  0  0  0  0  0  0  0  0  0
  149.5072  137.9276  153.0180 H   0  0  0  0  0  0  0  0  0  0  0  0
  149.5705  139.3790  155.5635 H   0  0  0  0  0  0  0  0  0  0  0  0
  1  2  1  0  0  0  0
  1 22  1  0  0  0  0
  1 23  1  0  0  0  0
  1 24  1  0  0  0  0
  2  3  1  0  0  0  0
  3  4  2  0  0  0  0
  3  5  1  0  0  0  0
  5  6  1  0  0  0  0
  5 25  1  0  0  0  0
  5 26  1  0  0  0  0
  6 20  1  0  0  0  0
  6  7  1  0  0  0  0
  6 40  1  0  0  0  0
  7  8  1  0  0  0  0
  7 27  1  0  0  0  0
  7 28  1  0  0  0  0
  8  9  1  0  0  0  0
  8 29  1  0  0  0  0
  8 30  1  0  0  0  0
  9 10  1  0  0  0  0
  9 19  1  0  0  0  0
  9 31  1  0  0  0  0
 10 11  1  0  0  0  0
 10 32  1  0  0  0  0
 11 12  2  0  0  0  0
 11 13  1  0  0  0  0
 13 14  1  0  0  0  0
 13 33  1  0  0  0  0
 14 18  2  0  0  0  0
 14 15  1  0  0  0  0
 15 16  2  0  0  0  0
 15 34  1  0  0  0  0
 16 17  1  0  0  0  0
 17 21  1  0  0  0  0
 17 18  1  0  0  0  0
 18 35  1  0  0  0  0
 19 20  1  0  0  0  0
 19 36  1  0  0  0  0
 19 37  1  0  0  0  0
 20 38  1  0  0  0  0
 20 39  1  0  0  0  0
M  CHG  1   2  -1
M  CHG  1   6   1
M  END
> <s_m_source_file>
AV-unprocessed.smi

> <i_m_source_file_index>
1717

> <i_lp_mmshare_version>
43012

> <i_f3d_flags>
0

> <s_epik_input>
W0NIM11bTkhdQyg9TylbQ0gyXU4xW0NIMl1bQ0gyXVtDSF0oW0NIMl1bQ0gyXTEpW05IXUMoPU8pW05IXWMyW2NIXW5bbkhdW2NIXTI=

> <s_epik_cmdline>
J2VwaWtfcHl0aG9uJywgJy1waCcsICc3LjAnLCAnLXRuJywgJzgnLCAnLW1hJywgJzIwMCcsICctbWV0YWxfYmluZGluZycsICctaW1hZScsICc8aW5maWxlLm1hZT4nLCAnLW9tYWUnLCAnPG91dGZpbGUubWFlPic=

> <r_lp_tautomer_probability>
0.5

> <r_epik_Ionization_Penalty>
6.1395

> <r_epik_Ionization_Penalty_Charging>
6.13946

> <r_epik_Ionization_Penalty_Neutral>
4.21226e-05

> <r_epik_State_Penalty>
6.9595

> <r_epik_Charging_Adjusted_Penalty>
13.099

> <i_epik_Tot_Q>
0

> <i_epik_Tot_abs_Q>
2

> <r_epik_Metal_State_Penalty>
2.89141

> <b_epik_Metal_Only>
1

> <s_lp_Force_Field>
OPLS_2005

> <r_lp_Energy>
13.1948

> <b_lp_Chiralities_Consistent>
1

> <s_lp_Variant>
AV-unprocessed.smi:1717-5

> <Gold.Version>
5.8.1

> <Gold.Id.Protein>
6NUR|6NUR_protein|mol2

> <Gold.PLP.Fitness>
41.4959

> <Gold.PLP.PLP>
-25.5949

> <Gold.PLP.part.hbond>
-5.0000

> <Gold.PLP.part.metal>
0.0000

> <Gold.PLP.part.buried>
-4.0142

> <Gold.PLP.part.nonpolar>
-17.4431

> <Gold.PLP.part.repulsive>
0.3210

> <Gold.PLP.ligand.clash>
0.0000

> <Gold.PLP.ligand.torsion>
1.5817

> <Gold.PLP.Chemscore.Hbond>
4.4595

> <Gold.PLP.Chemscore.CHOScore>
1.8861

> <Gold.PLP.Chemscore.Metal>
0.0000

> <Gold.Chemscore.Hbonds>
donor molecule, donor type, donor heavy atom, donor atom, acceptor molecule, acceptor atom, score
      L1  H    10    32       P1  7948  0.88
      L1  H    13    33       P1  7948  0.29
      L1  C    15    34       P1 10957  0.21
      L1  C    18    35       P1  7921  0.88

> <Gold.PLP.Chemscore.Internal.Correction>
0.0275

> <Gold.Rescore>
     Score         DG    S(hbond)    S(metal)    S(lipo)     H(rot)  DE(clash)    DE(int)     intcor
     17.34     -19.14       3.94        0.00      42.80       1.75       0.01       1.79       ----

> <Gold.Chemscore.Fitness>
17.3434

> <Gold.Chemscore.DG>
-19.1423

> <Gold.Chemscore.ZeroCoef>
-5.4800

> <Gold.Chemscore.Hbond>
3.9360

> <Gold.Chemscore.Metal>
0.0000

> <Gold.Chemscore.Lipo>
42.8020

> <Gold.Chemscore.Internal_Hbond>
0.0000

> <Gold.Chemscore.DEClash>
0.0106

> <Gold.Chemscore.DEInternal>
1.7883

> <Gold.Chemscore.Rot>
1.7546

> <Gold.Chemscore.Internal.Correction>
   9.000000E+99

> <Gold.Chemscore.Hbonds>
donor molecule, donor type, donor heavy atom, donor atom, acceptor molecule, acceptor atom, score
      L1  H    10    32       P1  7948  0.87
      L1  H    13    33       P1  7948  0.28

> <Gold.Chemscore.Hbond.Weighted>
-13.1461

> <Gold.Chemscore.Metal.Weighted>
-0.0000

> <Gold.Chemscore.Lipo.Weighted>
-5.0078

> <Gold.Chemscore.Internal_Hbond.Weighted>
0.0000

> <Gold.Chemscore.DEClash.Weighted>
0.0106

> <Gold.Chemscore.DEInternal.Weighted>
1.7883

> <Gold.Chemscore.Rot.Weighted>
4.4917

> <Gold.Chemscore.Internal.Correction.Weighted>
   9.000000E+99

> <Gold.Protein.RotatedTorsions>
[ 6907 6896 6895 6894 ] final  133.13 input  -60.11 | X-H torsion
[ 7974 7965 7964 7962 ] final   42.55 input  175.53 | X-H torsion
[ 8008 7997 7996 7995 ] final   67.49 input   59.86 | X-H torsion
[ 10167 10162 10161 10158 ] final  -66.48 input  -65.29 | X-H torsion
[ 10718 10713 10712 10709 ] final   12.90 input   66.30 | X-H torsion
[ 10763 10752 10751 10750 ] final -127.19 input  -60.55 | X-H torsion
[ 11005 11000 10999 10996 ] final  113.52 input  -57.11 | X-H torsion

> <Gold.Protein.ActiveResidues>
 VAL166  LYS551  ARG553  GLY616  TRP617  ASP618  TYR619  PRO620  LYS621  CYS622 
 ASP623  PHE694  ASN695  SER759  ASP760  ASP761  ALA762  ILE779  LEU786  VAL792 
 PHE793  MET794  SER795  GLU796  ALA797  LYS798  CYS799  TRP800  GLU811  SER814 

> <Gold.Protein.RotatedAtoms>
  152.3252  133.5897  159.5771 H   0  0  0  0  0  0  0  0  0  0  0  0  # atno 6907 bound_to 6896
  150.7392  133.9952  159.3629 H   0  0  0  0  0  0  0  0  0  0  0  0  # atno 6908 bound_to 6896
  151.7832  135.0756  160.0428 H   0  0  0  0  0  0  0  0  0  0  0  0  # atno 6909 bound_to 6896
  146.0730  139.5287  142.9585 H   0  0  0  0  0  0  0  0  0  0  0  0  # atno 7974 bound_to 7965
  155.6937  140.3496  155.4904 H   0  0  0  0  0  0  0  0  0  0  0  0  # atno 8008 bound_to 7997
  155.9501  140.1117  157.1006 H   0  0  0  0  0  0  0  0  0  0  0  0  # atno 8009 bound_to 7997
  154.4120  140.1196  156.5028 H   0  0  0  0  0  0  0  0  0  0  0  0  # atno 8010 bound_to 7997
  140.5654  143.2314  151.6645 H   0  0  0  0  0  0  0  0  0  0  0  0  # atno 10167 bound_to 10162
  157.0168  130.6139  149.5715 H   0  0  0  0  0  0  0  0  0  0  0  0  # atno 10718 bound_to 10713
  154.8751  135.3970  154.3553 H   0  0  0  0  0  0  0  0  0  0  0  0  # atno 10763 bound_to 10752
  153.4333  135.7025  153.6222 H   0  0  0  0  0  0  0  0  0  0  0  0  # atno 10764 bound_to 10752
  153.4834  135.3764  155.2423 H   0  0  0  0  0  0  0  0  0  0  0  0  # atno 10765 bound_to 10752
  139.8955  134.9551  156.6751 H   0  0  0  0  0  0  0  0  0  0  0  0  # atno 11005 bound_to 11000
  145.6356  141.0295  143.1839 LP  0  0  0  0  0  0  0  0  0  0  0  0  # atno 17320 bound_to 7965
  144.7244  139.7924  143.7370 LP  0  0  0  0  0  0  0  0  0  0  0  0  # atno 17321 bound_to 7965
  139.5090  144.3591  152.0580 LP  0  0  0  0  0  0  0  0  0  0  0  0  # atno 17342 bound_to 10162
  140.2722  144.3952  150.6147 LP  0  0  0  0  0  0  0  0  0  0  0  0  # atno 17343 bound_to 10162
  156.0116  130.5208  150.8006 LP  0  0  0  0  0  0  0  0  0  0  0  0  # atno 17370 bound_to 10713
  157.5279  131.0935  150.9993 LP  0  0  0  0  0  0  0  0  0  0  0  0  # atno 17371 bound_to 10713
  140.7343  133.9032  155.8233 LP  0  0  0  0  0  0  0  0  0  0  0  0  # atno 17394 bound_to 11000
  141.0128  134.0996  157.4203 LP  0  0  0  0  0  0  0  0  0  0  0  0  # atno 17395 bound_to 11000

$$$$
