AV-unprocessed.smi:2896|AV-procd|sdf|11139|dock7
  -GOLD-   2272016 13D 1   1.00000     0.00000
 Structure written by MMmdl.
 49 50  0  0  0  0  0  0  0  0  1 V2000
  146.7232  137.1811  156.8863 C   0  0  0  0  0  0  0  0  0  0  0  0
  147.4061  136.2662  155.8501 C   0  0  1  0  0  0  0  0  0  0  0  0
  146.7936  136.3667  154.4339 C   0  0  0  0  0  0  0  0  0  0  0  0
  146.9874  135.1486  153.6549 N   0  0  0  0  0  0  0  0  0  0  0  0
  146.6308  133.9120  154.0419 C   0  0  0  0  0  0  0  0  0  0  0  0
  146.1141  133.6951  155.1394 O   0  0  0  0  0  0  0  0  0  0  0  0
  146.9133  132.7437  153.0625 C   0  0  0  0  0  0  0  0  0  0  0  0
  148.3906  132.8151  152.5926 C   0  0  0  0  0  0  0  0  0  0  0  0
  146.7582  131.3722  153.7705 C   0  0  0  0  0  0  0  0  0  0  0  0
  145.9147  132.8692  151.8934 C   0  0  0  0  0  0  0  0  0  0  0  0
  144.9513  133.9061  151.8228 C   0  0  0  0  0  0  0  0  0  0  0  0
  144.0643  133.9565  150.7306 C   0  0  0  0  0  0  0  0  0  0  0  0
  144.1627  132.9638  149.7389 C   0  0  0  0  0  0  0  0  0  0  0  0
  145.0652  131.9638  149.7858 N   0  0  0  0  0  0  0  0  0  0  0  0
  145.9115  131.9245  150.8364 C   0  0  0  0  0  0  0  0  0  0  0  0
  148.9510  136.3778  155.8560 C   0  0  0  0  0  0  0  0  0  0  0  0
  149.5617  137.4359  155.0446 N   0  0  0  0  0  0  0  0  0  0  0  0
  150.9884  137.5448  155.3342 C   0  0  0  0  0  0  0  0  0  0  0  0
  151.6691  138.6391  154.4950 C   0  0  0  0  0  0  0  0  0  0  0  0
  151.0193  139.8839  154.7254 O   0  0  0  0  0  0  0  0  0  0  0  0
  149.6327  139.8412  154.4075 C   0  0  0  0  0  0  0  0  0  0  0  0
  148.9401  138.7440  155.2354 C   0  0  0  0  0  0  0  0  0  0  0  0
  146.7358  138.2290  156.5940 H   0  0  0  0  0  0  0  0  0  0  0  0
  147.2076  137.1010  157.8595 H   0  0  0  0  0  0  0  0  0  0  0  0
  145.6788  136.9015  157.0272 H   0  0  0  0  0  0  0  0  0  0  0  0
  147.2040  135.2542  156.2038 H   0  0  0  0  0  0  0  0  0  0  0  0
  145.7205  136.5457  154.4962 H   0  0  0  0  0  0  0  0  0  0  0  0
  147.2143  137.2193  153.8980 H   0  0  0  0  0  0  0  0  0  0  0  0
  147.4156  135.2533  152.7466 H   0  0  0  0  0  0  0  0  0  0  0  0
  148.6426  133.7672  152.1243 H   0  0  0  0  0  0  0  0  0  0  0  0
  148.6150  132.0269  151.8730 H   0  0  0  0  0  0  0  0  0  0  0  0
  149.0778  132.6880  153.4302 H   0  0  0  0  0  0  0  0  0  0  0  0
  145.7630  131.2027  154.1807 H   0  0  0  0  0  0  0  0  0  0  0  0
  147.4616  131.2725  154.5985 H   0  0  0  0  0  0  0  0  0  0  0  0
  146.9575  130.5536  153.0781 H   0  0  0  0  0  0  0  0  0  0  0  0
  144.8697  134.6666  152.5830 H   0  0  0  0  0  0  0  0  0  0  0  0
  143.3233  134.7386  150.6565 H   0  0  0  0  0  0  0  0  0  0  0  0
  143.4978  132.9718  148.8879 H   0  0  0  0  0  0  0  0  0  0  0  0
  146.6027  131.0957  150.8288 H   0  0  0  0  0  0  0  0  0  0  0  0
  149.3155  136.4379  156.8826 H   0  0  0  0  0  0  0  0  0  0  0  0
  149.3221  135.4228  155.4807 H   0  0  0  0  0  0  0  0  0  0  0  0
  151.1352  137.7617  156.3936 H   0  0  0  0  0  0  0  0  0  0  0  0
  151.4793  136.5903  155.1415 H   0  0  0  0  0  0  0  0  0  0  0  0
  152.7203  138.7292  154.7691 H   0  0  0  0  0  0  0  0  0  0  0  0
  151.6341  138.3913  153.4329 H   0  0  0  0  0  0  0  0  0  0  0  0
  149.1883  140.8136  154.6197 H   0  0  0  0  0  0  0  0  0  0  0  0
  149.5040  139.6568  153.3399 H   0  0  0  0  0  0  0  0  0  0  0  0
  147.8959  138.7112  154.9349 H   0  0  0  0  0  0  0  0  0  0  0  0
  148.9609  139.0157  156.2918 H   0  0  0  0  0  0  0  0  0  0  0  0
  1  2  1  0  0  0  0
  1 23  1  0  0  0  0
  1 24  1  0  0  0  0
  1 25  1  0  0  0  0
  2  3  1  0  0  0  0
  2 16  1  0  0  0  0
  2 26  1  0  0  0  0
  3  4  1  0  0  0  0
  3 27  1  0  0  0  0
  3 28  1  0  0  0  0
  4  5  1  0  0  0  0
  4 29  1  0  0  0  0
  5  6  2  0  0  0  0
  5  7  1  0  0  0  0
  7  8  1  0  0  0  0
  7  9  1  0  0  0  0
  7 10  1  0  0  0  0
  8 30  1  0  0  0  0
  8 31  1  0  0  0  0
  8 32  1  0  0  0  0
  9 33  1  0  0  0  0
  9 34  1  0  0  0  0
  9 35  1  0  0  0  0
 10 15  1  0  0  0  0
 10 11  2  0  0  0  0
 11 12  1  0  0  0  0
 11 36  1  0  0  0  0
 12 13  2  0  0  0  0
 12 37  1  0  0  0  0
 13 14  1  0  0  0  0
 13 38  1  0  0  0  0
 14 15  2  0  0  0  0
 15 39  1  0  0  0  0
 16 17  1  0  0  0  0
 16 40  1  0  0  0  0
 16 41  1  0  0  0  0
 17 22  1  0  0  0  0
 17 18  1  0  0  0  0
 18 19  1  0  0  0  0
 18 42  1  0  0  0  0
 18 43  1  0  0  0  0
 19 20  1  0  0  0  0
 19 44  1  0  0  0  0
 19 45  1  0  0  0  0
 20 21  1  0  0  0  0
 21 22  1  0  0  0  0
 21 46  1  0  0  0  0
 21 47  1  0  0  0  0
 22 48  1  0  0  0  0
 22 49  1  0  0  0  0
M  END
> <s_m_source_file>
AV-unprocessed.smi

> <i_m_source_file_index>
2896

> <i_lp_mmshare_version>
43012

> <i_f3d_flags>
0

> <s_epik_input>
W0NIMl0xW0NIMl1PW0NIMl1bQ0gyXU4xW0NIMl1bQ0BIXShbQ0gzXSlbQ0gyXVtOSF1DKD1PKUMoW0NIM10pKFtDSDNdKWMyW2NIXVtjSF1bY0hdbltjSF0y

> <s_epik_cmdline>
J2VwaWtfcHl0aG9uJywgJy1waCcsICc3LjAnLCAnLXRuJywgJzgnLCAnLW1hJywgJzIwMCcsICctbWV0YWxfYmluZGluZycsICctaW1hZScsICc8aW5maWxlLm1hZT4nLCAnLW9tYWUnLCAnPG91dGZpbGUubWFlPic=

> <r_epik_Ionization_Penalty>
0.458454

> <r_epik_Ionization_Penalty_Charging>
0

> <r_epik_Ionization_Penalty_Neutral>
0.458454

> <r_epik_State_Penalty>
0.453234

> <r_epik_Charging_Adjusted_Penalty>
0.453234

> <i_epik_Tot_Q>
0

> <i_epik_Tot_abs_Q>
0

> <r_epik_Metal_State_Penalty>
0.448418

> <b_epik_Metal_Only>
0

> <s_lp_Force_Field>
OPLS_2005

> <r_lp_Energy>
37.0423

> <b_lp_Chiralities_Consistent>
1

> <s_lp_Variant>
AV-unprocessed.smi:2896-4

> <Gold.Version>
5.8.1

> <Gold.Id.Protein>
6NUR|6NUR_protein|mol2

> <Gold.PLP.Fitness>
35.9463

> <Gold.PLP.PLP>
-28.7489

> <Gold.PLP.part.hbond>
-2.0000

> <Gold.PLP.part.metal>
0.0000

> <Gold.PLP.part.buried>
-5.1758

> <Gold.PLP.part.nonpolar>
-22.8501

> <Gold.PLP.part.repulsive>
0.4065

> <Gold.PLP.ligand.clash>
0.0000

> <Gold.PLP.ligand.torsion>
0.8390

> <Gold.PLP.Chemscore.Hbond>
1.8480

> <Gold.PLP.Chemscore.CHOScore>
1.0000

> <Gold.PLP.Chemscore.Metal>
0.0000

> <Gold.Chemscore.Hbonds>
donor molecule, donor type, donor heavy atom, donor atom, acceptor molecule, acceptor atom, score
      L1  H     4    29       P1  7948  0.82
      P1  H  7989  7998       L1    20  1.00
      L1  C    15    39       P1 10747  1.00

> <Gold.PLP.Chemscore.Internal.Correction>
0.3314

> <Gold.Rescore>
     Score         DG    S(hbond)    S(metal)    S(lipo)     H(rot)  DE(clash)    DE(int)     intcor
     11.90     -14.92       1.26        0.00      81.51       1.68       0.46       2.57       ----

> <Gold.Chemscore.Fitness>
11.8981

> <Gold.Chemscore.DG>
-14.9192

> <Gold.Chemscore.ZeroCoef>
-5.4800

> <Gold.Chemscore.Hbond>
1.2609

> <Gold.Chemscore.Metal>
0.0000

> <Gold.Chemscore.Lipo>
81.5114

> <Gold.Chemscore.Internal_Hbond>
0.0000

> <Gold.Chemscore.DEClash>
0.4555

> <Gold.Chemscore.DEInternal>
2.5656

> <Gold.Chemscore.Rot>
1.6832

> <Gold.Chemscore.Internal.Correction>
   9.000000E+99

> <Gold.Chemscore.Hbonds>
donor molecule, donor type, donor heavy atom, donor atom, acceptor molecule, acceptor atom, score
      L1  H     4    29       P1  7948  0.78
      P1  H  7989  7998       L1    20  0.14

> <Gold.Chemscore.Hbond.Weighted>
-4.2113

> <Gold.Chemscore.Metal.Weighted>
-0.0000

> <Gold.Chemscore.Lipo.Weighted>
-9.5368

> <Gold.Chemscore.Internal_Hbond.Weighted>
0.0000

> <Gold.Chemscore.DEClash.Weighted>
0.4555

> <Gold.Chemscore.DEInternal.Weighted>
2.5656

> <Gold.Chemscore.Rot.Weighted>
4.3090

> <Gold.Chemscore.Internal.Correction.Weighted>
   9.000000E+99

> <Gold.Protein.RotatedTorsions>
[ 6907 6896 6895 6894 ] final   92.87 input  -60.11 | X-H torsion
[ 7974 7965 7964 7962 ] final   -4.82 input  175.53 | X-H torsion
[ 8008 7997 7996 7995 ] final  -90.61 input   59.86 | X-H torsion
[ 10167 10162 10161 10158 ] final   61.36 input  -65.29 | X-H torsion
[ 10718 10713 10712 10709 ] final    1.48 input   66.30 | X-H torsion
[ 10763 10752 10751 10750 ] final    4.03 input  -60.55 | X-H torsion
[ 11005 11000 10999 10996 ] final  150.98 input  -57.11 | X-H torsion

> <Gold.Protein.ActiveResidues>
 VAL166  LYS551  ARG553  GLY616  TRP617  ASP618  TYR619  PRO620  LYS621  CYS622 
 ASP623  PHE694  ASN695  SER759  ASP760  ASP761  ALA762  ILE779  LEU786  VAL792 
 PHE793  MET794  SER795  GLU796  ALA797  LYS798  CYS799  TRP800  GLU811  SER814 

> <Gold.Protein.RotatedAtoms>
  152.5453  134.1435  159.8488 H   0  0  0  0  0  0  0  0  0  0  0  0  # atno 6907 bound_to 6896
  151.1469  133.4926  159.2603 H   0  0  0  0  0  0  0  0  0  0  0  0  # atno 6908 bound_to 6896
  151.1514  135.0239  159.8724 H   0  0  0  0  0  0  0  0  0  0  0  0  # atno 6909 bound_to 6896
  146.2365  140.1928  142.8333 H   0  0  0  0  0  0  0  0  0  0  0  0  # atno 7974 bound_to 7965
  154.7006  140.0528  157.0454 H   0  0  0  0  0  0  0  0  0  0  0  0  # atno 8008 bound_to 7997
  155.0690  140.3197  155.4617 H   0  0  0  0  0  0  0  0  0  0  0  0  # atno 8009 bound_to 7997
  156.2759  140.2085  156.5817 H   0  0  0  0  0  0  0  0  0  0  0  0  # atno 8010 bound_to 7997
  140.1556  144.4421  150.6736 H   0  0  0  0  0  0  0  0  0  0  0  0  # atno 10167 bound_to 10162
  156.8489  130.5546  149.5671 H   0  0  0  0  0  0  0  0  0  0  0  0  # atno 10718 bound_to 10713
  153.2762  135.6936  153.7431 H   0  0  0  0  0  0  0  0  0  0  0  0  # atno 10763 bound_to 10752
  153.6435  135.3389  155.3079 H   0  0  0  0  0  0  0  0  0  0  0  0  # atno 10764 bound_to 10752
  154.8480  135.4437  154.1801 H   0  0  0  0  0  0  0  0  0  0  0  0  # atno 10765 bound_to 10752
  140.1178  134.8883  157.2029 H   0  0  0  0  0  0  0  0  0  0  0  0  # atno 11005 bound_to 11000
  144.9844  140.8489  143.5377 LP  0  0  0  0  0  0  0  0  0  0  0  0  # atno 17320 bound_to 7965
  145.1926  139.2293  143.5235 LP  0  0  0  0  0  0  0  0  0  0  0  0  # atno 17321 bound_to 7965
  140.6675  143.2273  151.5706 LP  0  0  0  0  0  0  0  0  0  0  0  0  # atno 17342 bound_to 10162
  139.5405  144.2660  152.1341 LP  0  0  0  0  0  0  0  0  0  0  0  0  # atno 17343 bound_to 10162
  156.0839  130.5843  150.9613 LP  0  0  0  0  0  0  0  0  0  0  0  0  # atno 17370 bound_to 10713
  157.6314  131.0920  150.8433 LP  0  0  0  0  0  0  0  0  0  0  0  0  # atno 17371 bound_to 10713
  140.3005  134.3137  155.7291 LP  0  0  0  0  0  0  0  0  0  0  0  0  # atno 17394 bound_to 11000
  141.2145  133.7589  156.9633 LP  0  0  0  0  0  0  0  0  0  0  0  0  # atno 17395 bound_to 11000

$$$$
