AV-unprocessed.smi:1166|AV-procd|sdf|4936|dock8
  -GOLD-   22720 3523D 1   1.00000     0.00000
 Structure written by MMmdl.
 46 47  0  0  0  0  0  0  0  0  1 V2000
  143.8160  132.0992  148.9526 C   0  0  0  0  0  0  0  0  0  0  0  0
  144.3121  132.2880  150.3121 N   0  0  0  0  0  0  0  0  0  0  0  0
  144.6918  131.1308  151.1130 C   0  0  0  0  0  0  0  0  0  0  0  0
  144.5096  133.5951  150.8135 C   0  0  0  0  0  0  0  0  0  0  0  0
  144.7621  133.8298  152.1880 C   0  0  0  0  0  0  0  0  0  0  0  0
  144.9515  135.1505  152.6364 C   0  0  0  0  0  0  0  0  0  0  0  0
  144.8771  136.2105  151.7132 C   0  0  0  0  0  0  0  0  0  0  0  0
  145.0922  137.5306  152.1924 N   0  0  0  0  0  0  0  0  0  0  0  0
  145.9862  137.9543  153.1018 C   0  0  0  0  0  0  0  0  0  0  0  0
  146.8131  137.2441  153.6734 O   0  0  0  0  0  0  0  0  0  0  0  0
  145.8828  139.2758  153.3005 N   0  0  0  0  0  0  0  0  0  0  0  0
  146.7269  140.0620  154.1944 C   0  0  2  0  0  0  0  0  0  0  0  0
  146.1460  141.4706  154.3994 C   0  0  0  0  0  0  0  0  0  0  0  0
  147.0793  142.2881  155.2995 C   0  0  0  0  0  0  0  0  0  0  0  0
  148.5073  142.3379  154.7278 C   0  0  0  0  0  0  0  0  0  0  0  0
  149.0323  140.9851  154.4504 N   0  0  0  0  0  0  0  0  0  0  0  0
  150.1543  140.2422  155.5540 S   0  0  0  0  0  0  0  0  0  0  0  0
  150.7463  141.6335  156.6021 C   0  0  0  0  0  0  0  0  0  0  0  0
  149.3965  139.3155  156.4088 O   0  0  0  0  0  0  0  0  0  0  0  0
  151.2933  139.7430  154.7684 O   0  0  0  0  0  0  0  0  0  0  0  0
  148.1532  140.1419  153.6165 C   0  0  0  0  0  0  0  0  0  0  0  0
  144.6321  135.8829  150.3593 C   0  0  0  0  0  0  0  0  0  0  0  0
  144.4514  134.6178  149.9256 N   0  0  0  0  0  0  0  0  0  0  0  0
  142.8493  132.5872  148.8251 H   0  0  0  0  0  0  0  0  0  0  0  0
  143.6872  131.0423  148.7188 H   0  0  0  0  0  0  0  0  0  0  0  0
  144.5150  132.5196  148.2288 H   0  0  0  0  0  0  0  0  0  0  0  0
  145.7518  131.1710  151.3659 H   0  0  0  0  0  0  0  0  0  0  0  0
  144.5142  130.1998  150.5745 H   0  0  0  0  0  0  0  0  0  0  0  0
  144.1123  131.0962  152.0358 H   0  0  0  0  0  0  0  0  0  0  0  0
  144.8142  133.0257  152.9063 H   0  0  0  0  0  0  0  0  0  0  0  0
  145.1475  135.3438  153.6809 H   0  0  0  0  0  0  0  0  0  0  0  0
  144.5364  138.2470  151.7488 H   0  0  0  0  0  0  0  0  0  0  0  0
  145.1759  139.7797  152.7854 H   0  0  0  0  0  0  0  0  0  0  0  0
  146.7714  139.5584  155.1601 H   0  0  0  0  0  0  0  0  0  0  0  0
  146.0274  141.9727  153.4381 H   0  0  0  0  0  0  0  0  0  0  0  0
  145.1541  141.4145  154.8496 H   0  0  0  0  0  0  0  0  0  0  0  0
  146.6922  143.3014  155.4094 H   0  0  0  0  0  0  0  0  0  0  0  0
  147.0908  141.8582  156.3003 H   0  0  0  0  0  0  0  0  0  0  0  0
  148.5065  142.9030  153.7951 H   0  0  0  0  0  0  0  0  0  0  0  0
  149.1698  142.8709  155.4089 H   0  0  0  0  0  0  0  0  0  0  0  0
  151.4797  141.2545  157.3133 H   0  0  0  0  0  0  0  0  0  0  0  0
  149.9129  142.0648  157.1538 H   0  0  0  0  0  0  0  0  0  0  0  0
  151.2172  142.3934  155.9810 H   0  0  0  0  0  0  0  0  0  0  0  0
  148.5787  139.1440  153.5119 H   0  0  0  0  0  0  0  0  0  0  0  0
  148.1227  140.5690  152.6131 H   0  0  0  0  0  0  0  0  0  0  0  0
  144.5972  136.6334  149.5854 H   0  0  0  0  0  0  0  0  0  0  0  0
  1  2  1  0  0  0  0
  1 24  1  0  0  0  0
  1 25  1  0  0  0  0
  1 26  1  0  0  0  0
  2  3  1  0  0  0  0
  2  4  1  0  0  0  0
  3 27  1  0  0  0  0
  3 28  1  0  0  0  0
  3 29  1  0  0  0  0
  4 23  1  0  0  0  0
  4  5  2  0  0  0  0
  5  6  1  0  0  0  0
  5 30  1  0  0  0  0
  6  7  2  0  0  0  0
  6 31  1  0  0  0  0
  7  8  1  0  0  0  0
  7 22  1  0  0  0  0
  8  9  1  0  0  0  0
  8 32  1  0  0  0  0
  9 10  2  0  0  0  0
  9 11  1  0  0  0  0
 11 12  1  0  0  0  0
 11 33  1  0  0  0  0
 12 21  1  0  0  0  0
 12 13  1  0  0  0  0
 12 34  1  0  0  0  0
 13 14  1  0  0  0  0
 13 35  1  0  0  0  0
 13 36  1  0  0  0  0
 14 15  1  0  0  0  0
 14 37  1  0  0  0  0
 14 38  1  0  0  0  0
 15 16  1  0  0  0  0
 15 39  1  0  0  0  0
 15 40  1  0  0  0  0
 16 17  1  0  0  0  0
 16 21  1  0  0  0  0
 17 18  1  0  0  0  0
 17 19  2  0  0  0  0
 17 20  2  0  0  0  0
 18 41  1  0  0  0  0
 18 42  1  0  0  0  0
 18 43  1  0  0  0  0
 21 44  1  0  0  0  0
 21 45  1  0  0  0  0
 22 23  2  0  0  0  0
 22 46  1  0  0  0  0
M  END
> <s_m_source_file>
AV-unprocessed.smi

> <i_m_source_file_index>
1166

> <i_lp_mmshare_version>
43012

> <i_f3d_flags>
0

> <s_epik_input>
W0NIM11OKFtDSDNdKWMxW2NIXVtjSF1jKFtjSF1uMSlbTkhdQyg9TylbTkhdW0NAQEhdMltDSDJdW0NIMl1bQ0gyXU4oW0NIMl0yKVMoPU8pKD1PKVtDSDNd

> <s_epik_cmdline>
J2VwaWtfcHl0aG9uJywgJy1waCcsICc3LjAnLCAnLXRuJywgJzgnLCAnLW1hJywgJzIwMCcsICctbWV0YWxfYmluZGluZycsICctaW1hZScsICc8aW5maWxlLm1hZT4nLCAnLW9tYWUnLCAnPG91dGZpbGUubWFlPic=

> <r_lp_tautomer_probability>
1

> <r_epik_Ionization_Penalty>
0.585334

> <r_epik_Ionization_Penalty_Charging>
0

> <r_epik_Ionization_Penalty_Neutral>
0.585334

> <r_epik_State_Penalty>
0.597345

> <r_epik_Charging_Adjusted_Penalty>
0.597345

> <i_epik_Tot_Q>
0

> <i_epik_Tot_abs_Q>
0

> <r_epik_Metal_State_Penalty>
0.29678

> <b_epik_Metal_Only>
0

> <s_lp_Force_Field>
OPLS_2005

> <r_lp_Energy>
0.833523

> <b_lp_Chiralities_Consistent>
1

> <s_lp_Variant>
AV-unprocessed.smi:1166-3

> <Gold.Version>
5.8.1

> <Gold.Id.Protein>
6NUR|6NUR_protein|mol2

> <Gold.PLP.Fitness>
41.1328

> <Gold.PLP.PLP>
-31.7941

> <Gold.PLP.part.hbond>
-3.2569

> <Gold.PLP.part.metal>
0.0000

> <Gold.PLP.part.buried>
7.1615

> <Gold.PLP.part.nonpolar>
-37.7731

> <Gold.PLP.part.repulsive>
3.2367

> <Gold.PLP.ligand.clash>
0.0000

> <Gold.PLP.ligand.torsion>
1.7289

> <Gold.PLP.Chemscore.Hbond>
2.6292

> <Gold.PLP.Chemscore.CHOScore>
0.9487

> <Gold.PLP.Chemscore.Metal>
0.0000

> <Gold.Chemscore.Hbonds>
donor molecule, donor type, donor heavy atom, donor atom, acceptor molecule, acceptor atom, score
      L1  H     8    32       P1 10171  0.63
      L1  H    11    33       P1 10175  1.00
      P1  H  7989  7998       L1    20  1.00
      L1  C    22    46       P1 10171  0.94

> <Gold.PLP.Chemscore.Internal.Correction>
2.0629

> <Gold.Rescore>
     Score         DG    S(hbond)    S(metal)    S(lipo)     H(rot)  DE(clash)    DE(int)     intcor
     12.98     -20.75       2.60        0.00      78.28       1.00       5.04       2.73       ----

> <Gold.Chemscore.Fitness>
12.9812

> <Gold.Chemscore.DG>
-20.7497

> <Gold.Chemscore.ZeroCoef>
-5.4800

> <Gold.Chemscore.Hbond>
2.5960

> <Gold.Chemscore.Metal>
0.0000

> <Gold.Chemscore.Lipo>
78.2829

> <Gold.Chemscore.Internal_Hbond>
0.0000

> <Gold.Chemscore.DEClash>
5.0412

> <Gold.Chemscore.DEInternal>
2.7273

> <Gold.Chemscore.Rot>
1.0000

> <Gold.Chemscore.Internal.Correction>
   9.000000E+99

> <Gold.Chemscore.Hbonds>
donor molecule, donor type, donor heavy atom, donor atom, acceptor molecule, acceptor atom, score
      L1  H     8    32       P1 10171  0.61
      L1  H    11    33       P1 10175  0.99
      P1  H  7989  7998       L1    20  0.70

> <Gold.Chemscore.Hbond.Weighted>
-8.6706

> <Gold.Chemscore.Metal.Weighted>
-0.0000

> <Gold.Chemscore.Lipo.Weighted>
-9.1591

> <Gold.Chemscore.Internal_Hbond.Weighted>
0.0000

> <Gold.Chemscore.DEClash.Weighted>
5.0412

> <Gold.Chemscore.DEInternal.Weighted>
2.7273

> <Gold.Chemscore.Rot.Weighted>
2.5600

> <Gold.Chemscore.Internal.Correction.Weighted>
   9.000000E+99

> <Gold.Protein.RotatedTorsions>
[ 6907 6896 6895 6894 ] final   39.25 input  -60.11 | X-H torsion
[ 7974 7965 7964 7962 ] final   76.65 input  175.53 | X-H torsion
[ 8008 7997 7996 7995 ] final   46.85 input   59.86 | X-H torsion
[ 10167 10162 10161 10158 ] final  -97.29 input  -65.29 | X-H torsion
[ 10718 10713 10712 10709 ] final  165.23 input   66.30 | X-H torsion
[ 10763 10752 10751 10750 ] final  155.64 input  -60.55 | X-H torsion
[ 11005 11000 10999 10996 ] final  138.50 input  -57.11 | X-H torsion

> <Gold.Protein.ActiveResidues>
 VAL166  LYS551  ARG553  GLY616  TRP617  ASP618  TYR619  PRO620  LYS621  CYS622 
 ASP623  PHE694  ASN695  SER759  ASP760  ASP761  ALA762  ILE779  LEU786  VAL792 
 PHE793  MET794  SER795  GLU796  ALA797  LYS798  CYS799  TRP800  GLU811  SER814 

> <Gold.Protein.RotatedAtoms>
  152.1670  134.8865  160.0537 H   0  0  0  0  0  0  0  0  0  0  0  0  # atno 6907 bound_to 6896
  151.9839  133.3762  159.4126 H   0  0  0  0  0  0  0  0  0  0  0  0  # atno 6908 bound_to 6896
  150.6896  134.3932  159.5129 H   0  0  0  0  0  0  0  0  0  0  0  0  # atno 6909 bound_to 6896
  145.7001  139.2580  143.1710 H   0  0  0  0  0  0  0  0  0  0  0  0  # atno 7974 bound_to 7965
  155.3592  140.3418  155.4240 H   0  0  0  0  0  0  0  0  0  0  0  0  # atno 8008 bound_to 7997
  156.1722  140.1636  156.8461 H   0  0  0  0  0  0  0  0  0  0  0  0  # atno 8009 bound_to 7997
  154.5245  140.0759  156.8216 H   0  0  0  0  0  0  0  0  0  0  0  0  # atno 8010 bound_to 7997
  140.2849  143.3258  152.0404 H   0  0  0  0  0  0  0  0  0  0  0  0  # atno 10167 bound_to 10162
  157.0830  131.0397  151.2567 H   0  0  0  0  0  0  0  0  0  0  0  0  # atno 10718 bound_to 10713
  154.1716  135.2804  155.3079 H   0  0  0  0  0  0  0  0  0  0  0  0  # atno 10763 bound_to 10752
  154.6071  135.5511  153.7437 H   0  0  0  0  0  0  0  0  0  0  0  0  # atno 10764 bound_to 10752
  153.0163  135.6406  154.1856 H   0  0  0  0  0  0  0  0  0  0  0  0  # atno 10765 bound_to 10752
  140.0188  134.9406  157.0432 H   0  0  0  0  0  0  0  0  0  0  0  0  # atno 11005 bound_to 11000
  146.0805  140.7769  142.9644 LP  0  0  0  0  0  0  0  0  0  0  0  0  # atno 17320 bound_to 7965
  144.6971  140.3482  143.7186 LP  0  0  0  0  0  0  0  0  0  0  0  0  # atno 17321 bound_to 7965
  139.4953  144.6566  151.6559 LP  0  0  0  0  0  0  0  0  0  0  0  0  # atno 17342 bound_to 10162
  140.5781  143.9994  150.6252 LP  0  0  0  0  0  0  0  0  0  0  0  0  # atno 17343 bound_to 10162
  157.4784  130.7750  149.7390 LP  0  0  0  0  0  0  0  0  0  0  0  0  # atno 17370 bound_to 10713
  155.9918  130.3935  150.2968 LP  0  0  0  0  0  0  0  0  0  0  0  0  # atno 17371 bound_to 10713
  140.4423  134.1668  155.7175 LP  0  0  0  0  0  0  0  0  0  0  0  0  # atno 17394 bound_to 11000
  141.1760  133.8512  157.1418 LP  0  0  0  0  0  0  0  0  0  0  0  0  # atno 17395 bound_to 11000

$$$$
