AV-unprocessed.smi:1677|AV-procd|sdf|6726|dock10
  -GOLD-   22720 7473D 1   1.00000     0.00000
 Structure written by MMmdl.
 36 37  0  0  0  0  0  0  0  0  1 V2000
  148.2323  142.0151  154.3969 C   0  0  0  0  0  0  0  0  0  0  0  0
  149.3804  141.2999  155.1213 C   0  0  2  0  0  0  0  0  0  0  0  0
  148.9424  139.9129  155.6374 C   0  0  0  0  0  0  0  0  0  0  0  0
  149.9288  138.8808  155.3746 N   0  0  0  0  0  0  0  0  0  0  0  0
  150.3725  138.4423  154.1342 C   0  0  0  0  0  0  0  0  0  0  0  0
  151.3129  137.4666  154.3760 C   0  0  0  0  0  0  0  0  0  0  0  0
  151.4587  137.2851  155.7492 N   0  0  0  0  0  0  0  0  0  0  0  0
  150.6055  138.1542  156.2749 C   0  0  0  0  0  0  0  0  0  0  0  0
  149.8430  142.1409  156.2245 N   0  0  0  0  0  0  0  0  0  0  0  0
  150.7875  141.8104  157.1201 C   0  0  0  0  0  0  0  0  0  0  0  0
  151.4100  140.7486  157.0878 O   0  0  0  0  0  0  0  0  0  0  0  0
  151.0570  142.8291  158.2343 C   0  0  1  0  0  0  0  0  0  0  0  0
  152.0202  142.2449  159.2930 C   0  0  0  0  0  0  0  0  0  0  0  0
  152.5083  143.3019  160.2679 C   0  0  0  0  0  0  0  0  0  0  0  0
  152.4003  144.6223  160.0416 C   0  0  0  0  0  0  0  0  0  0  0  0
  151.7822  145.2074  158.7840 C   0  0  0  0  0  0  0  0  0  0  0  0
  151.6112  144.1540  157.6730 C   0  0  0  0  0  0  0  0  0  0  0  0
  147.8820  141.4306  153.5457 H   0  0  0  0  0  0  0  0  0  0  0  0
  148.5511  142.9869  154.0184 H   0  0  0  0  0  0  0  0  0  0  0  0
  147.3826  142.1775  155.0610 H   0  0  0  0  0  0  0  0  0  0  0  0
  150.1833  141.1645  154.3943 H   0  0  0  0  0  0  0  0  0  0  0  0
  148.7437  139.9463  156.7097 H   0  0  0  0  0  0  0  0  0  0  0  0
  148.0106  139.6117  155.1572 H   0  0  0  0  0  0  0  0  0  0  0  0
  149.9979  138.8545  153.2089 H   0  0  0  0  0  0  0  0  0  0  0  0
  151.8912  136.8855  153.6728 H   0  0  0  0  0  0  0  0  0  0  0  0
  150.4771  138.2721  157.3409 H   0  0  0  0  0  0  0  0  0  0  0  0
  149.3883  143.0361  156.3323 H   0  0  0  0  0  0  0  0  0  0  0  0
  150.1088  143.0534  158.7269 H   0  0  0  0  0  0  0  0  0  0  0  0
  151.5160  141.4583  159.8557 H   0  0  0  0  0  0  0  0  0  0  0  0
  152.8945  141.7885  158.8264 H   0  0  0  0  0  0  0  0  0  0  0  0
  152.9733  142.9489  161.1766 H   0  0  0  0  0  0  0  0  0  0  0  0
  152.7553  145.3247  160.7816 H   0  0  0  0  0  0  0  0  0  0  0  0
  150.8150  145.6341  159.0507 H   0  0  0  0  0  0  0  0  0  0  0  0
  152.4037  146.0279  158.4249 H   0  0  0  0  0  0  0  0  0  0  0  0
  152.5793  143.9738  157.2024 H   0  0  0  0  0  0  0  0  0  0  0  0
  150.9588  144.5474  156.8922 H   0  0  0  0  0  0  0  0  0  0  0  0
  1  2  1  0  0  0  0
  1 18  1  0  0  0  0
  1 19  1  0  0  0  0
  1 20  1  0  0  0  0
  2  3  1  0  0  0  0
  2  9  1  0  0  0  0
  2 21  1  0  0  0  0
  3  4  1  0  0  0  0
  3 22  1  0  0  0  0
  3 23  1  0  0  0  0
  4  8  1  0  0  0  0
  4  5  1  0  0  0  0
  5  6  2  0  0  0  0
  5 24  1  0  0  0  0
  6  7  1  0  0  0  0
  6 25  1  0  0  0  0
  7  8  2  0  0  0  0
  8 26  1  0  0  0  0
  9 10  1  0  0  0  0
  9 27  1  0  0  0  0
 10 11  2  0  0  0  0
 10 12  1  0  0  0  0
 12 17  1  0  0  0  0
 12 13  1  0  0  0  0
 12 28  1  0  0  0  0
 13 14  1  0  0  0  0
 13 29  1  0  0  0  0
 13 30  1  0  0  0  0
 14 15  2  0  0  0  0
 14 31  1  0  0  0  0
 15 16  1  0  0  0  0
 15 32  1  0  0  0  0
 16 17  1  0  0  0  0
 16 33  1  0  0  0  0
 16 34  1  0  0  0  0
 17 35  1  0  0  0  0
 17 36  1  0  0  0  0
M  END
> <s_m_source_file>
AV-unprocessed.smi

> <i_m_source_file_index>
1677

> <i_lp_mmshare_version>
43012

> <i_f3d_flags>
0

> <s_epik_input>
W2NIXTFuW2NIXVtjSF1uMVtDSDJdW0NAQEhdKFtDSDNdKVtOSF1DKD1PKVtDQEBIXTJbQ0gyXVtDSF09W0NIXVtDSDJdW0NIMl0y

> <s_epik_cmdline>
J2VwaWtfcHl0aG9uJywgJy1waCcsICc3LjAnLCAnLXRuJywgJzgnLCAnLW1hJywgJzIwMCcsICctbWV0YWxfYmluZGluZycsICctaW1hZScsICc8aW5maWxlLm1hZT4nLCAnLW9tYWUnLCAnPG91dGZpbGUubWFlPic=

> <r_lp_tautomer_probability>
1

> <r_epik_Ionization_Penalty>
0.640435

> <r_epik_Ionization_Penalty_Charging>
0.640435

> <r_epik_Ionization_Penalty_Neutral>
2.11108e-08

> <r_epik_State_Penalty>
0.658069

> <r_epik_Charging_Adjusted_Penalty>
1.2985

> <i_epik_Tot_Q>
0

> <i_epik_Tot_abs_Q>
0

> <r_epik_Metal_State_Penalty>
0.311689

> <b_epik_Metal_Only>
0

> <s_lp_Force_Field>
OPLS_2005

> <r_lp_Energy>
9.94345

> <b_lp_Chiralities_Consistent>
1

> <s_lp_Variant>
AV-unprocessed.smi:1677-7

> <Gold.Version>
5.8.1

> <Gold.Id.Protein>
6NUR|6NUR_protein|mol2

> <Gold.PLP.Fitness>
44.1445

> <Gold.PLP.PLP>
-36.7784

> <Gold.PLP.part.hbond>
-1.0000

> <Gold.PLP.part.metal>
0.0000

> <Gold.PLP.part.buried>
-3.2485

> <Gold.PLP.part.nonpolar>
-33.4611

> <Gold.PLP.part.repulsive>
0.1265

> <Gold.PLP.ligand.clash>
0.0000

> <Gold.PLP.ligand.torsion>
0.7221

> <Gold.PLP.Chemscore.Hbond>
1.0000

> <Gold.PLP.Chemscore.CHOScore>
1.9280

> <Gold.PLP.Chemscore.Metal>
0.0000

> <Gold.Chemscore.Hbonds>
donor molecule, donor type, donor heavy atom, donor atom, acceptor molecule, acceptor atom, score
      L1  H     9    27       P1  8028  1.00
      L1  C     5    24       P1  7957  1.00
      L1  C     6    25       P1  7949  0.97

> <Gold.PLP.Chemscore.Internal.Correction>
0.0263

> <Gold.Rescore>
     Score         DG    S(hbond)    S(metal)    S(lipo)     H(rot)  DE(clash)    DE(int)     intcor
     15.31     -16.30       0.96        0.00     103.21       1.75       0.26       0.73       ----

> <Gold.Chemscore.Fitness>
15.3117

> <Gold.Chemscore.DG>
-16.2961

> <Gold.Chemscore.ZeroCoef>
-5.4800

> <Gold.Chemscore.Hbond>
0.9621

> <Gold.Chemscore.Metal>
0.0000

> <Gold.Chemscore.Lipo>
103.2146

> <Gold.Chemscore.Internal_Hbond>
0.0000

> <Gold.Chemscore.DEClash>
0.2581

> <Gold.Chemscore.DEInternal>
0.7264

> <Gold.Chemscore.Rot>
1.7475

> <Gold.Chemscore.Internal.Correction>
   9.000000E+99

> <Gold.Chemscore.Hbonds>
donor molecule, donor type, donor heavy atom, donor atom, acceptor molecule, acceptor atom, score
      L1  H     9    27       P1  8028  0.95

> <Gold.Chemscore.Hbond.Weighted>
-3.2136

> <Gold.Chemscore.Metal.Weighted>
-0.0000

> <Gold.Chemscore.Lipo.Weighted>
-12.0761

> <Gold.Chemscore.Internal_Hbond.Weighted>
0.0000

> <Gold.Chemscore.DEClash.Weighted>
0.2581

> <Gold.Chemscore.DEInternal.Weighted>
0.7264

> <Gold.Chemscore.Rot.Weighted>
4.4735

> <Gold.Chemscore.Internal.Correction.Weighted>
   9.000000E+99

> <Gold.Protein.RotatedTorsions>
[ 6907 6896 6895 6894 ] final -145.99 input  -60.11 | X-H torsion
[ 7974 7965 7964 7962 ] final  152.86 input  175.53 | X-H torsion
[ 8008 7997 7996 7995 ] final  -96.71 input   59.86 | X-H torsion
[ 10167 10162 10161 10158 ] final  -40.32 input  -65.29 | X-H torsion
[ 10718 10713 10712 10709 ] final   68.99 input   66.30 | X-H torsion
[ 10763 10752 10751 10750 ] final  164.70 input  -60.55 | X-H torsion
[ 11005 11000 10999 10996 ] final  160.11 input  -57.11 | X-H torsion

> <Gold.Protein.ActiveResidues>
 VAL166  LYS551  ARG553  GLY616  TRP617  ASP618  TYR619  PRO620  LYS621  CYS622 
 ASP623  PHE694  ASN695  SER759  ASP760  ASP761  ALA762  ILE779  LEU786  VAL792 
 PHE793  MET794  SER795  GLU796  ALA797  LYS798  CYS799  TRP800  GLU811  SER814 

> <Gold.Protein.RotatedAtoms>
  151.1355  133.5007  159.2597 H   0  0  0  0  0  0  0  0  0  0  0  0  # atno 6907 bound_to 6896
  151.1711  135.0318  159.8762 H   0  0  0  0  0  0  0  0  0  0  0  0  # atno 6908 bound_to 6896
  152.5461  134.1218  159.8455 H   0  0  0  0  0  0  0  0  0  0  0  0  # atno 6909 bound_to 6896
  144.8194  139.6724  143.6107 H   0  0  0  0  0  0  0  0  0  0  0  0  # atno 7974 bound_to 7965
  154.7780  140.0469  157.1105 H   0  0  0  0  0  0  0  0  0  0  0  0  # atno 8008 bound_to 7997
  154.9739  140.3093  155.4956 H   0  0  0  0  0  0  0  0  0  0  0  0  # atno 8009 bound_to 7997
  156.2932  140.2248  156.4833 H   0  0  0  0  0  0  0  0  0  0  0  0  # atno 8010 bound_to 7997
  140.7038  143.3161  151.2907 H   0  0  0  0  0  0  0  0  0  0  0  0  # atno 10167 bound_to 10162
  157.6321  130.9402  150.0452 H   0  0  0  0  0  0  0  0  0  0  0  0  # atno 10718 bound_to 10713
  154.3129  135.2757  155.2557 H   0  0  0  0  0  0  0  0  0  0  0  0  # atno 10763 bound_to 10752
  154.4944  135.5825  153.6487 H   0  0  0  0  0  0  0  0  0  0  0  0  # atno 10764 bound_to 10752
  152.9886  135.6142  154.3307 H   0  0  0  0  0  0  0  0  0  0  0  0  # atno 10765 bound_to 10752
  140.2027  134.8326  157.3036 H   0  0  0  0  0  0  0  0  0  0  0  0  # atno 11005 bound_to 11000
  146.2498  139.6176  142.9434 LP  0  0  0  0  0  0  0  0  0  0  0  0  # atno 17320 bound_to 7965
  145.5140  141.0434  143.2472 LP  0  0  0  0  0  0  0  0  0  0  0  0  # atno 17321 bound_to 7965
  139.6599  144.0207  152.2685 LP  0  0  0  0  0  0  0  0  0  0  0  0  # atno 17342 bound_to 10162
  139.9771  144.6454  150.7935 LP  0  0  0  0  0  0  0  0  0  0  0  0  # atno 17343 bound_to 10162
  156.1531  130.3642  149.9408 LP  0  0  0  0  0  0  0  0  0  0  0  0  # atno 17370 bound_to 10713
  156.7423  130.9084  151.3633 LP  0  0  0  0  0  0  0  0  0  0  0  0  # atno 17371 bound_to 10713
  140.2036  134.4224  155.7649 LP  0  0  0  0  0  0  0  0  0  0  0  0  # atno 17394 bound_to 11000
  141.2227  133.7084  156.8224 LP  0  0  0  0  0  0  0  0  0  0  0  0  # atno 17395 bound_to 11000

$$$$
