AV-unprocessed.smi:1862|AV-procd|sdf|7549|dock1
  -GOLD-   22720 9263D 1   1.00000     0.00000
 Structure written by MMmdl.
 40 41  0  0  0  0  0  0  0  0  1 V2000
  148.9565  132.0330  154.2646 C   0  0  0  0  0  0  0  0  0  0  0  0
  149.3170  133.4482  153.7794 C   0  0  0  0  0  0  0  0  0  0  0  0
  149.6165  134.4894  154.8935 C   0  0  0  0  0  0  0  0  0  0  0  0
  148.3266  134.7895  155.6880 C   0  0  0  0  0  0  0  0  0  0  0  0
  150.6620  133.9278  155.8771 C   0  0  0  0  0  0  0  0  0  0  0  0
  150.1705  135.7343  154.3439 N   0  0  0  0  0  0  0  0  0  0  0  0
  150.9027  136.6727  154.9715 C   0  0  0  0  0  0  0  0  0  0  0  0
  151.2175  136.6133  156.1604 O   0  0  0  0  0  0  0  0  0  0  0  0
  151.3333  137.8702  154.1180 C   0  0  0  0  0  0  0  0  0  0  0  0
  150.9342  139.1653  154.7658 C   0  0  0  0  0  0  0  0  0  0  0  0
  150.0623  140.1026  154.2672 C   0  0  0  0  0  0  0  0  0  0  0  0
  149.8855  141.4656  155.3381 S   0  0  0  0  0  0  0  0  0  0  0  0
  151.0195  140.6951  156.4514 C   0  0  0  0  0  0  0  0  0  0  0  0
  151.4637  141.2154  157.7032 N   0  0  0  0  0  0  0  0  0  0  0  0
  150.9870  142.4973  158.2132 C   0  0  0  0  0  0  0  0  0  0  0  0
  151.7034  142.6484  159.5514 C   0  0  0  0  0  0  0  0  0  0  0  0
  152.4835  141.4350  159.6167 N   0  0  0  0  0  0  0  0  0  0  0  0
  152.3311  140.6367  158.5575 C   0  0  0  0  0  0  0  0  0  0  0  0
  152.9060  139.5584  158.4215 O   0  0  0  0  0  0  0  0  0  0  0  0
  151.4637  139.5124  156.0133 N   0  0  0  0  0  0  0  0  0  0  0  0
  148.7738  131.3750  153.4150 H   0  0  0  0  0  0  0  0  0  0  0  0
  148.0535  132.0315  154.8743 H   0  0  0  0  0  0  0  0  0  0  0  0
  149.7608  131.5884  154.8506 H   0  0  0  0  0  0  0  0  0  0  0  0
  150.1735  133.3686  153.1096 H   0  0  0  0  0  0  0  0  0  0  0  0
  148.5030  133.8183  153.1550 H   0  0  0  0  0  0  0  0  0  0  0  0
  147.9541  133.8926  156.1842 H   0  0  0  0  0  0  0  0  0  0  0  0
  147.5238  135.1549  155.0475 H   0  0  0  0  0  0  0  0  0  0  0  0
  148.4993  135.5413  156.4591 H   0  0  0  0  0  0  0  0  0  0  0  0
  150.3340  132.9810  156.3074 H   0  0  0  0  0  0  0  0  0  0  0  0
  150.8383  134.6171  156.7040 H   0  0  0  0  0  0  0  0  0  0  0  0
  151.6243  133.7542  155.3953 H   0  0  0  0  0  0  0  0  0  0  0  0
  149.9717  135.9002  153.3680 H   0  0  0  0  0  0  0  0  0  0  0  0
  152.4125  137.8469  153.9602 H   0  0  0  0  0  0  0  0  0  0  0  0
  150.8767  137.7722  153.1325 H   0  0  0  0  0  0  0  0  0  0  0  0
  149.5193  140.0761  153.3342 H   0  0  0  0  0  0  0  0  0  0  0  0
  151.2469  143.3057  157.5281 H   0  0  0  0  0  0  0  0  0  0  0  0
  149.9035  142.4826  158.3411 H   0  0  0  0  0  0  0  0  0  0  0  0
  152.3524  143.5244  159.5728 H   0  0  0  0  0  0  0  0  0  0  0  0
  151.0048  142.7019  160.3871 H   0  0  0  0  0  0  0  0  0  0  0  0
  153.0844  141.2201  160.3993 H   0  0  0  0  0  0  0  0  0  0  0  0
  1  2  1  0  0  0  0
  1 21  1  0  0  0  0
  1 22  1  0  0  0  0
  1 23  1  0  0  0  0
  2  3  1  0  0  0  0
  2 24  1  0  0  0  0
  2 25  1  0  0  0  0
  3  4  1  0  0  0  0
  3  5  1  0  0  0  0
  3  6  1  0  0  0  0
  4 26  1  0  0  0  0
  4 27  1  0  0  0  0
  4 28  1  0  0  0  0
  5 29  1  0  0  0  0
  5 30  1  0  0  0  0
  5 31  1  0  0  0  0
  6  7  1  0  0  0  0
  6 32  1  0  0  0  0
  7  8  2  0  0  0  0
  7  9  1  0  0  0  0
  9 10  1  0  0  0  0
  9 33  1  0  0  0  0
  9 34  1  0  0  0  0
 10 20  1  0  0  0  0
 10 11  2  0  0  0  0
 11 12  1  0  0  0  0
 11 35  1  0  0  0  0
 12 13  1  0  0  0  0
 13 14  1  0  0  0  0
 13 20  2  0  0  0  0
 14 18  1  0  0  0  0
 14 15  1  0  0  0  0
 15 16  1  0  0  0  0
 15 36  1  0  0  0  0
 15 37  1  0  0  0  0
 16 17  1  0  0  0  0
 16 38  1  0  0  0  0
 16 39  1  0  0  0  0
 17 18  1  0  0  0  0
 17 40  1  0  0  0  0
 18 19  2  0  0  0  0
M  END
> <s_m_source_file>
AV-unprocessed.smi

> <i_m_source_file_index>
1862

> <i_lp_mmshare_version>
43012

> <i_f3d_flags>
0

> <s_epik_input>
W0NIM11bQ0gyXUMoW0NIM10pKFtDSDNdKVtOSF1DKD1PKVtDSDJdYzFbY0hdc2MobjEpTjJbQ0gyXVtDSDJdW05IXUMyPU8=

> <s_epik_cmdline>
J2VwaWtfcHl0aG9uJywgJy1waCcsICc3LjAnLCAnLXRuJywgJzgnLCAnLW1hJywgJzIwMCcsICctbWV0YWxfYmluZGluZycsICctaW1hZScsICc8aW5maWxlLm1hZT4nLCAnLW9tYWUnLCAnPG91dGZpbGUubWFlPic=

> <r_lp_tautomer_probability>
1

> <r_epik_Ionization_Penalty>
0.000124031

> <r_epik_Ionization_Penalty_Charging>
0

> <r_epik_Ionization_Penalty_Neutral>
0.000124031

> <r_epik_State_Penalty>
-0

> <r_epik_Charging_Adjusted_Penalty>
0

> <i_epik_Tot_Q>
0

> <i_epik_Tot_abs_Q>
0

> <r_epik_Metal_State_Penalty>
-0

> <b_epik_Metal_Only>
0

> <s_lp_Force_Field>
OPLS_2005

> <r_lp_Energy>
34.1106

> <b_lp_Chiralities_Consistent>
1

> <s_lp_Variant>
AV-unprocessed.smi:1862-1

> <Gold.Version>
5.8.1

> <Gold.Id.Protein>
6NUR|6NUR_protein|mol2

> <Gold.PLP.Fitness>
43.6642

> <Gold.PLP.PLP>
-35.7147

> <Gold.PLP.part.hbond>
-2.6156

> <Gold.PLP.part.metal>
0.0000

> <Gold.PLP.part.buried>
-2.6614

> <Gold.PLP.part.nonpolar>
-30.7032

> <Gold.PLP.part.repulsive>
0.1714

> <Gold.PLP.ligand.clash>
0.0000

> <Gold.PLP.ligand.torsion>
0.5619

> <Gold.PLP.Chemscore.Hbond>
2.0000

> <Gold.PLP.Chemscore.CHOScore>
1.0000

> <Gold.PLP.Chemscore.Metal>
0.0000

> <Gold.Chemscore.Hbonds>
donor molecule, donor type, donor heavy atom, donor atom, acceptor molecule, acceptor atom, score
      L1  H     6    32       P1  7948  0.40
      P1  H  7997  8008       L1    19  0.39
      L1  C    11    35       P1  7957  1.00

> <Gold.PLP.Chemscore.Internal.Correction>
0.0733

> <Gold.Rescore>
     Score         DG    S(hbond)    S(metal)    S(lipo)     H(rot)  DE(clash)    DE(int)     intcor
     11.58     -15.25       1.80        0.00      69.73       1.72       0.25       3.42       ----

> <Gold.Chemscore.Fitness>
11.5769

> <Gold.Chemscore.DG>
-15.2493

> <Gold.Chemscore.ZeroCoef>
-5.4800

> <Gold.Chemscore.Hbond>
1.8028

> <Gold.Chemscore.Metal>
0.0000

> <Gold.Chemscore.Lipo>
69.7278

> <Gold.Chemscore.Internal_Hbond>
0.0000

> <Gold.Chemscore.DEClash>
0.2496

> <Gold.Chemscore.DEInternal>
3.4227

> <Gold.Chemscore.Rot>
1.7228

> <Gold.Chemscore.Internal.Correction>
   9.000000E+99

> <Gold.Chemscore.Hbonds>
donor molecule, donor type, donor heavy atom, donor atom, acceptor molecule, acceptor atom, score
      L1  H     6    32       P1  7948  0.01
      P1  H  7997  8008       L1    19  0.19

> <Gold.Chemscore.Hbond.Weighted>
-6.0214

> <Gold.Chemscore.Metal.Weighted>
-0.0000

> <Gold.Chemscore.Lipo.Weighted>
-8.1581

> <Gold.Chemscore.Internal_Hbond.Weighted>
0.0000

> <Gold.Chemscore.DEClash.Weighted>
0.2496

> <Gold.Chemscore.DEInternal.Weighted>
3.4227

> <Gold.Chemscore.Rot.Weighted>
4.4103

> <Gold.Chemscore.Internal.Correction.Weighted>
   9.000000E+99

> <Gold.Protein.RotatedTorsions>
[ 6907 6896 6895 6894 ] final  102.96 input  -60.11 | X-H torsion
[ 7974 7965 7964 7962 ] final -130.50 input  175.53 | X-H torsion
[ 8008 7997 7996 7995 ] final  -98.37 input   59.86 | X-H torsion
[ 10167 10162 10161 10158 ] final -109.12 input  -65.29 | X-H torsion
[ 10718 10713 10712 10709 ] final -154.83 input   66.30 | X-H torsion
[ 10763 10752 10751 10750 ] final   76.17 input  -60.55 | X-H torsion
[ 11005 11000 10999 10996 ] final  -72.18 input  -57.11 | X-H torsion

> <Gold.Protein.ActiveResidues>
 VAL166  LYS551  ARG553  GLY616  TRP617  ASP618  TYR619  PRO620  LYS621  CYS622 
 ASP623  PHE694  ASN695  SER759  ASP760  ASP761  ALA762  ILE779  LEU786  VAL792 
 PHE793  MET794  SER795  GLU796  ALA797  LYS798  CYS799  TRP800  GLU811  SER814 

> <Gold.Protein.RotatedAtoms>
  152.5309  133.9896  159.7844 H   0  0  0  0  0  0  0  0  0  0  0  0  # atno 6907 bound_to 6896
  151.0135  133.5935  159.2687 H   0  0  0  0  0  0  0  0  0  0  0  0  # atno 6908 bound_to 6896
  151.3001  135.0773  159.9289 H   0  0  0  0  0  0  0  0  0  0  0  0  # atno 6909 bound_to 6896
  144.9469  140.7301  143.4812 H   0  0  0  0  0  0  0  0  0  0  0  0  # atno 7974 bound_to 7965
  154.8002  140.0456  157.1267 H   0  0  0  0  0  0  0  0  0  0  0  0  # atno 8008 bound_to 7997
  154.9487  140.3062  155.5065 H   0  0  0  0  0  0  0  0  0  0  0  0  # atno 8009 bound_to 7997
  156.2961  140.2292  156.4563 H   0  0  0  0  0  0  0  0  0  0  0  0  # atno 8010 bound_to 7997
  140.1588  143.4137  152.1441 H   0  0  0  0  0  0  0  0  0  0  0  0  # atno 10167 bound_to 10162
  156.5046  130.8407  151.2622 H   0  0  0  0  0  0  0  0  0  0  0  0  # atno 10718 bound_to 10713
  153.0706  135.4961  154.8297 H   0  0  0  0  0  0  0  0  0  0  0  0  # atno 10763 bound_to 10752
  154.7017  135.3003  154.9333 H   0  0  0  0  0  0  0  0  0  0  0  0  # atno 10764 bound_to 10752
  154.0054  135.6761  153.4814 H   0  0  0  0  0  0  0  0  0  0  0  0  # atno 10765 bound_to 10752
  141.1604  133.6839  156.7020 H   0  0  0  0  0  0  0  0  0  0  0  0  # atno 11005 bound_to 11000
  145.2904  139.1885  143.4743 LP  0  0  0  0  0  0  0  0  0  0  0  0  # atno 17320 bound_to 7965
  146.3307  140.2880  142.8614 LP  0  0  0  0  0  0  0  0  0  0  0  0  # atno 17321 bound_to 7965
  139.5391  144.7239  151.4794 LP  0  0  0  0  0  0  0  0  0  0  0  0  # atno 17342 bound_to 10162
  140.6656  143.8405  150.6938 LP  0  0  0  0  0  0  0  0  0  0  0  0  # atno 17343 bound_to 10162
  157.7458  130.9970  150.2801 LP  0  0  0  0  0  0  0  0  0  0  0  0  # atno 17370 bound_to 10713
  156.3299  130.3799  149.7500 LP  0  0  0  0  0  0  0  0  0  0  0  0  # atno 17371 bound_to 10713
  140.2952  134.8209  157.4050 LP  0  0  0  0  0  0  0  0  0  0  0  0  # atno 17394 bound_to 11000
  140.1311  134.5094  155.8105 LP  0  0  0  0  0  0  0  0  0  0  0  0  # atno 17395 bound_to 11000

$$$$
