AV-unprocessed.smi:3303|AV-procd|sdf|12660|dock5
  -GOLD-   2272018593D 1   1.00000     0.00000
 Structure written by MMmdl.
 45 46  0  0  0  0  0  0  0  0  3 V2000
  151.1457  138.4293  155.3574 C   0  0  0  0  0  0  0  0  0  0  0  0
  150.2461  139.4176  154.5961 C   0  0  1  0  0  0  0  0  0  0  0  0
  148.9206  138.7711  154.1455 C   0  0  0  0  0  0  0  0  0  0  0  0
  148.1197  139.7118  153.3214 N   0  3  1  0  0  0  0  0  0  0  0  0
  146.9528  139.0646  152.6794 C   0  0  0  0  0  0  0  0  0  0  0  0
  147.8040  140.9925  154.0174 C   0  0  1  0  0  0  0  0  0  0  0  0
  146.7185  140.8541  155.1075 C   0  0  0  0  0  0  0  0  0  0  0  0
  149.1003  141.6645  154.5276 C   0  0  0  0  0  0  0  0  0  0  0  0
  150.0048  140.7339  155.3696 C   0  0  1  0  0  0  0  0  0  0  0  0
  149.4636  140.4804  156.7276 N   0  3  0  0  0  0  0  0  0  0  0  0
  150.4620  140.1134  157.7532 C   0  0  0  0  0  0  0  0  0  0  0  0
  151.7292  140.9669  157.6128 C   0  0  0  0  0  0  0  0  0  0  0  0
  151.6514  142.2413  158.4312 C   0  0  0  0  0  0  0  0  0  0  0  0
  152.5992  142.5107  159.4413 C   0  0  0  0  0  0  0  0  0  0  0  0
  152.4829  143.7132  160.1655 C   0  0  0  0  0  0  0  0  0  0  0  0
  151.4303  144.5947  159.8520 C   0  0  0  0  0  0  0  0  0  0  0  0
  150.5365  144.2336  158.8242 C   0  0  0  0  0  0  0  0  0  0  0  0
  150.6395  143.0834  158.1230 N   0  0  0  0  0  0  0  0  0  0  0  0
  150.6636  138.0534  156.2602 H   0  0  0  0  0  0  0  0  0  0  0  0
  152.0856  138.8984  155.6503 H   0  0  0  0  0  0  0  0  0  0  0  0
  151.3910  137.5677  154.7357 H   0  0  0  0  0  0  0  0  0  0  0  0
  150.7900  139.6830  153.6877 H   0  0  0  0  0  0  0  0  0  0  0  0
  149.1399  137.8832  153.5506 H   0  0  0  0  0  0  0  0  0  0  0  0
  148.3405  138.4311  155.0040 H   0  0  0  0  0  0  0  0  0  0  0  0
  146.2665  138.6505  153.4187 H   0  0  0  0  0  0  0  0  0  0  0  0
  147.2801  138.2491  152.0339 H   0  0  0  0  0  0  0  0  0  0  0  0
  146.4064  139.7767  152.0600 H   0  0  0  0  0  0  0  0  0  0  0  0
  147.3911  141.6613  153.2606 H   0  0  0  0  0  0  0  0  0  0  0  0
  146.5745  141.7993  155.6318 H   0  0  0  0  0  0  0  0  0  0  0  0
  146.9631  140.1000  155.8539 H   0  0  0  0  0  0  0  0  0  0  0  0
  145.7537  140.5847  154.6777 H   0  0  0  0  0  0  0  0  0  0  0  0
  149.6744  141.9825  153.6562 H   0  0  0  0  0  0  0  0  0  0  0  0
  148.8676  142.5866  155.0594 H   0  0  0  0  0  0  0  0  0  0  0  0
  150.9719  141.2221  155.5004 H   0  0  0  0  0  0  0  0  0  0  0  0
  148.9577  141.2969  157.0394 H   0  0  0  0  0  0  0  0  0  0  0  0
  150.0302  140.2522  158.7452 H   0  0  0  0  0  0  0  0  0  0  0  0
  150.7213  139.0593  157.6574 H   0  0  0  0  0  0  0  0  0  0  0  0
  152.6027  140.3965  157.9331 H   0  0  0  0  0  0  0  0  0  0  0  0
  151.8958  141.2216  156.5652 H   0  0  0  0  0  0  0  0  0  0  0  0
  153.3971  141.8156  159.6593 H   0  0  0  0  0  0  0  0  0  0  0  0
  153.1888  143.9550  160.9466 H   0  0  0  0  0  0  0  0  0  0  0  0
  151.3102  145.5255  160.3868 H   0  0  0  0  0  0  0  0  0  0  0  0
  149.7179  144.8853  158.5572 H   0  0  0  0  0  0  0  0  0  0  0  0
  148.8140  139.7096  156.6583 H   0  0  0  0  0  0  0  0  0  0  0  0
  148.7251  139.9731  152.5557 H   0  0  0  0  0  0  0  0  0  0  0  0
  1  2  1  0  0  0  0
  1 19  1  0  0  0  0
  1 20  1  0  0  0  0
  1 21  1  0  0  0  0
  2  9  1  0  0  0  0
  2  3  1  0  0  0  0
  2 22  1  0  0  0  0
  3  4  1  0  0  0  0
  3 23  1  0  0  0  0
  3 24  1  0  0  0  0
  4  5  1  0  0  0  0
  4  6  1  0  0  0  0
  4 45  1  0  0  0  0
  5 25  1  0  0  0  0
  5 26  1  0  0  0  0
  5 27  1  0  0  0  0
  6  7  1  0  0  0  0
  6  8  1  0  0  0  0
  6 28  1  0  0  0  0
  7 29  1  0  0  0  0
  7 30  1  0  0  0  0
  7 31  1  0  0  0  0
  8  9  1  0  0  0  0
  8 32  1  0  0  0  0
  8 33  1  0  0  0  0
  9 10  1  0  0  0  0
  9 34  1  0  0  0  0
 10 11  1  0  0  0  0
 10 35  1  0  0  0  0
 10 44  1  0  0  0  0
 11 12  1  0  0  0  0
 11 36  1  0  0  0  0
 11 37  1  0  0  0  0
 12 13  1  0  0  0  0
 12 38  1  0  0  0  0
 12 39  1  0  0  0  0
 13 18  1  0  0  0  0
 13 14  2  0  0  0  0
 14 15  1  0  0  0  0
 14 40  1  0  0  0  0
 15 16  2  0  0  0  0
 15 41  1  0  0  0  0
 16 17  1  0  0  0  0
 16 42  1  0  0  0  0
 17 18  2  0  0  0  0
 17 43  1  0  0  0  0
M  CHG  1   4   1
M  CHG  1  10   1
M  END
> <s_m_source_file>
AV-unprocessed.smi

> <i_m_source_file_index>
3303

> <i_lp_mmshare_version>
43012

> <i_f3d_flags>
0

> <s_epik_input>
W0NIM11bQ0BASF0xW0NIMl1OKFtDSDNdKVtDQEBIXShbQ0gzXSlbQ0gyXVtDQEhdMVtOSF1bQ0gyXVtDSDJdYzJbY0hdW2NIXVtjSF1bY0hdbjI=

> <s_epik_cmdline>
J2VwaWtfcHl0aG9uJywgJy1waCcsICc3LjAnLCAnLXRuJywgJzgnLCAnLW1hJywgJzIwMCcsICctbWV0YWxfYmluZGluZycsICctaW1hZScsICc8aW5maWxlLm1hZT4nLCAnLW9tYWUnLCAnPG91dGZpbGUubWFlPic=

> <r_epik_Ionization_Penalty>
0.0769462

> <r_epik_Ionization_Penalty_Charging>
0.0759813

> <r_epik_Ionization_Penalty_Neutral>
0.000964829

> <r_epik_State_Penalty>
0.0654373

> <r_epik_Charging_Adjusted_Penalty>
0.141419

> <i_epik_Tot_Q>
2

> <i_epik_Tot_abs_Q>
2

> <r_epik_Metal_State_Penalty>
0.0656439

> <b_epik_Metal_Only>
0

> <s_lp_Force_Field>
OPLS_2005

> <r_lp_Energy>
33.2065

> <b_lp_Chiralities_Consistent>
1

> <s_lp_Variant>
AV-unprocessed.smi:3303-4

> <Gold.Version>
5.8.1

> <Gold.Id.Protein>
6NUR|6NUR_protein|mol2

> <Gold.PLP.Fitness>
44.1201

> <Gold.PLP.PLP>
-38.9871

> <Gold.PLP.part.hbond>
-1.0000

> <Gold.PLP.part.metal>
0.0000

> <Gold.PLP.part.buried>
-2.2013

> <Gold.PLP.part.nonpolar>
-35.2896

> <Gold.PLP.part.repulsive>
0.2448

> <Gold.PLP.ligand.clash>
0.0000

> <Gold.PLP.ligand.torsion>
0.5085

> <Gold.PLP.Chemscore.Hbond>
1.0000

> <Gold.PLP.Chemscore.CHOScore>
1.0457

> <Gold.PLP.Chemscore.Metal>
0.0000

> <Gold.Chemscore.Hbonds>
donor molecule, donor type, donor heavy atom, donor atom, acceptor molecule, acceptor atom, score
      L1  H     4    45       P1  7957  1.00
      L1  C    17    43       P1  8029  1.00

> <Gold.PLP.Chemscore.Internal.Correction>
0.0129

> <Gold.Rescore>
     Score         DG    S(hbond)    S(metal)    S(lipo)     H(rot)  DE(clash)    DE(int)     intcor
     17.65     -19.40       1.00        0.00     120.47       1.37       0.29       1.45       ----

> <Gold.Chemscore.Fitness>
17.6498

> <Gold.Chemscore.DG>
-19.3967

> <Gold.Chemscore.ZeroCoef>
-5.4800

> <Gold.Chemscore.Hbond>
1.0000

> <Gold.Chemscore.Metal>
0.0000

> <Gold.Chemscore.Lipo>
120.4717

> <Gold.Chemscore.Internal_Hbond>
0.0000

> <Gold.Chemscore.DEClash>
0.2939

> <Gold.Chemscore.DEInternal>
1.4529

> <Gold.Chemscore.Rot>
1.3744

> <Gold.Chemscore.Internal.Correction>
   9.000000E+99

> <Gold.Chemscore.Hbonds>
donor molecule, donor type, donor heavy atom, donor atom, acceptor molecule, acceptor atom, score
      L1  H     4    45       P1  7957  1.00

> <Gold.Chemscore.Hbond.Weighted>
-3.3399

> <Gold.Chemscore.Metal.Weighted>
-0.0000

> <Gold.Chemscore.Lipo.Weighted>
-14.0952

> <Gold.Chemscore.Internal_Hbond.Weighted>
0.0000

> <Gold.Chemscore.DEClash.Weighted>
0.2939

> <Gold.Chemscore.DEInternal.Weighted>
1.4529

> <Gold.Chemscore.Rot.Weighted>
3.5185

> <Gold.Chemscore.Internal.Correction.Weighted>
   9.000000E+99

> <Gold.Protein.RotatedTorsions>
[ 6907 6896 6895 6894 ] final   29.79 input  -60.11 | X-H torsion
[ 7974 7965 7964 7962 ] final   11.89 input  175.53 | X-H torsion
[ 8008 7997 7996 7995 ] final  152.86 input   59.86 | X-H torsion
[ 10167 10162 10161 10158 ] final   98.59 input  -65.29 | X-H torsion
[ 10718 10713 10712 10709 ] final -101.49 input   66.30 | X-H torsion
[ 10763 10752 10751 10750 ] final   -9.38 input  -60.55 | X-H torsion
[ 11005 11000 10999 10996 ] final  149.72 input  -57.11 | X-H torsion

> <Gold.Protein.ActiveResidues>
 VAL166  LYS551  ARG553  GLY616  TRP617  ASP618  TYR619  PRO620  LYS621  CYS622 
 ASP623  PHE694  ASN695  SER759  ASP760  ASP761  ALA762  ILE779  LEU786  VAL792 
 PHE793  MET794  SER795  GLU796  ALA797  LYS798  CYS799  TRP800  GLU811  SER814 

> <Gold.Protein.RotatedAtoms>
  152.0367  134.9736  160.0573 H   0  0  0  0  0  0  0  0  0  0  0  0  # atno 6907 bound_to 6896
  152.1191  133.4338  159.4675 H   0  0  0  0  0  0  0  0  0  0  0  0  # atno 6908 bound_to 6896
  150.6848  134.2475  159.4540 H   0  0  0  0  0  0  0  0  0  0  0  0  # atno 6909 bound_to 6896
  146.2362  139.9418  142.8482 H   0  0  0  0  0  0  0  0  0  0  0  0  # atno 7974 bound_to 7965
  156.2609  140.2009  156.6399 H   0  0  0  0  0  0  0  0  0  0  0  0  # atno 8008 bound_to 7997
  154.6617  140.0560  157.0094 H   0  0  0  0  0  0  0  0  0  0  0  0  # atno 8009 bound_to 7997
  155.1266  140.3230  155.4487 H   0  0  0  0  0  0  0  0  0  0  0  0  # atno 8010 bound_to 7997
  139.7694  144.6927  151.0177 H   0  0  0  0  0  0  0  0  0  0  0  0  # atno 10167 bound_to 10162
  156.0196  130.5376  150.6971 H   0  0  0  0  0  0  0  0  0  0  0  0  # atno 10718 bound_to 10713
  153.4539  135.7015  153.6092 H   0  0  0  0  0  0  0  0  0  0  0  0  # atno 10763 bound_to 10752
  153.4415  135.3779  155.2231 H   0  0  0  0  0  0  0  0  0  0  0  0  # atno 10764 bound_to 10752
  154.8728  135.3975  154.3955 H   0  0  0  0  0  0  0  0  0  0  0  0  # atno 10765 bound_to 10752
  140.1069  134.8948  157.1880 H   0  0  0  0  0  0  0  0  0  0  0  0  # atno 11005 bound_to 11000
  145.1945  140.9827  143.4191 LP  0  0  0  0  0  0  0  0  0  0  0  0  # atno 17320 bound_to 7965
  144.9828  139.3766  143.6253 LP  0  0  0  0  0  0  0  0  0  0  0  0  # atno 17321 bound_to 7965
  140.7813  143.4605  151.0284 LP  0  0  0  0  0  0  0  0  0  0  0  0  # atno 17342 bound_to 10162
  139.8289  143.7717  152.3179 LP  0  0  0  0  0  0  0  0  0  0  0  0  # atno 17343 bound_to 10162
  157.4640  131.0886  151.0715 LP  0  0  0  0  0  0  0  0  0  0  0  0  # atno 17370 bound_to 10713
  157.1195  130.6055  149.5501 LP  0  0  0  0  0  0  0  0  0  0  0  0  # atno 17371 bound_to 10713
  140.3143  134.2988  155.7260 LP  0  0  0  0  0  0  0  0  0  0  0  0  # atno 17394 bound_to 11000
  141.2120  133.7670  156.9821 LP  0  0  0  0  0  0  0  0  0  0  0  0  # atno 17395 bound_to 11000

$$$$
