AV-unprocessed.smi:730|AV-procd|sdf|3524|dock1
  -GOLD-   22720 0513D 1   1.00000     0.00000
 Structure written by MMmdl.
 40 41  0  0  0  0  0  0  0  0  1 V2000
  151.8310  141.2418  158.5141 C   0  0  0  0  0  0  0  0  0  0  0  0
  150.6793  141.8510  157.6897 C   0  0  0  0  0  0  0  0  0  0  0  0
  149.4052  141.8426  158.5551 C   0  0  0  0  0  0  0  0  0  0  0  0
  151.0469  143.3060  157.3433 C   0  0  0  0  0  0  0  0  0  0  0  0
  150.4498  141.0650  156.4288 C   0  0  0  0  0  0  0  0  0  0  0  0
  149.3554  140.4411  155.8934 C   0  0  0  0  0  0  0  0  0  0  0  0
  149.8525  139.8941  154.6811 C   0  0  0  0  0  0  0  0  0  0  0  0
  149.0064  139.1545  153.8159 N   0  0  0  0  0  0  0  0  0  0  0  0
  147.8440  138.5543  154.1230 C   0  0  0  0  0  0  0  0  0  0  0  0
  147.3190  138.5498  155.2369 O   0  0  0  0  0  0  0  0  0  0  0  0
  147.3126  137.9463  153.0532 N   0  0  0  0  0  0  0  0  0  0  0  0
  146.0528  137.2022  153.0482 C   0  0  2  0  0  0  0  0  0  0  0  0
  146.2200  135.7998  153.6730 C   0  0  0  0  0  0  0  0  0  0  0  0
  145.6464  134.8043  152.6607 C   0  0  0  0  0  0  0  0  0  0  0  0
  145.8118  135.4950  151.3107 C   0  0  0  0  0  0  0  0  0  0  0  0
  145.5156  136.9637  151.6175 C   0  0  2  0  0  0  0  0  0  0  0  0
  146.0592  137.8143  150.6251 O   0  0  0  0  0  0  0  0  0  0  0  0
  151.1351  140.1559  154.4880 N   0  0  0  0  0  0  0  0  0  0  0  0
  151.5232  140.9057  155.6038 O   0  0  0  0  0  0  0  0  0  0  0  0
  152.0065  141.8059  159.4307 H   0  0  0  0  0  0  0  0  0  0  0  0
  152.7651  141.2369  157.9509 H   0  0  0  0  0  0  0  0  0  0  0  0
  151.6141  140.2124  158.8019 H   0  0  0  0  0  0  0  0  0  0  0  0
  149.1162  140.8260  158.8248 H   0  0  0  0  0  0  0  0  0  0  0  0
  148.5624  142.2940  158.0302 H   0  0  0  0  0  0  0  0  0  0  0  0
  149.5483  142.4006  159.4811 H   0  0  0  0  0  0  0  0  0  0  0  0
  151.2276  143.8968  158.2419 H   0  0  0  0  0  0  0  0  0  0  0  0
  150.2491  143.7976  156.7855 H   0  0  0  0  0  0  0  0  0  0  0  0
  151.9494  143.3514  156.7327 H   0  0  0  0  0  0  0  0  0  0  0  0
  148.3584  140.3858  156.3046 H   0  0  0  0  0  0  0  0  0  0  0  0
  149.3205  139.0726  152.8604 H   0  0  0  0  0  0  0  0  0  0  0  0
  147.8079  137.9999  152.1749 H   0  0  0  0  0  0  0  0  0  0  0  0
  145.3070  137.7734  153.6044 H   0  0  0  0  0  0  0  0  0  0  0  0
  147.2749  135.5724  153.8357 H   0  0  0  0  0  0  0  0  0  0  0  0
  145.7239  135.7223  154.6410 H   0  0  0  0  0  0  0  0  0  0  0  0
  146.1417  133.8338  152.7001 H   0  0  0  0  0  0  0  0  0  0  0  0
  144.5861  134.6449  152.8620 H   0  0  0  0  0  0  0  0  0  0  0  0
  146.8417  135.3799  150.9684 H   0  0  0  0  0  0  0  0  0  0  0  0
  145.1557  135.0838  150.5430 H   0  0  0  0  0  0  0  0  0  0  0  0
  144.4334  137.1026  151.6244 H   0  0  0  0  0  0  0  0  0  0  0  0
  145.3556  138.3198  150.2475 H   0  0  0  0  0  0  0  0  0  0  0  0
  1  2  1  0  0  0  0
  1 20  1  0  0  0  0
  1 21  1  0  0  0  0
  1 22  1  0  0  0  0
  2  3  1  0  0  0  0
  2  4  1  0  0  0  0
  2  5  1  0  0  0  0
  3 23  1  0  0  0  0
  3 24  1  0  0  0  0
  3 25  1  0  0  0  0
  4 26  1  0  0  0  0
  4 27  1  0  0  0  0
  4 28  1  0  0  0  0
  5 19  1  0  0  0  0
  5  6  2  0  0  0  0
  6  7  1  0  0  0  0
  6 29  1  0  0  0  0
  7  8  1  0  0  0  0
  7 18  2  0  0  0  0
  8  9  1  0  0  0  0
  8 30  1  0  0  0  0
  9 10  2  0  0  0  0
  9 11  1  0  0  0  0
 11 12  1  0  0  0  0
 11 31  1  0  0  0  0
 12 16  1  0  0  0  0
 12 13  1  0  0  0  0
 12 32  1  0  0  0  0
 13 14  1  0  0  0  0
 13 33  1  0  0  0  0
 13 34  1  0  0  0  0
 14 15  1  0  0  0  0
 14 35  1  0  0  0  0
 14 36  1  0  0  0  0
 15 16  1  0  0  0  0
 15 37  1  0  0  0  0
 15 38  1  0  0  0  0
 16 17  1  0  0  0  0
 16 39  1  0  0  0  0
 17 40  1  0  0  0  0
 18 19  1  0  0  0  0
M  END
> <s_m_source_file>
AV-unprocessed.smi

> <i_m_source_file_index>
730

> <i_lp_mmshare_version>
43012

> <i_f3d_flags>
0

> <s_epik_input>
W0NIM11DKFtDSDNdKShbQ0gzXSljMVtjSF1jKG5vMSlbTkhdQyg9TylbTkhdW0NAQEhdMltDSDJdW0NIMl1bQ0gyXVtDQEhdMltPSF0=

> <s_epik_cmdline>
J2VwaWtfcHl0aG9uJywgJy1waCcsICc3LjAnLCAnLXRuJywgJzgnLCAnLW1hJywgJzIwMCcsICctbWV0YWxfYmluZGluZycsICctaW1hZScsICc8aW5maWxlLm1hZT4nLCAnLW9tYWUnLCAnPG91dGZpbGUubWFlPic=

> <r_lp_tautomer_probability>
1

> <r_epik_Ionization_Penalty>
2.23071e-05

> <r_epik_Ionization_Penalty_Charging>
0

> <r_epik_Ionization_Penalty_Neutral>
2.23071e-05

> <r_epik_State_Penalty>
-0

> <r_epik_Charging_Adjusted_Penalty>
0

> <i_epik_Tot_Q>
0

> <i_epik_Tot_abs_Q>
0

> <r_epik_Metal_State_Penalty>
-0

> <b_epik_Metal_Only>
0

> <s_lp_Force_Field>
OPLS_2005

> <r_lp_Energy>
21.1431

> <b_lp_Chiralities_Consistent>
1

> <s_lp_Variant>
AV-unprocessed.smi:730-3

> <Gold.Version>
5.8.1

> <Gold.Id.Protein>
6NUR|6NUR_protein|mol2

> <Gold.PLP.Fitness>
38.3239

> <Gold.PLP.PLP>
-28.9167

> <Gold.PLP.part.hbond>
-5.9664

> <Gold.PLP.part.metal>
0.0000

> <Gold.PLP.part.buried>
-1.8683

> <Gold.PLP.part.nonpolar>
-22.3368

> <Gold.PLP.part.repulsive>
0.2751

> <Gold.PLP.ligand.clash>
0.0000

> <Gold.PLP.ligand.torsion>
0.3666

> <Gold.PLP.Chemscore.Hbond>
3.3787

> <Gold.PLP.Chemscore.CHOScore>
0.0000

> <Gold.PLP.Chemscore.Metal>
0.0000

> <Gold.Chemscore.Hbonds>
donor molecule, donor type, donor heavy atom, donor atom, acceptor molecule, acceptor atom, score
      L1  H     8    30       P1  7957  0.91
      L1  H    11    31       P1  7948  0.20
      L1  H    17    40       P1 10171  1.00
      P1  H  7954  7966       L1    17  0.48
      P1  H  7989  7998       L1    18  0.47

> <Gold.PLP.Chemscore.Internal.Correction>
0.0044

> <Gold.Rescore>
     Score         DG    S(hbond)    S(metal)    S(lipo)     H(rot)  DE(clash)    DE(int)     intcor
     15.17     -18.05       3.07        0.00      57.32       1.71       1.43       1.45       ----

> <Gold.Chemscore.Fitness>
15.1690

> <Gold.Chemscore.DG>
-18.0496

> <Gold.Chemscore.ZeroCoef>
-5.4800

> <Gold.Chemscore.Hbond>
3.0681

> <Gold.Chemscore.Metal>
0.0000

> <Gold.Chemscore.Lipo>
57.3194

> <Gold.Chemscore.Internal_Hbond>
0.0000

> <Gold.Chemscore.DEClash>
1.4280

> <Gold.Chemscore.DEInternal>
1.4526

> <Gold.Chemscore.Rot>
1.7125

> <Gold.Chemscore.Internal.Correction>
   9.000000E+99

> <Gold.Chemscore.Hbonds>
donor molecule, donor type, donor heavy atom, donor atom, acceptor molecule, acceptor atom, score
      L1  H     8    30       P1  7957  0.88
      L1  H    11    31       P1  7948  0.19
      L1  H    17    40       P1 10171  0.94
      P1  H  7954  7966       L1    17  0.46
      P1  H  7989  7998       L1    18  0.16

> <Gold.Chemscore.Hbond.Weighted>
-10.2473

> <Gold.Chemscore.Metal.Weighted>
-0.0000

> <Gold.Chemscore.Lipo.Weighted>
-6.7064

> <Gold.Chemscore.Internal_Hbond.Weighted>
0.0000

> <Gold.Chemscore.DEClash.Weighted>
1.4280

> <Gold.Chemscore.DEInternal.Weighted>
1.4526

> <Gold.Chemscore.Rot.Weighted>
4.3841

> <Gold.Chemscore.Internal.Correction.Weighted>
   9.000000E+99

> <Gold.Protein.RotatedTorsions>
[ 6907 6896 6895 6894 ] final  103.92 input  -60.11 | X-H torsion
[ 7974 7965 7964 7962 ] final    0.63 input  175.53 | X-H torsion
[ 8008 7997 7996 7995 ] final   42.68 input   59.86 | X-H torsion
[ 10167 10162 10161 10158 ] final  -16.05 input  -65.29 | X-H torsion
[ 10718 10713 10712 10709 ] final   90.13 input   66.30 | X-H torsion
[ 10763 10752 10751 10750 ] final   -7.33 input  -60.55 | X-H torsion
[ 11005 11000 10999 10996 ] final  -92.35 input  -57.11 | X-H torsion

> <Gold.Protein.ActiveResidues>
 VAL166  LYS551  ARG553  GLY616  TRP617  ASP618  TYR619  PRO620  LYS621  CYS622 
 ASP623  PHE694  ASN695  SER759  ASP760  ASP761  ALA762  ILE779  LEU786  VAL792 
 PHE793  MET794  SER795  GLU796  ALA797  LYS798  CYS799  TRP800  GLU811  SER814 

> <Gold.Protein.RotatedAtoms>
  152.5280  133.9754  159.7781 H   0  0  0  0  0  0  0  0  0  0  0  0  # atno 6907 bound_to 6896
  151.0017  133.6041  159.2701 H   0  0  0  0  0  0  0  0  0  0  0  0  # atno 6908 bound_to 6896
  151.3148  135.0810  159.9338 H   0  0  0  0  0  0  0  0  0  0  0  0  # atno 6909 bound_to 6896
  146.2435  140.1108  142.8344 H   0  0  0  0  0  0  0  0  0  0  0  0  # atno 7974 bound_to 7965
  155.2902  140.3378  155.4253 H   0  0  0  0  0  0  0  0  0  0  0  0  # atno 8008 bound_to 7997
  156.2049  140.1747  156.7860 H   0  0  0  0  0  0  0  0  0  0  0  0  # atno 8009 bound_to 7997
  154.5608  140.0688  156.8800 H   0  0  0  0  0  0  0  0  0  0  0  0  # atno 8010 bound_to 7997
  140.7228  143.5155  150.9697 H   0  0  0  0  0  0  0  0  0  0  0  0  # atno 10167 bound_to 10162
  157.6958  131.0359  150.3530 H   0  0  0  0  0  0  0  0  0  0  0  0  # atno 10718 bound_to 10713
  153.4248  135.7011  153.6270 H   0  0  0  0  0  0  0  0  0  0  0  0  # atno 10763 bound_to 10752
  153.4709  135.3715  155.2390 H   0  0  0  0  0  0  0  0  0  0  0  0  # atno 10764 bound_to 10752
  154.8723  135.4042  154.3623 H   0  0  0  0  0  0  0  0  0  0  0  0  # atno 10765 bound_to 10752
  141.1524  133.7815  157.0008 H   0  0  0  0  0  0  0  0  0  0  0  0  # atno 11005 bound_to 11000
  145.0488  140.9002  143.5008 LP  0  0  0  0  0  0  0  0  0  0  0  0  # atno 17320 bound_to 7965
  145.1202  139.2698  143.5592 LP  0  0  0  0  0  0  0  0  0  0  0  0  # atno 17321 bound_to 7965
  139.8870  143.7000  152.3150 LP  0  0  0  0  0  0  0  0  0  0  0  0  # atno 17342 bound_to 10162
  139.7303  144.7584  151.0813 LP  0  0  0  0  0  0  0  0  0  0  0  0  # atno 17343 bound_to 10162
  156.3976  130.3910  149.6983 LP  0  0  0  0  0  0  0  0  0  0  0  0  # atno 17370 bound_to 10713
  156.4311  130.7816  151.2835 LP  0  0  0  0  0  0  0  0  0  0  0  0  # atno 17371 bound_to 10713
  140.0941  134.9575  157.1822 LP  0  0  0  0  0  0  0  0  0  0  0  0  # atno 17394 bound_to 11000
  140.3406  134.2708  155.7213 LP  0  0  0  0  0  0  0  0  0  0  0  0  # atno 17395 bound_to 11000

$$$$
