AV-unprocessed.smi:937|AV-procd|sdf|4209|dock7
  -GOLD-   22720 2113D 1   1.00000     0.00000
 Structure written by MMmdl.
 45 46  0  0  0  0  0  0  0  0  1 V2000
  152.4636  141.8213  158.6768 C   0  0  0  0  0  0  0  0  0  0  0  0
  151.7617  140.9992  157.6163 C   0  0  0  0  0  0  0  0  0  0  0  0
  150.3773  141.1481  157.3903 C   0  0  0  0  0  0  0  0  0  0  0  0
  149.7715  140.3576  156.3951 C   0  0  0  0  0  0  0  0  0  0  0  0
  150.5698  139.4518  155.6671 C   0  0  0  0  0  0  0  0  0  0  0  0
  149.9624  138.5761  154.5896 C   0  0  0  0  0  0  0  0  0  0  0  0
  148.4263  138.6220  154.6071 C   0  0  0  0  0  0  0  0  0  0  0  0
  147.8578  137.7911  153.5534 N   0  0  0  0  0  0  0  0  0  0  0  0
  146.5638  137.7863  153.1915 C   0  0  0  0  0  0  0  0  0  0  0  0
  145.7070  138.4830  153.7322 O   0  0  0  0  0  0  0  0  0  0  0  0
  146.2629  136.9547  152.1782 N   0  0  0  0  0  0  0  0  0  0  0  0
  144.9614  136.7117  151.5477 C   0  0  2  0  0  0  0  0  0  0  0  0
  143.8134  136.7508  152.5795 C   0  0  0  0  0  0  0  0  0  0  0  0
  143.8570  135.5496  153.5375 C   0  0  0  0  0  0  0  0  0  0  0  0
  143.8583  134.2206  152.7663 C   0  0  0  0  0  0  0  0  0  0  0  0
  145.0242  134.1469  151.7580 C   0  0  1  0  0  0  0  0  0  0  0  0
  145.0412  132.8093  150.9895 C   0  0  0  0  0  0  0  0  0  0  0  0
  146.1390  132.7056  150.2399 F   0  0  0  0  0  0  0  0  0  0  0  0
  145.0079  131.7902  151.8481 F   0  0  0  0  0  0  0  0  0  0  0  0
  143.9706  132.7222  150.2002 F   0  0  0  0  0  0  0  0  0  0  0  0
  144.9795  135.3619  150.8022 C   0  0  0  0  0  0  0  0  0  0  0  0
  151.9451  139.3777  155.9728 C   0  0  0  0  0  0  0  0  0  0  0  0
  152.5344  140.1313  156.9261 N   0  0  0  0  0  0  0  0  0  0  0  0
  151.9310  142.7549  158.8601 H   0  0  0  0  0  0  0  0  0  0  0  0
  153.4803  142.0685  158.3694 H   0  0  0  0  0  0  0  0  0  0  0  0
  152.5123  141.2646  159.6127 H   0  0  0  0  0  0  0  0  0  0  0  0
  149.7913  141.8503  157.9652 H   0  0  0  0  0  0  0  0  0  0  0  0
  148.7131  140.4446  156.1968 H   0  0  0  0  0  0  0  0  0  0  0  0
  150.3410  138.9011  153.6194 H   0  0  0  0  0  0  0  0  0  0  0  0
  150.3084  137.5506  154.7263 H   0  0  0  0  0  0  0  0  0  0  0  0
  148.0532  138.2595  155.5653 H   0  0  0  0  0  0  0  0  0  0  0  0
  148.0722  139.6495  154.5041 H   0  0  0  0  0  0  0  0  0  0  0  0
  148.4930  137.1838  153.0566 H   0  0  0  0  0  0  0  0  0  0  0  0
  147.0309  136.4134  151.8080 H   0  0  0  0  0  0  0  0  0  0  0  0
  144.7888  137.4892  150.8017 H   0  0  0  0  0  0  0  0  0  0  0  0
  143.8354  137.6811  153.1481 H   0  0  0  0  0  0  0  0  0  0  0  0
  142.8596  136.7463  152.0505 H   0  0  0  0  0  0  0  0  0  0  0  0
  144.7458  135.6103  154.1668 H   0  0  0  0  0  0  0  0  0  0  0  0
  143.0013  135.5845  154.2123 H   0  0  0  0  0  0  0  0  0  0  0  0
  143.9216  133.3937  153.4741 H   0  0  0  0  0  0  0  0  0  0  0  0
  142.9087  134.1046  152.2426 H   0  0  0  0  0  0  0  0  0  0  0  0
  145.9545  134.2007  152.3257 H   0  0  0  0  0  0  0  0  0  0  0  0
  144.0878  135.2930  150.1778 H   0  0  0  0  0  0  0  0  0  0  0  0
  145.8274  135.3337  150.1169 H   0  0  0  0  0  0  0  0  0  0  0  0
  152.5903  138.6938  155.4410 H   0  0  0  0  0  0  0  0  0  0  0  0
  1  2  1  0  0  0  0
  1 24  1  0  0  0  0
  1 25  1  0  0  0  0
  1 26  1  0  0  0  0
  2 23  1  0  0  0  0
  2  3  2  0  0  0  0
  3  4  1  0  0  0  0
  3 27  1  0  0  0  0
  4  5  2  0  0  0  0
  4 28  1  0  0  0  0
  5  6  1  0  0  0  0
  5 22  1  0  0  0  0
  6  7  1  0  0  0  0
  6 29  1  0  0  0  0
  6 30  1  0  0  0  0
  7  8  1  0  0  0  0
  7 31  1  0  0  0  0
  7 32  1  0  0  0  0
  8  9  1  0  0  0  0
  8 33  1  0  0  0  0
  9 10  2  0  0  0  0
  9 11  1  0  0  0  0
 11 12  1  0  0  0  0
 11 34  1  0  0  0  0
 12 21  1  0  0  0  0
 12 13  1  0  0  0  0
 12 35  1  0  0  0  0
 13 14  1  0  0  0  0
 13 36  1  0  0  0  0
 13 37  1  0  0  0  0
 14 15  1  0  0  0  0
 14 38  1  0  0  0  0
 14 39  1  0  0  0  0
 15 16  1  0  0  0  0
 15 40  1  0  0  0  0
 15 41  1  0  0  0  0
 16 17  1  0  0  0  0
 16 21  1  0  0  0  0
 16 42  1  0  0  0  0
 17 18  1  0  0  0  0
 17 19  1  0  0  0  0
 17 20  1  0  0  0  0
 21 43  1  0  0  0  0
 21 44  1  0  0  0  0
 22 23  2  0  0  0  0
 22 45  1  0  0  0  0
M  END
> <s_m_source_file>
AV-unprocessed.smi

> <i_m_source_file_index>
937

> <i_lp_mmshare_version>
43012

> <i_f3d_flags>
0

> <s_epik_input>
W0NIM11jMVtjSF1bY0hdYyhbY0hdbjEpW0NIMl1bQ0gyXVtOSF1DKD1PKVtOSF1bQ0BASF0yW0NIMl1bQ0gyXVtDSDJdW0NAQEhdKEMoRikoRilGKVtDSDJdMg==

> <s_epik_cmdline>
J2VwaWtfcHl0aG9uJywgJy1waCcsICc3LjAnLCAnLXRuJywgJzgnLCAnLW1hJywgJzIwMCcsICctbWV0YWxfYmluZGluZycsICctaW1hZScsICc8aW5maWxlLm1hZT4nLCAnLW9tYWUnLCAnPG91dGZpbGUubWFlPic=

> <r_epik_Ionization_Penalty>
0.0563445

> <r_epik_Ionization_Penalty_Charging>
0

> <r_epik_Ionization_Penalty_Neutral>
0.0563445

> <r_epik_State_Penalty>
0.0485409

> <r_epik_Charging_Adjusted_Penalty>
0.0485409

> <i_epik_Tot_Q>
0

> <i_epik_Tot_abs_Q>
0

> <r_epik_Metal_State_Penalty>
0.0443056

> <b_epik_Metal_Only>
0

> <s_lp_Force_Field>
OPLS_2005

> <r_lp_Energy>
16.8022

> <b_lp_Chiralities_Consistent>
1

> <s_lp_Variant>
AV-unprocessed.smi:937-1

> <Gold.Version>
5.8.1

> <Gold.Id.Protein>
6NUR|6NUR_protein|mol2

> <Gold.PLP.Fitness>
45.0456

> <Gold.PLP.PLP>
-37.3905

> <Gold.PLP.part.hbond>
-2.9584

> <Gold.PLP.part.metal>
0.0000

> <Gold.PLP.part.buried>
-1.7187

> <Gold.PLP.part.nonpolar>
-33.0479

> <Gold.PLP.part.repulsive>
0.5213

> <Gold.PLP.ligand.clash>
0.0000

> <Gold.PLP.ligand.torsion>
0.5077

> <Gold.PLP.Chemscore.Hbond>
2.8800

> <Gold.PLP.Chemscore.CHOScore>
0.0000

> <Gold.PLP.Chemscore.Metal>
0.0000

> <Gold.Chemscore.Hbonds>
donor molecule, donor type, donor heavy atom, donor atom, acceptor molecule, acceptor atom, score
      L1  H     8    33       P1  7948  1.00
      L1  H    11    34       P1  7948  0.88
      P1  H  7997  8009       L1    23  1.00

> <Gold.PLP.Chemscore.Internal.Correction>
0.0304

> <Gold.Rescore>
     Score         DG    S(hbond)    S(metal)    S(lipo)     H(rot)  DE(clash)    DE(int)     intcor
     16.74     -20.05       2.70        0.00      82.10       1.58       1.53       1.78       ----

> <Gold.Chemscore.Fitness>
16.7382

> <Gold.Chemscore.DG>
-20.0480

> <Gold.Chemscore.ZeroCoef>
-5.4800

> <Gold.Chemscore.Hbond>
2.7004

> <Gold.Chemscore.Metal>
0.0000

> <Gold.Chemscore.Lipo>
82.1046

> <Gold.Chemscore.Internal_Hbond>
0.0000

> <Gold.Chemscore.DEClash>
1.5268

> <Gold.Chemscore.DEInternal>
1.7830

> <Gold.Chemscore.Rot>
1.5849

> <Gold.Chemscore.Internal.Correction>
   9.000000E+99

> <Gold.Chemscore.Hbonds>
donor molecule, donor type, donor heavy atom, donor atom, acceptor molecule, acceptor atom, score
      L1  H     8    33       P1  7948  0.96
      L1  H    11    34       P1  7948  0.86
      P1  H  7997  8009       L1    23  0.68

> <Gold.Chemscore.Hbond.Weighted>
-9.0192

> <Gold.Chemscore.Metal.Weighted>
-0.0000

> <Gold.Chemscore.Lipo.Weighted>
-9.6062

> <Gold.Chemscore.Internal_Hbond.Weighted>
0.0000

> <Gold.Chemscore.DEClash.Weighted>
1.5268

> <Gold.Chemscore.DEInternal.Weighted>
1.7830

> <Gold.Chemscore.Rot.Weighted>
4.0574

> <Gold.Chemscore.Internal.Correction.Weighted>
   9.000000E+99

> <Gold.Protein.RotatedTorsions>
[ 6907 6896 6895 6894 ] final   77.69 input  -60.11 | X-H torsion
[ 7974 7965 7964 7962 ] final  110.21 input  175.53 | X-H torsion
[ 8008 7997 7996 7995 ] final  177.33 input   59.86 | X-H torsion
[ 10167 10162 10161 10158 ] final  -58.99 input  -65.29 | X-H torsion
[ 10718 10713 10712 10709 ] final -137.75 input   66.30 | X-H torsion
[ 10763 10752 10751 10750 ] final  -10.05 input  -60.55 | X-H torsion
[ 11005 11000 10999 10996 ] final  126.21 input  -57.11 | X-H torsion

> <Gold.Protein.ActiveResidues>
 VAL166  LYS551  ARG553  GLY616  TRP617  ASP618  TYR619  PRO620  LYS621  CYS622 
 ASP623  PHE694  ASN695  SER759  ASP760  ASP761  ALA762  ILE779  LEU786  VAL792 
 PHE793  MET794  SER795  GLU796  ALA797  LYS798  CYS799  TRP800  GLU811  SER814 

> <Gold.Protein.RotatedAtoms>
  152.5128  134.3778  159.9340 H   0  0  0  0  0  0  0  0  0  0  0  0  # atno 6907 bound_to 6896
  151.3734  133.3840  159.2710 H   0  0  0  0  0  0  0  0  0  0  0  0  # atno 6908 bound_to 6896
  150.9560  134.8974  159.7760 H   0  0  0  0  0  0  0  0  0  0  0  0  # atno 6909 bound_to 6896
  145.2579  139.2714  143.4032 H   0  0  0  0  0  0  0  0  0  0  0  0  # atno 7974 bound_to 7965
  156.0668  140.1361  156.9876 H   0  0  0  0  0  0  0  0  0  0  0  0  # atno 8008 bound_to 7997
  154.4510  140.0980  156.6670 H   0  0  0  0  0  0  0  0  0  0  0  0  # atno 8009 bound_to 7997
  155.5291  140.3458  155.4425 H   0  0  0  0  0  0  0  0  0  0  0  0  # atno 8010 bound_to 7997
  140.6163  143.2403  151.5589 H   0  0  0  0  0  0  0  0  0  0  0  0  # atno 10167 bound_to 10162
  156.2916  130.7378  151.1405 H   0  0  0  0  0  0  0  0  0  0  0  0  # atno 10718 bound_to 10713
  153.4636  135.7016  153.6035 H   0  0  0  0  0  0  0  0  0  0  0  0  # atno 10763 bound_to 10752
  153.4319  135.3800  155.2176 H   0  0  0  0  0  0  0  0  0  0  0  0  # atno 10764 bound_to 10752
  154.8727  135.3953  154.4065 H   0  0  0  0  0  0  0  0  0  0  0  0  # atno 10765 bound_to 10752
  139.9445  134.9631  156.8673 H   0  0  0  0  0  0  0  0  0  0  0  0  # atno 11005 bound_to 11000
  146.3284  140.2988  142.8619 LP  0  0  0  0  0  0  0  0  0  0  0  0  # atno 17320 bound_to 7965
  144.9444  140.8113  143.5610 LP  0  0  0  0  0  0  0  0  0  0  0  0  # atno 17321 bound_to 7965
  139.5401  144.2671  152.1333 LP  0  0  0  0  0  0  0  0  0  0  0  0  # atno 17342 bound_to 10162
  140.1881  144.4779  150.6493 LP  0  0  0  0  0  0  0  0  0  0  0  0  # atno 17343 bound_to 10162
  157.7344  131.0582  150.5526 LP  0  0  0  0  0  0  0  0  0  0  0  0  # atno 17370 bound_to 10713
  156.5643  130.4263  149.6048 LP  0  0  0  0  0  0  0  0  0  0  0  0  # atno 17371 bound_to 10713
  140.5869  134.0298  155.7485 LP  0  0  0  0  0  0  0  0  0  0  0  0  # atno 17394 bound_to 11000
  141.1091  133.9646  157.2944 LP  0  0  0  0  0  0  0  0  0  0  0  0  # atno 17395 bound_to 11000

$$$$
