AV-unprocessed.smi:86|AV-procd|sdf|813|dock5
  -GOLD-   2262017213D 1   1.00000     0.00000
 Structure written by MMmdl.
 51 55  0  0  0  0  0  0  0  0  1 V2000
  146.6807  137.9366  161.4206 O   0  0  0  0  0  0  0  0  0  0  0  0
  147.2244  136.6472  161.2230 C   0  0  0  0  0  0  0  0  0  0  0  0
  147.3834  136.3295  159.7259 C   0  0  0  0  0  0  0  0  0  0  0  0
  146.0023  136.2124  159.0496 C   0  0  0  0  0  0  0  0  0  0  0  0
  146.0691  135.9622  157.6175 N   0  0  0  0  0  0  0  0  0  0  0  0
  145.7636  136.8488  156.6110 C   0  0  0  0  0  0  0  0  0  0  0  0
  145.9024  136.3836  155.4006 N   0  0  0  0  0  0  0  0  0  0  0  0
  146.3264  135.0707  155.5780 C   0  0  0  0  0  0  0  0  0  0  0  0
  146.6637  133.9972  154.6995 C   0  0  0  0  0  0  0  0  0  0  0  0
  146.6245  134.0637  153.3431 N   0  0  0  0  0  0  0  0  0  0  0  0
  146.8760  132.9205  152.4798 C   0  0  0  0  0  0  0  0  0  0  0  0
  146.6469  133.4586  151.0659 C   0  0  1  0  0  0  0  0  0  0  0  0
  146.3657  132.4070  149.9745 C   0  0  0  0  0  0  0  0  0  0  0  0
  144.9483  131.8212  150.0560 C   0  0  0  0  0  0  0  0  0  0  0  0
  143.8963  132.9406  150.0739 C   0  0  1  0  0  0  0  0  0  0  0  0
  142.6075  132.3699  150.1589 O   0  0  0  0  0  0  0  0  0  0  0  0
  144.1227  133.8702  151.2753 C   0  0  0  0  0  0  0  0  0  0  0  0
  145.5328  134.5004  151.2637 C   0  0  1  0  0  0  0  0  0  0  0  0
  145.8827  135.1027  152.6332 C   0  0  0  0  0  0  0  0  0  0  0  0
  147.0373  132.8224  155.2723 N   0  0  0  0  0  0  0  0  0  0  0  0
  147.0870  132.6977  156.6010 C   0  0  0  0  0  0  0  0  0  0  0  0
  146.8069  133.6078  157.5338 N   0  0  0  0  0  0  0  0  0  0  0  0
  146.4280  134.7909  156.9723 C   0  0  0  0  0  0  0  0  0  0  0  0
  148.4223  137.1859  158.9888 C   0  0  0  0  0  0  0  0  0  0  0  0
  149.4082  136.1325  159.0325 O   0  0  0  0  0  0  0  0  0  0  0  0
  148.3777  135.2001  159.4208 C   0  0  0  0  0  0  0  0  0  0  0  0
  145.7424  137.8587  161.5007 H   0  0  0  0  0  0  0  0  0  0  0  0
  148.1910  136.6146  161.7266 H   0  0  0  0  0  0  0  0  0  0  0  0
  146.5967  135.9132  161.7280 H   0  0  0  0  0  0  0  0  0  0  0  0
  145.4084  135.4244  159.5138 H   0  0  0  0  0  0  0  0  0  0  0  0
  145.4296  137.1290  159.1954 H   0  0  0  0  0  0  0  0  0  0  0  0
  145.4321  137.8590  156.8002 H   0  0  0  0  0  0  0  0  0  0  0  0
  147.8918  132.5426  152.5978 H   0  0  0  0  0  0  0  0  0  0  0  0
  146.1750  132.1207  152.7202 H   0  0  0  0  0  0  0  0  0  0  0  0
  147.5545  133.9942  150.7822 H   0  0  0  0  0  0  0  0  0  0  0  0
  146.4892  132.8776  148.9982 H   0  0  0  0  0  0  0  0  0  0  0  0
  147.1073  131.6092  150.0217 H   0  0  0  0  0  0  0  0  0  0  0  0
  144.7775  131.1586  149.2067 H   0  0  0  0  0  0  0  0  0  0  0  0
  144.8539  131.2052  150.9512 H   0  0  0  0  0  0  0  0  0  0  0  0
  143.9521  133.5141  149.1480 H   0  0  0  0  0  0  0  0  0  0  0  0
  141.9673  133.0554  150.0426 H   0  0  0  0  0  0  0  0  0  0  0  0
  143.3704  134.6598  151.2868 H   0  0  0  0  0  0  0  0  0  0  0  0
  143.9801  133.3018  152.1961 H   0  0  0  0  0  0  0  0  0  0  0  0
  145.5744  135.2585  150.4807 H   0  0  0  0  0  0  0  0  0  0  0  0
  144.9875  135.4209  153.1697 H   0  0  0  0  0  0  0  0  0  0  0  0
  146.5317  135.9711  152.5155 H   0  0  0  0  0  0  0  0  0  0  0  0
  147.3944  131.7300  156.9692 H   0  0  0  0  0  0  0  0  0  0  0  0
  148.1438  137.4380  157.9644 H   0  0  0  0  0  0  0  0  0  0  0  0
  148.7366  138.0758  159.5354 H   0  0  0  0  0  0  0  0  0  0  0  0
  148.6555  134.6040  160.2907 H   0  0  0  0  0  0  0  0  0  0  0  0
  148.0858  134.5601  158.5873 H   0  0  0  0  0  0  0  0  0  0  0  0
  1  2  1  0  0  0  0
  1 27  1  0  0  0  0
  2  3  1  0  0  0  0
  2 28  1  0  0  0  0
  2 29  1  0  0  0  0
  3 26  1  0  0  0  0
  3  4  1  0  0  0  0
  3 24  1  0  0  0  0
  4  5  1  0  0  0  0
  4 30  1  0  0  0  0
  4 31  1  0  0  0  0
  5 23  1  0  0  0  0
  5  6  1  0  0  0  0
  6  7  2  0  0  0  0
  6 32  1  0  0  0  0
  7  8  1  0  0  0  0
  8 23  2  0  0  0  0
  8  9  1  0  0  0  0
  9 10  1  0  0  0  0
  9 20  2  0  0  0  0
 10 19  1  0  0  0  0
 10 11  1  0  0  0  0
 11 12  1  0  0  0  0
 11 33  1  0  0  0  0
 11 34  1  0  0  0  0
 12 18  1  0  0  0  0
 12 13  1  0  0  0  0
 12 35  1  0  0  0  0
 13 14  1  0  0  0  0
 13 36  1  0  0  0  0
 13 37  1  0  0  0  0
 14 15  1  0  0  0  0
 14 38  1  0  0  0  0
 14 39  1  0  0  0  0
 15 16  1  0  0  0  0
 15 17  1  0  0  0  0
 15 40  1  0  0  0  0
 16 41  1  0  0  0  0
 17 18  1  0  0  0  0
 17 42  1  0  0  0  0
 17 43  1  0  0  0  0
 18 19  1  0  0  0  0
 18 44  1  0  0  0  0
 19 45  1  0  0  0  0
 19 46  1  0  0  0  0
 20 21  1  0  0  0  0
 21 22  2  0  0  0  0
 21 47  1  0  0  0  0
 22 23  1  0  0  0  0
 24 25  1  0  0  0  0
 24 48  1  0  0  0  0
 24 49  1  0  0  0  0
 25 26  1  0  0  0  0
 26 50  1  0  0  0  0
 26 51  1  0  0  0  0
M  END
> <s_m_source_file>
AV-unprocessed.smi

> <i_m_source_file_index>
86

> <i_lp_mmshare_version>
43012

> <i_f3d_flags>
0

> <s_epik_input>
W0NIMl0xT1tDSDJdQzEoW0NIMl1bT0hdKVtDSDJdbihbY0hdbjIpYyhjMjMpbltjSF1uYzNOKFtDSDJdNClbQ0gyXVtDQEBIXShbQ0BIXTQ1KVtDSDJdW0NASF0oW09IXSlbQ0gyXVtDSDJdNQ==

> <s_epik_cmdline>
J2VwaWtfcHl0aG9uJywgJy1waCcsICc3LjAnLCAnLXRuJywgJzgnLCAnLW1hJywgJzIwMCcsICctbWV0YWxfYmluZGluZycsICctaW1hZScsICc8aW5maWxlLm1hZT4nLCAnLW9tYWUnLCAnPG91dGZpbGUubWFlPic=

> <r_lp_tautomer_probability>
1

> <r_epik_Ionization_Penalty>
0.00425795

> <r_epik_Ionization_Penalty_Charging>
0

> <r_epik_Ionization_Penalty_Neutral>
0.00425795

> <r_epik_State_Penalty>
0.00299946

> <r_epik_Charging_Adjusted_Penalty>
0.00299946

> <i_epik_Tot_Q>
0

> <i_epik_Tot_abs_Q>
0

> <r_epik_Metal_State_Penalty>
-0

> <b_epik_Metal_Only>
0

> <s_lp_Force_Field>
OPLS_2005

> <r_lp_Energy>
54.7951

> <b_lp_Chiralities_Consistent>
1

> <s_lp_Variant>
AV-unprocessed.smi:86-2

> <Gold.Version>
5.8.1

> <Gold.Id.Protein>
6NUR|6NUR_protein|mol2

> <Gold.PLP.Fitness>
40.1358

> <Gold.PLP.PLP>
-31.5051

> <Gold.PLP.part.hbond>
-4.2681

> <Gold.PLP.part.metal>
0.0000

> <Gold.PLP.part.buried>
-4.4248

> <Gold.PLP.part.nonpolar>
-23.7085

> <Gold.PLP.part.repulsive>
0.0465

> <Gold.PLP.ligand.clash>
0.0000

> <Gold.PLP.ligand.torsion>
0.4124

> <Gold.PLP.Chemscore.Hbond>
3.0000

> <Gold.PLP.Chemscore.CHOScore>
0.0000

> <Gold.PLP.Chemscore.Metal>
0.0000

> <Gold.Chemscore.Hbonds>
donor molecule, donor type, donor heavy atom, donor atom, acceptor molecule, acceptor atom, score
      L1  H    16    41       P1 10186  1.00
      P1  H  6896  6908       L1    25  0.40
      P1  H  6934  6947       L1     1  0.37

> <Gold.PLP.Chemscore.Internal.Correction>
0.4555

> <Gold.Rescore>
     Score         DG    S(hbond)    S(metal)    S(lipo)     H(rot)  DE(clash)    DE(int)     intcor
     15.65     -17.25       2.95        0.00      76.95       2.76       0.12       1.48       ----

> <Gold.Chemscore.Fitness>
15.6475

> <Gold.Chemscore.DG>
-17.2487

> <Gold.Chemscore.ZeroCoef>
-5.4800

> <Gold.Chemscore.Hbond>
2.9458

> <Gold.Chemscore.Metal>
0.0000

> <Gold.Chemscore.Lipo>
76.9505

> <Gold.Chemscore.Internal_Hbond>
0.0000

> <Gold.Chemscore.DEClash>
0.1214

> <Gold.Chemscore.DEInternal>
1.4797

> <Gold.Chemscore.Rot>
2.7630

> <Gold.Chemscore.Internal.Correction>
   9.000000E+99

> <Gold.Chemscore.Hbonds>
donor molecule, donor type, donor heavy atom, donor atom, acceptor molecule, acceptor atom, score
      L1  H    16    41       P1 10186  1.00
      P1  H  6896  6908       L1    25  0.01
      P1  H  6934  6947       L1     1  0.34

> <Gold.Chemscore.Hbond.Weighted>
-9.8389

> <Gold.Chemscore.Metal.Weighted>
-0.0000

> <Gold.Chemscore.Lipo.Weighted>
-9.0032

> <Gold.Chemscore.Internal_Hbond.Weighted>
0.0000

> <Gold.Chemscore.DEClash.Weighted>
0.1214

> <Gold.Chemscore.DEInternal.Weighted>
1.4797

> <Gold.Chemscore.Rot.Weighted>
7.0734

> <Gold.Chemscore.Internal.Correction.Weighted>
   9.000000E+99

> <Gold.Protein.RotatedTorsions>
[ 6907 6896 6895 6894 ] final -175.64 input  -60.11 | X-H torsion
[ 7974 7965 7964 7962 ] final -164.87 input  175.53 | X-H torsion
[ 8008 7997 7996 7995 ] final  -40.38 input   59.86 | X-H torsion
[ 10167 10162 10161 10158 ] final  -98.64 input  -65.29 | X-H torsion
[ 10718 10713 10712 10709 ] final  -52.67 input   66.30 | X-H torsion
[ 10763 10752 10751 10750 ] final  137.23 input  -60.55 | X-H torsion
[ 11005 11000 10999 10996 ] final  175.13 input  -57.11 | X-H torsion

> <Gold.Protein.ActiveResidues>
 VAL166  LYS551  ARG553  GLY616  TRP617  ASP618  TYR619  PRO620  LYS621  CYS622 
 ASP623  PHE694  ASN695  SER759  ASP760  ASP761  ALA762  ILE779  LEU786  VAL792 
 PHE793  MET794  SER795  GLU796  ALA797  LYS798  CYS799  TRP800  GLU811  SER814 

> <Gold.Protein.RotatedAtoms>
  151.5919  133.3365  159.3029 H   0  0  0  0  0  0  0  0  0  0  0  0  # atno 6907 bound_to 6896
  150.8256  134.7488  159.6821 H   0  0  0  0  0  0  0  0  0  0  0  0  # atno 6908 bound_to 6896
  152.4345  134.5719  159.9975 H   0  0  0  0  0  0  0  0  0  0  0  0  # atno 6909 bound_to 6896
  144.7285  140.2897  143.6222 H   0  0  0  0  0  0  0  0  0  0  0  0  # atno 7974 bound_to 7965
  154.4013  140.1527  156.3018 H   0  0  0  0  0  0  0  0  0  0  0  0  # atno 8008 bound_to 7997
  155.8694  140.3449  155.5789 H   0  0  0  0  0  0  0  0  0  0  0  0  # atno 8009 bound_to 7997
  155.7791  140.0841  157.2059 H   0  0  0  0  0  0  0  0  0  0  0  0  # atno 8010 bound_to 7997
  140.2708  143.3345  152.0536 H   0  0  0  0  0  0  0  0  0  0  0  0  # atno 10167 bound_to 10162
  156.1601  130.4150  149.9806 H   0  0  0  0  0  0  0  0  0  0  0  0  # atno 10718 bound_to 10713
  153.8697  135.3057  155.3441 H   0  0  0  0  0  0  0  0  0  0  0  0  # atno 10763 bound_to 10752
  154.7811  135.4835  153.9850 H   0  0  0  0  0  0  0  0  0  0  0  0  # atno 10764 bound_to 10752
  153.1413  135.6824  153.9118 H   0  0  0  0  0  0  0  0  0  0  0  0  # atno 10765 bound_to 10752
  140.3588  134.7131  157.4317 H   0  0  0  0  0  0  0  0  0  0  0  0  # atno 11005 bound_to 11000
  145.7867  139.1911  143.2126 LP  0  0  0  0  0  0  0  0  0  0  0  0  # atno 17320 bound_to 7965
  146.0789  140.7786  142.9651 LP  0  0  0  0  0  0  0  0  0  0  0  0  # atno 17321 bound_to 7965
  139.4989  144.6657  151.6361 LP  0  0  0  0  0  0  0  0  0  0  0  0  # atno 17342 bound_to 10162
  140.5891  143.9812  150.6313 LP  0  0  0  0  0  0  0  0  0  0  0  0  # atno 17343 bound_to 10162
  156.7638  130.9161  151.3642 LP  0  0  0  0  0  0  0  0  0  0  0  0  # atno 17370 bound_to 10713
  157.6726  130.9065  150.0075 LP  0  0  0  0  0  0  0  0  0  0  0  0  # atno 17371 bound_to 10713
  140.0643  134.5951  155.8713 LP  0  0  0  0  0  0  0  0  0  0  0  0  # atno 17394 bound_to 11000
  141.1990  133.6604  156.5822 LP  0  0  0  0  0  0  0  0  0  0  0  0  # atno 17395 bound_to 11000

$$$$
