AV-unprocessed.smi:281|AV-procd|sdf|2114|dock2
  -GOLD-   2262021413D 1   1.00000     0.00000
 Structure written by MMmdl.
 55 59  0  0  0  0  0  0  0  0  1 V2000
  147.5972  137.0493  157.1822 C   0  0  0  0  0  0  0  0  0  0  0  0
  149.0256  136.5024  157.2644 C   0  0  1  0  0  0  0  0  0  0  0  0
  149.1128  135.0442  156.7875 C   0  0  0  0  0  0  0  0  0  0  0  0
  150.5013  134.6113  156.7990 N   0  0  0  0  0  0  0  0  0  0  0  0
  150.6628  133.2917  156.5708 C   0  0  0  0  0  0  0  0  0  0  0  0
  151.3808  132.5924  157.4826 N   0  0  0  0  0  0  0  0  0  0  0  0
  151.5770  131.2813  157.3130 C   0  0  0  0  0  0  0  0  0  0  0  0
  151.1533  130.4944  156.3213 N   0  0  0  0  0  0  0  0  0  0  0  0
  150.4327  131.1980  155.4009 C   0  0  0  0  0  0  0  0  0  0  0  0
  150.1369  132.5891  155.4499 C   0  0  0  0  0  0  0  0  0  0  0  0
  149.3714  132.9501  154.3478 N   0  0  0  0  0  0  0  0  0  0  0  0
  149.2248  131.8362  153.6843 C   0  0  0  0  0  0  0  0  0  0  0  0
  149.8403  130.7356  154.2383 N   0  0  0  0  0  0  0  0  0  0  0  0
  149.8446  129.3785  153.7125 C   0  0  0  0  0  0  0  0  0  0  0  0
  148.4650  128.6783  153.7819 C   0  0  1  0  0  0  0  0  0  0  0  0
  147.9437  128.8166  155.0911 O   0  0  0  0  0  0  0  0  0  0  0  0
  147.4629  129.2624  152.7833 C   0  0  0  0  0  0  0  0  0  0  0  0
  147.3241  128.1684  151.7317 C   0  0  0  0  0  0  0  0  0  0  0  0
  147.4380  126.9851  152.5011 O   0  0  0  0  0  0  0  0  0  0  0  0
  148.5110  127.1822  153.4104 C   0  0  0  0  0  0  0  0  0  0  0  0
  151.3608  135.4599  155.9850 C   0  0  0  0  0  0  0  0  0  0  0  0
  151.2439  136.9420  156.4111 C   0  0  1  0  0  0  0  0  0  0  0  0
  151.9178  137.2481  157.7559 C   0  0  0  0  0  0  0  0  0  0  0  0
  153.1757  138.0196  157.3809 C   0  0  0  0  0  0  0  0  0  0  0  0
  152.7570  138.7509  156.2441 O   0  0  0  0  0  0  0  0  0  0  0  0
  152.0200  137.8527  155.4283 C   0  0  2  0  0  0  0  0  0  0  0  0
  151.1683  138.6265  154.4116 C   0  0  0  0  0  0  0  0  0  0  0  0
  149.8605  137.3191  156.4417 O   0  0  0  0  0  0  0  0  0  0  0  0
  146.9162  136.4639  157.8006 H   0  0  0  0  0  0  0  0  0  0  0  0
  147.2245  137.0263  156.1579 H   0  0  0  0  0  0  0  0  0  0  0  0
  147.5560  138.0824  157.5285 H   0  0  0  0  0  0  0  0  0  0  0  0
  149.3559  136.5636  158.3019 H   0  0  0  0  0  0  0  0  0  0  0  0
  148.5176  134.4001  157.4363 H   0  0  0  0  0  0  0  0  0  0  0  0
  148.7053  134.9555  155.7797 H   0  0  0  0  0  0  0  0  0  0  0  0
  152.1572  130.7924  158.0817 H   0  0  0  0  0  0  0  0  0  0  0  0
  148.6611  131.7893  152.7640 H   0  0  0  0  0  0  0  0  0  0  0  0
  150.1982  129.4132  152.6809 H   0  0  0  0  0  0  0  0  0  0  0  0
  150.5854  128.8020  154.2680 H   0  0  0  0  0  0  0  0  0  0  0  0
  148.4745  128.3032  155.6807 H   0  0  0  0  0  0  0  0  0  0  0  0
  146.4912  129.4252  153.2529 H   0  0  0  0  0  0  0  0  0  0  0  0
  147.7794  130.2132  152.3530 H   0  0  0  0  0  0  0  0  0  0  0  0
  146.3752  128.2142  151.1967 H   0  0  0  0  0  0  0  0  0  0  0  0
  148.1361  128.2168  151.0043 H   0  0  0  0  0  0  0  0  0  0  0  0
  149.4323  126.9360  152.8822 H   0  0  0  0  0  0  0  0  0  0  0  0
  148.4352  126.5143  154.2695 H   0  0  0  0  0  0  0  0  0  0  0  0
  152.3957  135.1229  156.0632 H   0  0  0  0  0  0  0  0  0  0  0  0
  151.0732  135.3622  154.9373 H   0  0  0  0  0  0  0  0  0  0  0  0
  151.2823  137.9001  158.3565 H   0  0  0  0  0  0  0  0  0  0  0  0
  152.1338  136.3600  158.3505 H   0  0  0  0  0  0  0  0  0  0  0  0
  153.5229  138.6757  158.1795 H   0  0  0  0  0  0  0  0  0  0  0  0
  153.9872  137.3422  157.1101 H   0  0  0  0  0  0  0  0  0  0  0  0
  152.7539  137.2566  154.8825 H   0  0  0  0  0  0  0  0  0  0  0  0
  150.5791  137.9456  153.7969 H   0  0  0  0  0  0  0  0  0  0  0  0
  151.8002  139.2136  153.7452 H   0  0  0  0  0  0  0  0  0  0  0  0
  150.4824  139.3149  154.9058 H   0  0  0  0  0  0  0  0  0  0  0  0
  1  2  1  0  0  0  0
  1 29  1  0  0  0  0
  1 30  1  0  0  0  0
  1 31  1  0  0  0  0
  2 28  1  0  0  0  0
  2  3  1  0  0  0  0
  2 32  1  0  0  0  0
  3  4  1  0  0  0  0
  3 33  1  0  0  0  0
  3 34  1  0  0  0  0
  4  5  1  0  0  0  0
  4 21  1  0  0  0  0
  5 10  1  0  0  0  0
  5  6  2  0  0  0  0
  6  7  1  0  0  0  0
  7  8  2  0  0  0  0
  7 35  1  0  0  0  0
  8  9  1  0  0  0  0
  9 13  1  0  0  0  0
  9 10  2  0  0  0  0
 10 11  1  0  0  0  0
 11 12  2  0  0  0  0
 12 13  1  0  0  0  0
 12 36  1  0  0  0  0
 13 14  1  0  0  0  0
 14 15  1  0  0  0  0
 14 37  1  0  0  0  0
 14 38  1  0  0  0  0
 15 20  1  0  0  0  0
 15 16  1  0  0  0  0
 15 17  1  0  0  0  0
 16 39  1  0  0  0  0
 17 18  1  0  0  0  0
 17 40  1  0  0  0  0
 17 41  1  0  0  0  0
 18 19  1  0  0  0  0
 18 42  1  0  0  0  0
 18 43  1  0  0  0  0
 19 20  1  0  0  0  0
 20 44  1  0  0  0  0
 20 45  1  0  0  0  0
 21 22  1  0  0  0  0
 21 46  1  0  0  0  0
 21 47  1  0  0  0  0
 22 26  1  0  0  0  0
 22 23  1  0  0  0  0
 22 28  1  0  0  0  0
 23 24  1  0  0  0  0
 23 48  1  0  0  0  0
 23 49  1  0  0  0  0
 24 25  1  0  0  0  0
 24 50  1  0  0  0  0
 24 51  1  0  0  0  0
 25 26  1  0  0  0  0
 26 27  1  0  0  0  0
 26 52  1  0  0  0  0
 27 53  1  0  0  0  0
 27 54  1  0  0  0  0
 27 55  1  0  0  0  0
M  END
> <s_m_source_file>
AV-unprocessed.smi

> <i_m_source_file_index>
281

> <i_lp_mmshare_version>
43012

> <i_f3d_flags>
0

> <s_epik_input>
W0NIM11bQ0BASF0xT1tDSDJdW0NIMl1bQ0BAXTEyW0NIMl1OKFtDSDJdW0NASF0oTzIpW0NIM10pYyhuW2NIXW4zKWMoYzM0KW5bY0hdbjRbQ0gyXVtDQEBdNShbT0hdKVtDSDJdW0NIMl1PW0NIMl01

> <s_epik_cmdline>
J2VwaWtfcHl0aG9uJywgJy1waCcsICc3LjAnLCAnLXRuJywgJzgnLCAnLW1hJywgJzIwMCcsICctbWV0YWxfYmluZGluZycsICctaW1hZScsICc8aW5maWxlLm1hZT4nLCAnLW9tYWUnLCAnPG91dGZpbGUubWFlPic=

> <r_lp_tautomer_probability>
1

> <r_epik_Ionization_Penalty>
0.00571331

> <r_epik_Ionization_Penalty_Charging>
0

> <r_epik_Ionization_Penalty_Neutral>
0.00571331

> <r_epik_State_Penalty>
0.00399586

> <r_epik_Charging_Adjusted_Penalty>
0.00399586

> <i_epik_Tot_Q>
0

> <i_epik_Tot_abs_Q>
0

> <r_epik_Metal_State_Penalty>
-0

> <b_epik_Metal_Only>
0

> <s_lp_Force_Field>
OPLS_2005

> <r_lp_Energy>
55.7735

> <b_lp_Chiralities_Consistent>
1

> <s_lp_Variant>
AV-unprocessed.smi:281-14

> <Gold.Version>
5.8.1

> <Gold.Id.Protein>
6NUR|6NUR_protein|mol2

> <Gold.PLP.Fitness>
38.7369

> <Gold.PLP.PLP>
-31.1723

> <Gold.PLP.part.hbond>
-1.9811

> <Gold.PLP.part.metal>
0.0000

> <Gold.PLP.part.buried>
-4.3562

> <Gold.PLP.part.nonpolar>
-23.2725

> <Gold.PLP.part.repulsive>
0.1495

> <Gold.PLP.ligand.clash>
0.0000

> <Gold.PLP.ligand.torsion>
0.4237

> <Gold.PLP.Chemscore.Hbond>
1.8450

> <Gold.PLP.Chemscore.CHOScore>
0.9162

> <Gold.PLP.Chemscore.Metal>
0.0000

> <Gold.Chemscore.Hbonds>
donor molecule, donor type, donor heavy atom, donor atom, acceptor molecule, acceptor atom, score
      P1  H  6896  6908       L1     6  1.00
      P1  H  7997  8009       L1    25  0.66
      L1  C    12    36       P1 10747  0.69

> <Gold.PLP.Chemscore.Internal.Correction>
0.1285

> <Gold.Rescore>
     Score         DG    S(hbond)    S(metal)    S(lipo)     H(rot)  DE(clash)    DE(int)     intcor
     13.27     -13.67       1.56        0.00      71.29       2.09       0.03       0.37       ----

> <Gold.Chemscore.Fitness>
13.2694

> <Gold.Chemscore.DG>
-13.6711

> <Gold.Chemscore.ZeroCoef>
-5.4800

> <Gold.Chemscore.Hbond>
1.5591

> <Gold.Chemscore.Metal>
0.0000

> <Gold.Chemscore.Lipo>
71.2921

> <Gold.Chemscore.Internal_Hbond>
0.0000

> <Gold.Chemscore.DEClash>
0.0299

> <Gold.Chemscore.DEInternal>
0.3718

> <Gold.Chemscore.Rot>
2.0927

> <Gold.Chemscore.Internal.Correction>
   9.000000E+99

> <Gold.Chemscore.Hbonds>
donor molecule, donor type, donor heavy atom, donor atom, acceptor molecule, acceptor atom, score
      P1  H  6896  6908       L1     6  0.89
      P1  H  7997  8009       L1    25  0.10

> <Gold.Chemscore.Hbond.Weighted>
-5.2073

> <Gold.Chemscore.Metal.Weighted>
-0.0000

> <Gold.Chemscore.Lipo.Weighted>
-8.3412

> <Gold.Chemscore.Internal_Hbond.Weighted>
0.0000

> <Gold.Chemscore.DEClash.Weighted>
0.0299

> <Gold.Chemscore.DEInternal.Weighted>
0.3718

> <Gold.Chemscore.Rot.Weighted>
5.3573

> <Gold.Chemscore.Internal.Correction.Weighted>
   9.000000E+99

> <Gold.Protein.RotatedTorsions>
[ 6907 6896 6895 6894 ] final   66.23 input  -60.11 | X-H torsion
[ 7974 7965 7964 7962 ] final  -75.04 input  175.53 | X-H torsion
[ 8008 7997 7996 7995 ] final -156.94 input   59.86 | X-H torsion
[ 10167 10162 10161 10158 ] final   27.87 input  -65.29 | X-H torsion
[ 10718 10713 10712 10709 ] final  169.63 input   66.30 | X-H torsion
[ 10763 10752 10751 10750 ] final   40.18 input  -60.55 | X-H torsion
[ 11005 11000 10999 10996 ] final  -11.58 input  -57.11 | X-H torsion

> <Gold.Protein.ActiveResidues>
 VAL166  LYS551  ARG553  GLY616  TRP617  ASP618  TYR619  PRO620  LYS621  CYS622 
 ASP623  PHE694  ASN695  SER759  ASP760  ASP761  ALA762  ILE779  LEU786  VAL792 
 PHE793  MET794  SER795  GLU796  ALA797  LYS798  CYS799  TRP800  GLU811  SER814 

> <Gold.Protein.RotatedAtoms>
  152.4466  134.5482  159.9858 H   0  0  0  0  0  0  0  0  0  0  0  0  # atno 6907 bound_to 6896
  151.5565  133.3404  159.2971 H   0  0  0  0  0  0  0  0  0  0  0  0  # atno 6908 bound_to 6896
  150.8384  134.7699  159.6975 H   0  0  0  0  0  0  0  0  0  0  0  0  # atno 6909 bound_to 6896
  145.6312  140.9337  143.1086 H   0  0  0  0  0  0  0  0  0  0  0  0  # atno 7974 bound_to 7965
  155.7249  140.0794  157.2314 H   0  0  0  0  0  0  0  0  0  0  0  0  # atno 8008 bound_to 7997
  154.4040  140.1606  156.2498 H   0  0  0  0  0  0  0  0  0  0  0  0  # atno 8009 bound_to 7997
  155.9162  140.3400  155.6140 H   0  0  0  0  0  0  0  0  0  0  0  0  # atno 8010 bound_to 7997
  140.4901  144.0480  150.6294 H   0  0  0  0  0  0  0  0  0  0  0  0  # atno 10167 bound_to 10162
  157.0199  131.0229  151.2778 H   0  0  0  0  0  0  0  0  0  0  0  0  # atno 10718 bound_to 10713
  152.9944  135.6199  154.2584 H   0  0  0  0  0  0  0  0  0  0  0  0  # atno 10763 bound_to 10752
  154.2321  135.2792  155.2888 H   0  0  0  0  0  0  0  0  0  0  0  0  # atno 10764 bound_to 10752
  154.5441  135.5752  153.6923 H   0  0  0  0  0  0  0  0  0  0  0  0  # atno 10765 bound_to 10752
  140.7567  133.8548  155.9090 H   0  0  0  0  0  0  0  0  0  0  0  0  # atno 11005 bound_to 11000
  144.7193  139.8087  143.7388 LP  0  0  0  0  0  0  0  0  0  0  0  0  # atno 17320 bound_to 7965
  146.1355  139.4399  143.0142 LP  0  0  0  0  0  0  0  0  0  0  0  0  # atno 17321 bound_to 7965
  140.3747  143.2835  152.0239 LP  0  0  0  0  0  0  0  0  0  0  0  0  # atno 17342 bound_to 10162
  139.4849  144.6203  151.7269 LP  0  0  0  0  0  0  0  0  0  0  0  0  # atno 17343 bound_to 10162
  157.5258  130.8027  149.7860 LP  0  0  0  0  0  0  0  0  0  0  0  0  # atno 17370 bound_to 10713
  156.0106  130.3835  150.2278 LP  0  0  0  0  0  0  0  0  0  0  0  0  # atno 17371 bound_to 10713
  140.9700  134.1543  157.4584 LP  0  0  0  0  0  0  0  0  0  0  0  0  # atno 17394 bound_to 11000
  139.8778  134.9975  156.5851 LP  0  0  0  0  0  0  0  0  0  0  0  0  # atno 17395 bound_to 11000

$$$$
