AV-unprocessed.smi:2144|AV-procd|sdf|8731|dock7
  -GOLD-   2272011503D 1   1.00000     0.00000
 Structure written by MMmdl.
 40 42  0  0  0  0  0  0  0  0  1 V2000
  150.2322  139.5954  153.7138 O   0  0  0  0  0  0  0  0  0  0  0  0
  149.4054  139.9514  154.8036 C   0  0  0  0  0  0  0  0  0  0  0  0
  150.1113  140.7290  155.8787 C   0  0  0  0  0  0  0  0  0  0  0  0
  150.4361  142.0181  155.7526 N   0  0  0  0  0  0  0  0  0  0  0  0
  151.0402  142.3021  156.9613 C   0  0  0  0  0  0  0  0  0  0  0  0
  151.6013  143.5050  157.4473 C   0  0  0  0  0  0  0  0  0  0  0  0
  152.1701  143.5576  158.7368 C   0  0  0  0  0  0  0  0  0  0  0  0
  152.1860  142.4108  159.5568 C   0  0  0  0  0  0  0  0  0  0  0  0
  151.6318  141.2025  159.0920 C   0  0  0  0  0  0  0  0  0  0  0  0
  151.0651  141.1553  157.8040 C   0  0  0  0  0  0  0  0  0  0  0  0
  150.4513  140.1523  157.0589 N   0  0  0  0  0  0  0  0  0  0  0  0
  150.2263  138.7762  157.4825 C   0  0  0  0  0  0  0  0  0  0  0  0
  149.2216  138.6636  158.6482 C   0  0  1  0  0  0  0  0  0  0  0  0
  147.9816  139.2335  158.2781 O   0  0  0  0  0  0  0  0  0  0  0  0
  148.9777  137.2087  159.0745 C   0  0  0  0  0  0  0  0  0  0  0  0
  148.2845  137.2021  160.3153 O   0  0  0  0  0  0  0  0  0  0  0  0
  147.9270  135.9865  160.8592 C   0  0  0  0  0  0  0  0  0  0  0  0
  148.0839  134.7420  160.1971 C   0  0  0  0  0  0  0  0  0  0  0  0
  147.6876  133.5450  160.8246 C   0  0  0  0  0  0  0  0  0  0  0  0
  147.1317  133.5747  162.1168 C   0  0  0  0  0  0  0  0  0  0  0  0
  146.9736  134.8043  162.7820 C   0  0  0  0  0  0  0  0  0  0  0  0
  147.3697  136.0020  162.1557 C   0  0  0  0  0  0  0  0  0  0  0  0
  147.2134  137.1794  162.8072 F   0  0  0  0  0  0  0  0  0  0  0  0
  149.7345  139.6878  152.9161 H   0  0  0  0  0  0  0  0  0  0  0  0
  148.5717  140.5435  154.4257 H   0  0  0  0  0  0  0  0  0  0  0  0
  148.9914  139.0382  155.2297 H   0  0  0  0  0  0  0  0  0  0  0  0
  151.5940  144.3888  156.8269 H   0  0  0  0  0  0  0  0  0  0  0  0
  152.5962  144.4820  159.0983 H   0  0  0  0  0  0  0  0  0  0  0  0
  152.6242  142.4593  160.5428 H   0  0  0  0  0  0  0  0  0  0  0  0
  151.6439  140.3227  159.7177 H   0  0  0  0  0  0  0  0  0  0  0  0
  149.8736  138.2032  156.6242 H   0  0  0  0  0  0  0  0  0  0  0  0
  151.1835  138.3349  157.7609 H   0  0  0  0  0  0  0  0  0  0  0  0
  149.5901  139.2231  159.5080 H   0  0  0  0  0  0  0  0  0  0  0  0
  147.5970  138.7017  157.5984 H   0  0  0  0  0  0  0  0  0  0  0  0
  148.3731  136.7038  158.3188 H   0  0  0  0  0  0  0  0  0  0  0  0
  149.9275  136.6778  159.1597 H   0  0  0  0  0  0  0  0  0  0  0  0
  148.5048  134.6777  159.2053 H   0  0  0  0  0  0  0  0  0  0  0  0
  147.8098  132.6021  160.3122 H   0  0  0  0  0  0  0  0  0  0  0  0
  146.8270  132.6562  162.5963 H   0  0  0  0  0  0  0  0  0  0  0  0
  146.5476  134.8293  163.7741 H   0  0  0  0  0  0  0  0  0  0  0  0
  1  2  1  0  0  0  0
  1 24  1  0  0  0  0
  2  3  1  0  0  0  0
  2 25  1  0  0  0  0
  2 26  1  0  0  0  0
  3 11  1  0  0  0  0
  3  4  2  0  0  0  0
  4  5  1  0  0  0  0
  5 10  2  0  0  0  0
  5  6  1  0  0  0  0
  6  7  2  0  0  0  0
  6 27  1  0  0  0  0
  7  8  1  0  0  0  0
  7 28  1  0  0  0  0
  8  9  2  0  0  0  0
  8 29  1  0  0  0  0
  9 10  1  0  0  0  0
  9 30  1  0  0  0  0
 10 11  1  0  0  0  0
 11 12  1  0  0  0  0
 12 13  1  0  0  0  0
 12 31  1  0  0  0  0
 12 32  1  0  0  0  0
 13 14  1  0  0  0  0
 13 15  1  0  0  0  0
 13 33  1  0  0  0  0
 14 34  1  0  0  0  0
 15 16  1  0  0  0  0
 15 35  1  0  0  0  0
 15 36  1  0  0  0  0
 16 17  1  0  0  0  0
 17 22  1  0  0  0  0
 17 18  2  0  0  0  0
 18 19  1  0  0  0  0
 18 37  1  0  0  0  0
 19 20  2  0  0  0  0
 19 38  1  0  0  0  0
 20 21  1  0  0  0  0
 20 39  1  0  0  0  0
 21 22  2  0  0  0  0
 21 40  1  0  0  0  0
 22 23  1  0  0  0  0
M  END
> <s_m_source_file>
AV-unprocessed.smi

> <i_m_source_file_index>
2144

> <i_lp_mmshare_version>
43012

> <i_f3d_flags>
0

> <s_epik_input>
W2NIXTFbY0hdW2NIXVtjSF1jKGMxMiluKGMobjIpW0NIMl1bT0hdKVtDSDJdW0NASF0oW09IXSlbQ0gyXU9jM1tjSF1bY0hdW2NIXVtjSF1jM0Y=

> <s_epik_cmdline>
J2VwaWtfcHl0aG9uJywgJy1waCcsICc3LjAnLCAnLXRuJywgJzgnLCAnLW1hJywgJzIwMCcsICctbWV0YWxfYmluZGluZycsICctaW1hZScsICc8aW5maWxlLm1hZT4nLCAnLW9tYWUnLCAnPG91dGZpbGUubWFlPic=

> <r_lp_tautomer_probability>
1

> <r_epik_Ionization_Penalty>
0.0547315

> <r_epik_Ionization_Penalty_Charging>
0

> <r_epik_Ionization_Penalty_Neutral>
0.0547315

> <r_epik_State_Penalty>
0.047032

> <r_epik_Charging_Adjusted_Penalty>
0.047032

> <i_epik_Tot_Q>
0

> <i_epik_Tot_abs_Q>
0

> <r_epik_Metal_State_Penalty>
4.89471e-05

> <b_epik_Metal_Only>
0

> <s_lp_Force_Field>
OPLS_2005

> <r_lp_Energy>
15.6378

> <b_lp_Chiralities_Consistent>
1

> <s_lp_Variant>
AV-unprocessed.smi:2144-2

> <Gold.Version>
5.8.1

> <Gold.Id.Protein>
6NUR|6NUR_protein|mol2

> <Gold.PLP.Fitness>
56.4737

> <Gold.PLP.PLP>
-48.2483

> <Gold.PLP.part.hbond>
-5.0000

> <Gold.PLP.part.metal>
0.0000

> <Gold.PLP.part.buried>
-2.0179

> <Gold.PLP.part.nonpolar>
-41.1002

> <Gold.PLP.part.repulsive>
0.2269

> <Gold.PLP.ligand.clash>
0.0000

> <Gold.PLP.ligand.torsion>
0.3475

> <Gold.PLP.Chemscore.Hbond>
2.9549

> <Gold.PLP.Chemscore.CHOScore>
0.0000

> <Gold.PLP.Chemscore.Metal>
0.0000

> <Gold.Chemscore.Hbonds>
donor molecule, donor type, donor heavy atom, donor atom, acceptor molecule, acceptor atom, score
      L1  H     1    24       P1  7957  1.00
      P1  H  6931  6943       L1    16  0.68
      P1  H  6934  6947       L1    16  0.35
      P1  H  7989  7998       L1     1  0.91

> <Gold.PLP.Chemscore.Internal.Correction>
0.0557

> <Gold.Rescore>
     Score         DG    S(hbond)    S(metal)    S(lipo)     H(rot)  DE(clash)    DE(int)     intcor
     17.97     -18.43       2.28        0.00     115.93       3.22       0.30       0.16       ----

> <Gold.Chemscore.Fitness>
17.9704

> <Gold.Chemscore.DG>
-18.4304

> <Gold.Chemscore.ZeroCoef>
-5.4800

> <Gold.Chemscore.Hbond>
2.2842

> <Gold.Chemscore.Metal>
0.0000

> <Gold.Chemscore.Lipo>
115.9273

> <Gold.Chemscore.Internal_Hbond>
0.0000

> <Gold.Chemscore.DEClash>
0.2970

> <Gold.Chemscore.DEInternal>
0.1629

> <Gold.Chemscore.Rot>
3.2196

> <Gold.Chemscore.Internal.Correction>
   9.000000E+99

> <Gold.Chemscore.Hbonds>
donor molecule, donor type, donor heavy atom, donor atom, acceptor molecule, acceptor atom, score
      L1  H     1    24       P1  7957  0.95
      P1  H  6931  6943       L1    16  0.30
      P1  H  6934  6947       L1    16  0.33
      P1  H  7989  7998       L1     1  0.24

> <Gold.Chemscore.Hbond.Weighted>
-7.6291

> <Gold.Chemscore.Metal.Weighted>
-0.0000

> <Gold.Chemscore.Lipo.Weighted>
-13.5635

> <Gold.Chemscore.Internal_Hbond.Weighted>
0.0000

> <Gold.Chemscore.DEClash.Weighted>
0.2970

> <Gold.Chemscore.DEInternal.Weighted>
0.1629

> <Gold.Chemscore.Rot.Weighted>
8.2422

> <Gold.Chemscore.Internal.Correction.Weighted>
   9.000000E+99

> <Gold.Protein.RotatedTorsions>
[ 6907 6896 6895 6894 ] final -167.91 input  -60.11 | X-H torsion
[ 7974 7965 7964 7962 ] final  154.83 input  175.53 | X-H torsion
[ 8008 7997 7996 7995 ] final -153.43 input   59.86 | X-H torsion
[ 10167 10162 10161 10158 ] final   71.28 input  -65.29 | X-H torsion
[ 10718 10713 10712 10709 ] final   68.72 input   66.30 | X-H torsion
[ 10763 10752 10751 10750 ] final  154.83 input  -60.55 | X-H torsion
[ 11005 11000 10999 10996 ] final  117.72 input  -57.11 | X-H torsion

> <Gold.Protein.ActiveResidues>
 VAL166  LYS551  ARG553  GLY616  TRP617  ASP618  TYR619  PRO620  LYS621  CYS622 
 ASP623  PHE694  ASN695  SER759  ASP760  ASP761  ALA762  ILE779  LEU786  VAL792 
 PHE793  MET794  SER795  GLU796  ALA797  LYS798  CYS799  TRP800  GLU811  SER814 

> <Gold.Protein.RotatedAtoms>
  151.4672  133.3578  159.2817 H   0  0  0  0  0  0  0  0  0  0  0  0  # atno 6907 bound_to 6896
  150.8985  134.8398  159.7354 H   0  0  0  0  0  0  0  0  0  0  0  0  # atno 6908 bound_to 6896
  152.4866  134.4589  159.9651 H   0  0  0  0  0  0  0  0  0  0  0  0  # atno 6909 bound_to 6896
  144.8064  139.6986  143.6160 H   0  0  0  0  0  0  0  0  0  0  0  0  # atno 7974 bound_to 7965
  155.6707  140.0733  157.2521 H   0  0  0  0  0  0  0  0  0  0  0  0  # atno 8008 bound_to 7997
  154.4124  140.1699  156.1927 H   0  0  0  0  0  0  0  0  0  0  0  0  # atno 8009 bound_to 7997
  155.9619  140.3369  155.6501 H   0  0  0  0  0  0  0  0  0  0  0  0  # atno 8010 bound_to 7997
  140.0478  144.5337  150.7386 H   0  0  0  0  0  0  0  0  0  0  0  0  # atno 10167 bound_to 10162
  157.6305  130.9388  150.0416 H   0  0  0  0  0  0  0  0  0  0  0  0  # atno 10718 bound_to 10713
  154.1587  135.2811  155.3115 H   0  0  0  0  0  0  0  0  0  0  0  0  # atno 10763 bound_to 10752
  154.6163  135.5482  153.7530 H   0  0  0  0  0  0  0  0  0  0  0  0  # atno 10764 bound_to 10752
  153.0199  135.6428  154.1729 H   0  0  0  0  0  0  0  0  0  0  0  0  # atno 10765 bound_to 10752
  139.9084  134.9613  156.7394 H   0  0  0  0  0  0  0  0  0  0  0  0  # atno 11005 bound_to 11000
  146.2355  139.5897  142.9526 LP  0  0  0  0  0  0  0  0  0  0  0  0  # atno 17320 bound_to 7965
  145.5429  141.0419  143.2320 LP  0  0  0  0  0  0  0  0  0  0  0  0  # atno 17321 bound_to 7965
  140.7231  143.2608  151.4212 LP  0  0  0  0  0  0  0  0  0  0  0  0  # atno 17342 bound_to 10162
  139.5973  144.1371  152.2158 LP  0  0  0  0  0  0  0  0  0  0  0  0  # atno 17343 bound_to 10162
  156.1506  130.3642  149.9444 LP  0  0  0  0  0  0  0  0  0  0  0  0  # atno 17370 bound_to 10713
  156.7465  130.9099  151.3635 LP  0  0  0  0  0  0  0  0  0  0  0  0  # atno 17371 bound_to 10713
  140.6862  133.9431  155.7939 LP  0  0  0  0  0  0  0  0  0  0  0  0  # atno 17394 bound_to 11000
  141.0475  134.0533  157.3826 LP  0  0  0  0  0  0  0  0  0  0  0  0  # atno 17395 bound_to 11000

$$$$
