AV-unprocessed.smi:252|AV-procd|sdf|1938|dock7
  -GOLD-   2262021 63D 1   1.00000     0.00000
 Structure written by MMmdl.
 56 59  0  0  0  0  0  0  0  0  1 V2000
  145.4332  145.2368  159.9168 C   0  0  0  0  0  0  0  0  0  0  0  0
  146.2034  144.0446  159.3271 C   0  0  0  0  0  0  0  0  0  0  0  0
  147.5976  143.8487  159.9320 C   0  0  0  0  0  0  0  0  0  0  0  0
  147.7384  143.5055  161.1064 O   0  0  0  0  0  0  0  0  0  0  0  0
  148.6285  144.0743  159.1037 N   0  0  0  0  0  0  0  0  0  0  0  0
  150.0386  143.9388  159.4541 C   0  0  2  0  0  0  0  0  0  0  0  0
  150.7982  145.2541  159.1887 C   0  0  0  0  0  0  0  0  0  0  0  0
  152.2994  145.0699  159.4573 C   0  0  0  0  0  0  0  0  0  0  0  0
  152.8639  143.8909  158.6486 C   0  0  0  0  0  0  0  0  0  0  0  0
  152.0928  142.6727  158.9008 N   0  0  0  0  0  0  0  0  0  0  0  0
  152.6427  141.4884  158.5317 C   0  0  0  0  0  0  0  0  0  0  0  0
  152.3771  140.9695  157.3028 N   0  0  0  0  0  0  0  0  0  0  0  0
  152.9093  139.8005  156.9344 C   0  0  0  0  0  0  0  0  0  0  0  0
  153.7207  138.9983  157.6258 N   0  0  0  0  0  0  0  0  0  0  0  0
  153.9941  139.5134  158.8585 C   0  0  0  0  0  0  0  0  0  0  0  0
  153.5044  140.7425  159.3848 C   0  0  0  0  0  0  0  0  0  0  0  0
  154.0159  140.9472  160.6610 N   0  0  0  0  0  0  0  0  0  0  0  0
  154.7598  139.8977  160.8782 C   0  0  0  0  0  0  0  0  0  0  0  0
  154.7938  138.9785  159.8539 N   0  0  0  0  0  0  0  0  0  0  0  0
  155.5428  137.7311  159.8307 C   0  0  0  0  0  0  0  0  0  0  0  0
  154.6699  136.4525  159.9560 C   0  0  2  0  0  0  0  0  0  0  0  0
  153.9573  136.2759  158.7441 O   0  0  0  0  0  0  0  0  0  0  0  0
  153.6721  136.4909  161.1092 C   0  0  0  0  0  0  0  0  0  0  0  0
  154.5117  135.9993  162.2770 C   0  0  0  0  0  0  0  0  0  0  0  0
  155.2868  134.9555  161.7079 O   0  0  0  0  0  0  0  0  0  0  0  0
  155.5399  135.2225  160.3274 C   0  0  1  0  0  0  0  0  0  0  0  0
  155.2320  133.9246  159.5613 C   0  0  0  0  0  0  0  0  0  0  0  0
  150.6573  142.7841  158.6452 C   0  0  0  0  0  0  0  0  0  0  0  0
  144.4539  145.3310  159.4474 H   0  0  0  0  0  0  0  0  0  0  0  0
  145.9661  146.1748  159.7567 H   0  0  0  0  0  0  0  0  0  0  0  0
  145.2728  145.1176  160.9891 H   0  0  0  0  0  0  0  0  0  0  0  0
  145.6287  143.1301  159.4774 H   0  0  0  0  0  0  0  0  0  0  0  0
  146.3063  144.1772  158.2495 H   0  0  0  0  0  0  0  0  0  0  0  0
  148.4210  144.3534  158.1558 H   0  0  0  0  0  0  0  0  0  0  0  0
  150.1210  143.6888  160.5139 H   0  0  0  0  0  0  0  0  0  0  0  0
  150.6499  145.5669  158.1541 H   0  0  0  0  0  0  0  0  0  0  0  0
  150.4067  146.0552  159.8166 H   0  0  0  0  0  0  0  0  0  0  0  0
  152.8395  145.9842  159.2108 H   0  0  0  0  0  0  0  0  0  0  0  0
  152.4595  144.8917  160.5215 H   0  0  0  0  0  0  0  0  0  0  0  0
  152.8338  144.1225  157.5829 H   0  0  0  0  0  0  0  0  0  0  0  0
  153.9098  143.7361  158.9170 H   0  0  0  0  0  0  0  0  0  0  0  0
  152.6462  139.4587  155.9443 H   0  0  0  0  0  0  0  0  0  0  0  0
  155.3050  139.7611  161.8009 H   0  0  0  0  0  0  0  0  0  0  0  0
  156.1192  137.6987  158.9049 H   0  0  0  0  0  0  0  0  0  0  0  0
  156.2769  137.7694  160.6364 H   0  0  0  0  0  0  0  0  0  0  0  0
  154.0483  137.0606  158.2256 H   0  0  0  0  0  0  0  0  0  0  0  0
  153.2149  137.4629  161.2874 H   0  0  0  0  0  0  0  0  0  0  0  0
  152.8629  135.7793  160.9359 H   0  0  0  0  0  0  0  0  0  0  0  0
  155.1706  136.7865  162.6453 H   0  0  0  0  0  0  0  0  0  0  0  0
  153.9070  135.6403  163.1101 H   0  0  0  0  0  0  0  0  0  0  0  0
  156.5993  135.4538  160.2073 H   0  0  0  0  0  0  0  0  0  0  0  0
  155.4394  134.0323  158.4962 H   0  0  0  0  0  0  0  0  0  0  0  0
  154.1875  133.6330  159.6762 H   0  0  0  0  0  0  0  0  0  0  0  0
  155.8462  133.1036  159.9316 H   0  0  0  0  0  0  0  0  0  0  0  0
  150.1381  141.8564  158.8848 H   0  0  0  0  0  0  0  0  0  0  0  0
  150.5110  142.9547  157.5774 H   0  0  0  0  0  0  0  0  0  0  0  0
  1  2  1  0  0  0  0
  1 29  1  0  0  0  0
  1 30  1  0  0  0  0
  1 31  1  0  0  0  0
  2  3  1  0  0  0  0
  2 32  1  0  0  0  0
  2 33  1  0  0  0  0
  3  4  2  0  0  0  0
  3  5  1  0  0  0  0
  5  6  1  0  0  0  0
  5 34  1  0  0  0  0
  6 28  1  0  0  0  0
  6  7  1  0  0  0  0
  6 35  1  0  0  0  0
  7  8  1  0  0  0  0
  7 36  1  0  0  0  0
  7 37  1  0  0  0  0
  8  9  1  0  0  0  0
  8 38  1  0  0  0  0
  8 39  1  0  0  0  0
  9 10  1  0  0  0  0
  9 40  1  0  0  0  0
  9 41  1  0  0  0  0
 10 11  1  0  0  0  0
 10 28  1  0  0  0  0
 11 16  1  0  0  0  0
 11 12  2  0  0  0  0
 12 13  1  0  0  0  0
 13 14  2  0  0  0  0
 13 42  1  0  0  0  0
 14 15  1  0  0  0  0
 15 19  1  0  0  0  0
 15 16  2  0  0  0  0
 16 17  1  0  0  0  0
 17 18  2  0  0  0  0
 18 19  1  0  0  0  0
 18 43  1  0  0  0  0
 19 20  1  0  0  0  0
 20 21  1  0  0  0  0
 20 44  1  0  0  0  0
 20 45  1  0  0  0  0
 21 26  1  0  0  0  0
 21 22  1  0  0  0  0
 21 23  1  0  0  0  0
 22 46  1  0  0  0  0
 23 24  1  0  0  0  0
 23 47  1  0  0  0  0
 23 48  1  0  0  0  0
 24 25  1  0  0  0  0
 24 49  1  0  0  0  0
 24 50  1  0  0  0  0
 25 26  1  0  0  0  0
 26 27  1  0  0  0  0
 26 51  1  0  0  0  0
 27 52  1  0  0  0  0
 27 53  1  0  0  0  0
 27 54  1  0  0  0  0
 28 55  1  0  0  0  0
 28 56  1  0  0  0  0
M  END
> <s_m_source_file>
AV-unprocessed.smi

> <i_m_source_file_index>
252

> <i_lp_mmshare_version>
43012

> <i_f3d_flags>
0

> <s_epik_input>
W0NIM11bQ0gyXUMoPU8pW05IXVtDQEBIXTFbQ0gyXVtDSDJdW0NIMl1OKFtDSDJdMSljKG5bY0hdbjIpYyhjMjMpbltjSF1uM1tDSDJdW0NAQF00KFtPSF0pW0NIMl1bQ0gyXU9bQ0BIXTRbQ0gzXQ==

> <s_epik_cmdline>
J2VwaWtfcHl0aG9uJywgJy1waCcsICc3LjAnLCAnLXRuJywgJzgnLCAnLW1hJywgJzIwMCcsICctbWV0YWxfYmluZGluZycsICctaW1hZScsICc8aW5maWxlLm1hZT4nLCAnLW9tYWUnLCAnPG91dGZpbGUubWFlPic=

> <r_lp_tautomer_probability>
1

> <r_epik_Ionization_Penalty>
0.00182575

> <r_epik_Ionization_Penalty_Charging>
0

> <r_epik_Ionization_Penalty_Neutral>
0.00182575

> <r_epik_State_Penalty>
0.00104524

> <r_epik_Charging_Adjusted_Penalty>
0.00104524

> <i_epik_Tot_Q>
0

> <i_epik_Tot_abs_Q>
0

> <r_epik_Metal_State_Penalty>
-0

> <b_epik_Metal_Only>
0

> <s_lp_Force_Field>
OPLS_2005

> <r_lp_Energy>
36.3421

> <b_lp_Chiralities_Consistent>
1

> <s_lp_Variant>
AV-unprocessed.smi:252-3

> <Gold.Version>
5.8.1

> <Gold.Id.Protein>
6NUR|6NUR_protein|mol2

> <Gold.PLP.Fitness>
53.0099

> <Gold.PLP.PLP>
-46.7478

> <Gold.PLP.part.hbond>
-3.0000

> <Gold.PLP.part.metal>
0.0000

> <Gold.PLP.part.buried>
-7.6380

> <Gold.PLP.part.nonpolar>
-36.9420

> <Gold.PLP.part.repulsive>
0.3229

> <Gold.PLP.ligand.clash>
0.0000

> <Gold.PLP.ligand.torsion>
0.8464

> <Gold.PLP.Chemscore.Hbond>
2.5120

> <Gold.PLP.Chemscore.CHOScore>
0.0000

> <Gold.PLP.Chemscore.Metal>
0.0000

> <Gold.Chemscore.Hbonds>
donor molecule, donor type, donor heavy atom, donor atom, acceptor molecule, acceptor atom, score
      L1  H     5    34       P1  8029  0.75
      P1  H  6933  6944       L1     4  0.70

> <Gold.PLP.Chemscore.Internal.Correction>
0.4189

> <Gold.Rescore>
     Score         DG    S(hbond)    S(metal)    S(lipo)     H(rot)  DE(clash)    DE(int)     intcor
     18.58     -19.73       2.71        0.00     103.55       2.70       0.01       1.15       ----

> <Gold.Chemscore.Fitness>
18.5816

> <Gold.Chemscore.DG>
-19.7326

> <Gold.Chemscore.ZeroCoef>
-5.4800

> <Gold.Chemscore.Hbond>
2.7125

> <Gold.Chemscore.Metal>
0.0000

> <Gold.Chemscore.Lipo>
103.5488

> <Gold.Chemscore.Internal_Hbond>
0.0000

> <Gold.Chemscore.DEClash>
0.0051

> <Gold.Chemscore.DEInternal>
1.1458

> <Gold.Chemscore.Rot>
2.7041

> <Gold.Chemscore.Internal.Correction>
   9.000000E+99

> <Gold.Chemscore.Hbonds>
donor molecule, donor type, donor heavy atom, donor atom, acceptor molecule, acceptor atom, score
      L1  H     5    34       P1  8029  0.22
      P1  H  6933  6944       L1     4  0.70

> <Gold.Chemscore.Hbond.Weighted>
-9.0598

> <Gold.Chemscore.Metal.Weighted>
-0.0000

> <Gold.Chemscore.Lipo.Weighted>
-12.1152

> <Gold.Chemscore.Internal_Hbond.Weighted>
0.0000

> <Gold.Chemscore.DEClash.Weighted>
0.0051

> <Gold.Chemscore.DEInternal.Weighted>
1.1458

> <Gold.Chemscore.Rot.Weighted>
6.9225

> <Gold.Chemscore.Internal.Correction.Weighted>
   9.000000E+99

> <Gold.Protein.RotatedTorsions>
[ 6907 6896 6895 6894 ] final  161.18 input  -60.11 | X-H torsion
[ 7974 7965 7964 7962 ] final  -55.89 input  175.53 | X-H torsion
[ 8008 7997 7996 7995 ] final   90.26 input   59.86 | X-H torsion
[ 10167 10162 10161 10158 ] final   23.38 input  -65.29 | X-H torsion
[ 10718 10713 10712 10709 ] final  128.17 input   66.30 | X-H torsion
[ 10763 10752 10751 10750 ] final  142.92 input  -60.55 | X-H torsion
[ 11005 11000 10999 10996 ] final -113.21 input  -57.11 | X-H torsion

> <Gold.Protein.ActiveResidues>
 VAL166  LYS551  ARG553  GLY616  TRP617  ASP618  TYR619  PRO620  LYS621  CYS622 
 ASP623  PHE694  ASN695  SER759  ASP760  ASP761  ALA762  ILE779  LEU786  VAL792 
 PHE793  MET794  SER795  GLU796  ALA797  LYS798  CYS799  TRP800  GLU811  SER814 

> <Gold.Protein.RotatedAtoms>
  151.9595  133.3691  159.4029 H   0  0  0  0  0  0  0  0  0  0  0  0  # atno 6907 bound_to 6896
  150.6966  134.4255  159.5234 H   0  0  0  0  0  0  0  0  0  0  0  0  # atno 6908 bound_to 6896
  152.1942  134.8645  160.0565 H   0  0  0  0  0  0  0  0  0  0  0  0  # atno 6909 bound_to 6896
  145.8690  140.8230  142.9898 H   0  0  0  0  0  0  0  0  0  0  0  0  # atno 7974 bound_to 7965
  156.0098  140.3351  155.6929 H   0  0  0  0  0  0  0  0  0  0  0  0  # atno 8008 bound_to 7997
  155.6174  140.0671  157.2706 H   0  0  0  0  0  0  0  0  0  0  0  0  # atno 8009 bound_to 7997
  154.4277  140.1783  156.1323 H   0  0  0  0  0  0  0  0  0  0  0  0  # atno 8010 bound_to 7997
  140.5274  143.9900  150.6447 H   0  0  0  0  0  0  0  0  0  0  0  0  # atno 10167 bound_to 10162
  157.5268  131.1098  150.9070 H   0  0  0  0  0  0  0  0  0  0  0  0  # atno 10718 bound_to 10713
  153.9638  135.2957  155.3432 H   0  0  0  0  0  0  0  0  0  0  0  0  # atno 10763 bound_to 10752
  154.7360  135.5046  153.9045 H   0  0  0  0  0  0  0  0  0  0  0  0  # atno 10764 bound_to 10752
  153.0933  135.6714  153.9922 H   0  0  0  0  0  0  0  0  0  0  0  0  # atno 10765 bound_to 10752
  141.0628  133.9508  157.2635 H   0  0  0  0  0  0  0  0  0  0  0  0  # atno 11005 bound_to 11000
  144.6726  140.1210  143.7450 LP  0  0  0  0  0  0  0  0  0  0  0  0  # atno 17320 bound_to 7965
  145.9159  139.2516  143.1410 LP  0  0  0  0  0  0  0  0  0  0  0  0  # atno 17321 bound_to 7965
  140.3266  143.3104  152.0730 LP  0  0  0  0  0  0  0  0  0  0  0  0  # atno 17342 bound_to 10162
  139.4942  144.6538  151.6618 LP  0  0  0  0  0  0  0  0  0  0  0  0  # atno 17343 bound_to 10162
  156.9663  130.5474  149.5288 LP  0  0  0  0  0  0  0  0  0  0  0  0  # atno 17370 bound_to 10713
  156.0393  130.5477  150.8731 LP  0  0  0  0  0  0  0  0  0  0  0  0  # atno 17371 bound_to 10713
  139.9448  135.0186  156.8819 LP  0  0  0  0  0  0  0  0  0  0  0  0  # atno 17394 bound_to 11000
  140.5834  134.0330  155.7472 LP  0  0  0  0  0  0  0  0  0  0  0  0  # atno 17395 bound_to 11000

$$$$
