AV-unprocessed.smi:1196|AV-procd|sdf|5007|dock7
  -GOLD-   22720 4 23D 1   1.00000     0.00000
 Structure written by MMmdl.
 36 37  0  0  0  0  0  0  0  0  2 V2000
  146.1663  133.3116  154.1476 C   0  0  0  0  0  0  0  0  0  0  0  0
  147.3677  133.1175  153.2089 C   0  0  1  0  0  0  0  0  0  0  0  0
  147.0255  133.5332  151.7647 C   0  0  0  0  0  0  0  0  0  0  0  0
  145.8358  132.8676  151.2631 N   0  0  0  0  0  0  0  0  0  0  0  0
  145.7237  131.5969  150.7398 C   0  0  0  0  0  0  0  0  0  0  0  0
  144.4153  131.4131  150.3955 C   0  0  0  0  0  0  0  0  0  0  0  0
  143.7965  132.6443  150.7501 C   0  0  0  0  0  0  0  0  0  0  0  0
  144.6486  133.5124  151.2708 N   0  0  0  0  0  0  0  0  0  0  0  0
  148.5097  133.8874  153.6970 N   0  0  0  0  0  0  0  0  0  0  0  0
  149.1111  133.7239  154.8851 C   0  0  0  0  0  0  0  0  0  0  0  0
  148.7496  132.8923  155.7178 O   0  0  0  0  0  0  0  0  0  0  0  0
  150.3077  134.6335  155.1717 C   0  0  0  0  0  0  0  0  0  0  0  0
  149.9173  136.1230  155.1967 C   0  0  0  0  0  0  0  0  0  0  0  0
  151.1076  137.0625  154.9204 C   0  0  1  0  0  0  0  0  0  0  0  0
  150.6555  138.3861  154.5490 N   0  0  0  0  0  0  0  0  0  0  0  0
  151.1300  139.3126  155.3792 C   0  0  0  0  0  0  0  0  0  0  0  0
  150.8789  140.5061  155.2278 O   0  0  0  0  0  0  0  0  0  0  0  0
  151.8744  138.7355  156.3420 N   0  5  0  0  0  0  0  0  0  0  0  0
  151.9224  137.3967  156.1697 C   0  0  0  0  0  0  0  0  0  0  0  0
  152.4921  136.5300  156.8306 O   0  0  0  0  0  0  0  0  0  0  0  0
  145.3077  132.7307  153.8099 H   0  0  0  0  0  0  0  0  0  0  0  0
  145.8637  134.3583  154.1932 H   0  0  0  0  0  0  0  0  0  0  0  0
  146.4003  132.9882  155.1623 H   0  0  0  0  0  0  0  0  0  0  0  0
  147.6256  132.0566  153.2027 H   0  0  0  0  0  0  0  0  0  0  0  0
  146.8483  134.6086  151.7187 H   0  0  0  0  0  0  0  0  0  0  0  0
  147.8611  133.3285  151.0931 H   0  0  0  0  0  0  0  0  0  0  0  0
  146.5751  130.9376  150.6561 H   0  0  0  0  0  0  0  0  0  0  0  0
  143.9684  130.5337  149.9561 H   0  0  0  0  0  0  0  0  0  0  0  0
  142.7604  132.9310  150.6463 H   0  0  0  0  0  0  0  0  0  0  0  0
  148.8824  134.5894  153.0737 H   0  0  0  0  0  0  0  0  0  0  0  0
  150.7346  134.3454  156.1328 H   0  0  0  0  0  0  0  0  0  0  0  0
  151.0835  134.4634  154.4236 H   0  0  0  0  0  0  0  0  0  0  0  0
  149.1206  136.3096  154.4740 H   0  0  0  0  0  0  0  0  0  0  0  0
  149.5004  136.3652  156.1757 H   0  0  0  0  0  0  0  0  0  0  0  0
  151.7648  136.6577  154.1498 H   0  0  0  0  0  0  0  0  0  0  0  0
  150.0735  138.5728  153.7462 H   0  0  0  0  0  0  0  0  0  0  0  0
  1  2  1  0  0  0  0
  1 21  1  0  0  0  0
  1 22  1  0  0  0  0
  1 23  1  0  0  0  0
  2  3  1  0  0  0  0
  2  9  1  0  0  0  0
  2 24  1  0  0  0  0
  3  4  1  0  0  0  0
  3 25  1  0  0  0  0
  3 26  1  0  0  0  0
  4  8  1  0  0  0  0
  4  5  1  0  0  0  0
  5  6  2  0  0  0  0
  5 27  1  0  0  0  0
  6  7  1  0  0  0  0
  6 28  1  0  0  0  0
  7  8  2  0  0  0  0
  7 29  1  0  0  0  0
  9 10  1  0  0  0  0
  9 30  1  0  0  0  0
 10 11  2  0  0  0  0
 10 12  1  0  0  0  0
 12 13  1  0  0  0  0
 12 31  1  0  0  0  0
 12 32  1  0  0  0  0
 13 14  1  0  0  0  0
 13 33  1  0  0  0  0
 13 34  1  0  0  0  0
 14 19  1  0  0  0  0
 14 15  1  0  0  0  0
 14 35  1  0  0  0  0
 15 16  1  0  0  0  0
 15 36  1  0  0  0  0
 16 17  2  0  0  0  0
 16 18  1  0  0  0  0
 18 19  1  0  0  0  0
 19 20  2  0  0  0  0
M  CHG  1  18  -1
M  END
> <s_m_source_file>
AV-unprocessed.smi

> <i_m_source_file_index>
1196

> <i_lp_mmshare_version>
43012

> <i_f3d_flags>
0

> <s_epik_input>
bjFbY0hdW2NIXVtjSF1uMVtDSDJdW0NAQEhdKFtDSDNdKVtOSF1DKD1PKVtDSDJdW0NIMl1bQ0BASF0yW05IXUMoPU8pW05IXUMyPU8=

> <s_epik_cmdline>
J2VwaWtfcHl0aG9uJywgJy1waCcsICc3LjAnLCAnLXRuJywgJzgnLCAnLW1hJywgJzIwMCcsICctbWV0YWxfYmluZGluZycsICctaW1hZScsICc8aW5maWxlLm1hZT4nLCAnLW9tYWUnLCAnPG91dGZpbGUubWFlPic=

> <r_lp_tautomer_probability>
1

> <r_epik_Ionization_Penalty>
2.57056

> <r_epik_Ionization_Penalty_Charging>
2.57023

> <r_epik_Ionization_Penalty_Neutral>
0.000331301

> <r_epik_State_Penalty>
2.56828

> <r_epik_Charging_Adjusted_Penalty>
5.13851

> <i_epik_Tot_Q>
-1

> <i_epik_Tot_abs_Q>
1

> <r_epik_Metal_State_Penalty>
0.444883

> <b_epik_Metal_Only>
1

> <s_lp_Force_Field>
OPLS_2005

> <r_lp_Energy>
6.594

> <b_lp_Chiralities_Consistent>
1

> <s_lp_Variant>
AV-unprocessed.smi:1196-12

> <Gold.Version>
5.8.1

> <Gold.Id.Protein>
6NUR|6NUR_protein|mol2

> <Gold.PLP.Fitness>
44.4168

> <Gold.PLP.PLP>
-31.6652

> <Gold.PLP.part.hbond>
-3.0000

> <Gold.PLP.part.metal>
0.0000

> <Gold.PLP.part.buried>
-3.4739

> <Gold.PLP.part.nonpolar>
-25.2386

> <Gold.PLP.part.repulsive>
0.2763

> <Gold.PLP.ligand.clash>
0.0000

> <Gold.PLP.ligand.torsion>
0.6611

> <Gold.PLP.Chemscore.Hbond>
2.6420

> <Gold.PLP.Chemscore.CHOScore>
1.9924

> <Gold.PLP.Chemscore.Metal>
0.0000

> <Gold.Chemscore.Hbonds>
donor molecule, donor type, donor heavy atom, donor atom, acceptor molecule, acceptor atom, score
      L1  H     9    30       P1  7948  0.70
      P1  H  7989  7998       L1    17  0.99
      P1  H 10752 10763       L1    20  0.70
      L1  C     5    27       P1 10747  1.00
      L1  C     7    29       P1 10186  0.96

> <Gold.PLP.Chemscore.Internal.Correction>
0.1706

> <Gold.Rescore>
     Score         DG    S(hbond)    S(metal)    S(lipo)     H(rot)  DE(clash)    DE(int)     intcor
      9.02      -9.52       1.27        0.00      61.48       2.89       0.07       0.43       ----

> <Gold.Chemscore.Fitness>
9.0209

> <Gold.Chemscore.DG>
-9.5161

> <Gold.Chemscore.ZeroCoef>
-5.4800

> <Gold.Chemscore.Hbond>
1.2732

> <Gold.Chemscore.Metal>
0.0000

> <Gold.Chemscore.Lipo>
61.4840

> <Gold.Chemscore.Internal_Hbond>
0.0000

> <Gold.Chemscore.DEClash>
0.0685

> <Gold.Chemscore.DEInternal>
0.4267

> <Gold.Chemscore.Rot>
2.8946

> <Gold.Chemscore.Internal.Correction>
   9.000000E+99

> <Gold.Chemscore.Hbonds>
donor molecule, donor type, donor heavy atom, donor atom, acceptor molecule, acceptor atom, score
      L1  H     9    30       P1  7948  0.07
      P1  H  7989  7998       L1    17  0.37
      P1  H 10752 10763       L1    20  0.28

> <Gold.Chemscore.Hbond.Weighted>
-4.2526

> <Gold.Chemscore.Metal.Weighted>
-0.0000

> <Gold.Chemscore.Lipo.Weighted>
-7.1936

> <Gold.Chemscore.Internal_Hbond.Weighted>
0.0000

> <Gold.Chemscore.DEClash.Weighted>
0.0685

> <Gold.Chemscore.DEInternal.Weighted>
0.4267

> <Gold.Chemscore.Rot.Weighted>
7.4101

> <Gold.Chemscore.Internal.Correction.Weighted>
   9.000000E+99

> <Gold.Protein.RotatedTorsions>
[ 6907 6896 6895 6894 ] final   63.46 input  -60.11 | X-H torsion
[ 7974 7965 7964 7962 ] final  147.92 input  175.53 | X-H torsion
[ 8008 7997 7996 7995 ] final   74.31 input   59.86 | X-H torsion
[ 10167 10162 10161 10158 ] final -177.59 input  -65.29 | X-H torsion
[ 10718 10713 10712 10709 ] final   97.83 input   66.30 | X-H torsion
[ 10763 10752 10751 10750 ] final  117.47 input  -60.55 | X-H torsion
[ 11005 11000 10999 10996 ] final  142.33 input  -57.11 | X-H torsion

> <Gold.Protein.ActiveResidues>
 VAL166  LYS551  ARG553  GLY616  TRP617  ASP618  TYR619  PRO620  LYS621  CYS622 
 ASP623  PHE694  ASN695  SER759  ASP760  ASP761  ALA762  ILE779  LEU786  VAL792 
 PHE793  MET794  SER795  GLU796  ALA797  LYS798  CYS799  TRP800  GLU811  SER814 

> <Gold.Protein.RotatedAtoms>
  152.4254  134.5877  159.9965 H   0  0  0  0  0  0  0  0  0  0  0  0  # atno 6907 bound_to 6896
  151.6015  133.3350  159.3056 H   0  0  0  0  0  0  0  0  0  0  0  0  # atno 6908 bound_to 6896
  150.8144  134.7354  159.6782 H   0  0  0  0  0  0  0  0  0  0  0  0  # atno 6909 bound_to 6896
  144.8553  139.6089  143.5955 H   0  0  0  0  0  0  0  0  0  0  0  0  # atno 7974 bound_to 7965
  155.7964  140.3477  155.5378 H   0  0  0  0  0  0  0  0  0  0  0  0  # atno 8008 bound_to 7997
  155.8582  140.0967  157.1651 H   0  0  0  0  0  0  0  0  0  0  0  0  # atno 8009 bound_to 7997
  154.4010  140.1363  156.3915 H   0  0  0  0  0  0  0  0  0  0  0  0  # atno 8010 bound_to 7997
  139.5472  144.2203  152.1011 H   0  0  0  0  0  0  0  0  0  0  0  0  # atno 10167 bound_to 10162
  157.6906  131.0621  150.4704 H   0  0  0  0  0  0  0  0  0  0  0  0  # atno 10718 bound_to 10713
  153.5529  135.3536  155.2767 H   0  0  0  0  0  0  0  0  0  0  0  0  # atno 10763 bound_to 10752
  154.8704  135.4118  154.2917 H   0  0  0  0  0  0  0  0  0  0  0  0  # atno 10764 bound_to 10752
  153.3647  135.7061  153.6753 H   0  0  0  0  0  0  0  0  0  0  0  0  # atno 10765 bound_to 10752
  140.0469  134.9276  157.0946 H   0  0  0  0  0  0  0  0  0  0  0  0  # atno 11005 bound_to 11000
  146.2818  139.6898  142.9223 LP  0  0  0  0  0  0  0  0  0  0  0  0  # atno 17320 bound_to 7965
  145.4418  141.0423  143.2853 LP  0  0  0  0  0  0  0  0  0  0  0  0  # atno 17321 bound_to 7965
  140.1692  144.4952  150.6589 LP  0  0  0  0  0  0  0  0  0  0  0  0  # atno 17342 bound_to 10162
  140.6725  143.2291  151.5591 LP  0  0  0  0  0  0  0  0  0  0  0  0  # atno 17343 bound_to 10162
  156.5042  130.4124  149.6336 LP  0  0  0  0  0  0  0  0  0  0  0  0  # atno 17370 bound_to 10713
  156.3300  130.7326  151.2254 LP  0  0  0  0  0  0  0  0  0  0  0  0  # atno 17371 bound_to 10713
  140.3979  134.2114  155.7164 LP  0  0  0  0  0  0  0  0  0  0  0  0  # atno 17394 bound_to 11000
  141.1911  133.8202  157.0891 LP  0  0  0  0  0  0  0  0  0  0  0  0  # atno 17395 bound_to 11000

$$$$
