AV-unprocessed.smi:3287|AV-procd|sdf|12596|dock6
  -GOLD-   2272018523D 1   1.00000     0.00000
 Structure written by MMmdl.
 43 44  0  0  0  0  0  0  0  0  2 V2000
  151.8488  138.4257  154.5076 C   0  0  0  0  0  0  0  0  0  0  0  0
  150.4438  138.2597  155.1134 C   0  0  2  0  0  0  0  0  0  0  0  0
  149.9880  136.7926  154.9797 C   0  0  0  0  0  0  0  0  0  0  0  0
  148.5932  136.5642  155.5808 C   0  0  0  0  0  0  0  0  0  0  0  0
  147.5387  137.4978  154.9550 C   0  0  2  0  0  0  0  0  0  0  0  0
  147.2545  137.1625  153.5404 N   0  3  0  0  0  0  0  0  0  0  0  0
  146.1897  136.1597  153.3224 C   0  0  0  0  0  0  0  0  0  0  0  0
  145.5499  136.3180  151.9322 C   0  0  1  0  0  0  0  0  0  0  0  0
  146.3369  137.2131  151.1701 O   0  0  0  0  0  0  0  0  0  0  0  0
  145.3975  134.9725  151.2409 C   0  0  0  0  0  0  0  0  0  0  0  0
  146.4982  134.1023  151.0829 C   0  0  0  0  0  0  0  0  0  0  0  0
  146.2930  132.8662  150.4379 C   0  0  0  0  0  0  0  0  0  0  0  0
  145.0934  132.4681  149.9632 N   0  0  0  0  0  0  0  0  0  0  0  0
  144.0438  133.3027  150.1189 C   0  0  0  0  0  0  0  0  0  0  0  0
  144.1415  134.5596  150.7489 C   0  0  0  0  0  0  0  0  0  0  0  0
  147.9925  138.9640  155.0779 C   0  0  0  0  0  0  0  0  0  0  0  0
  149.3976  139.2194  154.4870 C   0  0  1  0  0  0  0  0  0  0  0  0
  149.7697  140.7032  154.6571 C   0  0  0  0  0  0  0  0  0  0  0  0
  151.8345  138.2857  153.4263 H   0  0  0  0  0  0  0  0  0  0  0  0
  152.5434  137.6967  154.9258 H   0  0  0  0  0  0  0  0  0  0  0  0
  152.2655  139.4112  154.7137 H   0  0  0  0  0  0  0  0  0  0  0  0
  150.5177  138.4863  156.1784 H   0  0  0  0  0  0  0  0  0  0  0  0
  149.9872  136.4988  153.9291 H   0  0  0  0  0  0  0  0  0  0  0  0
  150.7030  136.1364  155.4773 H   0  0  0  0  0  0  0  0  0  0  0  0
  148.3076  135.5179  155.4789 H   0  0  0  0  0  0  0  0  0  0  0  0
  148.6389  136.7518  156.6545 H   0  0  0  0  0  0  0  0  0  0  0  0
  146.6043  137.3937  155.5084 H   0  0  0  0  0  0  0  0  0  0  0  0
  146.9677  138.0115  153.0748 H   0  0  0  0  0  0  0  0  0  0  0  0
  146.5890  135.1516  153.4342 H   0  0  0  0  0  0  0  0  0  0  0  0
  145.4283  136.2894  154.0926 H   0  0  0  0  0  0  0  0  0  0  0  0
  144.5603  136.7649  152.0389 H   0  0  0  0  0  0  0  0  0  0  0  0
  147.2465  136.9771  151.2758 H   0  0  0  0  0  0  0  0  0  0  0  0
  147.4794  134.3710  151.4463 H   0  0  0  0  0  0  0  0  0  0  0  0
  147.1143  132.1786  150.3012 H   0  0  0  0  0  0  0  0  0  0  0  0
  143.0966  132.9586  149.7304 H   0  0  0  0  0  0  0  0  0  0  0  0
  143.2683  135.1877  150.8482 H   0  0  0  0  0  0  0  0  0  0  0  0
  147.2602  139.6157  154.5992 H   0  0  0  0  0  0  0  0  0  0  0  0
  147.9952  139.2432  156.1327 H   0  0  0  0  0  0  0  0  0  0  0  0
  149.3531  139.0188  153.4156 H   0  0  0  0  0  0  0  0  0  0  0  0
  149.9081  140.9598  155.7079 H   0  0  0  0  0  0  0  0  0  0  0  0
  148.9884  141.3511  154.2589 H   0  0  0  0  0  0  0  0  0  0  0  0
  150.6876  140.9548  154.1265 H   0  0  0  0  0  0  0  0  0  0  0  0
  148.1061  136.8345  153.1070 H   0  0  0  0  0  0  0  0  0  0  0  0
  1  2  1  0  0  0  0
  1 19  1  0  0  0  0
  1 20  1  0  0  0  0
  1 21  1  0  0  0  0
  2 17  1  0  0  0  0
  2  3  1  0  0  0  0
  2 22  1  0  0  0  0
  3  4  1  0  0  0  0
  3 23  1  0  0  0  0
  3 24  1  0  0  0  0
  4  5  1  0  0  0  0
  4 25  1  0  0  0  0
  4 26  1  0  0  0  0
  5  6  1  0  0  0  0
  5 16  1  0  0  0  0
  5 27  1  0  0  0  0
  6  7  1  0  0  0  0
  6 28  1  0  0  0  0
  6 43  1  0  0  0  0
  7  8  1  0  0  0  0
  7 29  1  0  0  0  0
  7 30  1  0  0  0  0
  8  9  1  0  0  0  0
  8 10  1  0  0  0  0
  8 31  1  0  0  0  0
  9 32  1  0  0  0  0
 10 15  1  0  0  0  0
 10 11  2  0  0  0  0
 11 12  1  0  0  0  0
 11 33  1  0  0  0  0
 12 13  2  0  0  0  0
 12 34  1  0  0  0  0
 13 14  1  0  0  0  0
 14 15  2  0  0  0  0
 14 35  1  0  0  0  0
 15 36  1  0  0  0  0
 16 17  1  0  0  0  0
 16 37  1  0  0  0  0
 16 38  1  0  0  0  0
 17 18  1  0  0  0  0
 17 39  1  0  0  0  0
 18 40  1  0  0  0  0
 18 41  1  0  0  0  0
 18 42  1  0  0  0  0
M  CHG  1   6   1
M  END
> <s_m_source_file>
AV-unprocessed.smi

> <i_m_source_file_index>
3287

> <i_lp_mmshare_version>
43012

> <i_f3d_flags>
0

> <s_epik_input>
W0NIM11bQ0BASF0xW0NIMl1bQ0gyXVtDQEhdKFtDSDJdW0NASF0xW0NIM10pW05IXVtDSDJdW0NASF0oW09IXSljMltjSF1bY0hdbltjSF1bY0hdMg==

> <s_epik_cmdline>
J2VwaWtfcHl0aG9uJywgJy1waCcsICc3LjAnLCAnLXRuJywgJzgnLCAnLW1hJywgJzIwMCcsICctbWV0YWxfYmluZGluZycsICctaW1hZScsICc8aW5maWxlLm1hZT4nLCAnLW9tYWUnLCAnPG91dGZpbGUubWFlPic=

> <r_lp_tautomer_probability>
1

> <r_epik_Ionization_Penalty>
0.00537262

> <r_epik_Ionization_Penalty_Charging>
0.00321624

> <r_epik_Ionization_Penalty_Neutral>
0.00215638

> <r_epik_State_Penalty>
-0

> <r_epik_Charging_Adjusted_Penalty>
0.00321624

> <i_epik_Tot_Q>
1

> <i_epik_Tot_abs_Q>
1

> <r_epik_Metal_State_Penalty>
-0

> <b_epik_Metal_Only>
0

> <s_lp_Force_Field>
OPLS_2005

> <r_lp_Energy>
19.2096

> <b_lp_Chiralities_Consistent>
1

> <s_lp_Variant>
AV-unprocessed.smi:3287-7

> <Gold.Version>
5.8.1

> <Gold.Id.Protein>
6NUR|6NUR_protein|mol2

> <Gold.PLP.Fitness>
42.1239

> <Gold.PLP.PLP>
-30.0730

> <Gold.PLP.part.hbond>
-2.8724

> <Gold.PLP.part.metal>
0.0000

> <Gold.PLP.part.buried>
-3.3649

> <Gold.PLP.part.nonpolar>
-24.2077

> <Gold.PLP.part.repulsive>
0.1604

> <Gold.PLP.ligand.clash>
0.0000

> <Gold.PLP.ligand.torsion>
1.2778

> <Gold.PLP.Chemscore.Hbond>
3.0000

> <Gold.PLP.Chemscore.CHOScore>
1.8646

> <Gold.PLP.Chemscore.Metal>
0.0000

> <Gold.Chemscore.Hbonds>
donor molecule, donor type, donor heavy atom, donor atom, acceptor molecule, acceptor atom, score
      L1  H     6    43       P1  7948  2.00
      L1  H     9    32       P1  7948  1.00
      L1  C    12    34       P1 10747  1.00
      L1  C    14    35       P1 10186  0.83

> <Gold.PLP.Chemscore.Internal.Correction>
0.0129

> <Gold.Rescore>
     Score         DG    S(hbond)    S(metal)    S(lipo)     H(rot)  DE(clash)    DE(int)     intcor
     15.14     -16.38       1.97        0.00      78.66       1.90       0.07       1.17       ----

> <Gold.Chemscore.Fitness>
15.1399

> <Gold.Chemscore.DG>
-16.3766

> <Gold.Chemscore.ZeroCoef>
-5.4800

> <Gold.Chemscore.Hbond>
1.9660

> <Gold.Chemscore.Metal>
0.0000

> <Gold.Chemscore.Lipo>
78.6586

> <Gold.Chemscore.Internal_Hbond>
0.0000

> <Gold.Chemscore.DEClash>
0.0693

> <Gold.Chemscore.DEInternal>
1.1675

> <Gold.Chemscore.Rot>
1.9035

> <Gold.Chemscore.Internal.Correction>
   9.000000E+99

> <Gold.Chemscore.Hbonds>
donor molecule, donor type, donor heavy atom, donor atom, acceptor molecule, acceptor atom, score
      L1  H     6    43       P1  7948  0.96
      L1  H     9    32       P1  7948  1.00

> <Gold.Chemscore.Hbond.Weighted>
-6.5664

> <Gold.Chemscore.Metal.Weighted>
-0.0000

> <Gold.Chemscore.Lipo.Weighted>
-9.2031

> <Gold.Chemscore.Internal_Hbond.Weighted>
0.0000

> <Gold.Chemscore.DEClash.Weighted>
0.0693

> <Gold.Chemscore.DEInternal.Weighted>
1.1675

> <Gold.Chemscore.Rot.Weighted>
4.8729

> <Gold.Chemscore.Internal.Correction.Weighted>
   9.000000E+99

> <Gold.Protein.RotatedTorsions>
[ 6907 6896 6895 6894 ] final  -74.87 input  -60.11 | X-H torsion
[ 7974 7965 7964 7962 ] final -138.63 input  175.53 | X-H torsion
[ 8008 7997 7996 7995 ] final  166.05 input   59.86 | X-H torsion
[ 10167 10162 10161 10158 ] final  174.30 input  -65.29 | X-H torsion
[ 10718 10713 10712 10709 ] final  152.31 input   66.30 | X-H torsion
[ 10763 10752 10751 10750 ] final  168.77 input  -60.55 | X-H torsion
[ 11005 11000 10999 10996 ] final   51.56 input  -57.11 | X-H torsion

> <Gold.Protein.ActiveResidues>
 VAL166  LYS551  ARG553  GLY616  TRP617  ASP618  TYR619  PRO620  LYS621  CYS622 
 ASP623  PHE694  ASN695  SER759  ASP760  ASP761  ALA762  ILE779  LEU786  VAL792 
 PHE793  MET794  SER795  GLU796  ALA797  LYS798  CYS799  TRP800  GLU811  SER814 

> <Gold.Protein.RotatedAtoms>
  150.7078  134.4805  159.5467 H   0  0  0  0  0  0  0  0  0  0  0  0  # atno 6907 bound_to 6896
  152.2443  134.8194  160.0465 H   0  0  0  0  0  0  0  0  0  0  0  0  # atno 6908 bound_to 6896
  151.8964  133.3493  159.3852 H   0  0  0  0  0  0  0  0  0  0  0  0  # atno 6909 bound_to 6896
  144.8742  140.6412  143.5247 H   0  0  0  0  0  0  0  0  0  0  0  0  # atno 7974 bound_to 7965
  156.1750  140.1653  156.8379 H   0  0  0  0  0  0  0  0  0  0  0  0  # atno 8008 bound_to 7997
  154.5297  140.0759  156.8356 H   0  0  0  0  0  0  0  0  0  0  0  0  # atno 8009 bound_to 7997
  155.3432  140.3386  155.4241 H   0  0  0  0  0  0  0  0  0  0  0  0  # atno 8010 bound_to 7997
  139.5137  144.3162  152.0245 H   0  0  0  0  0  0  0  0  0  0  0  0  # atno 10167 bound_to 10162
  157.2594  131.0795  151.1676 H   0  0  0  0  0  0  0  0  0  0  0  0  # atno 10718 bound_to 10713
  154.3734  135.2753  155.2253 H   0  0  0  0  0  0  0  0  0  0  0  0  # atno 10763 bound_to 10752
  154.4391  135.5958  153.6121 H   0  0  0  0  0  0  0  0  0  0  0  0  # atno 10764 bound_to 10752
  152.9837  135.6014  154.3968 H   0  0  0  0  0  0  0  0  0  0  0  0  # atno 10765 bound_to 10752
  140.0923  134.5193  155.8841 H   0  0  0  0  0  0  0  0  0  0  0  0  # atno 11005 bound_to 11000
  145.4073  139.1586  143.4145 LP  0  0  0  0  0  0  0  0  0  0  0  0  # atno 17320 bound_to 7965
  146.2951  140.4175  142.8724 LP  0  0  0  0  0  0  0  0  0  0  0  0  # atno 17321 bound_to 7965
  140.2605  144.4072  150.6187 LP  0  0  0  0  0  0  0  0  0  0  0  0  # atno 17342 bound_to 10162
  140.6160  143.2172  151.6790 LP  0  0  0  0  0  0  0  0  0  0  0  0  # atno 17343 bound_to 10162
  157.3191  130.6928  149.6259 LP  0  0  0  0  0  0  0  0  0  0  0  0  # atno 17370 bound_to 10713
  155.9664  130.4340  150.5033 LP  0  0  0  0  0  0  0  0  0  0  0  0  # atno 17371 bound_to 10713
  141.2081  133.6671  156.6351 LP  0  0  0  0  0  0  0  0  0  0  0  0  # atno 17394 bound_to 11000
  140.3335  134.7908  157.4344 LP  0  0  0  0  0  0  0  0  0  0  0  0  # atno 17395 bound_to 11000

$$$$
