AV-unprocessed.smi:2338|AV-procd|sdf|9334|dock7
  -GOLD-   2272012553D 1   1.00000     0.00000
 Structure written by MMmdl.
 31 32  0  0  0  0  0  0  0  0  1 V2000
  149.8738  138.6256  153.2480 N   0  0  0  0  0  0  0  0  0  0  0  0
  149.9624  139.1906  154.4548 C   0  0  0  0  0  0  0  0  0  0  0  0
  150.0832  140.4062  154.5994 O   0  0  0  0  0  0  0  0  0  0  0  0
  149.8871  138.2525  155.6734 C   0  0  2  0  0  0  0  0  0  0  0  0
  148.9689  137.0598  155.3178 C   0  0  0  0  0  0  0  0  0  0  0  0
  148.8665  136.1641  156.4190 O   0  0  0  0  0  0  0  0  0  0  0  0
  148.2841  136.7926  157.5536 C   0  0  0  0  0  0  0  0  0  0  0  0
  149.1865  137.9497  158.0059 C   0  0  0  0  0  0  0  0  0  0  0  0
  149.4032  138.8875  156.9082 N   0  0  0  0  0  0  0  0  0  0  0  0
  150.0831  140.0387  157.3535 C   0  0  0  0  0  0  0  0  0  0  0  0
  149.4329  141.2263  157.2880 N   0  0  0  0  0  0  0  0  0  0  0  0
  150.0757  142.3389  157.7006 C   0  0  0  0  0  0  0  0  0  0  0  0
  151.3962  142.3361  158.1954 C   0  0  0  0  0  0  0  0  0  0  0  0
  152.0644  143.6288  158.6338 C   0  0  0  0  0  0  0  0  0  0  0  0
  153.2805  143.3990  159.1301 F   0  0  0  0  0  0  0  0  0  0  0  0
  152.1756  144.4428  157.5852 F   0  0  0  0  0  0  0  0  0  0  0  0
  151.3360  144.2330  159.5729 F   0  0  0  0  0  0  0  0  0  0  0  0
  152.0758  141.1015  158.2516 C   0  0  0  0  0  0  0  0  0  0  0  0
  151.4137  139.9335  157.8260 C   0  0  0  0  0  0  0  0  0  0  0  0
  152.2314  138.4119  157.9038 Cl  0  0  0  0  0  0  0  0  0  0  0  0
  149.9230  139.2022  152.4206 H   0  0  0  0  0  0  0  0  0  0  0  0
  149.7628  137.6254  153.1661 H   0  0  0  0  0  0  0  0  0  0  0  0
  150.8863  137.8567  155.8671 H   0  0  0  0  0  0  0  0  0  0  0  0
  147.9720  137.3994  155.0289 H   0  0  0  0  0  0  0  0  0  0  0  0
  149.3722  136.5090  154.4671 H   0  0  0  0  0  0  0  0  0  0  0  0
  147.2801  137.1483  157.3162 H   0  0  0  0  0  0  0  0  0  0  0  0
  148.1823  136.0591  158.3536 H   0  0  0  0  0  0  0  0  0  0  0  0
  148.7281  138.4569  158.8562 H   0  0  0  0  0  0  0  0  0  0  0  0
  150.1467  137.5593  158.3471 H   0  0  0  0  0  0  0  0  0  0  0  0
  149.5171  143.2604  157.6291 H   0  0  0  0  0  0  0  0  0  0  0  0
  153.0913  141.0446  158.6149 H   0  0  0  0  0  0  0  0  0  0  0  0
  1  2  1  0  0  0  0
  1 21  1  0  0  0  0
  1 22  1  0  0  0  0
  2  3  2  0  0  0  0
  2  4  1  0  0  0  0
  4  9  1  0  0  0  0
  4  5  1  0  0  0  0
  4 23  1  0  0  0  0
  5  6  1  0  0  0  0
  5 24  1  0  0  0  0
  5 25  1  0  0  0  0
  6  7  1  0  0  0  0
  7  8  1  0  0  0  0
  7 26  1  0  0  0  0
  7 27  1  0  0  0  0
  8  9  1  0  0  0  0
  8 28  1  0  0  0  0
  8 29  1  0  0  0  0
  9 10  1  0  0  0  0
 10 19  1  0  0  0  0
 10 11  2  0  0  0  0
 11 12  1  0  0  0  0
 12 13  2  0  0  0  0
 12 30  1  0  0  0  0
 13 14  1  0  0  0  0
 13 18  1  0  0  0  0
 14 15  1  0  0  0  0
 14 16  1  0  0  0  0
 14 17  1  0  0  0  0
 18 19  2  0  0  0  0
 18 31  1  0  0  0  0
 19 20  1  0  0  0  0
M  END
> <s_m_source_file>
AV-unprocessed.smi

> <i_m_source_file_index>
2338

> <i_lp_mmshare_version>
43012

> <i_f3d_flags>
0

> <s_epik_input>
W05IMl1DKD1PKVtDQEBIXTFbQ0gyXU9bQ0gyXVtDSDJdTjFjMm5bY0hdYyhDKEYpKEYpRilbY0hdYzJDbA==

> <s_epik_cmdline>
J2VwaWtfcHl0aG9uJywgJy1waCcsICc3LjAnLCAnLXRuJywgJzgnLCAnLW1hJywgJzIwMCcsICctbWV0YWxfYmluZGluZycsICctaW1hZScsICc8aW5maWxlLm1hZT4nLCAnLW9tYWUnLCAnPG91dGZpbGUubWFlPic=

> <r_lp_tautomer_probability>
1

> <r_epik_Ionization_Penalty>
1.71167e-07

> <r_epik_Ionization_Penalty_Charging>
0

> <r_epik_Ionization_Penalty_Neutral>
1.71167e-07

> <r_epik_State_Penalty>
-0

> <r_epik_Charging_Adjusted_Penalty>
0

> <i_epik_Tot_Q>
0

> <i_epik_Tot_abs_Q>
0

> <r_epik_Metal_State_Penalty>
-0

> <b_epik_Metal_Only>
0

> <s_lp_Force_Field>
OPLS_2005

> <r_lp_Energy>
18.5611

> <b_lp_Chiralities_Consistent>
1

> <s_lp_Variant>
AV-unprocessed.smi:2338-1

> <Gold.Version>
5.8.1

> <Gold.Id.Protein>
6NUR|6NUR_protein|mol2

> <Gold.PLP.Fitness>
42.0508

> <Gold.PLP.PLP>
-32.3730

> <Gold.PLP.part.hbond>
-2.9885

> <Gold.PLP.part.metal>
0.0000

> <Gold.PLP.part.buried>
-4.6910

> <Gold.PLP.part.nonpolar>
-24.8099

> <Gold.PLP.part.repulsive>
0.2858

> <Gold.PLP.ligand.clash>
0.4577

> <Gold.PLP.ligand.torsion>
0.8554

> <Gold.PLP.Chemscore.Hbond>
2.7371

> <Gold.PLP.Chemscore.CHOScore>
0.9999

> <Gold.PLP.Chemscore.Metal>
0.0000

> <Gold.Chemscore.Hbonds>
donor molecule, donor type, donor heavy atom, donor atom, acceptor molecule, acceptor atom, score
      L1  H     1    21       P1  7957  0.99
      L1  H     1    22       P1  7948  0.78
      P1  H  7989  7998       L1     3  0.94
      L1  C    12    30       P1  8028  1.00

> <Gold.PLP.Chemscore.Internal.Correction>
0.6351

> <Gold.Rescore>
     Score         DG    S(hbond)    S(metal)    S(lipo)     H(rot)  DE(clash)    DE(int)     intcor
     12.64     -15.70       2.48        0.00      49.51       1.51       0.17       2.89       ----

> <Gold.Chemscore.Fitness>
12.6411

> <Gold.Chemscore.DG>
-15.6976

> <Gold.Chemscore.ZeroCoef>
-5.4800

> <Gold.Chemscore.Hbond>
2.4827

> <Gold.Chemscore.Metal>
0.0000

> <Gold.Chemscore.Lipo>
49.5095

> <Gold.Chemscore.Internal_Hbond>
0.0000

> <Gold.Chemscore.DEClash>
0.1675

> <Gold.Chemscore.DEInternal>
2.8890

> <Gold.Chemscore.Rot>
1.5107

> <Gold.Chemscore.Internal.Correction>
   9.000000E+99

> <Gold.Chemscore.Hbonds>
donor molecule, donor type, donor heavy atom, donor atom, acceptor molecule, acceptor atom, score
      L1  H     1    21       P1  7957  0.70
      L1  H     1    22       P1  7948  0.43
      P1  H  7989  7998       L1     3  0.45

> <Gold.Chemscore.Hbond.Weighted>
-8.2923

> <Gold.Chemscore.Metal.Weighted>
-0.0000

> <Gold.Chemscore.Lipo.Weighted>
-5.7926

> <Gold.Chemscore.Internal_Hbond.Weighted>
0.0000

> <Gold.Chemscore.DEClash.Weighted>
0.1675

> <Gold.Chemscore.DEInternal.Weighted>
2.8890

> <Gold.Chemscore.Rot.Weighted>
3.8674

> <Gold.Chemscore.Internal.Correction.Weighted>
   9.000000E+99

> <Gold.Protein.RotatedTorsions>
[ 6907 6896 6895 6894 ] final -123.04 input  -60.11 | X-H torsion
[ 7974 7965 7964 7962 ] final  -21.78 input  175.53 | X-H torsion
[ 8008 7997 7996 7995 ] final   32.33 input   59.86 | X-H torsion
[ 10167 10162 10161 10158 ] final -170.80 input  -65.29 | X-H torsion
[ 10718 10713 10712 10709 ] final -143.43 input   66.30 | X-H torsion
[ 10763 10752 10751 10750 ] final -105.45 input  -60.55 | X-H torsion
[ 11005 11000 10999 10996 ] final  151.05 input  -57.11 | X-H torsion

> <Gold.Protein.ActiveResidues>
 VAL166  LYS551  ARG553  GLY616  TRP617  ASP618  TYR619  PRO620  LYS621  CYS622 
 ASP623  PHE694  ASN695  SER759  ASP760  ASP761  ALA762  ILE779  LEU786  VAL792 
 PHE793  MET794  SER795  GLU796  ALA797  LYS798  CYS799  TRP800  GLU811  SER814 

> <Gold.Protein.RotatedAtoms>
  150.8632  133.7612  159.2985 H   0  0  0  0  0  0  0  0  0  0  0  0  # atno 6907 bound_to 6896
  151.5248  135.1066  159.9897 H   0  0  0  0  0  0  0  0  0  0  0  0  # atno 6908 bound_to 6896
  152.4642  133.7842  159.6923 H   0  0  0  0  0  0  0  0  0  0  0  0  # atno 6909 bound_to 6896
  146.1713  140.4389  142.8531 H   0  0  0  0  0  0  0  0  0  0  0  0  # atno 7974 bound_to 7965
  155.1208  140.3248  155.4498 H   0  0  0  0  0  0  0  0  0  0  0  0  # atno 8008 bound_to 7997
  156.2663  140.2027  156.6278 H   0  0  0  0  0  0  0  0  0  0  0  0  # atno 8009 bound_to 7997
  154.6685  140.0539  157.0127 H   0  0  0  0  0  0  0  0  0  0  0  0  # atno 8010 bound_to 7997
  139.5840  144.1360  152.1552 H   0  0  0  0  0  0  0  0  0  0  0  0  # atno 10167 bound_to 10162
  156.3578  130.7722  151.1885 H   0  0  0  0  0  0  0  0  0  0  0  0  # atno 10718 bound_to 10713
  154.7947  135.4748  154.0133 H   0  0  0  0  0  0  0  0  0  0  0  0  # atno 10763 bound_to 10752
  153.1685  135.6821  153.8648 H   0  0  0  0  0  0  0  0  0  0  0  0  # atno 10764 bound_to 10752
  153.8238  135.3200  155.3390 H   0  0  0  0  0  0  0  0  0  0  0  0  # atno 10765 bound_to 10752
  140.1185  134.8879  157.2038 H   0  0  0  0  0  0  0  0  0  0  0  0  # atno 11005 bound_to 11000
  144.8168  140.6481  143.6379 LP  0  0  0  0  0  0  0  0  0  0  0  0  # atno 17320 bound_to 7965
  145.4332  139.1546  143.4011 LP  0  0  0  0  0  0  0  0  0  0  0  0  # atno 17321 bound_to 7965
  140.0919  144.5613  150.7048 LP  0  0  0  0  0  0  0  0  0  0  0  0  # atno 17342 bound_to 10162
  140.7114  143.2508  151.4568 LP  0  0  0  0  0  0  0  0  0  0  0  0  # atno 17343 bound_to 10162
  157.7469  131.0409  150.4619 LP  0  0  0  0  0  0  0  0  0  0  0  0  # atno 17370 bound_to 10713
  156.4825  130.4077  149.6453 LP  0  0  0  0  0  0  0  0  0  0  0  0  # atno 17371 bound_to 10713
  140.2997  134.3146  155.7293 LP  0  0  0  0  0  0  0  0  0  0  0  0  # atno 17394 bound_to 11000
  141.2146  133.7584  156.9622 LP  0  0  0  0  0  0  0  0  0  0  0  0  # atno 17395 bound_to 11000

$$$$
