AV-unprocessed.smi:3290|AV-procd|sdf|12614|dock6
  -GOLD-   2272018543D 1   1.00000     0.00000
 Structure written by MMmdl.
 43 44  0  0  0  0  0  0  0  0  2 V2000
  151.3538  144.8789  158.9487 C   0  0  0  0  0  0  0  0  0  0  0  0
  152.1450  143.5586  158.9314 C   0  0  1  0  0  0  0  0  0  0  0  0
  152.6495  143.2441  160.3559 C   0  0  0  0  0  0  0  0  0  0  0  0
  153.4895  141.9611  160.4020 C   0  0  0  0  0  0  0  0  0  0  0  0
  152.6999  140.7742  159.8399 C   0  0  0  0  0  0  0  0  0  0  0  0
  152.2058  141.0719  158.4177 C   0  0  0  0  0  0  0  0  0  0  0  0
  151.3456  142.3539  158.3517 C   0  0  2  0  0  0  0  0  0  0  0  0
  150.8606  142.5702  156.8999 C   0  0  0  0  0  0  0  0  0  0  0  0
  149.3901  142.4962  156.7860 N   0  3  0  0  0  0  0  0  0  0  0  0
  148.8859  141.1985  156.2935 C   0  0  0  0  0  0  0  0  0  0  0  0
  149.4337  140.8742  154.8927 C   0  0  2  0  0  0  0  0  0  0  0  0
  148.3511  140.5469  154.0431 O   0  0  0  0  0  0  0  0  0  0  0  0
  150.4612  139.7548  154.9513 C   0  0  0  0  0  0  0  0  0  0  0  0
  151.6570  139.8992  155.6879 C   0  0  0  0  0  0  0  0  0  0  0  0
  152.5743  138.8295  155.7006 C   0  0  0  0  0  0  0  0  0  0  0  0
  152.3691  137.6698  155.0405 N   0  0  0  0  0  0  0  0  0  0  0  0
  151.2254  137.5378  154.3356 C   0  0  0  0  0  0  0  0  0  0  0  0
  150.2434  138.5460  154.2575 C   0  0  0  0  0  0  0  0  0  0  0  0
  150.4055  144.7675  159.4753 H   0  0  0  0  0  0  0  0  0  0  0  0
  151.1457  145.2393  157.9419 H   0  0  0  0  0  0  0  0  0  0  0  0
  151.9184  145.6656  159.4503 H   0  0  0  0  0  0  0  0  0  0  0  0
  153.0225  143.7162  158.3022 H   0  0  0  0  0  0  0  0  0  0  0  0
  153.2473  144.0748  160.7332 H   0  0  0  0  0  0  0  0  0  0  0  0
  151.8005  143.1453  161.0339 H   0  0  0  0  0  0  0  0  0  0  0  0
  154.4058  142.0996  159.8267 H   0  0  0  0  0  0  0  0  0  0  0  0
  153.7956  141.7528  161.4277 H   0  0  0  0  0  0  0  0  0  0  0  0
  153.3236  139.8798  159.8382 H   0  0  0  0  0  0  0  0  0  0  0  0
  151.8492  140.5579  160.4874 H   0  0  0  0  0  0  0  0  0  0  0  0
  153.0627  141.1680  157.7492 H   0  0  0  0  0  0  0  0  0  0  0  0
  151.6315  140.2169  158.0587 H   0  0  0  0  0  0  0  0  0  0  0  0
  150.4706  142.1829  158.9818 H   0  0  0  0  0  0  0  0  0  0  0  0
  151.2220  143.5245  156.5141 H   0  0  0  0  0  0  0  0  0  0  0  0
  151.2712  141.7951  156.2512 H   0  0  0  0  0  0  0  0  0  0  0  0
  148.9878  142.6658  157.6971 H   0  0  0  0  0  0  0  0  0  0  0  0
  149.1898  140.4200  156.9950 H   0  0  0  0  0  0  0  0  0  0  0  0
  147.7947  141.2109  156.2826 H   0  0  0  0  0  0  0  0  0  0  0  0
  149.9141  141.7624  154.4794 H   0  0  0  0  0  0  0  0  0  0  0  0
  148.6556  140.5693  153.1480 H   0  0  0  0  0  0  0  0  0  0  0  0
  151.8717  140.8074  156.2320 H   0  0  0  0  0  0  0  0  0  0  0  0
  153.4977  138.9085  156.2550 H   0  0  0  0  0  0  0  0  0  0  0  0
  151.0882  136.6007  153.8167 H   0  0  0  0  0  0  0  0  0  0  0  0
  149.3461  138.3881  153.6773 H   0  0  0  0  0  0  0  0  0  0  0  0
  149.0797  143.2225  156.1568 H   0  0  0  0  0  0  0  0  0  0  0  0
  1  2  1  0  0  0  0
  1 19  1  0  0  0  0
  1 20  1  0  0  0  0
  1 21  1  0  0  0  0
  2  7  1  0  0  0  0
  2  3  1  0  0  0  0
  2 22  1  0  0  0  0
  3  4  1  0  0  0  0
  3 23  1  0  0  0  0
  3 24  1  0  0  0  0
  4  5  1  0  0  0  0
  4 25  1  0  0  0  0
  4 26  1  0  0  0  0
  5  6  1  0  0  0  0
  5 27  1  0  0  0  0
  5 28  1  0  0  0  0
  6  7  1  0  0  0  0
  6 29  1  0  0  0  0
  6 30  1  0  0  0  0
  7  8  1  0  0  0  0
  7 31  1  0  0  0  0
  8  9  1  0  0  0  0
  8 32  1  0  0  0  0
  8 33  1  0  0  0  0
  9 10  1  0  0  0  0
  9 34  1  0  0  0  0
  9 43  1  0  0  0  0
 10 11  1  0  0  0  0
 10 35  1  0  0  0  0
 10 36  1  0  0  0  0
 11 12  1  0  0  0  0
 11 13  1  0  0  0  0
 11 37  1  0  0  0  0
 12 38  1  0  0  0  0
 13 18  1  0  0  0  0
 13 14  2  0  0  0  0
 14 15  1  0  0  0  0
 14 39  1  0  0  0  0
 15 16  2  0  0  0  0
 15 40  1  0  0  0  0
 16 17  1  0  0  0  0
 17 18  2  0  0  0  0
 17 41  1  0  0  0  0
 18 42  1  0  0  0  0
M  CHG  1   9   1
M  END
> <s_m_source_file>
AV-unprocessed.smi

> <i_m_source_file_index>
3290

> <i_lp_mmshare_version>
43012

> <i_f3d_flags>
0

> <s_epik_input>
W0NIM11bQ0BASF0xW0NIMl1bQ0gyXVtDSDJdW0NIMl1bQ0BIXTFbQ0gyXVtOSF1bQ0gyXVtDQEhdKFtPSF0pYzJbY0hdW2NIXW5bY0hdW2NIXTI=

> <s_epik_cmdline>
J2VwaWtfcHl0aG9uJywgJy1waCcsICc3LjAnLCAnLXRuJywgJzgnLCAnLW1hJywgJzIwMCcsICctbWV0YWxfYmluZGluZycsICctaW1hZScsICc8aW5maWxlLm1hZT4nLCAnLW9tYWUnLCAnPG91dGZpbGUubWFlPic=

> <r_lp_tautomer_probability>
1

> <r_epik_Ionization_Penalty>
0.00420552

> <r_epik_Ionization_Penalty_Charging>
0.00207255

> <r_epik_Ionization_Penalty_Neutral>
0.00213297

> <r_epik_State_Penalty>
-0

> <r_epik_Charging_Adjusted_Penalty>
0.00207255

> <i_epik_Tot_Q>
1

> <i_epik_Tot_abs_Q>
1

> <r_epik_Metal_State_Penalty>
-0

> <b_epik_Metal_Only>
0

> <s_lp_Force_Field>
OPLS_2005

> <r_lp_Energy>
17.7323

> <b_lp_Chiralities_Consistent>
1

> <s_lp_Variant>
AV-unprocessed.smi:3290-4

> <Gold.Version>
5.8.1

> <Gold.Id.Protein>
6NUR|6NUR_protein|mol2

> <Gold.PLP.Fitness>
56.2578

> <Gold.PLP.PLP>
-45.5927

> <Gold.PLP.part.hbond>
-2.8309

> <Gold.PLP.part.metal>
0.0000

> <Gold.PLP.part.buried>
-2.6186

> <Gold.PLP.part.nonpolar>
-40.7796

> <Gold.PLP.part.repulsive>
0.1051

> <Gold.PLP.ligand.clash>
0.0000

> <Gold.PLP.ligand.torsion>
1.7346

> <Gold.PLP.Chemscore.Hbond>
3.6552

> <Gold.PLP.Chemscore.CHOScore>
1.0340

> <Gold.PLP.Chemscore.Metal>
0.0000

> <Gold.Chemscore.Hbonds>
donor molecule, donor type, donor heavy atom, donor atom, acceptor molecule, acceptor atom, score
      L1  H     9    43       P1  8028  2.00
      L1  H    12    38       P1  7957  0.42
      P1  H 10752 10765       L1    16  0.26
      L1  C    17    41       P1  7948  0.01
      L1  C    17    41       P1  7949  1.00

> <Gold.PLP.Chemscore.Internal.Correction>
0.0667

> <Gold.Rescore>
     Score         DG    S(hbond)    S(metal)    S(lipo)     H(rot)  DE(clash)    DE(int)     intcor
     21.13     -23.46       2.48        0.00     127.62       2.05       0.76       1.57       ----

> <Gold.Chemscore.Fitness>
21.1276

> <Gold.Chemscore.DG>
-23.4622

> <Gold.Chemscore.ZeroCoef>
-5.4800

> <Gold.Chemscore.Hbond>
2.4843

> <Gold.Chemscore.Metal>
0.0000

> <Gold.Chemscore.Lipo>
127.6247

> <Gold.Chemscore.Internal_Hbond>
0.0000

> <Gold.Chemscore.DEClash>
0.7641

> <Gold.Chemscore.DEInternal>
1.5705

> <Gold.Chemscore.Rot>
2.0498

> <Gold.Chemscore.Internal.Correction>
   9.000000E+99

> <Gold.Chemscore.Hbonds>
donor molecule, donor type, donor heavy atom, donor atom, acceptor molecule, acceptor atom, score
      L1  H     9    43       P1  8028  0.96
      L1  H    12    38       P1  7957  0.41
      P1  H 10752 10765       L1    16  0.03

> <Gold.Chemscore.Hbond.Weighted>
-8.2977

> <Gold.Chemscore.Metal.Weighted>
-0.0000

> <Gold.Chemscore.Lipo.Weighted>
-14.9321

> <Gold.Chemscore.Internal_Hbond.Weighted>
0.0000

> <Gold.Chemscore.DEClash.Weighted>
0.7641

> <Gold.Chemscore.DEInternal.Weighted>
1.5705

> <Gold.Chemscore.Rot.Weighted>
5.2475

> <Gold.Chemscore.Internal.Correction.Weighted>
   9.000000E+99

> <Gold.Protein.RotatedTorsions>
[ 6907 6896 6895 6894 ] final  -93.72 input  -60.11 | X-H torsion
[ 7974 7965 7964 7962 ] final -119.28 input  175.53 | X-H torsion
[ 8008 7997 7996 7995 ] final   93.04 input   59.86 | X-H torsion
[ 10167 10162 10161 10158 ] final  -90.76 input  -65.29 | X-H torsion
[ 10718 10713 10712 10709 ] final  -19.03 input   66.30 | X-H torsion
[ 10763 10752 10751 10750 ] final -169.63 input  -60.55 | X-H torsion
[ 11005 11000 10999 10996 ] final  -44.77 input  -57.11 | X-H torsion

> <Gold.Protein.ActiveResidues>
 VAL166  LYS551  ARG553  GLY616  TRP617  ASP618  TYR619  PRO620  LYS621  CYS622 
 ASP623  PHE694  ASN695  SER759  ASP760  ASP761  ALA762  ILE779  LEU786  VAL792 
 PHE793  MET794  SER795  GLU796  ALA797  LYS798  CYS799  TRP800  GLU811  SER814 

> <Gold.Protein.RotatedAtoms>
  150.6928  134.1923  159.4289 H   0  0  0  0  0  0  0  0  0  0  0  0  # atno 6907 bound_to 6896
  151.9893  134.9985  160.0570 H   0  0  0  0  0  0  0  0  0  0  0  0  # atno 6908 bound_to 6896
  152.1682  133.4591  159.4932 H   0  0  0  0  0  0  0  0  0  0  0  0  # atno 6909 bound_to 6896
  145.0643  140.8313  143.4134 H   0  0  0  0  0  0  0  0  0  0  0  0  # atno 7974 bound_to 7965
  156.0423  140.3318  155.7257 H   0  0  0  0  0  0  0  0  0  0  0  0  # atno 8008 bound_to 7997
  155.5726  140.0629  157.2820 H   0  0  0  0  0  0  0  0  0  0  0  0  # atno 8009 bound_to 7997
  154.4398  140.1858  156.0883 H   0  0  0  0  0  0  0  0  0  0  0  0  # atno 8010 bound_to 7997
  140.3516  143.2888  151.9719 H   0  0  0  0  0  0  0  0  0  0  0  0  # atno 10167 bound_to 10162
  156.5513  130.4702  149.6450 H   0  0  0  0  0  0  0  0  0  0  0  0  # atno 10718 bound_to 10713
  154.6502  135.2910  154.9996 H   0  0  0  0  0  0  0  0  0  0  0  0  # atno 10763 bound_to 10752
  154.1091  135.6565  153.4886 H   0  0  0  0  0  0  0  0  0  0  0  0  # atno 10764 bound_to 10752
  153.0372  135.5261  154.7407 H   0  0  0  0  0  0  0  0  0  0  0  0  # atno 10765 bound_to 10752
  141.0472  133.6756  156.2919 H   0  0  0  0  0  0  0  0  0  0  0  0  # atno 11005 bound_to 11000
  145.1371  139.2595  143.5509 LP  0  0  0  0  0  0  0  0  0  0  0  0  # atno 17320 bound_to 7965
  146.3526  140.1038  142.8607 LP  0  0  0  0  0  0  0  0  0  0  0  0  # atno 17321 bound_to 7965
  139.4825  144.6070  151.7502 LP  0  0  0  0  0  0  0  0  0  0  0  0  # atno 17342 bound_to 10162
  140.5213  144.0875  150.6023 LP  0  0  0  0  0  0  0  0  0  0  0  0  # atno 17343 bound_to 10162
  156.2882  130.7109  151.1951 LP  0  0  0  0  0  0  0  0  0  0  0  0  # atno 17370 bound_to 10713
  157.7387  131.0538  150.5279 LP  0  0  0  0  0  0  0  0  0  0  0  0  # atno 17371 bound_to 10713
  140.6124  134.5445  157.5535 LP  0  0  0  0  0  0  0  0  0  0  0  0  # atno 17394 bound_to 11000
  139.9321  134.7943  156.0902 LP  0  0  0  0  0  0  0  0  0  0  0  0  # atno 17395 bound_to 11000

$$$$
