AV-unprocessed.smi:3211|AV-procd|sdf|12274|dock2
  -GOLD-   2272018113D 1   1.00000     0.00000
 Structure written by MMmdl.
 34 35  0  0  0  0  0  0  0  0  1 V2000
  153.1250  142.6821  162.3352 C   0  0  0  0  0  0  0  0  0  0  0  0
  152.4531  143.9780  161.8695 C   0  0  0  0  0  0  0  0  0  0  0  0
  152.0030  143.9122  160.4486 C   0  0  0  0  0  0  0  0  0  0  0  0
  152.0194  142.7917  159.7224 N   0  0  0  0  0  0  0  0  0  0  0  0
  151.5239  142.9800  158.4285 C   0  0  0  0  0  0  0  0  0  0  0  0
  151.4773  141.8274  157.4726 C   0  0  0  0  0  0  0  0  0  0  0  0
  150.9724  142.2449  156.0814 C   0  0  0  0  0  0  0  0  0  0  0  0
  149.5313  142.0565  155.9568 N   0  0  0  0  0  0  0  0  0  0  0  0
  148.9012  141.6502  154.8440 C   0  0  0  0  0  0  0  0  0  0  0  0
  149.4936  141.3791  153.7985 O   0  0  0  0  0  0  0  0  0  0  0  0
  147.4165  141.5623  154.9858 C   0  0  2  0  0  0  0  0  0  0  0  0
  146.6331  140.9836  153.8248 C   0  0  0  0  0  0  0  0  0  0  0  0
  146.5705  142.4650  154.1072 C   0  0  1  0  0  0  0  0  0  0  0  0
  145.3103  143.1008  154.6529 C   0  0  0  0  0  0  0  0  0  0  0  0
  151.1129  144.2676  158.1886 C   0  0  0  0  0  0  0  0  0  0  0  0
  151.3342  145.2901  159.5817 S   0  0  0  0  0  0  0  0  0  0  0  0
  153.4404  142.7606  163.3756 H   0  0  0  0  0  0  0  0  0  0  0  0
  154.0081  142.4597  161.7354 H   0  0  0  0  0  0  0  0  0  0  0  0
  152.4436  141.8345  162.2559 H   0  0  0  0  0  0  0  0  0  0  0  0
  151.5900  144.1962  162.4992 H   0  0  0  0  0  0  0  0  0  0  0  0
  153.1421  144.8158  161.9829 H   0  0  0  0  0  0  0  0  0  0  0  0
  152.4687  141.3821  157.3798 H   0  0  0  0  0  0  0  0  0  0  0  0
  150.8356  141.0430  157.8764 H   0  0  0  0  0  0  0  0  0  0  0  0
  151.2342  143.2838  155.8732 H   0  0  0  0  0  0  0  0  0  0  0  0
  151.4606  141.6428  155.3146 H   0  0  0  0  0  0  0  0  0  0  0  0
  148.9716  142.2573  156.7729 H   0  0  0  0  0  0  0  0  0  0  0  0
  147.0369  141.3490  155.9841 H   0  0  0  0  0  0  0  0  0  0  0  0
  147.1759  140.6676  152.9356 H   0  0  0  0  0  0  0  0  0  0  0  0
  145.7658  140.3747  154.0719 H   0  0  0  0  0  0  0  0  0  0  0  0
  147.0980  143.1028  153.3995 H   0  0  0  0  0  0  0  0  0  0  0  0
  144.8090  142.4312  155.3524 H   0  0  0  0  0  0  0  0  0  0  0  0
  144.6235  143.3295  153.8379 H   0  0  0  0  0  0  0  0  0  0  0  0
  145.5549  144.0273  155.1726 H   0  0  0  0  0  0  0  0  0  0  0  0
  150.6910  144.6741  157.2816 H   0  0  0  0  0  0  0  0  0  0  0  0
  1  2  1  0  0  0  0
  1 17  1  0  0  0  0
  1 18  1  0  0  0  0
  1 19  1  0  0  0  0
  2  3  1  0  0  0  0
  2 20  1  0  0  0  0
  2 21  1  0  0  0  0
  3 16  1  0  0  0  0
  3  4  2  0  0  0  0
  4  5  1  0  0  0  0
  5  6  1  0  0  0  0
  5 15  2  0  0  0  0
  6  7  1  0  0  0  0
  6 22  1  0  0  0  0
  6 23  1  0  0  0  0
  7  8  1  0  0  0  0
  7 24  1  0  0  0  0
  7 25  1  0  0  0  0
  8  9  1  0  0  0  0
  8 26  1  0  0  0  0
  9 10  2  0  0  0  0
  9 11  1  0  0  0  0
 11 13  1  0  0  0  0
 11 12  1  0  0  0  0
 11 27  1  0  0  0  0
 12 13  1  0  0  0  0
 12 28  1  0  0  0  0
 12 29  1  0  0  0  0
 13 14  1  0  0  0  0
 13 30  1  0  0  0  0
 14 31  1  0  0  0  0
 14 32  1  0  0  0  0
 14 33  1  0  0  0  0
 15 16  1  0  0  0  0
 15 34  1  0  0  0  0
M  END
> <s_m_source_file>
AV-unprocessed.smi

> <i_m_source_file_index>
3211

> <i_lp_mmshare_version>
43012

> <i_f3d_flags>
0

> <s_epik_input>
W0NIM11bQ0gyXWMxbmMoW2NIXXMxKVtDSDJdW0NIMl1bTkhdQyg9TylbQ0BASF0yW0NIMl1bQ0BIXTJbQ0gzXQ==

> <s_epik_cmdline>
J2VwaWtfcHl0aG9uJywgJy1waCcsICc3LjAnLCAnLXRuJywgJzgnLCAnLW1hJywgJzIwMCcsICctbWV0YWxfYmluZGluZycsICctaW1hZScsICc8aW5maWxlLm1hZT4nLCAnLW9tYWUnLCAnPG91dGZpbGUubWFlPic=

> <r_epik_Ionization_Penalty>
0.00109667

> <r_epik_Ionization_Penalty_Charging>
0

> <r_epik_Ionization_Penalty_Neutral>
0.00109667

> <r_epik_State_Penalty>
0.000719322

> <r_epik_Charging_Adjusted_Penalty>
0.000719322

> <i_epik_Tot_Q>
0

> <i_epik_Tot_abs_Q>
0

> <r_epik_Metal_State_Penalty>
-0

> <b_epik_Metal_Only>
0

> <s_lp_Force_Field>
OPLS_2005

> <r_lp_Energy>
-0.493762

> <b_lp_Chiralities_Consistent>
1

> <s_lp_Variant>
AV-unprocessed.smi:3211-1

> <Gold.Version>
5.8.1

> <Gold.Id.Protein>
6NUR|6NUR_protein|mol2

> <Gold.PLP.Fitness>
48.1767

> <Gold.PLP.PLP>
-42.5646

> <Gold.PLP.part.hbond>
-3.0000

> <Gold.PLP.part.metal>
0.0000

> <Gold.PLP.part.buried>
-6.9415

> <Gold.PLP.part.nonpolar>
-33.6385

> <Gold.PLP.part.repulsive>
1.8047

> <Gold.PLP.ligand.clash>
0.0000

> <Gold.PLP.ligand.torsion>
0.4880

> <Gold.PLP.Chemscore.Hbond>
1.1648

> <Gold.PLP.Chemscore.CHOScore>
0.9965

> <Gold.PLP.Chemscore.Metal>
0.0000

> <Gold.Chemscore.Hbonds>
donor molecule, donor type, donor heavy atom, donor atom, acceptor molecule, acceptor atom, score
      P1  H  7989  7998       L1    10  0.13
      P1  H  8011  8017       L1    10  0.80
      L1  C    15    34       P1  8028  1.00

> <Gold.PLP.Chemscore.Internal.Correction>
0.1039

> <Gold.Rescore>
     Score         DG    S(hbond)    S(metal)    S(lipo)     H(rot)  DE(clash)    DE(int)     intcor
     17.11     -18.34       1.11        0.00     111.24       1.51       0.74       0.49       ----

> <Gold.Chemscore.Fitness>
17.1076

> <Gold.Chemscore.DG>
-18.3381

> <Gold.Chemscore.ZeroCoef>
-5.4800

> <Gold.Chemscore.Hbond>
1.1100

> <Gold.Chemscore.Metal>
0.0000

> <Gold.Chemscore.Lipo>
111.2408

> <Gold.Chemscore.Internal_Hbond>
0.0000

> <Gold.Chemscore.DEClash>
0.7387

> <Gold.Chemscore.DEInternal>
0.4918

> <Gold.Chemscore.Rot>
1.5096

> <Gold.Chemscore.Internal.Correction>
   9.000000E+99

> <Gold.Chemscore.Hbonds>
donor molecule, donor type, donor heavy atom, donor atom, acceptor molecule, acceptor atom, score
      P1  H  7989  7998       L1    10  0.14
      P1  H  8011  8017       L1    10  0.80

> <Gold.Chemscore.Hbond.Weighted>
-3.7075

> <Gold.Chemscore.Metal.Weighted>
-0.0000

> <Gold.Chemscore.Lipo.Weighted>
-13.0152

> <Gold.Chemscore.Internal_Hbond.Weighted>
0.0000

> <Gold.Chemscore.DEClash.Weighted>
0.7387

> <Gold.Chemscore.DEInternal.Weighted>
0.4918

> <Gold.Chemscore.Rot.Weighted>
3.8646

> <Gold.Chemscore.Internal.Correction.Weighted>
   9.000000E+99

> <Gold.Protein.RotatedTorsions>
[ 6907 6896 6895 6894 ] final  -59.81 input  -60.11 | X-H torsion
[ 7974 7965 7964 7962 ] final  -73.06 input  175.53 | X-H torsion
[ 8008 7997 7996 7995 ] final  -23.99 input   59.86 | X-H torsion
[ 10167 10162 10161 10158 ] final  166.68 input  -65.29 | X-H torsion
[ 10718 10713 10712 10709 ] final  100.12 input   66.30 | X-H torsion
[ 10763 10752 10751 10750 ] final  -96.67 input  -60.55 | X-H torsion
[ 11005 11000 10999 10996 ] final    5.88 input  -57.11 | X-H torsion

> <Gold.Protein.ActiveResidues>
 VAL166  LYS551  ARG553  GLY616  TRP617  ASP618  TYR619  PRO620  LYS621  CYS622 
 ASP623  PHE694  ASN695  SER759  ASP760  ASP761  ALA762  ILE779  LEU786  VAL792 
 PHE793  MET794  SER795  GLU796  ALA797  LYS798  CYS799  TRP800  GLU811  SER814 

> <Gold.Protein.RotatedAtoms>
  150.7902  134.6920  159.6501 H   0  0  0  0  0  0  0  0  0  0  0  0  # atno 6907 bound_to 6896
  152.4007  134.6288  160.0080 H   0  0  0  0  0  0  0  0  0  0  0  0  # atno 6908 bound_to 6896
  151.6561  133.3282  159.3199 H   0  0  0  0  0  0  0  0  0  0  0  0  # atno 6909 bound_to 6896
  145.6571  140.9264  143.0954 H   0  0  0  0  0  0  0  0  0  0  0  0  # atno 7974 bound_to 7965
  154.4554  140.1966  156.0395 H   0  0  0  0  0  0  0  0  0  0  0  0  # atno 8008 bound_to 7997
  156.0735  140.3281  155.7577 H   0  0  0  0  0  0  0  0  0  0  0  0  # atno 8009 bound_to 7997
  155.5225  140.0571  157.2895 H   0  0  0  0  0  0  0  0  0  0  0  0  # atno 8010 bound_to 7997
  139.4929  144.4002  151.9418 H   0  0  0  0  0  0  0  0  0  0  0  0  # atno 10167 bound_to 10162
  157.6861  131.0689  150.5052 H   0  0  0  0  0  0  0  0  0  0  0  0  # atno 10718 bound_to 10713
  154.7260  135.5075  153.8888 H   0  0  0  0  0  0  0  0  0  0  0  0  # atno 10763 bound_to 10752
  153.0905  135.6658  153.9871 H   0  0  0  0  0  0  0  0  0  0  0  0  # atno 10764 bound_to 10752
  153.9683  135.3041  155.3408 H   0  0  0  0  0  0  0  0  0  0  0  0  # atno 10765 bound_to 10752
  140.5658  134.0149  155.7989 H   0  0  0  0  0  0  0  0  0  0  0  0  # atno 11005 bound_to 11000
  144.7102  139.8401  143.7417 LP  0  0  0  0  0  0  0  0  0  0  0  0  # atno 17320 bound_to 7965
  146.1156  139.4166  143.0260 LP  0  0  0  0  0  0  0  0  0  0  0  0  # atno 17321 bound_to 7965
  140.3441  144.3168  150.5961 LP  0  0  0  0  0  0  0  0  0  0  0  0  # atno 17342 bound_to 10162
  140.5541  143.2202  151.7877 LP  0  0  0  0  0  0  0  0  0  0  0  0  # atno 17343 bound_to 10162
  156.5372  130.4199  149.6172 LP  0  0  0  0  0  0  0  0  0  0  0  0  # atno 17370 bound_to 10713
  156.3017  130.7180  151.2054 LP  0  0  0  0  0  0  0  0  0  0  0  0  # atno 17371 bound_to 10713
  141.1087  133.9652  157.2950 LP  0  0  0  0  0  0  0  0  0  0  0  0  # atno 17394 bound_to 11000
  139.9386  135.0194  156.8635 LP  0  0  0  0  0  0  0  0  0  0  0  0  # atno 17395 bound_to 11000

$$$$
