AV-unprocessed.smi:2175|AV-procd|sdf|8844|dock5
  -GOLD-   2272012 33D 1   1.00000     0.00000
 Structure written by MMmdl.
 34 35  0  0  0  0  0  0  0  0  1 V2000
  154.6399  140.9378  161.9665 C   0  0  0  0  0  0  0  0  0  0  0  0
  153.7813  141.3402  160.7873 C   0  0  0  0  0  0  0  0  0  0  0  0
  153.1865  142.5826  160.9314 N   0  0  0  0  0  0  0  0  0  0  0  0
  152.3843  143.0396  159.9009 C   0  0  0  0  0  0  0  0  0  0  0  0
  151.7742  144.4103  160.1370 C   0  0  0  0  0  0  0  0  0  0  0  0
  152.1806  142.2940  158.7852 C   0  0  0  0  0  0  0  0  0  0  0  0
  151.3007  142.7641  157.6279 C   0  0  0  0  0  0  0  0  0  0  0  0
  150.2102  141.7850  157.1858 C   0  0  0  0  0  0  0  0  0  0  0  0
  150.1441  140.6627  157.6876 O   0  0  0  0  0  0  0  0  0  0  0  0
  149.3585  142.2239  156.2467 N   0  0  0  0  0  0  0  0  0  0  0  0
  148.2548  141.4508  155.6921 C   0  0  0  0  0  0  0  0  0  0  0  0
  148.5001  140.8933  154.3026 C   0  0  0  0  0  0  0  0  0  0  0  0
  147.4351  140.0993  153.5833 C   0  0  0  0  0  0  0  0  0  0  0  0
  148.6762  139.4077  154.0947 C   0  0  0  0  0  0  0  0  0  0  0  0
  152.8363  140.9680  158.6927 C   0  0  0  0  0  0  0  0  0  0  0  0
  152.6789  140.2382  157.7150 O   0  0  0  0  0  0  0  0  0  0  0  0
  153.6475  140.5547  159.7622 N   0  0  0  0  0  0  0  0  0  0  0  0
  153.3100  143.1688  161.7442 H   0  0  0  0  0  0  0  0  0  0  0  0
  155.1784  140.0121  161.7592 H   0  0  0  0  0  0  0  0  0  0  0  0
  154.0199  140.7821  162.8498 H   0  0  0  0  0  0  0  0  0  0  0  0
  155.3721  141.7145  162.1891 H   0  0  0  0  0  0  0  0  0  0  0  0
  152.1112  145.1139  159.3757 H   0  0  0  0  0  0  0  0  0  0  0  0
  152.0545  144.8126  161.1112 H   0  0  0  0  0  0  0  0  0  0  0  0
  150.6860  144.3554  160.0996 H   0  0  0  0  0  0  0  0  0  0  0  0
  151.9078  143.0130  156.7571 H   0  0  0  0  0  0  0  0  0  0  0  0
  150.8338  143.7064  157.9162 H   0  0  0  0  0  0  0  0  0  0  0  0
  149.4860  143.1595  155.8892 H   0  0  0  0  0  0  0  0  0  0  0  0
  148.0146  140.6241  156.3627 H   0  0  0  0  0  0  0  0  0  0  0  0
  147.3719  142.0901  155.6706 H   0  0  0  0  0  0  0  0  0  0  0  0
  149.1293  141.5267  153.6799 H   0  0  0  0  0  0  0  0  0  0  0  0
  146.5015  139.9095  154.1092 H   0  0  0  0  0  0  0  0  0  0  0  0
  147.3442  140.2408  152.5084 H   0  0  0  0  0  0  0  0  0  0  0  0
  149.4125  139.0879  153.3602 H   0  0  0  0  0  0  0  0  0  0  0  0
  148.5668  138.7569  154.9599 H   0  0  0  0  0  0  0  0  0  0  0  0
  1 19  1  0  0  0  0
  1 20  1  0  0  0  0
  1 21  1  0  0  0  0
  1  2  1  0  0  0  0
  2  3  1  0  0  0  0
  2 17  2  0  0  0  0
  3  4  1  0  0  0  0
  3 18  1  0  0  0  0
  4  6  2  0  0  0  0
  4  5  1  0  0  0  0
  5 22  1  0  0  0  0
  5 23  1  0  0  0  0
  5 24  1  0  0  0  0
  6 15  1  0  0  0  0
  6  7  1  0  0  0  0
  7  8  1  0  0  0  0
  7 25  1  0  0  0  0
  7 26  1  0  0  0  0
  8  9  2  0  0  0  0
  8 10  1  0  0  0  0
 10 11  1  0  0  0  0
 10 27  1  0  0  0  0
 11 12  1  0  0  0  0
 11 28  1  0  0  0  0
 11 29  1  0  0  0  0
 12 14  1  0  0  0  0
 12 13  1  0  0  0  0
 12 30  1  0  0  0  0
 13 14  1  0  0  0  0
 13 31  1  0  0  0  0
 13 32  1  0  0  0  0
 14 33  1  0  0  0  0
 14 34  1  0  0  0  0
 15 16  2  0  0  0  0
 15 17  1  0  0  0  0
M  END
> <s_m_source_file>
AV-unprocessed.smi

> <i_m_source_file_index>
2175

> <i_lp_mmshare_version>
43012

> <i_f3d_flags>
0

> <s_epik_input>
W0NIM11jMW5jKFtDSDNdKWMoYyg9TylbbkhdMSlbQ0gyXUMoPU8pW05IXVtDSDJdW0NIXTJbQ0gyXVtDSDJdMg==

> <s_epik_cmdline>
J2VwaWtfcHl0aG9uJywgJy1waCcsICc3LjAnLCAnLXRuJywgJzgnLCAnLW1hJywgJzIwMCcsICctbWV0YWxfYmluZGluZycsICctaW1hZScsICc8aW5maWxlLm1hZT4nLCAnLW9tYWUnLCAnPG91dGZpbGUubWFlPic=

> <r_lp_tautomer_probability>
0.156392

> <r_epik_Ionization_Penalty>
0.0142343

> <r_epik_Ionization_Penalty_Charging>
0.0141145

> <r_epik_Ionization_Penalty_Neutral>
0.000119779

> <r_epik_State_Penalty>
1.52879

> <r_epik_Charging_Adjusted_Penalty>
1.5429

> <i_epik_Tot_Q>
0

> <i_epik_Tot_abs_Q>
0

> <r_epik_Metal_State_Penalty>
1.70685

> <b_epik_Metal_Only>
0

> <s_lp_Force_Field>
OPLS_2005

> <r_lp_Energy>
17.5363

> <b_lp_Chiralities_Consistent>
1

> <s_lp_Variant>
AV-unprocessed.smi:2175-2

> <Gold.Version>
5.8.1

> <Gold.Id.Protein>
6NUR|6NUR_protein|mol2

> <Gold.PLP.Fitness>
38.2404

> <Gold.PLP.PLP>
-32.9812

> <Gold.PLP.part.hbond>
-2.0000

> <Gold.PLP.part.metal>
0.0000

> <Gold.PLP.part.buried>
-2.5129

> <Gold.PLP.part.nonpolar>
-28.3208

> <Gold.PLP.part.repulsive>
0.1302

> <Gold.PLP.ligand.clash>
0.0000

> <Gold.PLP.ligand.torsion>
0.5422

> <Gold.PLP.Chemscore.Hbond>
1.9360

> <Gold.PLP.Chemscore.CHOScore>
0.0000

> <Gold.PLP.Chemscore.Metal>
0.0000

> <Gold.Chemscore.Hbonds>
donor molecule, donor type, donor heavy atom, donor atom, acceptor molecule, acceptor atom, score
      L1  H    10    27       P1  8028  0.99
      P1  H  7997  8009       L1    16  0.94

> <Gold.PLP.Chemscore.Internal.Correction>
0.5356

> <Gold.Rescore>
     Score         DG    S(hbond)    S(metal)    S(lipo)     H(rot)  DE(clash)    DE(int)     intcor
     10.89     -15.51       1.68        0.00      76.10       1.75       0.13       4.49       ----

> <Gold.Chemscore.Fitness>
10.8900

> <Gold.Chemscore.DG>
-15.5079

> <Gold.Chemscore.ZeroCoef>
-5.4800

> <Gold.Chemscore.Hbond>
1.6777

> <Gold.Chemscore.Metal>
0.0000

> <Gold.Chemscore.Lipo>
76.0966

> <Gold.Chemscore.Internal_Hbond>
0.0000

> <Gold.Chemscore.DEClash>
0.1314

> <Gold.Chemscore.DEInternal>
4.4865

> <Gold.Chemscore.Rot>
1.7497

> <Gold.Chemscore.Internal.Correction>
   9.000000E+99

> <Gold.Chemscore.Hbonds>
donor molecule, donor type, donor heavy atom, donor atom, acceptor molecule, acceptor atom, score
      L1  H    10    27       P1  8028  0.93
      P1  H  7997  8009       L1    16  0.40

> <Gold.Chemscore.Hbond.Weighted>
-5.6037

> <Gold.Chemscore.Metal.Weighted>
-0.0000

> <Gold.Chemscore.Lipo.Weighted>
-8.9033

> <Gold.Chemscore.Internal_Hbond.Weighted>
0.0000

> <Gold.Chemscore.DEClash.Weighted>
0.1314

> <Gold.Chemscore.DEInternal.Weighted>
4.4865

> <Gold.Chemscore.Rot.Weighted>
4.4791

> <Gold.Chemscore.Internal.Correction.Weighted>
   9.000000E+99

> <Gold.Protein.RotatedTorsions>
[ 6907 6896 6895 6894 ] final  117.95 input  -60.11 | X-H torsion
[ 7974 7965 7964 7962 ] final  -51.48 input  175.53 | X-H torsion
[ 8008 7997 7996 7995 ] final  162.26 input   59.86 | X-H torsion
[ 10167 10162 10161 10158 ] final   59.63 input  -65.29 | X-H torsion
[ 10718 10713 10712 10709 ] final -149.07 input   66.30 | X-H torsion
[ 10763 10752 10751 10750 ] final  -56.38 input  -60.55 | X-H torsion
[ 11005 11000 10999 10996 ] final -154.36 input  -57.11 | X-H torsion

> <Gold.Protein.ActiveResidues>
 VAL166  LYS551  ARG553  GLY616  TRP617  ASP618  TYR619  PRO620  LYS621  CYS622 
 ASP623  PHE694  ASN695  SER759  ASP760  ASP761  ALA762  ILE779  LEU786  VAL792 
 PHE793  MET794  SER795  GLU796  ALA797  LYS798  CYS799  TRP800  GLU811  SER814 

> <Gold.Protein.RotatedAtoms>
  152.4577  133.7757  159.6822 H   0  0  0  0  0  0  0  0  0  0  0  0  # atno 6907 bound_to 6896
  150.8509  133.7778  159.3032 H   0  0  0  0  0  0  0  0  0  0  0  0  # atno 6908 bound_to 6896
  151.5374  135.1071  159.9970 H   0  0  0  0  0  0  0  0  0  0  0  0  # atno 6909 bound_to 6896
  145.9185  140.7854  142.9659 H   0  0  0  0  0  0  0  0  0  0  0  0  # atno 7974 bound_to 7965
  156.2044  140.1755  156.7831 H   0  0  0  0  0  0  0  0  0  0  0  0  # atno 8008 bound_to 7997
  154.5635  140.0695  156.8886 H   0  0  0  0  0  0  0  0  0  0  0  0  # atno 8009 bound_to 7997
  155.2804  140.3348  155.4261 H   0  0  0  0  0  0  0  0  0  0  0  0  # atno 8010 bound_to 7997
  140.1744  144.4245  150.6646 H   0  0  0  0  0  0  0  0  0  0  0  0  # atno 10167 bound_to 10162
  156.4284  130.8063  151.2289 H   0  0  0  0  0  0  0  0  0  0  0  0  # atno 10718 bound_to 10713
  154.2057  135.6403  153.5100 H   0  0  0  0  0  0  0  0  0  0  0  0  # atno 10763 bound_to 10752
  153.0001  135.5462  154.6268 H   0  0  0  0  0  0  0  0  0  0  0  0  # atno 10764 bound_to 10752
  154.5692  135.2915  155.0817 H   0  0  0  0  0  0  0  0  0  0  0  0  # atno 10765 bound_to 10752
  140.6982  134.3966  157.5212 H   0  0  0  0  0  0  0  0  0  0  0  0  # atno 11005 bound_to 11000
  144.6750  140.1938  143.7394 LP  0  0  0  0  0  0  0  0  0  0  0  0  # atno 17320 bound_to 7965
  145.8580  139.2208  143.1733 LP  0  0  0  0  0  0  0  0  0  0  0  0  # atno 17321 bound_to 7965
  140.6561  143.2238  151.5965 LP  0  0  0  0  0  0  0  0  0  0  0  0  # atno 17342 bound_to 10162
  139.5324  144.2878  152.1176 LP  0  0  0  0  0  0  0  0  0  0  0  0  # atno 17343 bound_to 10162
  157.7508  131.0206  150.3715 LP  0  0  0  0  0  0  0  0  0  0  0  0  # atno 17370 bound_to 10713
  156.4047  130.3922  149.6934 LP  0  0  0  0  0  0  0  0  0  0  0  0  # atno 17371 bound_to 10713
  139.8904  134.8805  156.2371 LP  0  0  0  0  0  0  0  0  0  0  0  0  # atno 17394 bound_to 11000
  141.0186  133.7054  156.1229 LP  0  0  0  0  0  0  0  0  0  0  0  0  # atno 17395 bound_to 11000

$$$$
