AV-unprocessed.smi:1672|AV-procd|sdf|6702|dock9
  -GOLD-   22720 7443D 1   1.00000     0.00000
 Structure written by MMmdl.
 48 50  0  0  0  0  0  0  0  0  2 V2000
  144.3354  144.5414  153.8872 C   0  0  0  0  0  0  0  0  0  0  0  0
  145.1334  143.2840  154.2596 C   0  0  2  0  0  0  0  0  0  0  0  0
  145.5678  143.3003  155.7349 C   0  0  0  0  0  0  0  0  0  0  0  0
  146.4012  142.0564  156.0879 C   0  0  0  0  0  0  0  0  0  0  0  0
  147.5857  141.9352  155.2002 N   0  3  1  0  0  0  0  0  0  0  0  0
  148.4907  140.8299  155.6086 C   0  0  0  0  0  0  0  0  0  0  0  0
  149.3351  141.1918  156.8457 C   0  0  1  0  0  0  0  0  0  0  0  0
  149.4633  140.0430  157.6614 O   0  0  0  0  0  0  0  0  0  0  0  0
  150.7358  141.7059  156.4595 C   0  0  0  0  0  0  0  0  0  0  0  0
  151.7678  141.2482  157.3808 N   0  0  0  0  0  0  0  0  0  0  0  0
  152.6521  140.2291  157.2297 C   0  0  0  0  0  0  0  0  0  0  0  0
  152.6911  139.3756  155.9995 C   0  0  0  0  0  0  0  0  0  0  0  0
  153.6104  139.8492  155.0391 O   0  0  0  0  0  0  0  0  0  0  0  0
  153.4912  140.0341  158.2475 N   0  0  0  0  0  0  0  0  0  0  0  0
  153.1194  141.0180  159.1425 C   0  0  0  0  0  0  0  0  0  0  0  0
  153.6283  141.3377  160.4216 C   0  0  0  0  0  0  0  0  0  0  0  0
  153.0784  142.4045  161.1624 C   0  0  0  0  0  0  0  0  0  0  0  0
  152.0149  143.1659  160.6360 C   0  0  0  0  0  0  0  0  0  0  0  0
  151.4934  142.8645  159.3633 C   0  0  0  0  0  0  0  0  0  0  0  0
  152.0447  141.7975  158.6289 C   0  0  0  0  0  0  0  0  0  0  0  0
  147.1875  141.8728  153.7685 C   0  0  0  0  0  0  0  0  0  0  0  0
  146.3739  143.1142  153.3667 C   0  0  0  0  0  0  0  0  0  0  0  0
  144.9345  145.4441  154.0119 H   0  0  0  0  0  0  0  0  0  0  0  0
  143.4476  144.6429  154.5118 H   0  0  0  0  0  0  0  0  0  0  0  0
  144.0048  144.5027  152.8489 H   0  0  0  0  0  0  0  0  0  0  0  0
  144.4836  142.4211  154.1065 H   0  0  0  0  0  0  0  0  0  0  0  0
  146.1513  144.1991  155.9397 H   0  0  0  0  0  0  0  0  0  0  0  0
  144.6908  143.3485  156.3817 H   0  0  0  0  0  0  0  0  0  0  0  0
  146.7251  142.1295  157.1269 H   0  0  0  0  0  0  0  0  0  0  0  0
  145.7900  141.1559  156.0080 H   0  0  0  0  0  0  0  0  0  0  0  0
  147.9093  139.9353  155.8379 H   0  0  0  0  0  0  0  0  0  0  0  0
  149.1330  140.5645  154.7676 H   0  0  0  0  0  0  0  0  0  0  0  0
  148.8336  141.9623  157.4300 H   0  0  0  0  0  0  0  0  0  0  0  0
  149.9421  140.2764  158.4422 H   0  0  0  0  0  0  0  0  0  0  0  0
  150.9894  141.4119  155.4413 H   0  0  0  0  0  0  0  0  0  0  0  0
  150.7442  142.7966  156.4683 H   0  0  0  0  0  0  0  0  0  0  0  0
  152.9717  138.3586  156.2760 H   0  0  0  0  0  0  0  0  0  0  0  0
  151.6978  139.3136  155.5561 H   0  0  0  0  0  0  0  0  0  0  0  0
  153.8980  139.1205  154.5114 H   0  0  0  0  0  0  0  0  0  0  0  0
  154.4431  140.7610  160.8340 H   0  0  0  0  0  0  0  0  0  0  0  0
  153.4749  142.6400  162.1391 H   0  0  0  0  0  0  0  0  0  0  0  0
  151.6001  143.9815  161.2102 H   0  0  0  0  0  0  0  0  0  0  0  0
  150.6792  143.4463  158.9580 H   0  0  0  0  0  0  0  0  0  0  0  0
  148.0671  141.8071  153.1295 H   0  0  0  0  0  0  0  0  0  0  0  0
  146.6030  140.9687  153.5901 H   0  0  0  0  0  0  0  0  0  0  0  0
  146.0725  143.0317  152.3218 H   0  0  0  0  0  0  0  0  0  0  0  0
  147.0056  144.0011  153.4360 H   0  0  0  0  0  0  0  0  0  0  0  0
  148.1145  142.7877  155.3222 H   0  0  0  0  0  0  0  0  0  0  0  0
  1  2  1  0  0  0  0
  1 23  1  0  0  0  0
  1 24  1  0  0  0  0
  1 25  1  0  0  0  0
  2 22  1  0  0  0  0
  2  3  1  0  0  0  0
  2 26  1  0  0  0  0
  3  4  1  0  0  0  0
  3 27  1  0  0  0  0
  3 28  1  0  0  0  0
  4  5  1  0  0  0  0
  4 29  1  0  0  0  0
  4 30  1  0  0  0  0
  5  6  1  0  0  0  0
  5 21  1  0  0  0  0
  5 48  1  0  0  0  0
  6  7  1  0  0  0  0
  6 31  1  0  0  0  0
  6 32  1  0  0  0  0
  7  8  1  0  0  0  0
  7  9  1  0  0  0  0
  7 33  1  0  0  0  0
  8 34  1  0  0  0  0
  9 10  1  0  0  0  0
  9 35  1  0  0  0  0
  9 36  1  0  0  0  0
 10 20  1  0  0  0  0
 10 11  1  0  0  0  0
 11 12  1  0  0  0  0
 11 14  2  0  0  0  0
 12 13  1  0  0  0  0
 12 37  1  0  0  0  0
 12 38  1  0  0  0  0
 13 39  1  0  0  0  0
 14 15  1  0  0  0  0
 15 20  2  0  0  0  0
 15 16  1  0  0  0  0
 16 17  2  0  0  0  0
 16 40  1  0  0  0  0
 17 18  1  0  0  0  0
 17 41  1  0  0  0  0
 18 19  2  0  0  0  0
 18 42  1  0  0  0  0
 19 20  1  0  0  0  0
 19 43  1  0  0  0  0
 21 22  1  0  0  0  0
 21 44  1  0  0  0  0
 21 45  1  0  0  0  0
 22 46  1  0  0  0  0
 22 47  1  0  0  0  0
M  CHG  1   5   1
M  END
> <s_m_source_file>
AV-unprocessed.smi

> <i_m_source_file_index>
1672

> <i_lp_mmshare_version>
43012

> <i_f3d_flags>
0

> <s_epik_input>
W0NIM11bQ0hdMVtDSDJdW0NIMl1OKFtDSDJdW0NIMl0xKVtDSDJdW0NASF0oW09IXSlbQ0gyXW4oYyhuMilbQ0gyXVtPSF0pYyhjMjMpW2NIXVtjSF1bY0hdW2NIXTM=

> <s_epik_cmdline>
J2VwaWtfcHl0aG9uJywgJy1waCcsICc3LjAnLCAnLXRuJywgJzgnLCAnLW1hJywgJzIwMCcsICctbWV0YWxfYmluZGluZycsICctaW1hZScsICc8aW5maWxlLm1hZT4nLCAnLW9tYWUnLCAnPG91dGZpbGUubWFlPic=

> <r_epik_Ionization_Penalty>
0.0498263

> <r_epik_Ionization_Penalty_Charging>
0.00181365

> <r_epik_Ionization_Penalty_Neutral>
0.0480127

> <r_epik_State_Penalty>
0.0408546

> <r_epik_Charging_Adjusted_Penalty>
0.0426682

> <i_epik_Tot_Q>
1

> <i_epik_Tot_abs_Q>
1

> <r_epik_Metal_State_Penalty>
4.22946e-05

> <b_epik_Metal_Only>
0

> <s_lp_Force_Field>
OPLS_2005

> <r_lp_Energy>
23.0912

> <b_lp_Chiralities_Consistent>
1

> <s_lp_Variant>
AV-unprocessed.smi:1672-2

> <Gold.Version>
5.8.1

> <Gold.Id.Protein>
6NUR|6NUR_protein|mol2

> <Gold.PLP.Fitness>
53.7917

> <Gold.PLP.PLP>
-46.1265

> <Gold.PLP.part.hbond>
-4.0000

> <Gold.PLP.part.metal>
0.0000

> <Gold.PLP.part.buried>
-5.7332

> <Gold.PLP.part.nonpolar>
-35.7143

> <Gold.PLP.part.repulsive>
0.0626

> <Gold.PLP.ligand.clash>
0.0000

> <Gold.PLP.ligand.torsion>
1.8573

> <Gold.PLP.Chemscore.Hbond>
3.7785

> <Gold.PLP.Chemscore.CHOScore>
0.0000

> <Gold.PLP.Chemscore.Metal>
0.0000

> <Gold.Chemscore.Hbonds>
donor molecule, donor type, donor heavy atom, donor atom, acceptor molecule, acceptor atom, score
      L1  H     5    48       P1  8028  1.72
      P1  H  7997  8008       L1    13  0.46
      P1  H  7997  8010       L1    14  0.54

> <Gold.PLP.Chemscore.Internal.Correction>
0.0445

> <Gold.Rescore>
     Score         DG    S(hbond)    S(metal)    S(lipo)     H(rot)  DE(clash)    DE(int)     intcor
     14.20     -16.31       1.27        0.00     119.30       2.88       0.23       1.88       ----

> <Gold.Chemscore.Fitness>
14.1959

> <Gold.Chemscore.DG>
-16.3110

> <Gold.Chemscore.ZeroCoef>
-5.4800

> <Gold.Chemscore.Hbond>
1.2695

> <Gold.Chemscore.Metal>
0.0000

> <Gold.Chemscore.Lipo>
119.2987

> <Gold.Chemscore.Internal_Hbond>
0.0000

> <Gold.Chemscore.DEClash>
0.2349

> <Gold.Chemscore.DEInternal>
1.8802

> <Gold.Chemscore.Rot>
2.8778

> <Gold.Chemscore.Internal.Correction>
   9.000000E+99

> <Gold.Chemscore.Hbonds>
donor molecule, donor type, donor heavy atom, donor atom, acceptor molecule, acceptor atom, score
      L1  H     5    48       P1  8028  0.80
      P1  H  7997  8008       L1    13  0.12
      P1  H  7997  8010       L1    14  0.05

> <Gold.Chemscore.Hbond.Weighted>
-4.2401

> <Gold.Chemscore.Metal.Weighted>
-0.0000

> <Gold.Chemscore.Lipo.Weighted>
-13.9579

> <Gold.Chemscore.Internal_Hbond.Weighted>
0.0000

> <Gold.Chemscore.DEClash.Weighted>
0.2349

> <Gold.Chemscore.DEInternal.Weighted>
1.8802

> <Gold.Chemscore.Rot.Weighted>
7.3671

> <Gold.Chemscore.Internal.Correction.Weighted>
   9.000000E+99

> <Gold.Protein.RotatedTorsions>
[ 6907 6896 6895 6894 ] final -130.12 input  -60.11 | X-H torsion
[ 7974 7965 7964 7962 ] final  168.37 input  175.53 | X-H torsion
[ 8008 7997 7996 7995 ] final   13.23 input   59.86 | X-H torsion
[ 10167 10162 10161 10158 ] final    5.00 input  -65.29 | X-H torsion
[ 10718 10713 10712 10709 ] final   36.81 input   66.30 | X-H torsion
[ 10763 10752 10751 10750 ] final  -61.63 input  -60.55 | X-H torsion
[ 11005 11000 10999 10996 ] final  -48.85 input  -57.11 | X-H torsion

> <Gold.Protein.ActiveResidues>
 VAL166  LYS551  ARG553  GLY616  TRP617  ASP618  TYR619  PRO620  LYS621  CYS622 
 ASP623  PHE694  ASN695  SER759  ASP760  ASP761  ALA762  ILE779  LEU786  VAL792 
 PHE793  MET794  SER795  GLU796  ALA797  LYS798  CYS799  TRP800  GLU811  SER814 

> <Gold.Protein.RotatedAtoms>
  150.9362  133.6708  159.2799 H   0  0  0  0  0  0  0  0  0  0  0  0  # atno 6907 bound_to 6896
  151.4113  135.0984  159.9595 H   0  0  0  0  0  0  0  0  0  0  0  0  # atno 6908 bound_to 6896
  152.5049  133.8835  159.7413 H   0  0  0  0  0  0  0  0  0  0  0  0  # atno 6909 bound_to 6896
  144.7391  139.8897  143.6402 H   0  0  0  0  0  0  0  0  0  0  0  0  # atno 7974 bound_to 7965
  154.8316  140.2900  155.5718 H   0  0  0  0  0  0  0  0  0  0  0  0  # atno 8008 bound_to 7997
  156.3006  140.2531  156.3173 H   0  0  0  0  0  0  0  0  0  0  0  0  # atno 8009 bound_to 7997
  154.9225  140.0385  157.1994 H   0  0  0  0  0  0  0  0  0  0  0  0  # atno 8010 bound_to 7997
  140.6505  143.7556  150.7568 H   0  0  0  0  0  0  0  0  0  0  0  0  # atno 10167 bound_to 10162
  157.3394  130.7539  149.6901 H   0  0  0  0  0  0  0  0  0  0  0  0  # atno 10718 bound_to 10713
  154.2875  135.6260  153.5372 H   0  0  0  0  0  0  0  0  0  0  0  0  # atno 10763 bound_to 10752
  152.9857  135.5648  154.5427 H   0  0  0  0  0  0  0  0  0  0  0  0  # atno 10764 bound_to 10752
  154.5030  135.2873  155.1381 H   0  0  0  0  0  0  0  0  0  0  0  0  # atno 10765 bound_to 10752
  141.0725  133.6675  156.3501 H   0  0  0  0  0  0  0  0  0  0  0  0  # atno 11005 bound_to 11000
  146.1151  139.4161  143.0263 LP  0  0  0  0  0  0  0  0  0  0  0  0  # atno 17320 bound_to 7965
  145.7386  141.0016  143.1313 LP  0  0  0  0  0  0  0  0  0  0  0  0  # atno 17321 bound_to 7965
  140.1206  143.4616  152.2315 LP  0  0  0  0  0  0  0  0  0  0  0  0  # atno 17342 bound_to 10162
  139.5720  144.7467  151.3866 LP  0  0  0  0  0  0  0  0  0  0  0  0  # atno 17343 bound_to 10162
  155.9705  130.4172  150.4268 LP  0  0  0  0  0  0  0  0  0  0  0  0  # atno 17370 bound_to 10713
  157.2313  131.0505  151.2490 LP  0  0  0  0  0  0  0  0  0  0  0  0  # atno 17371 bound_to 10713
  140.5643  134.5903  157.5442 LP  0  0  0  0  0  0  0  0  0  0  0  0  # atno 17394 bound_to 11000
  139.9538  134.7571  156.0388 LP  0  0  0  0  0  0  0  0  0  0  0  0  # atno 17395 bound_to 11000

$$$$
