AV-unprocessed.smi:1739|AV-procd|sdf|7005|dock8
  -GOLD-   22720 8213D 1   1.00000     0.00000
 Structure written by MMmdl.
 41 42  0  0  0  0  0  0  0  0  1 V2000
  152.9946  142.7997  162.5112 C   0  0  0  0  0  0  0  0  0  0  0  0
  153.3909  142.1431  161.1829 C   0  0  0  0  0  0  0  0  0  0  0  0
  152.6700  142.7112  160.0598 N   0  0  0  0  0  0  0  0  0  0  0  0
  151.8487  142.0646  159.1573 C   0  0  0  0  0  0  0  0  0  0  0  0
  151.4069  143.0323  158.2999 C   0  0  0  0  0  0  0  0  0  0  0  0
  150.5436  142.9174  157.1808 N   0  0  0  0  0  0  0  0  0  0  0  0
  150.0128  141.7930  156.6730 C   0  0  0  0  0  0  0  0  0  0  0  0
  150.1718  140.6636  157.1366 O   0  0  0  0  0  0  0  0  0  0  0  0
  149.2722  142.0516  155.5855 N   0  0  0  0  0  0  0  0  0  0  0  0
  148.5577  141.0527  154.7963 C   0  0  0  0  0  0  0  0  0  0  0  0
  147.3273  140.5508  155.5822 C   0  0  0  0  0  0  0  0  0  0  0  0
  146.6544  139.3649  154.8676 C   0  0  0  0  0  0  0  0  0  0  0  0
  147.6504  138.3051  154.6711 N   0  0  0  0  0  0  0  0  0  0  0  0
  147.6277  137.1413  155.3644 C   0  0  0  0  0  0  0  0  0  0  0  0
  148.7570  136.1282  155.1640 C   0  0  0  0  0  0  0  0  0  0  0  0
  146.7328  136.8591  156.1615 O   0  0  0  0  0  0  0  0  0  0  0  0
  148.7203  138.7318  153.7608 C   0  0  0  0  0  0  0  0  0  0  0  0
  149.4988  139.8867  154.4158 C   0  0  0  0  0  0  0  0  0  0  0  0
  152.0012  144.2424  158.7428 C   0  0  0  0  0  0  0  0  0  0  0  0
  152.7608  144.0412  159.8089 N   0  0  0  0  0  0  0  0  0  0  0  0
  153.5619  142.3723  163.3382 H   0  0  0  0  0  0  0  0  0  0  0  0
  151.9355  142.6531  162.7257 H   0  0  0  0  0  0  0  0  0  0  0  0
  153.1887  143.8723  162.4932 H   0  0  0  0  0  0  0  0  0  0  0  0
  154.4604  142.2667  161.0092 H   0  0  0  0  0  0  0  0  0  0  0  0
  153.1968  141.0705  161.2164 H   0  0  0  0  0  0  0  0  0  0  0  0
  151.6634  141.0020  159.2095 H   0  0  0  0  0  0  0  0  0  0  0  0
  150.3135  143.7817  156.7126 H   0  0  0  0  0  0  0  0  0  0  0  0
  149.1968  143.0105  155.2788 H   0  0  0  0  0  0  0  0  0  0  0  0
  148.1926  141.5135  153.8763 H   0  0  0  0  0  0  0  0  0  0  0  0
  147.6286  140.2379  156.5834 H   0  0  0  0  0  0  0  0  0  0  0  0
  146.6100  141.3616  155.7139 H   0  0  0  0  0  0  0  0  0  0  0  0
  145.7872  139.0305  155.4386 H   0  0  0  0  0  0  0  0  0  0  0  0
  146.2662  139.6813  153.8985 H   0  0  0  0  0  0  0  0  0  0  0  0
  149.7232  136.5719  155.4064 H   0  0  0  0  0  0  0  0  0  0  0  0
  148.7776  135.7710  154.1340 H   0  0  0  0  0  0  0  0  0  0  0  0
  148.6160  135.2632  155.8129 H   0  0  0  0  0  0  0  0  0  0  0  0
  149.4055  137.9315  153.4856 H   0  0  0  0  0  0  0  0  0  0  0  0
  148.2778  139.0690  152.8222 H   0  0  0  0  0  0  0  0  0  0  0  0
  150.2789  140.2381  153.7394 H   0  0  0  0  0  0  0  0  0  0  0  0
  150.0070  139.5141  155.3068 H   0  0  0  0  0  0  0  0  0  0  0  0
  151.9089  145.2389  158.3364 H   0  0  0  0  0  0  0  0  0  0  0  0
  1  2  1  0  0  0  0
  1 21  1  0  0  0  0
  1 22  1  0  0  0  0
  1 23  1  0  0  0  0
  2  3  1  0  0  0  0
  2 24  1  0  0  0  0
  2 25  1  0  0  0  0
  3 20  1  0  0  0  0
  3  4  1  0  0  0  0
  4  5  2  0  0  0  0
  4 26  1  0  0  0  0
  5  6  1  0  0  0  0
  5 19  1  0  0  0  0
  6  7  1  0  0  0  0
  6 27  1  0  0  0  0
  7  8  2  0  0  0  0
  7  9  1  0  0  0  0
  9 10  1  0  0  0  0
  9 28  1  0  0  0  0
 10 18  1  0  0  0  0
 10 11  1  0  0  0  0
 10 29  1  0  0  0  0
 11 12  1  0  0  0  0
 11 30  1  0  0  0  0
 11 31  1  0  0  0  0
 12 13  1  0  0  0  0
 12 32  1  0  0  0  0
 12 33  1  0  0  0  0
 13 14  1  0  0  0  0
 13 17  1  0  0  0  0
 14 15  1  0  0  0  0
 14 16  2  0  0  0  0
 15 34  1  0  0  0  0
 15 35  1  0  0  0  0
 15 36  1  0  0  0  0
 17 18  1  0  0  0  0
 17 37  1  0  0  0  0
 17 38  1  0  0  0  0
 18 39  1  0  0  0  0
 18 40  1  0  0  0  0
 19 20  2  0  0  0  0
 19 41  1  0  0  0  0
M  END
> <s_m_source_file>
AV-unprocessed.smi

> <i_m_source_file_index>
1739

> <i_lp_mmshare_version>
43012

> <i_f3d_flags>
0

> <s_epik_input>
W0NIM11bQ0gyXW4xW2NIXWMoW2NIXW4xKVtOSF1DKD1PKVtOSF1bQ0hdMltDSDJdW0NIMl1OKEMoPU8pW0NIM10pW0NIMl1bQ0gyXTI=

> <s_epik_cmdline>
J2VwaWtfcHl0aG9uJywgJy1waCcsICc3LjAnLCAnLXRuJywgJzgnLCAnLW1hJywgJzIwMCcsICctbWV0YWxfYmluZGluZycsICctaW1hZScsICc8aW5maWxlLm1hZT4nLCAnLW9tYWUnLCAnPG91dGZpbGUubWFlPic=

> <r_lp_tautomer_probability>
1

> <r_epik_Ionization_Penalty>
0.000185887

> <r_epik_Ionization_Penalty_Charging>
0

> <r_epik_Ionization_Penalty_Neutral>
0.000185887

> <r_epik_State_Penalty>
-0

> <r_epik_Charging_Adjusted_Penalty>
0

> <i_epik_Tot_Q>
0

> <i_epik_Tot_abs_Q>
0

> <r_epik_Metal_State_Penalty>
-0

> <b_epik_Metal_Only>
0

> <s_lp_Force_Field>
OPLS_2005

> <r_lp_Energy>
25.6807

> <b_lp_Chiralities_Consistent>
1

> <s_lp_Variant>
AV-unprocessed.smi:1739-1

> <Gold.Version>
5.8.1

> <Gold.Id.Protein>
6NUR|6NUR_protein|mol2

> <Gold.PLP.Fitness>
39.3885

> <Gold.PLP.PLP>
-33.9280

> <Gold.PLP.part.hbond>
-2.0000

> <Gold.PLP.part.metal>
0.0000

> <Gold.PLP.part.buried>
-2.7952

> <Gold.PLP.part.nonpolar>
-29.3263

> <Gold.PLP.part.repulsive>
0.1868

> <Gold.PLP.ligand.clash>
0.0000

> <Gold.PLP.ligand.torsion>
0.1230

> <Gold.PLP.Chemscore.Hbond>
1.8960

> <Gold.PLP.Chemscore.CHOScore>
0.0000

> <Gold.PLP.Chemscore.Metal>
0.0000

> <Gold.Chemscore.Hbonds>
donor molecule, donor type, donor heavy atom, donor atom, acceptor molecule, acceptor atom, score
      L1  H     6    27       P1  8028  0.90
      L1  H     9    28       P1  8028  1.00

> <Gold.PLP.Chemscore.Internal.Correction>
0.0185

> <Gold.Rescore>
     Score         DG    S(hbond)    S(metal)    S(lipo)     H(rot)  DE(clash)    DE(int)     intcor
     16.28     -18.66       1.94        0.00      83.71       1.22       0.05       2.33       ----

> <Gold.Chemscore.Fitness>
16.2756

> <Gold.Chemscore.DG>
-18.6553

> <Gold.Chemscore.ZeroCoef>
-5.4800

> <Gold.Chemscore.Hbond>
1.9449

> <Gold.Chemscore.Metal>
0.0000

> <Gold.Chemscore.Lipo>
83.7089

> <Gold.Chemscore.Internal_Hbond>
0.0000

> <Gold.Chemscore.DEClash>
0.0487

> <Gold.Chemscore.DEInternal>
2.3310

> <Gold.Chemscore.Rot>
1.2166

> <Gold.Chemscore.Internal.Correction>
   9.000000E+99

> <Gold.Chemscore.Hbonds>
donor molecule, donor type, donor heavy atom, donor atom, acceptor molecule, acceptor atom, score
      L1  H     6    27       P1  8028  0.85
      L1  H     9    28       P1  8028  0.94

> <Gold.Chemscore.Hbond.Weighted>
-6.4959

> <Gold.Chemscore.Metal.Weighted>
-0.0000

> <Gold.Chemscore.Lipo.Weighted>
-9.7939

> <Gold.Chemscore.Internal_Hbond.Weighted>
0.0000

> <Gold.Chemscore.DEClash.Weighted>
0.0487

> <Gold.Chemscore.DEInternal.Weighted>
2.3310

> <Gold.Chemscore.Rot.Weighted>
3.1145

> <Gold.Chemscore.Internal.Correction.Weighted>
   9.000000E+99

> <Gold.Protein.RotatedTorsions>
[ 6907 6896 6895 6894 ] final   16.83 input  -60.11 | X-H torsion
[ 7974 7965 7964 7962 ] final -126.05 input  175.53 | X-H torsion
[ 8008 7997 7996 7995 ] final  -51.69 input   59.86 | X-H torsion
[ 10167 10162 10161 10158 ] final -132.93 input  -65.29 | X-H torsion
[ 10718 10713 10712 10709 ] final  128.12 input   66.30 | X-H torsion
[ 10763 10752 10751 10750 ] final  159.61 input  -60.55 | X-H torsion
[ 11005 11000 10999 10996 ] final    4.13 input  -57.11 | X-H torsion

> <Gold.Protein.ActiveResidues>
 VAL166  LYS551  ARG553  GLY616  TRP617  ASP618  TYR619  PRO620  LYS621  CYS622 
 ASP623  PHE694  ASN695  SER759  ASP760  ASP761  ALA762  ILE779  LEU786  VAL792 
 PHE793  MET794  SER795  GLU796  ALA797  LYS798  CYS799  TRP800  GLU811  SER814 

> <Gold.Protein.RotatedAtoms>
  151.8401  135.0593  160.0446 H   0  0  0  0  0  0  0  0  0  0  0  0  # atno 6907 bound_to 6896
  152.2815  133.5471  159.5509 H   0  0  0  0  0  0  0  0  0  0  0  0  # atno 6908 bound_to 6896
  150.7191  134.0473  159.3828 H   0  0  0  0  0  0  0  0  0  0  0  0  # atno 6909 bound_to 6896
  144.9913  140.7734  143.4552 H   0  0  0  0  0  0  0  0  0  0  0  0  # atno 7974 bound_to 7965
  154.4089  140.1242  156.4870 H   0  0  0  0  0  0  0  0  0  0  0  0  # atno 8008 bound_to 7997
  155.7028  140.3494  155.4921 H   0  0  0  0  0  0  0  0  0  0  0  0  # atno 8009 bound_to 7997
  155.9369  140.1080  157.1077 H   0  0  0  0  0  0  0  0  0  0  0  0  # atno 8010 bound_to 7997
  139.9035  143.6579  152.2590 H   0  0  0  0  0  0  0  0  0  0  0  0  # atno 10167 bound_to 10162
  157.5273  131.1098  150.9063 H   0  0  0  0  0  0  0  0  0  0  0  0  # atno 10718 bound_to 10713
  154.2345  135.2777  155.2877 H   0  0  0  0  0  0  0  0  0  0  0  0  # atno 10763 bound_to 10752
  154.5596  135.5651  153.6999 H   0  0  0  0  0  0  0  0  0  0  0  0  # atno 10764 bound_to 10752
  153.0013  135.6294  154.2488 H   0  0  0  0  0  0  0  0  0  0  0  0  # atno 10765 bound_to 10752
  140.5853  133.9974  155.8065 H   0  0  0  0  0  0  0  0  0  0  0  0  # atno 11005 bound_to 11000
  145.2282  139.2127  143.5057 LP  0  0  0  0  0  0  0  0  0  0  0  0  # atno 17320 bound_to 7965
  146.3432  140.2153  142.8590 LP  0  0  0  0  0  0  0  0  0  0  0  0  # atno 17321 bound_to 7965
  139.7005  144.7635  151.1282 LP  0  0  0  0  0  0  0  0  0  0  0  0  # atno 17342 bound_to 10162
  140.7701  143.5465  150.9253 LP  0  0  0  0  0  0  0  0  0  0  0  0  # atno 17343 bound_to 10162
  156.9656  130.5471  149.5288 LP  0  0  0  0  0  0  0  0  0  0  0  0  # atno 17370 bound_to 10713
  156.0396  130.5480  150.8739 LP  0  0  0  0  0  0  0  0  0  0  0  0  # atno 17371 bound_to 10713
  141.0970  133.9828  157.3144 LP  0  0  0  0  0  0  0  0  0  0  0  0  # atno 17394 bound_to 11000
  139.9298  135.0200  156.8362 LP  0  0  0  0  0  0  0  0  0  0  0  0  # atno 17395 bound_to 11000

$$$$
