AV-unprocessed.smi:2435|AV-procd|sdf|9592|dock2
  -GOLD-   2272013223D 1   1.00000     0.00000
 Structure written by MMmdl.
 44 45  0  0  0  0  0  0  0  0  1 V2000
  152.3239  138.0228  154.7925 C   0  0  0  0  0  0  0  0  0  0  0  0
  151.1920  137.4207  155.3968 O   0  0  0  0  0  0  0  0  0  0  0  0
  151.3447  136.0993  155.6276 C   0  0  0  0  0  0  0  0  0  0  0  0
  150.7093  135.0009  155.1177 C   0  0  0  0  0  0  0  0  0  0  0  0
  149.6638  134.9120  154.1633 N   0  0  0  0  0  0  0  0  0  0  0  0
  148.6068  134.0848  154.1882 C   0  0  0  0  0  0  0  0  0  0  0  0
  148.3797  133.2542  155.0675 O   0  0  0  0  0  0  0  0  0  0  0  0
  147.8047  134.2894  153.1333 N   0  0  0  0  0  0  0  0  0  0  0  0
  146.5660  133.5657  152.8550 C   0  0  0  0  0  0  0  0  0  0  0  0
  146.9359  132.1600  152.3452 C   0  0  0  0  0  0  0  0  0  0  0  0
  145.7439  131.2598  151.9759 C   0  0  0  0  0  0  0  0  0  0  0  0
  145.0821  131.6644  150.6489 C   0  0  0  0  0  0  0  0  0  0  0  0
  143.9991  132.7519  150.7564 C   0  0  0  0  0  0  0  0  0  0  0  0
  144.2448  133.8689  151.7859 C   0  0  0  0  0  0  0  0  0  0  0  0
  145.6910  134.3831  151.8779 C   0  0  0  0  0  0  0  0  0  0  0  0
  151.2795  133.8939  155.8051 C   0  0  0  0  0  0  0  0  0  0  0  0
  150.9512  132.4331  155.6886 C   0  0  0  0  0  0  0  0  0  0  0  0
  152.2331  134.2878  156.6419 N   0  0  0  0  0  0  0  0  0  0  0  0
  152.2816  135.6377  156.5278 N   0  0  0  0  0  0  0  0  0  0  0  0
  153.2232  136.3940  157.3273 C   0  0  0  0  0  0  0  0  0  0  0  0
  152.1259  139.0802  154.6182 H   0  0  0  0  0  0  0  0  0  0  0  0
  152.5474  137.5586  153.8307 H   0  0  0  0  0  0  0  0  0  0  0  0
  153.2067  137.9475  155.4285 H   0  0  0  0  0  0  0  0  0  0  0  0
  149.6755  135.6089  153.4332 H   0  0  0  0  0  0  0  0  0  0  0  0
  148.0709  135.0001  152.4677 H   0  0  0  0  0  0  0  0  0  0  0  0
  146.0220  133.4443  153.7938 H   0  0  0  0  0  0  0  0  0  0  0  0
  147.6091  132.2387  151.4901 H   0  0  0  0  0  0  0  0  0  0  0  0
  147.5106  131.6563  153.1238 H   0  0  0  0  0  0  0  0  0  0  0  0
  146.1227  130.2432  151.8640 H   0  0  0  0  0  0  0  0  0  0  0  0
  145.0138  131.2171  152.7849 H   0  0  0  0  0  0  0  0  0  0  0  0
  145.8505  131.9833  149.9438 H   0  0  0  0  0  0  0  0  0  0  0  0
  144.6273  130.7827  150.1954 H   0  0  0  0  0  0  0  0  0  0  0  0
  143.8663  133.1969  149.7698 H   0  0  0  0  0  0  0  0  0  0  0  0
  143.0447  132.2805  150.9937 H   0  0  0  0  0  0  0  0  0  0  0  0
  143.5901  134.7033  151.5320 H   0  0  0  0  0  0  0  0  0  0  0  0
  143.9138  133.5391  152.7714 H   0  0  0  0  0  0  0  0  0  0  0  0
  145.6441  135.4119  152.2375 H   0  0  0  0  0  0  0  0  0  0  0  0
  146.1487  134.4364  150.8891 H   0  0  0  0  0  0  0  0  0  0  0  0
  150.4090  132.2197  154.7673 H   0  0  0  0  0  0  0  0  0  0  0  0
  150.3301  132.1059  156.5228 H   0  0  0  0  0  0  0  0  0  0  0  0
  151.8550  131.8234  155.6861 H   0  0  0  0  0  0  0  0  0  0  0  0
  153.5749  137.2593  156.7650 H   0  0  0  0  0  0  0  0  0  0  0  0
  154.0816  135.7746  157.5910 H   0  0  0  0  0  0  0  0  0  0  0  0
  152.7345  136.7364  158.2396 H   0  0  0  0  0  0  0  0  0  0  0  0
  1  2  1  0  0  0  0
  1 21  1  0  0  0  0
  1 22  1  0  0  0  0
  1 23  1  0  0  0  0
  2  3  1  0  0  0  0
  3 19  1  0  0  0  0
  3  4  2  0  0  0  0
  4  5  1  0  0  0  0
  4 16  1  0  0  0  0
  5  6  1  0  0  0  0
  5 24  1  0  0  0  0
  6  7  2  0  0  0  0
  6  8  1  0  0  0  0
  8  9  1  0  0  0  0
  8 25  1  0  0  0  0
  9 15  1  0  0  0  0
  9 10  1  0  0  0  0
  9 26  1  0  0  0  0
 10 11  1  0  0  0  0
 10 27  1  0  0  0  0
 10 28  1  0  0  0  0
 11 12  1  0  0  0  0
 11 29  1  0  0  0  0
 11 30  1  0  0  0  0
 12 13  1  0  0  0  0
 12 31  1  0  0  0  0
 12 32  1  0  0  0  0
 13 14  1  0  0  0  0
 13 33  1  0  0  0  0
 13 34  1  0  0  0  0
 14 15  1  0  0  0  0
 14 35  1  0  0  0  0
 14 36  1  0  0  0  0
 15 37  1  0  0  0  0
 15 38  1  0  0  0  0
 16 17  1  0  0  0  0
 16 18  2  0  0  0  0
 17 39  1  0  0  0  0
 17 40  1  0  0  0  0
 17 41  1  0  0  0  0
 18 19  1  0  0  0  0
 19 20  1  0  0  0  0
 20 42  1  0  0  0  0
 20 43  1  0  0  0  0
 20 44  1  0  0  0  0
M  END
> <s_m_source_file>
AV-unprocessed.smi

> <i_m_source_file_index>
2435

> <i_lp_mmshare_version>
43012

> <i_f3d_flags>
0

> <s_epik_input>
W0NIM11uMW5jKFtDSDNdKWMoYzFPW0NIM10pW05IXUMoPU8pW05IXVtDSF0yW0NIMl1bQ0gyXVtDSDJdW0NIMl1bQ0gyXVtDSDJdMg==

> <s_epik_cmdline>
J2VwaWtfcHl0aG9uJywgJy1waCcsICc3LjAnLCAnLXRuJywgJzgnLCAnLW1hJywgJzIwMCcsICctbWV0YWxfYmluZGluZycsICctaW1hZScsICc8aW5maWxlLm1hZT4nLCAnLW9tYWUnLCAnPG91dGZpbGUubWFlPic=

> <r_lp_tautomer_probability>
1

> <r_epik_Ionization_Penalty>
0.000417553

> <r_epik_Ionization_Penalty_Charging>
0

> <r_epik_Ionization_Penalty_Neutral>
0.000417553

> <r_epik_State_Penalty>
-0

> <r_epik_Charging_Adjusted_Penalty>
0

> <i_epik_Tot_Q>
0

> <i_epik_Tot_abs_Q>
0

> <r_epik_Metal_State_Penalty>
-0

> <b_epik_Metal_Only>
0

> <s_lp_Force_Field>
OPLS_2005

> <r_lp_Energy>
21.6667

> <b_lp_Chiralities_Consistent>
1

> <s_lp_Variant>
AV-unprocessed.smi:2435-1

> <Gold.Version>
5.8.1

> <Gold.Id.Protein>
6NUR|6NUR_protein|mol2

> <Gold.PLP.Fitness>
36.4020

> <Gold.PLP.PLP>
-31.5154

> <Gold.PLP.part.hbond>
-3.0000

> <Gold.PLP.part.metal>
0.0000

> <Gold.PLP.part.buried>
-4.6841

> <Gold.PLP.part.nonpolar>
-23.7707

> <Gold.PLP.part.repulsive>
0.1286

> <Gold.PLP.ligand.clash>
0.0000

> <Gold.PLP.ligand.torsion>
0.5538

> <Gold.PLP.Chemscore.Hbond>
1.9920

> <Gold.PLP.Chemscore.CHOScore>
0.0000

> <Gold.PLP.Chemscore.Metal>
0.0000

> <Gold.Chemscore.Hbonds>
donor molecule, donor type, donor heavy atom, donor atom, acceptor molecule, acceptor atom, score
      L1  H     5    24       P1  7948  0.62
      L1  H     8    25       P1  7948  1.00

> <Gold.PLP.Chemscore.Internal.Correction>
0.0181

> <Gold.Rescore>
     Score         DG    S(hbond)    S(metal)    S(lipo)     H(rot)  DE(clash)    DE(int)     intcor
     15.92     -16.77       1.77        0.00      72.46       1.21       0.01       0.85       ----

> <Gold.Chemscore.Fitness>
15.9165

> <Gold.Chemscore.DG>
-16.7718

> <Gold.Chemscore.ZeroCoef>
-5.4800

> <Gold.Chemscore.Hbond>
1.7713

> <Gold.Chemscore.Metal>
0.0000

> <Gold.Chemscore.Lipo>
72.4600

> <Gold.Chemscore.Internal_Hbond>
0.0000

> <Gold.Chemscore.DEClash>
0.0057

> <Gold.Chemscore.DEInternal>
0.8495

> <Gold.Chemscore.Rot>
1.2119

> <Gold.Chemscore.Internal.Correction>
   9.000000E+99

> <Gold.Chemscore.Hbonds>
donor molecule, donor type, donor heavy atom, donor atom, acceptor molecule, acceptor atom, score
      L1  H     5    24       P1  7948  0.05
      L1  H     8    25       P1  7948  0.80

> <Gold.Chemscore.Hbond.Weighted>
-5.9163

> <Gold.Chemscore.Metal.Weighted>
-0.0000

> <Gold.Chemscore.Lipo.Weighted>
-8.4778

> <Gold.Chemscore.Internal_Hbond.Weighted>
0.0000

> <Gold.Chemscore.DEClash.Weighted>
0.0057

> <Gold.Chemscore.DEInternal.Weighted>
0.8495

> <Gold.Chemscore.Rot.Weighted>
3.1024

> <Gold.Chemscore.Internal.Correction.Weighted>
   9.000000E+99

> <Gold.Protein.RotatedTorsions>
[ 6907 6896 6895 6894 ] final -127.04 input  -60.11 | X-H torsion
[ 7974 7965 7964 7962 ] final   60.29 input  175.53 | X-H torsion
[ 8008 7997 7996 7995 ] final -113.67 input   59.86 | X-H torsion
[ 10167 10162 10161 10158 ] final   -6.40 input  -65.29 | X-H torsion
[ 10718 10713 10712 10709 ] final  150.91 input   66.30 | X-H torsion
[ 10763 10752 10751 10750 ] final  -39.31 input  -60.55 | X-H torsion
[ 11005 11000 10999 10996 ] final  -78.28 input  -57.11 | X-H torsion

> <Gold.Protein.ActiveResidues>
 VAL166  LYS551  ARG553  GLY616  TRP617  ASP618  TYR619  PRO620  LYS621  CYS622 
 ASP623  PHE694  ASN695  SER759  ASP760  ASP761  ALA762  ILE779  LEU786  VAL792 
 PHE793  MET794  SER795  GLU796  ALA797  LYS798  CYS799  TRP800  GLU811  SER814 

> <Gold.Protein.RotatedAtoms>
  150.9032  133.7092  159.2873 H   0  0  0  0  0  0  0  0  0  0  0  0  # atno 6907 bound_to 6896
  151.4603  135.1036  159.9732 H   0  0  0  0  0  0  0  0  0  0  0  0  # atno 6908 bound_to 6896
  152.4888  133.8397  159.7201 H   0  0  0  0  0  0  0  0  0  0  0  0  # atno 6909 bound_to 6896
  145.8977  139.3557  143.0611 H   0  0  0  0  0  0  0  0  0  0  0  0  # atno 7974 bound_to 7965
  155.0243  140.0393  157.2449 H   0  0  0  0  0  0  0  0  0  0  0  0  # atno 8008 bound_to 7997
  154.7351  140.2738  155.6399 H   0  0  0  0  0  0  0  0  0  0  0  0  # atno 8009 bound_to 7997
  156.2851  140.2676  156.2062 H   0  0  0  0  0  0  0  0  0  0  0  0  # atno 8010 bound_to 7997
  140.6995  143.6199  150.8623 H   0  0  0  0  0  0  0  0  0  0  0  0  # atno 10167 bound_to 10162
  157.2774  131.0829  151.1556 H   0  0  0  0  0  0  0  0  0  0  0  0  # atno 10718 bound_to 10713
  153.9273  135.6776  153.4746 H   0  0  0  0  0  0  0  0  0  0  0  0  # atno 10763 bound_to 10752
  153.0997  135.4834  154.8842 H   0  0  0  0  0  0  0  0  0  0  0  0  # atno 10764 bound_to 10752
  154.7446  135.3169  154.8624 H   0  0  0  0  0  0  0  0  0  0  0  0  # atno 10765 bound_to 10752
  141.1664  133.7056  156.7947 H   0  0  0  0  0  0  0  0  0  0  0  0  # atno 11005 bound_to 11000
  145.8830  140.9351  143.0591 LP  0  0  0  0  0  0  0  0  0  0  0  0  # atno 17320 bound_to 7965
  144.6734  140.0805  143.7469 LP  0  0  0  0  0  0  0  0  0  0  0  0  # atno 17321 bound_to 7965
  139.9920  143.5837  152.2907 LP  0  0  0  0  0  0  0  0  0  0  0  0  # atno 17342 bound_to 10162
  139.6495  144.7660  151.2176 LP  0  0  0  0  0  0  0  0  0  0  0  0  # atno 17343 bound_to 10162
  157.3003  130.6839  149.6160 LP  0  0  0  0  0  0  0  0  0  0  0  0  # atno 17370 bound_to 10713
  155.9664  130.4394  150.5256 LP  0  0  0  0  0  0  0  0  0  0  0  0  # atno 17371 bound_to 10713
  140.2299  134.8693  157.3466 LP  0  0  0  0  0  0  0  0  0  0  0  0  # atno 17394 bound_to 11000
  140.1901  134.4382  155.7721 LP  0  0  0  0  0  0  0  0  0  0  0  0  # atno 17395 bound_to 11000

$$$$
