AV-unprocessed.smi:1720|AV-procd|sdf|6934|dock7
  -GOLD-   22720 8143D 1   1.00000     0.00000
 Structure written by MMmdl.
 32 33  0  0  0  0  0  0  0  0  1 V2000
  146.8838  140.0762  153.5710 C   0  0  0  0  0  0  0  0  0  0  0  0
  147.7465  138.9107  154.0789 C   0  0  1  0  0  0  0  0  0  0  0  0
  147.5181  137.7542  153.2150 N   0  0  0  0  0  0  0  0  0  0  0  0
  146.3229  137.2208  152.9234 C   0  0  0  0  0  0  0  0  0  0  0  0
  145.2553  137.6570  153.3546 O   0  0  0  0  0  0  0  0  0  0  0  0
  146.4497  136.1602  152.1094 N   0  0  0  0  0  0  0  0  0  0  0  0
  145.4137  135.3383  151.5978 C   0  0  0  0  0  0  0  0  0  0  0  0
  145.5282  133.9401  151.3689 C   0  0  0  0  0  0  0  0  0  0  0  0
  144.4012  133.4350  150.8877 N   0  0  0  0  0  0  0  0  0  0  0  0
  143.5688  134.4976  150.8068 N   0  0  0  0  0  0  0  0  0  0  0  0
  144.1421  135.6770  151.2284 C   0  0  0  0  0  0  0  0  0  0  0  0
  149.2489  139.2618  154.1015 C   0  0  1  0  0  0  0  0  0  0  0  0
  149.6437  140.3175  155.1352 C   0  0  0  0  0  0  0  0  0  0  0  0
  151.1157  140.0360  155.3906 C   0  0  0  0  0  0  0  0  0  0  0  0
  151.3272  138.6251  154.8352 C   0  0  0  0  0  0  0  0  0  0  0  0
  150.0264  138.1499  154.5190 O   0  0  0  0  0  0  0  0  0  0  0  0
  142.6227  134.4031  150.4658 H   0  0  0  0  0  0  0  0  0  0  0  0
  146.9692  140.9472  154.2209 H   0  0  0  0  0  0  0  0  0  0  0  0
  145.8297  139.7987  153.5397 H   0  0  0  0  0  0  0  0  0  0  0  0
  147.1786  140.3805  152.5661 H   0  0  0  0  0  0  0  0  0  0  0  0
  147.4227  138.6790  155.0952 H   0  0  0  0  0  0  0  0  0  0  0  0
  148.3377  137.3222  152.8148 H   0  0  0  0  0  0  0  0  0  0  0  0
  147.3870  135.9104  151.8306 H   0  0  0  0  0  0  0  0  0  0  0  0
  146.3736  133.2882  151.5330 H   0  0  0  0  0  0  0  0  0  0  0  0
  143.6060  136.6145  151.2248 H   0  0  0  0  0  0  0  0  0  0  0  0
  149.5832  139.5720  153.1093 H   0  0  0  0  0  0  0  0  0  0  0  0
  149.4633  141.3358  154.7893 H   0  0  0  0  0  0  0  0  0  0  0  0
  149.0799  140.1705  156.0575 H   0  0  0  0  0  0  0  0  0  0  0  0
  151.7535  140.7509  154.8697 H   0  0  0  0  0  0  0  0  0  0  0  0
  151.3461  140.0930  156.4549 H   0  0  0  0  0  0  0  0  0  0  0  0
  151.9290  138.6568  153.9259 H   0  0  0  0  0  0  0  0  0  0  0  0
  151.8218  137.9645  155.5475 H   0  0  0  0  0  0  0  0  0  0  0  0
  1  2  1  0  0  0  0
  1 18  1  0  0  0  0
  1 19  1  0  0  0  0
  1 20  1  0  0  0  0
  2  3  1  0  0  0  0
  2 12  1  0  0  0  0
  2 21  1  0  0  0  0
  3  4  1  0  0  0  0
  3 22  1  0  0  0  0
  4  5  2  0  0  0  0
  4  6  1  0  0  0  0
  6  7  1  0  0  0  0
  6 23  1  0  0  0  0
  7 11  2  0  0  0  0
  7  8  1  0  0  0  0
  8  9  2  0  0  0  0
  8 24  1  0  0  0  0
  9 10  1  0  0  0  0
 10 17  1  0  0  0  0
 10 11  1  0  0  0  0
 11 25  1  0  0  0  0
 12 16  1  0  0  0  0
 12 13  1  0  0  0  0
 12 26  1  0  0  0  0
 13 14  1  0  0  0  0
 13 27  1  0  0  0  0
 13 28  1  0  0  0  0
 14 15  1  0  0  0  0
 14 29  1  0  0  0  0
 14 30  1  0  0  0  0
 15 16  1  0  0  0  0
 15 31  1  0  0  0  0
 15 32  1  0  0  0  0
M  END
> <s_m_source_file>
AV-unprocessed.smi

> <i_m_source_file_index>
1720

> <i_lp_mmshare_version>
43012

> <i_f3d_flags>
0

> <s_epik_input>
TzFbQ0gyXVtDSDJdW0NIMl1bQ0BIXTFbQ0BIXShbQ0gzXSlbTkhdQyg9TylbTkhdYzJbY0hdbltuSF1bY0hdMg==

> <s_epik_cmdline>
J2VwaWtfcHl0aG9uJywgJy1waCcsICc3LjAnLCAnLXRuJywgJzgnLCAnLW1hJywgJzIwMCcsICctbWV0YWxfYmluZGluZycsICctaW1hZScsICc8aW5maWxlLm1hZT4nLCAnLW9tYWUnLCAnPG91dGZpbGUubWFlPic=

> <r_lp_tautomer_probability>
1

> <r_epik_Ionization_Penalty>
4.95841e-05

> <r_epik_Ionization_Penalty_Charging>
0

> <r_epik_Ionization_Penalty_Neutral>
4.95841e-05

> <r_epik_State_Penalty>
-0

> <r_epik_Charging_Adjusted_Penalty>
0

> <i_epik_Tot_Q>
0

> <i_epik_Tot_abs_Q>
0

> <r_epik_Metal_State_Penalty>
-0

> <b_epik_Metal_Only>
0

> <s_lp_Force_Field>
OPLS_2005

> <r_lp_Energy>
20.531

> <b_lp_Chiralities_Consistent>
1

> <s_lp_Variant>
AV-unprocessed.smi:1720-4

> <Gold.Version>
5.8.1

> <Gold.Id.Protein>
6NUR|6NUR_protein|mol2

> <Gold.PLP.Fitness>
33.6101

> <Gold.PLP.PLP>
-22.2253

> <Gold.PLP.part.hbond>
-2.7316

> <Gold.PLP.part.metal>
0.0000

> <Gold.PLP.part.buried>
-1.0957

> <Gold.PLP.part.nonpolar>
-19.3904

> <Gold.PLP.part.repulsive>
0.6149

> <Gold.PLP.ligand.clash>
0.0000

> <Gold.PLP.ligand.torsion>
0.3071

> <Gold.PLP.Chemscore.Hbond>
2.9920

> <Gold.PLP.Chemscore.CHOScore>
1.0000

> <Gold.PLP.Chemscore.Metal>
0.0000

> <Gold.Chemscore.Hbonds>
donor molecule, donor type, donor heavy atom, donor atom, acceptor molecule, acceptor atom, score
      L1  H     3    22       P1  7948  0.99
      L1  H     6    23       P1  7948  1.00
      L1  H    10    17       P1 10186  1.00
      L1  C    11    25       P1 10171  1.00

> <Gold.PLP.Chemscore.Internal.Correction>
0.0229

> <Gold.Rescore>
     Score         DG    S(hbond)    S(metal)    S(lipo)     H(rot)  DE(clash)    DE(int)     intcor
     15.71     -17.61       2.85        0.00      50.92       1.31       0.39       1.52       ----

> <Gold.Chemscore.Fitness>
15.7073

> <Gold.Chemscore.DG>
-17.6146

> <Gold.Chemscore.ZeroCoef>
-5.4800

> <Gold.Chemscore.Hbond>
2.8518

> <Gold.Chemscore.Metal>
0.0000

> <Gold.Chemscore.Lipo>
50.9218

> <Gold.Chemscore.Internal_Hbond>
0.0000

> <Gold.Chemscore.DEClash>
0.3873

> <Gold.Chemscore.DEInternal>
1.5200

> <Gold.Chemscore.Rot>
1.3079

> <Gold.Chemscore.Internal.Correction>
   9.000000E+99

> <Gold.Chemscore.Hbonds>
donor molecule, donor type, donor heavy atom, donor atom, acceptor molecule, acceptor atom, score
      L1  H     3    22       P1  7948  0.90
      L1  H     6    23       P1  7948  0.91
      L1  H    10    17       P1 10186  0.55

> <Gold.Chemscore.Hbond.Weighted>
-9.5251

> <Gold.Chemscore.Metal.Weighted>
-0.0000

> <Gold.Chemscore.Lipo.Weighted>
-5.9578

> <Gold.Chemscore.Internal_Hbond.Weighted>
0.0000

> <Gold.Chemscore.DEClash.Weighted>
0.3873

> <Gold.Chemscore.DEInternal.Weighted>
1.5200

> <Gold.Chemscore.Rot.Weighted>
3.3483

> <Gold.Chemscore.Internal.Correction.Weighted>
   9.000000E+99

> <Gold.Protein.RotatedTorsions>
[ 6907 6896 6895 6894 ] final   -3.98 input  -60.11 | X-H torsion
[ 7974 7965 7964 7962 ] final -168.14 input  175.53 | X-H torsion
[ 8008 7997 7996 7995 ] final  101.48 input   59.86 | X-H torsion
[ 10167 10162 10161 10158 ] final  147.89 input  -65.29 | X-H torsion
[ 10718 10713 10712 10709 ] final -162.46 input   66.30 | X-H torsion
[ 10763 10752 10751 10750 ] final  -50.23 input  -60.55 | X-H torsion
[ 11005 11000 10999 10996 ] final   98.12 input  -57.11 | X-H torsion

> <Gold.Protein.ActiveResidues>
 VAL166  LYS551  ARG553  GLY616  TRP617  ASP618  TYR619  PRO620  LYS621  CYS622 
 ASP623  PHE694  ASN695  SER759  ASP760  ASP761  ALA762  ILE779  LEU786  VAL792 
 PHE793  MET794  SER795  GLU796  ALA797  LYS798  CYS799  TRP800  GLU811  SER814 

> <Gold.Protein.RotatedAtoms>
  151.5050  135.1063  159.9838 H   0  0  0  0  0  0  0  0  0  0  0  0  # atno 6907 bound_to 6896
  152.4686  133.7973  159.6945 H   0  0  0  0  0  0  0  0  0  0  0  0  # atno 6908 bound_to 6896
  150.8682  133.7480  159.2995 H   0  0  0  0  0  0  0  0  0  0  0  0  # atno 6909 bound_to 6896
  144.7209  140.2414  143.6291 H   0  0  0  0  0  0  0  0  0  0  0  0  # atno 7974 bound_to 7965
  156.1303  140.3197  155.8339 H   0  0  0  0  0  0  0  0  0  0  0  0  # atno 8008 bound_to 7997
  155.4344  140.0521  157.3033 H   0  0  0  0  0  0  0  0  0  0  0  0  # atno 8009 bound_to 7997
  154.4894  140.2086  155.9595 H   0  0  0  0  0  0  0  0  0  0  0  0  # atno 8010 bound_to 7997
  139.4883  144.5721  151.7035 H   0  0  0  0  0  0  0  0  0  0  0  0  # atno 10167 bound_to 10162
  156.6107  130.8849  151.2936 H   0  0  0  0  0  0  0  0  0  0  0  0  # atno 10718 bound_to 10713
  154.1070  135.6555  153.4878 H   0  0  0  0  0  0  0  0  0  0  0  0  # atno 10763 bound_to 10752
  153.0269  135.5238  154.7230 H   0  0  0  0  0  0  0  0  0  0  0  0  # atno 10764 bound_to 10752
  154.6399  135.2987  155.0086 H   0  0  0  0  0  0  0  0  0  0  0  0  # atno 10765 bound_to 10752
  139.8773  134.9034  156.4409 H   0  0  0  0  0  0  0  0  0  0  0  0  # atno 11005 bound_to 11000
  145.8316  139.2088  143.1879 LP  0  0  0  0  0  0  0  0  0  0  0  0  # atno 17320 bound_to 7965
  146.0426  140.8150  142.9821 LP  0  0  0  0  0  0  0  0  0  0  0  0  # atno 17321 bound_to 7965
  140.5310  144.0730  150.6053 LP  0  0  0  0  0  0  0  0  0  0  0  0  # atno 17342 bound_to 10162
  140.3720  143.2849  152.0267 LP  0  0  0  0  0  0  0  0  0  0  0  0  # atno 17343 bound_to 10162
  157.7255  130.9616  150.1616 LP  0  0  0  0  0  0  0  0  0  0  0  0  # atno 17370 bound_to 10713
  156.2392  130.3689  149.8357 LP  0  0  0  0  0  0  0  0  0  0  0  0  # atno 17371 bound_to 10713
  140.9000  133.7786  155.9669 LP  0  0  0  0  0  0  0  0  0  0  0  0  # atno 17394 bound_to 11000
  140.8661  134.2782  157.5212 LP  0  0  0  0  0  0  0  0  0  0  0  0  # atno 17395 bound_to 11000

$$$$
