AV-unprocessed.smi:2886|AV-procd|sdf|11097|dock4
  -GOLD-   2272015563D 1   1.00000     0.00000
 Structure written by MMmdl.
 27 29  0  0  0  0  0  0  0  0  2 V2000
  150.6436  138.0159  153.8449 O   0  0  0  0  0  0  0  0  0  0  0  0
  150.2479  139.1066  154.2527 C   0  0  0  0  0  0  0  0  0  0  0  0
  149.0991  139.6847  153.7874 N   0  5  0  0  0  0  0  0  0  0  0  0
  148.6687  140.9642  154.3055 N   0  0  0  0  0  0  0  0  0  0  0  0
  149.3503  141.5776  155.1905 C   0  0  0  0  0  0  0  0  0  0  0  0
  150.6163  141.0313  155.7384 C   0  0  0  0  0  0  0  0  0  0  0  0
  151.3591  141.6992  156.7037 N   0  0  0  0  0  0  0  0  0  0  0  0
  151.0823  142.9797  157.3401 C   0  0  2  0  0  0  0  0  0  0  0  0
  152.1580  144.0314  157.0646 C   0  0  0  0  0  0  0  0  0  0  0  0
  152.5308  144.4723  158.4876 C   0  0  2  0  0  0  0  0  0  0  0  0
  153.3853  143.4151  159.1984 C   0  0  0  0  0  0  0  0  0  0  0  0
  152.3562  142.3219  159.4805 C   0  0  0  0  0  0  0  0  0  0  0  0
  151.0766  142.9257  158.8776 C   0  0  1  0  0  0  0  0  0  0  0  0
  151.2945  144.2978  159.1612 O   0  0  0  0  0  0  0  0  0  0  0  0
  151.0247  139.8246  155.2707 C   0  0  0  0  0  0  0  0  0  0  0  0
  152.4840  139.0970  155.8598 Cl  0  0  0  0  0  0  0  0  0  0  0  0
  149.0222  142.5398  155.5901 H   0  0  0  0  0  0  0  0  0  0  0  0
  152.2736  141.3197  156.9025 H   0  0  0  0  0  0  0  0  0  0  0  0
  150.1292  143.3748  156.9887 H   0  0  0  0  0  0  0  0  0  0  0  0
  153.0196  143.6464  156.5170 H   0  0  0  0  0  0  0  0  0  0  0  0
  151.7385  144.8614  156.4952 H   0  0  0  0  0  0  0  0  0  0  0  0
  152.9381  145.4819  158.5459 H   0  0  0  0  0  0  0  0  0  0  0  0
  154.2153  143.0676  158.5825 H   0  0  0  0  0  0  0  0  0  0  0  0
  153.7919  143.8066  160.1315 H   0  0  0  0  0  0  0  0  0  0  0  0
  152.6238  141.3605  159.0414 H   0  0  0  0  0  0  0  0  0  0  0  0
  152.2419  142.1790  160.5555 H   0  0  0  0  0  0  0  0  0  0  0  0
  150.1561  142.5212  159.2997 H   0  0  0  0  0  0  0  0  0  0  0  0
  1  2  2  0  0  0  0
  2 15  1  0  0  0  0
  2  3  1  0  0  0  0
  3  4  1  0  0  0  0
  4  5  2  0  0  0  0
  5  6  1  0  0  0  0
  5 17  1  0  0  0  0
  6  7  1  0  0  0  0
  6 15  2  0  0  0  0
  7  8  1  0  0  0  0
  7 18  1  0  0  0  0
  8 13  1  0  0  0  0
  8  9  1  0  0  0  0
  8 19  1  0  0  0  0
  9 10  1  0  0  0  0
  9 20  1  0  0  0  0
  9 21  1  0  0  0  0
 10 14  1  0  0  0  0
 10 11  1  0  0  0  0
 10 22  1  0  0  0  0
 11 12  1  0  0  0  0
 11 23  1  0  0  0  0
 11 24  1  0  0  0  0
 12 13  1  0  0  0  0
 12 25  1  0  0  0  0
 12 26  1  0  0  0  0
 13 14  1  0  0  0  0
 13 27  1  0  0  0  0
 15 16  1  0  0  0  0
M  CHG  1   3  -1
M  END
> <s_m_source_file>
AV-unprocessed.smi

> <i_m_source_file_index>
2886

> <i_lp_mmshare_version>
43012

> <i_f3d_flags>
0

> <s_epik_input>
Tz1jMVtuSF1uW2NIXWMoYzFDbClbTkhdW0NASF0oW0NIMl1bQ0BASF0yMylbQ0BASF0oTzMpW0NIMl1bQ0gyXTI=

> <s_epik_cmdline>
J2VwaWtfcHl0aG9uJywgJy1waCcsICc3LjAnLCAnLXRuJywgJzgnLCAnLW1hJywgJzIwMCcsICctbWV0YWxfYmluZGluZycsICctaW1hZScsICc8aW5maWxlLm1hZT4nLCAnLW9tYWUnLCAnPG91dGZpbGUubWFlPic=

> <r_lp_tautomer_probability>
0.986175

> <r_epik_Ionization_Penalty>
3.84253

> <r_epik_Ionization_Penalty_Charging>
0.0129711

> <r_epik_Ionization_Penalty_Neutral>
3.82956

> <r_epik_State_Penalty>
3.8249

> <r_epik_Charging_Adjusted_Penalty>
3.83787

> <i_epik_Tot_Q>
-1

> <i_epik_Tot_abs_Q>
1

> <r_epik_Metal_State_Penalty>
0.57612

> <b_epik_Metal_Only>
1

> <s_lp_Force_Field>
OPLS_2005

> <r_lp_Energy>
60.9826

> <b_lp_Chiralities_Consistent>
1

> <s_lp_Variant>
AV-unprocessed.smi:2886-11

> <Gold.Version>
5.8.1

> <Gold.Id.Protein>
6NUR|6NUR_protein|mol2

> <Gold.PLP.Fitness>
35.1555

> <Gold.PLP.PLP>
-32.1905

> <Gold.PLP.part.hbond>
0.0000

> <Gold.PLP.part.metal>
0.0000

> <Gold.PLP.part.buried>
-4.4355

> <Gold.PLP.part.nonpolar>
-29.1826

> <Gold.PLP.part.repulsive>
1.6126

> <Gold.PLP.ligand.clash>
0.0000

> <Gold.PLP.ligand.torsion>
0.0221

> <Gold.PLP.Chemscore.Hbond>
0.0000

> <Gold.PLP.Chemscore.CHOScore>
1.0000

> <Gold.PLP.Chemscore.Metal>
0.0000

> <Gold.Chemscore.Hbonds>
donor molecule, donor type, donor heavy atom, donor atom, acceptor molecule, acceptor atom, score
      L1  C     5    17       P1  8028  1.00

> <Gold.PLP.Chemscore.Internal.Correction>
0.0091

> <Gold.Rescore>
     Score         DG    S(hbond)    S(metal)    S(lipo)     H(rot)  DE(clash)    DE(int)     intcor
     13.08     -14.13       0.00        0.00      95.82       1.00       1.04       0.00       ----

> <Gold.Chemscore.Fitness>
13.0823

> <Gold.Chemscore.DG>
-14.1314

> <Gold.Chemscore.ZeroCoef>
-5.4800

> <Gold.Chemscore.Hbond>
0.0000

> <Gold.Chemscore.Metal>
0.0000

> <Gold.Chemscore.Lipo>
95.8239

> <Gold.Chemscore.Internal_Hbond>
0.0000

> <Gold.Chemscore.DEClash>
1.0444

> <Gold.Chemscore.DEInternal>
0.0047

> <Gold.Chemscore.Rot>
1.0000

> <Gold.Chemscore.Internal.Correction>
   9.000000E+99

> <Gold.Chemscore.Hbond.Weighted>
-0.0000

> <Gold.Chemscore.Metal.Weighted>
-0.0000

> <Gold.Chemscore.Lipo.Weighted>
-11.2114

> <Gold.Chemscore.Internal_Hbond.Weighted>
0.0000

> <Gold.Chemscore.DEClash.Weighted>
1.0444

> <Gold.Chemscore.DEInternal.Weighted>
0.0047

> <Gold.Chemscore.Rot.Weighted>
2.5600

> <Gold.Chemscore.Internal.Correction.Weighted>
   9.000000E+99

> <Gold.Protein.RotatedTorsions>
[ 6907 6896 6895 6894 ] final -170.96 input  -60.11 | X-H torsion
[ 7974 7965 7964 7962 ] final  109.98 input  175.53 | X-H torsion
[ 8008 7997 7996 7995 ] final   90.76 input   59.86 | X-H torsion
[ 10167 10162 10161 10158 ] final   72.63 input  -65.29 | X-H torsion
[ 10718 10713 10712 10709 ] final -139.07 input   66.30 | X-H torsion
[ 10763 10752 10751 10750 ] final  151.50 input  -60.55 | X-H torsion
[ 11005 11000 10999 10996 ] final    0.08 input  -57.11 | X-H torsion

> <Gold.Protein.ActiveResidues>
 VAL166  LYS551  ARG553  GLY616  TRP617  ASP618  TYR619  PRO620  LYS621  CYS622 
 ASP623  PHE694  ASN695  SER759  ASP760  ASP761  ALA762  ILE779  LEU786  VAL792 
 PHE793  MET794  SER795  GLU796  ALA797  LYS798  CYS799  TRP800  GLU811  SER814 

> <Gold.Protein.RotatedAtoms>
  151.5162  133.3475  159.2893 H   0  0  0  0  0  0  0  0  0  0  0  0  # atno 6907 bound_to 6896
  150.8681  134.8051  159.7145 H   0  0  0  0  0  0  0  0  0  0  0  0  # atno 6908 bound_to 6896
  152.4679  134.5042  159.9786 H   0  0  0  0  0  0  0  0  0  0  0  0  # atno 6909 bound_to 6896
  145.2609  139.2703  143.4017 H   0  0  0  0  0  0  0  0  0  0  0  0  # atno 7974 bound_to 7965
  156.0158  140.3345  155.6987 H   0  0  0  0  0  0  0  0  0  0  0  0  # atno 8008 bound_to 7997
  155.6093  140.0663  157.2728 H   0  0  0  0  0  0  0  0  0  0  0  0  # atno 8009 bound_to 7997
  154.4298  140.1796  156.1243 H   0  0  0  0  0  0  0  0  0  0  0  0  # atno 8010 bound_to 7997
  140.0332  144.5449  150.7491 H   0  0  0  0  0  0  0  0  0  0  0  0  # atno 10167 bound_to 10162
  156.3065  130.7458  151.1523 H   0  0  0  0  0  0  0  0  0  0  0  0  # atno 10718 bound_to 10713
  154.1047  135.2843  155.3244 H   0  0  0  0  0  0  0  0  0  0  0  0  # atno 10763 bound_to 10752
  154.6531  135.5362  153.7929 H   0  0  0  0  0  0  0  0  0  0  0  0  # atno 10764 bound_to 10752
  153.0366  135.6515  154.1209 H   0  0  0  0  0  0  0  0  0  0  0  0  # atno 10765 bound_to 10752
  140.6305  133.9579  155.8272 H   0  0  0  0  0  0  0  0  0  0  0  0  # atno 11005 bound_to 11000
  146.3275  140.3025  142.8621 LP  0  0  0  0  0  0  0  0  0  0  0  0  # atno 17320 bound_to 7965
  144.9419  140.8088  143.5625 LP  0  0  0  0  0  0  0  0  0  0  0  0  # atno 17321 bound_to 7965
  140.7293  143.2671  151.4010 LP  0  0  0  0  0  0  0  0  0  0  0  0  # atno 17342 bound_to 10162
  139.6062  144.1192  152.2251 LP  0  0  0  0  0  0  0  0  0  0  0  0  # atno 17343 bound_to 10162
  157.7381  131.0545  150.5316 LP  0  0  0  0  0  0  0  0  0  0  0  0  # atno 17370 bound_to 10713
  156.5450  130.4217  149.6135 LP  0  0  0  0  0  0  0  0  0  0  0  0  # atno 17371 bound_to 10713
  141.0678  134.0250  157.3569 LP  0  0  0  0  0  0  0  0  0  0  0  0  # atno 17394 bound_to 11000
  139.9118  135.0191  156.7721 LP  0  0  0  0  0  0  0  0  0  0  0  0  # atno 17395 bound_to 11000

$$$$
