AV-unprocessed.smi:2871|AV-procd|sdf|11031|dock8
  -GOLD-   2272015493D 1   1.00000     0.00000
 Structure written by MMmdl.
 38 40  0  0  0  0  0  0  0  0  1 V2000
  151.8994  144.1885  159.7059 C   0  0  0  0  0  0  0  0  0  0  0  0
  152.5519  143.2402  160.6028 N   0  0  0  0  0  0  0  0  0  0  0  0
  152.6196  143.5114  162.0331 C   0  0  0  0  0  0  0  0  0  0  0  0
  153.1163  142.0564  160.0789 C   0  0  0  0  0  0  0  0  0  0  0  0
  154.3913  141.5890  160.4812 C   0  0  0  0  0  0  0  0  0  0  0  0
  154.8513  140.3909  159.8897 C   0  0  0  0  0  0  0  0  0  0  0  0
  156.2040  139.7864  160.2347 C   0  0  0  0  0  0  0  0  0  0  0  0
  157.1719  140.6514  159.9309 F   0  0  0  0  0  0  0  0  0  0  0  0
  156.2940  139.4898  161.5317 F   0  0  0  0  0  0  0  0  0  0  0  0
  156.3903  138.6683  159.5328 F   0  0  0  0  0  0  0  0  0  0  0  0
  154.1086  139.7210  158.9801 N   0  0  0  0  0  0  0  0  0  0  0  0
  152.9214  140.2388  158.6680 C   0  0  0  0  0  0  0  0  0  0  0  0
  152.1844  139.5223  157.7434 N   0  0  0  0  0  0  0  0  0  0  0  0
  152.1063  139.8428  156.3225 C   0  0  1  0  0  0  0  0  0  0  0  0
  152.5610  138.6938  155.4200 C   0  0  0  0  0  0  0  0  0  0  0  0
  151.3575  138.5380  154.4792 C   0  0  1  0  0  0  0  0  0  0  0  0
  150.1770  137.8561  155.1828 C   0  0  0  0  0  0  0  0  0  0  0  0
  149.6890  138.9641  156.1140 C   0  0  0  0  0  0  0  0  0  0  0  0
  150.6778  140.1005  155.8026 C   0  0  2  0  0  0  0  0  0  0  0  0
  150.8853  139.8736  154.4188 O   0  0  0  0  0  0  0  0  0  0  0  0
  152.3957  141.3621  159.1655 N   0  0  0  0  0  0  0  0  0  0  0  0
  152.6094  144.5724  158.9727 H   0  0  0  0  0  0  0  0  0  0  0  0
  151.4916  145.0385  160.2530 H   0  0  0  0  0  0  0  0  0  0  0  0
  151.0773  143.7091  159.1731 H   0  0  0  0  0  0  0  0  0  0  0  0
  153.6566  143.5432  162.3689 H   0  0  0  0  0  0  0  0  0  0  0  0
  152.0944  142.7380  162.5944 H   0  0  0  0  0  0  0  0  0  0  0  0
  152.1619  144.4701  162.2782 H   0  0  0  0  0  0  0  0  0  0  0  0
  154.9957  142.1128  161.2060 H   0  0  0  0  0  0  0  0  0  0  0  0
  151.5665  138.8099  158.1032 H   0  0  0  0  0  0  0  0  0  0  0  0
  152.7282  140.7162  156.1207 H   0  0  0  0  0  0  0  0  0  0  0  0
  153.4549  138.9810  154.8652 H   0  0  0  0  0  0  0  0  0  0  0  0
  152.7797  137.7702  155.9581 H   0  0  0  0  0  0  0  0  0  0  0  0
  151.6052  138.1035  153.5105 H   0  0  0  0  0  0  0  0  0  0  0  0
  149.3991  137.5884  154.4670 H   0  0  0  0  0  0  0  0  0  0  0  0
  150.4760  136.9537  155.7168 H   0  0  0  0  0  0  0  0  0  0  0  0
  148.6729  139.2592  155.8498 H   0  0  0  0  0  0  0  0  0  0  0  0
  149.6896  138.6705  157.1640 H   0  0  0  0  0  0  0  0  0  0  0  0
  150.2939  141.0942  156.0351 H   0  0  0  0  0  0  0  0  0  0  0  0
  1  2  1  0  0  0  0
  1 22  1  0  0  0  0
  1 23  1  0  0  0  0
  1 24  1  0  0  0  0
  2  3  1  0  0  0  0
  2  4  1  0  0  0  0
  3 25  1  0  0  0  0
  3 26  1  0  0  0  0
  3 27  1  0  0  0  0
  4 21  1  0  0  0  0
  4  5  2  0  0  0  0
  5  6  1  0  0  0  0
  5 28  1  0  0  0  0
  6  7  1  0  0  0  0
  6 11  2  0  0  0  0
  7  8  1  0  0  0  0
  7  9  1  0  0  0  0
  7 10  1  0  0  0  0
 11 12  1  0  0  0  0
 12 13  1  0  0  0  0
 12 21  2  0  0  0  0
 13 14  1  0  0  0  0
 13 29  1  0  0  0  0
 14 19  1  0  0  0  0
 14 15  1  0  0  0  0
 14 30  1  0  0  0  0
 15 16  1  0  0  0  0
 15 31  1  0  0  0  0
 15 32  1  0  0  0  0
 16 20  1  0  0  0  0
 16 17  1  0  0  0  0
 16 33  1  0  0  0  0
 17 18  1  0  0  0  0
 17 34  1  0  0  0  0
 17 35  1  0  0  0  0
 18 19  1  0  0  0  0
 18 36  1  0  0  0  0
 18 37  1  0  0  0  0
 19 20  1  0  0  0  0
 19 38  1  0  0  0  0
M  END
> <s_m_source_file>
AV-unprocessed.smi

> <i_m_source_file_index>
2871

> <i_lp_mmshare_version>
43012

> <i_f3d_flags>
0

> <s_epik_input>
W0NIM11OKFtDSDNdKWMxW2NIXWMoQyhGKShGKUYpbmMobjEpW05IXVtDQEhdKFtDSDJdW0NAQEhdMjMpW0NAQEhdKE8zKVtDSDJdW0NIMl0y

> <s_epik_cmdline>
J2VwaWtfcHl0aG9uJywgJy1waCcsICc3LjAnLCAnLXRuJywgJzgnLCAnLW1hJywgJzIwMCcsICctbWV0YWxfYmluZGluZycsICctaW1hZScsICc8aW5maWxlLm1hZT4nLCAnLW9tYWUnLCAnPG91dGZpbGUubWFlPic=

> <r_lp_tautomer_probability>
1

> <r_epik_Ionization_Penalty>
0.00695968

> <r_epik_Ionization_Penalty_Charging>
0

> <r_epik_Ionization_Penalty_Neutral>
0.00695968

> <r_epik_State_Penalty>
0.0050343

> <r_epik_Charging_Adjusted_Penalty>
0.0050343

> <i_epik_Tot_Q>
0

> <i_epik_Tot_abs_Q>
0

> <r_epik_Metal_State_Penalty>
-0

> <b_epik_Metal_Only>
0

> <s_lp_Force_Field>
OPLS_2005

> <r_lp_Energy>
32.958

> <b_lp_Chiralities_Consistent>
1

> <s_lp_Variant>
AV-unprocessed.smi:2871-2

> <Gold.Version>
5.8.1

> <Gold.Id.Protein>
6NUR|6NUR_protein|mol2

> <Gold.PLP.Fitness>
46.1065

> <Gold.PLP.PLP>
-43.0133

> <Gold.PLP.part.hbond>
-1.9535

> <Gold.PLP.part.metal>
0.0000

> <Gold.PLP.part.buried>
-6.4991

> <Gold.PLP.part.nonpolar>
-35.9200

> <Gold.PLP.part.repulsive>
0.1804

> <Gold.PLP.ligand.clash>
0.0000

> <Gold.PLP.ligand.torsion>
1.4640

> <Gold.PLP.Chemscore.Hbond>
2.0000

> <Gold.PLP.Chemscore.CHOScore>
0.0000

> <Gold.PLP.Chemscore.Metal>
0.0000

> <Gold.Chemscore.Hbonds>
donor molecule, donor type, donor heavy atom, donor atom, acceptor molecule, acceptor atom, score
      P1  H  7989  7998       L1    20  1.00
      P1  H  7997  8010       L1    11  0.80

> <Gold.PLP.Chemscore.Internal.Correction>
0.0213

> <Gold.Rescore>
     Score         DG    S(hbond)    S(metal)    S(lipo)     H(rot)  DE(clash)    DE(int)     intcor
     15.18     -16.79       1.10        0.00      87.18       1.00       0.00       1.61       ----

> <Gold.Chemscore.Fitness>
15.1811

> <Gold.Chemscore.DG>
-16.7936

> <Gold.Chemscore.ZeroCoef>
-5.4800

> <Gold.Chemscore.Hbond>
1.0997

> <Gold.Chemscore.Metal>
0.0000

> <Gold.Chemscore.Lipo>
87.1846

> <Gold.Chemscore.Internal_Hbond>
0.0000

> <Gold.Chemscore.DEClash>
0.0049

> <Gold.Chemscore.DEInternal>
1.6077

> <Gold.Chemscore.Rot>
1.0000

> <Gold.Chemscore.Internal.Correction>
   9.000000E+99

> <Gold.Chemscore.Hbonds>
donor molecule, donor type, donor heavy atom, donor atom, acceptor molecule, acceptor atom, score
      P1  H  7989  7998       L1    20  0.91
      P1  H  7997  8010       L1    11  0.06

> <Gold.Chemscore.Hbond.Weighted>
-3.6730

> <Gold.Chemscore.Metal.Weighted>
-0.0000

> <Gold.Chemscore.Lipo.Weighted>
-10.2006

> <Gold.Chemscore.Internal_Hbond.Weighted>
0.0000

> <Gold.Chemscore.DEClash.Weighted>
0.0049

> <Gold.Chemscore.DEInternal.Weighted>
1.6077

> <Gold.Chemscore.Rot.Weighted>
2.5600

> <Gold.Chemscore.Internal.Correction.Weighted>
   9.000000E+99

> <Gold.Protein.RotatedTorsions>
[ 6907 6896 6895 6894 ] final  -52.29 input  -60.11 | X-H torsion
[ 7974 7965 7964 7962 ] final   64.66 input  175.53 | X-H torsion
[ 8008 7997 7996 7995 ] final   10.70 input   59.86 | X-H torsion
[ 10167 10162 10161 10158 ] final   13.72 input  -65.29 | X-H torsion
[ 10718 10713 10712 10709 ] final  -96.82 input   66.30 | X-H torsion
[ 10763 10752 10751 10750 ] final -124.20 input  -60.55 | X-H torsion
[ 11005 11000 10999 10996 ] final -106.40 input  -57.11 | X-H torsion

> <Gold.Protein.ActiveResidues>
 VAL166  LYS551  ARG553  GLY616  TRP617  ASP618  TYR619  PRO620  LYS621  CYS622 
 ASP623  PHE694  ASN695  SER759  ASP760  ASP761  ALA762  ILE779  LEU786  VAL792 
 PHE793  MET794  SER795  GLU796  ALA797  LYS798  CYS799  TRP800  GLU811  SER814 

> <Gold.Protein.RotatedAtoms>
  150.8532  134.7863  159.7024 H   0  0  0  0  0  0  0  0  0  0  0  0  # atno 6907 bound_to 6896
  152.4591  134.5222  159.9796 H   0  0  0  0  0  0  0  0  0  0  0  0  # atno 6908 bound_to 6896
  151.5339  133.3406  159.2959 H   0  0  0  0  0  0  0  0  0  0  0  0  # atno 6909 bound_to 6896
  145.8476  139.3234  143.0894 H   0  0  0  0  0  0  0  0  0  0  0  0  # atno 7974 bound_to 7965
  154.7969  140.2845  155.5950 H   0  0  0  0  0  0  0  0  0  0  0  0  # atno 8008 bound_to 7997
  156.2972  140.2594  156.2758 H   0  0  0  0  0  0  0  0  0  0  0  0  # atno 8009 bound_to 7997
  154.9604  140.0377  157.2176 H   0  0  0  0  0  0  0  0  0  0  0  0  # atno 8010 bound_to 7997
  140.5984  143.8655  150.6940 H   0  0  0  0  0  0  0  0  0  0  0  0  # atno 10167 bound_to 10162
  156.0070  130.5168  150.6283 H   0  0  0  0  0  0  0  0  0  0  0  0  # atno 10718 bound_to 10713
  154.8720  135.4072  154.3067 H   0  0  0  0  0  0  0  0  0  0  0  0  # atno 10763 bound_to 10752
  153.3918  135.7015  153.6495 H   0  0  0  0  0  0  0  0  0  0  0  0  # atno 10764 bound_to 10752
  153.5275  135.3674  155.2631 H   0  0  0  0  0  0  0  0  0  0  0  0  # atno 10765 bound_to 10752
  141.1006  133.8890  157.1851 H   0  0  0  0  0  0  0  0  0  0  0  0  # atno 11005 bound_to 11000
  145.9394  140.8991  143.0315 LP  0  0  0  0  0  0  0  0  0  0  0  0  # atno 17320 bound_to 7965
  144.6730  140.1527  143.7428 LP  0  0  0  0  0  0  0  0  0  0  0  0  # atno 17321 bound_to 7965
  140.2195  143.3820  152.1654 LP  0  0  0  0  0  0  0  0  0  0  0  0  # atno 17342 bound_to 10162
  139.5274  144.7118  151.5180 LP  0  0  0  0  0  0  0  0  0  0  0  0  # atno 17343 bound_to 10162
  157.4086  131.0820  151.1242 LP  0  0  0  0  0  0  0  0  0  0  0  0  # atno 17370 bound_to 10713
  157.1881  130.6339  149.5695 LP  0  0  0  0  0  0  0  0  0  0  0  0  # atno 17371 bound_to 10713
  139.9857  135.0083  156.9856 LP  0  0  0  0  0  0  0  0  0  0  0  0  # atno 17394 bound_to 11000
  140.5030  134.1078  155.7254 LP  0  0  0  0  0  0  0  0  0  0  0  0  # atno 17395 bound_to 11000

$$$$
