AV-unprocessed.smi:1551|AV-procd|sdf|6232|dock1
  -GOLD-   22720 6413D 1   1.00000     0.00000
 Structure written by MMmdl.
 38 39  0  0  0  0  0  0  0  0  1 V2000
  151.3554  137.4518  154.9678 C   0  0  0  0  0  0  0  0  0  0  0  0
  150.4043  136.4170  154.7413 O   0  0  0  0  0  0  0  0  0  0  0  0
  150.6475  135.1677  155.2797 C   0  0  0  0  0  0  0  0  0  0  0  0
  151.6357  135.0431  156.2013 N   0  0  0  0  0  0  0  0  0  0  0  0
  151.8792  133.8228  156.7217 C   0  0  0  0  0  0  0  0  0  0  0  0
  151.1625  132.6701  156.3516 C   0  0  0  0  0  0  0  0  0  0  0  0
  150.1364  132.7968  155.3976 C   0  0  0  0  0  0  0  0  0  0  0  0
  149.8589  134.0739  154.8525 C   0  0  0  0  0  0  0  0  0  0  0  0
  148.8625  134.3053  153.8649 N   0  0  0  0  0  0  0  0  0  0  0  0
  147.7305  133.6164  153.6425 C   0  0  0  0  0  0  0  0  0  0  0  0
  147.3248  132.6779  154.3278 O   0  0  0  0  0  0  0  0  0  0  0  0
  147.0751  134.0998  152.5775 N   0  0  0  0  0  0  0  0  0  0  0  0
  145.8085  133.5988  152.0501 C   0  0  2  0  0  0  0  0  0  0  0  0
  146.0193  132.1972  151.4455 C   0  0  0  0  0  0  0  0  0  0  0  0
  144.7342  131.6653  150.7908 C   0  0  0  0  0  0  0  0  0  0  0  0
  144.2055  132.6485  149.7325 C   0  0  1  0  0  0  0  0  0  0  0  0
  142.9938  132.1605  149.1972 O   0  0  0  0  0  0  0  0  0  0  0  0
  143.9756  134.0429  150.3402 C   0  0  0  0  0  0  0  0  0  0  0  0
  145.2589  134.5791  150.9955 C   0  0  0  0  0  0  0  0  0  0  0  0
  151.0180  138.3645  154.4768 H   0  0  0  0  0  0  0  0  0  0  0  0
  152.3316  137.1953  154.5537 H   0  0  0  0  0  0  0  0  0  0  0  0
  151.4631  137.6692  156.0314 H   0  0  0  0  0  0  0  0  0  0  0  0
  152.6745  133.7615  157.4496 H   0  0  0  0  0  0  0  0  0  0  0  0
  151.3985  131.7094  156.7849 H   0  0  0  0  0  0  0  0  0  0  0  0
  149.5970  131.9140  155.0914 H   0  0  0  0  0  0  0  0  0  0  0  0
  149.0101  135.1202  153.2873 H   0  0  0  0  0  0  0  0  0  0  0  0
  147.4895  134.8779  152.0857 H   0  0  0  0  0  0  0  0  0  0  0  0
  145.0715  133.5111  152.8506 H   0  0  0  0  0  0  0  0  0  0  0  0
  146.8145  132.2319  150.6994 H   0  0  0  0  0  0  0  0  0  0  0  0
  146.3513  131.5031  152.2185 H   0  0  0  0  0  0  0  0  0  0  0  0
  144.9274  130.6926  150.3367 H   0  0  0  0  0  0  0  0  0  0  0  0
  143.9773  131.5033  151.5597 H   0  0  0  0  0  0  0  0  0  0  0  0
  144.9256  132.7236  148.9168 H   0  0  0  0  0  0  0  0  0  0  0  0
  142.3231  132.8135  149.3270 H   0  0  0  0  0  0  0  0  0  0  0  0
  143.6372  134.7370  149.5700 H   0  0  0  0  0  0  0  0  0  0  0  0
  143.1813  133.9968  151.0866 H   0  0  0  0  0  0  0  0  0  0  0  0
  145.0595  135.5485  151.4539 H   0  0  0  0  0  0  0  0  0  0  0  0
  146.0108  134.7514  150.2240 H   0  0  0  0  0  0  0  0  0  0  0  0
  1  2  1  0  0  0  0
  1 20  1  0  0  0  0
  1 21  1  0  0  0  0
  1 22  1  0  0  0  0
  2  3  1  0  0  0  0
  3  8  1  0  0  0  0
  3  4  2  0  0  0  0
  4  5  1  0  0  0  0
  5  6  2  0  0  0  0
  5 23  1  0  0  0  0
  6  7  1  0  0  0  0
  6 24  1  0  0  0  0
  7  8  2  0  0  0  0
  7 25  1  0  0  0  0
  8  9  1  0  0  0  0
  9 10  1  0  0  0  0
  9 26  1  0  0  0  0
 10 11  2  0  0  0  0
 10 12  1  0  0  0  0
 12 13  1  0  0  0  0
 12 27  1  0  0  0  0
 13 19  1  0  0  0  0
 13 14  1  0  0  0  0
 13 28  1  0  0  0  0
 14 15  1  0  0  0  0
 14 29  1  0  0  0  0
 14 30  1  0  0  0  0
 15 16  1  0  0  0  0
 15 31  1  0  0  0  0
 15 32  1  0  0  0  0
 16 17  1  0  0  0  0
 16 18  1  0  0  0  0
 16 33  1  0  0  0  0
 17 34  1  0  0  0  0
 18 19  1  0  0  0  0
 18 35  1  0  0  0  0
 18 36  1  0  0  0  0
 19 37  1  0  0  0  0
 19 38  1  0  0  0  0
M  END
> <s_m_source_file>
AV-unprocessed.smi

> <i_m_source_file_index>
1551

> <i_lp_mmshare_version>
43012

> <i_f3d_flags>
0

> <s_epik_input>
W0NIM11PYzFuW2NIXVtjSF1bY0hdYzFbTkhdQyg9TylbTkhdW0NAQEhdMltDSDJdW0NIMl1bQ0BASF0oW09IXSlbQ0gyXVtDSDJdMg==

> <s_epik_cmdline>
J2VwaWtfcHl0aG9uJywgJy1waCcsICc3LjAnLCAnLXRuJywgJzgnLCAnLW1hJywgJzIwMCcsICctbWV0YWxfYmluZGluZycsICctaW1hZScsICc8aW5maWxlLm1hZT4nLCAnLW9tYWUnLCAnPG91dGZpbGUubWFlPic=

> <r_lp_tautomer_probability>
1

> <r_epik_Ionization_Penalty>
9.95655e-05

> <r_epik_Ionization_Penalty_Charging>
0

> <r_epik_Ionization_Penalty_Neutral>
9.95655e-05

> <r_epik_State_Penalty>
-0

> <r_epik_Charging_Adjusted_Penalty>
0

> <i_epik_Tot_Q>
0

> <i_epik_Tot_abs_Q>
0

> <r_epik_Metal_State_Penalty>
-0

> <b_epik_Metal_Only>
0

> <s_lp_Force_Field>
OPLS_2005

> <r_lp_Energy>
10.8816

> <b_lp_Chiralities_Consistent>
1

> <s_lp_Variant>
AV-unprocessed.smi:1551-1

> <Gold.Version>
5.8.1

> <Gold.Id.Protein>
6NUR|6NUR_protein|mol2

> <Gold.PLP.Fitness>
47.0651

> <Gold.PLP.PLP>
-33.4693

> <Gold.PLP.part.hbond>
-5.8957

> <Gold.PLP.part.metal>
0.0000

> <Gold.PLP.part.buried>
-3.8883

> <Gold.PLP.part.nonpolar>
-24.5792

> <Gold.PLP.part.repulsive>
0.2406

> <Gold.PLP.ligand.clash>
0.0000

> <Gold.PLP.ligand.torsion>
0.3770

> <Gold.PLP.Chemscore.Hbond>
4.7800

> <Gold.PLP.Chemscore.CHOScore>
0.0000

> <Gold.PLP.Chemscore.Metal>
0.0000

> <Gold.Chemscore.Hbonds>
donor molecule, donor type, donor heavy atom, donor atom, acceptor molecule, acceptor atom, score
      L1  H     9    26       P1  7948  1.00
      L1  H    12    27       P1  7948  1.00
      L1  H    17    34       P1 10186  0.88
      P1  H 10752 10765       L1     4  1.00
      P1  H 10785 10796       L1    17  0.88

> <Gold.PLP.Chemscore.Internal.Correction>
0.0098

> <Gold.Rescore>
     Score         DG    S(hbond)    S(metal)    S(lipo)     H(rot)  DE(clash)    DE(int)     intcor
     18.01     -19.51       3.13        0.00      69.42       1.77       0.19       1.31       ----

> <Gold.Chemscore.Fitness>
18.0075

> <Gold.Chemscore.DG>
-19.5146

> <Gold.Chemscore.ZeroCoef>
-5.4800

> <Gold.Chemscore.Hbond>
3.1281

> <Gold.Chemscore.Metal>
0.0000

> <Gold.Chemscore.Lipo>
69.4155

> <Gold.Chemscore.Internal_Hbond>
0.0000

> <Gold.Chemscore.DEClash>
0.1932

> <Gold.Chemscore.DEInternal>
1.3140

> <Gold.Chemscore.Rot>
1.7714

> <Gold.Chemscore.Internal.Correction>
   9.000000E+99

> <Gold.Chemscore.Hbonds>
donor molecule, donor type, donor heavy atom, donor atom, acceptor molecule, acceptor atom, score
      L1  H     9    26       P1  7948  0.30
      L1  H    12    27       P1  7948  0.83
      L1  H    17    34       P1 10186  0.86
      P1  H 10752 10765       L1     4  0.12
      P1  H 10785 10796       L1    17  0.63

> <Gold.Chemscore.Hbond.Weighted>
-10.4477

> <Gold.Chemscore.Metal.Weighted>
-0.0000

> <Gold.Chemscore.Lipo.Weighted>
-8.1216

> <Gold.Chemscore.Internal_Hbond.Weighted>
0.0000

> <Gold.Chemscore.DEClash.Weighted>
0.1932

> <Gold.Chemscore.DEInternal.Weighted>
1.3140

> <Gold.Chemscore.Rot.Weighted>
4.5347

> <Gold.Chemscore.Internal.Correction.Weighted>
   9.000000E+99

> <Gold.Protein.RotatedTorsions>
[ 6907 6896 6895 6894 ] final  -13.92 input  -60.11 | X-H torsion
[ 7974 7965 7964 7962 ] final  -37.18 input  175.53 | X-H torsion
[ 8008 7997 7996 7995 ] final  164.02 input   59.86 | X-H torsion
[ 10167 10162 10161 10158 ] final   60.17 input  -65.29 | X-H torsion
[ 10718 10713 10712 10709 ] final  -39.42 input   66.30 | X-H torsion
[ 10763 10752 10751 10750 ] final -147.59 input  -60.55 | X-H torsion
[ 11005 11000 10999 10996 ] final  122.79 input  -57.11 | X-H torsion

> <Gold.Protein.ActiveResidues>
 VAL166  LYS551  ARG553  GLY616  TRP617  ASP618  TYR619  PRO620  LYS621  CYS622 
 ASP623  PHE694  ASN695  SER759  ASP760  ASP761  ALA762  ILE779  LEU786  VAL792 
 PHE793  MET794  SER795  GLU796  ALA797  LYS798  CYS799  TRP800  GLU811  SER814 

> <Gold.Protein.RotatedAtoms>
  151.3474  135.0877  159.9391 H   0  0  0  0  0  0  0  0  0  0  0  0  # atno 6907 bound_to 6896
  152.5196  133.9386  159.7626 H   0  0  0  0  0  0  0  0  0  0  0  0  # atno 6908 bound_to 6896
  150.9755  133.6246  159.2760 H   0  0  0  0  0  0  0  0  0  0  0  0  # atno 6909 bound_to 6896
  146.0597  140.6366  142.9003 H   0  0  0  0  0  0  0  0  0  0  0  0  # atno 7974 bound_to 7965
  156.1912  140.1708  156.8088 H   0  0  0  0  0  0  0  0  0  0  0  0  # atno 8008 bound_to 7997
  154.5474  140.0724  156.8643 H   0  0  0  0  0  0  0  0  0  0  0  0  # atno 8009 bound_to 7997
  155.3095  140.3366  155.4247 H   0  0  0  0  0  0  0  0  0  0  0  0  # atno 8010 bound_to 7997
  140.1684  144.4301  150.6673 H   0  0  0  0  0  0  0  0  0  0  0  0  # atno 10167 bound_to 10162
  156.2926  130.4230  149.8223 H   0  0  0  0  0  0  0  0  0  0  0  0  # atno 10718 bound_to 10713
  154.8278  135.3356  154.6842 H   0  0  0  0  0  0  0  0  0  0  0  0  # atno 10763 bound_to 10752
  153.7465  135.6942  153.4959 H   0  0  0  0  0  0  0  0  0  0  0  0  # atno 10764 bound_to 10752
  153.2206  135.4450  155.0436 H   0  0  0  0  0  0  0  0  0  0  0  0  # atno 10765 bound_to 10752
  139.9284  134.9641  156.8163 H   0  0  0  0  0  0  0  0  0  0  0  0  # atno 11005 bound_to 11000
  144.7168  140.4236  143.7038 LP  0  0  0  0  0  0  0  0  0  0  0  0  # atno 17320 bound_to 7965
  145.6582  139.1576  143.2823 LP  0  0  0  0  0  0  0  0  0  0  0  0  # atno 17321 bound_to 7965
  140.6598  143.2248  151.5884 LP  0  0  0  0  0  0  0  0  0  0  0  0  # atno 17342 bound_to 10162
  139.5349  144.2810  152.1229 LP  0  0  0  0  0  0  0  0  0  0  0  0  # atno 17343 bound_to 10162
  156.5630  130.8392  151.3334 LP  0  0  0  0  0  0  0  0  0  0  0  0  # atno 17370 bound_to 10713
  157.7346  130.9750  150.2041 LP  0  0  0  0  0  0  0  0  0  0  0  0  # atno 17371 bound_to 10713
  140.6271  133.9940  155.7645 LP  0  0  0  0  0  0  0  0  0  0  0  0  # atno 17394 bound_to 11000
  141.0857  133.9994  157.3317 LP  0  0  0  0  0  0  0  0  0  0  0  0  # atno 17395 bound_to 11000

$$$$
