AV-unprocessed.smi:767|AV-procd|sdf|3662|dock9
  -GOLD-   22720 1 73D 1   1.00000     0.00000
 Structure written by MMmdl.
 47 49  0  0  0  0  0  0  0  0  1 V2000
  145.2612  132.1318  149.5604 C   0  0  0  0  0  0  0  0  0  0  0  0
  145.2480  133.4293  150.3409 C   0  0  0  0  0  0  0  0  0  0  0  0
  146.0543  133.5862  151.4871 C   0  0  0  0  0  0  0  0  0  0  0  0
  146.0099  134.8139  152.1747 C   0  0  0  0  0  0  0  0  0  0  0  0
  145.1681  135.8359  151.6903 C   0  0  0  0  0  0  0  0  0  0  0  0
  145.1145  137.1908  152.3770 C   0  0  0  0  0  0  0  0  0  0  0  0
  146.1899  138.1803  151.8815 C   0  0  0  0  0  0  0  0  0  0  0  0
  147.3676  138.2198  152.7428 N   0  0  0  0  0  0  0  0  0  0  0  0
  147.4645  138.9015  153.8915 C   0  0  0  0  0  0  0  0  0  0  0  0
  146.5778  139.6245  154.3453 O   0  0  0  0  0  0  0  0  0  0  0  0
  148.6361  138.6744  154.4976 N   0  0  0  0  0  0  0  0  0  0  0  0
  149.0336  139.2173  155.7977 C   0  0  1  0  0  0  0  0  0  0  0  0
  150.4284  138.7332  156.2636 C   0  0  1  0  0  0  0  0  0  0  0  0
  151.1670  137.5943  155.6057 C   0  0  0  0  0  0  0  0  0  0  0  0
  152.0747  138.3069  154.5984 C   0  0  0  0  0  0  0  0  0  0  0  0
  151.5004  139.6026  154.4328 O   0  0  0  0  0  0  0  0  0  0  0  0
  150.9934  140.0252  155.6974 C   0  0  1  0  0  0  0  0  0  0  0  0
  149.5879  140.6632  155.6964 C   0  0  0  0  0  0  0  0  0  0  0  0
  149.2230  141.5100  154.4695 C   0  0  0  0  0  0  0  0  0  0  0  0
  149.2963  141.5349  156.9219 C   0  0  0  0  0  0  0  0  0  0  0  0
  144.3930  135.5724  150.5413 C   0  0  0  0  0  0  0  0  0  0  0  0
  144.4285  134.3980  149.8756 N   0  0  0  0  0  0  0  0  0  0  0  0
  146.2168  131.6194  149.6757 H   0  0  0  0  0  0  0  0  0  0  0  0
  145.1030  132.3141  148.4968 H   0  0  0  0  0  0  0  0  0  0  0  0
  144.4713  131.4708  149.9176 H   0  0  0  0  0  0  0  0  0  0  0  0
  146.6970  132.7886  151.8297 H   0  0  0  0  0  0  0  0  0  0  0  0
  146.6236  134.9703  153.0498 H   0  0  0  0  0  0  0  0  0  0  0  0
  144.1229  137.6205  152.2329 H   0  0  0  0  0  0  0  0  0  0  0  0
  145.2260  137.0463  153.4523 H   0  0  0  0  0  0  0  0  0  0  0  0
  146.5325  137.8740  150.8929 H   0  0  0  0  0  0  0  0  0  0  0  0
  145.7679  139.1795  151.7646 H   0  0  0  0  0  0  0  0  0  0  0  0
  148.1535  137.6518  152.4621 H   0  0  0  0  0  0  0  0  0  0  0  0
  149.2940  138.0556  154.0465 H   0  0  0  0  0  0  0  0  0  0  0  0
  148.2690  139.1129  156.5699 H   0  0  0  0  0  0  0  0  0  0  0  0
  150.4883  138.7219  157.3531 H   0  0  0  0  0  0  0  0  0  0  0  0
  151.7543  137.0175  156.3205 H   0  0  0  0  0  0  0  0  0  0  0  0
  150.4906  136.9007  155.1107 H   0  0  0  0  0  0  0  0  0  0  0  0
  153.0822  138.4155  155.0024 H   0  0  0  0  0  0  0  0  0  0  0  0
  152.1432  137.7760  153.6487 H   0  0  0  0  0  0  0  0  0  0  0  0
  151.7416  140.5022  156.3324 H   0  0  0  0  0  0  0  0  0  0  0  0
  149.7450  142.4673  154.4747 H   0  0  0  0  0  0  0  0  0  0  0  0
  148.1533  141.7190  154.4348 H   0  0  0  0  0  0  0  0  0  0  0  0
  149.4860  141.0166  153.5337 H   0  0  0  0  0  0  0  0  0  0  0  0
  149.8951  142.4461  156.9181 H   0  0  0  0  0  0  0  0  0  0  0  0
  149.5182  141.0110  157.8521 H   0  0  0  0  0  0  0  0  0  0  0  0
  148.2471  141.8293  156.9623 H   0  0  0  0  0  0  0  0  0  0  0  0
  143.7355  136.3283  150.1382 H   0  0  0  0  0  0  0  0  0  0  0  0
  1  2  1  0  0  0  0
  1 23  1  0  0  0  0
  1 24  1  0  0  0  0
  1 25  1  0  0  0  0
  2 22  1  0  0  0  0
  2  3  2  0  0  0  0
  3  4  1  0  0  0  0
  3 26  1  0  0  0  0
  4  5  2  0  0  0  0
  4 27  1  0  0  0  0
  5  6  1  0  0  0  0
  5 21  1  0  0  0  0
  6  7  1  0  0  0  0
  6 28  1  0  0  0  0
  6 29  1  0  0  0  0
  7  8  1  0  0  0  0
  7 30  1  0  0  0  0
  7 31  1  0  0  0  0
  8  9  1  0  0  0  0
  8 32  1  0  0  0  0
  9 10  2  0  0  0  0
  9 11  1  0  0  0  0
 11 12  1  0  0  0  0
 11 33  1  0  0  0  0
 12 18  1  0  0  0  0
 12 13  1  0  0  0  0
 12 34  1  0  0  0  0
 13 17  1  0  0  0  0
 13 14  1  0  0  0  0
 13 35  1  0  0  0  0
 14 15  1  0  0  0  0
 14 36  1  0  0  0  0
 14 37  1  0  0  0  0
 15 16  1  0  0  0  0
 15 38  1  0  0  0  0
 15 39  1  0  0  0  0
 16 17  1  0  0  0  0
 17 18  1  0  0  0  0
 17 40  1  0  0  0  0
 18 19  1  0  0  0  0
 18 20  1  0  0  0  0
 19 41  1  0  0  0  0
 19 42  1  0  0  0  0
 19 43  1  0  0  0  0
 20 44  1  0  0  0  0
 20 45  1  0  0  0  0
 20 46  1  0  0  0  0
 21 22  2  0  0  0  0
 21 47  1  0  0  0  0
M  END
> <s_m_source_file>
AV-unprocessed.smi

> <i_m_source_file_index>
767

> <i_lp_mmshare_version>
43012

> <i_f3d_flags>
0

> <s_epik_input>
W0NIM11jMVtjSF1bY0hdYyhbY0hdbjEpW0NIMl1bQ0gyXVtOSF1DKD1PKVtOSF1bQ0BIXTJDKFtDSDNdKShbQ0gzXSlbQ0BIXShbQ0BASF0yMylPW0NIMl1bQ0gyXTM=

> <s_epik_cmdline>
J2VwaWtfcHl0aG9uJywgJy1waCcsICc3LjAnLCAnLXRuJywgJzgnLCAnLW1hJywgJzIwMCcsICctbWV0YWxfYmluZGluZycsICctaW1hZScsICc8aW5maWxlLm1hZT4nLCAnLW9tYWUnLCAnPG91dGZpbGUubWFlPic=

> <r_epik_Ionization_Penalty>
0.0567523

> <r_epik_Ionization_Penalty_Charging>
0

> <r_epik_Ionization_Penalty_Neutral>
0.0567523

> <r_epik_State_Penalty>
0.0489186

> <r_epik_Charging_Adjusted_Penalty>
0.0489186

> <i_epik_Tot_Q>
0

> <i_epik_Tot_abs_Q>
0

> <r_epik_Metal_State_Penalty>
0.044622

> <b_epik_Metal_Only>
0

> <s_lp_Force_Field>
OPLS_2005

> <r_lp_Energy>
33.3409

> <b_lp_Chiralities_Consistent>
1

> <s_lp_Variant>
AV-unprocessed.smi:767-6

> <Gold.Version>
5.8.1

> <Gold.Id.Protein>
6NUR|6NUR_protein|mol2

> <Gold.PLP.Fitness>
42.5853

> <Gold.PLP.PLP>
-35.2450

> <Gold.PLP.part.hbond>
-1.9235

> <Gold.PLP.part.metal>
0.0000

> <Gold.PLP.part.buried>
-3.6924

> <Gold.PLP.part.nonpolar>
-30.9430

> <Gold.PLP.part.repulsive>
1.4120

> <Gold.PLP.ligand.clash>
0.0000

> <Gold.PLP.ligand.torsion>
0.9297

> <Gold.PLP.Chemscore.Hbond>
2.0000

> <Gold.PLP.Chemscore.CHOScore>
1.0000

> <Gold.PLP.Chemscore.Metal>
0.0000

> <Gold.Chemscore.Hbonds>
donor molecule, donor type, donor heavy atom, donor atom, acceptor molecule, acceptor atom, score
      L1  H     8    32       P1  7948  1.00
      P1  H  7989  7998       L1    16  1.00
      L1  C    21    47       P1 10171  1.00

> <Gold.PLP.Chemscore.Internal.Correction>
0.1997

> <Gold.Rescore>
     Score         DG    S(hbond)    S(metal)    S(lipo)     H(rot)  DE(clash)    DE(int)     intcor
     18.17     -19.26       1.92        0.00      94.59       1.45       0.11       0.98       ----

> <Gold.Chemscore.Fitness>
18.1722

> <Gold.Chemscore.DG>
-19.2645

> <Gold.Chemscore.ZeroCoef>
-5.4800

> <Gold.Chemscore.Hbond>
1.9249

> <Gold.Chemscore.Metal>
0.0000

> <Gold.Chemscore.Lipo>
94.5871

> <Gold.Chemscore.Internal_Hbond>
0.0000

> <Gold.Chemscore.DEClash>
0.1111

> <Gold.Chemscore.DEInternal>
0.9812

> <Gold.Chemscore.Rot>
1.4497

> <Gold.Chemscore.Internal.Correction>
   9.000000E+99

> <Gold.Chemscore.Hbonds>
donor molecule, donor type, donor heavy atom, donor atom, acceptor molecule, acceptor atom, score
      L1  H     8    32       P1  7948  0.99
      P1  H  7989  7998       L1    16  0.68

> <Gold.Chemscore.Hbond.Weighted>
-6.4291

> <Gold.Chemscore.Metal.Weighted>
-0.0000

> <Gold.Chemscore.Lipo.Weighted>
-11.0667

> <Gold.Chemscore.Internal_Hbond.Weighted>
0.0000

> <Gold.Chemscore.DEClash.Weighted>
0.1111

> <Gold.Chemscore.DEInternal.Weighted>
0.9812

> <Gold.Chemscore.Rot.Weighted>
3.7112

> <Gold.Chemscore.Internal.Correction.Weighted>
   9.000000E+99

> <Gold.Protein.RotatedTorsions>
[ 6907 6896 6895 6894 ] final  -43.75 input  -60.11 | X-H torsion
[ 7974 7965 7964 7962 ] final -136.62 input  175.53 | X-H torsion
[ 8008 7997 7996 7995 ] final  147.49 input   59.86 | X-H torsion
[ 10167 10162 10161 10158 ] final  101.82 input  -65.29 | X-H torsion
[ 10718 10713 10712 10709 ] final  166.77 input   66.30 | X-H torsion
[ 10763 10752 10751 10750 ] final  167.83 input  -60.55 | X-H torsion
[ 11005 11000 10999 10996 ] final   36.90 input  -57.11 | X-H torsion

> <Gold.Protein.ActiveResidues>
 VAL166  LYS551  ARG553  GLY616  TRP617  ASP618  TYR619  PRO620  LYS621  CYS622 
 ASP623  PHE694  ASN695  SER759  ASP760  ASP761  ALA762  ILE779  LEU786  VAL792 
 PHE793  MET794  SER795  GLU796  ALA797  LYS798  CYS799  TRP800  GLU811  SER814 

> <Gold.Protein.RotatedAtoms>
  150.9404  134.8814  159.7608 H   0  0  0  0  0  0  0  0  0  0  0  0  # atno 6907 bound_to 6896
  152.5078  134.3949  159.9407 H   0  0  0  0  0  0  0  0  0  0  0  0  # atno 6908 bound_to 6896
  151.3971  133.3729  159.2762 H   0  0  0  0  0  0  0  0  0  0  0  0  # atno 6909 bound_to 6896
  144.8911  140.6643  143.5145 H   0  0  0  0  0  0  0  0  0  0  0  0  # atno 7974 bound_to 7965
  156.2823  140.2154  156.5546 H   0  0  0  0  0  0  0  0  0  0  0  0  # atno 8008 bound_to 7997
  154.7263  140.0499  157.0708 H   0  0  0  0  0  0  0  0  0  0  0  0  # atno 8009 bound_to 7997
  155.0412  140.3146  155.4727 H   0  0  0  0  0  0  0  0  0  0  0  0  # atno 8010 bound_to 7997
  139.7404  144.7012  151.0584 H   0  0  0  0  0  0  0  0  0  0  0  0  # atno 10167 bound_to 10162
  157.0611  131.0340  151.2646 H   0  0  0  0  0  0  0  0  0  0  0  0  # atno 10718 bound_to 10713
  154.3597  135.2753  155.2327 H   0  0  0  0  0  0  0  0  0  0  0  0  # atno 10763 bound_to 10752
  154.4521  135.5928  153.6202 H   0  0  0  0  0  0  0  0  0  0  0  0  # atno 10764 bound_to 10752
  152.9844  135.6044  154.3816 H   0  0  0  0  0  0  0  0  0  0  0  0  # atno 10765 bound_to 10752
  140.2280  134.3562  155.7976 H   0  0  0  0  0  0  0  0  0  0  0  0  # atno 11005 bound_to 11000
  145.3781  139.1643  143.4295 LP  0  0  0  0  0  0  0  0  0  0  0  0  # atno 17320 bound_to 7965
  146.3054  140.3860  142.8689 LP  0  0  0  0  0  0  0  0  0  0  0  0  # atno 17321 bound_to 7965
  140.7785  143.4931  150.9867 LP  0  0  0  0  0  0  0  0  0  0  0  0  # atno 17342 bound_to 10162
  139.8619  143.7303  152.3173 LP  0  0  0  0  0  0  0  0  0  0  0  0  # atno 17343 bound_to 10162
  157.4953  130.7847  149.7549 LP  0  0  0  0  0  0  0  0  0  0  0  0  # atno 17370 bound_to 10713
  155.9978  130.3898  150.2726 LP  0  0  0  0  0  0  0  0  0  0  0  0  # atno 17371 bound_to 10713
  141.2219  133.7229  156.8684 LP  0  0  0  0  0  0  0  0  0  0  0  0  # atno 17394 bound_to 11000
  140.1780  134.9053  157.2915 LP  0  0  0  0  0  0  0  0  0  0  0  0  # atno 17395 bound_to 11000

$$$$
