AV-unprocessed.smi:1433|AV-procd|sdf|5843|dock3
  -GOLD-   22720 5503D 1   1.00000     0.00000
 Structure written by MMmdl.
 45 46  0  0  0  0  0  0  0  0  2 V2000
  145.7019  132.5526  150.1621 C   0  0  0  0  0  0  0  0  0  0  0  0
  146.2003  133.6852  151.0670 C   0  0  2  0  0  0  0  0  0  0  0  0
  146.9571  133.1519  152.2949 C   0  0  0  0  0  0  0  0  0  0  0  0
  147.3727  134.2633  153.1909 N   0  3  2  0  0  0  0  0  0  0  0  0
  148.2481  133.7938  154.3145 C   0  0  1  0  0  0  0  0  0  0  0  0
  149.4170  132.9494  153.7564 C   0  0  0  0  0  0  0  0  0  0  0  0
  148.7916  134.9402  155.2143 C   0  0  0  0  0  0  0  0  0  0  0  0
  149.4505  135.9943  154.4504 N   0  0  0  0  0  0  0  0  0  0  0  0
  150.2367  136.9493  154.9713 C   0  0  0  0  0  0  0  0  0  0  0  0
  150.4447  137.0729  156.1781 O   0  0  0  0  0  0  0  0  0  0  0  0
  150.9055  137.8970  153.9756 C   0  0  0  0  0  0  0  0  0  0  0  0
  150.2591  139.1976  153.9870 N   0  0  0  0  0  0  0  0  0  0  0  0
  148.9483  139.5048  153.6872 C   0  0  0  0  0  0  0  0  0  0  0  0
  148.7994  140.8522  153.8505 C   0  0  0  0  0  0  0  0  0  0  0  0
  150.0915  141.2889  154.2561 C   0  0  0  0  0  0  0  0  0  0  0  0
  150.9623  140.2962  154.3405 N   0  0  0  0  0  0  0  0  0  0  0  0
  146.1737  135.0531  153.5852 C   0  0  0  0  0  0  0  0  0  0  0  0
  145.3693  135.5254  152.3567 C   0  0  1  0  0  0  0  0  0  0  0  0
  146.0339  136.6869  151.5955 C   0  0  0  0  0  0  0  0  0  0  0  0
  145.0659  134.4257  151.5021 O   0  0  0  0  0  0  0  0  0  0  0  0
  146.5325  131.9529  149.7893 H   0  0  0  0  0  0  0  0  0  0  0  0
  145.1668  132.9502  149.2994 H   0  0  0  0  0  0  0  0  0  0  0  0
  145.0228  131.8882  150.6975 H   0  0  0  0  0  0  0  0  0  0  0  0
  146.8588  134.3228  150.4769 H   0  0  0  0  0  0  0  0  0  0  0  0
  146.3257  132.4558  152.8502 H   0  0  0  0  0  0  0  0  0  0  0  0
  147.8203  132.5846  151.9517 H   0  0  0  0  0  0  0  0  0  0  0  0
  147.6381  133.1509  154.9512 H   0  0  0  0  0  0  0  0  0  0  0  0
  150.0378  132.5387  154.5529 H   0  0  0  0  0  0  0  0  0  0  0  0
  150.0619  133.5500  153.1143 H   0  0  0  0  0  0  0  0  0  0  0  0
  149.0775  132.0953  153.1732 H   0  0  0  0  0  0  0  0  0  0  0  0
  147.9757  135.3955  155.7765 H   0  0  0  0  0  0  0  0  0  0  0  0
  149.5115  134.5689  155.9448 H   0  0  0  0  0  0  0  0  0  0  0  0
  149.3369  135.9726  153.4467 H   0  0  0  0  0  0  0  0  0  0  0  0
  151.9636  138.0113  154.2166 H   0  0  0  0  0  0  0  0  0  0  0  0
  150.8471  137.4845  152.9675 H   0  0  0  0  0  0  0  0  0  0  0  0
  148.2391  138.7471  153.3880 H   0  0  0  0  0  0  0  0  0  0  0  0
  147.9040  141.4373  153.7015 H   0  0  0  0  0  0  0  0  0  0  0  0
  150.4197  142.2906  154.4911 H   0  0  0  0  0  0  0  0  0  0  0  0
  145.5398  134.4389  154.2270 H   0  0  0  0  0  0  0  0  0  0  0  0
  146.4527  135.9374  154.1573 H   0  0  0  0  0  0  0  0  0  0  0  0
  144.4095  135.8979  152.7158 H   0  0  0  0  0  0  0  0  0  0  0  0
  146.1242  137.5661  152.2338 H   0  0  0  0  0  0  0  0  0  0  0  0
  145.4397  136.9720  150.7269 H   0  0  0  0  0  0  0  0  0  0  0  0
  147.0359  136.4369  151.2481 H   0  0  0  0  0  0  0  0  0  0  0  0
  147.9411  134.8896  152.6389 H   0  0  0  0  0  0  0  0  0  0  0  0
  1  2  1  0  0  0  0
  1 21  1  0  0  0  0
  1 22  1  0  0  0  0
  1 23  1  0  0  0  0
  2 20  1  0  0  0  0
  2  3  1  0  0  0  0
  2 24  1  0  0  0  0
  3  4  1  0  0  0  0
  3 25  1  0  0  0  0
  3 26  1  0  0  0  0
  4  5  1  0  0  0  0
  4 17  1  0  0  0  0
  4 45  1  0  0  0  0
  5  6  1  0  0  0  0
  5  7  1  0  0  0  0
  5 27  1  0  0  0  0
  6 28  1  0  0  0  0
  6 29  1  0  0  0  0
  6 30  1  0  0  0  0
  7  8  1  0  0  0  0
  7 31  1  0  0  0  0
  7 32  1  0  0  0  0
  8  9  1  0  0  0  0
  8 33  1  0  0  0  0
  9 10  2  0  0  0  0
  9 11  1  0  0  0  0
 11 12  1  0  0  0  0
 11 34  1  0  0  0  0
 11 35  1  0  0  0  0
 12 16  1  0  0  0  0
 12 13  1  0  0  0  0
 13 14  2  0  0  0  0
 13 36  1  0  0  0  0
 14 15  1  0  0  0  0
 14 37  1  0  0  0  0
 15 16  2  0  0  0  0
 15 38  1  0  0  0  0
 17 18  1  0  0  0  0
 17 39  1  0  0  0  0
 17 40  1  0  0  0  0
 18 19  1  0  0  0  0
 18 20  1  0  0  0  0
 18 41  1  0  0  0  0
 19 42  1  0  0  0  0
 19 43  1  0  0  0  0
 19 44  1  0  0  0  0
M  CHG  1   4   1
M  END
> <s_m_source_file>
AV-unprocessed.smi

> <i_m_source_file_index>
1433

> <i_lp_mmshare_version>
43012

> <i_f3d_flags>
0

> <s_epik_input>
W0NIM11bQ0BASF0xW0NIMl1OKFtDSDJdW0NASF0oTzEpW0NIM10pW0NASF0oW0NIM10pW0NIMl1bTkhdQyg9TylbQ0gyXW4yW2NIXVtjSF1bY0hdbjI=

> <s_epik_cmdline>
J2VwaWtfcHl0aG9uJywgJy1waCcsICc3LjAnLCAnLXRuJywgJzgnLCAnLW1hJywgJzIwMCcsICctbWV0YWxfYmluZGluZycsICctaW1hZScsICc8aW5maWxlLm1hZT4nLCAnLW9tYWUnLCAnPG91dGZpbGUubWFlPic=

> <r_lp_tautomer_probability>
1

> <r_epik_Ionization_Penalty>
0.748405

> <r_epik_Ionization_Penalty_Charging>
0.748396

> <r_epik_Ionization_Penalty_Neutral>
8.54426e-06

> <r_epik_State_Penalty>
0.775162

> <r_epik_Charging_Adjusted_Penalty>
1.52356

> <i_epik_Tot_Q>
1

> <i_epik_Tot_abs_Q>
1

> <r_epik_Metal_State_Penalty>
0.775167

> <b_epik_Metal_Only>
0

> <s_lp_Force_Field>
OPLS_2005

> <r_lp_Energy>
20.9037

> <b_lp_Chiralities_Consistent>
1

> <s_lp_Variant>
AV-unprocessed.smi:1433-9

> <Gold.Version>
5.8.1

> <Gold.Id.Protein>
6NUR|6NUR_protein|mol2

> <Gold.PLP.Fitness>
48.3684

> <Gold.PLP.PLP>
-33.9842

> <Gold.PLP.part.hbond>
-3.0000

> <Gold.PLP.part.metal>
0.0000

> <Gold.PLP.part.buried>
-2.6682

> <Gold.PLP.part.nonpolar>
-28.4285

> <Gold.PLP.part.repulsive>
0.2368

> <Gold.PLP.ligand.clash>
0.0000

> <Gold.PLP.ligand.torsion>
0.3533

> <Gold.PLP.Chemscore.Hbond>
4.0000

> <Gold.PLP.Chemscore.CHOScore>
1.0000

> <Gold.PLP.Chemscore.Metal>
0.0000

> <Gold.Chemscore.Hbonds>
donor molecule, donor type, donor heavy atom, donor atom, acceptor molecule, acceptor atom, score
      L1  H     4    45       P1  7948  2.00
      L1  H     8    33       P1  7948  1.00
      P1  H  7989  7998       L1    16  0.09

> <Gold.PLP.Chemscore.Internal.Correction>
0.0909

> <Gold.Rescore>
     Score         DG    S(hbond)    S(metal)    S(lipo)     H(rot)  DE(clash)    DE(int)     intcor
     18.34     -19.01       2.78        0.00      76.97       1.87       0.21       0.46       ----

> <Gold.Chemscore.Fitness>
18.3353

> <Gold.Chemscore.DG>
-19.0071

> <Gold.Chemscore.ZeroCoef>
-5.4800

> <Gold.Chemscore.Hbond>
2.7839

> <Gold.Chemscore.Metal>
0.0000

> <Gold.Chemscore.Lipo>
76.9651

> <Gold.Chemscore.Internal_Hbond>
0.0000

> <Gold.Chemscore.DEClash>
0.2095

> <Gold.Chemscore.DEInternal>
0.4623

> <Gold.Chemscore.Rot>
1.8657

> <Gold.Chemscore.Internal.Correction>
   9.000000E+99

> <Gold.Chemscore.Hbonds>
donor molecule, donor type, donor heavy atom, donor atom, acceptor molecule, acceptor atom, score
      L1  H     4    45       P1  7948  0.88
      L1  H     8    33       P1  7948  0.60

> <Gold.Chemscore.Hbond.Weighted>
-9.2983

> <Gold.Chemscore.Metal.Weighted>
-0.0000

> <Gold.Chemscore.Lipo.Weighted>
-9.0049

> <Gold.Chemscore.Internal_Hbond.Weighted>
0.0000

> <Gold.Chemscore.DEClash.Weighted>
0.2095

> <Gold.Chemscore.DEInternal.Weighted>
0.4623

> <Gold.Chemscore.Rot.Weighted>
4.7761

> <Gold.Chemscore.Internal.Correction.Weighted>
   9.000000E+99

> <Gold.Protein.RotatedTorsions>
[ 6907 6896 6895 6894 ] final  -27.75 input  -60.11 | X-H torsion
[ 7974 7965 7964 7962 ] final  -82.50 input  175.53 | X-H torsion
[ 8008 7997 7996 7995 ] final -177.99 input   59.86 | X-H torsion
[ 10167 10162 10161 10158 ] final  -28.05 input  -65.29 | X-H torsion
[ 10718 10713 10712 10709 ] final  176.19 input   66.30 | X-H torsion
[ 10763 10752 10751 10750 ] final  -26.13 input  -60.55 | X-H torsion
[ 11005 11000 10999 10996 ] final   75.93 input  -57.11 | X-H torsion

> <Gold.Protein.ActiveResidues>
 VAL166  LYS551  ARG553  GLY616  TRP617  ASP618  TYR619  PRO620  LYS621  CYS622 
 ASP623  PHE694  ASN695  SER759  ASP760  ASP761  ALA762  ILE779  LEU786  VAL792 
 PHE793  MET794  SER795  GLU796  ALA797  LYS798  CYS799  TRP800  GLU811  SER814 

> <Gold.Protein.RotatedAtoms>
  151.1425  135.0187  159.8631 H   0  0  0  0  0  0  0  0  0  0  0  0  # atno 6907 bound_to 6896
  152.5452  134.1482  159.8517 H   0  0  0  0  0  0  0  0  0  0  0  0  # atno 6908 bound_to 6896
  151.1559  133.4831  159.2627 H   0  0  0  0  0  0  0  0  0  0  0  0  # atno 6909 bound_to 6896
  145.5324  140.9519  143.1595 H   0  0  0  0  0  0  0  0  0  0  0  0  # atno 7974 bound_to 7965
  156.0136  140.1246  157.0429 H   0  0  0  0  0  0  0  0  0  0  0  0  # atno 8008 bound_to 7997
  154.4285  140.1083  156.5933 H   0  0  0  0  0  0  0  0  0  0  0  0  # atno 8009 bound_to 7997
  155.6045  140.3471  155.4606 H   0  0  0  0  0  0  0  0  0  0  0  0  # atno 8010 bound_to 7997
  140.7273  143.4042  151.1213 H   0  0  0  0  0  0  0  0  0  0  0  0  # atno 10167 bound_to 10162
  156.9238  130.9949  151.3000 H   0  0  0  0  0  0  0  0  0  0  0  0  # atno 10718 bound_to 10713
  153.7110  135.6950  153.5037 H   0  0  0  0  0  0  0  0  0  0  0  0  # atno 10763 bound_to 10752
  153.2273  135.4349  155.0555 H   0  0  0  0  0  0  0  0  0  0  0  0  # atno 10764 bound_to 10752
  154.8315  135.3475  154.6646 H   0  0  0  0  0  0  0  0  0  0  0  0  # atno 10765 bound_to 10752
  139.9321  134.7559  156.1332 H   0  0  0  0  0  0  0  0  0  0  0  0  # atno 11005 bound_to 11000
  144.7619  139.6937  143.7231 LP  0  0  0  0  0  0  0  0  0  0  0  0  # atno 17320 bound_to 7965
  146.2035  139.5345  142.9728 LP  0  0  0  0  0  0  0  0  0  0  0  0  # atno 17321 bound_to 7965
  139.7667  143.8555  152.3112 LP  0  0  0  0  0  0  0  0  0  0  0  0  # atno 17342 bound_to 10162
  139.8460  144.7187  150.9273 LP  0  0  0  0  0  0  0  0  0  0  0  0  # atno 17343 bound_to 10162
  157.5891  130.8431  149.8632 LP  0  0  0  0  0  0  0  0  0  0  0  0  # atno 17370 bound_to 10713
  156.0479  130.3724  150.1273 LP  0  0  0  0  0  0  0  0  0  0  0  0  # atno 17371 bound_to 10713
  141.0915  133.6712  156.2551 LP  0  0  0  0  0  0  0  0  0  0  0  0  # atno 17394 bound_to 11000
  140.6174  134.5396  157.5542 LP  0  0  0  0  0  0  0  0  0  0  0  0  # atno 17395 bound_to 11000

$$$$
