AV-unprocessed.smi:1554|AV-procd|sdf|6241|dock3
  -GOLD-   22720 6423D 1   1.00000     0.00000
 Structure written by MMmdl.
 47 49  0  0  0  0  0  0  0  0  1 V2000
  151.6519  144.0131  158.6204 C   0  0  0  0  0  0  0  0  0  0  0  0
  151.5604  142.6170  158.0301 C   0  0  0  0  0  0  0  0  0  0  0  0
  150.9950  142.4496  156.7458 C   0  0  0  0  0  0  0  0  0  0  0  0
  150.8949  141.1687  156.1600 C   0  0  0  0  0  0  0  0  0  0  0  0
  150.3890  140.7794  154.9314 N   0  0  0  0  0  0  0  0  0  0  0  0
  150.5772  139.4636  154.9689 C   0  0  0  0  0  0  0  0  0  0  0  0
  151.1465  138.9531  156.0776 N   0  0  0  0  0  0  0  0  0  0  0  0
  151.4461  137.5562  156.3394 C   0  0  0  0  0  0  0  0  0  0  0  0
  150.8451  136.6143  155.2789 C   0  0  1  0  0  0  0  0  0  0  0  0
  151.6759  136.6162  154.1340 O   0  0  0  0  0  0  0  0  0  0  0  0
  150.7366  135.1689  155.8066 C   0  0  0  0  0  0  0  0  0  0  0  0
  150.1981  134.1862  154.8639 N   0  0  0  0  0  0  0  0  0  0  0  0
  150.3252  132.8339  155.3960 C   0  0  0  0  0  0  0  0  0  0  0  0
  149.7701  131.7783  154.4255 C   0  0  0  0  0  0  0  0  0  0  0  0
  148.4101  132.0766  154.1290 O   0  0  0  0  0  0  0  0  0  0  0  0
  148.2391  133.3705  153.5573 C   0  0  1  0  0  0  0  0  0  0  0  0
  146.7487  133.5763  153.2665 C   0  0  0  0  0  0  0  0  0  0  0  0
  148.7962  134.4311  154.5277 C   0  0  0  0  0  0  0  0  0  0  0  0
  151.3775  140.0503  156.9008 C   0  0  0  0  0  0  0  0  0  0  0  0
  151.9424  140.2041  158.1791 C   0  0  0  0  0  0  0  0  0  0  0  0
  152.0361  141.4911  158.7491 C   0  0  0  0  0  0  0  0  0  0  0  0
  152.6508  141.6473  160.1287 C   0  0  0  0  0  0  0  0  0  0  0  0
  151.2295  144.7589  157.9464 H   0  0  0  0  0  0  0  0  0  0  0  0
  152.6922  144.2814  158.8065 H   0  0  0  0  0  0  0  0  0  0  0  0
  151.1060  144.0674  159.5626 H   0  0  0  0  0  0  0  0  0  0  0  0
  150.6335  143.3069  156.1973 H   0  0  0  0  0  0  0  0  0  0  0  0
  150.2856  138.8329  154.1418 H   0  0  0  0  0  0  0  0  0  0  0  0
  152.5286  137.4335  156.3938 H   0  0  0  0  0  0  0  0  0  0  0  0
  151.0561  137.3059  157.3268 H   0  0  0  0  0  0  0  0  0  0  0  0
  149.8668  137.0002  154.9958 H   0  0  0  0  0  0  0  0  0  0  0  0
  151.2043  136.2138  153.4207 H   0  0  0  0  0  0  0  0  0  0  0  0
  151.7306  134.8537  156.1279 H   0  0  0  0  0  0  0  0  0  0  0  0
  150.1227  135.1636  156.7086 H   0  0  0  0  0  0  0  0  0  0  0  0
  151.3736  132.6141  155.6017 H   0  0  0  0  0  0  0  0  0  0  0  0
  149.7978  132.7594  156.3484 H   0  0  0  0  0  0  0  0  0  0  0  0
  150.3545  131.7529  153.5046 H   0  0  0  0  0  0  0  0  0  0  0  0
  149.8288  130.7850  154.8706 H   0  0  0  0  0  0  0  0  0  0  0  0
  148.7885  133.4147  152.6154 H   0  0  0  0  0  0  0  0  0  0  0  0
  146.5687  134.5515  152.8133 H   0  0  0  0  0  0  0  0  0  0  0  0
  146.1563  133.5165  154.1799 H   0  0  0  0  0  0  0  0  0  0  0  0
  146.3778  132.8168  152.5781 H   0  0  0  0  0  0  0  0  0  0  0  0
  148.1953  134.4417  155.4386 H   0  0  0  0  0  0  0  0  0  0  0  0
  148.6814  135.4108  154.0666 H   0  0  0  0  0  0  0  0  0  0  0  0
  152.3035  139.3385  158.7148 H   0  0  0  0  0  0  0  0  0  0  0  0
  152.9496  140.6838  160.5424 H   0  0  0  0  0  0  0  0  0  0  0  0
  151.9364  142.0993  160.8173 H   0  0  0  0  0  0  0  0  0  0  0  0
  153.5366  142.2809  160.0818 H   0  0  0  0  0  0  0  0  0  0  0  0
  1  2  1  0  0  0  0
  1 23  1  0  0  0  0
  1 24  1  0  0  0  0
  1 25  1  0  0  0  0
  2 21  1  0  0  0  0
  2  3  2  0  0  0  0
  3  4  1  0  0  0  0
  3 26  1  0  0  0  0
  4 19  2  0  0  0  0
  4  5  1  0  0  0  0
  5  6  2  0  0  0  0
  6  7  1  0  0  0  0
  6 27  1  0  0  0  0
  7  8  1  0  0  0  0
  7 19  1  0  0  0  0
  8  9  1  0  0  0  0
  8 28  1  0  0  0  0
  8 29  1  0  0  0  0
  9 10  1  0  0  0  0
  9 11  1  0  0  0  0
  9 30  1  0  0  0  0
 10 31  1  0  0  0  0
 11 12  1  0  0  0  0
 11 32  1  0  0  0  0
 11 33  1  0  0  0  0
 12 18  1  0  0  0  0
 12 13  1  0  0  0  0
 13 14  1  0  0  0  0
 13 34  1  0  0  0  0
 13 35  1  0  0  0  0
 14 15  1  0  0  0  0
 14 36  1  0  0  0  0
 14 37  1  0  0  0  0
 15 16  1  0  0  0  0
 16 17  1  0  0  0  0
 16 18  1  0  0  0  0
 16 38  1  0  0  0  0
 17 39  1  0  0  0  0
 17 40  1  0  0  0  0
 17 41  1  0  0  0  0
 18 42  1  0  0  0  0
 18 43  1  0  0  0  0
 19 20  1  0  0  0  0
 20 21  2  0  0  0  0
 20 44  1  0  0  0  0
 21 22  1  0  0  0  0
 22 45  1  0  0  0  0
 22 46  1  0  0  0  0
 22 47  1  0  0  0  0
M  END
> <s_m_source_file>
AV-unprocessed.smi

> <i_m_source_file_index>
1554

> <i_lp_mmshare_version>
43012

> <i_f3d_flags>
0

> <s_epik_input>
W0NIM11jKFtjSF0xKWMoW0NIM10pW2NIXWMoYzEyKW4oW2NIXW4yKVtDSDJdW0NASF0oW09IXSlbQ0gyXU4zW0NIMl1bQ0gyXU9bQ0BASF0oW0NIM10pW0NIMl0z

> <s_epik_cmdline>
J2VwaWtfcHl0aG9uJywgJy1waCcsICc3LjAnLCAnLXRuJywgJzgnLCAnLW1hJywgJzIwMCcsICctbWV0YWxfYmluZGluZycsICctaW1hZScsICc8aW5maWxlLm1hZT4nLCAnLW9tYWUnLCAnPG91dGZpbGUubWFlPic=

> <r_epik_Ionization_Penalty>
0.345108

> <r_epik_Ionization_Penalty_Charging>
0

> <r_epik_Ionization_Penalty_Neutral>
0.345108

> <r_epik_State_Penalty>
0.314544

> <r_epik_Charging_Adjusted_Penalty>
0.314544

> <i_epik_Tot_Q>
0

> <i_epik_Tot_abs_Q>
0

> <r_epik_Metal_State_Penalty>
0.239719

> <b_epik_Metal_Only>
0

> <s_lp_Force_Field>
OPLS_2005

> <r_lp_Energy>
29.8053

> <b_lp_Chiralities_Consistent>
1

> <s_lp_Variant>
AV-unprocessed.smi:1554-2

> <Gold.Version>
5.8.1

> <Gold.Id.Protein>
6NUR|6NUR_protein|mol2

> <Gold.PLP.Fitness>
47.2561

> <Gold.PLP.PLP>
-41.0441

> <Gold.PLP.part.hbond>
-3.0000

> <Gold.PLP.part.metal>
0.0000

> <Gold.PLP.part.buried>
-5.7253

> <Gold.PLP.part.nonpolar>
-33.5966

> <Gold.PLP.part.repulsive>
0.2526

> <Gold.PLP.ligand.clash>
0.0000

> <Gold.PLP.ligand.torsion>
0.2900

> <Gold.PLP.Chemscore.Hbond>
2.2560

> <Gold.PLP.Chemscore.CHOScore>
0.0000

> <Gold.PLP.Chemscore.Metal>
0.0000

> <Gold.Chemscore.Hbonds>
donor molecule, donor type, donor heavy atom, donor atom, acceptor molecule, acceptor atom, score
      L1  H    10    31       P1  7949  0.88
      P1  H  7989  7998       L1     5  0.42
      P1  H 10752 10763       L1    10  0.90

> <Gold.PLP.Chemscore.Internal.Correction>
0.0239

> <Gold.Rescore>
     Score         DG    S(hbond)    S(metal)    S(lipo)     H(rot)  DE(clash)    DE(int)     intcor
     15.87     -16.27       0.95        0.00     108.58       1.98       0.05       0.34       ----

> <Gold.Chemscore.Fitness>
15.8737

> <Gold.Chemscore.DG>
-16.2673

> <Gold.Chemscore.ZeroCoef>
-5.4800

> <Gold.Chemscore.Hbond>
0.9473

> <Gold.Chemscore.Metal>
0.0000

> <Gold.Chemscore.Lipo>
108.5828

> <Gold.Chemscore.Internal_Hbond>
0.0000

> <Gold.Chemscore.DEClash>
0.0487

> <Gold.Chemscore.DEInternal>
0.3448

> <Gold.Chemscore.Rot>
1.9848

> <Gold.Chemscore.Internal.Correction>
   9.000000E+99

> <Gold.Chemscore.Hbonds>
donor molecule, donor type, donor heavy atom, donor atom, acceptor molecule, acceptor atom, score
      L1  H    10    31       P1  7949  0.38
      P1  H  7989  7998       L1     5  0.02
      P1  H 10752 10763       L1    10  0.17

> <Gold.Chemscore.Hbond.Weighted>
-3.1641

> <Gold.Chemscore.Metal.Weighted>
-0.0000

> <Gold.Chemscore.Lipo.Weighted>
-12.7042

> <Gold.Chemscore.Internal_Hbond.Weighted>
0.0000

> <Gold.Chemscore.DEClash.Weighted>
0.0487

> <Gold.Chemscore.DEInternal.Weighted>
0.3448

> <Gold.Chemscore.Rot.Weighted>
5.0810

> <Gold.Chemscore.Internal.Correction.Weighted>
   9.000000E+99

> <Gold.Protein.RotatedTorsions>
[ 6907 6896 6895 6894 ] final  -39.49 input  -60.11 | X-H torsion
[ 7974 7965 7964 7962 ] final  -35.53 input  175.53 | X-H torsion
[ 8008 7997 7996 7995 ] final   13.94 input   59.86 | X-H torsion
[ 10167 10162 10161 10158 ] final -126.94 input  -65.29 | X-H torsion
[ 10718 10713 10712 10709 ] final   36.25 input   66.30 | X-H torsion
[ 10763 10752 10751 10750 ] final   30.77 input  -60.55 | X-H torsion
[ 11005 11000 10999 10996 ] final  -93.97 input  -57.11 | X-H torsion

> <Gold.Protein.ActiveResidues>
 VAL166  LYS551  ARG553  GLY616  TRP617  ASP618  TYR619  PRO620  LYS621  CYS622 
 ASP623  PHE694  ASN695  SER759  ASP760  ASP761  ALA762  ILE779  LEU786  VAL792 
 PHE793  MET794  SER795  GLU796  ALA797  LYS798  CYS799  TRP800  GLU811  SER814 

> <Gold.Protein.RotatedAtoms>
  150.9897  134.9234  159.7892 H   0  0  0  0  0  0  0  0  0  0  0  0  # atno 6907 bound_to 6896
  152.5247  134.3298  159.9189 H   0  0  0  0  0  0  0  0  0  0  0  0  # atno 6908 bound_to 6896
  151.3304  133.3961  159.2696 H   0  0  0  0  0  0  0  0  0  0  0  0  # atno 6909 bound_to 6896
  146.0739  140.6170  142.8940 H   0  0  0  0  0  0  0  0  0  0  0  0  # atno 7974 bound_to 7965
  154.8415  140.2915  155.5656 H   0  0  0  0  0  0  0  0  0  0  0  0  # atno 8008 bound_to 7997
  156.3012  140.2513  156.3290 H   0  0  0  0  0  0  0  0  0  0  0  0  # atno 8009 bound_to 7997
  154.9120  140.0388  157.1941 H   0  0  0  0  0  0  0  0  0  0  0  0  # atno 8010 bound_to 7997
  139.9662  143.5896  152.2428 H   0  0  0  0  0  0  0  0  0  0  0  0  # atno 10167 bound_to 10162
  157.3326  130.7506  149.6858 H   0  0  0  0  0  0  0  0  0  0  0  0  # atno 10718 bound_to 10713
  153.0353  135.6456  154.1096 H   0  0  0  0  0  0  0  0  0  0  0  0  # atno 10763 bound_to 10752
  154.0811  135.2873  155.3291 H   0  0  0  0  0  0  0  0  0  0  0  0  # atno 10764 bound_to 10752
  154.6529  135.5419  153.7987 H   0  0  0  0  0  0  0  0  0  0  0  0  # atno 10765 bound_to 10752
  141.1483  133.7924  157.0234 H   0  0  0  0  0  0  0  0  0  0  0  0  # atno 11005 bound_to 11000
  144.7249  140.4492  143.6981 LP  0  0  0  0  0  0  0  0  0  0  0  0  # atno 17320 bound_to 7965
  145.6342  139.1540  143.2952 LP  0  0  0  0  0  0  0  0  0  0  0  0  # atno 17321 bound_to 7965
  139.6516  144.7661  151.2137 LP  0  0  0  0  0  0  0  0  0  0  0  0  # atno 17342 bound_to 10162
  140.7537  143.6152  150.8567 LP  0  0  0  0  0  0  0  0  0  0  0  0  # atno 17343 bound_to 10162
  155.9697  130.4191  150.4357 LP  0  0  0  0  0  0  0  0  0  0  0  0  # atno 17370 bound_to 10713
  157.2392  131.0521  151.2447 LP  0  0  0  0  0  0  0  0  0  0  0  0  # atno 17371 bound_to 10713
  140.0801  134.9653  157.1610 LP  0  0  0  0  0  0  0  0  0  0  0  0  # atno 17394 bound_to 11000
  140.3589  134.2516  155.7189 LP  0  0  0  0  0  0  0  0  0  0  0  0  # atno 17395 bound_to 11000

$$$$
