AV-unprocessed.smi:3196|AV-procd|sdf|12223|dock3
  -GOLD-   2272018 53D 1   1.00000     0.00000
 Structure written by MMmdl.
 33 34  0  0  0  0  0  0  0  0  1 V2000
  151.7182  138.3086  154.7306 C   0  0  0  0  0  0  0  0  0  0  0  0
  150.4491  139.1666  154.7656 C   0  0  0  0  0  0  0  0  0  0  0  0
  149.1679  138.3218  154.7612 C   0  0  0  0  0  0  0  0  0  0  0  0
  147.9224  139.1622  154.5406 C   0  0  2  0  0  0  0  0  0  0  0  0
  146.5789  138.7012  155.0390 C   0  0  0  0  0  0  0  0  0  0  0  0
  146.8449  138.7694  153.5487 C   0  0  2  0  0  0  0  0  0  0  0  0
  146.9586  137.5238  152.8486 N   0  0  0  0  0  0  0  0  0  0  0  0
  146.0031  136.5984  152.6502 C   0  0  0  0  0  0  0  0  0  0  0  0
  144.8771  136.7459  153.1194 O   0  0  0  0  0  0  0  0  0  0  0  0
  146.4155  135.5234  151.9489 N   0  0  0  0  0  0  0  0  0  0  0  0
  145.7013  134.3568  151.5566 C   0  0  0  0  0  0  0  0  0  0  0  0
  144.3360  134.3302  151.1790 C   0  0  0  0  0  0  0  0  0  0  0  0
  143.7612  133.0974  150.8091 C   0  0  0  0  0  0  0  0  0  0  0  0
  144.4432  131.9330  150.7894 N   0  0  0  0  0  0  0  0  0  0  0  0
  145.7450  131.9621  151.1436 C   0  0  0  0  0  0  0  0  0  0  0  0
  146.4153  133.1395  151.5314 C   0  0  0  0  0  0  0  0  0  0  0  0
  147.7258  133.0970  151.8743 F   0  0  0  0  0  0  0  0  0  0  0  0
  152.6105  138.9348  154.7341 H   0  0  0  0  0  0  0  0  0  0  0  0
  151.7497  137.6889  153.8342 H   0  0  0  0  0  0  0  0  0  0  0  0
  151.7709  137.6489  155.5970 H   0  0  0  0  0  0  0  0  0  0  0  0
  150.4667  139.7988  155.6541 H   0  0  0  0  0  0  0  0  0  0  0  0
  150.4470  139.8396  153.9074 H   0  0  0  0  0  0  0  0  0  0  0  0
  149.2199  137.5699  153.9732 H   0  0  0  0  0  0  0  0  0  0  0  0
  149.0829  137.7831  155.7057 H   0  0  0  0  0  0  0  0  0  0  0  0
  148.1126  140.2317  154.6096 H   0  0  0  0  0  0  0  0  0  0  0  0
  146.5218  137.7177  155.5021 H   0  0  0  0  0  0  0  0  0  0  0  0
  145.9197  139.4535  155.4673 H   0  0  0  0  0  0  0  0  0  0  0  0
  146.3357  139.5838  153.0356 H   0  0  0  0  0  0  0  0  0  0  0  0
  147.8837  137.2919  152.5167 H   0  0  0  0  0  0  0  0  0  0  0  0
  147.3855  135.5373  151.6685 H   0  0  0  0  0  0  0  0  0  0  0  0
  143.7184  135.2133  151.1579 H   0  0  0  0  0  0  0  0  0  0  0  0
  142.7224  133.0467  150.5179 H   0  0  0  0  0  0  0  0  0  0  0  0
  146.2693  131.0185  151.1161 H   0  0  0  0  0  0  0  0  0  0  0  0
  1  2  1  0  0  0  0
  1 18  1  0  0  0  0
  1 19  1  0  0  0  0
  1 20  1  0  0  0  0
  2  3  1  0  0  0  0
  2 21  1  0  0  0  0
  2 22  1  0  0  0  0
  3  4  1  0  0  0  0
  3 23  1  0  0  0  0
  3 24  1  0  0  0  0
  4  6  1  0  0  0  0
  4  5  1  0  0  0  0
  4 25  1  0  0  0  0
  5  6  1  0  0  0  0
  5 26  1  0  0  0  0
  5 27  1  0  0  0  0
  6  7  1  0  0  0  0
  6 28  1  0  0  0  0
  7  8  1  0  0  0  0
  7 29  1  0  0  0  0
  8  9  2  0  0  0  0
  8 10  1  0  0  0  0
 10 11  1  0  0  0  0
 10 30  1  0  0  0  0
 11 16  1  0  0  0  0
 11 12  2  0  0  0  0
 12 13  1  0  0  0  0
 12 31  1  0  0  0  0
 13 14  2  0  0  0  0
 13 32  1  0  0  0  0
 14 15  1  0  0  0  0
 15 16  2  0  0  0  0
 15 33  1  0  0  0  0
 16 17  1  0  0  0  0
M  END
> <s_m_source_file>
AV-unprocessed.smi

> <i_m_source_file_index>
3196

> <i_lp_mmshare_version>
43012

> <i_f3d_flags>
0

> <s_epik_input>
W0NIM11bQ0gyXVtDSDJdW0NAQEhdMVtDSDJdW0NASF0xW05IXUMoPU8pW05IXWMyW2NIXVtjSF1uW2NIXWMyRg==

> <s_epik_cmdline>
J2VwaWtfcHl0aG9uJywgJy1waCcsICc3LjAnLCAnLXRuJywgJzgnLCAnLW1hJywgJzIwMCcsICctbWV0YWxfYmluZGluZycsICctaW1hZScsICc8aW5maWxlLm1hZT4nLCAnLW9tYWUnLCAnPG91dGZpbGUubWFlPic=

> <r_epik_Ionization_Penalty>
0.00341997

> <r_epik_Ionization_Penalty_Charging>
0

> <r_epik_Ionization_Penalty_Neutral>
0.00341997

> <r_epik_State_Penalty>
0.00239198

> <r_epik_Charging_Adjusted_Penalty>
0.00239198

> <i_epik_Tot_Q>
0

> <i_epik_Tot_abs_Q>
0

> <r_epik_Metal_State_Penalty>
-0

> <b_epik_Metal_Only>
0

> <s_lp_Force_Field>
OPLS_2005

> <r_lp_Energy>
35.1312

> <b_lp_Chiralities_Consistent>
1

> <s_lp_Variant>
AV-unprocessed.smi:3196-3

> <Gold.Version>
5.8.1

> <Gold.Id.Protein>
6NUR|6NUR_protein|mol2

> <Gold.PLP.Fitness>
38.3248

> <Gold.PLP.PLP>
-30.4739

> <Gold.PLP.part.hbond>
-2.0000

> <Gold.PLP.part.metal>
0.0000

> <Gold.PLP.part.buried>
-3.7590

> <Gold.PLP.part.nonpolar>
-26.3534

> <Gold.PLP.part.repulsive>
0.4973

> <Gold.PLP.ligand.clash>
0.0000

> <Gold.PLP.ligand.torsion>
0.8560

> <Gold.PLP.Chemscore.Hbond>
2.0000

> <Gold.PLP.Chemscore.CHOScore>
1.0000

> <Gold.PLP.Chemscore.Metal>
0.0000

> <Gold.Chemscore.Hbonds>
donor molecule, donor type, donor heavy atom, donor atom, acceptor molecule, acceptor atom, score
      L1  H     7    29       P1  7948  1.00
      L1  H    10    30       P1  7948  0.99
      L1  C    13    32       P1 10186  1.00
      L1  C    15    33       P1 10747  0.20

> <Gold.PLP.Chemscore.Internal.Correction>
0.5628

> <Gold.Rescore>
     Score         DG    S(hbond)    S(metal)    S(lipo)     H(rot)  DE(clash)    DE(int)     intcor
     15.00     -16.34       1.92        0.00      68.26       1.39       0.04       1.30       ----

> <Gold.Chemscore.Fitness>
15.0037

> <Gold.Chemscore.DG>
-16.3352

> <Gold.Chemscore.ZeroCoef>
-5.4800

> <Gold.Chemscore.Hbond>
1.9206

> <Gold.Chemscore.Metal>
0.0000

> <Gold.Chemscore.Lipo>
68.2601

> <Gold.Chemscore.Internal_Hbond>
0.0000

> <Gold.Chemscore.DEClash>
0.0363

> <Gold.Chemscore.DEInternal>
1.2952

> <Gold.Chemscore.Rot>
1.3852

> <Gold.Chemscore.Internal.Correction>
   9.000000E+99

> <Gold.Chemscore.Hbonds>
donor molecule, donor type, donor heavy atom, donor atom, acceptor molecule, acceptor atom, score
      L1  H     7    29       P1  7948  0.96
      L1  H    10    30       P1  7948  0.93

> <Gold.Chemscore.Hbond.Weighted>
-6.4148

> <Gold.Chemscore.Metal.Weighted>
-0.0000

> <Gold.Chemscore.Lipo.Weighted>
-7.9864

> <Gold.Chemscore.Internal_Hbond.Weighted>
0.0000

> <Gold.Chemscore.DEClash.Weighted>
0.0363

> <Gold.Chemscore.DEInternal.Weighted>
1.2952

> <Gold.Chemscore.Rot.Weighted>
3.5460

> <Gold.Chemscore.Internal.Correction.Weighted>
   9.000000E+99

> <Gold.Protein.RotatedTorsions>
[ 6907 6896 6895 6894 ] final   78.52 input  -60.11 | X-H torsion
[ 7974 7965 7964 7962 ] final -108.48 input  175.53 | X-H torsion
[ 8008 7997 7996 7995 ] final  135.53 input   59.86 | X-H torsion
[ 10167 10162 10161 10158 ] final   97.50 input  -65.29 | X-H torsion
[ 10718 10713 10712 10709 ] final -168.60 input   66.30 | X-H torsion
[ 10763 10752 10751 10750 ] final -103.93 input  -60.55 | X-H torsion
[ 11005 11000 10999 10996 ] final    5.21 input  -57.11 | X-H torsion

> <Gold.Protein.ActiveResidues>
 VAL166  LYS551  ARG553  GLY616  TRP617  ASP618  TYR619  PRO620  LYS621  CYS622 
 ASP623  PHE694  ASN695  SER759  ASP760  ASP761  ALA762  ILE779  LEU786  VAL792 
 PHE793  MET794  SER795  GLU796  ALA797  LYS798  CYS799  TRP800  GLU811  SER814 

> <Gold.Protein.RotatedAtoms>
  152.5162  134.3652  159.9298 H   0  0  0  0  0  0  0  0  0  0  0  0  # atno 6907 bound_to 6896
  151.3605  133.3885  159.2697 H   0  0  0  0  0  0  0  0  0  0  0  0  # atno 6908 bound_to 6896
  150.9656  134.9056  159.7815 H   0  0  0  0  0  0  0  0  0  0  0  0  # atno 6909 bound_to 6896
  145.1923  140.9020  143.3417 H   0  0  0  0  0  0  0  0  0  0  0  0  # atno 7974 bound_to 7965
  156.3003  140.2468  156.3597 H   0  0  0  0  0  0  0  0  0  0  0  0  # atno 8008 bound_to 7997
  154.8888  140.0410  157.1846 H   0  0  0  0  0  0  0  0  0  0  0  0  # atno 8009 bound_to 7997
  154.8619  140.2922  155.5538 H   0  0  0  0  0  0  0  0  0  0  0  0  # atno 8010 bound_to 7997
  139.7795  144.6893  151.0043 H   0  0  0  0  0  0  0  0  0  0  0  0  # atno 10167 bound_to 10162
  156.6992  130.9190  151.3078 H   0  0  0  0  0  0  0  0  0  0  0  0  # atno 10718 bound_to 10713
  154.7842  135.4805  153.9910 H   0  0  0  0  0  0  0  0  0  0  0  0  # atno 10763 bound_to 10752
  153.1537  135.6796  153.8851 H   0  0  0  0  0  0  0  0  0  0  0  0  # atno 10764 bound_to 10752
  153.8487  135.3170  155.3409 H   0  0  0  0  0  0  0  0  0  0  0  0  # atno 10765 bound_to 10752
  140.5733  134.0082  155.8017 H   0  0  0  0  0  0  0  0  0  0  0  0  # atno 11005 bound_to 11000
  145.0029  139.3582  143.6158 LP  0  0  0  0  0  0  0  0  0  0  0  0  # atno 17320 bound_to 7965
  146.3434  139.9259  142.8760 LP  0  0  0  0  0  0  0  0  0  0  0  0  # atno 17321 bound_to 7965
  140.7818  143.4499  151.0428 LP  0  0  0  0  0  0  0  0  0  0  0  0  # atno 17342 bound_to 10162
  139.8180  143.7859  152.3175 LP  0  0  0  0  0  0  0  0  0  0  0  0  # atno 17343 bound_to 10162
  157.6979  130.9302  150.0699 LP  0  0  0  0  0  0  0  0  0  0  0  0  # atno 17370 bound_to 10713
  156.1741  130.3647  149.9125 LP  0  0  0  0  0  0  0  0  0  0  0  0  # atno 17371 bound_to 10713
  141.1043  133.9719  157.3025 LP  0  0  0  0  0  0  0  0  0  0  0  0  # atno 17394 bound_to 11000
  139.9352  135.0197  156.8531 LP  0  0  0  0  0  0  0  0  0  0  0  0  # atno 17395 bound_to 11000

$$$$
