AV-unprocessed.smi:996|AV-procd|sdf|4347|dock5
  -GOLD-   22720 2243D 1   1.00000     0.00000
 Structure written by MMmdl.
 22 23  0  0  0  0  0  0  0  0  1 V2000
  152.7111  139.7731  157.7043 O   0  0  0  0  0  0  0  0  0  0  0  0
  152.5012  140.7838  158.3725 C   0  0  0  0  0  0  0  0  0  0  0  0
  152.9851  141.0084  159.6360 O   0  0  0  0  0  0  0  0  0  0  0  0
  152.5379  142.2215  160.0712 C   0  0  0  0  0  0  0  0  0  0  0  0
  152.7664  142.8672  161.2980 C   0  0  0  0  0  0  0  0  0  0  0  0
  152.1678  144.1340  161.4948 C   0  0  0  0  0  0  0  0  0  0  0  0
  151.3665  144.7231  160.4830 C   0  0  0  0  0  0  0  0  0  0  0  0
  151.1495  144.0568  159.2549 C   0  0  0  0  0  0  0  0  0  0  0  0
  151.7599  142.8016  159.0916 C   0  0  0  0  0  0  0  0  0  0  0  0
  151.7431  141.9054  158.0262 N   0  0  0  0  0  0  0  0  0  0  0  0
  151.0296  142.0853  156.7661 C   0  0  0  0  0  0  0  0  0  0  0  0
  149.5474  141.7141  156.9129 C   0  0  0  0  0  0  0  0  0  0  0  0
  148.8628  142.0038  155.7140 O   0  0  0  0  0  0  0  0  0  0  0  0
  153.3763  142.4116  162.0639 H   0  0  0  0  0  0  0  0  0  0  0  0
  152.3220  144.6582  162.4266 H   0  0  0  0  0  0  0  0  0  0  0  0
  150.9172  145.6906  160.6523 H   0  0  0  0  0  0  0  0  0  0  0  0
  150.5400  144.4963  158.4793 H   0  0  0  0  0  0  0  0  0  0  0  0
  151.1300  143.1206  156.4379 H   0  0  0  0  0  0  0  0  0  0  0  0
  151.4953  141.4737  155.9916 H   0  0  0  0  0  0  0  0  0  0  0  0
  149.4343  140.6535  157.1402 H   0  0  0  0  0  0  0  0  0  0  0  0
  149.0880  142.2752  157.7273 H   0  0  0  0  0  0  0  0  0  0  0  0
  148.9809  142.9199  155.5139 H   0  0  0  0  0  0  0  0  0  0  0  0
  1  2  2  0  0  0  0
  2 10  1  0  0  0  0
  2  3  1  0  0  0  0
  3  4  1  0  0  0  0
  4  9  2  0  0  0  0
  4  5  1  0  0  0  0
  5  6  2  0  0  0  0
  5 14  1  0  0  0  0
  6  7  1  0  0  0  0
  6 15  1  0  0  0  0
  7  8  2  0  0  0  0
  7 16  1  0  0  0  0
  8  9  1  0  0  0  0
  8 17  1  0  0  0  0
  9 10  1  0  0  0  0
 10 11  1  0  0  0  0
 11 12  1  0  0  0  0
 11 18  1  0  0  0  0
 11 19  1  0  0  0  0
 12 13  1  0  0  0  0
 12 20  1  0  0  0  0
 12 21  1  0  0  0  0
 13 22  1  0  0  0  0
M  END
> <s_m_source_file>
AV-unprocessed.smi

> <i_m_source_file_index>
996

> <i_lp_mmshare_version>
43012

> <i_f3d_flags>
0

> <s_epik_input>
W09IXVtDSDJdW0NIMl1uKGMoPU8pbzEpYyhjMTIpW2NIXVtjSF1bY0hdW2NIXTI=

> <s_epik_cmdline>
J2VwaWtfcHl0aG9uJywgJy1waCcsICc3LjAnLCAnLXRuJywgJzgnLCAnLW1hJywgJzIwMCcsICctbWV0YWxfYmluZGluZycsICctaW1hZScsICc8aW5maWxlLm1hZT4nLCAnLW9tYWUnLCAnPG91dGZpbGUubWFlPic=

> <r_lp_tautomer_probability>
1

> <r_epik_Ionization_Penalty>
1.98202e-07

> <r_epik_Ionization_Penalty_Charging>
1.40767e-14

> <r_epik_Ionization_Penalty_Neutral>
1.98202e-07

> <r_epik_State_Penalty>
-0

> <r_epik_Charging_Adjusted_Penalty>
1.40767e-14

> <i_epik_Tot_Q>
0

> <i_epik_Tot_abs_Q>
0

> <r_epik_Metal_State_Penalty>
-0

> <b_epik_Metal_Only>
0

> <s_lp_Force_Field>
OPLS_2005

> <r_lp_Energy>
24.1442

> <b_lp_Chiralities_Consistent>
1

> <s_lp_Variant>
AV-unprocessed.smi:996-1

> <Gold.Version>
5.8.1

> <Gold.Id.Protein>
6NUR|6NUR_protein|mol2

> <Gold.PLP.Fitness>
36.7205

> <Gold.PLP.PLP>
-31.3531

> <Gold.PLP.part.hbond>
-2.0000

> <Gold.PLP.part.metal>
0.0000

> <Gold.PLP.part.buried>
-5.0035

> <Gold.PLP.part.nonpolar>
-24.5025

> <Gold.PLP.part.repulsive>
0.0000

> <Gold.PLP.ligand.clash>
0.0000

> <Gold.PLP.ligand.torsion>
0.3169

> <Gold.PLP.Chemscore.Hbond>
2.0000

> <Gold.PLP.Chemscore.CHOScore>
0.0000

> <Gold.PLP.Chemscore.Metal>
0.0000

> <Gold.Chemscore.Hbonds>
donor molecule, donor type, donor heavy atom, donor atom, acceptor molecule, acceptor atom, score
      L1  H    13    22       P1  8028  1.00
      P1  H  7997  8008       L1     1  1.00

> <Gold.PLP.Chemscore.Internal.Correction>
0.0012

> <Gold.Rescore>
     Score         DG    S(hbond)    S(metal)    S(lipo)     H(rot)  DE(clash)    DE(int)     intcor
     16.42     -16.62       1.92        0.00      79.67       1.79       0.00       0.20       ----

> <Gold.Chemscore.Fitness>
16.4200

> <Gold.Chemscore.DG>
-16.6205

> <Gold.Chemscore.ZeroCoef>
-5.4800

> <Gold.Chemscore.Hbond>
1.9169

> <Gold.Chemscore.Metal>
0.0000

> <Gold.Chemscore.Lipo>
79.6687

> <Gold.Chemscore.Internal_Hbond>
0.0000

> <Gold.Chemscore.DEClash>
0.0004

> <Gold.Chemscore.DEInternal>
0.2001

> <Gold.Chemscore.Rot>
1.7903

> <Gold.Chemscore.Internal.Correction>
   9.000000E+99

> <Gold.Chemscore.Hbonds>
donor molecule, donor type, donor heavy atom, donor atom, acceptor molecule, acceptor atom, score
      L1  H    13    22       P1  8028  1.00
      P1  H  7997  8008       L1     1  0.54

> <Gold.Chemscore.Hbond.Weighted>
-6.4025

> <Gold.Chemscore.Metal.Weighted>
-0.0000

> <Gold.Chemscore.Lipo.Weighted>
-9.3212

> <Gold.Chemscore.Internal_Hbond.Weighted>
0.0000

> <Gold.Chemscore.DEClash.Weighted>
0.0004

> <Gold.Chemscore.DEInternal.Weighted>
0.2001

> <Gold.Chemscore.Rot.Weighted>
4.5833

> <Gold.Chemscore.Internal.Correction.Weighted>
   9.000000E+99

> <Gold.Protein.RotatedTorsions>
[ 6907 6896 6895 6894 ] final   61.98 input  -60.11 | X-H torsion
[ 7974 7965 7964 7962 ] final -162.50 input  175.53 | X-H torsion
[ 8008 7997 7996 7995 ] final  -71.53 input   59.86 | X-H torsion
[ 10167 10162 10161 10158 ] final   48.54 input  -65.29 | X-H torsion
[ 10718 10713 10712 10709 ] final -121.13 input   66.30 | X-H torsion
[ 10763 10752 10751 10750 ] final   52.71 input  -60.55 | X-H torsion
[ 11005 11000 10999 10996 ] final   98.37 input  -57.11 | X-H torsion

> <Gold.Protein.ActiveResidues>
 VAL166  LYS551  ARG553  GLY616  TRP617  ASP618  TYR619  PRO620  LYS621  CYS622 
 ASP623  PHE694  ASN695  SER759  ASP760  ASP761  ALA762  ILE779  LEU786  VAL792 
 PHE793  MET794  SER795  GLU796  ALA797  LYS798  CYS799  TRP800  GLU811  SER814 

> <Gold.Protein.RotatedAtoms>
  152.4134  134.6083  160.0018 H   0  0  0  0  0  0  0  0  0  0  0  0  # atno 6907 bound_to 6896
  151.6254  133.3330  159.3105 H   0  0  0  0  0  0  0  0  0  0  0  0  # atno 6908 bound_to 6896
  150.8024  134.7167  159.6679 H   0  0  0  0  0  0  0  0  0  0  0  0  # atno 6909 bound_to 6896
  144.7355  140.3243  143.6165 H   0  0  0  0  0  0  0  0  0  0  0  0  # atno 7974 bound_to 7965
  154.5095  140.0814  156.7962 H   0  0  0  0  0  0  0  0  0  0  0  0  # atno 8008 bound_to 7997
  155.3817  140.3428  155.4229 H   0  0  0  0  0  0  0  0  0  0  0  0  # atno 8009 bound_to 7997
  156.1556  140.1572  156.8685 H   0  0  0  0  0  0  0  0  0  0  0  0  # atno 8010 bound_to 7997
  140.2922  144.3032  150.6238 H   0  0  0  0  0  0  0  0  0  0  0  0  # atno 10167 bound_to 10162
  156.1313  130.6397  150.9625 H   0  0  0  0  0  0  0  0  0  0  0  0  # atno 10718 bound_to 10713
  152.9790  135.5803  154.4623 H   0  0  0  0  0  0  0  0  0  0  0  0  # atno 10763 bound_to 10752
  154.4198  135.2771  155.1985 H   0  0  0  0  0  0  0  0  0  0  0  0  # atno 10764 bound_to 10752
  154.3739  135.6162  153.5808 H   0  0  0  0  0  0  0  0  0  0  0  0  # atno 10765 bound_to 10752
  139.8772  134.9046  156.4447 H   0  0  0  0  0  0  0  0  0  0  0  0  # atno 11005 bound_to 11000
  145.7536  139.1802  143.2307 LP  0  0  0  0  0  0  0  0  0  0  0  0  # atno 17320 bound_to 7965
  146.1041  140.7508  142.9535 LP  0  0  0  0  0  0  0  0  0  0  0  0  # atno 17321 bound_to 7965
  140.5722  143.2180  151.7578 LP  0  0  0  0  0  0  0  0  0  0  0  0  # atno 17342 bound_to 10162
  139.4935  144.4200  151.9988 LP  0  0  0  0  0  0  0  0  0  0  0  0  # atno 17343 bound_to 10162
  157.6490  131.0900  150.8091 LP  0  0  0  0  0  0  0  0  0  0  0  0  # atno 17370 bound_to 10713
  156.8175  130.4973  149.5347 LP  0  0  0  0  0  0  0  0  0  0  0  0  # atno 17371 bound_to 10713
  140.8975  133.7804  155.9641 LP  0  0  0  0  0  0  0  0  0  0  0  0  # atno 17394 bound_to 11000
  140.8687  134.2752  157.5201 LP  0  0  0  0  0  0  0  0  0  0  0  0  # atno 17395 bound_to 11000

$$$$
