AV-unprocessed.smi:1009|AV-procd|sdf|4414|dock2
  -GOLD-   22720 2363D 1   1.00000     0.00000
 Structure written by MMmdl.
 33 33  0  0  0  0  0  0  0  0  2 V2000
  147.3186  140.8225  154.0011 C   0  0  0  0  0  0  0  0  0  0  0  0
  146.2977  139.7600  153.8669 N   0  3  0  0  0  0  0  0  0  0  0  0
  145.9030  139.2171  155.1875 C   0  0  0  0  0  0  0  0  0  0  0  0
  146.7096  138.7099  152.9027 C   0  0  0  0  0  0  0  0  0  0  0  0
  145.5751  137.7142  152.5923 C   0  0  0  0  0  0  0  0  0  0  0  0
  146.1072  136.4231  152.1760 N   0  0  0  0  0  0  0  0  0  0  0  0
  145.3811  135.3042  152.0276 C   0  0  0  0  0  0  0  0  0  0  0  0
  144.1635  135.2587  152.2016 O   0  0  0  0  0  0  0  0  0  0  0  0
  146.1479  134.0399  151.6388 C   0  0  0  0  0  0  0  0  0  0  0  0
  145.6233  133.4759  150.4082 N   0  0  0  0  0  0  0  0  0  0  0  0
  146.3008  132.7643  149.4359 C   0  0  0  0  0  0  0  0  0  0  0  0
  145.4030  132.4525  148.4542 C   0  0  0  0  0  0  0  0  0  0  0  0
  144.1956  133.0276  148.9337 C   0  0  0  0  0  0  0  0  0  0  0  0
  142.9900  132.9580  148.2409 N   0  0  0  0  0  0  0  0  0  0  0  0
  144.3170  133.6401  150.0969 N   0  0  0  0  0  0  0  0  0  0  0  0
  148.2517  140.4203  154.3987 H   0  0  0  0  0  0  0  0  0  0  0  0
  146.9717  141.6097  154.6715 H   0  0  0  0  0  0  0  0  0  0  0  0
  147.5283  141.2834  153.0350 H   0  0  0  0  0  0  0  0  0  0  0  0
  146.7347  138.6923  155.6596 H   0  0  0  0  0  0  0  0  0  0  0  0
  145.0669  138.5240  155.1020 H   0  0  0  0  0  0  0  0  0  0  0  0
  145.5881  140.0207  155.8544 H   0  0  0  0  0  0  0  0  0  0  0  0
  147.0092  139.1819  151.9655 H   0  0  0  0  0  0  0  0  0  0  0  0
  147.5930  138.1939  153.2823 H   0  0  0  0  0  0  0  0  0  0  0  0
  144.9188  137.5718  153.4513 H   0  0  0  0  0  0  0  0  0  0  0  0
  144.9515  138.0999  151.7854 H   0  0  0  0  0  0  0  0  0  0  0  0
  147.1028  136.3660  152.0140 H   0  0  0  0  0  0  0  0  0  0  0  0
  147.2042  134.2730  151.4973 H   0  0  0  0  0  0  0  0  0  0  0  0
  146.0868  133.2978  152.4367 H   0  0  0  0  0  0  0  0  0  0  0  0
  147.3549  132.5448  149.5223 H   0  0  0  0  0  0  0  0  0  0  0  0
  145.5835  131.9034  147.5420 H   0  0  0  0  0  0  0  0  0  0  0  0
  142.9191  132.4869  147.3505 H   0  0  0  0  0  0  0  0  0  0  0  0
  142.1337  133.3136  148.6406 H   0  0  0  0  0  0  0  0  0  0  0  0
  145.4805  140.2066  153.4759 H   0  0  0  0  0  0  0  0  0  0  0  0
  1  2  1  0  0  0  0
  1 16  1  0  0  0  0
  1 17  1  0  0  0  0
  1 18  1  0  0  0  0
  2  3  1  0  0  0  0
  2  4  1  0  0  0  0
  2 33  1  0  0  0  0
  3 19  1  0  0  0  0
  3 20  1  0  0  0  0
  3 21  1  0  0  0  0
  4  5  1  0  0  0  0
  4 22  1  0  0  0  0
  4 23  1  0  0  0  0
  5  6  1  0  0  0  0
  5 24  1  0  0  0  0
  5 25  1  0  0  0  0
  6  7  1  0  0  0  0
  6 26  1  0  0  0  0
  7  8  2  0  0  0  0
  7  9  1  0  0  0  0
  9 10  1  0  0  0  0
  9 27  1  0  0  0  0
  9 28  1  0  0  0  0
 10 15  1  0  0  0  0
 10 11  1  0  0  0  0
 11 12  2  0  0  0  0
 11 29  1  0  0  0  0
 12 13  1  0  0  0  0
 12 30  1  0  0  0  0
 13 14  1  0  0  0  0
 13 15  2  0  0  0  0
 14 31  1  0  0  0  0
 14 32  1  0  0  0  0
M  CHG  1   2   1
M  END
> <s_m_source_file>
AV-unprocessed.smi

> <i_m_source_file_index>
1009

> <i_lp_mmshare_version>
43012

> <i_f3d_flags>
0

> <s_epik_input>
W0NIM11OKFtDSDNdKVtDSDJdW0NIMl1bTkhdQyg9TylbQ0gyXW4xW2NIXVtjSF1jKG4xKVtOSDJd

> <s_epik_cmdline>
J2VwaWtfcHl0aG9uJywgJy1waCcsICc3LjAnLCAnLXRuJywgJzgnLCAnLW1hJywgJzIwMCcsICctbWV0YWxfYmluZGluZycsICctaW1hZScsICc8aW5maWxlLm1hZT4nLCAnLW9tYWUnLCAnPG91dGZpbGUubWFlPic=

> <r_lp_tautomer_probability>
1

> <r_epik_Ionization_Penalty>
0.00595791

> <r_epik_Ionization_Penalty_Charging>
0.00581587

> <r_epik_Ionization_Penalty_Neutral>
0.000142034

> <r_epik_State_Penalty>
0.00427192

> <r_epik_Charging_Adjusted_Penalty>
0.0100878

> <i_epik_Tot_Q>
1

> <i_epik_Tot_abs_Q>
1

> <r_epik_Metal_State_Penalty>
-0

> <b_epik_Metal_Only>
0

> <s_lp_Force_Field>
OPLS_2005

> <r_lp_Energy>
4.99311

> <b_lp_Chiralities_Consistent>
1

> <s_lp_Variant>
AV-unprocessed.smi:1009-1

> <Gold.Version>
5.8.1

> <Gold.Id.Protein>
6NUR|6NUR_protein|mol2

> <Gold.PLP.Fitness>
42.3660

> <Gold.PLP.PLP>
-28.5049

> <Gold.PLP.part.hbond>
-3.7179

> <Gold.PLP.part.metal>
0.0000

> <Gold.PLP.part.buried>
-4.5588

> <Gold.PLP.part.nonpolar>
-20.3256

> <Gold.PLP.part.repulsive>
0.4523

> <Gold.PLP.ligand.clash>
0.0000

> <Gold.PLP.ligand.torsion>
0.5961

> <Gold.PLP.Chemscore.Hbond>
4.0000

> <Gold.PLP.Chemscore.CHOScore>
1.0000

> <Gold.PLP.Chemscore.Metal>
0.0000

> <Gold.Chemscore.Hbonds>
donor molecule, donor type, donor heavy atom, donor atom, acceptor molecule, acceptor atom, score
      L1  H     2    33       P1 10175  1.79
      L1  H     6    26       P1  7948  1.00
      L1  H    14    31       P1 10195  0.26
      L1  H    14    32       P1 10186  1.00
      L1  C    11    29       P1 10747  1.00

> <Gold.PLP.Chemscore.Internal.Correction>
0.0533

> <Gold.Rescore>
     Score         DG    S(hbond)    S(metal)    S(lipo)     H(rot)  DE(clash)    DE(int)     intcor
     13.18     -15.31       2.97        0.00      52.77       2.45       0.03       2.11       ----

> <Gold.Chemscore.Fitness>
13.1773

> <Gold.Chemscore.DG>
-15.3112

> <Gold.Chemscore.ZeroCoef>
-5.4800

> <Gold.Chemscore.Hbond>
2.9726

> <Gold.Chemscore.Metal>
0.0000

> <Gold.Chemscore.Lipo>
52.7697

> <Gold.Chemscore.Internal_Hbond>
0.0000

> <Gold.Chemscore.DEClash>
0.0284

> <Gold.Chemscore.DEInternal>
2.1055

> <Gold.Chemscore.Rot>
2.4497

> <Gold.Chemscore.Internal.Correction>
   9.000000E+99

> <Gold.Chemscore.Hbonds>
donor molecule, donor type, donor heavy atom, donor atom, acceptor molecule, acceptor atom, score
      L1  H     2    33       P1 10175  0.85
      L1  H     6    26       P1  7948  1.00
      L1  H    14    31       P1 10195  0.25
      L1  H    14    32       P1 10186  1.00

> <Gold.Chemscore.Hbond.Weighted>
-9.9284

> <Gold.Chemscore.Metal.Weighted>
-0.0000

> <Gold.Chemscore.Lipo.Weighted>
-6.1741

> <Gold.Chemscore.Internal_Hbond.Weighted>
0.0000

> <Gold.Chemscore.DEClash.Weighted>
0.0284

> <Gold.Chemscore.DEInternal.Weighted>
2.1055

> <Gold.Chemscore.Rot.Weighted>
6.2713

> <Gold.Chemscore.Internal.Correction.Weighted>
   9.000000E+99

> <Gold.Protein.RotatedTorsions>
[ 6907 6896 6895 6894 ] final   65.33 input  -60.11 | X-H torsion
[ 7974 7965 7964 7962 ] final -166.92 input  175.53 | X-H torsion
[ 8008 7997 7996 7995 ] final -155.33 input   59.86 | X-H torsion
[ 10167 10162 10161 10158 ] final   46.94 input  -65.29 | X-H torsion
[ 10718 10713 10712 10709 ] final  165.09 input   66.30 | X-H torsion
[ 10763 10752 10751 10750 ] final  -78.09 input  -60.55 | X-H torsion
[ 11005 11000 10999 10996 ] final  113.94 input  -57.11 | X-H torsion

> <Gold.Protein.ActiveResidues>
 VAL166  LYS551  ARG553  GLY616  TRP617  ASP618  TYR619  PRO620  LYS621  CYS622 
 ASP623  PHE694  ASN695  SER759  ASP760  ASP761  ALA762  ILE779  LEU786  VAL792 
 PHE793  MET794  SER795  GLU796  ALA797  LYS798  CYS799  TRP800  GLU811  SER814 

> <Gold.Protein.RotatedAtoms>
  152.4399  134.5611  159.9894 H   0  0  0  0  0  0  0  0  0  0  0  0  # atno 6907 bound_to 6896
  151.5711  133.3384  159.2997 H   0  0  0  0  0  0  0  0  0  0  0  0  # atno 6908 bound_to 6896
  150.8304  134.7588  159.6913 H   0  0  0  0  0  0  0  0  0  0  0  0  # atno 6909 bound_to 6896
  144.7234  140.2596  143.6267 H   0  0  0  0  0  0  0  0  0  0  0  0  # atno 7974 bound_to 7965
  155.7001  140.0766  157.2413 H   0  0  0  0  0  0  0  0  0  0  0  0  # atno 8008 bound_to 7997
  154.4074  140.1649  156.2235 H   0  0  0  0  0  0  0  0  0  0  0  0  # atno 8009 bound_to 7997
  155.9375  140.3387  155.6303 H   0  0  0  0  0  0  0  0  0  0  0  0  # atno 8010 bound_to 7997
  140.3088  144.2846  150.6204 H   0  0  0  0  0  0  0  0  0  0  0  0  # atno 10167 bound_to 10162
  157.0851  131.0402  151.2559 H   0  0  0  0  0  0  0  0  0  0  0  0  # atno 10718 bound_to 10713
  154.5214  135.5741  153.6684 H   0  0  0  0  0  0  0  0  0  0  0  0  # atno 10763 bound_to 10752
  152.9918  135.6182  154.2749 H   0  0  0  0  0  0  0  0  0  0  0  0  # atno 10764 bound_to 10752
  154.2670  135.2854  155.2734 H   0  0  0  0  0  0  0  0  0  0  0  0  # atno 10765 bound_to 10752
  139.8966  134.9559  156.6816 H   0  0  0  0  0  0  0  0  0  0  0  0  # atno 11005 bound_to 11000
  145.8149  139.2019  143.1971 LP  0  0  0  0  0  0  0  0  0  0  0  0  # atno 17320 bound_to 7965
  146.0564  140.8016  142.9756 LP  0  0  0  0  0  0  0  0  0  0  0  0  # atno 17321 bound_to 7965
  140.5587  143.2195  151.7803 LP  0  0  0  0  0  0  0  0  0  0  0  0  # atno 17342 bound_to 10162
  139.4898  144.4379  151.9798 LP  0  0  0  0  0  0  0  0  0  0  0  0  # atno 17343 bound_to 10162
  157.4767  130.7741  149.7375 LP  0  0  0  0  0  0  0  0  0  0  0  0  # atno 17370 bound_to 10713
  155.9913  130.3939  150.2991 LP  0  0  0  0  0  0  0  0  0  0  0  0  # atno 17371 bound_to 10713
  140.7295  133.9071  155.8201 LP  0  0  0  0  0  0  0  0  0  0  0  0  # atno 17394 bound_to 11000
  141.0164  134.0949  157.4167 LP  0  0  0  0  0  0  0  0  0  0  0  0  # atno 17395 bound_to 11000

$$$$
