AV-unprocessed.smi:1003|AV-procd|sdf|4360|dock9
  -GOLD-   22720 2263D 1   1.00000     0.00000
 Structure written by MMmdl.
 43 44  0  0  0  0  0  0  0  0  1 V2000
  153.8374  144.5217  164.1739 C   0  0  0  0  0  0  0  0  0  0  0  0
  155.0127  144.2804  165.1277 C   0  0  0  0  0  0  0  0  0  0  0  0
  155.3668  142.8264  165.2365 C   0  0  0  0  0  0  0  0  0  0  0  0
  155.6580  142.1037  164.0755 N   0  0  0  0  0  0  0  0  0  0  0  0
  155.9577  140.8275  164.3241 C   0  0  0  0  0  0  0  0  0  0  0  0
  156.2770  139.8328  163.2599 C   0  0  0  0  0  0  0  0  0  0  0  0
  155.1344  139.6754  162.2440 C   0  0  0  0  0  0  0  0  0  0  0  0
  154.6454  140.9688  161.7820 N   0  0  0  0  0  0  0  0  0  0  0  0
  153.7651  141.1478  160.7849 C   0  0  0  0  0  0  0  0  0  0  0  0
  153.2697  140.2169  160.1484 O   0  0  0  0  0  0  0  0  0  0  0  0
  153.3898  142.5986  160.4538 C   0  0  0  0  0  0  0  0  0  0  0  0
  152.4829  143.1999  161.5491 C   0  0  0  0  0  0  0  0  0  0  0  0
  152.0887  144.6484  161.2167 C   0  0  0  0  0  0  0  0  0  0  0  0
  151.4114  144.7389  159.8401 C   0  0  0  0  0  0  0  0  0  0  0  0
  152.3024  144.1366  158.7424 C   0  0  0  0  0  0  0  0  0  0  0  0
  152.6964  142.6886  159.0772 C   0  0  0  0  0  0  0  0  0  0  0  0
  155.8678  140.4165  166.0306 S   0  0  0  0  0  0  0  0  0  0  0  0
  155.4292  142.0683  166.3829 C   0  0  0  0  0  0  0  0  0  0  0  0
  155.1695  142.5054  167.7863 C   0  0  0  0  0  0  0  0  0  0  0  0
  153.5985  145.5834  164.1117 H   0  0  0  0  0  0  0  0  0  0  0  0
  152.9430  143.9979  164.5127 H   0  0  0  0  0  0  0  0  0  0  0  0
  154.0694  144.1732  163.1670 H   0  0  0  0  0  0  0  0  0  0  0  0
  155.8760  144.8488  164.7805 H   0  0  0  0  0  0  0  0  0  0  0  0
  154.7680  144.6860  166.1098 H   0  0  0  0  0  0  0  0  0  0  0  0
  157.1912  140.1434  162.7522 H   0  0  0  0  0  0  0  0  0  0  0  0
  156.4960  138.8776  163.7385 H   0  0  0  0  0  0  0  0  0  0  0  0
  155.4578  139.0722  161.3938 H   0  0  0  0  0  0  0  0  0  0  0  0
  154.3007  139.1429  162.7028 H   0  0  0  0  0  0  0  0  0  0  0  0
  155.0024  141.7875  162.2534 H   0  0  0  0  0  0  0  0  0  0  0  0
  154.3070  143.1895  160.4112 H   0  0  0  0  0  0  0  0  0  0  0  0
  151.5780  142.5998  161.6604 H   0  0  0  0  0  0  0  0  0  0  0  0
  152.9904  143.1728  162.5143 H   0  0  0  0  0  0  0  0  0  0  0  0
  151.4206  145.0374  161.9856 H   0  0  0  0  0  0  0  0  0  0  0  0
  152.9767  145.2815  161.2295 H   0  0  0  0  0  0  0  0  0  0  0  0
  150.4575  144.2103  159.8673 H   0  0  0  0  0  0  0  0  0  0  0  0
  151.1820  145.7788  159.6055 H   0  0  0  0  0  0  0  0  0  0  0  0
  151.7837  144.1686  157.7838 H   0  0  0  0  0  0  0  0  0  0  0  0
  153.2018  144.7430  158.6277 H   0  0  0  0  0  0  0  0  0  0  0  0
  153.3549  142.3017  158.2985 H   0  0  0  0  0  0  0  0  0  0  0  0
  151.8030  142.0620  159.0631 H   0  0  0  0  0  0  0  0  0  0  0  0
  154.2620  143.1067  167.8446 H   0  0  0  0  0  0  0  0  0  0  0  0
  155.9981  143.1055  168.1625 H   0  0  0  0  0  0  0  0  0  0  0  0
  155.0452  141.6492  168.4498 H   0  0  0  0  0  0  0  0  0  0  0  0
  1  2  1  0  0  0  0
  1 20  1  0  0  0  0
  1 21  1  0  0  0  0
  1 22  1  0  0  0  0
  2  3  1  0  0  0  0
  2 23  1  0  0  0  0
  2 24  1  0  0  0  0
  3 18  2  0  0  0  0
  3  4  1  0  0  0  0
  4  5  2  0  0  0  0
  5  6  1  0  0  0  0
  5 17  1  0  0  0  0
  6  7  1  0  0  0  0
  6 25  1  0  0  0  0
  6 26  1  0  0  0  0
  7  8  1  0  0  0  0
  7 27  1  0  0  0  0
  7 28  1  0  0  0  0
  8  9  1  0  0  0  0
  8 29  1  0  0  0  0
  9 10  2  0  0  0  0
  9 11  1  0  0  0  0
 11 16  1  0  0  0  0
 11 12  1  0  0  0  0
 11 30  1  0  0  0  0
 12 13  1  0  0  0  0
 12 31  1  0  0  0  0
 12 32  1  0  0  0  0
 13 14  1  0  0  0  0
 13 33  1  0  0  0  0
 13 34  1  0  0  0  0
 14 15  1  0  0  0  0
 14 35  1  0  0  0  0
 14 36  1  0  0  0  0
 15 16  1  0  0  0  0
 15 37  1  0  0  0  0
 15 38  1  0  0  0  0
 16 39  1  0  0  0  0
 16 40  1  0  0  0  0
 17 18  1  0  0  0  0
 18 19  1  0  0  0  0
 19 41  1  0  0  0  0
 19 42  1  0  0  0  0
 19 43  1  0  0  0  0
M  END
> <s_m_source_file>
AV-unprocessed.smi

> <i_m_source_file_index>
1003

> <i_lp_mmshare_version>
43012

> <i_f3d_flags>
0

> <s_epik_input>
W0NIM11bQ0gyXWMxbmMoc2MxW0NIM10pW0NIMl1bQ0gyXVtOSF1DKD1PKVtDSF0yW0NIMl1bQ0gyXVtDSDJdW0NIMl1bQ0gyXTI=

> <s_epik_cmdline>
J2VwaWtfcHl0aG9uJywgJy1waCcsICc3LjAnLCAnLXRuJywgJzgnLCAnLW1hJywgJzIwMCcsICctbWV0YWxfYmluZGluZycsICctaW1hZScsICc8aW5maWxlLm1hZT4nLCAnLW9tYWUnLCAnPG91dGZpbGUubWFlPic=

> <r_epik_Ionization_Penalty>
0.00242092

> <r_epik_Ionization_Penalty_Charging>
0

> <r_epik_Ionization_Penalty_Neutral>
0.00242092

> <r_epik_State_Penalty>
0.00167523

> <r_epik_Charging_Adjusted_Penalty>
0.00167523

> <i_epik_Tot_Q>
0

> <i_epik_Tot_abs_Q>
0

> <r_epik_Metal_State_Penalty>
-0

> <b_epik_Metal_Only>
0

> <s_lp_Force_Field>
OPLS_2005

> <r_lp_Energy>
0.647585

> <b_lp_Chiralities_Consistent>
1

> <s_lp_Variant>
AV-unprocessed.smi:1003-1

> <Gold.Version>
5.8.1

> <Gold.Id.Protein>
6NUR|6NUR_protein|mol2

> <Gold.PLP.Fitness>
49.9962

> <Gold.PLP.PLP>
-50.8277

> <Gold.PLP.part.hbond>
-1.7706

> <Gold.PLP.part.metal>
0.0000

> <Gold.PLP.part.buried>
-6.5058

> <Gold.PLP.part.nonpolar>
-41.6238

> <Gold.PLP.part.repulsive>
0.0000

> <Gold.PLP.ligand.clash>
0.0000

> <Gold.PLP.ligand.torsion>
0.4270

> <Gold.PLP.Chemscore.Hbond>
0.0000

> <Gold.PLP.Chemscore.CHOScore>
0.0000

> <Gold.PLP.Chemscore.Metal>
0.0000

> <Gold.PLP.Chemscore.Internal.Correction>
0.0224

> <Gold.Rescore>
     Score         DG    S(hbond)    S(metal)    S(lipo)     H(rot)  DE(clash)    DE(int)     intcor
     16.37     -18.78       0.00        0.00     144.25       1.40       2.06       0.35       ----

> <Gold.Chemscore.Fitness>
16.3681

> <Gold.Chemscore.DG>
-18.7765

> <Gold.Chemscore.ZeroCoef>
-5.4800

> <Gold.Chemscore.Hbond>
0.0000

> <Gold.Chemscore.Metal>
0.0000

> <Gold.Chemscore.Lipo>
144.2522

> <Gold.Chemscore.Internal_Hbond>
0.0000

> <Gold.Chemscore.DEClash>
2.0602

> <Gold.Chemscore.DEInternal>
0.3482

> <Gold.Chemscore.Rot>
1.3988

> <Gold.Chemscore.Internal.Correction>
   9.000000E+99

> <Gold.Chemscore.Hbond.Weighted>
-0.0000

> <Gold.Chemscore.Metal.Weighted>
-0.0000

> <Gold.Chemscore.Lipo.Weighted>
-16.8775

> <Gold.Chemscore.Internal_Hbond.Weighted>
0.0000

> <Gold.Chemscore.DEClash.Weighted>
2.0602

> <Gold.Chemscore.DEInternal.Weighted>
0.3482

> <Gold.Chemscore.Rot.Weighted>
3.5810

> <Gold.Chemscore.Internal.Correction.Weighted>
   9.000000E+99

> <Gold.Protein.RotatedTorsions>
[ 6907 6896 6895 6894 ] final  139.38 input  -60.11 | X-H torsion
[ 7974 7965 7964 7962 ] final -156.40 input  175.53 | X-H torsion
[ 8008 7997 7996 7995 ] final  108.00 input   59.86 | X-H torsion
[ 10167 10162 10161 10158 ] final -178.47 input  -65.29 | X-H torsion
[ 10718 10713 10712 10709 ] final -112.08 input   66.30 | X-H torsion
[ 10763 10752 10751 10750 ] final  -55.06 input  -60.55 | X-H torsion
[ 11005 11000 10999 10996 ] final   50.79 input  -57.11 | X-H torsion

> <Gold.Protein.ActiveResidues>
 VAL166  LYS551  ARG553  GLY616  TRP617  ASP618  TYR619  PRO620  LYS621  CYS622 
 ASP623  PHE694  ASN695  SER759  ASP760  ASP761  ALA762  ILE779  LEU786  VAL792 
 PHE793  MET794  SER795  GLU796  ALA797  LYS798  CYS799  TRP800  GLU811  SER814 

> <Gold.Protein.RotatedAtoms>
  152.2555  133.5252  159.5350 H   0  0  0  0  0  0  0  0  0  0  0  0  # atno 6907 bound_to 6896
  150.7107  134.0901  159.3937 H   0  0  0  0  0  0  0  0  0  0  0  0  # atno 6908 bound_to 6896
  151.8820  135.0450  160.0540 H   0  0  0  0  0  0  0  0  0  0  0  0  # atno 6909 bound_to 6896
  144.7595  140.4115  143.5987 H   0  0  0  0  0  0  0  0  0  0  0  0  # atno 7974 bound_to 7965
  156.1869  140.3084  155.9255 H   0  0  0  0  0  0  0  0  0  0  0  0  # atno 8008 bound_to 7997
  155.3261  140.0458  157.3058 H   0  0  0  0  0  0  0  0  0  0  0  0  # atno 8009 bound_to 7997
  154.5406  140.2260  155.8658 H   0  0  0  0  0  0  0  0  0  0  0  0  # atno 8010 bound_to 7997
  139.5431  144.2309  152.0934 H   0  0  0  0  0  0  0  0  0  0  0  0  # atno 10167 bound_to 10162
  156.0685  130.5901  150.8461 H   0  0  0  0  0  0  0  0  0  0  0  0  # atno 10718 bound_to 10713
  154.1848  135.6437  153.5044 H   0  0  0  0  0  0  0  0  0  0  0  0  # atno 10763 bound_to 10752
  153.0050  135.5414  154.6477 H   0  0  0  0  0  0  0  0  0  0  0  0  # atno 10764 bound_to 10752
  154.5850  135.2929  155.0666 H   0  0  0  0  0  0  0  0  0  0  0  0  # atno 10765 bound_to 10752
  140.0988  134.5110  155.8782 H   0  0  0  0  0  0  0  0  0  0  0  0  # atno 11005 bound_to 11000
  145.6667  139.1591  143.2778 LP  0  0  0  0  0  0  0  0  0  0  0  0  # atno 17320 bound_to 7965
  146.1643  140.6742  142.9263 LP  0  0  0  0  0  0  0  0  0  0  0  0  # atno 17321 bound_to 7965
  140.1791  144.4862  150.6538 LP  0  0  0  0  0  0  0  0  0  0  0  0  # atno 17342 bound_to 10162
  140.6669  143.2271  151.5722 LP  0  0  0  0  0  0  0  0  0  0  0  0  # atno 17343 bound_to 10162
  157.5741  131.0946  150.9372 LP  0  0  0  0  0  0  0  0  0  0  0  0  # atno 17370 bound_to 10713
  156.9582  130.5445  149.5285 LP  0  0  0  0  0  0  0  0  0  0  0  0  # atno 17371 bound_to 10713
  141.2099  133.6689  156.6476 LP  0  0  0  0  0  0  0  0  0  0  0  0  # atno 17394 bound_to 11000
  140.3249  134.7977  157.4281 LP  0  0  0  0  0  0  0  0  0  0  0  0  # atno 17395 bound_to 11000

$$$$
