AV-unprocessed.smi:1483|AV-procd|sdf|5989|dock1
  -GOLD-   22720 6 83D 1   1.00000     0.00000
 Structure written by MMmdl.
 49 50  0  0  0  0  0  0  0  0  2 V2000
  152.7700  141.5133  159.6852 C   0  0  0  0  0  0  0  0  0  0  0  0
  151.9700  141.4981  158.3993 C   0  0  0  0  0  0  0  0  0  0  0  0
  151.8976  140.3343  157.6052 C   0  0  0  0  0  0  0  0  0  0  0  0
  151.1353  140.3761  156.4220 C   0  0  0  0  0  0  0  0  0  0  0  0
  150.4774  141.5753  156.0784 C   0  0  0  0  0  0  0  0  0  0  0  0
  149.6485  141.6729  154.8109 C   0  0  0  0  0  0  0  0  0  0  0  0
  148.4783  140.6925  154.8766 C   0  0  0  0  0  0  0  0  0  0  0  0
  147.9306  140.4587  155.9536 O   0  0  0  0  0  0  0  0  0  0  0  0
  148.1170  140.1135  153.7210 N   0  0  0  0  0  0  0  0  0  0  0  0
  147.0627  139.1153  153.5776 C   0  0  2  0  0  0  0  0  0  0  0  0
  147.4026  137.8487  154.3828 C   0  0  0  0  0  0  0  0  0  0  0  0
  146.3530  136.7484  154.1571 C   0  0  0  0  0  0  0  0  0  0  0  0
  146.2084  136.4268  152.7137 N   0  3  1  0  0  0  0  0  0  0  0  0
  145.2992  135.2733  152.4873 C   0  0  0  0  0  0  0  0  0  0  0  0
  145.5670  134.5359  151.1574 C   0  0  0  0  0  0  0  0  0  0  0  0
  144.3277  133.7372  150.7278 C   0  0  0  0  0  0  0  0  0  0  0  0
  146.7945  133.6137  151.2474 C   0  0  0  0  0  0  0  0  0  0  0  0
  145.8424  137.6322  151.9225 C   0  0  0  0  0  0  0  0  0  0  0  0
  146.8865  138.7479  152.0964 C   0  0  0  0  0  0  0  0  0  0  0  0
  150.6153  142.6828  156.9419 C   0  0  0  0  0  0  0  0  0  0  0  0
  151.3454  142.6526  158.0772 N   0  0  0  0  0  0  0  0  0  0  0  0
  153.1854  140.5293  159.9044 H   0  0  0  0  0  0  0  0  0  0  0  0
  152.1369  141.8078  160.5227 H   0  0  0  0  0  0  0  0  0  0  0  0
  153.5950  142.2222  159.6110 H   0  0  0  0  0  0  0  0  0  0  0  0
  152.4120  139.4293  157.8933 H   0  0  0  0  0  0  0  0  0  0  0  0
  151.0603  139.5036  155.7896 H   0  0  0  0  0  0  0  0  0  0  0  0
  149.2700  142.6891  154.6910 H   0  0  0  0  0  0  0  0  0  0  0  0
  150.2709  141.4630  153.9397 H   0  0  0  0  0  0  0  0  0  0  0  0
  148.6255  140.3672  152.8862 H   0  0  0  0  0  0  0  0  0  0  0  0
  146.1206  139.5299  153.9421 H   0  0  0  0  0  0  0  0  0  0  0  0
  148.3864  137.4769  154.0919 H   0  0  0  0  0  0  0  0  0  0  0  0
  147.4635  138.0831  155.4463 H   0  0  0  0  0  0  0  0  0  0  0  0
  146.6525  135.8551  154.7066 H   0  0  0  0  0  0  0  0  0  0  0  0
  145.3882  137.0601  154.5603 H   0  0  0  0  0  0  0  0  0  0  0  0
  145.4145  134.5548  153.3004 H   0  0  0  0  0  0  0  0  0  0  0  0
  144.2650  135.6188  152.5353 H   0  0  0  0  0  0  0  0  0  0  0  0
  145.7548  135.2659  150.3710 H   0  0  0  0  0  0  0  0  0  0  0  0
  144.0753  132.9698  151.4605 H   0  0  0  0  0  0  0  0  0  0  0  0
  144.4912  133.2419  149.7704 H   0  0  0  0  0  0  0  0  0  0  0  0
  143.4598  134.3875  150.6155 H   0  0  0  0  0  0  0  0  0  0  0  0
  146.6669  132.8564  152.0216 H   0  0  0  0  0  0  0  0  0  0  0  0
  147.7014  134.1742  151.4754 H   0  0  0  0  0  0  0  0  0  0  0  0
  146.9643  133.0956  150.3028 H   0  0  0  0  0  0  0  0  0  0  0  0
  145.7664  137.3872  150.8642 H   0  0  0  0  0  0  0  0  0  0  0  0
  144.8592  137.9891  152.2336 H   0  0  0  0  0  0  0  0  0  0  0  0
  146.5842  139.6274  151.5264 H   0  0  0  0  0  0  0  0  0  0  0  0
  147.8394  138.4207  151.6771 H   0  0  0  0  0  0  0  0  0  0  0  0
  150.1317  143.6211  156.7130 H   0  0  0  0  0  0  0  0  0  0  0  0
  147.1223  136.1328  152.3996 H   0  0  0  0  0  0  0  0  0  0  0  0
  1  2  1  0  0  0  0
  1 22  1  0  0  0  0
  1 23  1  0  0  0  0
  1 24  1  0  0  0  0
  2 21  1  0  0  0  0
  2  3  2  0  0  0  0
  3  4  1  0  0  0  0
  3 25  1  0  0  0  0
  4  5  2  0  0  0  0
  4 26  1  0  0  0  0
  5  6  1  0  0  0  0
  5 20  1  0  0  0  0
  6  7  1  0  0  0  0
  6 27  1  0  0  0  0
  6 28  1  0  0  0  0
  7  8  2  0  0  0  0
  7  9  1  0  0  0  0
  9 10  1  0  0  0  0
  9 29  1  0  0  0  0
 10 19  1  0  0  0  0
 10 11  1  0  0  0  0
 10 30  1  0  0  0  0
 11 12  1  0  0  0  0
 11 31  1  0  0  0  0
 11 32  1  0  0  0  0
 12 13  1  0  0  0  0
 12 33  1  0  0  0  0
 12 34  1  0  0  0  0
 13 14  1  0  0  0  0
 13 18  1  0  0  0  0
 13 49  1  0  0  0  0
 14 15  1  0  0  0  0
 14 35  1  0  0  0  0
 14 36  1  0  0  0  0
 15 16  1  0  0  0  0
 15 17  1  0  0  0  0
 15 37  1  0  0  0  0
 16 38  1  0  0  0  0
 16 39  1  0  0  0  0
 16 40  1  0  0  0  0
 17 41  1  0  0  0  0
 17 42  1  0  0  0  0
 17 43  1  0  0  0  0
 18 19  1  0  0  0  0
 18 44  1  0  0  0  0
 18 45  1  0  0  0  0
 19 46  1  0  0  0  0
 19 47  1  0  0  0  0
 20 21  2  0  0  0  0
 20 48  1  0  0  0  0
M  CHG  1  13   1
M  END
> <s_m_source_file>
AV-unprocessed.smi

> <i_m_source_file_index>
1483

> <i_lp_mmshare_version>
43012

> <i_f3d_flags>
0

> <s_epik_input>
W0NIM11jMVtjSF1bY0hdYyhbY0hdbjEpW0NIMl1DKD1PKVtOSF1bQ0hdMltDSDJdW0NIMl1OKFtDSDJdW0NIMl0yKVtDSDJdW0NIXShbQ0gzXSlbQ0gzXQ==

> <s_epik_cmdline>
J2VwaWtfcHl0aG9uJywgJy1waCcsICc3LjAnLCAnLXRuJywgJzgnLCAnLW1hJywgJzIwMCcsICctbWV0YWxfYmluZGluZycsICctaW1hZScsICc8aW5maWxlLm1hZT4nLCAnLW9tYWUnLCAnPG91dGZpbGUubWFlPic=

> <r_epik_Ionization_Penalty>
0.0186701

> <r_epik_Ionization_Penalty_Charging>
0.00405837

> <r_epik_Ionization_Penalty_Neutral>
0.0146117

> <r_epik_State_Penalty>
0.0114383

> <r_epik_Charging_Adjusted_Penalty>
0.0154967

> <i_epik_Tot_Q>
1

> <i_epik_Tot_abs_Q>
1

> <r_epik_Metal_State_Penalty>
0.0111573

> <b_epik_Metal_Only>
0

> <s_lp_Force_Field>
OPLS_2005

> <r_lp_Energy>
16.8869

> <b_lp_Chiralities_Consistent>
1

> <s_lp_Variant>
AV-unprocessed.smi:1483-1

> <Gold.Version>
5.8.1

> <Gold.Id.Protein>
6NUR|6NUR_protein|mol2

> <Gold.PLP.Fitness>
45.0496

> <Gold.PLP.PLP>
-34.3129

> <Gold.PLP.part.hbond>
-2.0000

> <Gold.PLP.part.metal>
0.0000

> <Gold.PLP.part.buried>
-0.7595

> <Gold.PLP.part.nonpolar>
-31.2906

> <Gold.PLP.part.repulsive>
0.1547

> <Gold.PLP.ligand.clash>
0.0000

> <Gold.PLP.ligand.torsion>
0.7471

> <Gold.PLP.Chemscore.Hbond>
3.0000

> <Gold.PLP.Chemscore.CHOScore>
1.0000

> <Gold.PLP.Chemscore.Metal>
0.0000

> <Gold.Chemscore.Hbonds>
donor molecule, donor type, donor heavy atom, donor atom, acceptor molecule, acceptor atom, score
      L1  H     9    29       P1  7957  1.00
      L1  H    13    49       P1  7948  2.00
      L1  C    20    48       P1  8028  0.82

> <Gold.PLP.Chemscore.Internal.Correction>
0.2309

> <Gold.Rescore>
     Score         DG    S(hbond)    S(metal)    S(lipo)     H(rot)  DE(clash)    DE(int)     intcor
     19.02     -19.88       1.96        0.00      99.21       1.47       0.17       0.70       ----

> <Gold.Chemscore.Fitness>
19.0165

> <Gold.Chemscore.DG>
-19.8808

> <Gold.Chemscore.ZeroCoef>
-5.4800

> <Gold.Chemscore.Hbond>
1.9648

> <Gold.Chemscore.Metal>
0.0000

> <Gold.Chemscore.Lipo>
99.2090

> <Gold.Chemscore.Internal_Hbond>
0.0000

> <Gold.Chemscore.DEClash>
0.1679

> <Gold.Chemscore.DEInternal>
0.6964

> <Gold.Chemscore.Rot>
1.4723

> <Gold.Chemscore.Internal.Correction>
   9.000000E+99

> <Gold.Chemscore.Hbonds>
donor molecule, donor type, donor heavy atom, donor atom, acceptor molecule, acceptor atom, score
      L1  H     9    29       P1  7957  0.94
      L1  H    13    49       P1  7948  1.00

> <Gold.Chemscore.Hbond.Weighted>
-6.5625

> <Gold.Chemscore.Metal.Weighted>
-0.0000

> <Gold.Chemscore.Lipo.Weighted>
-11.6075

> <Gold.Chemscore.Internal_Hbond.Weighted>
0.0000

> <Gold.Chemscore.DEClash.Weighted>
0.1679

> <Gold.Chemscore.DEInternal.Weighted>
0.6964

> <Gold.Chemscore.Rot.Weighted>
3.7691

> <Gold.Chemscore.Internal.Correction.Weighted>
   9.000000E+99

> <Gold.Protein.RotatedTorsions>
[ 6907 6896 6895 6894 ] final    7.76 input  -60.11 | X-H torsion
[ 7974 7965 7964 7962 ] final   62.88 input  175.53 | X-H torsion
[ 8008 7997 7996 7995 ] final -159.18 input   59.86 | X-H torsion
[ 10167 10162 10161 10158 ] final   21.22 input  -65.29 | X-H torsion
[ 10718 10713 10712 10709 ] final  139.29 input   66.30 | X-H torsion
[ 10763 10752 10751 10750 ] final   -4.75 input  -60.55 | X-H torsion
[ 11005 11000 10999 10996 ] final    3.72 input  -57.11 | X-H torsion

> <Gold.Protein.ActiveResidues>
 VAL166  LYS551  ARG553  GLY616  TRP617  ASP618  TYR619  PRO620  LYS621  CYS622 
 ASP623  PHE694  ASN695  SER759  ASP760  ASP761  ALA762  ILE779  LEU786  VAL792 
 PHE793  MET794  SER795  GLU796  ALA797  LYS798  CYS799  TRP800  GLU811  SER814 

> <Gold.Protein.RotatedAtoms>
  151.6950  135.0940  160.0240 H   0  0  0  0  0  0  0  0  0  0  0  0  # atno 6907 bound_to 6896
  152.3755  133.6471  159.6128 H   0  0  0  0  0  0  0  0  0  0  0  0  # atno 6908 bound_to 6896
  150.7706  133.9117  159.3412 H   0  0  0  0  0  0  0  0  0  0  0  0  # atno 6909 bound_to 6896
  145.8683  139.3360  143.0778 H   0  0  0  0  0  0  0  0  0  0  0  0  # atno 7974 bound_to 7965
  155.7588  140.0836  157.2165 H   0  0  0  0  0  0  0  0  0  0  0  0  # atno 8008 bound_to 7997
  154.4005  140.1547  156.2864 H   0  0  0  0  0  0  0  0  0  0  0  0  # atno 8009 bound_to 7997
  155.8860  140.3418  155.5924 H   0  0  0  0  0  0  0  0  0  0  0  0  # atno 8010 bound_to 7997
  140.5444  143.9621  150.6538 H   0  0  0  0  0  0  0  0  0  0  0  0  # atno 10167 bound_to 10162
  157.4160  131.1033  151.0404 H   0  0  0  0  0  0  0  0  0  0  0  0  # atno 10718 bound_to 10713
  153.3891  135.7001  153.6508 H   0  0  0  0  0  0  0  0  0  0  0  0  # atno 10763 bound_to 10752
  153.5088  135.3636  155.2577 H   0  0  0  0  0  0  0  0  0  0  0  0  # atno 10764 bound_to 10752
  154.8700  135.4130  154.3204 H   0  0  0  0  0  0  0  0  0  0  0  0  # atno 10765 bound_to 10752
  140.5900  133.9933  155.8084 H   0  0  0  0  0  0  0  0  0  0  0  0  # atno 11005 bound_to 11000
  145.9167  140.9143  143.0426 LP  0  0  0  0  0  0  0  0  0  0  0  0  # atno 17320 bound_to 7965
  144.6726  140.1234  143.7448 LP  0  0  0  0  0  0  0  0  0  0  0  0  # atno 17321 bound_to 7965
  140.3030  143.3248  152.0953 LP  0  0  0  0  0  0  0  0  0  0  0  0  # atno 17342 bound_to 10162
  139.5001  144.6685  151.6300 LP  0  0  0  0  0  0  0  0  0  0  0  0  # atno 17343 bound_to 10162
  157.1351  130.6119  149.5540 LP  0  0  0  0  0  0  0  0  0  0  0  0  # atno 17370 bound_to 10713
  155.9865  130.4900  150.7083 LP  0  0  0  0  0  0  0  0  0  0  0  0  # atno 17371 bound_to 10713
  141.0941  133.9871  157.3189 LP  0  0  0  0  0  0  0  0  0  0  0  0  # atno 17394 bound_to 11000
  139.9278  135.0201  156.8297 LP  0  0  0  0  0  0  0  0  0  0  0  0  # atno 17395 bound_to 11000

$$$$
