AV-unprocessed.smi:3342|AV-procd|sdf|12887|dock2
  -GOLD-   2272019293D 1   1.00000     0.00000
 Structure written by MMmdl.
 42 43  0  0  0  0  0  0  0  0  2 V2000
  153.4447  139.5113  159.3880 C   0  0  0  0  0  0  0  0  0  0  0  0
  152.7124  140.6995  158.7440 C   0  0  2  0  0  0  0  0  0  0  0  0
  152.2912  141.7781  159.7660 C   0  0  0  0  0  0  0  0  0  0  0  0
  151.9433  143.0560  159.1383 N   0  0  0  0  0  0  0  0  0  0  0  0
  152.4798  144.2866  159.4167 C   0  0  0  0  0  0  0  0  0  0  0  0
  151.8611  145.1807  158.5814 C   0  0  0  0  0  0  0  0  0  0  0  0
  150.9766  144.4576  157.8266 N   0  3  0  0  0  0  0  0  0  0  0  0
  151.0300  143.1652  158.1645 C   0  0  0  0  0  0  0  0  0  0  0  0
  151.5399  140.2093  158.0258 N   0  0  0  0  0  0  0  0  0  0  0  0
  151.5167  139.8303  156.7360 C   0  0  0  0  0  0  0  0  0  0  0  0
  152.5320  139.8287  156.0380 O   0  0  0  0  0  0  0  0  0  0  0  0
  150.2967  139.4543  156.2757 N   0  0  0  0  0  0  0  0  0  0  0  0
  149.0078  139.6584  156.9574 C   0  0  0  0  0  0  0  0  0  0  0  0
  148.2782  140.8340  156.2826 C   0  0  0  0  0  0  0  0  0  0  0  0
  148.0868  140.5758  154.7683 C   0  0  0  0  0  0  0  0  0  0  0  0
  147.4935  141.8069  154.0702 C   0  0  0  0  0  0  0  0  0  0  0  0
  146.3105  141.6556  153.4700 N   0  0  0  0  0  0  0  0  0  0  0  0
  148.0924  142.8809  154.0724 O   0  0  0  0  0  0  0  0  0  0  0  0
  149.4193  140.1518  154.1054 C   0  0  0  0  0  0  0  0  0  0  0  0
  150.0942  139.0122  154.8911 C   0  0  0  0  0  0  0  0  0  0  0  0
  154.3757  139.8237  159.8612 H   0  0  0  0  0  0  0  0  0  0  0  0
  153.6998  138.7579  158.6417 H   0  0  0  0  0  0  0  0  0  0  0  0
  152.8285  139.0304  160.1483 H   0  0  0  0  0  0  0  0  0  0  0  0
  153.3959  141.1497  158.0216 H   0  0  0  0  0  0  0  0  0  0  0  0
  151.4182  141.4527  160.3334 H   0  0  0  0  0  0  0  0  0  0  0  0
  153.0887  141.9537  160.4899 H   0  0  0  0  0  0  0  0  0  0  0  0
  153.2420  144.4294  160.1695 H   0  0  0  0  0  0  0  0  0  0  0  0
  151.9819  146.2484  158.4691 H   0  0  0  0  0  0  0  0  0  0  0  0
  150.4483  142.3682  157.7361 H   0  0  0  0  0  0  0  0  0  0  0  0
  150.6713  140.1758  158.5395 H   0  0  0  0  0  0  0  0  0  0  0  0
  148.4080  138.7513  156.8708 H   0  0  0  0  0  0  0  0  0  0  0  0
  149.0972  139.8395  158.0285 H   0  0  0  0  0  0  0  0  0  0  0  0
  147.3098  140.9881  156.7605 H   0  0  0  0  0  0  0  0  0  0  0  0
  148.8513  141.7484  156.4450 H   0  0  0  0  0  0  0  0  0  0  0  0
  147.3857  139.7461  154.6611 H   0  0  0  0  0  0  0  0  0  0  0  0
  145.8792  142.4373  152.9987 H   0  0  0  0  0  0  0  0  0  0  0  0
  145.8501  140.7573  153.4916 H   0  0  0  0  0  0  0  0  0  0  0  0
  149.2413  139.8332  153.0776 H   0  0  0  0  0  0  0  0  0  0  0  0
  150.1035  141.0003  154.0505 H   0  0  0  0  0  0  0  0  0  0  0  0
  151.0241  138.7196  154.4013 H   0  0  0  0  0  0  0  0  0  0  0  0
  149.4636  138.1220  154.8799 H   0  0  0  0  0  0  0  0  0  0  0  0
  150.3701  144.8429  157.1132 H   0  0  0  0  0  0  0  0  0  0  0  0
  1  2  1  0  0  0  0
  1 21  1  0  0  0  0
  1 22  1  0  0  0  0
  1 23  1  0  0  0  0
  2  3  1  0  0  0  0
  2  9  1  0  0  0  0
  2 24  1  0  0  0  0
  3  4  1  0  0  0  0
  3 25  1  0  0  0  0
  3 26  1  0  0  0  0
  4  8  1  0  0  0  0
  4  5  1  0  0  0  0
  5  6  2  0  0  0  0
  5 27  1  0  0  0  0
  6  7  1  0  0  0  0
  6 28  1  0  0  0  0
  7  8  2  0  0  0  0
  7 42  1  0  0  0  0
  8 29  1  0  0  0  0
  9 10  1  0  0  0  0
  9 30  1  0  0  0  0
 10 11  2  0  0  0  0
 10 12  1  0  0  0  0
 12 20  1  0  0  0  0
 12 13  1  0  0  0  0
 13 14  1  0  0  0  0
 13 31  1  0  0  0  0
 13 32  1  0  0  0  0
 14 15  1  0  0  0  0
 14 33  1  0  0  0  0
 14 34  1  0  0  0  0
 15 16  1  0  0  0  0
 15 19  1  0  0  0  0
 15 35  1  0  0  0  0
 16 17  1  0  0  0  0
 16 18  2  0  0  0  0
 17 36  1  0  0  0  0
 17 37  1  0  0  0  0
 19 20  1  0  0  0  0
 19 38  1  0  0  0  0
 19 39  1  0  0  0  0
 20 40  1  0  0  0  0
 20 41  1  0  0  0  0
M  CHG  1   7   1
M  END
> <s_m_source_file>
AV-unprocessed.smi

> <i_m_source_file_index>
3342

> <i_lp_mmshare_version>
43012

> <i_f3d_flags>
0

> <s_epik_input>
W2NIXTFuW2NIXVtjSF1uMVtDSDJdW0NAQEhdKFtDSDNdKVtOSF1DKD1PKU4yW0NIMl1bQ0gyXVtDSF0oQyg9TylbTkgyXSlbQ0gyXVtDSDJdMg==

> <s_epik_cmdline>
J2VwaWtfcHl0aG9uJywgJy1waCcsICc3LjAnLCAnLXRuJywgJzgnLCAnLW1hJywgJzIwMCcsICctbWV0YWxfYmluZGluZycsICctaW1hZScsICc8aW5maWxlLm1hZT4nLCAnLW9tYWUnLCAnPG91dGZpbGUubWFlPic=

> <r_lp_tautomer_probability>
1

> <r_epik_Ionization_Penalty>
0.254015

> <r_epik_Ionization_Penalty_Charging>
0

> <r_epik_Ionization_Penalty_Neutral>
0.254015

> <r_epik_State_Penalty>
0.245417

> <r_epik_Charging_Adjusted_Penalty>
0.245417

> <i_epik_Tot_Q>
1

> <i_epik_Tot_abs_Q>
1

> <r_epik_Metal_State_Penalty>
0.535589

> <b_epik_Metal_Only>
0

> <s_lp_Force_Field>
OPLS_2005

> <r_lp_Energy>
30.9276

> <b_lp_Chiralities_Consistent>
1

> <s_lp_Variant>
AV-unprocessed.smi:3342-1

> <Gold.Version>
5.8.1

> <Gold.Id.Protein>
6NUR|6NUR_protein|mol2

> <Gold.PLP.Fitness>
44.3049

> <Gold.PLP.PLP>
-33.3324

> <Gold.PLP.part.hbond>
-5.0000

> <Gold.PLP.part.metal>
0.0000

> <Gold.PLP.part.buried>
-2.8197

> <Gold.PLP.part.nonpolar>
-28.7370

> <Gold.PLP.part.repulsive>
4.2360

> <Gold.PLP.ligand.clash>
0.0000

> <Gold.PLP.ligand.torsion>
0.5461

> <Gold.PLP.Chemscore.Hbond>
3.9842

> <Gold.PLP.Chemscore.CHOScore>
0.0000

> <Gold.PLP.Chemscore.Metal>
0.0000

> <Gold.Chemscore.Hbonds>
donor molecule, donor type, donor heavy atom, donor atom, acceptor molecule, acceptor atom, score
      L1  H     7    42       P1  8028  1.98
      L1  H    17    37       P1 10175  0.02
      P1  H  7997  8010       L1    11  1.00
      P1  H  8022  8030       L1    18  0.93

> <Gold.PLP.Chemscore.Internal.Correction>
0.1122

> <Gold.Rescore>
     Score         DG    S(hbond)    S(metal)    S(lipo)     H(rot)  DE(clash)    DE(int)     intcor
     12.71     -16.89       2.60        0.00      74.41       2.34       2.46       1.72       ----

> <Gold.Chemscore.Fitness>
12.7093

> <Gold.Chemscore.DG>
-16.8901

> <Gold.Chemscore.ZeroCoef>
-5.4800

> <Gold.Chemscore.Hbond>
2.6031

> <Gold.Chemscore.Metal>
0.0000

> <Gold.Chemscore.Lipo>
74.4118

> <Gold.Chemscore.Internal_Hbond>
0.0000

> <Gold.Chemscore.DEClash>
2.4633

> <Gold.Chemscore.DEInternal>
1.7174

> <Gold.Chemscore.Rot>
2.3400

> <Gold.Chemscore.Internal.Correction>
   9.000000E+99

> <Gold.Chemscore.Hbonds>
donor molecule, donor type, donor heavy atom, donor atom, acceptor molecule, acceptor atom, score
      L1  H     7    42       P1  8028  0.36
      L1  H    17    37       P1 10175  0.04
      P1  H  7997  8010       L1    11  1.00
      P1  H  8022  8030       L1    18  0.88

> <Gold.Chemscore.Hbond.Weighted>
-8.6943

> <Gold.Chemscore.Metal.Weighted>
-0.0000

> <Gold.Chemscore.Lipo.Weighted>
-8.7062

> <Gold.Chemscore.Internal_Hbond.Weighted>
0.0000

> <Gold.Chemscore.DEClash.Weighted>
2.4633

> <Gold.Chemscore.DEInternal.Weighted>
1.7174

> <Gold.Chemscore.Rot.Weighted>
5.9904

> <Gold.Chemscore.Internal.Correction.Weighted>
   9.000000E+99

> <Gold.Protein.RotatedTorsions>
[ 6907 6896 6895 6894 ] final  148.05 input  -60.11 | X-H torsion
[ 7974 7965 7964 7962 ] final   72.24 input  175.53 | X-H torsion
[ 8008 7997 7996 7995 ] final   72.57 input   59.86 | X-H torsion
[ 10167 10162 10161 10158 ] final -157.12 input  -65.29 | X-H torsion
[ 10718 10713 10712 10709 ] final  -71.79 input   66.30 | X-H torsion
[ 10763 10752 10751 10750 ] final -117.42 input  -60.55 | X-H torsion
[ 11005 11000 10999 10996 ] final  143.05 input  -57.11 | X-H torsion

> <Gold.Protein.ActiveResidues>
 VAL166  LYS551  ARG553  GLY616  TRP617  ASP618  TYR619  PRO620  LYS621  CYS622 
 ASP623  PHE694  ASN695  SER759  ASP760  ASP761  ALA762  ILE779  LEU786  VAL792 
 PHE793  MET794  SER795  GLU796  ALA797  LYS798  CYS799  TRP800  GLU811  SER814 

> <Gold.Protein.RotatedAtoms>
  152.1467  133.4496  159.4792 H   0  0  0  0  0  0  0  0  0  0  0  0  # atno 6907 bound_to 6896
  150.6891  134.2239  159.4417 H   0  0  0  0  0  0  0  0  0  0  0  0  # atno 6908 bound_to 6896
  152.0134  134.9863  160.0619 H   0  0  0  0  0  0  0  0  0  0  0  0  # atno 6909 bound_to 6896
  145.7558  139.2779  143.1405 H   0  0  0  0  0  0  0  0  0  0  0  0  # atno 7974 bound_to 7965
  155.7708  140.3484  155.5246 H   0  0  0  0  0  0  0  0  0  0  0  0  # atno 8008 bound_to 7997
  155.8824  140.1004  157.1497 H   0  0  0  0  0  0  0  0  0  0  0  0  # atno 8009 bound_to 7997
  154.4026  140.1320  156.4200 H   0  0  0  0  0  0  0  0  0  0  0  0  # atno 8010 bound_to 7997
  139.6796  143.9605  152.2329 H   0  0  0  0  0  0  0  0  0  0  0  0  # atno 10167 bound_to 10162
  156.0348  130.4358  150.2496 H   0  0  0  0  0  0  0  0  0  0  0  0  # atno 10718 bound_to 10713
  154.8554  135.4310  154.1976 H   0  0  0  0  0  0  0  0  0  0  0  0  # atno 10763 bound_to 10752
  153.3030  135.6970  153.7191 H   0  0  0  0  0  0  0  0  0  0  0  0  # atno 10764 bound_to 10752
  153.6314  135.3484  155.3017 H   0  0  0  0  0  0  0  0  0  0  0  0  # atno 10765 bound_to 10752
  140.0524  134.9248  157.1040 H   0  0  0  0  0  0  0  0  0  0  0  0  # atno 11005 bound_to 11000
  146.0312  140.8256  142.9875 LP  0  0  0  0  0  0  0  0  0  0  0  0  # atno 17320 bound_to 7965
  144.6840  140.2772  143.7297 LP  0  0  0  0  0  0  0  0  0  0  0  0  # atno 17321 bound_to 7965
  139.9391  144.6693  150.8284 LP  0  0  0  0  0  0  0  0  0  0  0  0  # atno 17342 bound_to 10162
  140.7647  143.3256  151.2522 LP  0  0  0  0  0  0  0  0  0  0  0  0  # atno 17343 bound_to 10162
  157.0596  131.0086  151.3227 LP  0  0  0  0  0  0  0  0  0  0  0  0  # atno 17370 bound_to 10713
  157.5080  130.7921  149.7674 LP  0  0  0  0  0  0  0  0  0  0  0  0  # atno 17371 bound_to 10713
  140.3897  134.2198  155.7167 LP  0  0  0  0  0  0  0  0  0  0  0  0  # atno 17394 bound_to 11000
  141.1936  133.8146  157.0790 LP  0  0  0  0  0  0  0  0  0  0  0  0  # atno 17395 bound_to 11000

$$$$
