AV-unprocessed.smi:1533|AV-procd|sdf|6165|dock4
  -GOLD-   22720 6313D 1   1.00000     0.00000
 Structure written by MMmdl.
 37 39  0  0  0  0  0  0  0  0  1 V2000
  144.9966  144.0757  153.5843 C   0  0  0  0  0  0  0  0  0  0  0  0
  145.7443  143.0094  154.3095 C   0  0  0  0  0  0  0  0  0  0  0  0
  145.2439  142.4267  155.3923 N   0  0  0  0  0  0  0  0  0  0  0  0
  146.2359  141.5018  155.7494 O   0  0  0  0  0  0  0  0  0  0  0  0
  147.2276  141.6543  154.8393 C   0  0  0  0  0  0  0  0  0  0  0  0
  148.4248  140.7678  154.9200 C   0  0  0  0  0  0  0  0  0  0  0  0
  149.7428  141.5574  154.8740 C   0  0  0  0  0  0  0  0  0  0  0  0
  149.9370  142.3501  156.0829 N   0  0  0  0  0  0  0  0  0  0  0  0
  150.7260  142.0027  157.1117 C   0  0  0  0  0  0  0  0  0  0  0  0
  151.3739  140.9557  157.1327 O   0  0  0  0  0  0  0  0  0  0  0  0
  150.7876  142.9938  158.2875 C   0  0  1  0  0  0  0  0  0  0  0  0
  151.8613  142.6277  159.3422 C   0  0  0  0  0  0  0  0  0  0  0  0
  152.7171  143.9065  159.4343 C   0  0  2  0  0  0  0  0  0  0  0  0
  151.8938  145.0285  160.0954 C   0  0  0  0  0  0  0  0  0  0  0  0
  150.8835  145.4030  158.9933 C   0  0  0  0  0  0  0  0  0  0  0  0
  151.2367  144.4160  157.8641 C   0  0  1  0  0  0  0  0  0  0  0  0
  152.7598  144.3652  157.9835 C   0  0  0  0  0  0  0  0  0  0  0  0
  146.9667  142.5670  153.9067 N   0  0  0  0  0  0  0  0  0  0  0  0
  144.1571  144.4371  154.1793 H   0  0  0  0  0  0  0  0  0  0  0  0
  144.6113  143.6885  152.6408 H   0  0  0  0  0  0  0  0  0  0  0  0
  145.6539  144.9189  153.3705 H   0  0  0  0  0  0  0  0  0  0  0  0
  148.3607  140.1870  155.8412 H   0  0  0  0  0  0  0  0  0  0  0  0
  148.3848  140.0531  154.0972 H   0  0  0  0  0  0  0  0  0  0  0  0
  150.5844  140.8704  154.7794 H   0  0  0  0  0  0  0  0  0  0  0  0
  149.7699  142.2039  153.9948 H   0  0  0  0  0  0  0  0  0  0  0  0
  149.4351  143.2244  156.1426 H   0  0  0  0  0  0  0  0  0  0  0  0
  149.8026  143.0392  158.7561 H   0  0  0  0  0  0  0  0  0  0  0  0
  151.4171  142.3654  160.3030 H   0  0  0  0  0  0  0  0  0  0  0  0
  152.4775  141.7829  159.0294 H   0  0  0  0  0  0  0  0  0  0  0  0
  153.6917  143.7479  159.8967 H   0  0  0  0  0  0  0  0  0  0  0  0
  151.4060  144.6969  161.0128 H   0  0  0  0  0  0  0  0  0  0  0  0
  152.5260  145.8826  160.3418 H   0  0  0  0  0  0  0  0  0  0  0  0
  149.8486  145.3103  159.3246 H   0  0  0  0  0  0  0  0  0  0  0  0
  151.0373  146.4329  158.6681 H   0  0  0  0  0  0  0  0  0  0  0  0
  150.8686  144.7281  156.8857 H   0  0  0  0  0  0  0  0  0  0  0  0
  153.2360  145.3386  157.8523 H   0  0  0  0  0  0  0  0  0  0  0  0
  153.2404  143.6485  157.3173 H   0  0  0  0  0  0  0  0  0  0  0  0
  1  2  1  0  0  0  0
  1 19  1  0  0  0  0
  1 20  1  0  0  0  0
  1 21  1  0  0  0  0
  2 18  1  0  0  0  0
  2  3  2  0  0  0  0
  3  4  1  0  0  0  0
  4  5  1  0  0  0  0
  5  6  1  0  0  0  0
  5 18  2  0  0  0  0
  6  7  1  0  0  0  0
  6 22  1  0  0  0  0
  6 23  1  0  0  0  0
  7  8  1  0  0  0  0
  7 24  1  0  0  0  0
  7 25  1  0  0  0  0
  8  9  1  0  0  0  0
  8 26  1  0  0  0  0
  9 10  2  0  0  0  0
  9 11  1  0  0  0  0
 11 16  1  0  0  0  0
 11 12  1  0  0  0  0
 11 27  1  0  0  0  0
 12 13  1  0  0  0  0
 12 28  1  0  0  0  0
 12 29  1  0  0  0  0
 13 17  1  0  0  0  0
 13 14  1  0  0  0  0
 13 30  1  0  0  0  0
 14 15  1  0  0  0  0
 14 31  1  0  0  0  0
 14 32  1  0  0  0  0
 15 16  1  0  0  0  0
 15 33  1  0  0  0  0
 15 34  1  0  0  0  0
 16 17  1  0  0  0  0
 16 35  1  0  0  0  0
 17 36  1  0  0  0  0
 17 37  1  0  0  0  0
M  END
> <s_m_source_file>
AV-unprocessed.smi

> <i_m_source_file_index>
1533

> <i_lp_mmshare_version>
43012

> <i_f3d_flags>
0

> <s_epik_input>
W0NIM11jMW5vYyhuMSlbQ0gyXVtDSDJdW05IXUMoPU8pW0NASF0oW0NIMl1bQ0BASF0yMylbQ0BASF0oW0NIMl0zKVtDSDJdW0NIMl0y

> <s_epik_cmdline>
J2VwaWtfcHl0aG9uJywgJy1waCcsICc3LjAnLCAnLXRuJywgJzgnLCAnLW1hJywgJzIwMCcsICctbWV0YWxfYmluZGluZycsICctaW1hZScsICc8aW5maWxlLm1hZT4nLCAnLW9tYWUnLCAnPG91dGZpbGUubWFlPic=

> <r_lp_tautomer_probability>
1

> <r_epik_Ionization_Penalty>
1.90116e-08

> <r_epik_Ionization_Penalty_Charging>
0

> <r_epik_Ionization_Penalty_Neutral>
1.90116e-08

> <r_epik_State_Penalty>
-0

> <r_epik_Charging_Adjusted_Penalty>
0

> <i_epik_Tot_Q>
0

> <i_epik_Tot_abs_Q>
0

> <r_epik_Metal_State_Penalty>
-0

> <b_epik_Metal_Only>
0

> <s_lp_Force_Field>
OPLS_2005

> <r_lp_Energy>
42.7172

> <b_lp_Chiralities_Consistent>
1

> <s_lp_Variant>
AV-unprocessed.smi:1533-4

> <Gold.Version>
5.8.1

> <Gold.Id.Protein>
6NUR|6NUR_protein|mol2

> <Gold.PLP.Fitness>
43.9201

> <Gold.PLP.PLP>
-41.4692

> <Gold.PLP.part.hbond>
-1.0000

> <Gold.PLP.part.metal>
0.0000

> <Gold.PLP.part.buried>
-5.9420

> <Gold.PLP.part.nonpolar>
-35.7640

> <Gold.PLP.part.repulsive>
0.5020

> <Gold.PLP.ligand.clash>
0.0000

> <Gold.PLP.ligand.torsion>
0.2934

> <Gold.PLP.Chemscore.Hbond>
1.0000

> <Gold.PLP.Chemscore.CHOScore>
0.0000

> <Gold.PLP.Chemscore.Metal>
0.0000

> <Gold.Chemscore.Hbonds>
donor molecule, donor type, donor heavy atom, donor atom, acceptor molecule, acceptor atom, score
      L1  H     8    26       P1  8028  1.00

> <Gold.PLP.Chemscore.Internal.Correction>
0.0376

> <Gold.Rescore>
     Score         DG    S(hbond)    S(metal)    S(lipo)     H(rot)  DE(clash)    DE(int)     intcor
     15.49     -15.83       0.96        0.00     101.50       1.85       0.07       0.28       ----

> <Gold.Chemscore.Fitness>
15.4866

> <Gold.Chemscore.DG>
-15.8349

> <Gold.Chemscore.ZeroCoef>
-5.4800

> <Gold.Chemscore.Hbond>
0.9621

> <Gold.Chemscore.Metal>
0.0000

> <Gold.Chemscore.Lipo>
101.4956

> <Gold.Chemscore.Internal_Hbond>
0.0000

> <Gold.Chemscore.DEClash>
0.0712

> <Gold.Chemscore.DEInternal>
0.2771

> <Gold.Chemscore.Rot>
1.8490

> <Gold.Chemscore.Internal.Correction>
   9.000000E+99

> <Gold.Chemscore.Hbonds>
donor molecule, donor type, donor heavy atom, donor atom, acceptor molecule, acceptor atom, score
      L1  H     8    26       P1  8028  0.99

> <Gold.Chemscore.Hbond.Weighted>
-3.2133

> <Gold.Chemscore.Metal.Weighted>
-0.0000

> <Gold.Chemscore.Lipo.Weighted>
-11.8750

> <Gold.Chemscore.Internal_Hbond.Weighted>
0.0000

> <Gold.Chemscore.DEClash.Weighted>
0.0712

> <Gold.Chemscore.DEInternal.Weighted>
0.2771

> <Gold.Chemscore.Rot.Weighted>
4.7334

> <Gold.Chemscore.Internal.Correction.Weighted>
   9.000000E+99

> <Gold.Protein.RotatedTorsions>
[ 6907 6896 6895 6894 ] final   97.42 input  -60.11 | X-H torsion
[ 7974 7965 7964 7962 ] final  -32.32 input  175.53 | X-H torsion
[ 8008 7997 7996 7995 ] final  -99.63 input   59.86 | X-H torsion
[ 10167 10162 10161 10158 ] final  109.91 input  -65.29 | X-H torsion
[ 10718 10713 10712 10709 ] final   46.11 input   66.30 | X-H torsion
[ 10763 10752 10751 10750 ] final   27.50 input  -60.55 | X-H torsion
[ 11005 11000 10999 10996 ] final -107.75 input  -57.11 | X-H torsion

> <Gold.Protein.ActiveResidues>
 VAL166  LYS551  ARG553  GLY616  TRP617  ASP618  TYR619  PRO620  LYS621  CYS622 
 ASP623  PHE694  ASN695  SER759  ASP760  ASP761  ALA762  ILE779  LEU786  VAL792 
 PHE793  MET794  SER795  GLU796  ALA797  LYS798  CYS799  TRP800  GLU811  SER814 

> <Gold.Protein.RotatedAtoms>
  152.5423  134.0735  159.8204 H   0  0  0  0  0  0  0  0  0  0  0  0  # atno 6907 bound_to 6896
  151.0847  133.5355  159.2626 H   0  0  0  0  0  0  0  0  0  0  0  0  # atno 6908 bound_to 6896
  151.2169  135.0512  159.8988 H   0  0  0  0  0  0  0  0  0  0  0  0  # atno 6909 bound_to 6896
  146.0999  140.5777  142.8825 H   0  0  0  0  0  0  0  0  0  0  0  0  # atno 7974 bound_to 7965
  154.8175  140.0446  157.1387 H   0  0  0  0  0  0  0  0  0  0  0  0  # atno 8008 bound_to 7997
  154.9298  140.3038  155.5153 H   0  0  0  0  0  0  0  0  0  0  0  0  # atno 8009 bound_to 7997
  156.2977  140.2325  156.4357 H   0  0  0  0  0  0  0  0  0  0  0  0  # atno 8010 bound_to 7997
  139.6729  144.7124  151.1655 H   0  0  0  0  0  0  0  0  0  0  0  0  # atno 10167 bound_to 10162
  157.4446  130.8102  149.7728 H   0  0  0  0  0  0  0  0  0  0  0  0  # atno 10718 bound_to 10713
  153.0552  135.6535  154.0596 H   0  0  0  0  0  0  0  0  0  0  0  0  # atno 10763 bound_to 10752
  154.0275  135.2914  155.3374 H   0  0  0  0  0  0  0  0  0  0  0  0  # atno 10764 bound_to 10752
  154.6862  135.5300  153.8397 H   0  0  0  0  0  0  0  0  0  0  0  0  # atno 10765 bound_to 10752
  141.0938  133.9008  157.2012 H   0  0  0  0  0  0  0  0  0  0  0  0  # atno 11005 bound_to 11000
  144.7425  140.4979  143.6859 LP  0  0  0  0  0  0  0  0  0  0  0  0  # atno 17320 bound_to 7965
  145.5874  139.1493  143.3201 LP  0  0  0  0  0  0  0  0  0  0  0  0  # atno 17321 bound_to 7965
  140.7625  143.5816  150.8889 LP  0  0  0  0  0  0  0  0  0  0  0  0  # atno 17342 bound_to 10162
  139.9483  143.6302  152.3036 LP  0  0  0  0  0  0  0  0  0  0  0  0  # atno 17343 bound_to 10162
  155.9962  130.3907  150.2788 LP  0  0  0  0  0  0  0  0  0  0  0  0  # atno 17370 bound_to 10713
  157.0955  131.0181  151.3105 LP  0  0  0  0  0  0  0  0  0  0  0  0  # atno 17371 bound_to 10713
  139.9770  135.0111  156.9655 LP  0  0  0  0  0  0  0  0  0  0  0  0  # atno 17394 bound_to 11000
  140.5189  134.0927  155.7287 LP  0  0  0  0  0  0  0  0  0  0  0  0  # atno 17395 bound_to 11000

$$$$
