AV-unprocessed.smi:703|AV-procd|sdf|3431|dock10
  -GOLD-   22720 0413D 1   1.00000     0.00000
 Structure written by MMmdl.
 38 39  0  0  0  0  0  0  0  0  2 V2000
  145.3966  135.7057  151.0571 C   0  0  0  0  0  0  0  0  0  0  0  0
  144.4408  136.8567  151.3988 C   0  0  0  0  0  0  0  0  0  0  0  0
  145.1080  137.9283  152.1751 N   0  3  2  0  0  0  0  0  0  0  0  0
  146.3863  138.4092  151.6100 C   0  0  0  0  0  0  0  0  0  0  0  0
  147.1685  138.9978  152.7869 C   0  0  1  0  0  0  0  0  0  0  0  0
  146.8180  140.4761  153.0241 C   0  0  0  0  0  0  0  0  0  0  0  0
  146.7496  138.1046  153.9624 C   0  0  2  0  0  0  0  0  0  0  0  0
  147.6912  136.9888  154.1002 N   0  0  0  0  0  0  0  0  0  0  0  0
  149.0054  137.1625  155.2050 S   0  0  0  0  0  0  0  0  0  0  0  0
  148.4314  137.4706  156.5235 O   0  0  0  0  0  0  0  0  0  0  0  0
  149.8863  135.9956  155.0424 O   0  0  0  0  0  0  0  0  0  0  0  0
  149.8783  138.6516  154.5623 C   0  0  0  0  0  0  0  0  0  0  0  0
  151.2984  138.6487  155.0514 C   0  0  0  0  0  0  0  0  0  0  0  0
  151.9656  137.6572  155.8224 C   0  0  0  0  0  0  0  0  0  0  0  0
  153.2237  138.1649  155.9739 C   0  0  0  0  0  0  0  0  0  0  0  0
  153.3281  139.3681  155.3554 O   0  0  0  0  0  0  0  0  0  0  0  0
  152.0930  139.6692  154.7704 N   0  0  0  0  0  0  0  0  0  0  0  0
  145.3439  137.5917  153.5977 C   0  0  0  0  0  0  0  0  0  0  0  0
  144.8961  134.9612  150.4377 H   0  0  0  0  0  0  0  0  0  0  0  0
  145.7530  135.1978  151.9534 H   0  0  0  0  0  0  0  0  0  0  0  0
  146.2656  136.0646  150.5049 H   0  0  0  0  0  0  0  0  0  0  0  0
  144.0633  137.2839  150.4688 H   0  0  0  0  0  0  0  0  0  0  0  0
  143.5746  136.4827  151.9467 H   0  0  0  0  0  0  0  0  0  0  0  0
  146.9411  137.5643  151.1984 H   0  0  0  0  0  0  0  0  0  0  0  0
  146.2292  139.1259  150.8032 H   0  0  0  0  0  0  0  0  0  0  0  0
  148.2419  138.9365  152.5990 H   0  0  0  0  0  0  0  0  0  0  0  0
  145.7531  140.6117  153.2159 H   0  0  0  0  0  0  0  0  0  0  0  0
  147.0807  141.0845  152.1583 H   0  0  0  0  0  0  0  0  0  0  0  0
  147.3626  140.8736  153.8812 H   0  0  0  0  0  0  0  0  0  0  0  0
  146.7399  138.6647  154.8989 H   0  0  0  0  0  0  0  0  0  0  0  0
  148.0260  136.6802  153.1875 H   0  0  0  0  0  0  0  0  0  0  0  0
  149.8316  138.6345  153.4731 H   0  0  0  0  0  0  0  0  0  0  0  0
  149.3487  139.5398  154.9057 H   0  0  0  0  0  0  0  0  0  0  0  0
  151.5834  136.7203  156.1997 H   0  0  0  0  0  0  0  0  0  0  0  0
  154.1136  137.8070  156.4704 H   0  0  0  0  0  0  0  0  0  0  0  0
  144.5826  138.0867  154.2011 H   0  0  0  0  0  0  0  0  0  0  0  0
  145.2469  136.5193  153.7763 H   0  0  0  0  0  0  0  0  0  0  0  0
  144.4854  138.7235  152.1838 H   0  0  0  0  0  0  0  0  0  0  0  0
  1  2  1  0  0  0  0
  1 19  1  0  0  0  0
  1 20  1  0  0  0  0
  1 21  1  0  0  0  0
  2  3  1  0  0  0  0
  2 22  1  0  0  0  0
  2 23  1  0  0  0  0
  3 18  1  0  0  0  0
  3  4  1  0  0  0  0
  3 38  1  0  0  0  0
  4  5  1  0  0  0  0
  4 24  1  0  0  0  0
  4 25  1  0  0  0  0
  5  6  1  0  0  0  0
  5  7  1  0  0  0  0
  5 26  1  0  0  0  0
  6 27  1  0  0  0  0
  6 28  1  0  0  0  0
  6 29  1  0  0  0  0
  7  8  1  0  0  0  0
  7 18  1  0  0  0  0
  7 30  1  0  0  0  0
  8  9  1  0  0  0  0
  8 31  1  0  0  0  0
  9 10  2  0  0  0  0
  9 11  2  0  0  0  0
  9 12  1  0  0  0  0
 12 13  1  0  0  0  0
 12 32  1  0  0  0  0
 12 33  1  0  0  0  0
 13 17  2  0  0  0  0
 13 14  1  0  0  0  0
 14 15  2  0  0  0  0
 14 34  1  0  0  0  0
 15 16  1  0  0  0  0
 15 35  1  0  0  0  0
 16 17  1  0  0  0  0
 18 36  1  0  0  0  0
 18 37  1  0  0  0  0
M  CHG  1   3   1
M  END
> <s_m_source_file>
AV-unprocessed.smi

> <i_m_source_file_index>
703

> <i_lp_mmshare_version>
43012

> <i_f3d_flags>
0

> <s_epik_input>
W0NIM11bQ0gyXU4xW0NIMl1bQ0BASF0oW0NIM10pW0NASF0oW0NIMl0xKVtOSF1TKD1PKSg9TylbQ0gyXWMyW2NIXVtjSF1vbjI=

> <s_epik_cmdline>
J2VwaWtfcHl0aG9uJywgJy1waCcsICc3LjAnLCAnLXRuJywgJzgnLCAnLW1hJywgJzIwMCcsICctbWV0YWxfYmluZGluZycsICctaW1hZScsICc8aW5maWxlLm1hZT4nLCAnLW9tYWUnLCAnPG91dGZpbGUubWFlPic=

> <r_epik_Ionization_Penalty>
0.00324529

> <r_epik_Ionization_Penalty_Charging>
0.0019384

> <r_epik_Ionization_Penalty_Neutral>
0.00130689

> <r_epik_State_Penalty>
0.00218682

> <r_epik_Charging_Adjusted_Penalty>
0.00412522

> <i_epik_Tot_Q>
1

> <i_epik_Tot_abs_Q>
1

> <r_epik_Metal_State_Penalty>
0.310831

> <b_epik_Metal_Only>
0

> <s_lp_Force_Field>
OPLS_2005

> <r_lp_Energy>
19.6136

> <b_lp_Chiralities_Consistent>
1

> <s_lp_Variant>
AV-unprocessed.smi:703-6

> <Gold.Version>
5.8.1

> <Gold.Id.Protein>
6NUR|6NUR_protein|mol2

> <Gold.PLP.Fitness>
37.2462

> <Gold.PLP.PLP>
-24.5162

> <Gold.PLP.part.hbond>
-4.9680

> <Gold.PLP.part.metal>
0.0000

> <Gold.PLP.part.buried>
3.7659

> <Gold.PLP.part.nonpolar>
-24.5919

> <Gold.PLP.part.repulsive>
0.2345

> <Gold.PLP.ligand.clash>
0.0000

> <Gold.PLP.ligand.torsion>
0.9806

> <Gold.PLP.Chemscore.Hbond>
4.8480

> <Gold.PLP.Chemscore.CHOScore>
0.0000

> <Gold.PLP.Chemscore.Metal>
0.0000

> <Gold.Chemscore.Hbonds>
donor molecule, donor type, donor heavy atom, donor atom, acceptor molecule, acceptor atom, score
      L1  H     3    38       P1 10175  2.00
      L1  H     8    31       P1  7948  1.00
      P1  H  7989  7998       L1    17  0.85
      P1  H  7997  8010       L1    16  0.96

> <Gold.PLP.Chemscore.Internal.Correction>
0.1471

> <Gold.Rescore>
     Score         DG    S(hbond)    S(metal)    S(lipo)     H(rot)  DE(clash)    DE(int)     intcor
     16.84     -20.99       3.73        0.00      68.61       1.94       1.78       2.38       ----

> <Gold.Chemscore.Fitness>
16.8364

> <Gold.Chemscore.DG>
-20.9922

> <Gold.Chemscore.ZeroCoef>
-5.4800

> <Gold.Chemscore.Hbond>
3.7279

> <Gold.Chemscore.Metal>
0.0000

> <Gold.Chemscore.Lipo>
68.6103

> <Gold.Chemscore.Internal_Hbond>
0.0000

> <Gold.Chemscore.DEClash>
1.7753

> <Gold.Chemscore.DEInternal>
2.3805

> <Gold.Chemscore.Rot>
1.9400

> <Gold.Chemscore.Internal.Correction>
   9.000000E+99

> <Gold.Chemscore.Hbonds>
donor molecule, donor type, donor heavy atom, donor atom, acceptor molecule, acceptor atom, score
      L1  H     3    38       P1 10175  1.00
      L1  H     8    31       P1  7948  1.00
      P1  H  7989  7998       L1    17  0.82
      P1  H  7997  8010       L1    16  0.80

> <Gold.Chemscore.Hbond.Weighted>
-12.4512

> <Gold.Chemscore.Metal.Weighted>
-0.0000

> <Gold.Chemscore.Lipo.Weighted>
-8.0274

> <Gold.Chemscore.Internal_Hbond.Weighted>
0.0000

> <Gold.Chemscore.DEClash.Weighted>
1.7753

> <Gold.Chemscore.DEInternal.Weighted>
2.3805

> <Gold.Chemscore.Rot.Weighted>
4.9665

> <Gold.Chemscore.Internal.Correction.Weighted>
   9.000000E+99

> <Gold.Protein.RotatedTorsions>
[ 6907 6896 6895 6894 ] final   92.12 input  -60.11 | X-H torsion
[ 7974 7965 7964 7962 ] final -153.13 input  175.53 | X-H torsion
[ 8008 7997 7996 7995 ] final  110.87 input   59.86 | X-H torsion
[ 10167 10162 10161 10158 ] final -113.15 input  -65.29 | X-H torsion
[ 10718 10713 10712 10709 ] final  175.02 input   66.30 | X-H torsion
[ 10763 10752 10751 10750 ] final -110.96 input  -60.55 | X-H torsion
[ 11005 11000 10999 10996 ] final   87.55 input  -57.11 | X-H torsion

> <Gold.Protein.ActiveResidues>
 VAL166  LYS551  ARG553  GLY616  TRP617  ASP618  TYR619  PRO620  LYS621  CYS622 
 ASP623  PHE694  ASN695  SER759  ASP760  ASP761  ALA762  ILE779  LEU786  VAL792 
 PHE793  MET794  SER795  GLU796  ALA797  LYS798  CYS799  TRP800  GLU811  SER814 

> <Gold.Protein.RotatedAtoms>
  152.5452  134.1551  159.8534 H   0  0  0  0  0  0  0  0  0  0  0  0  # atno 6907 bound_to 6896
  151.1574  133.4860  159.2602 H   0  0  0  0  0  0  0  0  0  0  0  0  # atno 6908 bound_to 6896
  151.1408  135.0189  159.8680 H   0  0  0  0  0  0  0  0  0  0  0  0  # atno 6909 bound_to 6896
  144.7757  140.4568  143.5875 H   0  0  0  0  0  0  0  0  0  0  0  0  # atno 7974 bound_to 7965
  156.2083  140.3030  155.9676 H   0  0  0  0  0  0  0  0  0  0  0  0  # atno 8008 bound_to 7997
  155.2786  140.0437  157.3030 H   0  0  0  0  0  0  0  0  0  0  0  0  # atno 8009 bound_to 7997
  154.5664  140.2335  155.8265 H   0  0  0  0  0  0  0  0  0  0  0  0  # atno 8010 bound_to 7997
  140.1150  143.4493  152.1728 H   0  0  0  0  0  0  0  0  0  0  0  0  # atno 10167 bound_to 10162
  156.9410  131.0001  151.2968 H   0  0  0  0  0  0  0  0  0  0  0  0  # atno 10718 bound_to 10713
  154.8275  135.4545  154.0965 H   0  0  0  0  0  0  0  0  0  0  0  0  # atno 10763 bound_to 10752
  153.2267  135.6900  153.7944 H   0  0  0  0  0  0  0  0  0  0  0  0  # atno 10764 bound_to 10752
  153.7341  135.3322  155.3268 H   0  0  0  0  0  0  0  0  0  0  0  0  # atno 10765 bound_to 10752
  139.8917  134.8430  156.2876 H   0  0  0  0  0  0  0  0  0  0  0  0  # atno 11005 bound_to 11000
  145.6194  139.1522  143.3031 LP  0  0  0  0  0  0  0  0  0  0  0  0  # atno 17320 bound_to 7965
  146.1934  140.6305  142.9135 LP  0  0  0  0  0  0  0  0  0  0  0  0  # atno 17321 bound_to 7965
  139.5599  144.7398  151.4186 LP  0  0  0  0  0  0  0  0  0  0  0  0  # atno 17342 bound_to 10162
  140.6904  143.7874  150.7247 LP  0  0  0  0  0  0  0  0  0  0  0  0  # atno 17343 bound_to 10162
  157.5785  130.8360  149.8489 LP  0  0  0  0  0  0  0  0  0  0  0  0  # atno 17370 bound_to 10713
  156.0404  130.3740  150.1449 LP  0  0  0  0  0  0  0  0  0  0  0  0  # atno 17371 bound_to 10713
  140.9998  133.7158  156.0942 LP  0  0  0  0  0  0  0  0  0  0  0  0  # atno 17394 bound_to 11000
  140.7514  134.4041  157.5541 LP  0  0  0  0  0  0  0  0  0  0  0  0  # atno 17395 bound_to 11000

$$$$
