AV-unprocessed.smi:3264|AV-procd|sdf|12494|dock5
  -GOLD-   2272018393D 1   1.00000     0.00000
 Structure written by MMmdl.
 32 33  0  0  0  0  0  0  0  0  1 V2000
  146.8124  138.7899  152.5553 C   0  0  0  0  0  0  0  0  0  0  0  0
  147.5346  139.7718  153.4126 C   0  0  0  0  0  0  0  0  0  0  0  0
  148.6392  139.4756  154.1020 N   0  0  0  0  0  0  0  0  0  0  0  0
  149.1306  140.5666  154.8262 C   0  0  0  0  0  0  0  0  0  0  0  0
  150.3694  140.4172  155.6563 C   0  0  0  0  0  0  0  0  0  0  0  0
  150.0659  140.4510  157.1634 C   0  0  0  0  0  0  0  0  0  0  0  0
  150.8747  141.4492  157.8535 N   0  0  0  0  0  0  0  0  0  0  0  0
  152.1579  141.2902  158.2116 C   0  0  0  0  0  0  0  0  0  0  0  0
  152.7968  140.2599  157.9943 O   0  0  0  0  0  0  0  0  0  0  0  0
  152.8121  142.4731  158.9347 C   0  0  2  0  0  0  0  0  0  0  0  0
  153.3938  142.1251  160.3185 C   0  0  0  0  0  0  0  0  0  0  0  0
  152.5109  142.8901  161.2861 C   0  0  0  0  0  0  0  0  0  0  0  0
  152.0479  144.0622  160.4331 C   0  0  0  0  0  0  0  0  0  0  0  0
  151.8095  143.4587  159.1720 O   0  0  0  0  0  0  0  0  0  0  0  0
  148.3762  141.7027  154.6715 C   0  0  0  0  0  0  0  0  0  0  0  0
  147.0193  141.4423  153.6101 S   0  0  0  0  0  0  0  0  0  0  0  0
  146.9314  137.7801  152.9494 H   0  0  0  0  0  0  0  0  0  0  0  0
  147.2087  138.8206  151.5406 H   0  0  0  0  0  0  0  0  0  0  0  0
  145.7493  139.0286  152.5242 H   0  0  0  0  0  0  0  0  0  0  0  0
  150.8704  139.4821  155.4031 H   0  0  0  0  0  0  0  0  0  0  0  0
  151.0773  141.2098  155.4104 H   0  0  0  0  0  0  0  0  0  0  0  0
  149.0165  140.6990  157.3257 H   0  0  0  0  0  0  0  0  0  0  0  0
  150.2245  139.4670  157.6080 H   0  0  0  0  0  0  0  0  0  0  0  0
  150.4249  142.3245  158.0801 H   0  0  0  0  0  0  0  0  0  0  0  0
  153.5943  142.9091  158.3110 H   0  0  0  0  0  0  0  0  0  0  0  0
  153.4116  141.0575  160.5418 H   0  0  0  0  0  0  0  0  0  0  0  0
  154.4207  142.4863  160.3854 H   0  0  0  0  0  0  0  0  0  0  0  0
  151.6548  142.2789  161.5751 H   0  0  0  0  0  0  0  0  0  0  0  0
  153.0339  143.1998  162.1912 H   0  0  0  0  0  0  0  0  0  0  0  0
  151.1519  144.5437  160.8251 H   0  0  0  0  0  0  0  0  0  0  0  0
  152.8341  144.8128  160.3388 H   0  0  0  0  0  0  0  0  0  0  0  0
  148.5373  142.6746  155.1143 H   0  0  0  0  0  0  0  0  0  0  0  0
  1  2  1  0  0  0  0
  1 17  1  0  0  0  0
  1 18  1  0  0  0  0
  1 19  1  0  0  0  0
  2 16  1  0  0  0  0
  2  3  2  0  0  0  0
  3  4  1  0  0  0  0
  4  5  1  0  0  0  0
  4 15  2  0  0  0  0
  5  6  1  0  0  0  0
  5 20  1  0  0  0  0
  5 21  1  0  0  0  0
  6  7  1  0  0  0  0
  6 22  1  0  0  0  0
  6 23  1  0  0  0  0
  7  8  1  0  0  0  0
  7 24  1  0  0  0  0
  8  9  2  0  0  0  0
  8 10  1  0  0  0  0
 10 14  1  0  0  0  0
 10 11  1  0  0  0  0
 10 25  1  0  0  0  0
 11 12  1  0  0  0  0
 11 26  1  0  0  0  0
 11 27  1  0  0  0  0
 12 13  1  0  0  0  0
 12 28  1  0  0  0  0
 12 29  1  0  0  0  0
 13 14  1  0  0  0  0
 13 30  1  0  0  0  0
 13 31  1  0  0  0  0
 15 16  1  0  0  0  0
 15 32  1  0  0  0  0
M  END
> <s_m_source_file>
AV-unprocessed.smi

> <i_m_source_file_index>
3264

> <i_lp_mmshare_version>
43012

> <i_f3d_flags>
0

> <s_epik_input>
W0NIM11jMW5jKFtjSF1zMSlbQ0gyXVtDSDJdW05IXUMoPU8pW0NAQEhdMltDSDJdW0NIMl1bQ0gyXU8y

> <s_epik_cmdline>
J2VwaWtfcHl0aG9uJywgJy1waCcsICc3LjAnLCAnLXRuJywgJzgnLCAnLW1hJywgJzIwMCcsICctbWV0YWxfYmluZGluZycsICctaW1hZScsICc8aW5maWxlLm1hZT4nLCAnLW9tYWUnLCAnPG91dGZpbGUubWFlPic=

> <r_epik_Ionization_Penalty>
0.00112246

> <r_epik_Ionization_Penalty_Charging>
0

> <r_epik_Ionization_Penalty_Neutral>
0.00112246

> <r_epik_State_Penalty>
0.000737392

> <r_epik_Charging_Adjusted_Penalty>
0.000737392

> <i_epik_Tot_Q>
0

> <i_epik_Tot_abs_Q>
0

> <r_epik_Metal_State_Penalty>
-0

> <b_epik_Metal_Only>
0

> <s_lp_Force_Field>
OPLS_2005

> <r_lp_Energy>
12.7546

> <b_lp_Chiralities_Consistent>
1

> <s_lp_Variant>
AV-unprocessed.smi:3264-1

> <Gold.Version>
5.8.1

> <Gold.Id.Protein>
6NUR|6NUR_protein|mol2

> <Gold.PLP.Fitness>
39.2336

> <Gold.PLP.PLP>
-34.6385

> <Gold.PLP.part.hbond>
-1.0000

> <Gold.PLP.part.metal>
0.0000

> <Gold.PLP.part.buried>
-3.4984

> <Gold.PLP.part.nonpolar>
-29.7866

> <Gold.PLP.part.repulsive>
0.2281

> <Gold.PLP.ligand.clash>
0.0000

> <Gold.PLP.ligand.torsion>
0.6490

> <Gold.PLP.Chemscore.Hbond>
0.9600

> <Gold.PLP.Chemscore.CHOScore>
1.0000

> <Gold.PLP.Chemscore.Metal>
0.0000

> <Gold.Chemscore.Hbonds>
donor molecule, donor type, donor heavy atom, donor atom, acceptor molecule, acceptor atom, score
      P1  H  7997  8008       L1     9  0.96
      L1  C    15    32       P1  8028  1.00

> <Gold.PLP.Chemscore.Internal.Correction>
0.0131

> <Gold.Rescore>
     Score         DG    S(hbond)    S(metal)    S(lipo)     H(rot)  DE(clash)    DE(int)     intcor
     14.87     -15.51       0.91        0.00      92.82       1.52       0.05       0.59       ----

> <Gold.Chemscore.Fitness>
14.8702

> <Gold.Chemscore.DG>
-15.5115

> <Gold.Chemscore.ZeroCoef>
-5.4800

> <Gold.Chemscore.Hbond>
0.9138

> <Gold.Chemscore.Metal>
0.0000

> <Gold.Chemscore.Lipo>
92.8225

> <Gold.Chemscore.Internal_Hbond>
0.0000

> <Gold.Chemscore.DEClash>
0.0515

> <Gold.Chemscore.DEInternal>
0.5898

> <Gold.Chemscore.Rot>
1.5159

> <Gold.Chemscore.Internal.Correction>
   9.000000E+99

> <Gold.Chemscore.Hbonds>
donor molecule, donor type, donor heavy atom, donor atom, acceptor molecule, acceptor atom, score
      P1  H  7997  8008       L1     9  0.86

> <Gold.Chemscore.Hbond.Weighted>
-3.0520

> <Gold.Chemscore.Metal.Weighted>
-0.0000

> <Gold.Chemscore.Lipo.Weighted>
-10.8602

> <Gold.Chemscore.Internal_Hbond.Weighted>
0.0000

> <Gold.Chemscore.DEClash.Weighted>
0.0515

> <Gold.Chemscore.DEInternal.Weighted>
0.5898

> <Gold.Chemscore.Rot.Weighted>
3.8807

> <Gold.Chemscore.Internal.Correction.Weighted>
   9.000000E+99

> <Gold.Protein.RotatedTorsions>
[ 6907 6896 6895 6894 ] final -179.43 input  -60.11 | X-H torsion
[ 7974 7965 7964 7962 ] final   12.53 input  175.53 | X-H torsion
[ 8008 7997 7996 7995 ] final  -74.94 input   59.86 | X-H torsion
[ 10167 10162 10161 10158 ] final  167.17 input  -65.29 | X-H torsion
[ 10718 10713 10712 10709 ] final   -0.10 input   66.30 | X-H torsion
[ 10763 10752 10751 10750 ] final  173.63 input  -60.55 | X-H torsion
[ 11005 11000 10999 10996 ] final  -46.36 input  -57.11 | X-H torsion

> <Gold.Protein.ActiveResidues>
 VAL166  LYS551  ARG553  GLY616  TRP617  ASP618  TYR619  PRO620  LYS621  CYS622 
 ASP623  PHE694  ASN695  SER759  ASP760  ASP761  ALA762  ILE779  LEU786  VAL792 
 PHE793  MET794  SER795  GLU796  ALA797  LYS798  CYS799  TRP800  GLU811  SER814 

> <Gold.Protein.RotatedAtoms>
  151.6533  133.3320  159.3156 H   0  0  0  0  0  0  0  0  0  0  0  0  # atno 6907 bound_to 6896
  150.7949  134.7006  159.6557 H   0  0  0  0  0  0  0  0  0  0  0  0  # atno 6908 bound_to 6896
  152.4035  134.6250  160.0112 H   0  0  0  0  0  0  0  0  0  0  0  0  # atno 6909 bound_to 6896
  146.2349  139.9324  142.8494 H   0  0  0  0  0  0  0  0  0  0  0  0  # atno 7974 bound_to 7965
  154.5373  140.0753  156.8450 H   0  0  0  0  0  0  0  0  0  0  0  0  # atno 8008 bound_to 7997
  155.3251  140.3398  155.4222 H   0  0  0  0  0  0  0  0  0  0  0  0  # atno 8009 bound_to 7997
  156.1841  140.1662  156.8206 H   0  0  0  0  0  0  0  0  0  0  0  0  # atno 8010 bound_to 7997
  139.4939  144.3950  151.9474 H   0  0  0  0  0  0  0  0  0  0  0  0  # atno 10167 bound_to 10162
  156.8254  130.5470  149.5692 H   0  0  0  0  0  0  0  0  0  0  0  0  # atno 10718 bound_to 10713
  154.4428  135.2762  155.1836 H   0  0  0  0  0  0  0  0  0  0  0  0  # atno 10763 bound_to 10752
  154.3695  135.6112  153.5736 H   0  0  0  0  0  0  0  0  0  0  0  0  # atno 10764 bound_to 10752
  152.9842  135.5854  154.4758 H   0  0  0  0  0  0  0  0  0  0  0  0  # atno 10765 bound_to 10752
  141.0574  133.6721  156.3144 H   0  0  0  0  0  0  0  0  0  0  0  0  # atno 11005 bound_to 11000
  145.2032  140.9863  143.4144 LP  0  0  0  0  0  0  0  0  0  0  0  0  # atno 17320 bound_to 7965
  144.9755  139.3836  143.6287 LP  0  0  0  0  0  0  0  0  0  0  0  0  # atno 17321 bound_to 7965
  140.3388  144.3228  150.5971 LP  0  0  0  0  0  0  0  0  0  0  0  0  # atno 17342 bound_to 10162
  140.5583  143.2196  151.7809 LP  0  0  0  0  0  0  0  0  0  0  0  0  # atno 17343 bound_to 10162
  156.0964  130.5936  150.9821 LP  0  0  0  0  0  0  0  0  0  0  0  0  # atno 17370 bound_to 10713
  157.6435  131.0907  150.8203 LP  0  0  0  0  0  0  0  0  0  0  0  0  # atno 17371 bound_to 10713
  140.5937  134.5625  157.5504 LP  0  0  0  0  0  0  0  0  0  0  0  0  # atno 17394 bound_to 11000
  139.9402  134.7801  156.0698 LP  0  0  0  0  0  0  0  0  0  0  0  0  # atno 17395 bound_to 11000

$$$$
