AV-unprocessed.smi:1010|AV-procd|sdf|4418|dock2
  -GOLD-   22720 2363D 1   1.00000     0.00000
 Structure written by MMmdl.
 55 57  0  0  0  0  0  0  0  0  4 V2000
  145.5747  135.0518  158.6863 C   0  0  0  0  0  0  0  0  0  0  0  0
  146.1549  135.7818  159.8490 N   0  3  0  0  0  0  0  0  0  0  0  0
  145.7805  137.2251  159.7949 C   0  0  0  0  0  0  0  0  0  0  0  0
  147.5751  135.4321  160.2791 C   0  0  0  0  0  0  0  0  0  0  0  0
  148.6736  135.7289  159.1811 C   0  0  0  0  0  0  0  0  0  0  0  0
  148.5231  137.0578  158.5840 N   0  5  0  0  0  0  0  0  0  0  0  0
  149.4829  138.0199  158.5683 C   0  0  0  0  0  0  0  0  0  0  0  0
  150.6729  137.9097  158.8836 O   0  0  0  0  0  0  0  0  0  0  0  0
  149.0020  139.2002  158.1448 N   0  0  0  0  0  0  0  0  0  0  0  0
  149.7298  140.3856  157.8540 C   0  0  0  0  0  0  0  0  0  0  0  0
  150.8838  140.7408  158.5954 C   0  0  0  0  0  0  0  0  0  0  0  0
  151.5583  141.9430  158.3058 C   0  0  0  0  0  0  0  0  0  0  0  0
  151.0611  142.7768  157.2871 C   0  0  0  0  0  0  0  0  0  0  0  0
  149.9505  142.4176  156.6093 N   0  3  0  0  0  0  0  0  0  0  0  0
  149.2673  141.2746  156.8437 C   0  0  0  0  0  0  0  0  0  0  0  0
  148.1342  141.0668  156.0389 N   0  0  0  0  0  0  0  0  0  0  0  0
  146.9707  141.9063  156.3092 C   0  0  0  0  0  0  0  0  0  0  0  0
  146.5580  142.5225  154.9691 C   0  0  0  0  0  0  0  0  0  0  0  0
  147.1008  141.5311  153.9457 C   0  0  0  0  0  0  0  0  0  0  0  0
  148.3860  141.0316  154.6037 C   0  0  0  0  0  0  0  0  0  0  0  0
  147.9235  136.2516  161.5649 C   0  0  0  0  0  0  0  0  0  0  0  0
  147.0140  135.8908  162.7547 C   0  0  0  0  0  0  0  0  0  0  0  0
  147.1511  134.5106  163.0631 O   0  0  0  0  0  0  0  0  0  0  0  0
  146.7817  133.6620  161.9850 C   0  0  0  0  0  0  0  0  0  0  0  0
  147.6734  133.9455  160.7598 C   0  0  0  0  0  0  0  0  0  0  0  0
  146.0181  135.3592  157.7411 H   0  0  0  0  0  0  0  0  0  0  0  0
  144.5073  135.2631  158.6161 H   0  0  0  0  0  0  0  0  0  0  0  0
  145.6575  133.9708  158.7734 H   0  0  0  0  0  0  0  0  0  0  0  0
  146.2201  137.7257  158.9314 H   0  0  0  0  0  0  0  0  0  0  0  0
  146.0666  137.7719  160.6906 H   0  0  0  0  0  0  0  0  0  0  0  0
  144.6985  137.3254  159.7064 H   0  0  0  0  0  0  0  0  0  0  0  0
  149.6577  135.5810  159.6277 H   0  0  0  0  0  0  0  0  0  0  0  0
  148.6069  134.9643  158.4068 H   0  0  0  0  0  0  0  0  0  0  0  0
  148.0439  139.1846  157.8269 H   0  0  0  0  0  0  0  0  0  0  0  0
  151.2506  140.1103  159.3918 H   0  0  0  0  0  0  0  0  0  0  0  0
  152.4405  142.2234  158.8623 H   0  0  0  0  0  0  0  0  0  0  0  0
  151.5111  143.7159  156.9994 H   0  0  0  0  0  0  0  0  0  0  0  0
  146.1747  141.2643  156.6870 H   0  0  0  0  0  0  0  0  0  0  0  0
  147.1571  142.6706  157.0647 H   0  0  0  0  0  0  0  0  0  0  0  0
  145.4819  142.6754  154.8867 H   0  0  0  0  0  0  0  0  0  0  0  0
  147.0437  143.4898  154.8368 H   0  0  0  0  0  0  0  0  0  0  0  0
  146.3994  140.7044  153.8254 H   0  0  0  0  0  0  0  0  0  0  0  0
  147.2706  141.9775  152.9656 H   0  0  0  0  0  0  0  0  0  0  0  0
  149.2231  141.6793  154.3407 H   0  0  0  0  0  0  0  0  0  0  0  0
  148.6327  140.0210  154.2775 H   0  0  0  0  0  0  0  0  0  0  0  0
  148.9484  136.0524  161.8898 H   0  0  0  0  0  0  0  0  0  0  0  0
  147.8885  137.3288  161.4010 H   0  0  0  0  0  0  0  0  0  0  0  0
  147.3032  136.4702  163.6317 H   0  0  0  0  0  0  0  0  0  0  0  0
  145.9702  136.1318  162.5502 H   0  0  0  0  0  0  0  0  0  0  0  0
  146.9058  132.6265  162.3024 H   0  0  0  0  0  0  0  0  0  0  0  0
  145.7244  133.7933  161.7530 H   0  0  0  0  0  0  0  0  0  0  0  0
  147.4424  133.2327  159.9671 H   0  0  0  0  0  0  0  0  0  0  0  0
  148.6974  133.7046  161.0569 H   0  0  0  0  0  0  0  0  0  0  0  0
  145.6101  135.4303  160.6229 H   0  0  0  0  0  0  0  0  0  0  0  0
  149.6087  143.0411  155.8777 H   0  0  0  0  0  0  0  0  0  0  0  0
  1  2  1  0  0  0  0
  1 26  1  0  0  0  0
  1 27  1  0  0  0  0
  1 28  1  0  0  0  0
  2  3  1  0  0  0  0
  2  4  1  0  0  0  0
  2 54  1  0  0  0  0
  3 29  1  0  0  0  0
  3 30  1  0  0  0  0
  3 31  1  0  0  0  0
  4 25  1  0  0  0  0
  4  5  1  0  0  0  0
  4 21  1  0  0  0  0
  5  6  1  0  0  0  0
  5 32  1  0  0  0  0
  5 33  1  0  0  0  0
  6  7  1  0  0  0  0
  7  8  2  0  0  0  0
  7  9  1  0  0  0  0
  9 10  1  0  0  0  0
  9 34  1  0  0  0  0
 10 15  1  0  0  0  0
 10 11  2  0  0  0  0
 11 12  1  0  0  0  0
 11 35  1  0  0  0  0
 12 13  2  0  0  0  0
 12 36  1  0  0  0  0
 13 14  1  0  0  0  0
 13 37  1  0  0  0  0
 14 15  2  0  0  0  0
 14 55  1  0  0  0  0
 15 16  1  0  0  0  0
 16 20  1  0  0  0  0
 16 17  1  0  0  0  0
 17 18  1  0  0  0  0
 17 38  1  0  0  0  0
 17 39  1  0  0  0  0
 18 19  1  0  0  0  0
 18 40  1  0  0  0  0
 18 41  1  0  0  0  0
 19 20  1  0  0  0  0
 19 42  1  0  0  0  0
 19 43  1  0  0  0  0
 20 44  1  0  0  0  0
 20 45  1  0  0  0  0
 21 22  1  0  0  0  0
 21 46  1  0  0  0  0
 21 47  1  0  0  0  0
 22 23  1  0  0  0  0
 22 48  1  0  0  0  0
 22 49  1  0  0  0  0
 23 24  1  0  0  0  0
 24 25  1  0  0  0  0
 24 50  1  0  0  0  0
 24 51  1  0  0  0  0
 25 52  1  0  0  0  0
 25 53  1  0  0  0  0
M  CHG  1   2   1
M  CHG  1   6  -1
M  CHG  1  14   1
M  END
> <s_m_source_file>
AV-unprocessed.smi

> <i_m_source_file_index>
1010

> <i_lp_mmshare_version>
43012

> <i_f3d_flags>
0

> <s_epik_input>
W0NIMl0xW0NIMl1PW0NIMl1bQ0gyXUMxKE4oW0NIM10pW0NIM10pW0NIMl1bTkhdQyg9TylbTkhdYzJbY0hdW2NIXVtjSF1uYzJOM1tDSDJdW0NIMl1bQ0gyXVtDSDJdMw==

> <s_epik_cmdline>
J2VwaWtfcHl0aG9uJywgJy1waCcsICc3LjAnLCAnLXRuJywgJzgnLCAnLW1hJywgJzIwMCcsICctbWV0YWxfYmluZGluZycsICctaW1hZScsICc8aW5maWxlLm1hZT4nLCAnLW9tYWUnLCAnPG91dGZpbGUubWFlPic=

> <r_lp_tautomer_probability>
0.999994

> <r_epik_Ionization_Penalty>
8.43521

> <r_epik_Ionization_Penalty_Charging>
8.43521

> <r_epik_Ionization_Penalty_Neutral>
3.38325e-06

> <r_epik_State_Penalty>
7.95094

> <r_epik_Charging_Adjusted_Penalty>
16.3861

> <i_epik_Tot_Q>
1

> <i_epik_Tot_abs_Q>
3

> <r_epik_Metal_State_Penalty>
3.94206

> <b_epik_Metal_Only>
1

> <s_lp_Force_Field>
OPLS_2005

> <r_lp_Energy>
62.009

> <b_lp_Chiralities_Consistent>
1

> <s_lp_Variant>
AV-unprocessed.smi:1010-4

> <Gold.Version>
5.8.1

> <Gold.Id.Protein>
6NUR|6NUR_protein|mol2

> <Gold.PLP.Fitness>
41.9196

> <Gold.PLP.PLP>
-37.3345

> <Gold.PLP.part.hbond>
-1.5764

> <Gold.PLP.part.metal>
0.0000

> <Gold.PLP.part.buried>
-6.5982

> <Gold.PLP.part.nonpolar>
-30.0352

> <Gold.PLP.part.repulsive>
0.3458

> <Gold.PLP.ligand.clash>
0.0000

> <Gold.PLP.ligand.torsion>
0.6716

> <Gold.PLP.Chemscore.Hbond>
1.7920

> <Gold.PLP.Chemscore.CHOScore>
0.0000

> <Gold.PLP.Chemscore.Metal>
0.0000

> <Gold.Chemscore.Hbonds>
donor molecule, donor type, donor heavy atom, donor atom, acceptor molecule, acceptor atom, score
      L1  H    14    55       P1  8028  1.63

> <Gold.PLP.Chemscore.Internal.Correction>
0.5523

> <Gold.Rescore>
     Score         DG    S(hbond)    S(metal)    S(lipo)     H(rot)  DE(clash)    DE(int)     intcor
     12.97     -15.27       0.97        0.00      91.13       1.60       0.09       2.21       ----

> <Gold.Chemscore.Fitness>
12.9711

> <Gold.Chemscore.DG>
-15.2698

> <Gold.Chemscore.ZeroCoef>
-5.4800

> <Gold.Chemscore.Hbond>
0.9676

> <Gold.Chemscore.Metal>
0.0000

> <Gold.Chemscore.Lipo>
91.1332

> <Gold.Chemscore.Internal_Hbond>
0.0000

> <Gold.Chemscore.DEClash>
0.0929

> <Gold.Chemscore.DEInternal>
2.2058

> <Gold.Chemscore.Rot>
1.6033

> <Gold.Chemscore.Internal.Correction>
   9.000000E+99

> <Gold.Chemscore.Hbonds>
donor molecule, donor type, donor heavy atom, donor atom, acceptor molecule, acceptor atom, score
      L1  H    14    55       P1  8028  0.81

> <Gold.Chemscore.Hbond.Weighted>
-3.2318

> <Gold.Chemscore.Metal.Weighted>
-0.0000

> <Gold.Chemscore.Lipo.Weighted>
-10.6626

> <Gold.Chemscore.Internal_Hbond.Weighted>
0.0000

> <Gold.Chemscore.DEClash.Weighted>
0.0929

> <Gold.Chemscore.DEInternal.Weighted>
2.2058

> <Gold.Chemscore.Rot.Weighted>
4.1046

> <Gold.Chemscore.Internal.Correction.Weighted>
   9.000000E+99

> <Gold.Protein.RotatedTorsions>
[ 6907 6896 6895 6894 ] final  -64.47 input  -60.11 | X-H torsion
[ 7974 7965 7964 7962 ] final  -26.26 input  175.53 | X-H torsion
[ 8008 7997 7996 7995 ] final  -16.88 input   59.86 | X-H torsion
[ 10167 10162 10161 10158 ] final -179.76 input  -65.29 | X-H torsion
[ 10718 10713 10712 10709 ] final   51.39 input   66.30 | X-H torsion
[ 10763 10752 10751 10750 ] final   93.93 input  -60.55 | X-H torsion
[ 11005 11000 10999 10996 ] final    9.81 input  -57.11 | X-H torsion

> <Gold.Protein.ActiveResidues>
 VAL166  LYS551  ARG553  GLY616  TRP617  ASP618  TYR619  PRO620  LYS621  CYS622 
 ASP623  PHE694  ASN695  SER759  ASP760  ASP761  ALA762  ILE779  LEU786  VAL792 
 PHE793  MET794  SER795  GLU796  ALA797  LYS798  CYS799  TRP800  GLU811  SER814 

> <Gold.Protein.RotatedAtoms>
  150.7583  134.6294  159.6177 H   0  0  0  0  0  0  0  0  0  0  0  0  # atno 6907 bound_to 6896
  152.3576  134.6914  160.0226 H   0  0  0  0  0  0  0  0  0  0  0  0  # atno 6908 bound_to 6896
  151.7315  133.3282  159.3378 H   0  0  0  0  0  0  0  0  0  0  0  0  # atno 6909 bound_to 6896
  146.1437  140.4996  142.8641 H   0  0  0  0  0  0  0  0  0  0  0  0  # atno 7974 bound_to 7965
  154.5020  140.2157  155.9328 H   0  0  0  0  0  0  0  0  0  0  0  0  # atno 8008 bound_to 7997
  156.1445  140.3173  155.8516 H   0  0  0  0  0  0  0  0  0  0  0  0  # atno 8009 bound_to 7997
  155.4057  140.0487  157.3025 H   0  0  0  0  0  0  0  0  0  0  0  0  # atno 8010 bound_to 7997
  139.5372  144.2465  152.0819 H   0  0  0  0  0  0  0  0  0  0  0  0  # atno 10167 bound_to 10162
  157.4976  130.8417  149.8278 H   0  0  0  0  0  0  0  0  0  0  0  0  # atno 10718 bound_to 10713
  153.2359  135.4308  155.0646 H   0  0  0  0  0  0  0  0  0  0  0  0  # atno 10763 bound_to 10752
  154.8318  135.3391  154.6720 H   0  0  0  0  0  0  0  0  0  0  0  0  # atno 10764 bound_to 10752
  153.7145  135.7021  153.5085 H   0  0  0  0  0  0  0  0  0  0  0  0  # atno 10765 bound_to 10752
  140.5216  134.0554  155.7846 H   0  0  0  0  0  0  0  0  0  0  0  0  # atno 11005 bound_to 11000
  144.7821  140.5862  143.6598 LP  0  0  0  0  0  0  0  0  0  0  0  0  # atno 17320 bound_to 7965
  145.4988  139.1484  143.3669 LP  0  0  0  0  0  0  0  0  0  0  0  0  # atno 17321 bound_to 7965
  140.1937  144.4726  150.6466 LP  0  0  0  0  0  0  0  0  0  0  0  0  # atno 17342 bound_to 10162
  140.6584  143.2244  151.5914 LP  0  0  0  0  0  0  0  0  0  0  0  0  # atno 17343 bound_to 10162
  156.0210  130.3795  150.1962 LP  0  0  0  0  0  0  0  0  0  0  0  0  # atno 17370 bound_to 10713
  157.0152  130.9963  151.3355 LP  0  0  0  0  0  0  0  0  0  0  0  0  # atno 17371 bound_to 10713
  141.1331  133.9268  157.2492 LP  0  0  0  0  0  0  0  0  0  0  0  0  # atno 17394 bound_to 11000
  139.9603  135.0156  156.9242 LP  0  0  0  0  0  0  0  0  0  0  0  0  # atno 17395 bound_to 11000

$$$$
