AV-unprocessed.smi:261|AV-procd|sdf|1984|dock5
  -GOLD-   2262021163D 1   1.00000     0.00000
 Structure written by MMmdl.
 51 54  0  0  0  0  0  0  0  0  1 V2000
  142.5743  146.6731  154.0423 C   0  0  0  0  0  0  0  0  0  0  0  0
  143.8405  146.0616  153.8578 O   0  0  0  0  0  0  0  0  0  0  0  0
  143.8876  144.7122  154.2977 C   0  0  2  0  0  0  0  0  0  0  0  0
  143.9065  144.5691  155.8227 C   0  0  0  0  0  0  0  0  0  0  0  0
  144.5848  143.2111  156.0712 C   0  0  1  0  0  0  0  0  0  0  0  0
  143.5606  142.0648  156.1477 C   0  0  0  0  0  0  0  0  0  0  0  0
  143.5756  141.1798  155.1484 N   0  0  0  0  0  0  0  0  0  0  0  0
  142.7797  141.9678  157.0930 O   0  0  0  0  0  0  0  0  0  0  0  0
  145.4824  143.0674  154.9220 N   0  0  0  0  0  0  0  0  0  0  0  0
  146.5878  142.2721  154.9247 C   0  0  0  0  0  0  0  0  0  0  0  0
  146.9505  141.6678  153.7618 N   0  0  0  0  0  0  0  0  0  0  0  0
  148.0285  140.8823  153.7058 C   0  0  0  0  0  0  0  0  0  0  0  0
  148.8785  140.5644  154.6817 N   0  0  0  0  0  0  0  0  0  0  0  0
  148.5268  141.1634  155.8546 C   0  0  0  0  0  0  0  0  0  0  0  0
  147.4092  142.0230  156.0662 C   0  0  0  0  0  0  0  0  0  0  0  0
  147.3893  142.4326  157.3959 N   0  0  0  0  0  0  0  0  0  0  0  0
  148.4317  141.8604  157.9314 C   0  0  0  0  0  0  0  0  0  0  0  0
  149.1758  141.0841  157.0744 N   0  0  0  0  0  0  0  0  0  0  0  0
  150.3846  140.3431  157.3951 C   0  0  0  0  0  0  0  0  0  0  0  0
  151.6482  141.2233  157.5241 C   0  0  2  0  0  0  0  0  0  0  0  0
  152.7845  140.4329  157.8167 O   0  0  0  0  0  0  0  0  0  0  0  0
  151.5330  142.4007  158.5202 C   0  0  2  0  0  0  0  0  0  0  0  0
  152.3324  143.6539  158.1705 C   0  0  0  0  0  0  0  0  0  0  0  0
  152.3344  144.3988  159.4913 C   0  0  0  0  0  0  0  0  0  0  0  0
  152.2461  143.2833  160.5390 C   0  0  0  0  0  0  0  0  0  0  0  0
  151.9899  142.0779  159.8252 O   0  0  0  0  0  0  0  0  0  0  0  0
  145.2045  144.0530  153.8861 C   0  0  0  0  0  0  0  0  0  0  0  0
  143.0581  144.1392  153.8785 H   0  0  0  0  0  0  0  0  0  0  0  0
  145.1507  143.2590  157.0033 H   0  0  0  0  0  0  0  0  0  0  0  0
  142.6013  147.6905  153.6520 H   0  0  0  0  0  0  0  0  0  0  0  0
  142.3058  146.7291  155.0974 H   0  0  0  0  0  0  0  0  0  0  0  0
  141.7923  146.1305  153.5099 H   0  0  0  0  0  0  0  0  0  0  0  0
  144.5174  145.3615  156.2578 H   0  0  0  0  0  0  0  0  0  0  0  0
  142.9122  144.6452  156.2649 H   0  0  0  0  0  0  0  0  0  0  0  0
  142.9304  140.4034  155.1526 H   0  0  0  0  0  0  0  0  0  0  0  0
  144.2394  141.2872  154.3952 H   0  0  0  0  0  0  0  0  0  0  0  0
  148.2405  140.4477  152.7403 H   0  0  0  0  0  0  0  0  0  0  0  0
  148.6913  141.9953  158.9711 H   0  0  0  0  0  0  0  0  0  0  0  0
  150.2126  139.7950  158.3221 H   0  0  0  0  0  0  0  0  0  0  0  0
  150.5411  139.5884  156.6234 H   0  0  0  0  0  0  0  0  0  0  0  0
  151.8355  141.6543  156.5400 H   0  0  0  0  0  0  0  0  0  0  0  0
  152.5786  139.8702  158.5471 H   0  0  0  0  0  0  0  0  0  0  0  0
  150.4803  142.6764  158.6076 H   0  0  0  0  0  0  0  0  0  0  0  0
  153.3559  143.4016  157.8913 H   0  0  0  0  0  0  0  0  0  0  0  0
  151.8882  144.2291  157.3578 H   0  0  0  0  0  0  0  0  0  0  0  0
  153.2186  145.0244  159.6156 H   0  0  0  0  0  0  0  0  0  0  0  0
  151.4555  145.0412  159.5588 H   0  0  0  0  0  0  0  0  0  0  0  0
  153.1745  143.1809  161.1012 H   0  0  0  0  0  0  0  0  0  0  0  0
  151.4401  143.4757  161.2481 H   0  0  0  0  0  0  0  0  0  0  0  0
  145.1177  143.5974  152.8993 H   0  0  0  0  0  0  0  0  0  0  0  0
  146.0139  144.7846  153.8647 H   0  0  0  0  0  0  0  0  0  0  0  0
  1  2  1  0  0  0  0
  1 30  1  0  0  0  0
  1 31  1  0  0  0  0
  1 32  1  0  0  0  0
  2  3  1  0  0  0  0
  3 28  1  0  0  0  0
  3 27  1  0  0  0  0
  3  4  1  0  0  0  0
  4  5  1  0  0  0  0
  4 33  1  0  0  0  0
  4 34  1  0  0  0  0
  5 29  1  0  0  0  0
  5  6  1  0  0  0  0
  5  9  1  0  0  0  0
  6  7  1  0  0  0  0
  6  8  2  0  0  0  0
  7 35  1  0  0  0  0
  7 36  1  0  0  0  0
  9 10  1  0  0  0  0
  9 27  1  0  0  0  0
 10 15  1  0  0  0  0
 10 11  2  0  0  0  0
 11 12  1  0  0  0  0
 12 13  2  0  0  0  0
 12 37  1  0  0  0  0
 13 14  1  0  0  0  0
 14 18  1  0  0  0  0
 14 15  2  0  0  0  0
 15 16  1  0  0  0  0
 16 17  2  0  0  0  0
 17 18  1  0  0  0  0
 17 38  1  0  0  0  0
 18 19  1  0  0  0  0
 19 20  1  0  0  0  0
 19 39  1  0  0  0  0
 19 40  1  0  0  0  0
 20 21  1  0  0  0  0
 20 22  1  0  0  0  0
 20 41  1  0  0  0  0
 21 42  1  0  0  0  0
 22 26  1  0  0  0  0
 22 23  1  0  0  0  0
 22 43  1  0  0  0  0
 23 24  1  0  0  0  0
 23 44  1  0  0  0  0
 23 45  1  0  0  0  0
 24 25  1  0  0  0  0
 24 46  1  0  0  0  0
 24 47  1  0  0  0  0
 25 26  1  0  0  0  0
 25 48  1  0  0  0  0
 25 49  1  0  0  0  0
 27 50  1  0  0  0  0
 27 51  1  0  0  0  0
M  END
> <s_m_source_file>
AV-unprocessed.smi

> <i_m_source_file_index>
261

> <i_lp_mmshare_version>
43012

> <i_f3d_flags>
0

> <s_epik_input>
W0NIM11PW0NASF0xW0NIMl1bQ0BASF0oQyg9TylbTkgyXSlOKFtDSDJdMSljKG5bY0hdbjIpYyhjMjMpbltjSF1uM1tDSDJdW0NASF0oW09IXSlbQ0BASF00W0NIMl1bQ0gyXVtDSDJdTzQ=

> <s_epik_cmdline>
J2VwaWtfcHl0aG9uJywgJy1waCcsICc3LjAnLCAnLXRuJywgJzgnLCAnLW1hJywgJzIwMCcsICctbWV0YWxfYmluZGluZycsICctaW1hZScsICc8aW5maWxlLm1hZT4nLCAnLW9tYWUnLCAnPG91dGZpbGUubWFlPic=

> <r_lp_tautomer_probability>
1

> <r_epik_Ionization_Penalty>
0.000713824

> <r_epik_Ionization_Penalty_Charging>
0

> <r_epik_Ionization_Penalty_Neutral>
0.000713824

> <r_epik_State_Penalty>
0.000402132

> <r_epik_Charging_Adjusted_Penalty>
0.000402132

> <i_epik_Tot_Q>
0

> <i_epik_Tot_abs_Q>
0

> <r_epik_Metal_State_Penalty>
-0

> <b_epik_Metal_Only>
0

> <s_lp_Force_Field>
OPLS_2005

> <r_lp_Energy>
44.2831

> <b_lp_Chiralities_Consistent>
1

> <s_lp_Variant>
AV-unprocessed.smi:261-2

> <Gold.Version>
5.8.1

> <Gold.Id.Protein>
6NUR|6NUR_protein|mol2

> <Gold.PLP.Fitness>
45.4390

> <Gold.PLP.PLP>
-42.3153

> <Gold.PLP.part.hbond>
-3.0000

> <Gold.PLP.part.metal>
0.0000

> <Gold.PLP.part.buried>
-6.0882

> <Gold.PLP.part.nonpolar>
-33.0703

> <Gold.PLP.part.repulsive>
0.5043

> <Gold.PLP.ligand.clash>
0.0000

> <Gold.PLP.ligand.torsion>
1.6903

> <Gold.PLP.Chemscore.Hbond>
1.1113

> <Gold.PLP.Chemscore.CHOScore>
1.0000

> <Gold.PLP.Chemscore.Metal>
0.0000

> <Gold.Chemscore.Hbonds>
donor molecule, donor type, donor heavy atom, donor atom, acceptor molecule, acceptor atom, score
      L1  H     7    36       P1 10175  0.24
      P1  H  7997  8010       L1    21  0.86
      L1  C    12    37       P1  7957  1.00

> <Gold.PLP.Chemscore.Internal.Correction>
0.1705

> <Gold.Rescore>
     Score         DG    S(hbond)    S(metal)    S(lipo)     H(rot)  DE(clash)    DE(int)     intcor
      8.27      -9.89       0.85        0.00      83.14       3.18       0.03       1.59       ----

> <Gold.Chemscore.Fitness>
8.2733

> <Gold.Chemscore.DG>
-9.8878

> <Gold.Chemscore.ZeroCoef>
-5.4800

> <Gold.Chemscore.Hbond>
0.8470

> <Gold.Chemscore.Metal>
0.0000

> <Gold.Chemscore.Lipo>
83.1398

> <Gold.Chemscore.Internal_Hbond>
0.0000

> <Gold.Chemscore.DEClash>
0.0251

> <Gold.Chemscore.DEInternal>
1.5894

> <Gold.Chemscore.Rot>
3.1831

> <Gold.Chemscore.Internal.Correction>
   9.000000E+99

> <Gold.Chemscore.Hbonds>
donor molecule, donor type, donor heavy atom, donor atom, acceptor molecule, acceptor atom, score
      L1  H     7    36       P1 10175  0.16
      P1  H  7997  8010       L1    21  0.80

> <Gold.Chemscore.Hbond.Weighted>
-2.8291

> <Gold.Chemscore.Metal.Weighted>
-0.0000

> <Gold.Chemscore.Lipo.Weighted>
-9.7274

> <Gold.Chemscore.Internal_Hbond.Weighted>
0.0000

> <Gold.Chemscore.DEClash.Weighted>
0.0251

> <Gold.Chemscore.DEInternal.Weighted>
1.5894

> <Gold.Chemscore.Rot.Weighted>
8.1486

> <Gold.Chemscore.Internal.Correction.Weighted>
   9.000000E+99

> <Gold.Protein.RotatedTorsions>
[ 6907 6896 6895 6894 ] final   78.85 input  -60.11 | X-H torsion
[ 7974 7965 7964 7962 ] final   22.95 input  175.53 | X-H torsion
[ 8008 7997 7996 7995 ] final   49.72 input   59.86 | X-H torsion
[ 10167 10162 10161 10158 ] final   86.93 input  -65.29 | X-H torsion
[ 10718 10713 10712 10709 ] final   34.81 input   66.30 | X-H torsion
[ 10763 10752 10751 10750 ] final -103.58 input  -60.55 | X-H torsion
[ 11005 11000 10999 10996 ] final    7.22 input  -57.11 | X-H torsion

> <Gold.Protein.ActiveResidues>
 VAL166  LYS551  ARG553  GLY616  TRP617  ASP618  TYR619  PRO620  LYS621  CYS622 
 ASP623  PHE694  ASN695  SER759  ASP760  ASP761  ALA762  ILE779  LEU786  VAL792 
 PHE793  MET794  SER795  GLU796  ALA797  LYS798  CYS799  TRP800  GLU811  SER814 

> <Gold.Protein.RotatedAtoms>
  152.5175  134.3602  159.9281 H   0  0  0  0  0  0  0  0  0  0  0  0  # atno 6907 bound_to 6896
  151.3554  133.3903  159.2692 H   0  0  0  0  0  0  0  0  0  0  0  0  # atno 6908 bound_to 6896
  150.9694  134.9088  159.7837 H   0  0  0  0  0  0  0  0  0  0  0  0  # atno 6909 bound_to 6896
  146.2006  139.7814  142.8764 H   0  0  0  0  0  0  0  0  0  0  0  0  # atno 7974 bound_to 7965
  155.4068  140.3440  155.4261 H   0  0  0  0  0  0  0  0  0  0  0  0  # atno 8008 bound_to 7997
  156.1472  140.1560  156.8860 H   0  0  0  0  0  0  0  0  0  0  0  0  # atno 8009 bound_to 7997
  154.5020  140.0812  156.7799 H   0  0  0  0  0  0  0  0  0  0  0  0  # atno 8010 bound_to 7997
  139.8825  144.6432  150.8827 H   0  0  0  0  0  0  0  0  0  0  0  0  # atno 10167 bound_to 10162
  157.3150  130.7418  149.6748 H   0  0  0  0  0  0  0  0  0  0  0  0  # atno 10718 bound_to 10713
  154.7818  135.4818  153.9860 H   0  0  0  0  0  0  0  0  0  0  0  0  # atno 10763 bound_to 10752
  153.1504  135.6790  153.8898 H   0  0  0  0  0  0  0  0  0  0  0  0  # atno 10764 bound_to 10752
  153.8544  135.3163  155.3412 H   0  0  0  0  0  0  0  0  0  0  0  0  # atno 10765 bound_to 10752
  140.5507  134.0286  155.7936 H   0  0  0  0  0  0  0  0  0  0  0  0  # atno 11005 bound_to 11000
  145.3496  141.0304  143.3346 LP  0  0  0  0  0  0  0  0  0  0  0  0  # atno 17320 bound_to 7965
  144.8676  139.5085  143.6783 LP  0  0  0  0  0  0  0  0  0  0  0  0  # atno 17321 bound_to 7965
  140.7742  143.3574  151.1894 LP  0  0  0  0  0  0  0  0  0  0  0  0  # atno 17342 bound_to 10162
  139.7183  143.9265  152.2975 LP  0  0  0  0  0  0  0  0  0  0  0  0  # atno 17343 bound_to 10162
  155.9681  130.4240  150.4588 LP  0  0  0  0  0  0  0  0  0  0  0  0  # atno 17370 bound_to 10713
  157.2593  131.0563  151.2330 LP  0  0  0  0  0  0  0  0  0  0  0  0  # atno 17371 bound_to 10713
  141.1173  133.9519  157.2797 LP  0  0  0  0  0  0  0  0  0  0  0  0  # atno 17394 bound_to 11000
  139.9457  135.0184  156.8844 LP  0  0  0  0  0  0  0  0  0  0  0  0  # atno 17395 bound_to 11000

$$$$
