AV-unprocessed.smi:2880|AV-procd|sdf|11053|dock7
  -GOLD-   2272015523D 1   1.00000     0.00000
 Structure written by MMmdl.
 47 48  0  0  0  0  0  0  0  0  1 V2000
  145.4079  134.7814  162.4694 C   0  0  0  0  0  0  0  0  0  0  0  0
  146.9244  134.9423  162.2486 C   0  0  0  0  0  0  0  0  0  0  0  0
  147.4088  136.1765  163.0464 C   0  0  0  0  0  0  0  0  0  0  0  0
  147.6630  133.6977  162.7785 C   0  0  0  0  0  0  0  0  0  0  0  0
  147.1840  135.0745  160.8086 N   0  0  0  0  0  0  0  0  0  0  0  0
  146.7621  134.2371  159.7895 C   0  0  0  0  0  0  0  0  0  0  0  0
  147.2251  134.7400  158.6072 C   0  0  0  0  0  0  0  0  0  0  0  0
  147.9310  135.9062  159.0056 C   0  0  0  0  0  0  0  0  0  0  0  0
  148.5752  136.7265  158.0449 N   0  0  0  0  0  0  0  0  0  0  0  0
  149.8082  137.2569  158.1137 C   0  0  0  0  0  0  0  0  0  0  0  0
  150.5857  137.1223  159.0590 O   0  0  0  0  0  0  0  0  0  0  0  0
  150.0932  137.9563  157.0052 N   0  0  0  0  0  0  0  0  0  0  0  0
  151.3516  138.6492  156.7182 C   0  0  2  0  0  0  0  0  0  0  0  0
  151.6275  139.7108  157.8022 C   0  0  0  0  0  0  0  0  0  0  0  0
  150.6508  140.8961  157.7188 C   0  0  0  0  0  0  0  0  0  0  0  0
  150.6553  141.5207  156.3161 C   0  0  0  0  0  0  0  0  0  0  0  0
  150.3578  140.4703  155.2342 C   0  0  0  0  0  0  0  0  0  0  0  0
  151.3439  139.2842  155.3009 C   0  0  2  0  0  0  0  0  0  0  0  0
  151.0697  138.2727  154.1677 C   0  0  0  0  0  0  0  0  0  0  0  0
  152.1055  137.3167  154.0844 O   0  0  0  0  0  0  0  0  0  0  0  0
  147.9073  136.1082  160.3142 N   0  0  0  0  0  0  0  0  0  0  0  0
  145.1692  134.6886  163.5292 H   0  0  0  0  0  0  0  0  0  0  0  0
  145.0181  133.8933  161.9709 H   0  0  0  0  0  0  0  0  0  0  0  0
  144.8595  135.6415  162.0835 H   0  0  0  0  0  0  0  0  0  0  0  0
  146.9052  137.0886  162.7232 H   0  0  0  0  0  0  0  0  0  0  0  0
  148.4830  136.3310  162.9361 H   0  0  0  0  0  0  0  0  0  0  0  0
  147.2087  136.0600  164.1120 H   0  0  0  0  0  0  0  0  0  0  0  0
  147.5052  133.5698  163.8499 H   0  0  0  0  0  0  0  0  0  0  0  0
  148.7381  133.7766  162.6124 H   0  0  0  0  0  0  0  0  0  0  0  0
  147.3213  132.7847  162.2901 H   0  0  0  0  0  0  0  0  0  0  0  0
  146.1699  133.3561  159.9887 H   0  0  0  0  0  0  0  0  0  0  0  0
  147.0804  134.3358  157.6165 H   0  0  0  0  0  0  0  0  0  0  0  0
  148.0449  136.9191  157.2082 H   0  0  0  0  0  0  0  0  0  0  0  0
  149.3840  138.0074  156.2890 H   0  0  0  0  0  0  0  0  0  0  0  0
  152.1748  137.9341  156.7600 H   0  0  0  0  0  0  0  0  0  0  0  0
  151.5827  139.2586  158.7938 H   0  0  0  0  0  0  0  0  0  0  0  0
  152.6466  140.0822  157.6860 H   0  0  0  0  0  0  0  0  0  0  0  0
  149.6427  140.5640  157.9696 H   0  0  0  0  0  0  0  0  0  0  0  0
  150.9189  141.6491  158.4603 H   0  0  0  0  0  0  0  0  0  0  0  0
  149.9211  142.3253  156.2653 H   0  0  0  0  0  0  0  0  0  0  0  0
  151.6268  141.9775  156.1232 H   0  0  0  0  0  0  0  0  0  0  0  0
  149.3339  140.1109  155.3448 H   0  0  0  0  0  0  0  0  0  0  0  0
  150.4111  140.9420  154.2525 H   0  0  0  0  0  0  0  0  0  0  0  0
  152.3402  139.6945  155.1262 H   0  0  0  0  0  0  0  0  0  0  0  0
  150.1168  137.7622  154.3086 H   0  0  0  0  0  0  0  0  0  0  0  0
  151.0115  138.7883  153.2087 H   0  0  0  0  0  0  0  0  0  0  0  0
  152.1054  136.9470  153.2146 H   0  0  0  0  0  0  0  0  0  0  0  0
  1  2  1  0  0  0  0
  1 22  1  0  0  0  0
  1 23  1  0  0  0  0
  1 24  1  0  0  0  0
  2  3  1  0  0  0  0
  2  4  1  0  0  0  0
  2  5  1  0  0  0  0
  3 25  1  0  0  0  0
  3 26  1  0  0  0  0
  3 27  1  0  0  0  0
  4 28  1  0  0  0  0
  4 29  1  0  0  0  0
  4 30  1  0  0  0  0
  5 21  1  0  0  0  0
  5  6  1  0  0  0  0
  6  7  2  0  0  0  0
  6 31  1  0  0  0  0
  7  8  1  0  0  0  0
  7 32  1  0  0  0  0
  8  9  1  0  0  0  0
  8 21  2  0  0  0  0
  9 10  1  0  0  0  0
  9 33  1  0  0  0  0
 10 11  2  0  0  0  0
 10 12  1  0  0  0  0
 12 13  1  0  0  0  0
 12 34  1  0  0  0  0
 13 18  1  0  0  0  0
 13 14  1  0  0  0  0
 13 35  1  0  0  0  0
 14 15  1  0  0  0  0
 14 36  1  0  0  0  0
 14 37  1  0  0  0  0
 15 16  1  0  0  0  0
 15 38  1  0  0  0  0
 15 39  1  0  0  0  0
 16 17  1  0  0  0  0
 16 40  1  0  0  0  0
 16 41  1  0  0  0  0
 17 18  1  0  0  0  0
 17 42  1  0  0  0  0
 17 43  1  0  0  0  0
 18 19  1  0  0  0  0
 18 44  1  0  0  0  0
 19 20  1  0  0  0  0
 19 45  1  0  0  0  0
 19 46  1  0  0  0  0
 20 47  1  0  0  0  0
M  END
> <s_m_source_file>
AV-unprocessed.smi

> <i_m_source_file_index>
2880

> <i_lp_mmshare_version>
43012

> <i_f3d_flags>
0

> <s_epik_input>
W0NIM11DKFtDSDNdKShbQ0gzXSluMVtjSF1bY0hdYyhuMSlbTkhdQyg9TylbTkhdW0NAQEhdMltDSDJdW0NIMl1bQ0gyXVtDSDJdW0NASF0yW0NIMl1bT0hd

> <s_epik_cmdline>
J2VwaWtfcHl0aG9uJywgJy1waCcsICc3LjAnLCAnLXRuJywgJzgnLCAnLW1hJywgJzIwMCcsICctbWV0YWxfYmluZGluZycsICctaW1hZScsICc8aW5maWxlLm1hZT4nLCAnLW9tYWUnLCAnPG91dGZpbGUubWFlPic=

> <r_lp_tautomer_probability>
1

> <r_epik_Ionization_Penalty>
3.89283e-05

> <r_epik_Ionization_Penalty_Charging>
0

> <r_epik_Ionization_Penalty_Neutral>
3.89283e-05

> <r_epik_State_Penalty>
-0

> <r_epik_Charging_Adjusted_Penalty>
0

> <i_epik_Tot_Q>
0

> <i_epik_Tot_abs_Q>
0

> <r_epik_Metal_State_Penalty>
-0

> <b_epik_Metal_Only>
0

> <s_lp_Force_Field>
OPLS_2005

> <r_lp_Energy>
20.6401

> <b_lp_Chiralities_Consistent>
1

> <s_lp_Variant>
AV-unprocessed.smi:2880-3

> <Gold.Version>
5.8.1

> <Gold.Id.Protein>
6NUR|6NUR_protein|mol2

> <Gold.PLP.Fitness>
43.0796

> <Gold.PLP.PLP>
-35.4472

> <Gold.PLP.part.hbond>
-3.0000

> <Gold.PLP.part.metal>
0.0000

> <Gold.PLP.part.buried>
-5.0299

> <Gold.PLP.part.nonpolar>
-27.0952

> <Gold.PLP.part.repulsive>
0.0688

> <Gold.PLP.ligand.clash>
0.0000

> <Gold.PLP.ligand.torsion>
0.5662

> <Gold.PLP.Chemscore.Hbond>
2.9120

> <Gold.PLP.Chemscore.CHOScore>
0.0000

> <Gold.PLP.Chemscore.Metal>
0.0000

> <Gold.Chemscore.Hbonds>
donor molecule, donor type, donor heavy atom, donor atom, acceptor molecule, acceptor atom, score
      L1  H    20    47       P1  7949  0.63
      P1  H  6896  6907       L1    11  0.37

> <Gold.PLP.Chemscore.Internal.Correction>
0.0287

> <Gold.Rescore>
     Score         DG    S(hbond)    S(metal)    S(lipo)     H(rot)  DE(clash)    DE(int)     intcor
     17.29     -18.85       2.63        0.00      82.14       1.97       0.08       1.48       ----

> <Gold.Chemscore.Fitness>
17.2906

> <Gold.Chemscore.DG>
-18.8489

> <Gold.Chemscore.ZeroCoef>
-5.4800

> <Gold.Chemscore.Hbond>
2.6332

> <Gold.Chemscore.Metal>
0.0000

> <Gold.Chemscore.Lipo>
82.1358

> <Gold.Chemscore.Internal_Hbond>
0.0000

> <Gold.Chemscore.DEClash>
0.0811

> <Gold.Chemscore.DEInternal>
1.4772

> <Gold.Chemscore.Rot>
1.9672

> <Gold.Chemscore.Internal.Correction>
   9.000000E+99

> <Gold.Chemscore.Hbonds>
donor molecule, donor type, donor heavy atom, donor atom, acceptor molecule, acceptor atom, score
      L1  H    20    47       P1  7949  0.61
      P1  H  6896  6907       L1    11  0.35

> <Gold.Chemscore.Hbond.Weighted>
-8.7950

> <Gold.Chemscore.Metal.Weighted>
-0.0000

> <Gold.Chemscore.Lipo.Weighted>
-9.6099

> <Gold.Chemscore.Internal_Hbond.Weighted>
0.0000

> <Gold.Chemscore.DEClash.Weighted>
0.0811

> <Gold.Chemscore.DEInternal.Weighted>
1.4772

> <Gold.Chemscore.Rot.Weighted>
5.0360

> <Gold.Chemscore.Internal.Correction.Weighted>
   9.000000E+99

> <Gold.Protein.RotatedTorsions>
[ 6907 6896 6895 6894 ] final  -39.88 input  -60.11 | X-H torsion
[ 7974 7965 7964 7962 ] final  158.97 input  175.53 | X-H torsion
[ 8008 7997 7996 7995 ] final  169.82 input   59.86 | X-H torsion
[ 10167 10162 10161 10158 ] final  -94.74 input  -65.29 | X-H torsion
[ 10718 10713 10712 10709 ] final   35.05 input   66.30 | X-H torsion
[ 10763 10752 10751 10750 ] final   50.48 input  -60.55 | X-H torsion
[ 11005 11000 10999 10996 ] final -127.62 input  -57.11 | X-H torsion

> <Gold.Protein.ActiveResidues>
 VAL166  LYS551  ARG553  GLY616  TRP617  ASP618  TYR619  PRO620  LYS621  CYS622 
 ASP623  PHE694  ASN695  SER759  ASP760  ASP761  ALA762  ILE779  LEU786  VAL792 
 PHE793  MET794  SER795  GLU796  ALA797  LYS798  CYS799  TRP800  GLU811  SER814 

> <Gold.Protein.RotatedAtoms>
  150.9851  134.9198  159.7866 H   0  0  0  0  0  0  0  0  0  0  0  0  # atno 6907 bound_to 6896
  152.5234  134.3357  159.9209 H   0  0  0  0  0  0  0  0  0  0  0  0  # atno 6908 bound_to 6896
  151.3364  133.3939  159.2701 H   0  0  0  0  0  0  0  0  0  0  0  0  # atno 6909 bound_to 6896
  144.7816  139.7552  143.6257 H   0  0  0  0  0  0  0  0  0  0  0  0  # atno 7974 bound_to 7965
  156.1422  140.1554  156.8903 H   0  0  0  0  0  0  0  0  0  0  0  0  # atno 8008 bound_to 7997
  154.4997  140.0828  156.7810 H   0  0  0  0  0  0  0  0  0  0  0  0  # atno 8009 bound_to 7997
  155.4057  140.3416  155.4262 H   0  0  0  0  0  0  0  0  0  0  0  0  # atno 8010 bound_to 7997
  140.3113  143.3103  152.0145 H   0  0  0  0  0  0  0  0  0  0  0  0  # atno 10167 bound_to 10162
  157.3179  130.7433  149.6766 H   0  0  0  0  0  0  0  0  0  0  0  0  # atno 10718 bound_to 10713
  152.9784  135.5877  154.4260 H   0  0  0  0  0  0  0  0  0  0  0  0  # atno 10763 bound_to 10752
  154.3878  135.2767  155.2174 H   0  0  0  0  0  0  0  0  0  0  0  0  # atno 10764 bound_to 10752
  154.4060  135.6092  153.5979 H   0  0  0  0  0  0  0  0  0  0  0  0  # atno 10765 bound_to 10752
  140.9585  134.0969  157.3992 H   0  0  0  0  0  0  0  0  0  0  0  0  # atno 11005 bound_to 11000
  146.2027  139.5332  142.9733 LP  0  0  0  0  0  0  0  0  0  0  0  0  # atno 17320 bound_to 7965
  145.6035  141.0351  143.2005 LP  0  0  0  0  0  0  0  0  0  0  0  0  # atno 17321 bound_to 7965
  139.4893  144.6382  151.6931 LP  0  0  0  0  0  0  0  0  0  0  0  0  # atno 17342 bound_to 10162
  140.5566  144.0338  150.6150 LP  0  0  0  0  0  0  0  0  0  0  0  0  # atno 17343 bound_to 10162
  155.9683  130.4232  150.4550 LP  0  0  0  0  0  0  0  0  0  0  0  0  # atno 17370 bound_to 10713
  157.2561  131.0557  151.2349 LP  0  0  0  0  0  0  0  0  0  0  0  0  # atno 17371 bound_to 10713
  139.8870  135.0086  156.6533 LP  0  0  0  0  0  0  0  0  0  0  0  0  # atno 17394 bound_to 11000
  140.7502  133.8904  155.8341 LP  0  0  0  0  0  0  0  0  0  0  0  0  # atno 17395 bound_to 11000

$$$$
