AV-unprocessed.smi:753|AV-procd|sdf|3602|dock9
  -GOLD-   22720 0593D 1   1.00000     0.00000
 Structure written by MMmdl.
 43 45  0  0  0  0  0  0  0  0  1 V2000
  151.8059  140.4021  156.5526 C   0  0  0  0  0  0  0  0  0  0  0  0
  150.6517  140.2804  155.5797 C   0  0  0  0  0  0  0  0  0  0  0  0
  149.8426  141.3946  155.2724 C   0  0  0  0  0  0  0  0  0  0  0  0
  148.7831  141.2225  154.3608 C   0  0  0  0  0  0  0  0  0  0  0  0
  148.5744  139.9485  153.7942 C   0  0  0  0  0  0  0  0  0  0  0  0
  147.4440  139.7086  152.8138 C   0  0  0  0  0  0  0  0  0  0  0  0
  146.4117  138.7088  153.3583 C   0  0  0  0  0  0  0  0  0  0  0  0
  146.6869  137.3556  152.8935 N   0  0  0  0  0  0  0  0  0  0  0  0
  145.7992  136.3470  152.8867 C   0  0  0  0  0  0  0  0  0  0  0  0
  144.6458  136.4564  153.2983 O   0  0  0  0  0  0  0  0  0  0  0  0
  146.2678  135.1893  152.3878 N   0  0  0  0  0  0  0  0  0  0  0  0
  145.5581  133.9159  152.2435 C   0  0  1  0  0  0  0  0  0  0  0  0
  144.5183  133.9665  151.1024 C   0  0  0  0  0  0  0  0  0  0  0  0
  144.9565  132.8094  150.1852 C   0  0  2  0  0  0  0  0  0  0  0  0
  144.6901  131.4641  150.8882 C   0  0  0  0  0  0  0  0  0  0  0  0
  145.7723  131.4304  151.9854 C   0  0  0  0  0  0  0  0  0  0  0  0
  146.4960  132.7740  151.7828 C   0  0  1  0  0  0  0  0  0  0  0  0
  146.4735  132.9088  150.2633 C   0  0  0  0  0  0  0  0  0  0  0  0
  149.4403  138.9000  154.1694 C   0  0  0  0  0  0  0  0  0  0  0  0
  150.4587  139.0554  155.0423 N   0  0  0  0  0  0  0  0  0  0  0  0
  151.9179  141.4272  156.9066 H   0  0  0  0  0  0  0  0  0  0  0  0
  152.7391  140.1043  156.0736 H   0  0  0  0  0  0  0  0  0  0  0  0
  151.6414  139.7589  157.4174 H   0  0  0  0  0  0  0  0  0  0  0  0
  150.0260  142.3589  155.7231 H   0  0  0  0  0  0  0  0  0  0  0  0
  148.1428  142.0539  154.1045 H   0  0  0  0  0  0  0  0  0  0  0  0
  146.9643  140.6616  152.5860 H   0  0  0  0  0  0  0  0  0  0  0  0
  147.8619  139.3423  151.8750 H   0  0  0  0  0  0  0  0  0  0  0  0
  146.4376  138.7026  154.4483 H   0  0  0  0  0  0  0  0  0  0  0  0
  145.4012  139.0063  153.0723 H   0  0  0  0  0  0  0  0  0  0  0  0
  147.6146  137.1743  152.5390 H   0  0  0  0  0  0  0  0  0  0  0  0
  147.2325  135.1883  152.0893 H   0  0  0  0  0  0  0  0  0  0  0  0
  145.0646  133.6673  153.1851 H   0  0  0  0  0  0  0  0  0  0  0  0
  143.4984  133.8387  151.4670 H   0  0  0  0  0  0  0  0  0  0  0  0
  144.5583  134.9142  150.5630 H   0  0  0  0  0  0  0  0  0  0  0  0
  144.5417  132.8677  149.1787 H   0  0  0  0  0  0  0  0  0  0  0  0
  143.6807  131.4041  151.2965 H   0  0  0  0  0  0  0  0  0  0  0  0
  144.8216  130.6314  150.1961 H   0  0  0  0  0  0  0  0  0  0  0  0
  145.3509  131.3293  152.9862 H   0  0  0  0  0  0  0  0  0  0  0  0
  146.4548  130.5949  151.8242 H   0  0  0  0  0  0  0  0  0  0  0  0
  147.4900  132.7962  152.2311 H   0  0  0  0  0  0  0  0  0  0  0  0
  146.9877  132.0956  149.7481 H   0  0  0  0  0  0  0  0  0  0  0  0
  146.8645  133.8631  149.9059 H   0  0  0  0  0  0  0  0  0  0  0  0
  149.3108  137.9085  153.7612 H   0  0  0  0  0  0  0  0  0  0  0  0
  1  2  1  0  0  0  0
  1 21  1  0  0  0  0
  1 22  1  0  0  0  0
  1 23  1  0  0  0  0
  2 20  1  0  0  0  0
  2  3  2  0  0  0  0
  3  4  1  0  0  0  0
  3 24  1  0  0  0  0
  4  5  2  0  0  0  0
  4 25  1  0  0  0  0
  5  6  1  0  0  0  0
  5 19  1  0  0  0  0
  6  7  1  0  0  0  0
  6 26  1  0  0  0  0
  6 27  1  0  0  0  0
  7  8  1  0  0  0  0
  7 28  1  0  0  0  0
  7 29  1  0  0  0  0
  8  9  1  0  0  0  0
  8 30  1  0  0  0  0
  9 10  2  0  0  0  0
  9 11  1  0  0  0  0
 11 12  1  0  0  0  0
 11 31  1  0  0  0  0
 12 17  1  0  0  0  0
 12 13  1  0  0  0  0
 12 32  1  0  0  0  0
 13 14  1  0  0  0  0
 13 33  1  0  0  0  0
 13 34  1  0  0  0  0
 14 18  1  0  0  0  0
 14 15  1  0  0  0  0
 14 35  1  0  0  0  0
 15 16  1  0  0  0  0
 15 36  1  0  0  0  0
 15 37  1  0  0  0  0
 16 17  1  0  0  0  0
 16 38  1  0  0  0  0
 16 39  1  0  0  0  0
 17 18  1  0  0  0  0
 17 40  1  0  0  0  0
 18 41  1  0  0  0  0
 18 42  1  0  0  0  0
 19 20  2  0  0  0  0
 19 43  1  0  0  0  0
M  END
> <s_m_source_file>
AV-unprocessed.smi

> <i_m_source_file_index>
753

> <i_lp_mmshare_version>
43012

> <i_f3d_flags>
0

> <s_epik_input>
W0NIM11jMVtjSF1bY0hdYyhbY0hdbjEpW0NIMl1bQ0gyXVtOSF1DKD1PKVtOSF1bQ0BIXShbQ0gyXVtDQEBIXTIzKVtDQEBIXShbQ0gyXTMpW0NIMl1bQ0gyXTI=

> <s_epik_cmdline>
J2VwaWtfcHl0aG9uJywgJy1waCcsICc3LjAnLCAnLXRuJywgJzgnLCAnLW1hJywgJzIwMCcsICctbWV0YWxfYmluZGluZycsICctaW1hZScsICc8aW5maWxlLm1hZT4nLCAnLW9tYWUnLCAnPG91dGZpbGUubWFlPic=

> <r_epik_Ionization_Penalty>
0.0569047

> <r_epik_Ionization_Penalty_Charging>
0

> <r_epik_Ionization_Penalty_Neutral>
0.0569047

> <r_epik_State_Penalty>
0.0490541

> <r_epik_Charging_Adjusted_Penalty>
0.0490541

> <i_epik_Tot_Q>
0

> <i_epik_Tot_abs_Q>
0

> <r_epik_Metal_State_Penalty>
0.0447357

> <b_epik_Metal_Only>
0

> <s_lp_Force_Field>
OPLS_2005

> <r_lp_Energy>
50.3887

> <b_lp_Chiralities_Consistent>
1

> <s_lp_Variant>
AV-unprocessed.smi:753-4

> <Gold.Version>
5.8.1

> <Gold.Id.Protein>
6NUR|6NUR_protein|mol2

> <Gold.PLP.Fitness>
43.7429

> <Gold.PLP.PLP>
-35.6938

> <Gold.PLP.part.hbond>
-2.0000

> <Gold.PLP.part.metal>
0.0000

> <Gold.PLP.part.buried>
1.0038

> <Gold.PLP.part.nonpolar>
-34.1797

> <Gold.PLP.part.repulsive>
0.2236

> <Gold.PLP.ligand.clash>
0.0000

> <Gold.PLP.ligand.torsion>
0.4744

> <Gold.PLP.Chemscore.Hbond>
1.9920

> <Gold.PLP.Chemscore.CHOScore>
1.0000

> <Gold.PLP.Chemscore.Metal>
0.0000

> <Gold.Chemscore.Hbonds>
donor molecule, donor type, donor heavy atom, donor atom, acceptor molecule, acceptor atom, score
      L1  H     8    30       P1  7948  1.00
      L1  H    11    31       P1  7948  0.98
      L1  C    19    43       P1  7948  0.99

> <Gold.PLP.Chemscore.Internal.Correction>
0.0219

> <Gold.Rescore>
     Score         DG    S(hbond)    S(metal)    S(lipo)     H(rot)  DE(clash)    DE(int)     intcor
     18.23     -20.13       1.93        0.00     101.48       1.43       1.31       0.58       ----

> <Gold.Chemscore.Fitness>
18.2285

> <Gold.Chemscore.DG>
-20.1251

> <Gold.Chemscore.ZeroCoef>
-5.4800

> <Gold.Chemscore.Hbond>
1.9254

> <Gold.Chemscore.Metal>
0.0000

> <Gold.Chemscore.Lipo>
101.4753

> <Gold.Chemscore.Internal_Hbond>
0.0000

> <Gold.Chemscore.DEClash>
1.3146

> <Gold.Chemscore.DEInternal>
0.5820

> <Gold.Chemscore.Rot>
1.4291

> <Gold.Chemscore.Internal.Correction>
   9.000000E+99

> <Gold.Chemscore.Hbonds>
donor molecule, donor type, donor heavy atom, donor atom, acceptor molecule, acceptor atom, score
      L1  H     8    30       P1  7948  0.99
      L1  H    11    31       P1  7948  0.90

> <Gold.Chemscore.Hbond.Weighted>
-6.4310

> <Gold.Chemscore.Metal.Weighted>
-0.0000

> <Gold.Chemscore.Lipo.Weighted>
-11.8726

> <Gold.Chemscore.Internal_Hbond.Weighted>
0.0000

> <Gold.Chemscore.DEClash.Weighted>
1.3146

> <Gold.Chemscore.DEInternal.Weighted>
0.5820

> <Gold.Chemscore.Rot.Weighted>
3.6585

> <Gold.Chemscore.Internal.Correction.Weighted>
   9.000000E+99

> <Gold.Protein.RotatedTorsions>
[ 6907 6896 6895 6894 ] final  132.74 input  -60.11 | X-H torsion
[ 7974 7965 7964 7962 ] final  120.93 input  175.53 | X-H torsion
[ 8008 7997 7996 7995 ] final   16.88 input   59.86 | X-H torsion
[ 10167 10162 10161 10158 ] final   76.12 input  -65.29 | X-H torsion
[ 10718 10713 10712 10709 ] final -174.36 input   66.30 | X-H torsion
[ 10763 10752 10751 10750 ] final   49.62 input  -60.55 | X-H torsion
[ 11005 11000 10999 10996 ] final  164.57 input  -57.11 | X-H torsion

> <Gold.Protein.ActiveResidues>
 VAL166  LYS551  ARG553  GLY616  TRP617  ASP618  TYR619  PRO620  LYS621  CYS622 
 ASP623  PHE694  ASN695  SER759  ASP760  ASP761  ALA762  ILE779  LEU786  VAL792 
 PHE793  MET794  SER795  GLU796  ALA797  LYS798  CYS799  TRP800  GLU811  SER814 

> <Gold.Protein.RotatedAtoms>
  152.3292  133.5939  159.5797 H   0  0  0  0  0  0  0  0  0  0  0  0  # atno 6907 bound_to 6896
  150.7414  133.9894  159.3611 H   0  0  0  0  0  0  0  0  0  0  0  0  # atno 6908 bound_to 6896
  151.7770  135.0772  160.0419 H   0  0  0  0  0  0  0  0  0  0  0  0  # atno 6909 bound_to 6896
  145.1253  139.3362  143.4693 H   0  0  0  0  0  0  0  0  0  0  0  0  # atno 7974 bound_to 7965
  154.8833  140.2976  155.5412 H   0  0  0  0  0  0  0  0  0  0  0  0  # atno 8008 bound_to 7997
  156.3022  140.2438  156.3773 H   0  0  0  0  0  0  0  0  0  0  0  0  # atno 8009 bound_to 7997
  154.8694  140.0402  157.1704 H   0  0  0  0  0  0  0  0  0  0  0  0  # atno 8010 bound_to 7997
  139.9956  144.5724  150.7780 H   0  0  0  0  0  0  0  0  0  0  0  0  # atno 10167 bound_to 10162
  156.7840  130.9493  151.3120 H   0  0  0  0  0  0  0  0  0  0  0  0  # atno 10718 bound_to 10713
  152.9786  135.5906  154.4119 H   0  0  0  0  0  0  0  0  0  0  0  0  # atno 10763 bound_to 10752
  154.3753  135.2767  155.2245 H   0  0  0  0  0  0  0  0  0  0  0  0  # atno 10764 bound_to 10752
  154.4182  135.6065  153.6048 H   0  0  0  0  0  0  0  0  0  0  0  0  # atno 10765 bound_to 10752
  140.2472  134.8005  157.3468 H   0  0  0  0  0  0  0  0  0  0  0  0  # atno 11005 bound_to 11000
  146.3518  140.1229  142.8599 LP  0  0  0  0  0  0  0  0  0  0  0  0  # atno 17320 bound_to 7965
  145.0695  140.9145  143.4890 LP  0  0  0  0  0  0  0  0  0  0  0  0  # atno 17321 bound_to 7965
  140.7438  143.2852  151.3485 LP  0  0  0  0  0  0  0  0  0  0  0  0  # atno 17342 bound_to 10162
  139.6308  144.0724  152.2475 LP  0  0  0  0  0  0  0  0  0  0  0  0  # atno 17343 bound_to 10162
  157.6633  130.8985  149.9876 LP  0  0  0  0  0  0  0  0  0  0  0  0  # atno 17370 bound_to 10713
  156.1200  130.3646  149.9903 LP  0  0  0  0  0  0  0  0  0  0  0  0  # atno 17371 bound_to 10713
  140.1594  134.4748  155.7905 LP  0  0  0  0  0  0  0  0  0  0  0  0  # atno 17394 bound_to 11000
  141.2205  133.6895  156.7517 LP  0  0  0  0  0  0  0  0  0  0  0  0  # atno 17395 bound_to 11000

$$$$
