AV-unprocessed.smi:655|AV-procd|sdf|3214|dock4
  -GOLD-   22720 0153D 1   1.00000     0.00000
 Structure written by MMmdl.
 35 36  0  0  0  0  0  0  0  0  1 V2000
  143.6571  132.1044  150.2282 C   0  0  0  0  0  0  0  0  0  0  0  0
  145.0662  131.9827  150.8254 C   0  0  2  0  0  0  0  0  0  0  0  0
  145.0611  132.2535  152.3399 C   0  0  0  0  0  0  0  0  0  0  0  0
  146.4692  132.1293  152.9485 C   0  0  0  0  0  0  0  0  0  0  0  0
  147.5184  133.0288  152.2469 C   0  0  1  0  0  0  0  0  0  0  0  0
  147.1866  134.3878  152.4684 O   0  0  0  0  0  0  0  0  0  0  0  0
  148.9720  132.8085  152.7580 C   0  0  0  0  0  0  0  0  0  0  0  0
  149.1626  132.9475  154.1857 N   0  0  0  0  0  0  0  0  0  0  0  0
  149.0113  134.1612  154.8408 C   0  0  0  0  0  0  0  0  0  0  0  0
  149.2012  134.3169  156.1731 C   0  0  0  0  0  0  0  0  0  0  0  0
  149.0012  135.8653  156.9122 Cl  0  0  0  0  0  0  0  0  0  0  0  0
  149.5814  133.1702  156.9965 C   0  0  0  0  0  0  0  0  0  0  0  0
  149.7783  133.1986  158.2098 O   0  0  0  0  0  0  0  0  0  0  0  0
  149.7177  131.9675  156.2971 N   0  0  0  0  0  0  0  0  0  0  0  0
  149.5253  131.7980  154.9257 C   0  0  0  0  0  0  0  0  0  0  0  0
  149.6715  130.6843  154.4220 O   0  0  0  0  0  0  0  0  0  0  0  0
  147.4739  132.8050  150.7159 C   0  0  0  0  0  0  0  0  0  0  0  0
  146.0583  132.9260  150.1232 C   0  0  0  0  0  0  0  0  0  0  0  0
  149.9765  131.1500  156.8307 H   0  0  0  0  0  0  0  0  0  0  0  0
  143.2545  133.1088  150.3639 H   0  0  0  0  0  0  0  0  0  0  0  0
  142.9686  131.4032  150.7006 H   0  0  0  0  0  0  0  0  0  0  0  0
  143.6635  131.8898  149.1592 H   0  0  0  0  0  0  0  0  0  0  0  0
  145.4043  130.9576  150.6666 H   0  0  0  0  0  0  0  0  0  0  0  0
  144.6643  133.2505  152.5360 H   0  0  0  0  0  0  0  0  0  0  0  0
  144.3894  131.5549  152.8397 H   0  0  0  0  0  0  0  0  0  0  0  0
  146.4152  132.3622  154.0128 H   0  0  0  0  0  0  0  0  0  0  0  0
  146.7865  131.0883  152.8796 H   0  0  0  0  0  0  0  0  0  0  0  0
  147.9658  134.9108  152.3577 H   0  0  0  0  0  0  0  0  0  0  0  0
  149.2872  131.7860  152.5438 H   0  0  0  0  0  0  0  0  0  0  0  0
  149.7065  133.4379  152.2500 H   0  0  0  0  0  0  0  0  0  0  0  0
  148.7352  135.0312  154.2617 H   0  0  0  0  0  0  0  0  0  0  0  0
  148.1430  133.5038  150.2115 H   0  0  0  0  0  0  0  0  0  0  0  0
  147.8548  131.8088  150.4866 H   0  0  0  0  0  0  0  0  0  0  0  0
  146.0930  132.6997  149.0569 H   0  0  0  0  0  0  0  0  0  0  0  0
  145.7101  133.9565  150.2043 H   0  0  0  0  0  0  0  0  0  0  0  0
  1  2  1  0  0  0  0
  1 20  1  0  0  0  0
  1 21  1  0  0  0  0
  1 22  1  0  0  0  0
  2 18  1  0  0  0  0
  2  3  1  0  0  0  0
  2 23  1  0  0  0  0
  3  4  1  0  0  0  0
  3 24  1  0  0  0  0
  3 25  1  0  0  0  0
  4  5  1  0  0  0  0
  4 26  1  0  0  0  0
  4 27  1  0  0  0  0
  5  6  1  0  0  0  0
  5  7  1  0  0  0  0
  5 17  1  0  0  0  0
  6 28  1  0  0  0  0
  7  8  1  0  0  0  0
  7 29  1  0  0  0  0
  7 30  1  0  0  0  0
  8 15  1  0  0  0  0
  8  9  1  0  0  0  0
  9 10  2  0  0  0  0
  9 31  1  0  0  0  0
 10 11  1  0  0  0  0
 10 12  1  0  0  0  0
 12 13  2  0  0  0  0
 12 14  1  0  0  0  0
 14 19  1  0  0  0  0
 14 15  1  0  0  0  0
 15 16  2  0  0  0  0
 17 18  1  0  0  0  0
 17 32  1  0  0  0  0
 17 33  1  0  0  0  0
 18 34  1  0  0  0  0
 18 35  1  0  0  0  0
M  END
> <s_m_source_file>
AV-unprocessed.smi

> <i_m_source_file_index>
655

> <i_lp_mmshare_version>
43012

> <i_f3d_flags>
0

> <s_epik_input>
W0NIMl0xW0NIMl1bQ0BIXShbQ0gzXSlbQ0gyXVtDSDJdW0NAQF0xKFtPSF0pW0NIMl1uMltjSF1jKENsKWMoPU8pW25IXWMyPU8=

> <s_epik_cmdline>
J2VwaWtfcHl0aG9uJywgJy1waCcsICc3LjAnLCAnLXRuJywgJzgnLCAnLW1hJywgJzIwMCcsICctbWV0YWxfYmluZGluZycsICctaW1hZScsICc8aW5maWxlLm1hZT4nLCAnLW9tYWUnLCAnPG91dGZpbGUubWFlPic=

> <r_lp_tautomer_probability>
0.999537

> <r_epik_Ionization_Penalty>
0.0114762

> <r_epik_Ionization_Penalty_Charging>
0.0114753

> <r_epik_Ionization_Penalty_Neutral>
8.25878e-07

> <r_epik_State_Penalty>
0.00883314

> <r_epik_Charging_Adjusted_Penalty>
0.0203085

> <i_epik_Tot_Q>
0

> <i_epik_Tot_abs_Q>
0

> <r_epik_Metal_State_Penalty>
1.64347

> <b_epik_Metal_Only>
0

> <s_lp_Force_Field>
OPLS_2005

> <r_lp_Energy>
18.0938

> <b_lp_Chiralities_Consistent>
1

> <s_lp_Variant>
AV-unprocessed.smi:655-1

> <Gold.Version>
5.8.1

> <Gold.Id.Protein>
6NUR|6NUR_protein|mol2

> <Gold.PLP.Fitness>
32.5268

> <Gold.PLP.PLP>
-23.6364

> <Gold.PLP.part.hbond>
-1.8271

> <Gold.PLP.part.metal>
0.0000

> <Gold.PLP.part.buried>
1.2859

> <Gold.PLP.part.nonpolar>
-22.7263

> <Gold.PLP.part.repulsive>
0.0615

> <Gold.PLP.ligand.clash>
0.0000

> <Gold.PLP.ligand.torsion>
0.0579

> <Gold.PLP.Chemscore.Hbond>
2.0000

> <Gold.PLP.Chemscore.CHOScore>
1.0000

> <Gold.PLP.Chemscore.Metal>
0.0000

> <Gold.Chemscore.Hbonds>
donor molecule, donor type, donor heavy atom, donor atom, acceptor molecule, acceptor atom, score
      L1  H     6    28       P1  7948  1.00
      P1  H  6896  6909       L1    13  1.00
      L1  C     9    31       P1  7948  0.66

> <Gold.PLP.Chemscore.Internal.Correction>
0.0062

> <Gold.Rescore>
     Score         DG    S(hbond)    S(metal)    S(lipo)     H(rot)  DE(clash)    DE(int)     intcor
     13.69     -15.36       1.92        0.00      70.04       1.84       1.46       0.22       ----

> <Gold.Chemscore.Fitness>
13.6934

> <Gold.Chemscore.DG>
-15.3641

> <Gold.Chemscore.ZeroCoef>
-5.4800

> <Gold.Chemscore.Hbond>
1.9181

> <Gold.Chemscore.Metal>
0.0000

> <Gold.Chemscore.Lipo>
70.0358

> <Gold.Chemscore.Internal_Hbond>
0.0000

> <Gold.Chemscore.DEClash>
1.4553

> <Gold.Chemscore.DEInternal>
0.2154

> <Gold.Chemscore.Rot>
1.8424

> <Gold.Chemscore.Internal.Correction>
   9.000000E+99

> <Gold.Chemscore.Hbonds>
donor molecule, donor type, donor heavy atom, donor atom, acceptor molecule, acceptor atom, score
      L1  H     6    28       P1  7948  0.74
      P1  H  6896  6909       L1    13  0.97

> <Gold.Chemscore.Hbond.Weighted>
-6.4064

> <Gold.Chemscore.Metal.Weighted>
-0.0000

> <Gold.Chemscore.Lipo.Weighted>
-8.1942

> <Gold.Chemscore.Internal_Hbond.Weighted>
0.0000

> <Gold.Chemscore.DEClash.Weighted>
1.4553

> <Gold.Chemscore.DEInternal.Weighted>
0.2154

> <Gold.Chemscore.Rot.Weighted>
4.7164

> <Gold.Chemscore.Internal.Correction.Weighted>
   9.000000E+99

> <Gold.Protein.RotatedTorsions>
[ 6907 6896 6895 6894 ] final   -2.31 input  -60.11 | X-H torsion
[ 7974 7965 7964 7962 ] final -156.21 input  175.53 | X-H torsion
[ 8008 7997 7996 7995 ] final   21.29 input   59.86 | X-H torsion
[ 10167 10162 10161 10158 ] final  -32.00 input  -65.29 | X-H torsion
[ 10718 10713 10712 10709 ] final -155.42 input   66.30 | X-H torsion
[ 10763 10752 10751 10750 ] final -167.33 input  -60.55 | X-H torsion
[ 11005 11000 10999 10996 ] final  139.74 input  -57.11 | X-H torsion

> <Gold.Protein.ActiveResidues>
 VAL166  LYS551  ARG553  GLY616  TRP617  ASP618  TYR619  PRO620  LYS621  CYS622 
 ASP623  PHE694  ASN695  SER759  ASP760  ASP761  ALA762  ILE779  LEU786  VAL792 
 PHE793  MET794  SER795  GLU796  ALA797  LYS798  CYS799  TRP800  GLU811  SER814 

> <Gold.Protein.RotatedAtoms>
  151.5320  135.1068  159.9904 H   0  0  0  0  0  0  0  0  0  0  0  0  # atno 6907 bound_to 6896
  152.4574  133.7747  159.6828 H   0  0  0  0  0  0  0  0  0  0  0  0  # atno 6908 bound_to 6896
  150.8523  133.7703  159.3046 H   0  0  0  0  0  0  0  0  0  0  0  0  # atno 6909 bound_to 6896
  144.7604  140.4142  143.5981 H   0  0  0  0  0  0  0  0  0  0  0  0  # atno 7974 bound_to 7965
  154.9484  140.3062  155.5087 H   0  0  0  0  0  0  0  0  0  0  0  0  # atno 8008 bound_to 7997
  156.2989  140.2323  156.4497 H   0  0  0  0  0  0  0  0  0  0  0  0  # atno 8009 bound_to 7997
  154.8078  140.0430  157.1309 H   0  0  0  0  0  0  0  0  0  0  0  0  # atno 8010 bound_to 7997
  140.7228  143.3727  151.1747 H   0  0  0  0  0  0  0  0  0  0  0  0  # atno 10167 bound_to 10162
  156.5126  130.8442  151.2652 H   0  0  0  0  0  0  0  0  0  0  0  0  # atno 10718 bound_to 10713
  154.6743  135.2944  154.9699 H   0  0  0  0  0  0  0  0  0  0  0  0  # atno 10763 bound_to 10752
  154.0716  135.6617  153.4829 H   0  0  0  0  0  0  0  0  0  0  0  0  # atno 10764 bound_to 10752
  153.0506  135.5176  154.7755 H   0  0  0  0  0  0  0  0  0  0  0  0  # atno 10765 bound_to 10752
  140.0277  134.9367  157.0600 H   0  0  0  0  0  0  0  0  0  0  0  0  # atno 11005 bound_to 11000
  145.6640  139.1586  143.2792 LP  0  0  0  0  0  0  0  0  0  0  0  0  # atno 17320 bound_to 7965
  146.1660  140.6717  142.9255 LP  0  0  0  0  0  0  0  0  0  0  0  0  # atno 17321 bound_to 7965
  139.7302  143.9085  152.3016 LP  0  0  0  0  0  0  0  0  0  0  0  0  # atno 17342 bound_to 10162
  139.8871  144.6986  150.8812 LP  0  0  0  0  0  0  0  0  0  0  0  0  # atno 17343 bound_to 10162
  157.7448  130.9944  150.2708 LP  0  0  0  0  0  0  0  0  0  0  0  0  # atno 17370 bound_to 10713
  156.3226  130.3788  149.7562 LP  0  0  0  0  0  0  0  0  0  0  0  0  # atno 17371 bound_to 10713
  140.4279  134.1811  155.7167 LP  0  0  0  0  0  0  0  0  0  0  0  0  # atno 17394 bound_to 11000
  141.1812  133.8409  157.1250 LP  0  0  0  0  0  0  0  0  0  0  0  0  # atno 17395 bound_to 11000

$$$$
