AV-unprocessed.smi:757|AV-procd|sdf|3616|dock8
  -GOLD-   22720 1 13D 1   1.00000     0.00000
 Structure written by MMmdl.
 44 45  0  0  0  0  0  0  0  0  1 V2000
  152.2773  144.5396  158.3332 C   0  0  0  0  0  0  0  0  0  0  0  0
  151.7018  143.6352  157.7486 C   0  0  0  0  0  0  0  0  0  0  0  0
  151.0236  142.5398  157.0330 C   0  0  0  0  0  0  0  0  0  0  0  0
  151.3056  141.1349  157.6074 C   0  0  0  0  0  0  0  0  0  0  0  0
  150.7688  140.0476  156.7852 N   0  0  0  0  0  0  0  0  0  0  0  0
  150.9004  138.7883  157.5218 C   0  0  0  0  0  0  0  0  0  0  0  0
  150.2553  137.6329  156.7370 C   0  0  0  0  0  0  0  0  0  0  0  0
  150.8996  137.4832  155.3491 C   0  0  0  0  0  0  0  0  0  0  0  0
  150.1942  136.4862  154.5494 N   0  0  0  0  0  0  0  0  0  0  0  0
  149.9921  135.2103  154.9071 C   0  0  0  0  0  0  0  0  0  0  0  0
  150.3694  134.7381  155.9793 O   0  0  0  0  0  0  0  0  0  0  0  0
  149.3170  134.5425  153.9561 N   0  0  0  0  0  0  0  0  0  0  0  0
  148.9450  133.1710  153.9266 C   0  0  0  0  0  0  0  0  0  0  0  0
  147.8550  132.6534  153.1864 C   0  0  0  0  0  0  0  0  0  0  0  0
  147.5770  131.2750  153.2581 C   0  0  0  0  0  0  0  0  0  0  0  0
  148.3876  130.4569  154.0698 C   0  0  0  0  0  0  0  0  0  0  0  0
  148.1075  129.1074  154.1349 O   0  0  0  0  0  0  0  0  0  0  0  0
  146.8440  128.6557  153.6602 C   0  0  0  0  0  0  0  0  0  0  0  0
  149.4260  130.9474  154.7906 N   0  0  0  0  0  0  0  0  0  0  0  0
  149.6868  132.2695  154.7176 C   0  0  0  0  0  0  0  0  0  0  0  0
  150.8687  138.8416  154.6342 C   0  0  0  0  0  0  0  0  0  0  0  0
  151.4872  139.9445  155.5106 C   0  0  0  0  0  0  0  0  0  0  0  0
  152.7828  145.3298  158.8416 H   0  0  0  0  0  0  0  0  0  0  0  0
  149.9579  142.7622  157.0000 H   0  0  0  0  0  0  0  0  0  0  0  0
  151.3715  142.5789  156.0006 H   0  0  0  0  0  0  0  0  0  0  0  0
  152.3786  140.9945  157.7467 H   0  0  0  0  0  0  0  0  0  0  0  0
  150.8605  141.0842  158.6026 H   0  0  0  0  0  0  0  0  0  0  0  0
  151.9525  138.5740  157.7172 H   0  0  0  0  0  0  0  0  0  0  0  0
  150.4070  138.8764  158.4906 H   0  0  0  0  0  0  0  0  0  0  0  0
  150.3569  136.7054  157.3014 H   0  0  0  0  0  0  0  0  0  0  0  0
  149.1847  137.8178  156.6355 H   0  0  0  0  0  0  0  0  0  0  0  0
  151.9422  137.1820  155.4694 H   0  0  0  0  0  0  0  0  0  0  0  0
  149.8415  136.7910  153.6540 H   0  0  0  0  0  0  0  0  0  0  0  0
  149.0006  135.0915  153.1701 H   0  0  0  0  0  0  0  0  0  0  0  0
  147.2200  133.2806  152.5807 H   0  0  0  0  0  0  0  0  0  0  0  0
  146.7517  130.8537  152.7033 H   0  0  0  0  0  0  0  0  0  0  0  0
  146.7784  127.5748  153.7828 H   0  0  0  0  0  0  0  0  0  0  0  0
  146.7135  128.8765  152.5999 H   0  0  0  0  0  0  0  0  0  0  0  0
  146.0232  129.1025  154.2231 H   0  0  0  0  0  0  0  0  0  0  0  0
  150.5195  132.6181  155.3111 H   0  0  0  0  0  0  0  0  0  0  0  0
  151.4082  138.7777  153.6886 H   0  0  0  0  0  0  0  0  0  0  0  0
  149.8408  139.1121  154.3866 H   0  0  0  0  0  0  0  0  0  0  0  0
  151.4336  140.8861  154.9661 H   0  0  0  0  0  0  0  0  0  0  0  0
  152.5438  139.7388  155.6891 H   0  0  0  0  0  0  0  0  0  0  0  0
  1  2  3  0  0  0  0
  1 23  1  0  0  0  0
  2  3  1  0  0  0  0
  3  4  1  0  0  0  0
  3 24  1  0  0  0  0
  3 25  1  0  0  0  0
  4  5  1  0  0  0  0
  4 26  1  0  0  0  0
  4 27  1  0  0  0  0
  5 22  1  0  0  0  0
  5  6  1  0  0  0  0
  6  7  1  0  0  0  0
  6 28  1  0  0  0  0
  6 29  1  0  0  0  0
  7  8  1  0  0  0  0
  7 30  1  0  0  0  0
  7 31  1  0  0  0  0
  8  9  1  0  0  0  0
  8 21  1  0  0  0  0
  8 32  1  0  0  0  0
  9 10  1  0  0  0  0
  9 33  1  0  0  0  0
 10 11  2  0  0  0  0
 10 12  1  0  0  0  0
 12 13  1  0  0  0  0
 12 34  1  0  0  0  0
 13 20  1  0  0  0  0
 13 14  2  0  0  0  0
 14 15  1  0  0  0  0
 14 35  1  0  0  0  0
 15 16  2  0  0  0  0
 15 36  1  0  0  0  0
 16 17  1  0  0  0  0
 16 19  1  0  0  0  0
 17 18  1  0  0  0  0
 18 37  1  0  0  0  0
 18 38  1  0  0  0  0
 18 39  1  0  0  0  0
 19 20  2  0  0  0  0
 20 40  1  0  0  0  0
 21 22  1  0  0  0  0
 21 41  1  0  0  0  0
 21 42  1  0  0  0  0
 22 43  1  0  0  0  0
 22 44  1  0  0  0  0
M  END
> <s_m_source_file>
AV-unprocessed.smi

> <i_m_source_file_index>
757

> <i_lp_mmshare_version>
43012

> <i_f3d_flags>
0

> <s_epik_input>
W0NIXSNDW0NIMl1bQ0gyXU4xW0NIMl1bQ0gyXVtDSF0oW0NIMl1bQ0gyXTEpW05IXUMoPU8pW05IXWMyW2NIXVtjSF1jKE9bQ0gzXSluW2NIXTI=

> <s_epik_cmdline>
J2VwaWtfcHl0aG9uJywgJy1waCcsICc3LjAnLCAnLXRuJywgJzgnLCAnLW1hJywgJzIwMCcsICctbWV0YWxfYmluZGluZycsICctaW1hZScsICc8aW5maWxlLm1hZT4nLCAnLW9tYWUnLCAnPG91dGZpbGUubWFlPic=

> <r_lp_tautomer_probability>
1

> <r_epik_Ionization_Penalty>
1.61445

> <r_epik_Ionization_Penalty_Charging>
0

> <r_epik_Ionization_Penalty_Neutral>
1.61445

> <r_epik_State_Penalty>
1.71357

> <r_epik_Charging_Adjusted_Penalty>
1.71357

> <i_epik_Tot_Q>
0

> <i_epik_Tot_abs_Q>
0

> <r_epik_Metal_State_Penalty>
1.71356

> <b_epik_Metal_Only>
0

> <s_lp_Force_Field>
OPLS_2005

> <r_lp_Energy>
17.5598

> <b_lp_Chiralities_Consistent>
1

> <s_lp_Variant>
AV-unprocessed.smi:757-3

> <Gold.Version>
5.8.1

> <Gold.Id.Protein>
6NUR|6NUR_protein|mol2

> <Gold.PLP.Fitness>
43.7617

> <Gold.PLP.PLP>
-38.7496

> <Gold.PLP.part.hbond>
-2.3499

> <Gold.PLP.part.metal>
0.0000

> <Gold.PLP.part.buried>
-3.2716

> <Gold.PLP.part.nonpolar>
-34.2082

> <Gold.PLP.part.repulsive>
0.1943

> <Gold.PLP.ligand.clash>
0.0189

> <Gold.PLP.ligand.torsion>
0.3787

> <Gold.PLP.Chemscore.Hbond>
1.9280

> <Gold.PLP.Chemscore.CHOScore>
0.0000

> <Gold.PLP.Chemscore.Metal>
0.0000

> <Gold.Chemscore.Hbonds>
donor molecule, donor type, donor heavy atom, donor atom, acceptor molecule, acceptor atom, score
      L1  H     9    33       P1  7948  0.90
      L1  H    12    34       P1  7948  1.00

> <Gold.PLP.Chemscore.Internal.Correction>
0.0045

> <Gold.Rescore>
     Score         DG    S(hbond)    S(metal)    S(lipo)     H(rot)  DE(clash)    DE(int)     intcor
     14.87     -17.52       1.46        0.00      95.07       1.55       0.05       2.60       ----

> <Gold.Chemscore.Fitness>
14.8662

> <Gold.Chemscore.DG>
-17.5165

> <Gold.Chemscore.ZeroCoef>
-5.4800

> <Gold.Chemscore.Hbond>
1.4628

> <Gold.Chemscore.Metal>
0.0000

> <Gold.Chemscore.Lipo>
95.0714

> <Gold.Chemscore.Internal_Hbond>
0.0000

> <Gold.Chemscore.DEClash>
0.0537

> <Gold.Chemscore.DEInternal>
2.5965

> <Gold.Chemscore.Rot>
1.5517

> <Gold.Chemscore.Internal.Correction>
   9.000000E+99

> <Gold.Chemscore.Hbonds>
donor molecule, donor type, donor heavy atom, donor atom, acceptor molecule, acceptor atom, score
      L1  H     9    33       P1  7948  0.37
      L1  H    12    34       P1  7948  0.25

> <Gold.Chemscore.Hbond.Weighted>
-4.8856

> <Gold.Chemscore.Metal.Weighted>
-0.0000

> <Gold.Chemscore.Lipo.Weighted>
-11.1234

> <Gold.Chemscore.Internal_Hbond.Weighted>
0.0000

> <Gold.Chemscore.DEClash.Weighted>
0.0537

> <Gold.Chemscore.DEInternal.Weighted>
2.5965

> <Gold.Chemscore.Rot.Weighted>
3.9725

> <Gold.Chemscore.Internal.Correction.Weighted>
   9.000000E+99

> <Gold.Protein.RotatedTorsions>
[ 6907 6896 6895 6894 ] final -171.22 input  -60.11 | X-H torsion
[ 7974 7965 7964 7962 ] final  -97.44 input  175.53 | X-H torsion
[ 8008 7997 7996 7995 ] final  -52.50 input   59.86 | X-H torsion
[ 10167 10162 10161 10158 ] final  -42.65 input  -65.29 | X-H torsion
[ 10718 10713 10712 10709 ] final   28.03 input   66.30 | X-H torsion
[ 10763 10752 10751 10750 ] final  -10.04 input  -60.55 | X-H torsion
[ 11005 11000 10999 10996 ] final  -16.71 input  -57.11 | X-H torsion

> <Gold.Protein.ActiveResidues>
 VAL166  LYS551  ARG553  GLY616  TRP617  ASP618  TYR619  PRO620  LYS621  CYS622 
 ASP623  PHE694  ASN695  SER759  ASP760  ASP761  ALA762  ILE779  LEU786  VAL792 
 PHE793  MET794  SER795  GLU796  ALA797  LYS798  CYS799  TRP800  GLU811  SER814 

> <Gold.Protein.RotatedAtoms>
  151.5203  133.3468  159.2899 H   0  0  0  0  0  0  0  0  0  0  0  0  # atno 6907 bound_to 6896
  150.8656  134.8021  159.7127 H   0  0  0  0  0  0  0  0  0  0  0  0  # atno 6908 bound_to 6896
  152.4662  134.5079  159.9796 H   0  0  0  0  0  0  0  0  0  0  0  0  # atno 6909 bound_to 6896
  145.3337  140.9446  143.2647 H   0  0  0  0  0  0  0  0  0  0  0  0  # atno 7974 bound_to 7965
  154.4108  140.1222  156.5001 H   0  0  0  0  0  0  0  0  0  0  0  0  # atno 8008 bound_to 7997
  155.6903  140.3495  155.4871 H   0  0  0  0  0  0  0  0  0  0  0  0  # atno 8009 bound_to 7997
  155.9475  140.1098  157.0995 H   0  0  0  0  0  0  0  0  0  0  0  0  # atno 8010 bound_to 7997
  140.6962  143.3026  151.3239 H   0  0  0  0  0  0  0  0  0  0  0  0  # atno 10167 bound_to 10162
  157.2281  130.7010  149.6300 H   0  0  0  0  0  0  0  0  0  0  0  0  # atno 10718 bound_to 10713
  153.4635  135.7016  153.6036 H   0  0  0  0  0  0  0  0  0  0  0  0  # atno 10763 bound_to 10752
  153.4320  135.3800  155.2176 H   0  0  0  0  0  0  0  0  0  0  0  0  # atno 10764 bound_to 10752
  154.8727  135.3953  154.4064 H   0  0  0  0  0  0  0  0  0  0  0  0  # atno 10765 bound_to 10752
  140.8095  133.8152  155.9549 H   0  0  0  0  0  0  0  0  0  0  0  0  # atno 11005 bound_to 11000
  144.8844  139.4860  143.6708 LP  0  0  0  0  0  0  0  0  0  0  0  0  # atno 17320 bound_to 7965
  146.3035  139.7504  142.9073 LP  0  0  0  0  0  0  0  0  0  0  0  0  # atno 17321 bound_to 7965
  139.6420  144.0522  152.2561 LP  0  0  0  0  0  0  0  0  0  0  0  0  # atno 17342 bound_to 10162
  140.0030  144.6279  150.7713 LP  0  0  0  0  0  0  0  0  0  0  0  0  # atno 17343 bound_to 10162
  155.9677  130.4498  150.5672 LP  0  0  0  0  0  0  0  0  0  0  0  0  # atno 17370 bound_to 10713
  157.3507  131.0733  151.1715 LP  0  0  0  0  0  0  0  0  0  0  0  0  # atno 17371 bound_to 10713
  140.9212  134.2139  157.4925 LP  0  0  0  0  0  0  0  0  0  0  0  0  # atno 17394 bound_to 11000
  139.8715  134.9793  156.5032 LP  0  0  0  0  0  0  0  0  0  0  0  0  # atno 17395 bound_to 11000

$$$$
