AV-unprocessed.smi:1213|AV-procd|sdf|5090|dock8
  -GOLD-   22720 4143D 1   1.00000     0.00000
 Structure written by MMmdl.
 36 37  0  0  0  0  0  0  0  0  3 V2000
  147.8224  132.4533  151.9119 N   0  0  0  0  0  0  0  0  0  0  0  0
  148.2807  132.6058  153.1563 C   0  0  0  0  0  0  0  0  0  0  0  0
  149.2200  131.9436  153.5938 O   0  0  0  0  0  0  0  0  0  0  0  0
  147.5924  133.6678  154.0205 C   0  0  0  0  0  0  0  0  0  0  0  0
  148.4381  134.8663  154.2568 N   0  3  2  0  0  0  0  0  0  0  0  0
  149.8536  134.5310  154.5694 C   0  0  0  0  0  0  0  0  0  0  0  0
  150.7142  135.8010  154.6697 C   0  0  0  0  0  0  0  0  0  0  0  0
  150.1471  136.7712  155.7180 C   0  0  1  0  0  0  0  0  0  0  0  0
  150.9363  137.9989  155.7345 N   0  0  0  0  0  0  0  0  0  0  0  0
  151.0184  138.8944  154.7401 C   0  0  0  0  0  0  0  0  0  0  0  0
  150.3916  138.7113  153.6939 O   0  0  0  0  0  0  0  0  0  0  0  0
  151.8244  139.9426  155.0202 N   0  5  0  0  0  0  0  0  0  0  0  0
  151.6780  140.6124  156.1749 C   0  0  0  0  0  0  0  0  0  0  0  0
  152.3848  140.3315  157.2755 N   0  0  0  0  0  0  0  0  0  0  0  0
  152.0771  141.1568  158.3587 C   0  0  0  0  0  0  0  0  0  0  0  0
  151.1192  142.0934  158.0737 C   0  0  0  0  0  0  0  0  0  0  0  0
  150.5720  141.9661  156.4263 S   0  0  0  0  0  0  0  0  0  0  0  0
  148.6723  137.0723  155.3952 C   0  0  0  0  0  0  0  0  0  0  0  0
  147.8549  135.7766  155.2751 C   0  0  0  0  0  0  0  0  0  0  0  0
  148.2472  131.7681  151.3029 H   0  0  0  0  0  0  0  0  0  0  0  0
  147.0576  133.0218  151.5772 H   0  0  0  0  0  0  0  0  0  0  0  0
  146.6845  133.9584  153.4903 H   0  0  0  0  0  0  0  0  0  0  0  0
  147.2750  133.2401  154.9731 H   0  0  0  0  0  0  0  0  0  0  0  0
  149.8993  133.9738  155.5065 H   0  0  0  0  0  0  0  0  0  0  0  0
  150.2667  133.8813  153.7975 H   0  0  0  0  0  0  0  0  0  0  0  0
  151.7399  135.5321  154.9250 H   0  0  0  0  0  0  0  0  0  0  0  0
  150.7556  136.2883  153.6944 H   0  0  0  0  0  0  0  0  0  0  0  0
  150.2100  136.2926  156.6972 H   0  0  0  0  0  0  0  0  0  0  0  0
  151.4659  138.1925  156.5721 H   0  0  0  0  0  0  0  0  0  0  0  0
  152.5912  141.0072  159.2964 H   0  0  0  0  0  0  0  0  0  0  0  0
  150.7052  142.8465  158.7268 H   0  0  0  0  0  0  0  0  0  0  0  0
  148.2375  137.7077  156.1678 H   0  0  0  0  0  0  0  0  0  0  0  0
  148.6041  137.6329  154.4614 H   0  0  0  0  0  0  0  0  0  0  0  0
  146.8294  136.0275  155.0020 H   0  0  0  0  0  0  0  0  0  0  0  0
  147.8118  135.2671  156.2391 H   0  0  0  0  0  0  0  0  0  0  0  0
  148.4442  135.3818  153.3877 H   0  0  0  0  0  0  0  0  0  0  0  0
  1  2  1  0  0  0  0
  1 20  1  0  0  0  0
  1 21  1  0  0  0  0
  2  3  2  0  0  0  0
  2  4  1  0  0  0  0
  4  5  1  0  0  0  0
  4 22  1  0  0  0  0
  4 23  1  0  0  0  0
  5 19  1  0  0  0  0
  5  6  1  0  0  0  0
  5 36  1  0  0  0  0
  6  7  1  0  0  0  0
  6 24  1  0  0  0  0
  6 25  1  0  0  0  0
  7  8  1  0  0  0  0
  7 26  1  0  0  0  0
  7 27  1  0  0  0  0
  8  9  1  0  0  0  0
  8 18  1  0  0  0  0
  8 28  1  0  0  0  0
  9 10  1  0  0  0  0
  9 29  1  0  0  0  0
 10 11  2  0  0  0  0
 10 12  1  0  0  0  0
 12 13  1  0  0  0  0
 13 17  1  0  0  0  0
 13 14  2  0  0  0  0
 14 15  1  0  0  0  0
 15 16  2  0  0  0  0
 15 30  1  0  0  0  0
 16 17  1  0  0  0  0
 16 31  1  0  0  0  0
 18 19  1  0  0  0  0
 18 32  1  0  0  0  0
 18 33  1  0  0  0  0
 19 34  1  0  0  0  0
 19 35  1  0  0  0  0
M  CHG  1   5   1
M  CHG  1  12  -1
M  END
> <s_m_source_file>
AV-unprocessed.smi

> <i_m_source_file_index>
1213

> <i_lp_mmshare_version>
43012

> <i_f3d_flags>
0

> <s_epik_input>
W05IMl1DKD1PKVtDSDJdTjFbQ0gyXVtDSDJdW0NIXShbQ0gyXVtDSDJdMSlbTkhdQyg9TylbTkhdYzJuW2NIXVtjSF1zMg==

> <s_epik_cmdline>
J2VwaWtfcHl0aG9uJywgJy1waCcsICc3LjAnLCAnLXRuJywgJzgnLCAnLW1hJywgJzIwMCcsICctbWV0YWxfYmluZGluZycsICctaW1hZScsICc8aW5maWxlLm1hZT4nLCAnLW9tYWUnLCAnPG91dGZpbGUubWFlPic=

> <r_lp_tautomer_probability>
0.999

> <r_epik_Ionization_Penalty>
7.1168

> <r_epik_Ionization_Penalty_Charging>
6.25003

> <r_epik_Ionization_Penalty_Neutral>
0.866763

> <r_epik_State_Penalty>
6.33484

> <r_epik_Charging_Adjusted_Penalty>
12.5849

> <i_epik_Tot_Q>
0

> <i_epik_Tot_abs_Q>
2

> <r_epik_Metal_State_Penalty>
2.3501

> <b_epik_Metal_Only>
1

> <s_lp_Force_Field>
OPLS_2005

> <r_lp_Energy>
2.02951

> <b_lp_Chiralities_Consistent>
1

> <s_lp_Variant>
AV-unprocessed.smi:1213-7

> <Gold.Version>
5.8.1

> <Gold.Id.Protein>
6NUR|6NUR_protein|mol2

> <Gold.PLP.Fitness>
39.6069

> <Gold.PLP.PLP>
-27.5826

> <Gold.PLP.part.hbond>
-4.0000

> <Gold.PLP.part.metal>
0.0000

> <Gold.PLP.part.buried>
-3.6575

> <Gold.PLP.part.nonpolar>
-19.1790

> <Gold.PLP.part.repulsive>
0.8958

> <Gold.PLP.ligand.clash>
0.0000

> <Gold.PLP.ligand.torsion>
1.4271

> <Gold.PLP.Chemscore.Hbond>
4.9440

> <Gold.PLP.Chemscore.CHOScore>
0.0000

> <Gold.PLP.Chemscore.Metal>
0.0000

> <Gold.Chemscore.Hbonds>
donor molecule, donor type, donor heavy atom, donor atom, acceptor molecule, acceptor atom, score
      L1  H     1    20       P1 10747  1.00
      L1  H     5    36       P1  7948  2.00
      P1  H  7989  7998       L1    12  0.96
      P1  H  7997  8009       L1    14  0.80

> <Gold.PLP.Chemscore.Internal.Correction>
0.0466

> <Gold.Rescore>
     Score         DG    S(hbond)    S(metal)    S(lipo)     H(rot)  DE(clash)    DE(int)     intcor
     10.64     -15.59       3.05        0.00      44.06       2.04       0.34       4.61       ----

> <Gold.Chemscore.Fitness>
10.6434

> <Gold.Chemscore.DG>
-15.5927

> <Gold.Chemscore.ZeroCoef>
-5.4800

> <Gold.Chemscore.Hbond>
3.0458

> <Gold.Chemscore.Metal>
0.0000

> <Gold.Chemscore.Lipo>
44.0600

> <Gold.Chemscore.Internal_Hbond>
0.0000

> <Gold.Chemscore.DEClash>
0.3425

> <Gold.Chemscore.DEInternal>
4.6069

> <Gold.Chemscore.Rot>
2.0373

> <Gold.Chemscore.Internal.Correction>
   9.000000E+99

> <Gold.Chemscore.Hbonds>
donor molecule, donor type, donor heavy atom, donor atom, acceptor molecule, acceptor atom, score
      L1  H     1    20       P1 10747  0.95
      L1  H     5    36       P1  7948  0.98
      P1  H  7989  7998       L1    12  0.23
      P1  H  7997  8009       L1    14  0.47

> <Gold.Chemscore.Hbond.Weighted>
-10.1731

> <Gold.Chemscore.Metal.Weighted>
-0.0000

> <Gold.Chemscore.Lipo.Weighted>
-5.1550

> <Gold.Chemscore.Internal_Hbond.Weighted>
0.0000

> <Gold.Chemscore.DEClash.Weighted>
0.3425

> <Gold.Chemscore.DEInternal.Weighted>
4.6069

> <Gold.Chemscore.Rot.Weighted>
5.2154

> <Gold.Chemscore.Internal.Correction.Weighted>
   9.000000E+99

> <Gold.Protein.RotatedTorsions>
[ 6907 6896 6895 6894 ] final  155.09 input  -60.11 | X-H torsion
[ 7974 7965 7964 7962 ] final -168.89 input  175.53 | X-H torsion
[ 8008 7997 7996 7995 ] final  175.40 input   59.86 | X-H torsion
[ 10167 10162 10161 10158 ] final   -8.83 input  -65.29 | X-H torsion
[ 10718 10713 10712 10709 ] final  -49.98 input   66.30 | X-H torsion
[ 10763 10752 10751 10750 ] final -121.06 input  -60.55 | X-H torsion
[ 11005 11000 10999 10996 ] final   12.25 input  -57.11 | X-H torsion

> <Gold.Protein.ActiveResidues>
 VAL166  LYS551  ARG553  GLY616  TRP617  ASP618  TYR619  PRO620  LYS621  CYS622 
 ASP623  PHE694  ASN695  SER759  ASP760  ASP761  ALA762  ILE779  LEU786  VAL792 
 PHE793  MET794  SER795  GLU796  ALA797  LYS798  CYS799  TRP800  GLU811  SER814 

> <Gold.Protein.RotatedAtoms>
  152.0491  133.4011  159.4369 H   0  0  0  0  0  0  0  0  0  0  0  0  # atno 6907 bound_to 6896
  150.6871  134.3328  159.4844 H   0  0  0  0  0  0  0  0  0  0  0  0  # atno 6908 bound_to 6896
  152.1136  134.9256  160.0616 H   0  0  0  0  0  0  0  0  0  0  0  0  # atno 6909 bound_to 6896
  144.7195  140.2303  143.6305 H   0  0  0  0  0  0  0  0  0  0  0  0  # atno 7974 bound_to 7965
  156.0874  140.1410  156.9636 H   0  0  0  0  0  0  0  0  0  0  0  0  # atno 8008 bound_to 7997
  154.4621  140.0939  156.6969 H   0  0  0  0  0  0  0  0  0  0  0  0  # atno 8009 bound_to 7997
  155.4976  140.3450  155.4368 H   0  0  0  0  0  0  0  0  0  0  0  0  # atno 8010 bound_to 7997
  140.7070  143.5925  150.8879 H   0  0  0  0  0  0  0  0  0  0  0  0  # atno 10167 bound_to 10162
  156.1843  130.4151  149.9461 H   0  0  0  0  0  0  0  0  0  0  0  0  # atno 10718 bound_to 10713
  154.8659  135.4181  154.2559 H   0  0  0  0  0  0  0  0  0  0  0  0  # atno 10763 bound_to 10752
  153.3496  135.6998  153.6805 H   0  0  0  0  0  0  0  0  0  0  0  0  # atno 10764 bound_to 10752
  153.5750  135.3584  155.2825 H   0  0  0  0  0  0  0  0  0  0  0  0  # atno 10765 bound_to 10752
  140.4941  134.0811  155.7778 H   0  0  0  0  0  0  0  0  0  0  0  0  # atno 11005 bound_to 11000
  145.8417  139.2133  143.1823 LP  0  0  0  0  0  0  0  0  0  0  0  0  # atno 17320 bound_to 7965
  146.0340  140.8230  142.9862 LP  0  0  0  0  0  0  0  0  0  0  0  0  # atno 17321 bound_to 7965
  139.9651  143.6120  152.2991 LP  0  0  0  0  0  0  0  0  0  0  0  0  # atno 17342 bound_to 10162
  139.6686  144.7661  151.1825 LP  0  0  0  0  0  0  0  0  0  0  0  0  # atno 17343 bound_to 10162
  156.7222  130.9011  151.3619 LP  0  0  0  0  0  0  0  0  0  0  0  0  # atno 17370 bound_to 10713
  157.6889  130.9213  150.0459 LP  0  0  0  0  0  0  0  0  0  0  0  0  # atno 17371 bound_to 10713
  141.1469  133.9039  157.2193 LP  0  0  0  0  0  0  0  0  0  0  0  0  # atno 17394 bound_to 11000
  139.9752  135.0116  156.9612 LP  0  0  0  0  0  0  0  0  0  0  0  0  # atno 17395 bound_to 11000

$$$$
