AV-unprocessed.smi:3303|AV-procd|sdf|12661|dock1
  -GOLD-   2272018593D 1   1.00000     0.00000
 Structure written by MMmdl.
 45 46  0  0  0  0  0  0  0  0  3 V2000
  146.8572  142.9529  154.5369 C   0  0  0  0  0  0  0  0  0  0  0  0
  147.7488  141.8597  153.9209 C   0  0  2  0  0  0  0  0  0  0  0  0
  146.8792  140.8438  153.1493 C   0  0  0  0  0  0  0  0  0  0  0  0
  147.7009  139.7669  152.5420 N   0  3  2  0  0  0  0  0  0  0  0  0
  146.9250  138.8977  151.6280 C   0  0  0  0  0  0  0  0  0  0  0  0
  148.5273  139.0249  153.5357 C   0  0  2  0  0  0  0  0  0  0  0  0
  147.7045  138.1143  154.4729 C   0  0  0  0  0  0  0  0  0  0  0  0
  149.4224  140.0096  154.3145 C   0  0  0  0  0  0  0  0  0  0  0  0
  148.6177  141.1457  154.9831 C   0  0  1  0  0  0  0  0  0  0  0  0
  149.5260  142.1113  155.6463 N   0  3  0  0  0  0  0  0  0  0  0  0
  149.7524  141.8765  157.0876 C   0  0  0  0  0  0  0  0  0  0  0  0
  151.2305  142.0720  157.4509 C   0  0  0  0  0  0  0  0  0  0  0  0
  151.4072  143.0022  158.6357 C   0  0  0  0  0  0  0  0  0  0  0  0
  152.1076  142.5815  159.7862 C   0  0  0  0  0  0  0  0  0  0  0  0
  152.2512  143.4902  160.8526 C   0  0  0  0  0  0  0  0  0  0  0  0
  151.6931  144.7771  160.7271 C   0  0  0  0  0  0  0  0  0  0  0  0
  151.0132  145.1000  159.5358 C   0  0  0  0  0  0  0  0  0  0  0  0
  150.8710  144.2366  158.5067 N   0  0  0  0  0  0  0  0  0  0  0  0
  146.1805  142.5388  155.2852 H   0  0  0  0  0  0  0  0  0  0  0  0
  146.2479  143.4373  153.7731 H   0  0  0  0  0  0  0  0  0  0  0  0
  147.4473  143.7333  155.0175 H   0  0  0  0  0  0  0  0  0  0  0  0
  148.4139  142.3407  153.2015 H   0  0  0  0  0  0  0  0  0  0  0  0
  146.1211  140.4108  153.8031 H   0  0  0  0  0  0  0  0  0  0  0  0
  146.3397  141.3632  152.3558 H   0  0  0  0  0  0  0  0  0  0  0  0
  146.1035  138.4016  152.1455 H   0  0  0  0  0  0  0  0  0  0  0  0
  147.5639  138.1349  151.1817 H   0  0  0  0  0  0  0  0  0  0  0  0
  146.4990  139.4873  150.8155 H   0  0  0  0  0  0  0  0  0  0  0  0
  149.1934  138.3735  152.9680 H   0  0  0  0  0  0  0  0  0  0  0  0
  148.3567  137.6053  155.1830 H   0  0  0  0  0  0  0  0  0  0  0  0
  147.1772  137.3366  153.9205 H   0  0  0  0  0  0  0  0  0  0  0  0
  146.9669  138.6677  155.0528 H   0  0  0  0  0  0  0  0  0  0  0  0
  150.0026  139.4583  155.0544 H   0  0  0  0  0  0  0  0  0  0  0  0
  150.1501  140.4435  153.6269 H   0  0  0  0  0  0  0  0  0  0  0  0
  147.9557  140.7259  155.7419 H   0  0  0  0  0  0  0  0  0  0  0  0
  150.4147  142.1145  155.1663 H   0  0  0  0  0  0  0  0  0  0  0  0
  149.1370  142.5663  157.6668 H   0  0  0  0  0  0  0  0  0  0  0  0
  149.4400  140.8659  157.3506 H   0  0  0  0  0  0  0  0  0  0  0  0
  151.6898  141.1103  157.6864 H   0  0  0  0  0  0  0  0  0  0  0  0
  151.7767  142.4721  156.5952 H   0  0  0  0  0  0  0  0  0  0  0  0
  152.5267  141.5880  159.8539 H   0  0  0  0  0  0  0  0  0  0  0  0
  152.7802  143.2056  161.7501 H   0  0  0  0  0  0  0  0  0  0  0  0
  151.7835  145.4999  161.5245 H   0  0  0  0  0  0  0  0  0  0  0  0
  150.5734  146.0779  159.4053 H   0  0  0  0  0  0  0  0  0  0  0  0
  149.1129  143.0290  155.5576 H   0  0  0  0  0  0  0  0  0  0  0  0
  148.3659  140.2409  151.9473 H   0  0  0  0  0  0  0  0  0  0  0  0
  1  2  1  0  0  0  0
  1 19  1  0  0  0  0
  1 20  1  0  0  0  0
  1 21  1  0  0  0  0
  2  9  1  0  0  0  0
  2  3  1  0  0  0  0
  2 22  1  0  0  0  0
  3  4  1  0  0  0  0
  3 23  1  0  0  0  0
  3 24  1  0  0  0  0
  4  5  1  0  0  0  0
  4  6  1  0  0  0  0
  4 45  1  0  0  0  0
  5 25  1  0  0  0  0
  5 26  1  0  0  0  0
  5 27  1  0  0  0  0
  6  7  1  0  0  0  0
  6  8  1  0  0  0  0
  6 28  1  0  0  0  0
  7 29  1  0  0  0  0
  7 30  1  0  0  0  0
  7 31  1  0  0  0  0
  8  9  1  0  0  0  0
  8 32  1  0  0  0  0
  8 33  1  0  0  0  0
  9 10  1  0  0  0  0
  9 34  1  0  0  0  0
 10 11  1  0  0  0  0
 10 35  1  0  0  0  0
 10 44  1  0  0  0  0
 11 12  1  0  0  0  0
 11 36  1  0  0  0  0
 11 37  1  0  0  0  0
 12 13  1  0  0  0  0
 12 38  1  0  0  0  0
 12 39  1  0  0  0  0
 13 18  1  0  0  0  0
 13 14  2  0  0  0  0
 14 15  1  0  0  0  0
 14 40  1  0  0  0  0
 15 16  2  0  0  0  0
 15 41  1  0  0  0  0
 16 17  1  0  0  0  0
 16 42  1  0  0  0  0
 17 18  2  0  0  0  0
 17 43  1  0  0  0  0
M  CHG  1   4   1
M  CHG  1  10   1
M  END
> <s_m_source_file>
AV-unprocessed.smi

> <i_m_source_file_index>
3303

> <i_lp_mmshare_version>
43012

> <i_f3d_flags>
0

> <s_epik_input>
W0NIM11bQ0BASF0xW0NIMl1OKFtDSDNdKVtDQEBIXShbQ0gzXSlbQ0gyXVtDQEhdMVtOSF1bQ0gyXVtDSDJdYzJbY0hdW2NIXVtjSF1bY0hdbjI=

> <s_epik_cmdline>
J2VwaWtfcHl0aG9uJywgJy1waCcsICc3LjAnLCAnLXRuJywgJzgnLCAnLW1hJywgJzIwMCcsICctbWV0YWxfYmluZGluZycsICctaW1hZScsICc8aW5maWxlLm1hZT4nLCAnLW9tYWUnLCAnPG91dGZpbGUubWFlPic=

> <r_epik_Ionization_Penalty>
0.0769462

> <r_epik_Ionization_Penalty_Charging>
0.0759813

> <r_epik_Ionization_Penalty_Neutral>
0.000964829

> <r_epik_State_Penalty>
0.0654373

> <r_epik_Charging_Adjusted_Penalty>
0.141419

> <i_epik_Tot_Q>
2

> <i_epik_Tot_abs_Q>
2

> <r_epik_Metal_State_Penalty>
0.0656439

> <b_epik_Metal_Only>
0

> <s_lp_Force_Field>
OPLS_2005

> <r_lp_Energy>
28.3665

> <b_lp_Chiralities_Consistent>
1

> <s_lp_Variant>
AV-unprocessed.smi:3303-5

> <Gold.Version>
5.8.1

> <Gold.Id.Protein>
6NUR|6NUR_protein|mol2

> <Gold.PLP.Fitness>
47.6383

> <Gold.PLP.PLP>
-40.9286

> <Gold.PLP.part.hbond>
-2.0000

> <Gold.PLP.part.metal>
0.0000

> <Gold.PLP.part.buried>
-0.3532

> <Gold.PLP.part.nonpolar>
-38.1349

> <Gold.PLP.part.repulsive>
0.3955

> <Gold.PLP.ligand.clash>
0.0000

> <Gold.PLP.ligand.torsion>
1.1513

> <Gold.PLP.Chemscore.Hbond>
3.0000

> <Gold.PLP.Chemscore.CHOScore>
0.0000

> <Gold.PLP.Chemscore.Metal>
0.0000

> <Gold.Chemscore.Hbonds>
donor molecule, donor type, donor heavy atom, donor atom, acceptor molecule, acceptor atom, score
      L1  H     4    45       P1  7957  0.73
      L1  H    10    44       P1  8028  2.00

> <Gold.PLP.Chemscore.Internal.Correction>
0.0123

> <Gold.Rescore>
     Score         DG    S(hbond)    S(metal)    S(lipo)     H(rot)  DE(clash)    DE(int)     intcor
     21.43     -22.73       1.99        0.00     120.88       1.37       0.30       1.01       ----

> <Gold.Chemscore.Fitness>
21.4260

> <Gold.Chemscore.DG>
-22.7346

> <Gold.Chemscore.ZeroCoef>
-5.4800

> <Gold.Chemscore.Hbond>
1.9850

> <Gold.Chemscore.Metal>
0.0000

> <Gold.Chemscore.Lipo>
120.8807

> <Gold.Chemscore.Internal_Hbond>
0.0000

> <Gold.Chemscore.DEClash>
0.2980

> <Gold.Chemscore.DEInternal>
1.0106

> <Gold.Chemscore.Rot>
1.3744

> <Gold.Chemscore.Internal.Correction>
   9.000000E+99

> <Gold.Chemscore.Hbonds>
donor molecule, donor type, donor heavy atom, donor atom, acceptor molecule, acceptor atom, score
      L1  H     4    45       P1  7957  0.71
      L1  H    10    44       P1  8028  1.00

> <Gold.Chemscore.Hbond.Weighted>
-6.6300

> <Gold.Chemscore.Metal.Weighted>
-0.0000

> <Gold.Chemscore.Lipo.Weighted>
-14.1430

> <Gold.Chemscore.Internal_Hbond.Weighted>
0.0000

> <Gold.Chemscore.DEClash.Weighted>
0.2980

> <Gold.Chemscore.DEInternal.Weighted>
1.0106

> <Gold.Chemscore.Rot.Weighted>
3.5185

> <Gold.Chemscore.Internal.Correction.Weighted>
   9.000000E+99

> <Gold.Protein.RotatedTorsions>
[ 6907 6896 6895 6894 ] final   64.81 input  -60.11 | X-H torsion
[ 7974 7965 7964 7962 ] final -167.80 input  175.53 | X-H torsion
[ 8008 7997 7996 7995 ] final   79.33 input   59.86 | X-H torsion
[ 10167 10162 10161 10158 ] final -145.49 input  -65.29 | X-H torsion
[ 10718 10713 10712 10709 ] final  -29.32 input   66.30 | X-H torsion
[ 10763 10752 10751 10750 ] final  -96.65 input  -60.55 | X-H torsion
[ 11005 11000 10999 10996 ] final  162.44 input  -57.11 | X-H torsion

> <Gold.Protein.ActiveResidues>
 VAL166  LYS551  ARG553  GLY616  TRP617  ASP618  TYR619  PRO620  LYS621  CYS622 
 ASP623  PHE694  ASN695  SER759  ASP760  ASP761  ALA762  ILE779  LEU786  VAL792 
 PHE793  MET794  SER795  GLU796  ALA797  LYS798  CYS799  TRP800  GLU811  SER814 

> <Gold.Protein.RotatedAtoms>
  152.4360  134.5686  159.9914 H   0  0  0  0  0  0  0  0  0  0  0  0  # atno 6907 bound_to 6896
  151.5796  133.3373  159.3013 H   0  0  0  0  0  0  0  0  0  0  0  0  # atno 6908 bound_to 6896
  150.8258  134.7523  159.6876 H   0  0  0  0  0  0  0  0  0  0  0  0  # atno 6909 bound_to 6896
  144.7216  140.2465  143.6284 H   0  0  0  0  0  0  0  0  0  0  0  0  # atno 7974 bound_to 7965
  155.8682  140.3450  155.5803 H   0  0  0  0  0  0  0  0  0  0  0  0  # atno 8008 bound_to 7997
  155.7857  140.0864  157.2055 H   0  0  0  0  0  0  0  0  0  0  0  0  # atno 8009 bound_to 7997
  154.4015  140.1492  156.3091 H   0  0  0  0  0  0  0  0  0  0  0  0  # atno 8010 bound_to 7997
  139.7801  143.8114  152.2637 H   0  0  0  0  0  0  0  0  0  0  0  0  # atno 10167 bound_to 10162
  156.4139  130.4413  149.7232 H   0  0  0  0  0  0  0  0  0  0  0  0  # atno 10718 bound_to 10713
  154.7259  135.5075  153.8885 H   0  0  0  0  0  0  0  0  0  0  0  0  # atno 10763 bound_to 10752
  153.0904  135.6657  153.9874 H   0  0  0  0  0  0  0  0  0  0  0  0  # atno 10764 bound_to 10752
  153.9686  135.3040  155.3408 H   0  0  0  0  0  0  0  0  0  0  0  0  # atno 10765 bound_to 10752
  140.2258  134.8161  157.3267 H   0  0  0  0  0  0  0  0  0  0  0  0  # atno 11005 bound_to 11000
  145.8269  139.2068  143.1905 LP  0  0  0  0  0  0  0  0  0  0  0  0  # atno 17320 bound_to 7965
  146.0465  140.8113  142.9803 LP  0  0  0  0  0  0  0  0  0  0  0  0  # atno 17321 bound_to 7965
  139.8174  144.7310  150.9618 LP  0  0  0  0  0  0  0  0  0  0  0  0  # atno 17342 bound_to 10162
  140.7818  143.4192  151.0868 LP  0  0  0  0  0  0  0  0  0  0  0  0  # atno 17343 bound_to 10162
  156.4199  130.7764  151.2780 LP  0  0  0  0  0  0  0  0  0  0  0  0  # atno 17370 bound_to 10713
  157.7507  131.0186  150.3632 LP  0  0  0  0  0  0  0  0  0  0  0  0  # atno 17371 bound_to 10713
  140.1802  134.4499  155.7777 LP  0  0  0  0  0  0  0  0  0  0  0  0  # atno 17394 bound_to 11000
  141.2220  133.6980  156.7855 LP  0  0  0  0  0  0  0  0  0  0  0  0  # atno 17395 bound_to 11000

$$$$
