AV-unprocessed.smi:2557|AV-procd|sdf|10027|dock4
  -GOLD-   2272014 73D 1   1.00000     0.00000
 Structure written by MMmdl.
 38 40  0  0  0  0  0  0  0  0  2 V2000
  153.7164  136.2848  159.6634 O   0  5  0  0  0  0  0  0  0  0  0  0
  153.7959  137.3012  160.3934 C   0  0  0  0  0  0  0  0  0  0  0  0
  153.5752  138.6572  160.1398 C   0  0  0  0  0  0  0  0  0  0  0  0
  153.1409  139.1295  158.8151 C   0  0  0  0  0  0  0  0  0  0  0  0
  152.9459  138.4213  157.8281 O   0  0  0  0  0  0  0  0  0  0  0  0
  152.9578  140.4617  158.7343 N   0  0  0  0  0  0  0  0  0  0  0  0
  153.1537  141.3370  159.8047 C   0  0  0  0  0  0  0  0  0  0  0  0
  152.8763  142.7861  159.4016 C   0  0  0  0  0  0  0  0  0  0  0  0
  152.4792  143.6525  160.6187 C   0  0  0  0  0  0  0  0  0  0  0  0
  152.2447  145.1189  160.2190 C   0  0  0  0  0  0  0  0  0  0  0  0
  151.1976  145.2342  159.1007 C   0  0  0  0  0  0  0  0  0  0  0  0
  151.5944  144.3850  157.8839 C   0  0  0  0  0  0  0  0  0  0  0  0
  151.8164  142.9169  158.2821 C   0  0  0  0  0  0  0  0  0  0  0  0
  153.5407  140.9803  160.9919 N   0  0  0  0  0  0  0  0  0  0  0  0
  153.7455  139.6296  161.1509 N   0  0  0  0  0  0  0  0  0  0  0  0
  154.2702  136.8917  161.7295 C   0  0  0  0  0  0  0  0  0  0  0  0
  155.4710  136.1643  161.8830 C   0  0  0  0  0  0  0  0  0  0  0  0
  155.8759  135.7890  163.1789 C   0  0  0  0  0  0  0  0  0  0  0  0
  155.1718  136.0859  164.2920 N   0  0  0  0  0  0  0  0  0  0  0  0
  154.0202  136.7749  164.1414 C   0  0  0  0  0  0  0  0  0  0  0  0
  153.5271  137.1962  162.8911 C   0  0  0  0  0  0  0  0  0  0  0  0
  153.8094  143.1905  159.0045 H   0  0  0  0  0  0  0  0  0  0  0  0
  151.5727  143.2528  161.0762 H   0  0  0  0  0  0  0  0  0  0  0  0
  153.2530  143.6132  161.3864 H   0  0  0  0  0  0  0  0  0  0  0  0
  151.9249  145.6944  161.0881 H   0  0  0  0  0  0  0  0  0  0  0  0
  153.1846  145.5605  159.8854 H   0  0  0  0  0  0  0  0  0  0  0  0
  150.2261  144.9067  159.4733 H   0  0  0  0  0  0  0  0  0  0  0  0
  151.0804  146.2773  158.8057 H   0  0  0  0  0  0  0  0  0  0  0  0
  150.8214  144.4493  157.1175 H   0  0  0  0  0  0  0  0  0  0  0  0
  152.5058  144.7858  157.4385 H   0  0  0  0  0  0  0  0  0  0  0  0
  152.1237  142.3473  157.4038 H   0  0  0  0  0  0  0  0  0  0  0  0
  150.8667  142.4923  158.6116 H   0  0  0  0  0  0  0  0  0  0  0  0
  154.0437  139.3444  162.0773 H   0  0  0  0  0  0  0  0  0  0  0  0
  156.0685  135.9013  161.0226 H   0  0  0  0  0  0  0  0  0  0  0  0
  156.7908  135.2342  163.3254 H   0  0  0  0  0  0  0  0  0  0  0  0
  153.4741  136.9972  165.0461 H   0  0  0  0  0  0  0  0  0  0  0  0
  152.5989  137.7445  162.8228 H   0  0  0  0  0  0  0  0  0  0  0  0
  152.6615  140.8404  157.8472 H   0  0  0  0  0  0  0  0  0  0  0  0
  1  2  1  0  0  0  0
  2  3  2  0  0  0  0
  2 16  1  0  0  0  0
  3 15  1  0  0  0  0
  3  4  1  0  0  0  0
  4  5  2  0  0  0  0
  4  6  1  0  0  0  0
  6  7  1  0  0  0  0
  6 38  1  0  0  0  0
  7  8  1  0  0  0  0
  7 14  2  0  0  0  0
  8 13  1  0  0  0  0
  8  9  1  0  0  0  0
  8 22  1  0  0  0  0
  9 10  1  0  0  0  0
  9 23  1  0  0  0  0
  9 24  1  0  0  0  0
 10 11  1  0  0  0  0
 10 25  1  0  0  0  0
 10 26  1  0  0  0  0
 11 12  1  0  0  0  0
 11 27  1  0  0  0  0
 11 28  1  0  0  0  0
 12 13  1  0  0  0  0
 12 29  1  0  0  0  0
 12 30  1  0  0  0  0
 13 31  1  0  0  0  0
 13 32  1  0  0  0  0
 14 15  1  0  0  0  0
 15 33  1  0  0  0  0
 16 21  1  0  0  0  0
 16 17  2  0  0  0  0
 17 18  1  0  0  0  0
 17 34  1  0  0  0  0
 18 19  2  0  0  0  0
 18 35  1  0  0  0  0
 19 20  1  0  0  0  0
 20 21  2  0  0  0  0
 20 36  1  0  0  0  0
 21 37  1  0  0  0  0
M  CHG  1   1  -1
M  END
> <s_m_source_file>
AV-unprocessed.smi

> <i_m_source_file_index>
2557

> <i_lp_mmshare_version>
43012

> <i_f3d_flags>
0

> <s_epik_input>
W2NIXTFbY0hdbltjSF1bY0hdYzFDKD1PKUMyPUMoW09IXSlOPUMoW05IXVtOSF0yKVtDSF0zW0NIMl1bQ0gyXVtDSDJdW0NIMl1bQ0gyXTM=

> <s_epik_cmdline>
J2VwaWtfcHl0aG9uJywgJy1waCcsICc3LjAnLCAnLXRuJywgJzgnLCAnLW1hJywgJzIwMCcsICctbWV0YWxfYmluZGluZycsICctaW1hZScsICc8aW5maWxlLm1hZT4nLCAnLW9tYWUnLCAnPG91dGZpbGUubWFlPic=

> <r_epik_Ionization_Penalty>
0.0900605

> <r_epik_Ionization_Penalty_Charging>
0.000501436

> <r_epik_Ionization_Penalty_Neutral>
0.0895591

> <r_epik_State_Penalty>
0.142021

> <r_epik_Charging_Adjusted_Penalty>
0.142522

> <i_epik_Tot_Q>
-1

> <i_epik_Tot_abs_Q>
1

> <r_epik_Metal_State_Penalty>
0.0730028

> <b_epik_Metal_Only>
0

> <s_epik_Chemistry_Notes>
This compound has an imine and may undergo hydrolysis.

> <s_lp_Force_Field>
OPLS_2005

> <r_lp_Energy>
31.0156

> <b_lp_Chiralities_Consistent>
1

> <s_lp_Variant>
AV-unprocessed.smi:2557-1

> <Gold.Version>
5.8.1

> <Gold.Id.Protein>
6NUR|6NUR_protein|mol2

> <Gold.PLP.Fitness>
45.3647

> <Gold.PLP.PLP>
-40.9566

> <Gold.PLP.part.hbond>
-1.0000

> <Gold.PLP.part.metal>
0.0000

> <Gold.PLP.part.buried>
-5.8764

> <Gold.PLP.part.nonpolar>
-34.7311

> <Gold.PLP.part.repulsive>
0.2064

> <Gold.PLP.ligand.clash>
0.1909

> <Gold.PLP.ligand.torsion>
1.7730

> <Gold.PLP.Chemscore.Hbond>
2.0000

> <Gold.PLP.Chemscore.CHOScore>
0.0000

> <Gold.PLP.Chemscore.Metal>
0.0000

> <Gold.Chemscore.Hbonds>
donor molecule, donor type, donor heavy atom, donor atom, acceptor molecule, acceptor atom, score
      P1  H  6896  6909       L1     1  1.92

> <Gold.PLP.Chemscore.Internal.Correction>
2.1450

> <Gold.Rescore>
     Score         DG    S(hbond)    S(metal)    S(lipo)     H(rot)  DE(clash)    DE(int)     intcor
     18.12     -20.11       1.00        0.00     118.41       1.00       0.06       1.94       ----

> <Gold.Chemscore.Fitness>
18.1152

> <Gold.Chemscore.DG>
-20.1095

> <Gold.Chemscore.ZeroCoef>
-5.4800

> <Gold.Chemscore.Hbond>
0.9988

> <Gold.Chemscore.Metal>
0.0000

> <Gold.Chemscore.Lipo>
118.4070

> <Gold.Chemscore.Internal_Hbond>
0.0000

> <Gold.Chemscore.DEClash>
0.0593

> <Gold.Chemscore.DEInternal>
1.9351

> <Gold.Chemscore.Rot>
1.0000

> <Gold.Chemscore.Internal.Correction>
   9.000000E+99

> <Gold.Chemscore.Hbonds>
donor molecule, donor type, donor heavy atom, donor atom, acceptor molecule, acceptor atom, score
      P1  H  6896  6909       L1     1  0.89

> <Gold.Chemscore.Hbond.Weighted>
-3.3359

> <Gold.Chemscore.Metal.Weighted>
-0.0000

> <Gold.Chemscore.Lipo.Weighted>
-13.8536

> <Gold.Chemscore.Internal_Hbond.Weighted>
0.0000

> <Gold.Chemscore.DEClash.Weighted>
0.0593

> <Gold.Chemscore.DEInternal.Weighted>
1.9351

> <Gold.Chemscore.Rot.Weighted>
2.5600

> <Gold.Chemscore.Internal.Correction.Weighted>
   9.000000E+99

> <Gold.Protein.RotatedTorsions>
[ 6907 6896 6895 6894 ] final  163.97 input  -60.11 | X-H torsion
[ 7974 7965 7964 7962 ] final  140.75 input  175.53 | X-H torsion
[ 8008 7997 7996 7995 ] final -169.85 input   59.86 | X-H torsion
[ 10167 10162 10161 10158 ] final  -92.70 input  -65.29 | X-H torsion
[ 10718 10713 10712 10709 ] final  -81.46 input   66.30 | X-H torsion
[ 10763 10752 10751 10750 ] final   18.74 input  -60.55 | X-H torsion
[ 11005 11000 10999 10996 ] final  116.06 input  -57.11 | X-H torsion

> <Gold.Protein.ActiveResidues>
 VAL166  LYS551  ARG553  GLY616  TRP617  ASP618  TYR619  PRO620  LYS621  CYS622 
 ASP623  PHE694  ASN695  SER759  ASP760  ASP761  ALA762  ILE779  LEU786  VAL792 
 PHE793  MET794  SER795  GLU796  ALA797  LYS798  CYS799  TRP800  GLU811  SER814 

> <Gold.Protein.RotatedAtoms>
  151.9171  133.3576  159.3883 H   0  0  0  0  0  0  0  0  0  0  0  0  # atno 6907 bound_to 6896
  150.7045  134.4673  159.5418 H   0  0  0  0  0  0  0  0  0  0  0  0  # atno 6908 bound_to 6896
  152.2290  134.8341  160.0527 H   0  0  0  0  0  0  0  0  0  0  0  0  # atno 6909 bound_to 6896
  144.9159  139.5232  143.5687 H   0  0  0  0  0  0  0  0  0  0  0  0  # atno 7974 bound_to 7965
  155.9105  140.1056  157.1283 H   0  0  0  0  0  0  0  0  0  0  0  0  # atno 8008 bound_to 7997
  154.4039  140.1275  156.4616 H   0  0  0  0  0  0  0  0  0  0  0  0  # atno 8009 bound_to 7997
  155.7315  140.3468  155.5064 H   0  0  0  0  0  0  0  0  0  0  0  0  # atno 8010 bound_to 7997
  140.3322  143.2988  151.9929 H   0  0  0  0  0  0  0  0  0  0  0  0  # atno 10167 bound_to 10162
  156.0050  130.4604  150.3956 H   0  0  0  0  0  0  0  0  0  0  0  0  # atno 10718 bound_to 10713
  153.1222  135.6722  153.9316 H   0  0  0  0  0  0  0  0  0  0  0  0  # atno 10763 bound_to 10752
  153.8828  135.3056  155.3447 H   0  0  0  0  0  0  0  0  0  0  0  0  # atno 10764 bound_to 10752
  154.7632  135.4977  153.9584 H   0  0  0  0  0  0  0  0  0  0  0  0  # atno 10765 bound_to 10752
  139.9029  134.9593  156.7141 H   0  0  0  0  0  0  0  0  0  0  0  0  # atno 11005 bound_to 11000
  146.3181  139.8000  142.8967 LP  0  0  0  0  0  0  0  0  0  0  0  0  # atno 17320 bound_to 7965
  145.3377  141.0281  143.3410 LP  0  0  0  0  0  0  0  0  0  0  0  0  # atno 17321 bound_to 7965
  139.4854  144.6226  151.7226 LP  0  0  0  0  0  0  0  0  0  0  0  0  # atno 17342 bound_to 10162
  140.5387  144.0615  150.6080 LP  0  0  0  0  0  0  0  0  0  0  0  0  # atno 17343 bound_to 10162
  157.2028  131.0442  151.2641 LP  0  0  0  0  0  0  0  0  0  0  0  0  # atno 17370 bound_to 10713
  157.3960  130.7307  149.6732 LP  0  0  0  0  0  0  0  0  0  0  0  0  # atno 17371 bound_to 10713
  140.7052  133.9271  155.8049 LP  0  0  0  0  0  0  0  0  0  0  0  0  # atno 17394 bound_to 11000
  141.0341  134.0714  157.3979 LP  0  0  0  0  0  0  0  0  0  0  0  0  # atno 17395 bound_to 11000

$$$$
