AV-unprocessed.smi:221|AV-procd|sdf|1700|dock6
  -GOLD-   2262020153D 1   1.00000     0.00000
 Structure written by MMmdl.
 50 53  0  0  0  0  0  0  0  0  1 V2000
  147.8586  138.1028  152.6652 N   0  0  0  0  0  0  0  0  0  0  0  0
  147.5646  138.1779  153.9672 C   0  0  0  0  0  0  0  0  0  0  0  0
  147.2073  137.1881  154.6021 O   0  0  0  0  0  0  0  0  0  0  0  0
  147.6862  139.5370  154.6810 C   0  0  2  0  0  0  0  0  0  0  0  0
  146.4328  140.4023  154.4762 C   0  0  0  0  0  0  0  0  0  0  0  0
  146.9589  141.8128  154.6977 C   0  0  2  0  0  0  0  0  0  0  0  0
  146.1753  142.7450  154.1563 F   0  0  0  0  0  0  0  0  0  0  0  0
  148.3410  141.7576  154.0534 C   0  0  0  0  0  0  0  0  0  0  0  0
  148.7945  140.3769  154.2014 N   0  0  0  0  0  0  0  0  0  0  0  0
  149.9755  140.2333  154.8452 C   0  0  0  0  0  0  0  0  0  0  0  0
  150.8880  139.3277  154.4035 N   0  0  0  0  0  0  0  0  0  0  0  0
  152.0518  139.1869  155.0463 C   0  0  0  0  0  0  0  0  0  0  0  0
  152.4921  139.8334  156.1285 N   0  0  0  0  0  0  0  0  0  0  0  0
  151.5728  140.7376  156.5735 C   0  0  0  0  0  0  0  0  0  0  0  0
  150.2985  140.9959  155.9974 C   0  0  0  0  0  0  0  0  0  0  0  0
  149.6342  141.9761  156.7239 N   0  0  0  0  0  0  0  0  0  0  0  0
  150.4724  142.2844  157.6761 C   0  0  0  0  0  0  0  0  0  0  0  0
  151.6640  141.5942  157.6558 N   0  0  0  0  0  0  0  0  0  0  0  0
  152.7703  141.7340  158.5856 C   0  0  0  0  0  0  0  0  0  0  0  0
  152.3655  142.3210  159.9645 C   0  0  1  0  0  0  0  0  0  0  0  0
  153.5433  142.3246  160.9727 C   0  0  0  0  0  0  0  0  0  0  0  0
  154.1707  141.0617  161.0602 O   0  0  0  0  0  0  0  0  0  0  0  0
  151.7757  143.7454  159.7934 C   0  0  1  0  0  0  0  0  0  0  0  0
  151.9634  144.6645  160.9895 C   0  0  0  0  0  0  0  0  0  0  0  0
  151.7356  146.0413  160.3787 C   0  0  0  0  0  0  0  0  0  0  0  0
  152.2503  145.9556  159.0562 O   0  0  0  0  0  0  0  0  0  0  0  0
  152.4334  144.5902  158.6930 C   0  0  0  0  0  0  0  0  0  0  0  0
  147.7958  139.3388  155.7487 H   0  0  0  0  0  0  0  0  0  0  0  0
  147.0430  142.0230  155.7648 H   0  0  0  0  0  0  0  0  0  0  0  0
  147.7863  137.2180  152.1845 H   0  0  0  0  0  0  0  0  0  0  0  0
  148.1547  138.9305  152.1675 H   0  0  0  0  0  0  0  0  0  0  0  0
  146.0540  140.3048  153.4568 H   0  0  0  0  0  0  0  0  0  0  0  0
  145.6247  140.1454  155.1618 H   0  0  0  0  0  0  0  0  0  0  0  0
  148.2721  141.9703  152.9857 H   0  0  0  0  0  0  0  0  0  0  0  0
  149.0163  142.4967  154.4887 H   0  0  0  0  0  0  0  0  0  0  0  0
  152.7271  138.4516  154.6343 H   0  0  0  0  0  0  0  0  0  0  0  0
  150.2458  143.0341  158.4202 H   0  0  0  0  0  0  0  0  0  0  0  0
  153.2366  140.7568  158.7175 H   0  0  0  0  0  0  0  0  0  0  0  0
  153.5139  142.3658  158.1002 H   0  0  0  0  0  0  0  0  0  0  0  0
  151.5732  141.6953  160.3790 H   0  0  0  0  0  0  0  0  0  0  0  0
  154.2802  143.0824  160.7051 H   0  0  0  0  0  0  0  0  0  0  0  0
  153.2025  142.5631  161.9790 H   0  0  0  0  0  0  0  0  0  0  0  0
  153.7168  140.5442  161.7078 H   0  0  0  0  0  0  0  0  0  0  0  0
  150.7072  143.6721  159.5827 H   0  0  0  0  0  0  0  0  0  0  0  0
  151.2723  144.4584  161.8071 H   0  0  0  0  0  0  0  0  0  0  0  0
  152.9816  144.5891  161.3742 H   0  0  0  0  0  0  0  0  0  0  0  0
  150.6685  146.2608  160.3237 H   0  0  0  0  0  0  0  0  0  0  0  0
  152.2174  146.8376  160.9465 H   0  0  0  0  0  0  0  0  0  0  0  0
  153.5052  144.3939  158.6409 H   0  0  0  0  0  0  0  0  0  0  0  0
  152.0075  144.3963  157.7084 H   0  0  0  0  0  0  0  0  0  0  0  0
  1  2  1  0  0  0  0
  1 30  1  0  0  0  0
  1 31  1  0  0  0  0
  2  3  2  0  0  0  0
  2  4  1  0  0  0  0
  4 28  1  0  0  0  0
  4  9  1  0  0  0  0
  4  5  1  0  0  0  0
  5  6  1  0  0  0  0
  5 32  1  0  0  0  0
  5 33  1  0  0  0  0
  6 29  1  0  0  0  0
  6  7  1  0  0  0  0
  6  8  1  0  0  0  0
  8  9  1  0  0  0  0
  8 34  1  0  0  0  0
  8 35  1  0  0  0  0
  9 10  1  0  0  0  0
 10 15  1  0  0  0  0
 10 11  2  0  0  0  0
 11 12  1  0  0  0  0
 12 13  2  0  0  0  0
 12 36  1  0  0  0  0
 13 14  1  0  0  0  0
 14 18  1  0  0  0  0
 14 15  2  0  0  0  0
 15 16  1  0  0  0  0
 16 17  2  0  0  0  0
 17 18  1  0  0  0  0
 17 37  1  0  0  0  0
 18 19  1  0  0  0  0
 19 20  1  0  0  0  0
 19 38  1  0  0  0  0
 19 39  1  0  0  0  0
 20 21  1  0  0  0  0
 20 23  1  0  0  0  0
 20 40  1  0  0  0  0
 21 22  1  0  0  0  0
 21 41  1  0  0  0  0
 21 42  1  0  0  0  0
 22 43  1  0  0  0  0
 23 27  1  0  0  0  0
 23 24  1  0  0  0  0
 23 44  1  0  0  0  0
 24 25  1  0  0  0  0
 24 45  1  0  0  0  0
 24 46  1  0  0  0  0
 25 26  1  0  0  0  0
 25 47  1  0  0  0  0
 25 48  1  0  0  0  0
 26 27  1  0  0  0  0
 27 49  1  0  0  0  0
 27 50  1  0  0  0  0
M  END
> <s_m_source_file>
AV-unprocessed.smi

> <i_m_source_file_index>
221

> <i_lp_mmshare_version>
43012

> <i_f3d_flags>
0

> <s_epik_input>
W05IMl1DKD1PKVtDQEBIXTFbQ0gyXVtDQEBIXShGKVtDSDJdTjFjKG5bY0hdbjIpYyhjMjMpbltjSF1uM1tDSDJdW0NASF0oW0NIMl1bT0hdKVtDQEBIXTRbQ0gyXVtDSDJdT1tDSDJdNA==

> <s_epik_cmdline>
J2VwaWtfcHl0aG9uJywgJy1waCcsICc3LjAnLCAnLXRuJywgJzgnLCAnLW1hJywgJzIwMCcsICctbWV0YWxfYmluZGluZycsICctaW1hZScsICc8aW5maWxlLm1hZT4nLCAnLW9tYWUnLCAnPG91dGZpbGUubWFlPic=

> <r_lp_tautomer_probability>
1

> <r_epik_Ionization_Penalty>
0.000818822

> <r_epik_Ionization_Penalty_Charging>
0

> <r_epik_Ionization_Penalty_Neutral>
0.000818822

> <r_epik_State_Penalty>
0.000440551

> <r_epik_Charging_Adjusted_Penalty>
0.000440551

> <i_epik_Tot_Q>
0

> <i_epik_Tot_abs_Q>
0

> <r_epik_Metal_State_Penalty>
-0

> <b_epik_Metal_Only>
0

> <s_lp_Force_Field>
OPLS_2005

> <r_lp_Energy>
51.3471

> <b_lp_Chiralities_Consistent>
1

> <s_lp_Variant>
AV-unprocessed.smi:221-15

> <Gold.Version>
5.8.1

> <Gold.Id.Protein>
6NUR|6NUR_protein|mol2

> <Gold.PLP.Fitness>
51.9150

> <Gold.PLP.PLP>
-52.2511

> <Gold.PLP.part.hbond>
-4.2043

> <Gold.PLP.part.metal>
0.0000

> <Gold.PLP.part.buried>
-1.7515

> <Gold.PLP.part.nonpolar>
-46.2672

> <Gold.PLP.part.repulsive>
0.8215

> <Gold.PLP.ligand.clash>
3.7987

> <Gold.PLP.ligand.torsion>
2.3679

> <Gold.PLP.Chemscore.Hbond>
2.6485

> <Gold.PLP.Chemscore.CHOScore>
0.0000

> <Gold.PLP.Chemscore.Metal>
0.0000

> <Gold.Chemscore.Hbonds>
donor molecule, donor type, donor heavy atom, donor atom, acceptor molecule, acceptor atom, score
      L1  H     1    30       P1  7948  0.54
      L1  H     1    31       P1  7957  0.93
      P1  H  7989  7998       L1    11  0.09
      P1  H  7997  8008       L1    13  1.00

> <Gold.PLP.Chemscore.Internal.Correction>
0.2528

> <Gold.Rescore>
     Score         DG    S(hbond)    S(metal)    S(lipo)     H(rot)  DE(clash)    DE(int)     intcor
      9.58     -16.23       2.30        0.00     107.51       3.72       2.04       4.61       ----

> <Gold.Chemscore.Fitness>
9.5810

> <Gold.Chemscore.DG>
-16.2293

> <Gold.Chemscore.ZeroCoef>
-5.4800

> <Gold.Chemscore.Hbond>
2.3036

> <Gold.Chemscore.Metal>
0.0000

> <Gold.Chemscore.Lipo>
107.5130

> <Gold.Chemscore.Internal_Hbond>
0.0000

> <Gold.Chemscore.DEClash>
2.0362

> <Gold.Chemscore.DEInternal>
4.6121

> <Gold.Chemscore.Rot>
3.7202

> <Gold.Chemscore.Internal.Correction>
   9.000000E+99

> <Gold.Chemscore.Hbonds>
donor molecule, donor type, donor heavy atom, donor atom, acceptor molecule, acceptor atom, score
      L1  H     1    30       P1  7948  0.51
      L1  H     1    31       P1  7957  0.84
      P1  H  7997  8008       L1    13  0.95

> <Gold.Chemscore.Hbond.Weighted>
-7.6941

> <Gold.Chemscore.Metal.Weighted>
-0.0000

> <Gold.Chemscore.Lipo.Weighted>
-12.5790

> <Gold.Chemscore.Internal_Hbond.Weighted>
0.0000

> <Gold.Chemscore.DEClash.Weighted>
2.0362

> <Gold.Chemscore.DEInternal.Weighted>
4.6121

> <Gold.Chemscore.Rot.Weighted>
9.5237

> <Gold.Chemscore.Internal.Correction.Weighted>
   9.000000E+99

> <Gold.Protein.RotatedTorsions>
[ 6907 6896 6895 6894 ] final   67.63 input  -60.11 | X-H torsion
[ 7974 7965 7964 7962 ] final -122.37 input  175.53 | X-H torsion
[ 8008 7997 7996 7995 ] final  -41.58 input   59.86 | X-H torsion
[ 10167 10162 10161 10158 ] final  115.58 input  -65.29 | X-H torsion
[ 10718 10713 10712 10709 ] final  -10.73 input   66.30 | X-H torsion
[ 10763 10752 10751 10750 ] final   41.01 input  -60.55 | X-H torsion
[ 11005 11000 10999 10996 ] final   78.28 input  -57.11 | X-H torsion

> <Gold.Protein.ActiveResidues>
 VAL166  LYS551  ARG553  GLY616  TRP617  ASP618  TYR619  PRO620  LYS621  CYS622 
 ASP623  PHE694  ASN695  SER759  ASP760  ASP761  ALA762  ILE779  LEU786  VAL792 
 PHE793  MET794  SER795  GLU796  ALA797  LYS798  CYS799  TRP800  GLU811  SER814 

> <Gold.Protein.RotatedAtoms>
  152.4565  134.5279  159.9801 H   0  0  0  0  0  0  0  0  0  0  0  0  # atno 6907 bound_to 6896
  151.5339  133.3438  159.2931 H   0  0  0  0  0  0  0  0  0  0  0  0  # atno 6908 bound_to 6896
  150.8512  134.7867  159.7072 H   0  0  0  0  0  0  0  0  0  0  0  0  # atno 6909 bound_to 6896
  145.0302  140.8061  143.4328 H   0  0  0  0  0  0  0  0  0  0  0  0  # atno 7974 bound_to 7965
  154.4003  140.1495  156.3215 H   0  0  0  0  0  0  0  0  0  0  0  0  # atno 8008 bound_to 7997
  155.8525  140.3457  155.5681 H   0  0  0  0  0  0  0  0  0  0  0  0  # atno 8009 bound_to 7997
  155.7968  140.0864  157.1969 H   0  0  0  0  0  0  0  0  0  0  0  0  # atno 8010 bound_to 7997
  139.6307  144.7114  151.2438 H   0  0  0  0  0  0  0  0  0  0  0  0  # atno 10167 bound_to 10162
  156.6692  130.5004  149.6005 H   0  0  0  0  0  0  0  0  0  0  0  0  # atno 10718 bound_to 10713
  152.9920  135.6174  154.2719 H   0  0  0  0  0  0  0  0  0  0  0  0  # atno 10763 bound_to 10752
  154.2451  135.2787  155.2840 H   0  0  0  0  0  0  0  0  0  0  0  0  # atno 10764 bound_to 10752
  154.5336  135.5781  153.6837 H   0  0  0  0  0  0  0  0  0  0  0  0  # atno 10765 bound_to 10752
  139.9219  134.7751  156.1629 H   0  0  0  0  0  0  0  0  0  0  0  0  # atno 11005 bound_to 11000
  145.1781  139.2367  143.5307 LP  0  0  0  0  0  0  0  0  0  0  0  0  # atno 17320 bound_to 7965
  146.3497  140.1548  142.8592 LP  0  0  0  0  0  0  0  0  0  0  0  0  # atno 17321 bound_to 7965
  140.7437  143.6485  150.8270 LP  0  0  0  0  0  0  0  0  0  0  0  0  # atno 17342 bound_to 10162
  140.0109  143.5643  152.2839 LP  0  0  0  0  0  0  0  0  0  0  0  0  # atno 17343 bound_to 10162
  156.1951  130.6585  151.1105 LP  0  0  0  0  0  0  0  0  0  0  0  0  # atno 17370 bound_to 10713
  157.7083  131.0746  150.6591 LP  0  0  0  0  0  0  0  0  0  0  0  0  # atno 17371 bound_to 10713
  141.0747  133.6781  156.2211 LP  0  0  0  0  0  0  0  0  0  0  0  0  # atno 17394 bound_to 11000
  140.6449  134.5127  157.5573 LP  0  0  0  0  0  0  0  0  0  0  0  0  # atno 17395 bound_to 11000

$$$$
