AV-unprocessed.smi:1306|AV-procd|sdf|5434|dock4
  -GOLD-   22720 4593D 1   1.00000     0.00000
 Structure written by MMmdl.
 39 40  0  0  0  0  0  0  0  0  1 V2000
  151.9216  139.7026  154.8796 O   0  0  0  0  0  0  0  0  0  0  0  0
  150.9015  139.0241  154.7496 C   0  0  0  0  0  0  0  0  0  0  0  0
  150.9717  137.5883  154.2093 C   0  0  0  0  0  0  0  0  0  0  0  0
  150.5146  136.5813  155.1782 N   0  0  0  0  0  0  0  0  0  0  0  0
  149.2612  136.0006  155.0451 C   0  0  0  0  0  0  0  0  0  0  0  0
  148.7799  135.0625  155.8947 C   0  0  0  0  0  0  0  0  0  0  0  0
  149.5839  134.6061  157.0232 C   0  0  0  0  0  0  0  0  0  0  0  0
  149.2355  133.7636  157.8473 O   0  0  0  0  0  0  0  0  0  0  0  0
  150.8396  135.2115  157.1217 N   0  0  0  0  0  0  0  0  0  0  0  0
  151.3428  136.1772  156.2483 C   0  0  0  0  0  0  0  0  0  0  0  0
  152.4679  136.6434  156.4233 O   0  0  0  0  0  0  0  0  0  0  0  0
  149.6757  139.4790  155.0491 N   0  0  0  0  0  0  0  0  0  0  0  0
  149.3783  140.7994  155.5940 C   0  0  0  0  0  0  0  0  0  0  0  0
  149.5096  140.8340  157.1254 C   0  0  0  0  0  0  0  0  0  0  0  0
  151.2447  140.8371  157.6615 S   0  0  0  0  0  0  0  0  0  0  0  0
  151.2782  142.3592  158.6510 C   0  0  0  0  0  0  0  0  0  0  0  0
  151.4639  143.6110  157.7903 C   0  0  0  0  0  0  0  0  0  0  0  0
  152.0909  144.6618  158.7171 C   0  0  0  0  0  0  0  0  0  0  0  0
  152.6010  143.9053  159.9531 C   0  0  0  0  0  0  0  0  0  0  0  0
  152.4522  142.4173  159.6285 C   0  0  0  0  0  0  0  0  0  0  0  0
  151.4327  134.9249  157.8868 H   0  0  0  0  0  0  0  0  0  0  0  0
  150.3888  137.5145  153.2887 H   0  0  0  0  0  0  0  0  0  0  0  0
  152.0024  137.3869  153.9134 H   0  0  0  0  0  0  0  0  0  0  0  0
  148.6322  136.3056  154.2208 H   0  0  0  0  0  0  0  0  0  0  0  0
  147.7951  134.6470  155.7376 H   0  0  0  0  0  0  0  0  0  0  0  0
  148.8922  138.8574  154.9098 H   0  0  0  0  0  0  0  0  0  0  0  0
  150.0397  141.5418  155.1444 H   0  0  0  0  0  0  0  0  0  0  0  0
  148.3649  141.0740  155.3009 H   0  0  0  0  0  0  0  0  0  0  0  0
  149.0062  141.7109  157.5338 H   0  0  0  0  0  0  0  0  0  0  0  0
  149.0168  139.9603  157.5519 H   0  0  0  0  0  0  0  0  0  0  0  0
  150.3411  142.4451  159.2032 H   0  0  0  0  0  0  0  0  0  0  0  0
  152.1535  143.4000  156.9715 H   0  0  0  0  0  0  0  0  0  0  0  0
  150.5271  143.9515  157.3484 H   0  0  0  0  0  0  0  0  0  0  0  0
  152.9014  145.1862  158.2098 H   0  0  0  0  0  0  0  0  0  0  0  0
  151.3542  145.4098  159.0113 H   0  0  0  0  0  0  0  0  0  0  0  0
  153.6295  144.1667  160.2042 H   0  0  0  0  0  0  0  0  0  0  0  0
  151.9802  144.1557  160.8144 H   0  0  0  0  0  0  0  0  0  0  0  0
  152.2894  141.8134  160.5215 H   0  0  0  0  0  0  0  0  0  0  0  0
  153.3606  142.0570  159.1435 H   0  0  0  0  0  0  0  0  0  0  0  0
  1  2  2  0  0  0  0
  2  3  1  0  0  0  0
  2 12  1  0  0  0  0
  3  4  1  0  0  0  0
  3 22  1  0  0  0  0
  3 23  1  0  0  0  0
  4 10  1  0  0  0  0
  4  5  1  0  0  0  0
  5  6  2  0  0  0  0
  5 24  1  0  0  0  0
  6  7  1  0  0  0  0
  6 25  1  0  0  0  0
  7  8  2  0  0  0  0
  7  9  1  0  0  0  0
  9 21  1  0  0  0  0
  9 10  1  0  0  0  0
 10 11  2  0  0  0  0
 12 13  1  0  0  0  0
 12 26  1  0  0  0  0
 13 14  1  0  0  0  0
 13 27  1  0  0  0  0
 13 28  1  0  0  0  0
 14 15  1  0  0  0  0
 14 29  1  0  0  0  0
 14 30  1  0  0  0  0
 15 16  1  0  0  0  0
 16 20  1  0  0  0  0
 16 17  1  0  0  0  0
 16 31  1  0  0  0  0
 17 18  1  0  0  0  0
 17 32  1  0  0  0  0
 17 33  1  0  0  0  0
 18 19  1  0  0  0  0
 18 34  1  0  0  0  0
 18 35  1  0  0  0  0
 19 20  1  0  0  0  0
 19 36  1  0  0  0  0
 19 37  1  0  0  0  0
 20 38  1  0  0  0  0
 20 39  1  0  0  0  0
M  END
> <s_m_source_file>
AV-unprocessed.smi

> <i_m_source_file_index>
1306

> <i_lp_mmshare_version>
43012

> <i_f3d_flags>
0

> <s_epik_input>
Tz1jMVtuSF1jKD1PKVtjSF1bY0hdbjFbQ0gyXUMoPU8pW05IXVtDSDJdW0NIMl1TW0NIXTJbQ0gyXVtDSDJdW0NIMl1bQ0gyXTI=

> <s_epik_cmdline>
J2VwaWtfcHl0aG9uJywgJy1waCcsICc3LjAnLCAnLXRuJywgJzgnLCAnLW1hJywgJzIwMCcsICctbWV0YWxfYmluZGluZycsICctaW1hZScsICc8aW5maWxlLm1hZT4nLCAnLW9tYWUnLCAnPG91dGZpbGUubWFlPic=

> <r_lp_tautomer_probability>
0.999537

> <r_epik_Ionization_Penalty>
0.00337646

> <r_epik_Ionization_Penalty_Charging>
0.00337644

> <r_epik_Ionization_Penalty_Neutral>
2.37506e-08

> <r_epik_State_Penalty>
0.00238979

> <r_epik_Charging_Adjusted_Penalty>
0.00576623

> <i_epik_Tot_Q>
0

> <i_epik_Tot_abs_Q>
0

> <r_epik_Metal_State_Penalty>
0.366399

> <b_epik_Metal_Only>
0

> <s_lp_Force_Field>
OPLS_2005

> <r_lp_Energy>
19.0409

> <b_lp_Chiralities_Consistent>
1

> <s_lp_Variant>
AV-unprocessed.smi:1306-1

> <Gold.Version>
5.8.1

> <Gold.Id.Protein>
6NUR|6NUR_protein|mol2

> <Gold.PLP.Fitness>
43.9329

> <Gold.PLP.PLP>
-34.2210

> <Gold.PLP.part.hbond>
-2.9880

> <Gold.PLP.part.metal>
0.0000

> <Gold.PLP.part.buried>
-3.7993

> <Gold.PLP.part.nonpolar>
-29.7150

> <Gold.PLP.part.repulsive>
0.5159

> <Gold.PLP.ligand.clash>
0.0000

> <Gold.PLP.ligand.torsion>
1.0454

> <Gold.PLP.Chemscore.Hbond>
2.9760

> <Gold.PLP.Chemscore.CHOScore>
0.9423

> <Gold.PLP.Chemscore.Metal>
0.0000

> <Gold.Chemscore.Hbonds>
donor molecule, donor type, donor heavy atom, donor atom, acceptor molecule, acceptor atom, score
      P1  H  6896  6907       L1     8  0.89
      P1  H  7989  7998       L1     1  0.90
      P1  H 10752 10765       L1    11  0.85
      L1  C     5    24       P1  7948  1.00

> <Gold.PLP.Chemscore.Internal.Correction>
0.0478

> <Gold.Rescore>
     Score         DG    S(hbond)    S(metal)    S(lipo)     H(rot)  DE(clash)    DE(int)     intcor
     15.89     -16.87       2.23        0.00      87.19       2.45       0.12       0.86       ----

> <Gold.Chemscore.Fitness>
15.8928

> <Gold.Chemscore.DG>
-16.8679

> <Gold.Chemscore.ZeroCoef>
-5.4800

> <Gold.Chemscore.Hbond>
2.2309

> <Gold.Chemscore.Metal>
0.0000

> <Gold.Chemscore.Lipo>
87.1859

> <Gold.Chemscore.Internal_Hbond>
0.0000

> <Gold.Chemscore.DEClash>
0.1169

> <Gold.Chemscore.DEInternal>
0.8581

> <Gold.Chemscore.Rot>
2.4469

> <Gold.Chemscore.Internal.Correction>
   9.000000E+99

> <Gold.Chemscore.Hbonds>
donor molecule, donor type, donor heavy atom, donor atom, acceptor molecule, acceptor atom, score
      P1  H  6896  6907       L1     8  0.30
      P1  H  7989  7998       L1     1  0.20
      P1  H 10752 10765       L1    11  0.14

> <Gold.Chemscore.Hbond.Weighted>
-7.4511

> <Gold.Chemscore.Metal.Weighted>
-0.0000

> <Gold.Chemscore.Lipo.Weighted>
-10.2008

> <Gold.Chemscore.Internal_Hbond.Weighted>
0.0000

> <Gold.Chemscore.DEClash.Weighted>
0.1169

> <Gold.Chemscore.DEInternal.Weighted>
0.8581

> <Gold.Chemscore.Rot.Weighted>
6.2640

> <Gold.Chemscore.Internal.Correction.Weighted>
   9.000000E+99

> <Gold.Protein.RotatedTorsions>
[ 6907 6896 6895 6894 ] final -108.71 input  -60.11 | X-H torsion
[ 7974 7965 7964 7962 ] final -128.54 input  175.53 | X-H torsion
[ 8008 7997 7996 7995 ] final  105.68 input   59.86 | X-H torsion
[ 10167 10162 10161 10158 ] final  126.46 input  -65.29 | X-H torsion
[ 10718 10713 10712 10709 ] final  153.41 input   66.30 | X-H torsion
[ 10763 10752 10751 10750 ] final -131.11 input  -60.55 | X-H torsion
[ 11005 11000 10999 10996 ] final   61.56 input  -57.11 | X-H torsion

> <Gold.Protein.ActiveResidues>
 VAL166  LYS551  ARG553  GLY616  TRP617  ASP618  TYR619  PRO620  LYS621  CYS622 
 ASP623  PHE694  ASN695  SER759  ASP760  ASP761  ALA762  ILE779  LEU786  VAL792 
 PHE793  MET794  SER795  GLU796  ALA797  LYS798  CYS799  TRP800  GLU811  SER814 

> <Gold.Protein.RotatedAtoms>
  150.7518  133.9636  159.3523 H   0  0  0  0  0  0  0  0  0  0  0  0  # atno 6907 bound_to 6896
  151.7564  135.0818  160.0348 H   0  0  0  0  0  0  0  0  0  0  0  0  # atno 6908 bound_to 6896
  152.3432  133.6054  159.5927 H   0  0  0  0  0  0  0  0  0  0  0  0  # atno 6909 bound_to 6896
  144.9661  140.7497  143.4699 H   0  0  0  0  0  0  0  0  0  0  0  0  # atno 7974 bound_to 7965
  156.1680  140.3126  155.8923 H   0  0  0  0  0  0  0  0  0  0  0  0  # atno 8008 bound_to 7997
  155.3646  140.0478  157.3063 H   0  0  0  0  0  0  0  0  0  0  0  0  # atno 8009 bound_to 7997
  154.5212  140.2199  155.8984 H   0  0  0  0  0  0  0  0  0  0  0  0  # atno 8010 bound_to 7997
  139.5630  144.6894  151.3989 H   0  0  0  0  0  0  0  0  0  0  0  0  # atno 10167 bound_to 10162
  157.2451  131.0767  151.1767 H   0  0  0  0  0  0  0  0  0  0  0  0  # atno 10718 bound_to 10713
  154.8752  135.3840  154.4193 H   0  0  0  0  0  0  0  0  0  0  0  0  # atno 10763 bound_to 10752
  153.4898  135.7030  153.5895 H   0  0  0  0  0  0  0  0  0  0  0  0  # atno 10764 bound_to 10752
  153.4274  135.3887  155.2116 H   0  0  0  0  0  0  0  0  0  0  0  0  # atno 10765 bound_to 10752
  140.0152  134.6235  155.9720 H   0  0  0  0  0  0  0  0  0  0  0  0  # atno 11005 bound_to 11000
  145.2628  139.1985  143.4883 LP  0  0  0  0  0  0  0  0  0  0  0  0  # atno 17320 bound_to 7965
  146.3368  140.2561  142.8600 LP  0  0  0  0  0  0  0  0  0  0  0  0  # atno 17321 bound_to 7965
  140.6911  143.7858  150.7257 LP  0  0  0  0  0  0  0  0  0  0  0  0  # atno 17342 bound_to 10162
  140.1341  143.4499  152.2235 LP  0  0  0  0  0  0  0  0  0  0  0  0  # atno 17343 bound_to 10162
  157.3338  130.6998  149.6340 LP  0  0  0  0  0  0  0  0  0  0  0  0  # atno 17370 bound_to 10713
  155.9668  130.4300  150.4856 LP  0  0  0  0  0  0  0  0  0  0  0  0  # atno 17371 bound_to 10713
  141.1738  133.6539  156.4751 LP  0  0  0  0  0  0  0  0  0  0  0  0  # atno 17394 bound_to 11000
  140.4483  134.6952  157.5026 LP  0  0  0  0  0  0  0  0  0  0  0  0  # atno 17395 bound_to 11000

$$$$
