AV-unprocessed.smi:2751|AV-procd|sdf|10597|dock6
  -GOLD-   2272015 53D 1   1.00000     0.00000
 Structure written by MMmdl.
 35 36  0  0  0  0  0  0  0  0  2 V2000
  147.0176  137.7580  153.9046 O   0  0  0  0  0  0  0  0  0  0  0  0
  146.1240  138.4602  153.4305 C   0  0  0  0  0  0  0  0  0  0  0  0
  145.9904  139.7695  153.6892 N   0  0  0  0  0  0  0  0  0  0  0  0
  146.8775  140.5452  154.5486 C   0  0  0  0  0  0  0  0  0  0  0  0
  148.3391  140.4672  154.0749 C   0  0  0  0  0  0  0  0  0  0  0  0
  149.3269  140.2301  155.2282 C   0  0  2  0  0  0  0  0  0  0  0  0
  149.3498  141.4097  156.2196 C   0  0  0  0  0  0  0  0  0  0  0  0
  150.3977  141.1733  157.3129 C   0  0  0  0  0  0  0  0  0  0  0  0
  151.7550  140.8688  156.6706 C   0  0  0  0  0  0  0  0  0  0  0  0
  151.6185  139.7267  155.6514 C   0  0  0  0  0  0  0  0  0  0  0  0
  150.6325  140.0596  154.6787 O   0  0  0  0  0  0  0  0  0  0  0  0
  145.1692  138.0194  152.5970 N   0  0  0  0  0  0  0  0  0  0  0  0
  145.0447  136.6971  152.1123 C   0  0  0  0  0  0  0  0  0  0  0  0
  144.4075  136.3720  150.9887 N   0  3  0  0  0  0  0  0  0  0  0  0
  144.4856  135.0124  150.8154 C   0  0  0  0  0  0  0  0  0  0  0  0
  145.1989  134.5392  151.8905 C   0  0  0  0  0  0  0  0  0  0  0  0
  145.5576  135.5868  152.7150 O   0  0  0  0  0  0  0  0  0  0  0  0
  145.2275  140.2706  153.2572 H   0  0  0  0  0  0  0  0  0  0  0  0
  146.5437  141.5834  154.5936 H   0  0  0  0  0  0  0  0  0  0  0  0
  146.7920  140.1495  155.5610 H   0  0  0  0  0  0  0  0  0  0  0  0
  148.4454  139.6739  153.3338 H   0  0  0  0  0  0  0  0  0  0  0  0
  148.6023  141.3971  153.5691 H   0  0  0  0  0  0  0  0  0  0  0  0
  149.0370  139.3201  155.7570 H   0  0  0  0  0  0  0  0  0  0  0  0
  149.5805  142.3338  155.6877 H   0  0  0  0  0  0  0  0  0  0  0  0
  148.3664  141.5459  156.6706 H   0  0  0  0  0  0  0  0  0  0  0  0
  150.4716  142.0437  157.9653 H   0  0  0  0  0  0  0  0  0  0  0  0
  150.0914  140.3351  157.9402 H   0  0  0  0  0  0  0  0  0  0  0  0
  152.1321  141.7611  156.1693 H   0  0  0  0  0  0  0  0  0  0  0  0
  152.4850  140.6069  157.4369 H   0  0  0  0  0  0  0  0  0  0  0  0
  152.5699  139.5611  155.1455 H   0  0  0  0  0  0  0  0  0  0  0  0
  151.3547  138.7912  156.1473 H   0  0  0  0  0  0  0  0  0  0  0  0
  143.9341  136.9911  150.3426 H   0  0  0  0  0  0  0  0  0  0  0  0
  144.0361  134.5264  149.9612 H   0  0  0  0  0  0  0  0  0  0  0  0
  145.5190  133.5547  152.1992 H   0  0  0  0  0  0  0  0  0  0  0  0
  144.4837  138.6861  152.2736 H   0  0  0  0  0  0  0  0  0  0  0  0
  1  2  2  0  0  0  0
  2 12  1  0  0  0  0
  2  3  1  0  0  0  0
  3  4  1  0  0  0  0
  3 18  1  0  0  0  0
  4  5  1  0  0  0  0
  4 19  1  0  0  0  0
  4 20  1  0  0  0  0
  5  6  1  0  0  0  0
  5 21  1  0  0  0  0
  5 22  1  0  0  0  0
  6 11  1  0  0  0  0
  6  7  1  0  0  0  0
  6 23  1  0  0  0  0
  7  8  1  0  0  0  0
  7 24  1  0  0  0  0
  7 25  1  0  0  0  0
  8  9  1  0  0  0  0
  8 26  1  0  0  0  0
  8 27  1  0  0  0  0
  9 10  1  0  0  0  0
  9 28  1  0  0  0  0
  9 29  1  0  0  0  0
 10 11  1  0  0  0  0
 10 30  1  0  0  0  0
 10 31  1  0  0  0  0
 12 13  1  0  0  0  0
 12 35  1  0  0  0  0
 13 17  1  0  0  0  0
 13 14  2  0  0  0  0
 14 32  1  0  0  0  0
 14 15  1  0  0  0  0
 15 33  1  0  0  0  0
 15 16  2  0  0  0  0
 16 34  1  0  0  0  0
 16 17  1  0  0  0  0
M  CHG  1  14   1
M  END
> <s_m_source_file>
AV-unprocessed.smi

> <i_m_source_file_index>
2751

> <i_lp_mmshare_version>
43012

> <i_f3d_flags>
0

> <s_epik_input>
bzFbY0hdW2NIXW5jMVtOSF1DKD1PKVtOSF1bQ0gyXVtDSDJdW0NAQEhdMltDSDJdW0NIMl1bQ0gyXVtDSDJdTzI=

> <s_epik_cmdline>
J2VwaWtfcHl0aG9uJywgJy1waCcsICc3LjAnLCAnLXRuJywgJzgnLCAnLW1hJywgJzIwMCcsICctbWV0YWxfYmluZGluZycsICctaW1hZScsICc8aW5maWxlLm1hZT4nLCAnLW9tYWUnLCAnPG91dGZpbGUubWFlPic=

> <r_epik_Ionization_Penalty>
6.63408

> <r_epik_Ionization_Penalty_Charging>
6.57733

> <r_epik_Ionization_Penalty_Neutral>
0.0567487

> <r_epik_State_Penalty>
1.8175

> <r_epik_Charging_Adjusted_Penalty>
8.39483

> <i_epik_Tot_Q>
1

> <i_epik_Tot_abs_Q>
1

> <r_epik_Metal_State_Penalty>
1.83396

> <b_epik_Metal_Only>
0

> <s_lp_Force_Field>
OPLS_2005

> <r_lp_Energy>
16.4857

> <b_lp_Chiralities_Consistent>
1

> <s_lp_Variant>
AV-unprocessed.smi:2751-3

> <Gold.Version>
5.8.1

> <Gold.Id.Protein>
6NUR|6NUR_protein|mol2

> <Gold.PLP.Fitness>
36.5522

> <Gold.PLP.PLP>
-25.7842

> <Gold.PLP.part.hbond>
-4.7206

> <Gold.PLP.part.metal>
0.0000

> <Gold.PLP.part.buried>
-4.5208

> <Gold.PLP.part.nonpolar>
-17.8014

> <Gold.PLP.part.repulsive>
0.8068

> <Gold.PLP.ligand.clash>
0.0000

> <Gold.PLP.ligand.torsion>
0.4501

> <Gold.PLP.Chemscore.Hbond>
3.8880

> <Gold.PLP.Chemscore.CHOScore>
0.0000

> <Gold.PLP.Chemscore.Metal>
0.0000

> <Gold.Chemscore.Hbonds>
donor molecule, donor type, donor heavy atom, donor atom, acceptor molecule, acceptor atom, score
      L1  H     3    18       P1 10175  1.00
      L1  H    12    35       P1 10175  0.98
      L1  H    14    32       P1 10171  0.90
      P1  H  7989  7998       L1    11  1.00

> <Gold.PLP.Chemscore.Internal.Correction>
0.0042

> <Gold.Rescore>
     Score         DG    S(hbond)    S(metal)    S(lipo)     H(rot)  DE(clash)    DE(int)     intcor
     16.77     -19.21       3.64        0.00      49.56       1.66       0.01       2.43       ----

> <Gold.Chemscore.Fitness>
16.7673

> <Gold.Chemscore.DG>
-19.2087

> <Gold.Chemscore.ZeroCoef>
-5.4800

> <Gold.Chemscore.Hbond>
3.6448

> <Gold.Chemscore.Metal>
0.0000

> <Gold.Chemscore.Lipo>
49.5558

> <Gold.Chemscore.Internal_Hbond>
0.0000

> <Gold.Chemscore.DEClash>
0.0149

> <Gold.Chemscore.DEInternal>
2.4264

> <Gold.Chemscore.Rot>
1.6575

> <Gold.Chemscore.Internal.Correction>
   9.000000E+99

> <Gold.Chemscore.Hbonds>
donor molecule, donor type, donor heavy atom, donor atom, acceptor molecule, acceptor atom, score
      L1  H     3    18       P1 10175  0.99
      L1  H    12    35       P1 10175  0.93
      L1  H    14    32       P1 10171  0.88
      P1  H  7989  7998       L1    11  0.26

> <Gold.Chemscore.Hbond.Weighted>
-12.1737

> <Gold.Chemscore.Metal.Weighted>
-0.0000

> <Gold.Chemscore.Lipo.Weighted>
-5.7980

> <Gold.Chemscore.Internal_Hbond.Weighted>
0.0000

> <Gold.Chemscore.DEClash.Weighted>
0.0149

> <Gold.Chemscore.DEInternal.Weighted>
2.4264

> <Gold.Chemscore.Rot.Weighted>
4.2431

> <Gold.Chemscore.Internal.Correction.Weighted>
   9.000000E+99

> <Gold.Protein.RotatedTorsions>
[ 6907 6896 6895 6894 ] final   13.64 input  -60.11 | X-H torsion
[ 7974 7965 7964 7962 ] final   31.11 input  175.53 | X-H torsion
[ 8008 7997 7996 7995 ] final   92.83 input   59.86 | X-H torsion
[ 10167 10162 10161 10158 ] final   76.44 input  -65.29 | X-H torsion
[ 10718 10713 10712 10709 ] final  -46.07 input   66.30 | X-H torsion
[ 10763 10752 10751 10750 ] final  127.93 input  -60.55 | X-H torsion
[ 11005 11000 10999 10996 ] final   73.46 input  -57.11 | X-H torsion

> <Gold.Protein.ActiveResidues>
 VAL166  LYS551  ARG553  GLY616  TRP617  ASP618  TYR619  PRO620  LYS621  CYS622 
 ASP623  PHE694  ASN695  SER759  ASP760  ASP761  ALA762  ILE779  LEU786  VAL792 
 PHE793  MET794  SER795  GLU796  ALA797  LYS798  CYS799  TRP800  GLU811  SER814 

> <Gold.Protein.RotatedAtoms>
  151.7895  135.0740  160.0384 H   0  0  0  0  0  0  0  0  0  0  0  0  # atno 6907 bound_to 6896
  152.3167  133.5805  159.5725 H   0  0  0  0  0  0  0  0  0  0  0  0  # atno 6908 bound_to 6896
  150.7348  133.9989  159.3673 H   0  0  0  0  0  0  0  0  0  0  0  0  # atno 6909 bound_to 6896
  146.1570  139.6699  142.9059 H   0  0  0  0  0  0  0  0  0  0  0  0  # atno 7974 bound_to 7965
  156.0398  140.3320  155.7231 H   0  0  0  0  0  0  0  0  0  0  0  0  # atno 8008 bound_to 7997
  155.5761  140.0632  157.2812 H   0  0  0  0  0  0  0  0  0  0  0  0  # atno 8009 bound_to 7997
  154.4388  140.1852  156.0917 H   0  0  0  0  0  0  0  0  0  0  0  0  # atno 8010 bound_to 7997
  139.9922  144.5748  150.7808 H   0  0  0  0  0  0  0  0  0  0  0  0  # atno 10167 bound_to 10162
  156.2220  130.4167  149.8981 H   0  0  0  0  0  0  0  0  0  0  0  0  # atno 10718 bound_to 10713
  153.7174  135.3259  155.3259 H   0  0  0  0  0  0  0  0  0  0  0  0  # atno 10763 bound_to 10752
  154.8366  135.4491  154.1253 H   0  0  0  0  0  0  0  0  0  0  0  0  # atno 10764 bound_to 10752
  153.2363  135.6966  153.7912 H   0  0  0  0  0  0  0  0  0  0  0  0  # atno 10765 bound_to 10752
  139.9439  134.7348  156.1029 H   0  0  0  0  0  0  0  0  0  0  0  0  # atno 11005 bound_to 11000
  145.4683  141.0435  143.2713 LP  0  0  0  0  0  0  0  0  0  0  0  0  # atno 17320 bound_to 7965
  144.7977  139.6202  143.7085 LP  0  0  0  0  0  0  0  0  0  0  0  0  # atno 17321 bound_to 7965
  140.7450  143.2869  151.3438 LP  0  0  0  0  0  0  0  0  0  0  0  0  # atno 17342 bound_to 10162
  139.6331  144.0682  152.2493 LP  0  0  0  0  0  0  0  0  0  0  0  0  # atno 17343 bound_to 10162
  156.6624  130.8787  151.3549 LP  0  0  0  0  0  0  0  0  0  0  0  0  # atno 17370 bound_to 10713
  157.7092  130.9420  150.1032 LP  0  0  0  0  0  0  0  0  0  0  0  0  # atno 17371 bound_to 10713
  141.1083  133.6652  156.2917 LP  0  0  0  0  0  0  0  0  0  0  0  0  # atno 17394 bound_to 11000
  140.5883  134.5677  157.5494 LP  0  0  0  0  0  0  0  0  0  0  0  0  # atno 17395 bound_to 11000

$$$$
