AV-unprocessed.smi:110|AV-procd|sdf|1063|dock2
  -GOLD-   2262018143D 1   1.00000     0.00000
 Structure written by MMmdl.
 46 50  0  0  0  0  0  0  0  0  1 V2000
  145.3337  141.1895  154.7213 O   0  0  0  0  0  0  0  0  0  0  0  0
  146.7347  141.3575  154.7436 C   0  0  0  0  0  0  0  0  0  0  0  0
  147.3699  140.6680  153.5196 C   0  0  1  0  0  0  0  0  0  0  0  0
  148.7557  140.9980  153.4160 O   0  0  0  0  0  0  0  0  0  0  0  0
  149.5629  140.0616  154.0704 C   0  0  1  0  0  0  0  0  0  0  0  0
  150.1281  140.7136  155.2952 N   0  0  0  0  0  0  0  0  0  0  0  0
  149.8342  141.9454  155.8402 C   0  0  0  0  0  0  0  0  0  0  0  0
  150.5077  142.2543  156.9146 N   0  0  0  0  0  0  0  0  0  0  0  0
  151.3668  141.1782  157.1039 C   0  0  0  0  0  0  0  0  0  0  0  0
  152.3708  140.8537  158.0611 C   0  0  0  0  0  0  0  0  0  0  0  0
  152.7208  141.6356  159.1090 N   0  0  0  0  0  0  0  0  0  0  0  0
  153.1328  140.9860  160.3620 C   0  0  0  0  0  0  0  0  0  0  0  0
  152.9605  142.0096  161.4999 C   0  0  0  0  0  0  0  0  0  0  0  0
  152.5156  143.2137  160.7354 C   0  0  0  0  0  0  0  0  0  0  0  0
  152.2420  144.4942  161.2466 C   0  0  0  0  0  0  0  0  0  0  0  0
  151.8548  145.5036  160.3394 C   0  0  0  0  0  0  0  0  0  0  0  0
  151.7588  145.2232  158.9566 C   0  0  0  0  0  0  0  0  0  0  0  0
  152.0399  143.9292  158.4657 C   0  0  0  0  0  0  0  0  0  0  0  0
  152.4037  142.9194  159.3804 C   0  0  0  0  0  0  0  0  0  0  0  0
  152.9864  139.6497  157.9424 N   0  0  0  0  0  0  0  0  0  0  0  0
  152.6759  138.8325  156.9327 C   0  0  0  0  0  0  0  0  0  0  0  0
  151.7812  139.0125  155.9595 N   0  0  0  0  0  0  0  0  0  0  0  0
  151.1329  140.2058  156.0911 C   0  0  0  0  0  0  0  0  0  0  0  0
  148.6612  138.8745  154.4510 C   0  0  2  0  0  0  0  0  0  0  0  0
  149.2254  137.6138  154.1423 O   0  0  0  0  0  0  0  0  0  0  0  0
  147.3914  139.1427  153.6485 C   0  0  2  0  0  0  0  0  0  0  0  0
  147.4286  138.5825  152.3472 O   0  0  0  0  0  0  0  0  0  0  0  0
  146.8373  140.9765  152.6182 H   0  0  0  0  0  0  0  0  0  0  0  0
  150.4306  139.8011  153.4628 H   0  0  0  0  0  0  0  0  0  0  0  0
  148.4287  138.9197  155.5163 H   0  0  0  0  0  0  0  0  0  0  0  0
  146.5062  138.7529  154.1523 H   0  0  0  0  0  0  0  0  0  0  0  0
  145.0858  140.8333  153.8816 H   0  0  0  0  0  0  0  0  0  0  0  0
  146.9905  142.4144  154.8055 H   0  0  0  0  0  0  0  0  0  0  0  0
  147.0979  140.8926  155.6605 H   0  0  0  0  0  0  0  0  0  0  0  0
  149.0931  142.6128  155.4246 H   0  0  0  0  0  0  0  0  0  0  0  0
  152.5319  140.0948  160.5493 H   0  0  0  0  0  0  0  0  0  0  0  0
  154.1745  140.6739  160.2821 H   0  0  0  0  0  0  0  0  0  0  0  0
  152.1957  141.7043  162.2146 H   0  0  0  0  0  0  0  0  0  0  0  0
  153.8952  142.2018  162.0272 H   0  0  0  0  0  0  0  0  0  0  0  0
  152.3291  144.7012  162.3029 H   0  0  0  0  0  0  0  0  0  0  0  0
  151.6385  146.4977  160.7020 H   0  0  0  0  0  0  0  0  0  0  0  0
  151.4720  146.0057  158.2699 H   0  0  0  0  0  0  0  0  0  0  0  0
  151.9772  143.7251  157.4071 H   0  0  0  0  0  0  0  0  0  0  0  0
  153.2200  137.9000  156.9021 H   0  0  0  0  0  0  0  0  0  0  0  0
  148.9281  137.3591  153.2815 H   0  0  0  0  0  0  0  0  0  0  0  0
  148.0965  139.0307  151.8505 H   0  0  0  0  0  0  0  0  0  0  0  0
  1  2  1  0  0  0  0
  1 32  1  0  0  0  0
  2  3  1  0  0  0  0
  2 33  1  0  0  0  0
  2 34  1  0  0  0  0
  3 28  1  0  0  0  0
  3 26  1  0  0  0  0
  3  4  1  0  0  0  0
  4  5  1  0  0  0  0
  5 29  1  0  0  0  0
  5  6  1  0  0  0  0
  5 24  1  0  0  0  0
  6 23  1  0  0  0  0
  6  7  1  0  0  0  0
  7  8  2  0  0  0  0
  7 35  1  0  0  0  0
  8  9  1  0  0  0  0
  9 23  2  0  0  0  0
  9 10  1  0  0  0  0
 10 11  1  0  0  0  0
 10 20  2  0  0  0  0
 11 19  1  0  0  0  0
 11 12  1  0  0  0  0
 12 13  1  0  0  0  0
 12 36  1  0  0  0  0
 12 37  1  0  0  0  0
 13 14  1  0  0  0  0
 13 38  1  0  0  0  0
 13 39  1  0  0  0  0
 14 19  2  0  0  0  0
 14 15  1  0  0  0  0
 15 16  2  0  0  0  0
 15 40  1  0  0  0  0
 16 17  1  0  0  0  0
 16 41  1  0  0  0  0
 17 18  2  0  0  0  0
 17 42  1  0  0  0  0
 18 19  1  0  0  0  0
 18 43  1  0  0  0  0
 20 21  1  0  0  0  0
 21 22  2  0  0  0  0
 21 44  1  0  0  0  0
 22 23  1  0  0  0  0
 24 30  1  0  0  0  0
 24 25  1  0  0  0  0
 24 26  1  0  0  0  0
 25 45  1  0  0  0  0
 26 31  1  0  0  0  0
 26 27  1  0  0  0  0
 27 46  1  0  0  0  0
M  END
> <s_m_source_file>
AV-unprocessed.smi

> <i_m_source_file_index>
110

> <i_lp_mmshare_version>
43012

> <i_f3d_flags>
0

> <s_epik_input>
W09IXVtDSDJdW0NASF0xT1tDQEhdKFtDQEhdKFtPSF0pW0NAQEhdMVtPSF0pbihbY0hdbjIpYyhjMjMpbltjSF1uYzNOKFtDSDJdW0NIMl00KWMoYzQ1KVtjSF1bY0hdW2NIXVtjSF01

> <s_epik_cmdline>
J2VwaWtfcHl0aG9uJywgJy1waCcsICc3LjAnLCAnLXRuJywgJzgnLCAnLW1hJywgJzIwMCcsICctbWV0YWxfYmluZGluZycsICctaW1hZScsICc8aW5maWxlLm1hZT4nLCAnLW9tYWUnLCAnPG91dGZpbGUubWFlPic=

> <r_lp_tautomer_probability>
1

> <r_epik_Ionization_Penalty>
0.00068475

> <r_epik_Ionization_Penalty_Charging>
0

> <r_epik_Ionization_Penalty_Neutral>
0.00068475

> <r_epik_State_Penalty>
0.000417442

> <r_epik_Charging_Adjusted_Penalty>
0.000417442

> <i_epik_Tot_Q>
0

> <i_epik_Tot_abs_Q>
0

> <r_epik_Metal_State_Penalty>
-0

> <b_epik_Metal_Only>
0

> <s_epik_Chemistry_Notes>
This compound contains an acetal/aminal-like group ( X-CH(R)-Y where X, Y are N, S, or O) that may be acid/base labile, releasing an aldehyde.

> <s_lp_Force_Field>
OPLS_2005

> <r_lp_Energy>
60.4478

> <b_lp_Chiralities_Consistent>
1

> <s_lp_Variant>
AV-unprocessed.smi:110-1

> <Gold.Version>
5.8.1

> <Gold.Id.Protein>
6NUR|6NUR_protein|mol2

> <Gold.PLP.Fitness>
71.3332

> <Gold.PLP.PLP>
-55.6093

> <Gold.PLP.part.hbond>
-6.0000

> <Gold.PLP.part.metal>
0.0000

> <Gold.PLP.part.buried>
-2.3385

> <Gold.PLP.part.nonpolar>
-50.9231

> <Gold.PLP.part.repulsive>
3.5809

> <Gold.PLP.ligand.clash>
0.0252

> <Gold.PLP.ligand.torsion>
0.5330

> <Gold.PLP.Chemscore.Hbond>
4.5552

> <Gold.PLP.Chemscore.CHOScore>
1.0000

> <Gold.PLP.Chemscore.Metal>
0.0000

> <Gold.Chemscore.Hbonds>
donor molecule, donor type, donor heavy atom, donor atom, acceptor molecule, acceptor atom, score
      L1  H     1    32       P1 10175  0.99
      L1  H    25    45       P1  7948  1.00
      L1  H    27    46       P1  7957  1.00
      P1  H  7997  8008       L1    20  0.55
      P1  H  8011  8017       L1     4  0.93
      L1  C     7    35       P1  8028  1.00

> <Gold.PLP.Chemscore.Internal.Correction>
0.1494

> <Gold.Rescore>
     Score         DG    S(hbond)    S(metal)    S(lipo)     H(rot)  DE(clash)    DE(int)     intcor
     18.06     -22.36       3.43        0.00     120.47       3.38       2.31       1.99       ----

> <Gold.Chemscore.Fitness>
18.0561

> <Gold.Chemscore.DG>
-22.3560

> <Gold.Chemscore.ZeroCoef>
-5.4800

> <Gold.Chemscore.Hbond>
3.4263

> <Gold.Chemscore.Metal>
0.0000

> <Gold.Chemscore.Lipo>
120.4656

> <Gold.Chemscore.Internal_Hbond>
0.0000

> <Gold.Chemscore.DEClash>
2.3064

> <Gold.Chemscore.DEInternal>
1.9935

> <Gold.Chemscore.Rot>
3.3837

> <Gold.Chemscore.Internal.Correction>
   9.000000E+99

> <Gold.Chemscore.Hbonds>
donor molecule, donor type, donor heavy atom, donor atom, acceptor molecule, acceptor atom, score
      L1  H     1    32       P1 10175  0.82
      L1  H    25    45       P1  7948  0.95
      L1  H    27    46       P1  7957  0.97
      P1  H  7997  8008       L1    20  0.01
      P1  H  8011  8017       L1     4  0.77

> <Gold.Chemscore.Hbond.Weighted>
-11.4437

> <Gold.Chemscore.Metal.Weighted>
-0.0000

> <Gold.Chemscore.Lipo.Weighted>
-14.0945

> <Gold.Chemscore.Internal_Hbond.Weighted>
0.0000

> <Gold.Chemscore.DEClash.Weighted>
2.3064

> <Gold.Chemscore.DEInternal.Weighted>
1.9935

> <Gold.Chemscore.Rot.Weighted>
8.6622

> <Gold.Chemscore.Internal.Correction.Weighted>
   9.000000E+99

> <Gold.Protein.RotatedTorsions>
[ 6907 6896 6895 6894 ] final  -94.59 input  -60.11 | X-H torsion
[ 7974 7965 7964 7962 ] final   64.63 input  175.53 | X-H torsion
[ 8008 7997 7996 7995 ] final  -96.58 input   59.86 | X-H torsion
[ 10167 10162 10161 10158 ] final  -51.00 input  -65.29 | X-H torsion
[ 10718 10713 10712 10709 ] final   49.58 input   66.30 | X-H torsion
[ 10763 10752 10751 10750 ] final -173.89 input  -60.55 | X-H torsion
[ 11005 11000 10999 10996 ] final   74.96 input  -57.11 | X-H torsion

> <Gold.Protein.ActiveResidues>
 VAL166  LYS551  ARG553  GLY616  TRP617  ASP618  TYR619  PRO620  LYS621  CYS622 
 ASP623  PHE694  ASN695  SER759  ASP760  ASP761  ALA762  ILE779  LEU786  VAL792 
 PHE793  MET794  SER795  GLU796  ALA797  LYS798  CYS799  TRP800  GLU811  SER814 

> <Gold.Protein.RotatedAtoms>
  150.6945  134.1789  159.4240 H   0  0  0  0  0  0  0  0  0  0  0  0  # atno 6907 bound_to 6896
  151.9764  135.0048  160.0564 H   0  0  0  0  0  0  0  0  0  0  0  0  # atno 6908 bound_to 6896
  152.1795  133.4662  159.4987 H   0  0  0  0  0  0  0  0  0  0  0  0  # atno 6909 bound_to 6896
  145.8479  139.3236  143.0893 H   0  0  0  0  0  0  0  0  0  0  0  0  # atno 7974 bound_to 7965
  154.7763  140.0470  157.1092 H   0  0  0  0  0  0  0  0  0  0  0  0  # atno 8008 bound_to 7997
  154.9758  140.3095  155.4948 H   0  0  0  0  0  0  0  0  0  0  0  0  # atno 8009 bound_to 7997
  156.2929  140.2245  156.4854 H   0  0  0  0  0  0  0  0  0  0  0  0  # atno 8010 bound_to 7997
  140.6610  143.2636  151.4441 H   0  0  0  0  0  0  0  0  0  0  0  0  # atno 10167 bound_to 10162
  157.4800  130.8309  149.8083 H   0  0  0  0  0  0  0  0  0  0  0  0  # atno 10718 bound_to 10713
  154.6026  135.2856  155.0519 H   0  0  0  0  0  0  0  0  0  0  0  0  # atno 10763 bound_to 10752
  154.1779  135.6462  153.5030 H   0  0  0  0  0  0  0  0  0  0  0  0  # atno 10764 bound_to 10752
  153.0163  135.5416  154.6750 H   0  0  0  0  0  0  0  0  0  0  0  0  # atno 10765 bound_to 10752
  139.9366  134.7477  156.1212 H   0  0  0  0  0  0  0  0  0  0  0  0  # atno 11005 bound_to 11000
  145.9391  140.8993  143.0317 LP  0  0  0  0  0  0  0  0  0  0  0  0  # atno 17320 bound_to 7965
  144.6730  140.1524  143.7429 LP  0  0  0  0  0  0  0  0  0  0  0  0  # atno 17321 bound_to 7965
  139.5844  144.1638  152.2009 LP  0  0  0  0  0  0  0  0  0  0  0  0  # atno 17342 bound_to 10162
  140.0973  144.5569  150.7013 LP  0  0  0  0  0  0  0  0  0  0  0  0  # atno 17343 bound_to 10162
  156.0117  130.3830  150.2244 LP  0  0  0  0  0  0  0  0  0  0  0  0  # atno 17370 bound_to 10713
  157.0429  131.0040  151.3278 LP  0  0  0  0  0  0  0  0  0  0  0  0  # atno 17371 bound_to 10713
  141.0982  133.6687  156.2694 LP  0  0  0  0  0  0  0  0  0  0  0  0  # atno 17394 bound_to 11000
  140.6060  134.5507  157.5525 LP  0  0  0  0  0  0  0  0  0  0  0  0  # atno 17395 bound_to 11000

$$$$
