AV-unprocessed.smi:261|AV-procd|sdf|1998|dock3
  -GOLD-   2262021193D 1   1.00000     0.00000
 Structure written by MMmdl.
 51 54  0  0  0  0  0  0  0  0  1 V2000
  147.9829  131.2786  153.9416 C   0  0  0  0  0  0  0  0  0  0  0  0
  148.3239  132.4846  154.6061 O   0  0  0  0  0  0  0  0  0  0  0  0
  149.7099  132.8000  154.5548 C   0  0  2  0  0  0  0  0  0  0  0  0
  150.4012  132.5836  155.9081 C   0  0  0  0  0  0  0  0  0  0  0  0
  150.1346  133.8723  156.7023 C   0  0  2  0  0  0  0  0  0  0  0  0
  148.8513  133.7626  157.5538 C   0  0  0  0  0  0  0  0  0  0  0  0
  147.6919  133.4921  156.9446 N   0  0  0  0  0  0  0  0  0  0  0  0
  148.9120  133.9358  158.7691 O   0  0  0  0  0  0  0  0  0  0  0  0
  150.0800  134.8914  155.6534 N   0  0  0  0  0  0  0  0  0  0  0  0
  150.2407  136.2309  155.8439 C   0  0  0  0  0  0  0  0  0  0  0  0
  150.1099  137.0440  154.7621 N   0  0  0  0  0  0  0  0  0  0  0  0
  150.2490  138.3666  154.8786 C   0  0  0  0  0  0  0  0  0  0  0  0
  150.5151  139.0825  155.9705 N   0  0  0  0  0  0  0  0  0  0  0  0
  150.6474  138.2811  157.0653 C   0  0  0  0  0  0  0  0  0  0  0  0
  150.5329  136.8600  157.0932 C   0  0  0  0  0  0  0  0  0  0  0  0
  150.7442  136.4102  158.3921 N   0  0  0  0  0  0  0  0  0  0  0  0
  150.9656  137.4921  159.0847 C   0  0  0  0  0  0  0  0  0  0  0  0
  150.9130  138.6653  158.3690 N   0  0  0  0  0  0  0  0  0  0  0  0
  151.1122  140.0157  158.8776 C   0  0  0  0  0  0  0  0  0  0  0  0
  152.5867  140.3533  159.2073 C   0  0  1  0  0  0  0  0  0  0  0  0
  153.3945  139.9122  158.1333 O   0  0  0  0  0  0  0  0  0  0  0  0
  152.8663  141.8554  159.4209 C   0  0  1  0  0  0  0  0  0  0  0  0
  152.1778  142.7797  158.4134 C   0  0  0  0  0  0  0  0  0  0  0  0
  152.0817  144.1044  159.1509 C   0  0  0  0  0  0  0  0  0  0  0  0
  152.2420  143.7149  160.6215 C   0  0  0  0  0  0  0  0  0  0  0  0
  152.2563  142.2941  160.6264 O   0  0  0  0  0  0  0  0  0  0  0  0
  149.8473  134.3106  154.3343 C   0  0  0  0  0  0  0  0  0  0  0  0
  150.1941  132.2459  153.7488 H   0  0  0  0  0  0  0  0  0  0  0  0
  150.9809  134.0440  157.3669 H   0  0  0  0  0  0  0  0  0  0  0  0
  146.9082  131.1141  154.0188 H   0  0  0  0  0  0  0  0  0  0  0  0
  148.4829  130.4154  154.3803 H   0  0  0  0  0  0  0  0  0  0  0  0
  148.2374  131.3281  152.8823 H   0  0  0  0  0  0  0  0  0  0  0  0
  150.0832  131.6772  156.4237 H   0  0  0  0  0  0  0  0  0  0  0  0
  151.4753  132.4879  155.7441 H   0  0  0  0  0  0  0  0  0  0  0  0
  146.8432  133.4254  157.4876 H   0  0  0  0  0  0  0  0  0  0  0  0
  147.6682  133.3636  155.9436 H   0  0  0  0  0  0  0  0  0  0  0  0
  150.1269  138.9316  153.9664 H   0  0  0  0  0  0  0  0  0  0  0  0
  151.1736  137.4561  160.1430 H   0  0  0  0  0  0  0  0  0  0  0  0
  150.7127  140.7213  158.1487 H   0  0  0  0  0  0  0  0  0  0  0  0
  150.4996  140.1341  159.7723 H   0  0  0  0  0  0  0  0  0  0  0  0
  152.8783  139.8027  160.1023 H   0  0  0  0  0  0  0  0  0  0  0  0
  152.8678  139.3752  157.5613 H   0  0  0  0  0  0  0  0  0  0  0  0
  153.9382  142.0617  159.4536 H   0  0  0  0  0  0  0  0  0  0  0  0
  152.7119  142.8669  157.4686 H   0  0  0  0  0  0  0  0  0  0  0  0
  151.1740  142.4118  158.1957 H   0  0  0  0  0  0  0  0  0  0  0  0
  152.8803  144.7830  158.8484 H   0  0  0  0  0  0  0  0  0  0  0  0
  151.1284  144.5972  158.9581 H   0  0  0  0  0  0  0  0  0  0  0  0
  153.1873  144.0878  161.0181 H   0  0  0  0  0  0  0  0  0  0  0  0
  151.4346  144.0969  161.2465 H   0  0  0  0  0  0  0  0  0  0  0  0
  150.7112  134.5194  153.7014 H   0  0  0  0  0  0  0  0  0  0  0  0
  148.9641  134.7313  153.8509 H   0  0  0  0  0  0  0  0  0  0  0  0
  1  2  1  0  0  0  0
  1 30  1  0  0  0  0
  1 31  1  0  0  0  0
  1 32  1  0  0  0  0
  2  3  1  0  0  0  0
  3 28  1  0  0  0  0
  3 27  1  0  0  0  0
  3  4  1  0  0  0  0
  4  5  1  0  0  0  0
  4 33  1  0  0  0  0
  4 34  1  0  0  0  0
  5 29  1  0  0  0  0
  5  6  1  0  0  0  0
  5  9  1  0  0  0  0
  6  7  1  0  0  0  0
  6  8  2  0  0  0  0
  7 35  1  0  0  0  0
  7 36  1  0  0  0  0
  9 10  1  0  0  0  0
  9 27  1  0  0  0  0
 10 15  1  0  0  0  0
 10 11  2  0  0  0  0
 11 12  1  0  0  0  0
 12 13  2  0  0  0  0
 12 37  1  0  0  0  0
 13 14  1  0  0  0  0
 14 18  1  0  0  0  0
 14 15  2  0  0  0  0
 15 16  1  0  0  0  0
 16 17  2  0  0  0  0
 17 18  1  0  0  0  0
 17 38  1  0  0  0  0
 18 19  1  0  0  0  0
 19 20  1  0  0  0  0
 19 39  1  0  0  0  0
 19 40  1  0  0  0  0
 20 21  1  0  0  0  0
 20 22  1  0  0  0  0
 20 41  1  0  0  0  0
 21 42  1  0  0  0  0
 22 26  1  0  0  0  0
 22 23  1  0  0  0  0
 22 43  1  0  0  0  0
 23 24  1  0  0  0  0
 23 44  1  0  0  0  0
 23 45  1  0  0  0  0
 24 25  1  0  0  0  0
 24 46  1  0  0  0  0
 24 47  1  0  0  0  0
 25 26  1  0  0  0  0
 25 48  1  0  0  0  0
 25 49  1  0  0  0  0
 27 50  1  0  0  0  0
 27 51  1  0  0  0  0
M  END
> <s_m_source_file>
AV-unprocessed.smi

> <i_m_source_file_index>
261

> <i_lp_mmshare_version>
43012

> <i_f3d_flags>
0

> <s_epik_input>
W0NIM11PW0NASF0xW0NIMl1bQ0BASF0oQyg9TylbTkgyXSlOKFtDSDJdMSljKG5bY0hdbjIpYyhjMjMpbltjSF1uM1tDSDJdW0NASF0oW09IXSlbQ0BASF00W0NIMl1bQ0gyXVtDSDJdTzQ=

> <s_epik_cmdline>
J2VwaWtfcHl0aG9uJywgJy1waCcsICc3LjAnLCAnLXRuJywgJzgnLCAnLW1hJywgJzIwMCcsICctbWV0YWxfYmluZGluZycsICctaW1hZScsICc8aW5maWxlLm1hZT4nLCAnLW9tYWUnLCAnPG91dGZpbGUubWFlPic=

> <r_lp_tautomer_probability>
1

> <r_epik_Ionization_Penalty>
0.000713824

> <r_epik_Ionization_Penalty_Charging>
0

> <r_epik_Ionization_Penalty_Neutral>
0.000713824

> <r_epik_State_Penalty>
0.000402132

> <r_epik_Charging_Adjusted_Penalty>
0.000402132

> <i_epik_Tot_Q>
0

> <i_epik_Tot_abs_Q>
0

> <r_epik_Metal_State_Penalty>
-0

> <b_epik_Metal_Only>
0

> <s_lp_Force_Field>
OPLS_2005

> <r_lp_Energy>
45.1221

> <b_lp_Chiralities_Consistent>
1

> <s_lp_Variant>
AV-unprocessed.smi:261-16

> <Gold.Version>
5.8.1

> <Gold.Id.Protein>
6NUR|6NUR_protein|mol2

> <Gold.PLP.Fitness>
42.7883

> <Gold.PLP.PLP>
-39.0977

> <Gold.PLP.part.hbond>
-3.0000

> <Gold.PLP.part.metal>
0.0000

> <Gold.PLP.part.buried>
-5.7066

> <Gold.PLP.part.nonpolar>
-30.8617

> <Gold.PLP.part.repulsive>
0.2406

> <Gold.PLP.ligand.clash>
0.0000

> <Gold.PLP.ligand.torsion>
1.0815

> <Gold.PLP.Chemscore.Hbond>
1.9000

> <Gold.PLP.Chemscore.CHOScore>
0.0000

> <Gold.PLP.Chemscore.Metal>
0.0000

> <Gold.Chemscore.Hbonds>
donor molecule, donor type, donor heavy atom, donor atom, acceptor molecule, acceptor atom, score
      P1  H  6896  6908       L1     8  1.00
      P1  H  7997  8008       L1    21  0.90

> <Gold.PLP.Chemscore.Internal.Correction>
0.1535

> <Gold.Rescore>
     Score         DG    S(hbond)    S(metal)    S(lipo)     H(rot)  DE(clash)    DE(int)     intcor
      9.84     -11.67       1.34        0.00      84.34       3.18       0.72       1.11       ----

> <Gold.Chemscore.Fitness>
9.8444

> <Gold.Chemscore.DG>
-11.6692

> <Gold.Chemscore.ZeroCoef>
-5.4800

> <Gold.Chemscore.Hbond>
1.3382

> <Gold.Chemscore.Metal>
0.0000

> <Gold.Chemscore.Lipo>
84.3448

> <Gold.Chemscore.Internal_Hbond>
0.0000

> <Gold.Chemscore.DEClash>
0.7182

> <Gold.Chemscore.DEInternal>
1.1067

> <Gold.Chemscore.Rot>
3.1831

> <Gold.Chemscore.Internal.Correction>
   9.000000E+99

> <Gold.Chemscore.Hbonds>
donor molecule, donor type, donor heavy atom, donor atom, acceptor molecule, acceptor atom, score
      P1  H  6896  6908       L1     8  0.88
      P1  H  7997  8008       L1    21  0.17

> <Gold.Chemscore.Hbond.Weighted>
-4.4695

> <Gold.Chemscore.Metal.Weighted>
-0.0000

> <Gold.Chemscore.Lipo.Weighted>
-9.8683

> <Gold.Chemscore.Internal_Hbond.Weighted>
0.0000

> <Gold.Chemscore.DEClash.Weighted>
0.7182

> <Gold.Chemscore.DEInternal.Weighted>
1.1067

> <Gold.Chemscore.Rot.Weighted>
8.1486

> <Gold.Chemscore.Internal.Correction.Weighted>
   9.000000E+99

> <Gold.Protein.RotatedTorsions>
[ 6907 6896 6895 6894 ] final  144.84 input  -60.11 | X-H torsion
[ 7974 7965 7964 7962 ] final  144.25 input  175.53 | X-H torsion
[ 8008 7997 7996 7995 ] final  -98.63 input   59.86 | X-H torsion
[ 10167 10162 10161 10158 ] final  105.63 input  -65.29 | X-H torsion
[ 10718 10713 10712 10709 ] final   63.98 input   66.30 | X-H torsion
[ 10763 10752 10751 10750 ] final -165.53 input  -60.55 | X-H torsion
[ 11005 11000 10999 10996 ] final -113.01 input  -57.11 | X-H torsion

> <Gold.Protein.ActiveResidues>
 VAL166  LYS551  ARG553  GLY616  TRP617  ASP618  TYR619  PRO620  LYS621  CYS622 
 ASP623  PHE694  ASN695  SER759  ASP760  ASP761  ALA762  ILE779  LEU786  VAL792 
 PHE793  MET794  SER795  GLU796  ALA797  LYS798  CYS799  TRP800  GLU811  SER814 

> <Gold.Protein.RotatedAtoms>
  152.1885  133.4756  159.4994 H   0  0  0  0  0  0  0  0  0  0  0  0  # atno 6907 bound_to 6896
  150.6947  134.1743  159.4233 H   0  0  0  0  0  0  0  0  0  0  0  0  # atno 6908 bound_to 6896
  151.9657  135.0101  160.0601 H   0  0  0  0  0  0  0  0  0  0  0  0  # atno 6909 bound_to 6896
  144.8851  139.5640  143.5824 H   0  0  0  0  0  0  0  0  0  0  0  0  # atno 7974 bound_to 7965
  154.8038  140.0454  157.1292 H   0  0  0  0  0  0  0  0  0  0  0  0  # atno 8008 bound_to 7997
  154.9448  140.3057  155.5083 H   0  0  0  0  0  0  0  0  0  0  0  0  # atno 8009 bound_to 7997
  156.2964  140.2299  156.4520 H   0  0  0  0  0  0  0  0  0  0  0  0  # atno 8010 bound_to 7997
  139.7077  144.7083  151.1080 H   0  0  0  0  0  0  0  0  0  0  0  0  # atno 10167 bound_to 10162
  157.6009  130.9135  149.9786 H   0  0  0  0  0  0  0  0  0  0  0  0  # atno 10718 bound_to 10713
  154.6922  135.2973  154.9463 H   0  0  0  0  0  0  0  0  0  0  0  0  # atno 10763 bound_to 10752
  154.0422  135.6656  153.4795 H   0  0  0  0  0  0  0  0  0  0  0  0  # atno 10764 bound_to 10752
  153.0620  135.5110  154.8021 H   0  0  0  0  0  0  0  0  0  0  0  0  # atno 10765 bound_to 10752
  141.0640  133.9489  157.2613 H   0  0  0  0  0  0  0  0  0  0  0  0  # atno 11005 bound_to 11000
  146.3019  139.7455  142.9084 LP  0  0  0  0  0  0  0  0  0  0  0  0  # atno 17320 bound_to 7965
  145.3883  141.0368  143.3138 LP  0  0  0  0  0  0  0  0  0  0  0  0  # atno 17321 bound_to 7965
  140.7725  143.5336  150.9394 LP  0  0  0  0  0  0  0  0  0  0  0  0  # atno 17342 bound_to 10162
  139.9020  143.6824  152.3129 LP  0  0  0  0  0  0  0  0  0  0  0  0  # atno 17343 bound_to 10162
  156.1082  130.3651  150.0097 LP  0  0  0  0  0  0  0  0  0  0  0  0  # atno 17370 bound_to 10713
  156.8200  130.9355  151.3641 LP  0  0  0  0  0  0  0  0  0  0  0  0  # atno 17371 bound_to 10713
  139.9459  135.0184  156.8850 LP  0  0  0  0  0  0  0  0  0  0  0  0  # atno 17394 bound_to 11000
  140.5811  134.0351  155.7464 LP  0  0  0  0  0  0  0  0  0  0  0  0  # atno 17395 bound_to 11000

$$$$
