AV-unprocessed.smi:1244|AV-procd|sdf|5237|dock7
  -GOLD-   22720 4343D 1   1.00000     0.00000
 Structure written by MMmdl.
 55 57  0  0  0  0  0  0  0  0  4 V2000
  144.1762  132.2951  150.1491 C   0  0  0  0  0  0  0  0  0  0  0  0
  145.0368  132.7434  151.3353 C   0  0  2  0  0  0  0  0  0  0  0  0
  146.0361  133.8494  150.9420 C   0  0  0  0  0  0  0  0  0  0  0  0
  146.9016  134.2190  152.0889 N   0  3  1  0  0  0  0  0  0  0  0  0
  146.2300  135.0891  153.0944 C   0  0  0  0  0  0  0  0  0  0  0  0
  147.0368  135.1871  154.4056 C   0  0  0  0  0  0  0  0  0  0  0  0
  147.1057  136.5762  154.8569 N   0  5  0  0  0  0  0  0  0  0  0  0
  148.2569  137.2696  155.0644 C   0  0  0  0  0  0  0  0  0  0  0  0
  149.4126  136.8297  155.0859 O   0  0  0  0  0  0  0  0  0  0  0  0
  148.0298  138.5808  155.2492 N   0  0  0  0  0  0  0  0  0  0  0  0
  148.9859  139.6243  155.3792 C   0  0  0  0  0  0  0  0  0  0  0  0
  150.3243  139.3348  155.7445 C   0  0  0  0  0  0  0  0  0  0  0  0
  151.2395  140.3852  155.9461 C   0  0  0  0  0  0  0  0  0  0  0  0
  150.7959  141.7103  155.7958 C   0  0  0  0  0  0  0  0  0  0  0  0
  149.5118  141.9529  155.4602 N   0  3  0  0  0  0  0  0  0  0  0  0
  148.5871  140.9848  155.2378 C   0  0  0  0  0  0  0  0  0  0  0  0
  147.2801  141.3897  154.8814 N   0  0  0  0  0  0  0  0  0  0  0  0
  146.5038  142.2487  155.7676 C   0  0  0  0  0  0  0  0  0  0  0  0
  145.3289  142.7308  154.9211 C   0  0  0  0  0  0  0  0  0  0  0  0
  145.9534  142.8622  153.5352 C   0  0  0  0  0  0  0  0  0  0  0  0
  146.9870  141.7318  153.4928 C   0  0  0  0  0  0  0  0  0  0  0  0
  147.5603  133.0070  152.6474 C   0  0  0  0  0  0  0  0  0  0  0  0
  146.5348  131.8980  152.9690 C   0  0  2  0  0  0  0  0  0  0  0  0
  147.2157  130.6003  153.4172 C   0  0  0  0  0  0  0  0  0  0  0  0
  145.7662  131.6143  151.8044 O   0  0  0  0  0  0  0  0  0  0  0  0
  143.5880  133.1245  149.7553 H   0  0  0  0  0  0  0  0  0  0  0  0
  143.4823  131.5086  150.4470 H   0  0  0  0  0  0  0  0  0  0  0  0
  144.7925  131.9060  149.3380 H   0  0  0  0  0  0  0  0  0  0  0  0
  144.3745  133.1007  152.1259 H   0  0  0  0  0  0  0  0  0  0  0  0
  146.6752  133.4931  150.1327 H   0  0  0  0  0  0  0  0  0  0  0  0
  145.5181  134.7281  150.5555 H   0  0  0  0  0  0  0  0  0  0  0  0
  146.1231  136.0978  152.6923 H   0  0  0  0  0  0  0  0  0  0  0  0
  145.2162  134.7377  153.2875 H   0  0  0  0  0  0  0  0  0  0  0  0
  146.5878  134.5351  155.1561 H   0  0  0  0  0  0  0  0  0  0  0  0
  148.0347  134.7830  154.2332 H   0  0  0  0  0  0  0  0  0  0  0  0
  147.0720  138.8751  155.1259 H   0  0  0  0  0  0  0  0  0  0  0  0
  150.6529  138.3169  155.8930 H   0  0  0  0  0  0  0  0  0  0  0  0
  152.2620  140.1765  156.2246 H   0  0  0  0  0  0  0  0  0  0  0  0
  151.4228  142.5787  155.9373 H   0  0  0  0  0  0  0  0  0  0  0  0
  146.1696  141.7097  156.6546 H   0  0  0  0  0  0  0  0  0  0  0  0
  147.1018  143.1036  156.0867 H   0  0  0  0  0  0  0  0  0  0  0  0
  144.5444  141.9729  154.9047 H   0  0  0  0  0  0  0  0  0  0  0  0
  144.8948  143.6621  155.2863 H   0  0  0  0  0  0  0  0  0  0  0  0
  145.2214  142.7961  152.7297 H   0  0  0  0  0  0  0  0  0  0  0  0
  146.4595  143.8249  153.4515 H   0  0  0  0  0  0  0  0  0  0  0  0
  147.8810  142.0337  152.9454 H   0  0  0  0  0  0  0  0  0  0  0  0
  146.5637  140.8579  152.9966 H   0  0  0  0  0  0  0  0  0  0  0  0
  148.2710  132.6398  151.9058 H   0  0  0  0  0  0  0  0  0  0  0  0
  148.1462  133.2571  153.5329 H   0  0  0  0  0  0  0  0  0  0  0  0
  145.8647  132.2209  153.7668 H   0  0  0  0  0  0  0  0  0  0  0  0
  147.8105  130.7598  154.3168 H   0  0  0  0  0  0  0  0  0  0  0  0
  147.8776  130.2122  152.6425 H   0  0  0  0  0  0  0  0  0  0  0  0
  146.4771  129.8300  153.6400 H   0  0  0  0  0  0  0  0  0  0  0  0
  147.6352  134.7972  151.7040 H   0  0  0  0  0  0  0  0  0  0  0  0
  149.2202  142.9249  155.3602 H   0  0  0  0  0  0  0  0  0  0  0  0
  1  2  1  0  0  0  0
  1 26  1  0  0  0  0
  1 27  1  0  0  0  0
  1 28  1  0  0  0  0
  2 25  1  0  0  0  0
  2  3  1  0  0  0  0
  2 29  1  0  0  0  0
  3  4  1  0  0  0  0
  3 30  1  0  0  0  0
  3 31  1  0  0  0  0
  4  5  1  0  0  0  0
  4 22  1  0  0  0  0
  4 54  1  0  0  0  0
  5  6  1  0  0  0  0
  5 32  1  0  0  0  0
  5 33  1  0  0  0  0
  6  7  1  0  0  0  0
  6 34  1  0  0  0  0
  6 35  1  0  0  0  0
  7  8  1  0  0  0  0
  8  9  2  0  0  0  0
  8 10  1  0  0  0  0
 10 11  1  0  0  0  0
 10 36  1  0  0  0  0
 11 16  1  0  0  0  0
 11 12  2  0  0  0  0
 12 13  1  0  0  0  0
 12 37  1  0  0  0  0
 13 14  2  0  0  0  0
 13 38  1  0  0  0  0
 14 15  1  0  0  0  0
 14 39  1  0  0  0  0
 15 16  2  0  0  0  0
 15 55  1  0  0  0  0
 16 17  1  0  0  0  0
 17 21  1  0  0  0  0
 17 18  1  0  0  0  0
 18 19  1  0  0  0  0
 18 40  1  0  0  0  0
 18 41  1  0  0  0  0
 19 20  1  0  0  0  0
 19 42  1  0  0  0  0
 19 43  1  0  0  0  0
 20 21  1  0  0  0  0
 20 44  1  0  0  0  0
 20 45  1  0  0  0  0
 21 46  1  0  0  0  0
 21 47  1  0  0  0  0
 22 23  1  0  0  0  0
 22 48  1  0  0  0  0
 22 49  1  0  0  0  0
 23 24  1  0  0  0  0
 23 25  1  0  0  0  0
 23 50  1  0  0  0  0
 24 51  1  0  0  0  0
 24 52  1  0  0  0  0
 24 53  1  0  0  0  0
M  CHG  1   4   1
M  CHG  1   7  -1
M  CHG  1  15   1
M  END
> <s_m_source_file>
AV-unprocessed.smi

> <i_m_source_file_index>
1244

> <i_lp_mmshare_version>
43012

> <i_f3d_flags>
0

> <s_epik_input>
W0NIM11bQ0BASF0xW0NIMl1OKFtDSDJdW0NASF0oTzEpW0NIM10pW0NIMl1bQ0gyXVtOSF1DKD1PKVtOSF1jMltjSF1bY0hdW2NIXW5jMk4zW0NIMl1bQ0gyXVtDSDJdW0NIMl0z

> <s_epik_cmdline>
J2VwaWtfcHl0aG9uJywgJy1waCcsICc3LjAnLCAnLXRuJywgJzgnLCAnLW1hJywgJzIwMCcsICctbWV0YWxfYmluZGluZycsICctaW1hZScsICc8aW5maWxlLm1hZT4nLCAnLW9tYWUnLCAnPG91dGZpbGUubWFlPic=

> <r_lp_tautomer_probability>
0.999994

> <r_epik_Ionization_Penalty>
8.60539

> <r_epik_Ionization_Penalty_Charging>
8.60539

> <r_epik_Ionization_Penalty_Neutral>
3.60441e-06

> <r_epik_State_Penalty>
8.59967

> <r_epik_Charging_Adjusted_Penalty>
17.2051

> <i_epik_Tot_Q>
1

> <i_epik_Tot_abs_Q>
3

> <r_epik_Metal_State_Penalty>
4.59489

> <b_epik_Metal_Only>
1

> <s_lp_Force_Field>
OPLS_2005

> <r_lp_Energy>
45.4407

> <b_lp_Chiralities_Consistent>
1

> <s_lp_Variant>
AV-unprocessed.smi:1244-17

> <Gold.Version>
5.8.1

> <Gold.Id.Protein>
6NUR|6NUR_protein|mol2

> <Gold.PLP.Fitness>
47.4333

> <Gold.PLP.PLP>
-36.6481

> <Gold.PLP.part.hbond>
-2.0000

> <Gold.PLP.part.metal>
0.0000

> <Gold.PLP.part.buried>
-6.2225

> <Gold.PLP.part.nonpolar>
-28.0998

> <Gold.PLP.part.repulsive>
0.6238

> <Gold.PLP.ligand.clash>
0.1425

> <Gold.PLP.ligand.torsion>
0.8829

> <Gold.PLP.Chemscore.Hbond>
4.0000

> <Gold.PLP.Chemscore.CHOScore>
0.0000

> <Gold.PLP.Chemscore.Metal>
0.0000

> <Gold.Chemscore.Hbonds>
donor molecule, donor type, donor heavy atom, donor atom, acceptor molecule, acceptor atom, score
      L1  H     4    54       P1  7948  2.00
      L1  H    15    55       P1  8028  2.00

> <Gold.PLP.Chemscore.Internal.Correction>
0.6934

> <Gold.Rescore>
     Score         DG    S(hbond)    S(metal)    S(lipo)     H(rot)  DE(clash)    DE(int)     intcor
     14.88     -17.34       1.89        0.00      82.21       1.60       0.00       2.46       ----

> <Gold.Chemscore.Fitness>
14.8758

> <Gold.Chemscore.DG>
-17.3375

> <Gold.Chemscore.ZeroCoef>
-5.4800

> <Gold.Chemscore.Hbond>
1.8950

> <Gold.Chemscore.Metal>
0.0000

> <Gold.Chemscore.Lipo>
82.2124

> <Gold.Chemscore.Internal_Hbond>
0.0000

> <Gold.Chemscore.DEClash>
0.0021

> <Gold.Chemscore.DEInternal>
2.4596

> <Gold.Chemscore.Rot>
1.5978

> <Gold.Chemscore.Internal.Correction>
   9.000000E+99

> <Gold.Chemscore.Hbonds>
donor molecule, donor type, donor heavy atom, donor atom, acceptor molecule, acceptor atom, score
      L1  H     4    54       P1  7948  0.43
      L1  H    15    55       P1  8028  1.00

> <Gold.Chemscore.Hbond.Weighted>
-6.3291

> <Gold.Chemscore.Metal.Weighted>
-0.0000

> <Gold.Chemscore.Lipo.Weighted>
-9.6188

> <Gold.Chemscore.Internal_Hbond.Weighted>
0.0000

> <Gold.Chemscore.DEClash.Weighted>
0.0021

> <Gold.Chemscore.DEInternal.Weighted>
2.4596

> <Gold.Chemscore.Rot.Weighted>
4.0905

> <Gold.Chemscore.Internal.Correction.Weighted>
   9.000000E+99

> <Gold.Protein.RotatedTorsions>
[ 6907 6896 6895 6894 ] final  -79.69 input  -60.11 | X-H torsion
[ 7974 7965 7964 7962 ] final -154.88 input  175.53 | X-H torsion
[ 8008 7997 7996 7995 ] final   52.16 input   59.86 | X-H torsion
[ 10167 10162 10161 10158 ] final  160.41 input  -65.29 | X-H torsion
[ 10718 10713 10712 10709 ] final  133.35 input   66.30 | X-H torsion
[ 10763 10752 10751 10750 ] final  116.39 input  -60.55 | X-H torsion
[ 11005 11000 10999 10996 ] final  -51.56 input  -57.11 | X-H torsion

> <Gold.Protein.ActiveResidues>
 VAL166  LYS551  ARG553  GLY616  TRP617  ASP618  TYR619  PRO620  LYS621  CYS622 
 ASP623  PHE694  ASN695  SER759  ASP760  ASP761  ALA762  ILE779  LEU786  VAL792 
 PHE793  MET794  SER795  GLU796  ALA797  LYS798  CYS799  TRP800  GLU811  SER814 

> <Gold.Protein.RotatedAtoms>
  150.6944  134.4083  159.5149 H   0  0  0  0  0  0  0  0  0  0  0  0  # atno 6907 bound_to 6896
  152.1845  134.8722  160.0532 H   0  0  0  0  0  0  0  0  0  0  0  0  # atno 6908 bound_to 6896
  151.9700  133.3688  159.4104 H   0  0  0  0  0  0  0  0  0  0  0  0  # atno 6909 bound_to 6896
  144.7667  140.4327  143.5936 H   0  0  0  0  0  0  0  0  0  0  0  0  # atno 7974 bound_to 7965
  155.4472  140.3457  155.4296 H   0  0  0  0  0  0  0  0  0  0  0  0  # atno 8008 bound_to 7997
  156.1242  140.1496  156.9190 H   0  0  0  0  0  0  0  0  0  0  0  0  # atno 8009 bound_to 7997
  154.4846  140.0859  156.7436 H   0  0  0  0  0  0  0  0  0  0  0  0  # atno 8010 bound_to 7997
  139.4840  144.4636  151.8671 H   0  0  0  0  0  0  0  0  0  0  0  0  # atno 10167 bound_to 10162
  157.4781  131.1084  150.9717 H   0  0  0  0  0  0  0  0  0  0  0  0  # atno 10718 bound_to 10713
  153.5365  135.3567  155.2699 H   0  0  0  0  0  0  0  0  0  0  0  0  # atno 10763 bound_to 10752
  154.8722  135.4081  154.3092 H   0  0  0  0  0  0  0  0  0  0  0  0  # atno 10764 bound_to 10752
  153.3791  135.7067  153.6647 H   0  0  0  0  0  0  0  0  0  0  0  0  # atno 10765 bound_to 10752
  141.0877  133.6639  156.3895 H   0  0  0  0  0  0  0  0  0  0  0  0  # atno 11005 bound_to 11000
  145.6447  139.1555  143.2895 LP  0  0  0  0  0  0  0  0  0  0  0  0  # atno 17320 bound_to 7965
  146.1781  140.6541  142.9202 LP  0  0  0  0  0  0  0  0  0  0  0  0  # atno 17321 bound_to 7965
  140.4100  144.2381  150.5889 LP  0  0  0  0  0  0  0  0  0  0  0  0  # atno 17342 bound_to 10162
  140.4975  143.2328  151.8727 LP  0  0  0  0  0  0  0  0  0  0  0  0  # atno 17343 bound_to 10162
  157.0459  130.5768  149.5363 LP  0  0  0  0  0  0  0  0  0  0  0  0  # atno 17370 bound_to 10713
  156.0107  130.5198  150.7979 LP  0  0  0  0  0  0  0  0  0  0  0  0  # atno 17371 bound_to 10713
  140.5324  134.6200  157.5354 LP  0  0  0  0  0  0  0  0  0  0  0  0  # atno 17394 bound_to 11000
  139.9698  134.7311  156.0064 LP  0  0  0  0  0  0  0  0  0  0  0  0  # atno 17395 bound_to 11000

$$$$
