AV-unprocessed.smi:2489|AV-procd|sdf|9797|dock3
  -GOLD-   2272013433D 1   1.00000     0.00000
 Structure written by MMmdl.
 33 34  0  0  0  0  0  0  0  0  1 V2000
  152.8991  142.9705  162.7434 C   0  0  0  0  0  0  0  0  0  0  0  0
  152.2509  142.4144  161.6089 O   0  0  0  0  0  0  0  0  0  0  0  0
  151.9638  143.2550  160.5556 C   0  0  0  0  0  0  0  0  0  0  0  0
  152.1389  144.6587  160.5790 C   0  0  0  0  0  0  0  0  0  0  0  0
  151.8025  145.3951  159.4285 C   0  0  0  0  0  0  0  0  0  0  0  0
  151.3209  144.8314  158.3023 N   0  0  0  0  0  0  0  0  0  0  0  0
  151.1461  143.4882  158.2618 C   0  0  0  0  0  0  0  0  0  0  0  0
  150.6452  142.7917  157.1299 N   0  0  0  0  0  0  0  0  0  0  0  0
  150.8015  141.4934  156.8110 C   0  0  0  0  0  0  0  0  0  0  0  0
  151.4423  140.6816  157.4799 O   0  0  0  0  0  0  0  0  0  0  0  0
  150.1312  141.0527  155.5034 C   0  0  2  0  0  0  0  0  0  0  0  0
  148.8258  140.2589  155.6937 C   0  0  0  0  0  0  0  0  0  0  0  0
  149.2392  138.8310  155.4037 C   0  0  0  0  0  0  0  0  0  0  0  0
  150.3249  139.0351  154.3529 C   0  0  2  0  0  0  0  0  0  0  0  0
  151.2759  137.8445  154.1949 C   0  0  0  0  0  0  0  0  0  0  0  0
  151.0288  140.1755  154.8245 O   0  0  0  0  0  0  0  0  0  0  0  0
  151.4603  142.6750  159.3734 C   0  0  0  0  0  0  0  0  0  0  0  0
  153.0577  142.1892  163.4865 H   0  0  0  0  0  0  0  0  0  0  0  0
  152.2922  143.7485  163.2081 H   0  0  0  0  0  0  0  0  0  0  0  0
  153.8755  143.3810  162.4830 H   0  0  0  0  0  0  0  0  0  0  0  0
  152.5188  145.1803  161.4443 H   0  0  0  0  0  0  0  0  0  0  0  0
  151.9229  146.4682  159.4122 H   0  0  0  0  0  0  0  0  0  0  0  0
  150.1065  143.3468  156.4814 H   0  0  0  0  0  0  0  0  0  0  0  0
  149.9383  141.9249  154.8766 H   0  0  0  0  0  0  0  0  0  0  0  0
  148.3727  140.3678  156.6799 H   0  0  0  0  0  0  0  0  0  0  0  0
  148.0877  140.5868  154.9604 H   0  0  0  0  0  0  0  0  0  0  0  0
  149.6557  138.3734  156.3023 H   0  0  0  0  0  0  0  0  0  0  0  0
  148.4150  138.2103  155.0516 H   0  0  0  0  0  0  0  0  0  0  0  0
  149.8682  139.2826  153.3932 H   0  0  0  0  0  0  0  0  0  0  0  0
  150.7388  136.9570  153.8597 H   0  0  0  0  0  0  0  0  0  0  0  0
  151.7673  137.6034  155.1379 H   0  0  0  0  0  0  0  0  0  0  0  0
  152.0522  138.0618  153.4612 H   0  0  0  0  0  0  0  0  0  0  0  0
  151.3158  141.6053  159.3252 H   0  0  0  0  0  0  0  0  0  0  0  0
  1  2  1  0  0  0  0
  1 18  1  0  0  0  0
  1 19  1  0  0  0  0
  1 20  1  0  0  0  0
  2  3  1  0  0  0  0
  3 17  1  0  0  0  0
  3  4  2  0  0  0  0
  4  5  1  0  0  0  0
  4 21  1  0  0  0  0
  5  6  2  0  0  0  0
  5 22  1  0  0  0  0
  6  7  1  0  0  0  0
  7  8  1  0  0  0  0
  7 17  2  0  0  0  0
  8  9  1  0  0  0  0
  8 23  1  0  0  0  0
  9 10  2  0  0  0  0
  9 11  1  0  0  0  0
 11 16  1  0  0  0  0
 11 12  1  0  0  0  0
 11 24  1  0  0  0  0
 12 13  1  0  0  0  0
 12 25  1  0  0  0  0
 12 26  1  0  0  0  0
 13 14  1  0  0  0  0
 13 27  1  0  0  0  0
 13 28  1  0  0  0  0
 14 15  1  0  0  0  0
 14 16  1  0  0  0  0
 14 29  1  0  0  0  0
 15 30  1  0  0  0  0
 15 31  1  0  0  0  0
 15 32  1  0  0  0  0
 17 33  1  0  0  0  0
M  END
> <s_m_source_file>
AV-unprocessed.smi

> <i_m_source_file_index>
2489

> <i_lp_mmshare_version>
43012

> <i_f3d_flags>
0

> <s_epik_input>
W0NIM11PYzFbY0hdW2NIXW5jKFtjSF0xKVtOSF1DKD1PKVtDQEBIXTJbQ0gyXVtDSDJdW0NASF0oTzIpW0NIM10=

> <s_epik_cmdline>
J2VwaWtfcHl0aG9uJywgJy1waCcsICc3LjAnLCAnLXRuJywgJzgnLCAnLW1hJywgJzIwMCcsICctbWV0YWxfYmluZGluZycsICctaW1hZScsICc8aW5maWxlLm1hZT4nLCAnLW9tYWUnLCAnPG91dGZpbGUubWFlPic=

> <r_epik_Ionization_Penalty>
0.0871917

> <r_epik_Ionization_Penalty_Charging>
0

> <r_epik_Ionization_Penalty_Neutral>
0.0871917

> <r_epik_State_Penalty>
0.146479

> <r_epik_Charging_Adjusted_Penalty>
0.146479

> <i_epik_Tot_Q>
0

> <i_epik_Tot_abs_Q>
0

> <r_epik_Metal_State_Penalty>
0.067489

> <b_epik_Metal_Only>
0

> <s_lp_Force_Field>
OPLS_2005

> <r_lp_Energy>
22.1888

> <b_lp_Chiralities_Consistent>
1

> <s_lp_Variant>
AV-unprocessed.smi:2489-3

> <Gold.Version>
5.8.1

> <Gold.Id.Protein>
6NUR|6NUR_protein|mol2

> <Gold.PLP.Fitness>
42.0760

> <Gold.PLP.PLP>
-37.3750

> <Gold.PLP.part.hbond>
-1.9874

> <Gold.PLP.part.metal>
0.0000

> <Gold.PLP.part.buried>
-6.4385

> <Gold.PLP.part.nonpolar>
-28.8604

> <Gold.PLP.part.repulsive>
0.2988

> <Gold.PLP.ligand.clash>
0.0196

> <Gold.PLP.ligand.torsion>
0.6453

> <Gold.PLP.Chemscore.Hbond>
2.0000

> <Gold.PLP.Chemscore.CHOScore>
0.0000

> <Gold.PLP.Chemscore.Metal>
0.0000

> <Gold.Chemscore.Hbonds>
donor molecule, donor type, donor heavy atom, donor atom, acceptor molecule, acceptor atom, score
      L1  H     8    23       P1  8028  1.00
      P1  H  6933  6945       L1     2  0.10
      P1  H  7989  7998       L1    16  1.00

> <Gold.PLP.Chemscore.Internal.Correction>
0.0111

> <Gold.Rescore>
     Score         DG    S(hbond)    S(metal)    S(lipo)     H(rot)  DE(clash)    DE(int)     intcor
     16.76     -18.85       1.85        0.00      88.44       1.23       0.03       2.06       ----

> <Gold.Chemscore.Fitness>
16.7598

> <Gold.Chemscore.DG>
-18.8542

> <Gold.Chemscore.ZeroCoef>
-5.4800

> <Gold.Chemscore.Hbond>
1.8461

> <Gold.Chemscore.Metal>
0.0000

> <Gold.Chemscore.Lipo>
88.4418

> <Gold.Chemscore.Internal_Hbond>
0.0000

> <Gold.Chemscore.DEClash>
0.0320

> <Gold.Chemscore.DEInternal>
2.0624

> <Gold.Chemscore.Rot>
1.2264

> <Gold.Chemscore.Internal.Correction>
   9.000000E+99

> <Gold.Chemscore.Hbonds>
donor molecule, donor type, donor heavy atom, donor atom, acceptor molecule, acceptor atom, score
      L1  H     8    23       P1  8028  0.95
      P1  H  6933  6945       L1     2  0.02
      P1  H  7989  7998       L1    16  0.39

> <Gold.Chemscore.Hbond.Weighted>
-6.1661

> <Gold.Chemscore.Metal.Weighted>
-0.0000

> <Gold.Chemscore.Lipo.Weighted>
-10.3477

> <Gold.Chemscore.Internal_Hbond.Weighted>
0.0000

> <Gold.Chemscore.DEClash.Weighted>
0.0320

> <Gold.Chemscore.DEInternal.Weighted>
2.0624

> <Gold.Chemscore.Rot.Weighted>
3.1396

> <Gold.Chemscore.Internal.Correction.Weighted>
   9.000000E+99

> <Gold.Protein.RotatedTorsions>
[ 6907 6896 6895 6894 ] final   45.32 input  -60.11 | X-H torsion
[ 7974 7965 7964 7962 ] final  166.30 input  175.53 | X-H torsion
[ 8008 7997 7996 7995 ] final  -43.69 input   59.86 | X-H torsion
[ 10167 10162 10161 10158 ] final  116.87 input  -65.29 | X-H torsion
[ 10718 10713 10712 10709 ] final   47.45 input   66.30 | X-H torsion
[ 10763 10752 10751 10750 ] final   36.42 input  -60.55 | X-H torsion
[ 11005 11000 10999 10996 ] final  126.97 input  -57.11 | X-H torsion

> <Gold.Protein.ActiveResidues>
 VAL166  LYS551  ARG553  GLY616  TRP617  ASP618  TYR619  PRO620  LYS621  CYS622 
 ASP623  PHE694  ASN695  SER759  ASP760  ASP761  ALA762  ILE779  LEU786  VAL792 
 PHE793  MET794  SER795  GLU796  ALA797  LYS798  CYS799  TRP800  GLU811  SER814 

> <Gold.Protein.RotatedAtoms>
  152.2431  134.8208  160.0457 H   0  0  0  0  0  0  0  0  0  0  0  0  # atno 6907 bound_to 6896
  151.8916  133.3512  159.3808 H   0  0  0  0  0  0  0  0  0  0  0  0  # atno 6908 bound_to 6896
  150.7060  134.4844  159.5530 H   0  0  0  0  0  0  0  0  0  0  0  0  # atno 6909 bound_to 6896
  144.7468  139.8595  143.6379 H   0  0  0  0  0  0  0  0  0  0  0  0  # atno 7974 bound_to 7965
  154.3997  140.1441  156.3560 H   0  0  0  0  0  0  0  0  0  0  0  0  # atno 8008 bound_to 7997
  155.8225  140.3469  155.5502 H   0  0  0  0  0  0  0  0  0  0  0  0  # atno 8009 bound_to 7997
  155.8273  140.0907  157.1804 H   0  0  0  0  0  0  0  0  0  0  0  0  # atno 8010 bound_to 7997
  139.6218  144.7102  151.2619 H   0  0  0  0  0  0  0  0  0  0  0  0  # atno 10167 bound_to 10162
  157.4586  130.8182  149.7862 H   0  0  0  0  0  0  0  0  0  0  0  0  # atno 10718 bound_to 10713
  153.0078  135.6306  154.1982 H   0  0  0  0  0  0  0  0  0  0  0  0  # atno 10763 bound_to 10752
  154.1725  135.2817  155.3078 H   0  0  0  0  0  0  0  0  0  0  0  0  # atno 10764 bound_to 10752
  154.5897  135.5621  153.7326 H   0  0  0  0  0  0  0  0  0  0  0  0  # atno 10765 bound_to 10752
  139.9483  134.9626  156.8786 H   0  0  0  0  0  0  0  0  0  0  0  0  # atno 11005 bound_to 11000
  146.1358  139.4404  143.0140 LP  0  0  0  0  0  0  0  0  0  0  0  0  # atno 17320 bound_to 7965
  145.7093  141.0111  143.1462 LP  0  0  0  0  0  0  0  0  0  0  0  0  # atno 17321 bound_to 7965
  140.7386  143.6642  150.8137 LP  0  0  0  0  0  0  0  0  0  0  0  0  # atno 17342 bound_to 10162
  140.0254  143.5499  152.2783 LP  0  0  0  0  0  0  0  0  0  0  0  0  # atno 17343 bound_to 10162
  156.0018  130.3876  150.2577 LP  0  0  0  0  0  0  0  0  0  0  0  0  # atno 17370 bound_to 10713
  157.0753  131.0128  151.3176 LP  0  0  0  0  0  0  0  0  0  0  0  0  # atno 17371 bound_to 10713
  140.5780  134.0380  155.7453 LP  0  0  0  0  0  0  0  0  0  0  0  0  # atno 17394 bound_to 11000
  141.1140  133.9570  157.2857 LP  0  0  0  0  0  0  0  0  0  0  0  0  # atno 17395 bound_to 11000

$$$$
