AV-unprocessed.smi:1564|AV-procd|sdf|6294|dock4
  -GOLD-   22720 6493D 1   1.00000     0.00000
 Structure written by MMmdl.
 43 44  0  0  0  0  0  0  0  0  2 V2000
  150.6298  141.7369  157.7643 C   0  0  0  0  0  0  0  0  0  0  0  0
  151.0833  141.1913  156.5305 O   0  0  0  0  0  0  0  0  0  0  0  0
  150.3569  140.1654  155.9613 C   0  0  0  0  0  0  0  0  0  0  0  0
  149.4153  139.4843  156.7574 C   0  0  0  0  0  0  0  0  0  0  0  0
  148.6696  138.4361  156.1853 C   0  0  0  0  0  0  0  0  0  0  0  0
  148.8844  138.1061  154.8256 C   0  0  0  0  0  0  0  0  0  0  0  0
  148.2109  137.0607  154.1369 N   0  0  0  0  0  0  0  0  0  0  0  0
  147.0011  136.5329  154.3912 C   0  0  0  0  0  0  0  0  0  0  0  0
  146.2340  136.8999  155.2808 O   0  0  0  0  0  0  0  0  0  0  0  0
  146.7086  135.5488  153.5296 N   0  0  0  0  0  0  0  0  0  0  0  0
  145.4626  134.7896  153.5351 C   0  0  1  0  0  0  0  0  0  0  0  0
  144.2594  135.5473  152.9719 C   0  0  0  0  0  0  0  0  0  0  0  0
  143.3686  134.4554  152.3569 C   0  0  0  0  0  0  0  0  0  0  0  0
  144.1274  133.1801  152.4236 N   0  3  1  0  0  0  0  0  0  0  0  0
  143.8744  132.2339  151.3007 C   0  0  0  0  0  0  0  0  0  0  0  0
  144.7968  131.0038  151.3936 C   0  0  0  0  0  0  0  0  0  0  0  0
  144.0585  132.9144  149.9311 C   0  0  0  0  0  0  0  0  0  0  0  0
  145.5390  133.5617  152.6340 C   0  0  0  0  0  0  0  0  0  0  0  0
  149.8600  138.8405  154.1196 C   0  0  0  0  0  0  0  0  0  0  0  0
  150.5779  139.8466  154.6619 N   0  0  0  0  0  0  0  0  0  0  0  0
  151.3044  142.5344  158.0753 H   0  0  0  0  0  0  0  0  0  0  0  0
  150.6214  140.9843  158.5542 H   0  0  0  0  0  0  0  0  0  0  0  0
  149.6318  142.1669  157.6679 H   0  0  0  0  0  0  0  0  0  0  0  0
  149.2706  139.7577  157.7922 H   0  0  0  0  0  0  0  0  0  0  0  0
  147.9642  137.9033  156.8034 H   0  0  0  0  0  0  0  0  0  0  0  0
  148.6881  136.7057  153.3212 H   0  0  0  0  0  0  0  0  0  0  0  0
  147.3909  135.3120  152.8241 H   0  0  0  0  0  0  0  0  0  0  0  0
  145.2376  134.4602  154.5518 H   0  0  0  0  0  0  0  0  0  0  0  0
  143.7422  136.1239  153.7397 H   0  0  0  0  0  0  0  0  0  0  0  0
  144.5752  136.2432  152.1929 H   0  0  0  0  0  0  0  0  0  0  0  0
  142.4304  134.3510  152.9026 H   0  0  0  0  0  0  0  0  0  0  0  0
  143.1270  134.7189  151.3260 H   0  0  0  0  0  0  0  0  0  0  0  0
  142.8409  131.8911  151.3701 H   0  0  0  0  0  0  0  0  0  0  0  0
  144.6326  130.3271  150.5544 H   0  0  0  0  0  0  0  0  0  0  0  0
  144.6219  130.4278  152.3023 H   0  0  0  0  0  0  0  0  0  0  0  0
  145.8477  131.2950  151.3801 H   0  0  0  0  0  0  0  0  0  0  0  0
  143.9315  132.1977  149.1191 H   0  0  0  0  0  0  0  0  0  0  0  0
  145.0543  133.3481  149.8339 H   0  0  0  0  0  0  0  0  0  0  0  0
  143.3282  133.7068  149.7674 H   0  0  0  0  0  0  0  0  0  0  0  0
  146.0011  133.8129  151.6772 H   0  0  0  0  0  0  0  0  0  0  0  0
  146.1145  132.7583  153.0948 H   0  0  0  0  0  0  0  0  0  0  0  0
  150.0701  138.6181  153.0837 H   0  0  0  0  0  0  0  0  0  0  0  0
  143.8344  132.7212  153.2745 H   0  0  0  0  0  0  0  0  0  0  0  0
  1  2  1  0  0  0  0
  1 21  1  0  0  0  0
  1 22  1  0  0  0  0
  1 23  1  0  0  0  0
  2  3  1  0  0  0  0
  3 20  1  0  0  0  0
  3  4  2  0  0  0  0
  4  5  1  0  0  0  0
  4 24  1  0  0  0  0
  5  6  2  0  0  0  0
  5 25  1  0  0  0  0
  6  7  1  0  0  0  0
  6 19  1  0  0  0  0
  7  8  1  0  0  0  0
  7 26  1  0  0  0  0
  8  9  2  0  0  0  0
  8 10  1  0  0  0  0
 10 11  1  0  0  0  0
 10 27  1  0  0  0  0
 11 18  1  0  0  0  0
 11 12  1  0  0  0  0
 11 28  1  0  0  0  0
 12 13  1  0  0  0  0
 12 29  1  0  0  0  0
 12 30  1  0  0  0  0
 13 14  1  0  0  0  0
 13 31  1  0  0  0  0
 13 32  1  0  0  0  0
 14 15  1  0  0  0  0
 14 18  1  0  0  0  0
 14 43  1  0  0  0  0
 15 16  1  0  0  0  0
 15 17  1  0  0  0  0
 15 33  1  0  0  0  0
 16 34  1  0  0  0  0
 16 35  1  0  0  0  0
 16 36  1  0  0  0  0
 17 37  1  0  0  0  0
 17 38  1  0  0  0  0
 17 39  1  0  0  0  0
 18 40  1  0  0  0  0
 18 41  1  0  0  0  0
 19 20  2  0  0  0  0
 19 42  1  0  0  0  0
M  CHG  1  14   1
M  END
> <s_m_source_file>
AV-unprocessed.smi

> <i_m_source_file_index>
1564

> <i_lp_mmshare_version>
43012

> <i_f3d_flags>
0

> <s_epik_input>
W0NIM11PYzFbY0hdW2NIXWMoW2NIXW4xKVtOSF1DKD1PKVtOSF1bQ0BASF0yW0NIMl1bQ0gyXU4oW0NIMl0yKVtDSF0oW0NIM10pW0NIM10=

> <s_epik_cmdline>
J2VwaWtfcHl0aG9uJywgJy1waCcsICc3LjAnLCAnLXRuJywgJzgnLCAnLW1hJywgJzIwMCcsICctbWV0YWxfYmluZGluZycsICctaW1hZScsICc8aW5maWxlLm1hZT4nLCAnLW9tYWUnLCAnPG91dGZpbGUubWFlPic=

> <r_lp_tautomer_probability>
1

> <r_epik_Ionization_Penalty>
0.000679474

> <r_epik_Ionization_Penalty_Charging>
0.000606352

> <r_epik_Ionization_Penalty_Neutral>
7.31222e-05

> <r_epik_State_Penalty>
0.000382168

> <r_epik_Charging_Adjusted_Penalty>
0.00098852

> <i_epik_Tot_Q>
1

> <i_epik_Tot_abs_Q>
1

> <r_epik_Metal_State_Penalty>
-0

> <b_epik_Metal_Only>
0

> <s_lp_Force_Field>
OPLS_2005

> <r_lp_Energy>
32.3031

> <b_lp_Chiralities_Consistent>
1

> <s_lp_Variant>
AV-unprocessed.smi:1564-2

> <Gold.Version>
5.8.1

> <Gold.Id.Protein>
6NUR|6NUR_protein|mol2

> <Gold.PLP.Fitness>
41.0555

> <Gold.PLP.PLP>
-25.8170

> <Gold.PLP.part.hbond>
-3.7597

> <Gold.PLP.part.metal>
0.0000

> <Gold.PLP.part.buried>
-5.3235

> <Gold.PLP.part.nonpolar>
-18.7508

> <Gold.PLP.part.repulsive>
0.1467

> <Gold.PLP.ligand.clash>
0.0000

> <Gold.PLP.ligand.torsion>
0.5684

> <Gold.PLP.Chemscore.Hbond>
4.3371

> <Gold.PLP.Chemscore.CHOScore>
1.1135

> <Gold.PLP.Chemscore.Metal>
0.0000

> <Gold.Chemscore.Hbonds>
donor molecule, donor type, donor heavy atom, donor atom, acceptor molecule, acceptor atom, score
      L1  H     7    26       P1  7948  1.00
      L1  H    10    27       P1  7948  0.76
      L1  H    14    43       P1 10957  1.53
      P1  H  7989  7998       L1    20  1.00
      L1  C    19    42       P1  7948  0.16
      L1  C    19    42       P1  7957  0.96

> <Gold.PLP.Chemscore.Internal.Correction>
0.0233

> <Gold.Rescore>
     Score         DG    S(hbond)    S(metal)    S(lipo)     H(rot)  DE(clash)    DE(int)     intcor
     18.64     -20.06       3.40        0.00      59.26       1.44       0.11       1.30       ----

> <Gold.Chemscore.Fitness>
18.6435

> <Gold.Chemscore.DG>
-20.0578

> <Gold.Chemscore.ZeroCoef>
-5.4800

> <Gold.Chemscore.Hbond>
3.3959

> <Gold.Chemscore.Metal>
0.0000

> <Gold.Chemscore.Lipo>
59.2580

> <Gold.Chemscore.Internal_Hbond>
0.0000

> <Gold.Chemscore.DEClash>
0.1112

> <Gold.Chemscore.DEInternal>
1.3031

> <Gold.Chemscore.Rot>
1.4445

> <Gold.Chemscore.Internal.Correction>
   9.000000E+99

> <Gold.Chemscore.Hbonds>
donor molecule, donor type, donor heavy atom, donor atom, acceptor molecule, acceptor atom, score
      L1  H     7    26       P1  7948  0.95
      L1  H    10    27       P1  7948  0.72
      L1  H    14    43       P1 10957  0.30
      P1  H  7989  7998       L1    20  0.94

> <Gold.Chemscore.Hbond.Weighted>
-11.3424

> <Gold.Chemscore.Metal.Weighted>
-0.0000

> <Gold.Chemscore.Lipo.Weighted>
-6.9332

> <Gold.Chemscore.Internal_Hbond.Weighted>
0.0000

> <Gold.Chemscore.DEClash.Weighted>
0.1112

> <Gold.Chemscore.DEInternal.Weighted>
1.3031

> <Gold.Chemscore.Rot.Weighted>
3.6979

> <Gold.Chemscore.Internal.Correction.Weighted>
   9.000000E+99

> <Gold.Protein.RotatedTorsions>
[ 6907 6896 6895 6894 ] final  175.53 input  -60.11 | X-H torsion
[ 7974 7965 7964 7962 ] final  -99.13 input  175.53 | X-H torsion
[ 8008 7997 7996 7995 ] final  -43.07 input   59.86 | X-H torsion
[ 10167 10162 10161 10158 ] final  -20.60 input  -65.29 | X-H torsion
[ 10718 10713 10712 10709 ] final   28.65 input   66.30 | X-H torsion
[ 10763 10752 10751 10750 ] final  167.38 input  -60.55 | X-H torsion
[ 11005 11000 10999 10996 ] final   93.27 input  -57.11 | X-H torsion

> <Gold.Protein.ActiveResidues>
 VAL166  LYS551  ARG553  GLY616  TRP617  ASP618  TYR619  PRO620  LYS621  CYS622 
 ASP623  PHE694  ASN695  SER759  ASP760  ASP761  ALA762  ILE779  LEU786  VAL792 
 PHE793  MET794  SER795  GLU796  ALA797  LYS798  CYS799  TRP800  GLU811  SER814 

> <Gold.Protein.RotatedAtoms>
  151.7348  133.3319  159.3349 H   0  0  0  0  0  0  0  0  0  0  0  0  # atno 6907 bound_to 6896
  150.7598  134.6331  159.6206 H   0  0  0  0  0  0  0  0  0  0  0  0  # atno 6908 bound_to 6896
  152.3569  134.6930  160.0271 H   0  0  0  0  0  0  0  0  0  0  0  0  # atno 6909 bound_to 6896
  145.3116  140.9401  143.2766 H   0  0  0  0  0  0  0  0  0  0  0  0  # atno 7974 bound_to 7965
  154.3997  140.1457  156.3458 H   0  0  0  0  0  0  0  0  0  0  0  0  # atno 8008 bound_to 7997
  155.8314  140.3465  155.5554 H   0  0  0  0  0  0  0  0  0  0  0  0  # atno 8009 bound_to 7997
  155.8184  140.0894  157.1854 H   0  0  0  0  0  0  0  0  0  0  0  0  # atno 8010 bound_to 7997
  140.7277  143.4707  151.0251 H   0  0  0  0  0  0  0  0  0  0  0  0  # atno 10167 bound_to 10162
  157.2362  130.7047  149.6337 H   0  0  0  0  0  0  0  0  0  0  0  0  # atno 10718 bound_to 10713
  154.3530  135.2753  155.2362 H   0  0  0  0  0  0  0  0  0  0  0  0  # atno 10763 bound_to 10752
  154.4583  135.5913  153.6241 H   0  0  0  0  0  0  0  0  0  0  0  0  # atno 10764 bound_to 10752
  152.9848  135.6058  154.3742 H   0  0  0  0  0  0  0  0  0  0  0  0  # atno 10765 bound_to 10752
  139.8812  134.8780  156.3693 H   0  0  0  0  0  0  0  0  0  0  0  0  # atno 11005 bound_to 11000
  144.9011  139.4648  143.6632 LP  0  0  0  0  0  0  0  0  0  0  0  0  # atno 17320 bound_to 7965
  146.3115  139.7765  142.9016 LP  0  0  0  0  0  0  0  0  0  0  0  0  # atno 17321 bound_to 7965
  139.8399  143.7578  152.3180 LP  0  0  0  0  0  0  0  0  0  0  0  0  # atno 17342 bound_to 10162
  139.7723  144.7472  151.0207 LP  0  0  0  0  0  0  0  0  0  0  0  0  # atno 17343 bound_to 10162
  155.9672  130.4473  150.5574 LP  0  0  0  0  0  0  0  0  0  0  0  0  # atno 17370 bound_to 10713
  157.3426  131.0719  151.1776 LP  0  0  0  0  0  0  0  0  0  0  0  0  # atno 17371 bound_to 10713
  140.9475  133.7473  156.0228 LP  0  0  0  0  0  0  0  0  0  0  0  0  # atno 17394 bound_to 11000
  140.8145  134.3360  157.5401 LP  0  0  0  0  0  0  0  0  0  0  0  0  # atno 17395 bound_to 11000

$$$$
