AV-unprocessed.smi:3119|AV-procd|sdf|11890|dock1
  -GOLD-   2272017273D 1   1.00000     0.00000
 Structure written by MMmdl.
 31 32  0  0  0  0  0  0  0  0  1 V2000
  150.7071  140.4836  155.2156 O   0  0  0  0  0  0  0  0  0  0  0  0
  149.9184  141.4297  155.2051 C   0  0  0  0  0  0  0  0  0  0  0  0
  150.0075  142.4687  156.0489 N   0  0  0  0  0  0  0  0  0  0  0  0
  151.0303  142.6255  157.0769 C   0  0  0  0  0  0  0  0  0  0  0  0
  150.4218  142.6217  158.4893 C   0  0  0  0  0  0  0  0  0  0  0  0
  151.4802  142.5083  159.5702 C   0  0  0  0  0  0  0  0  0  0  0  0
  152.5109  141.5489  159.4736 C   0  0  0  0  0  0  0  0  0  0  0  0
  153.4643  141.4825  160.5081 C   0  0  0  0  0  0  0  0  0  0  0  0
  153.3508  142.3722  161.5938 C   0  0  0  0  0  0  0  0  0  0  0  0
  152.2837  143.2925  161.5972 C   0  0  0  0  0  0  0  0  0  0  0  0
  151.3638  143.3637  160.6111 N   0  0  0  0  0  0  0  0  0  0  0  0
  148.7599  141.4750  154.1999 C   0  0  0  0  0  0  0  0  0  0  0  0
  147.4232  141.9565  154.7905 C   0  0  0  0  0  0  0  0  0  0  0  0
  146.7266  140.8195  154.0368 C   0  0  0  0  0  0  0  0  0  0  0  0
  148.0840  140.1176  153.9355 C   0  0  0  0  0  0  0  0  0  0  0  0
  149.3190  143.2035  155.9720 H   0  0  0  0  0  0  0  0  0  0  0  0
  151.7800  141.8384  156.9794 H   0  0  0  0  0  0  0  0  0  0  0  0
  151.5473  143.5689  156.8994 H   0  0  0  0  0  0  0  0  0  0  0  0
  149.8424  143.5323  158.6475 H   0  0  0  0  0  0  0  0  0  0  0  0
  149.7222  141.7917  158.5982 H   0  0  0  0  0  0  0  0  0  0  0  0
  152.5708  140.8782  158.6289 H   0  0  0  0  0  0  0  0  0  0  0  0
  154.2677  140.7616  160.4698 H   0  0  0  0  0  0  0  0  0  0  0  0
  154.0640  142.3504  162.4046 H   0  0  0  0  0  0  0  0  0  0  0  0
  152.1654  143.9895  162.4137 H   0  0  0  0  0  0  0  0  0  0  0  0
  149.0073  141.9941  153.2719 H   0  0  0  0  0  0  0  0  0  0  0  0
  147.3467  141.8520  155.8744 H   0  0  0  0  0  0  0  0  0  0  0  0
  147.1215  142.9529  154.4663 H   0  0  0  0  0  0  0  0  0  0  0  0
  145.9782  140.2800  154.6177 H   0  0  0  0  0  0  0  0  0  0  0  0
  146.3397  141.1314  153.0657 H   0  0  0  0  0  0  0  0  0  0  0  0
  148.2914  139.6963  152.9517 H   0  0  0  0  0  0  0  0  0  0  0  0
  148.2337  139.3775  154.7235 H   0  0  0  0  0  0  0  0  0  0  0  0
  1  2  2  0  0  0  0
  2  3  1  0  0  0  0
  2 12  1  0  0  0  0
  3  4  1  0  0  0  0
  3 16  1  0  0  0  0
  4  5  1  0  0  0  0
  4 17  1  0  0  0  0
  4 18  1  0  0  0  0
  5  6  1  0  0  0  0
  5 19  1  0  0  0  0
  5 20  1  0  0  0  0
  6 11  1  0  0  0  0
  6  7  2  0  0  0  0
  7  8  1  0  0  0  0
  7 21  1  0  0  0  0
  8  9  2  0  0  0  0
  8 22  1  0  0  0  0
  9 10  1  0  0  0  0
  9 23  1  0  0  0  0
 10 11  2  0  0  0  0
 10 24  1  0  0  0  0
 12 15  1  0  0  0  0
 12 13  1  0  0  0  0
 12 25  1  0  0  0  0
 13 14  1  0  0  0  0
 13 26  1  0  0  0  0
 13 27  1  0  0  0  0
 14 15  1  0  0  0  0
 14 28  1  0  0  0  0
 14 29  1  0  0  0  0
 15 30  1  0  0  0  0
 15 31  1  0  0  0  0
M  END
> <s_m_source_file>
AV-unprocessed.smi

> <i_m_source_file_index>
3119

> <i_lp_mmshare_version>
43012

> <i_f3d_flags>
0

> <s_epik_input>
W0NIMl0xW0NIMl1bQ0gyXVtDSF0xQyg9TylbTkhdW0NIMl1bQ0gyXWMyW2NIXVtjSF1bY0hdW2NIXW4y

> <s_epik_cmdline>
J2VwaWtfcHl0aG9uJywgJy1waCcsICc3LjAnLCAnLXRuJywgJzgnLCAnLW1hJywgJzIwMCcsICctbWV0YWxfYmluZGluZycsICctaW1hZScsICc8aW5maWxlLm1hZT4nLCAnLW9tYWUnLCAnPG91dGZpbGUubWFlPic=

> <r_epik_Ionization_Penalty>
0.0277532

> <r_epik_Ionization_Penalty_Charging>
0

> <r_epik_Ionization_Penalty_Neutral>
0.0277532

> <r_epik_State_Penalty>
0.022734

> <r_epik_Charging_Adjusted_Penalty>
0.022734

> <i_epik_Tot_Q>
0

> <i_epik_Tot_abs_Q>
0

> <r_epik_Metal_State_Penalty>
0.0217133

> <b_epik_Metal_Only>
0

> <s_lp_Force_Field>
OPLS_2005

> <r_lp_Energy>
9.15138

> <b_lp_Chiralities_Consistent>
1

> <s_lp_Variant>
AV-unprocessed.smi:3119-1

> <Gold.Version>
5.8.1

> <Gold.Id.Protein>
6NUR|6NUR_protein|mol2

> <Gold.PLP.Fitness>
39.9339

> <Gold.PLP.PLP>
-35.0126

> <Gold.PLP.part.hbond>
-2.8497

> <Gold.PLP.part.metal>
0.0000

> <Gold.PLP.part.buried>
-2.8519

> <Gold.PLP.part.nonpolar>
-29.9750

> <Gold.PLP.part.repulsive>
0.2751

> <Gold.PLP.ligand.clash>
0.0000

> <Gold.PLP.ligand.torsion>
0.7398

> <Gold.PLP.Chemscore.Hbond>
1.9920

> <Gold.PLP.Chemscore.CHOScore>
0.0000

> <Gold.PLP.Chemscore.Metal>
0.0000

> <Gold.Chemscore.Hbonds>
donor molecule, donor type, donor heavy atom, donor atom, acceptor molecule, acceptor atom, score
      L1  H     3    16       P1  8028  1.00
      P1  H  7989  7998       L1     1  0.90

> <Gold.PLP.Chemscore.Internal.Correction>
0.4249

> <Gold.Rescore>
     Score         DG    S(hbond)    S(metal)    S(lipo)     H(rot)  DE(clash)    DE(int)     intcor
     16.67     -17.37       1.46        0.00      91.50       1.44       0.01       0.68       ----

> <Gold.Chemscore.Fitness>
16.6703

> <Gold.Chemscore.DG>
-17.3677

> <Gold.Chemscore.ZeroCoef>
-5.4800

> <Gold.Chemscore.Hbond>
1.4565

> <Gold.Chemscore.Metal>
0.0000

> <Gold.Chemscore.Lipo>
91.4974

> <Gold.Chemscore.Internal_Hbond>
0.0000

> <Gold.Chemscore.DEClash>
0.0136

> <Gold.Chemscore.DEInternal>
0.6839

> <Gold.Chemscore.Rot>
1.4383

> <Gold.Chemscore.Internal.Correction>
   9.000000E+99

> <Gold.Chemscore.Hbonds>
donor molecule, donor type, donor heavy atom, donor atom, acceptor molecule, acceptor atom, score
      L1  H     3    16       P1  8028  0.95
      P1  H  7989  7998       L1     1  0.16

> <Gold.Chemscore.Hbond.Weighted>
-4.8646

> <Gold.Chemscore.Metal.Weighted>
-0.0000

> <Gold.Chemscore.Lipo.Weighted>
-10.7052

> <Gold.Chemscore.Internal_Hbond.Weighted>
0.0000

> <Gold.Chemscore.DEClash.Weighted>
0.0136

> <Gold.Chemscore.DEInternal.Weighted>
0.6839

> <Gold.Chemscore.Rot.Weighted>
3.6820

> <Gold.Chemscore.Internal.Correction.Weighted>
   9.000000E+99

> <Gold.Protein.RotatedTorsions>
[ 6907 6896 6895 6894 ] final  -24.50 input  -60.11 | X-H torsion
[ 7974 7965 7964 7962 ] final   83.97 input  175.53 | X-H torsion
[ 8008 7997 7996 7995 ] final -117.45 input   59.86 | X-H torsion
[ 10167 10162 10161 10158 ] final -105.15 input  -65.29 | X-H torsion
[ 10718 10713 10712 10709 ] final -165.03 input   66.30 | X-H torsion
[ 10763 10752 10751 10750 ] final   57.21 input  -60.55 | X-H torsion
[ 11005 11000 10999 10996 ] final -144.89 input  -57.11 | X-H torsion

> <Gold.Protein.ActiveResidues>
 VAL166  LYS551  ARG553  GLY616  TRP617  ASP618  TYR619  PRO620  LYS621  CYS622 
 ASP623  PHE694  ASN695  SER759  ASP760  ASP761  ALA762  ILE779  LEU786  VAL792 
 PHE793  MET794  SER795  GLU796  ALA797  LYS798  CYS799  TRP800  GLU811  SER814 

> <Gold.Protein.RotatedAtoms>
  151.1886  135.0392  159.8822 H   0  0  0  0  0  0  0  0  0  0  0  0  # atno 6907 bound_to 6896
  152.5441  134.0982  159.8316 H   0  0  0  0  0  0  0  0  0  0  0  0  # atno 6908 bound_to 6896
  151.1108  133.5127  159.2638 H   0  0  0  0  0  0  0  0  0  0  0  0  # atno 6909 bound_to 6896
  145.6049  139.2358  143.2225 H   0  0  0  0  0  0  0  0  0  0  0  0  # atno 7974 bound_to 7965
  155.0840  140.0394  157.2648 H   0  0  0  0  0  0  0  0  0  0  0  0  # atno 8008 bound_to 7997
  154.6884  140.2648  155.6812 H   0  0  0  0  0  0  0  0  0  0  0  0  # atno 8009 bound_to 7997
  156.2720  140.2764  156.1454 H   0  0  0  0  0  0  0  0  0  0  0  0  # atno 8010 bound_to 7997
  140.2017  143.3814  152.1124 H   0  0  0  0  0  0  0  0  0  0  0  0  # atno 10167 bound_to 10162
  156.6476  130.8994  151.3007 H   0  0  0  0  0  0  0  0  0  0  0  0  # atno 10718 bound_to 10713
  152.9845  135.5649  154.5353 H   0  0  0  0  0  0  0  0  0  0  0  0  # atno 10763 bound_to 10752
  154.4817  135.2789  155.1567 H   0  0  0  0  0  0  0  0  0  0  0  0  # atno 10764 bound_to 10752
  154.3073  135.6295  153.5503 H   0  0  0  0  0  0  0  0  0  0  0  0  # atno 10765 bound_to 10752
  140.7979  134.2892  157.4990 H   0  0  0  0  0  0  0  0  0  0  0  0  # atno 11005 bound_to 11000
  146.1548  140.6873  142.9305 LP  0  0  0  0  0  0  0  0  0  0  0  0  # atno 17320 bound_to 7965
  144.7294  140.4626  143.6949 LP  0  0  0  0  0  0  0  0  0  0  0  0  # atno 17321 bound_to 7965
  139.5215  144.7046  151.5392 LP  0  0  0  0  0  0  0  0  0  0  0  0  # atno 17342 bound_to 10162
  140.6386  143.8935  150.6670 LP  0  0  0  0  0  0  0  0  0  0  0  0  # atno 17343 bound_to 10162
  157.7151  130.9487  150.1227 LP  0  0  0  0  0  0  0  0  0  0  0  0  # atno 17370 bound_to 10713
  156.2110  130.3666  149.8671 LP  0  0  0  0  0  0  0  0  0  0  0  0  # atno 17371 bound_to 10713
  139.8724  134.9412  156.3791 LP  0  0  0  0  0  0  0  0  0  0  0  0  # atno 17394 bound_to 11000
  140.9325  133.7570  156.0042 LP  0  0  0  0  0  0  0  0  0  0  0  0  # atno 17395 bound_to 11000

$$$$
