AV-unprocessed.smi:834|AV-procd|sdf|3885|dock3
  -GOLD-   22720 1343D 1   1.00000     0.00000
 Structure written by MMmdl.
 38 39  0  0  0  0  0  0  0  0  2 V2000
  147.0873  135.3776  162.1791 C   0  0  0  0  0  0  0  0  0  0  0  0
  147.4803  136.1507  160.9674 C   0  0  0  0  0  0  0  0  0  0  0  0
  148.5224  136.9852  160.9488 N   0  0  0  0  0  0  0  0  0  0  0  0
  148.6870  137.5884  159.7104 N   0  0  0  0  0  0  0  0  0  0  0  0
  147.7627  137.2125  158.8153 C   0  0  0  0  0  0  0  0  0  0  0  0
  147.7484  137.6791  157.5558 N   0  5  0  0  0  0  0  0  0  0  0  0
  148.8173  138.3515  157.0712 C   0  0  0  0  0  0  0  0  0  0  0  0
  149.9797  138.2634  157.4737 O   0  0  0  0  0  0  0  0  0  0  0  0
  148.5199  139.1813  156.0610 N   0  0  0  0  0  0  0  0  0  0  0  0
  149.4637  140.0396  155.3525 C   0  0  0  0  0  0  0  0  0  0  0  0
  149.4685  141.4686  155.9306 C   0  0  0  0  0  0  0  0  0  0  0  0
  150.7264  141.8033  156.7387 C   0  0  0  0  0  0  0  0  0  0  0  0
  151.5909  140.9525  156.9532 O   0  0  0  0  0  0  0  0  0  0  0  0
  150.8173  143.0676  157.1788 N   0  0  0  0  0  0  0  0  0  0  0  0
  151.9248  143.6085  157.9624 C   0  0  0  0  0  0  0  0  0  0  0  0
  152.2411  142.6997  159.1659 C   0  0  0  0  0  0  0  0  0  0  0  0
  152.3582  143.6263  160.3775 C   0  0  0  0  0  0  0  0  0  0  0  0
  151.4205  144.7854  160.0564 C   0  0  0  0  0  0  0  0  0  0  0  0
  151.5843  144.9935  158.5506 C   0  0  0  0  0  0  0  0  0  0  0  0
  146.6067  136.0409  159.4486 S   0  0  0  0  0  0  0  0  0  0  0  0
  146.4934  136.0051  162.8436 H   0  0  0  0  0  0  0  0  0  0  0  0
  147.9733  135.0364  162.7149 H   0  0  0  0  0  0  0  0  0  0  0  0
  146.4953  134.5071  161.8962 H   0  0  0  0  0  0  0  0  0  0  0  0
  147.5564  139.2201  155.7630 H   0  0  0  0  0  0  0  0  0  0  0  0
  150.4637  139.6030  155.3852 H   0  0  0  0  0  0  0  0  0  0  0  0
  149.1666  140.0591  154.3036 H   0  0  0  0  0  0  0  0  0  0  0  0
  149.3802  142.1933  155.1203 H   0  0  0  0  0  0  0  0  0  0  0  0
  148.5989  141.6107  156.5738 H   0  0  0  0  0  0  0  0  0  0  0  0
  150.0620  143.7003  156.9575 H   0  0  0  0  0  0  0  0  0  0  0  0
  152.8103  143.6907  157.3291 H   0  0  0  0  0  0  0  0  0  0  0  0
  151.4268  141.9943  159.3388 H   0  0  0  0  0  0  0  0  0  0  0  0
  153.1474  142.1128  159.0124 H   0  0  0  0  0  0  0  0  0  0  0  0
  152.1058  143.1280  161.3139 H   0  0  0  0  0  0  0  0  0  0  0  0
  153.3814  143.9952  160.4610 H   0  0  0  0  0  0  0  0  0  0  0  0
  150.3917  144.4987  160.2786 H   0  0  0  0  0  0  0  0  0  0  0  0
  151.6486  145.6834  160.6312 H   0  0  0  0  0  0  0  0  0  0  0  0
  152.4188  145.6724  158.3705 H   0  0  0  0  0  0  0  0  0  0  0  0
  150.6998  145.4517  158.1060 H   0  0  0  0  0  0  0  0  0  0  0  0
  1  2  1  0  0  0  0
  1 21  1  0  0  0  0
  1 22  1  0  0  0  0
  1 23  1  0  0  0  0
  2 20  1  0  0  0  0
  2  3  2  0  0  0  0
  3  4  1  0  0  0  0
  4  5  2  0  0  0  0
  5  6  1  0  0  0  0
  5 20  1  0  0  0  0
  6  7  1  0  0  0  0
  7  8  2  0  0  0  0
  7  9  1  0  0  0  0
  9 10  1  0  0  0  0
  9 24  1  0  0  0  0
 10 11  1  0  0  0  0
 10 25  1  0  0  0  0
 10 26  1  0  0  0  0
 11 12  1  0  0  0  0
 11 27  1  0  0  0  0
 11 28  1  0  0  0  0
 12 13  2  0  0  0  0
 12 14  1  0  0  0  0
 14 15  1  0  0  0  0
 14 29  1  0  0  0  0
 15 19  1  0  0  0  0
 15 16  1  0  0  0  0
 15 30  1  0  0  0  0
 16 17  1  0  0  0  0
 16 31  1  0  0  0  0
 16 32  1  0  0  0  0
 17 18  1  0  0  0  0
 17 33  1  0  0  0  0
 17 34  1  0  0  0  0
 18 19  1  0  0  0  0
 18 35  1  0  0  0  0
 18 36  1  0  0  0  0
 19 37  1  0  0  0  0
 19 38  1  0  0  0  0
M  CHG  1   6  -1
M  END
> <s_m_source_file>
AV-unprocessed.smi

> <i_m_source_file_index>
834

> <i_lp_mmshare_version>
43012

> <i_f3d_flags>
0

> <s_epik_input>
W0NIM11jMW5uYyhzMSlbTkhdQyg9TylbTkhdW0NIMl1bQ0gyXUMoPU8pW05IXVtDSF0yW0NIMl1bQ0gyXVtDSDJdW0NIMl0y

> <s_epik_cmdline>
J2VwaWtfcHl0aG9uJywgJy1waCcsICc3LjAnLCAnLXRuJywgJzgnLCAnLW1hJywgJzIwMCcsICctbWV0YWxfYmluZGluZycsICctaW1hZScsICc8aW5maWxlLm1hZT4nLCAnLW9tYWUnLCAnPG91dGZpbGUubWFlPic=

> <r_lp_tautomer_probability>
1

> <r_epik_Ionization_Penalty>
3.40129

> <r_epik_Ionization_Penalty_Charging>
3.26946

> <r_epik_Ionization_Penalty_Neutral>
0.131835

> <r_epik_State_Penalty>
3.26707

> <r_epik_Charging_Adjusted_Penalty>
6.53653

> <i_epik_Tot_Q>
-1

> <i_epik_Tot_abs_Q>
1

> <r_epik_Metal_State_Penalty>
0.478667

> <b_epik_Metal_Only>
1

> <s_lp_Force_Field>
OPLS_2005

> <r_lp_Energy>
15.9775

> <b_lp_Chiralities_Consistent>
1

> <s_lp_Variant>
AV-unprocessed.smi:834-2

> <Gold.Version>
5.8.1

> <Gold.Id.Protein>
6NUR|6NUR_protein|mol2

> <Gold.PLP.Fitness>
41.0974

> <Gold.PLP.PLP>
-36.9141

> <Gold.PLP.part.hbond>
-3.8342

> <Gold.PLP.part.metal>
0.0000

> <Gold.PLP.part.buried>
-5.6491

> <Gold.PLP.part.nonpolar>
-28.3280

> <Gold.PLP.part.repulsive>
0.0184

> <Gold.PLP.ligand.clash>
0.0000

> <Gold.PLP.ligand.torsion>
0.8047

> <Gold.PLP.Chemscore.Hbond>
1.8928

> <Gold.PLP.Chemscore.CHOScore>
0.0000

> <Gold.PLP.Chemscore.Metal>
0.0000

> <Gold.Chemscore.Hbonds>
donor molecule, donor type, donor heavy atom, donor atom, acceptor molecule, acceptor atom, score
      L1  H    14    29       P1  8028  1.00
      P1  H  6931  6943       L1     3  0.90

> <Gold.PLP.Chemscore.Internal.Correction>
0.1143

> <Gold.Rescore>
     Score         DG    S(hbond)    S(metal)    S(lipo)     H(rot)  DE(clash)    DE(int)     intcor
     12.01     -15.53       1.40        0.00      88.40       1.95       0.03       3.49       ----

> <Gold.Chemscore.Fitness>
12.0077

> <Gold.Chemscore.DG>
-15.5342

> <Gold.Chemscore.ZeroCoef>
-5.4800

> <Gold.Chemscore.Hbond>
1.4048

> <Gold.Chemscore.Metal>
0.0000

> <Gold.Chemscore.Lipo>
88.3986

> <Gold.Chemscore.Internal_Hbond>
0.0000

> <Gold.Chemscore.DEClash>
0.0323

> <Gold.Chemscore.DEInternal>
3.4943

> <Gold.Chemscore.Rot>
1.9455

> <Gold.Chemscore.Internal.Correction>
   9.000000E+99

> <Gold.Chemscore.Hbonds>
donor molecule, donor type, donor heavy atom, donor atom, acceptor molecule, acceptor atom, score
      L1  H    14    29       P1  8028  0.92
      P1  H  6931  6943       L1     3  0.17

> <Gold.Chemscore.Hbond.Weighted>
-4.6921

> <Gold.Chemscore.Metal.Weighted>
-0.0000

> <Gold.Chemscore.Lipo.Weighted>
-10.3426

> <Gold.Chemscore.Internal_Hbond.Weighted>
0.0000

> <Gold.Chemscore.DEClash.Weighted>
0.0323

> <Gold.Chemscore.DEInternal.Weighted>
3.4943

> <Gold.Chemscore.Rot.Weighted>
4.9805

> <Gold.Chemscore.Internal.Correction.Weighted>
   9.000000E+99

> <Gold.Protein.RotatedTorsions>
[ 6907 6896 6895 6894 ] final   18.67 input  -60.11 | X-H torsion
[ 7974 7965 7964 7962 ] final -154.95 input  175.53 | X-H torsion
[ 8008 7997 7996 7995 ] final -145.99 input   59.86 | X-H torsion
[ 10167 10162 10161 10158 ] final -149.87 input  -65.29 | X-H torsion
[ 10718 10713 10712 10709 ] final  101.25 input   66.30 | X-H torsion
[ 10763 10752 10751 10750 ] final   77.12 input  -60.55 | X-H torsion
[ 11005 11000 10999 10996 ] final  118.98 input  -57.11 | X-H torsion

> <Gold.Protein.ActiveResidues>
 VAL166  LYS551  ARG553  GLY616  TRP617  ASP618  TYR619  PRO620  LYS621  CYS622 
 ASP623  PHE694  ASN695  SER759  ASP760  ASP761  ALA762  ILE779  LEU786  VAL792 
 PHE793  MET794  SER795  GLU796  ALA797  LYS798  CYS799  TRP800  GLU811  SER814 

> <Gold.Protein.RotatedAtoms>
  151.8689  135.0497  160.0476 H   0  0  0  0  0  0  0  0  0  0  0  0  # atno 6907 bound_to 6896
  152.2604  133.5288  159.5386 H   0  0  0  0  0  0  0  0  0  0  0  0  # atno 6908 bound_to 6896
  150.7114  134.0754  159.3921 H   0  0  0  0  0  0  0  0  0  0  0  0  # atno 6909 bound_to 6896
  144.7664  140.4317  143.5939 H   0  0  0  0  0  0  0  0  0  0  0  0  # atno 7974 bound_to 7965
  155.5522  140.0617  157.2847 H   0  0  0  0  0  0  0  0  0  0  0  0  # atno 8008 bound_to 7997
  154.4417  140.1900  156.0743 H   0  0  0  0  0  0  0  0  0  0  0  0  # atno 8009 bound_to 7997
  156.0508  140.3284  155.7352 H   0  0  0  0  0  0  0  0  0  0  0  0  # atno 8010 bound_to 7997
  139.7404  143.8671  152.2560 H   0  0  0  0  0  0  0  0  0  0  0  0  # atno 10167 bound_to 10162
  157.6834  131.0721  150.5223 H   0  0  0  0  0  0  0  0  0  0  0  0  # atno 10718 bound_to 10713
  153.0775  135.4926  154.8434 H   0  0  0  0  0  0  0  0  0  0  0  0  # atno 10763 bound_to 10752
  154.7107  135.3019  154.9204 H   0  0  0  0  0  0  0  0  0  0  0  0  # atno 10764 bound_to 10752
  153.9899  135.6779  153.4806 H   0  0  0  0  0  0  0  0  0  0  0  0  # atno 10765 bound_to 10752
  139.9129  134.9625  156.7586 H   0  0  0  0  0  0  0  0  0  0  0  0  # atno 11005 bound_to 11000
  145.6457  139.1557  143.2890 LP  0  0  0  0  0  0  0  0  0  0  0  0  # atno 17320 bound_to 7965
  146.1775  140.6550  142.9205 LP  0  0  0  0  0  0  0  0  0  0  0  0  # atno 17321 bound_to 7965
  139.8620  144.7112  150.9089 LP  0  0  0  0  0  0  0  0  0  0  0  0  # atno 17342 bound_to 10162
  140.7785  143.3810  151.1477 LP  0  0  0  0  0  0  0  0  0  0  0  0  # atno 17343 bound_to 10162
  156.5536  130.4238  149.6096 LP  0  0  0  0  0  0  0  0  0  0  0  0  # atno 17370 bound_to 10713
  156.2881  130.7109  151.1951 LP  0  0  0  0  0  0  0  0  0  0  0  0  # atno 17371 bound_to 10713
  140.6716  133.9555  155.7859 LP  0  0  0  0  0  0  0  0  0  0  0  0  # atno 17394 bound_to 11000
  141.0574  134.0397  157.3705 LP  0  0  0  0  0  0  0  0  0  0  0  0  # atno 17395 bound_to 11000

$$$$
