AV-unprocessed.smi:1084|AV-procd|sdf|4717|dock2
  -GOLD-   22720 3243D 1   1.00000     0.00000
 Structure written by MMmdl.
 52 54  0  0  0  0  0  0  0  0  1 V2000
  151.2608  145.2678  159.3178 C   0  0  0  0  0  0  0  0  0  0  0  0
  151.6378  143.7696  159.1903 C   0  0  1  0  0  0  0  0  0  0  0  0
  152.0640  143.4833  157.7206 C   0  0  0  0  0  0  0  0  0  0  0  0
  150.9357  143.2633  156.8193 N   0  0  0  0  0  0  0  0  0  0  0  0
  150.4234  142.0648  156.5058 C   0  0  0  0  0  0  0  0  0  0  0  0
  150.8585  141.0035  156.9519 O   0  0  0  0  0  0  0  0  0  0  0  0
  149.3763  142.1876  155.6723 N   0  0  0  0  0  0  0  0  0  0  0  0
  148.5778  141.1619  155.0982 C   0  0  0  0  0  0  0  0  0  0  0  0
  147.9016  141.4436  153.8962 C   0  0  0  0  0  0  0  0  0  0  0  0
  147.1182  140.4420  153.2926 C   0  0  0  0  0  0  0  0  0  0  0  0
  147.0359  139.1647  153.9029 C   0  0  0  0  0  0  0  0  0  0  0  0
  146.2590  138.1165  153.3563 N   0  0  0  0  0  0  0  0  0  0  0  0
  146.0731  138.1217  151.9047 C   0  0  0  0  0  0  0  0  0  0  0  0
  145.5271  136.7673  151.4218 C   0  0  0  0  0  0  0  0  0  0  0  0
  144.3400  136.4431  152.1361 O   0  0  0  0  0  0  0  0  0  0  0  0
  144.5900  136.3069  153.5301 C   0  0  0  0  0  0  0  0  0  0  0  0
  145.0962  137.6417  154.1029 C   0  0  0  0  0  0  0  0  0  0  0  0
  147.7004  138.8944  155.0527 N   0  0  0  0  0  0  0  0  0  0  0  0
  148.4484  139.8579  155.6301 C   0  0  0  0  0  0  0  0  0  0  0  0
  152.6499  143.3463  160.1862 N   0  0  0  0  0  0  0  0  0  0  0  0
  152.2239  143.6052  161.5666 C   0  0  0  0  0  0  0  0  0  0  0  0
  153.2567  143.1424  162.6089 C   0  0  0  0  0  0  0  0  0  0  0  0
  153.5249  141.7583  162.4346 O   0  0  0  0  0  0  0  0  0  0  0  0
  154.0155  141.4711  161.1328 C   0  0  0  0  0  0  0  0  0  0  0  0
  152.9892  141.9224  160.0789 C   0  0  0  0  0  0  0  0  0  0  0  0
  150.5537  145.5862  158.5530 H   0  0  0  0  0  0  0  0  0  0  0  0
  152.1420  145.9043  159.2342 H   0  0  0  0  0  0  0  0  0  0  0  0
  150.7710  145.4915  160.2645 H   0  0  0  0  0  0  0  0  0  0  0  0
  150.7280  143.1974  159.3787 H   0  0  0  0  0  0  0  0  0  0  0  0
  152.6472  144.3198  157.3347 H   0  0  0  0  0  0  0  0  0  0  0  0
  152.7010  142.6033  157.6421 H   0  0  0  0  0  0  0  0  0  0  0  0
  150.5124  144.0844  156.4124 H   0  0  0  0  0  0  0  0  0  0  0  0
  149.0849  143.1308  155.4616 H   0  0  0  0  0  0  0  0  0  0  0  0
  147.9770  142.4192  153.4384 H   0  0  0  0  0  0  0  0  0  0  0  0
  146.6075  140.6753  152.3709 H   0  0  0  0  0  0  0  0  0  0  0  0
  145.3770  138.9198  151.6436 H   0  0  0  0  0  0  0  0  0  0  0  0
  147.0051  138.3260  151.3778 H   0  0  0  0  0  0  0  0  0  0  0  0
  145.2989  136.8142  150.3570 H   0  0  0  0  0  0  0  0  0  0  0  0
  146.2707  135.9794  151.5525 H   0  0  0  0  0  0  0  0  0  0  0  0
  143.6671  136.0118  154.0294 H   0  0  0  0  0  0  0  0  0  0  0  0
  145.3142  135.5097  153.7048 H   0  0  0  0  0  0  0  0  0  0  0  0
  145.3523  137.4926  155.1522 H   0  0  0  0  0  0  0  0  0  0  0  0
  144.3076  138.3938  154.0574 H   0  0  0  0  0  0  0  0  0  0  0  0
  148.9642  139.5505  156.5262 H   0  0  0  0  0  0  0  0  0  0  0  0
  152.0668  144.6703  161.7269 H   0  0  0  0  0  0  0  0  0  0  0  0
  151.2703  143.1109  161.7583 H   0  0  0  0  0  0  0  0  0  0  0  0
  154.1808  143.7154  162.5185 H   0  0  0  0  0  0  0  0  0  0  0  0
  152.8766  143.3066  163.6173 H   0  0  0  0  0  0  0  0  0  0  0  0
  154.9734  141.9702  160.9774 H   0  0  0  0  0  0  0  0  0  0  0  0
  154.1965  140.3993  161.0495 H   0  0  0  0  0  0  0  0  0  0  0  0
  152.0851  141.3186  160.1710 H   0  0  0  0  0  0  0  0  0  0  0  0
  153.4218  141.6996  159.1060 H   0  0  0  0  0  0  0  0  0  0  0  0
  1  2  1  0  0  0  0
  1 26  1  0  0  0  0
  1 27  1  0  0  0  0
  1 28  1  0  0  0  0
  2  3  1  0  0  0  0
  2 20  1  0  0  0  0
  2 29  1  0  0  0  0
  3  4  1  0  0  0  0
  3 30  1  0  0  0  0
  3 31  1  0  0  0  0
  4  5  1  0  0  0  0
  4 32  1  0  0  0  0
  5  6  2  0  0  0  0
  5  7  1  0  0  0  0
  7  8  1  0  0  0  0
  7 33  1  0  0  0  0
  8 19  1  0  0  0  0
  8  9  2  0  0  0  0
  9 10  1  0  0  0  0
  9 34  1  0  0  0  0
 10 11  2  0  0  0  0
 10 35  1  0  0  0  0
 11 12  1  0  0  0  0
 11 18  1  0  0  0  0
 12 17  1  0  0  0  0
 12 13  1  0  0  0  0
 13 14  1  0  0  0  0
 13 36  1  0  0  0  0
 13 37  1  0  0  0  0
 14 15  1  0  0  0  0
 14 38  1  0  0  0  0
 14 39  1  0  0  0  0
 15 16  1  0  0  0  0
 16 17  1  0  0  0  0
 16 40  1  0  0  0  0
 16 41  1  0  0  0  0
 17 42  1  0  0  0  0
 17 43  1  0  0  0  0
 18 19  2  0  0  0  0
 19 44  1  0  0  0  0
 20 25  1  0  0  0  0
 20 21  1  0  0  0  0
 21 22  1  0  0  0  0
 21 45  1  0  0  0  0
 21 46  1  0  0  0  0
 22 23  1  0  0  0  0
 22 47  1  0  0  0  0
 22 48  1  0  0  0  0
 23 24  1  0  0  0  0
 24 25  1  0  0  0  0
 24 49  1  0  0  0  0
 24 50  1  0  0  0  0
 25 51  1  0  0  0  0
 25 52  1  0  0  0  0
M  END
> <s_m_source_file>
AV-unprocessed.smi

> <i_m_source_file_index>
1084

> <i_lp_mmshare_version>
43012

> <i_f3d_flags>
0

> <s_epik_input>
W0NIMl0xW0NIMl1PW0NIMl1bQ0gyXU4xW0NASF0oW0NIM10pW0NIMl1bTkhdQyg9TylbTkhdYzJbY0hdW2NIXWMobltjSF0yKU4zW0NIMl1bQ0gyXU9bQ0gyXVtDSDJdMw==

> <s_epik_cmdline>
J2VwaWtfcHl0aG9uJywgJy1waCcsICc3LjAnLCAnLXRuJywgJzgnLCAnLW1hJywgJzIwMCcsICctbWV0YWxfYmluZGluZycsICctaW1hZScsICc8aW5maWxlLm1hZT4nLCAnLW9tYWUnLCAnPG91dGZpbGUubWFlPic=

> <r_lp_tautomer_probability>
1

> <r_epik_Ionization_Penalty>
0.268053

> <r_epik_Ionization_Penalty_Charging>
0

> <r_epik_Ionization_Penalty_Neutral>
0.268053

> <r_epik_State_Penalty>
0.269834

> <r_epik_Charging_Adjusted_Penalty>
0.269834

> <i_epik_Tot_Q>
0

> <i_epik_Tot_abs_Q>
0

> <r_epik_Metal_State_Penalty>
0.268436

> <b_epik_Metal_Only>
0

> <s_lp_Force_Field>
OPLS_2005

> <r_lp_Energy>
45.5603

> <b_lp_Chiralities_Consistent>
1

> <s_lp_Variant>
AV-unprocessed.smi:1084-2

> <Gold.Version>
5.8.1

> <Gold.Id.Protein>
6NUR|6NUR_protein|mol2

> <Gold.PLP.Fitness>
49.3808

> <Gold.PLP.PLP>
-45.1846

> <Gold.PLP.part.hbond>
-2.0000

> <Gold.PLP.part.metal>
0.0000

> <Gold.PLP.part.buried>
-4.2648

> <Gold.PLP.part.nonpolar>
-40.8014

> <Gold.PLP.part.repulsive>
0.7497

> <Gold.PLP.ligand.clash>
0.0000

> <Gold.PLP.ligand.torsion>
0.9890

> <Gold.PLP.Chemscore.Hbond>
1.8800

> <Gold.PLP.Chemscore.CHOScore>
0.0000

> <Gold.PLP.Chemscore.Metal>
0.0000

> <Gold.Chemscore.Hbonds>
donor molecule, donor type, donor heavy atom, donor atom, acceptor molecule, acceptor atom, score
      L1  H     4    32       P1  8028  0.88
      L1  H     7    33       P1  8028  1.00

> <Gold.PLP.Chemscore.Internal.Correction>
0.5342

> <Gold.Rescore>
     Score         DG    S(hbond)    S(metal)    S(lipo)     H(rot)  DE(clash)    DE(int)     intcor
     19.63     -21.90       1.86        0.00     122.74       1.62       0.31       1.97       ----

> <Gold.Chemscore.Fitness>
19.6261

> <Gold.Chemscore.DG>
-21.9029

> <Gold.Chemscore.ZeroCoef>
-5.4800

> <Gold.Chemscore.Hbond>
1.8598

> <Gold.Chemscore.Metal>
0.0000

> <Gold.Chemscore.Lipo>
122.7447

> <Gold.Chemscore.Internal_Hbond>
0.0000

> <Gold.Chemscore.DEClash>
0.3077

> <Gold.Chemscore.DEInternal>
1.9691

> <Gold.Chemscore.Rot>
1.6211

> <Gold.Chemscore.Internal.Correction>
   9.000000E+99

> <Gold.Chemscore.Hbonds>
donor molecule, donor type, donor heavy atom, donor atom, acceptor molecule, acceptor atom, score
      L1  H     4    32       P1  8028  0.86
      L1  H     7    33       P1  8028  0.98

> <Gold.Chemscore.Hbond.Weighted>
-6.2118

> <Gold.Chemscore.Metal.Weighted>
-0.0000

> <Gold.Chemscore.Lipo.Weighted>
-14.3611

> <Gold.Chemscore.Internal_Hbond.Weighted>
0.0000

> <Gold.Chemscore.DEClash.Weighted>
0.3077

> <Gold.Chemscore.DEInternal.Weighted>
1.9691

> <Gold.Chemscore.Rot.Weighted>
4.1501

> <Gold.Chemscore.Internal.Correction.Weighted>
   9.000000E+99

> <Gold.Protein.RotatedTorsions>
[ 6907 6896 6895 6894 ] final -175.51 input  -60.11 | X-H torsion
[ 7974 7965 7964 7962 ] final   56.67 input  175.53 | X-H torsion
[ 8008 7997 7996 7995 ] final   99.69 input   59.86 | X-H torsion
[ 10167 10162 10161 10158 ] final  166.86 input  -65.29 | X-H torsion
[ 10718 10713 10712 10709 ] final   96.45 input   66.30 | X-H torsion
[ 10763 10752 10751 10750 ] final   76.56 input  -60.55 | X-H torsion
[ 11005 11000 10999 10996 ] final   92.63 input  -57.11 | X-H torsion

> <Gold.Protein.ActiveResidues>
 VAL166  LYS551  ARG553  GLY616  TRP617  ASP618  TYR619  PRO620  LYS621  CYS622 
 ASP623  PHE694  ASN695  SER759  ASP760  ASP761  ALA762  ILE779  LEU786  VAL792 
 PHE793  MET794  SER795  GLU796  ALA797  LYS798  CYS799  TRP800  GLU811  SER814 

> <Gold.Protein.RotatedAtoms>
  151.5898  133.3368  159.3025 H   0  0  0  0  0  0  0  0  0  0  0  0  # atno 6907 bound_to 6896
  150.8267  134.7504  159.6830 H   0  0  0  0  0  0  0  0  0  0  0  0  # atno 6908 bound_to 6896
  152.4355  134.5701  159.9970 H   0  0  0  0  0  0  0  0  0  0  0  0  # atno 6909 bound_to 6896
  145.9373  139.3858  143.0385 H   0  0  0  0  0  0  0  0  0  0  0  0  # atno 7974 bound_to 7965
  156.1130  140.3225  155.8099 H   0  0  0  0  0  0  0  0  0  0  0  0  # atno 8008 bound_to 7997
  155.4640  140.0541  157.3005 H   0  0  0  0  0  0  0  0  0  0  0  0  # atno 8009 bound_to 7997
  154.4773  140.2038  155.9862 H   0  0  0  0  0  0  0  0  0  0  0  0  # atno 8010 bound_to 7997
  139.4933  144.3983  151.9439 H   0  0  0  0  0  0  0  0  0  0  0  0  # atno 10167 bound_to 10162
  157.6926  131.0578  150.4493 H   0  0  0  0  0  0  0  0  0  0  0  0  # atno 10718 bound_to 10713
  153.0734  135.4947  154.8353 H   0  0  0  0  0  0  0  0  0  0  0  0  # atno 10763 bound_to 10752
  154.7054  135.3009  154.9281 H   0  0  0  0  0  0  0  0  0  0  0  0  # atno 10764 bound_to 10752
  153.9991  135.6768  153.4811 H   0  0  0  0  0  0  0  0  0  0  0  0  # atno 10765 bound_to 10752
  139.8821  134.8744  156.3600 H   0  0  0  0  0  0  0  0  0  0  0  0  # atno 11005 bound_to 11000
  145.8346  140.9613  143.0831 LP  0  0  0  0  0  0  0  0  0  0  0  0  # atno 17320 bound_to 7965
  144.6773  140.0207  143.7484 LP  0  0  0  0  0  0  0  0  0  0  0  0  # atno 17321 bound_to 7965
  140.3421  144.3190  150.5965 LP  0  0  0  0  0  0  0  0  0  0  0  0  # atno 17342 bound_to 10162
  140.5557  143.2199  151.7852 LP  0  0  0  0  0  0  0  0  0  0  0  0  # atno 17343 bound_to 10162
  156.4846  130.4081  149.6442 LP  0  0  0  0  0  0  0  0  0  0  0  0  # atno 17370 bound_to 10713
  156.3475  130.7414  151.2369 LP  0  0  0  0  0  0  0  0  0  0  0  0  # atno 17371 bound_to 10713
  140.9536  133.7435  156.0305 LP  0  0  0  0  0  0  0  0  0  0  0  0  # atno 17394 bound_to 11000
  140.8076  134.3437  157.5421 LP  0  0  0  0  0  0  0  0  0  0  0  0  # atno 17395 bound_to 11000

$$$$
