AV-unprocessed.smi:896|AV-procd|sdf|4078|dock3
  -GOLD-   22720 1563D 1   1.00000     0.00000
 Structure written by MMmdl.
 49 50  0  0  0  0  0  0  0  0  2 V2000
  151.2034  142.8220  157.2297 C   0  0  0  0  0  0  0  0  0  0  0  0
  151.4697  141.4356  157.0461 O   0  0  0  0  0  0  0  0  0  0  0  0
  150.7548  140.7537  156.0826 C   0  0  0  0  0  0  0  0  0  0  0  0
  149.6202  141.3703  155.5211 C   0  0  0  0  0  0  0  0  0  0  0  0
  148.8886  140.6799  154.5368 C   0  0  0  0  0  0  0  0  0  0  0  0
  149.3195  139.3934  154.1341 C   0  0  0  0  0  0  0  0  0  0  0  0
  148.6292  138.6144  153.1649 N   0  0  0  0  0  0  0  0  0  0  0  0
  147.3294  138.6742  152.8306 C   0  0  0  0  0  0  0  0  0  0  0  0
  146.5028  139.4413  153.3255 O   0  0  0  0  0  0  0  0  0  0  0  0
  147.0371  137.8026  151.8545 N   0  0  0  0  0  0  0  0  0  0  0  0
  145.7221  137.6484  151.2437 C   0  0  0  0  0  0  0  0  0  0  0  0
  145.4372  136.1757  150.8937 C   0  0  0  0  0  0  0  0  0  0  0  0
  144.9235  135.3286  152.0802 C   0  0  2  0  0  0  0  0  0  0  0  0
  146.0348  134.4458  152.6815 C   0  0  0  0  0  0  0  0  0  0  0  0
  146.3949  133.2597  151.7675 C   0  0  0  0  0  0  0  0  0  0  0  0
  145.1972  132.4414  151.4533 N   0  3  2  0  0  0  0  0  0  0  0  0
  145.5311  131.2404  150.6580 C   0  0  0  0  0  0  0  0  0  0  0  0
  144.1133  133.2445  150.8346 C   0  0  0  0  0  0  0  0  0  0  0  0
  143.7180  134.4281  151.7357 C   0  0  0  0  0  0  0  0  0  0  0  0
  150.4634  138.8533  154.7697 C   0  0  0  0  0  0  0  0  0  0  0  0
  150.9886  137.4733  154.4149 C   0  0  0  0  0  0  0  0  0  0  0  0
  151.1661  139.5154  155.7148 N   0  0  0  0  0  0  0  0  0  0  0  0
  151.8415  143.2102  158.0235 H   0  0  0  0  0  0  0  0  0  0  0  0
  150.1672  142.9938  157.5250 H   0  0  0  0  0  0  0  0  0  0  0  0
  151.4175  143.3925  156.3247 H   0  0  0  0  0  0  0  0  0  0  0  0
  149.3129  142.3545  155.8432 H   0  0  0  0  0  0  0  0  0  0  0  0
  148.0057  141.1404  154.1203 H   0  0  0  0  0  0  0  0  0  0  0  0
  149.2069  138.0043  152.6053 H   0  0  0  0  0  0  0  0  0  0  0  0
  147.7762  137.2100  151.5053 H   0  0  0  0  0  0  0  0  0  0  0  0
  144.9744  138.0165  151.9464 H   0  0  0  0  0  0  0  0  0  0  0  0
  145.6604  138.2861  150.3616 H   0  0  0  0  0  0  0  0  0  0  0  0
  144.7327  136.1259  150.0639 H   0  0  0  0  0  0  0  0  0  0  0  0
  146.3617  135.7324  150.5209 H   0  0  0  0  0  0  0  0  0  0  0  0
  144.6082  136.0278  152.8560 H   0  0  0  0  0  0  0  0  0  0  0  0
  146.9243  135.0421  152.8875 H   0  0  0  0  0  0  0  0  0  0  0  0
  145.7027  134.0604  153.6464 H   0  0  0  0  0  0  0  0  0  0  0  0
  146.8520  133.6137  150.8427 H   0  0  0  0  0  0  0  0  0  0  0  0
  147.1386  132.6350  152.2639 H   0  0  0  0  0  0  0  0  0  0  0  0
  145.9288  131.5170  149.6806 H   0  0  0  0  0  0  0  0  0  0  0  0
  144.6464  130.6215  150.5047 H   0  0  0  0  0  0  0  0  0  0  0  0
  146.2767  130.6328  151.1717 H   0  0  0  0  0  0  0  0  0  0  0  0
  144.4287  133.5980  149.8520 H   0  0  0  0  0  0  0  0  0  0  0  0
  143.2417  132.6094  150.6719 H   0  0  0  0  0  0  0  0  0  0  0  0
  143.2943  134.0366  152.6617 H   0  0  0  0  0  0  0  0  0  0  0  0
  142.9175  135.0015  151.2702 H   0  0  0  0  0  0  0  0  0  0  0  0
  151.2242  137.4181  153.3517 H   0  0  0  0  0  0  0  0  0  0  0  0
  150.2411  136.7131  154.6432 H   0  0  0  0  0  0  0  0  0  0  0  0
  151.8948  137.2327  154.9725 H   0  0  0  0  0  0  0  0  0  0  0  0
  144.8383  132.1089  152.3369 H   0  0  0  0  0  0  0  0  0  0  0  0
  1  2  1  0  0  0  0
  1 23  1  0  0  0  0
  1 24  1  0  0  0  0
  1 25  1  0  0  0  0
  2  3  1  0  0  0  0
  3 22  1  0  0  0  0
  3  4  2  0  0  0  0
  4  5  1  0  0  0  0
  4 26  1  0  0  0  0
  5  6  2  0  0  0  0
  5 27  1  0  0  0  0
  6  7  1  0  0  0  0
  6 20  1  0  0  0  0
  7  8  1  0  0  0  0
  7 28  1  0  0  0  0
  8  9  2  0  0  0  0
  8 10  1  0  0  0  0
 10 11  1  0  0  0  0
 10 29  1  0  0  0  0
 11 12  1  0  0  0  0
 11 30  1  0  0  0  0
 11 31  1  0  0  0  0
 12 13  1  0  0  0  0
 12 32  1  0  0  0  0
 12 33  1  0  0  0  0
 13 19  1  0  0  0  0
 13 14  1  0  0  0  0
 13 34  1  0  0  0  0
 14 15  1  0  0  0  0
 14 35  1  0  0  0  0
 14 36  1  0  0  0  0
 15 16  1  0  0  0  0
 15 37  1  0  0  0  0
 15 38  1  0  0  0  0
 16 17  1  0  0  0  0
 16 18  1  0  0  0  0
 16 49  1  0  0  0  0
 17 39  1  0  0  0  0
 17 40  1  0  0  0  0
 17 41  1  0  0  0  0
 18 19  1  0  0  0  0
 18 42  1  0  0  0  0
 18 43  1  0  0  0  0
 19 44  1  0  0  0  0
 19 45  1  0  0  0  0
 20 21  1  0  0  0  0
 20 22  2  0  0  0  0
 21 46  1  0  0  0  0
 21 47  1  0  0  0  0
 21 48  1  0  0  0  0
M  CHG  1  16   1
M  END
> <s_m_source_file>
AV-unprocessed.smi

> <i_m_source_file_index>
896

> <i_lp_mmshare_version>
43012

> <i_f3d_flags>
0

> <s_epik_input>
W0NIM11PYzFbY0hdW2NIXWMoYyhuMSlbQ0gzXSlbTkhdQyg9TylbTkhdW0NIMl1bQ0gyXVtDSF0yW0NIMl1bQ0gyXU4oW0NIM10pW0NIMl1bQ0gyXTI=

> <s_epik_cmdline>
J2VwaWtfcHl0aG9uJywgJy1waCcsICc3LjAnLCAnLXRuJywgJzgnLCAnLW1hJywgJzIwMCcsICctbWV0YWxfYmluZGluZycsICctaW1hZScsICc8aW5maWxlLm1hZT4nLCAnLW9tYWUnLCAnPG91dGZpbGUubWFlPic=

> <r_lp_tautomer_probability>
1

> <r_epik_Ionization_Penalty>
0.000968128

> <r_epik_Ionization_Penalty_Charging>
0.000718523

> <r_epik_Ionization_Penalty_Neutral>
0.000249604

> <r_epik_State_Penalty>
0.00045807

> <r_epik_Charging_Adjusted_Penalty>
0.00117659

> <i_epik_Tot_Q>
1

> <i_epik_Tot_abs_Q>
1

> <r_epik_Metal_State_Penalty>
-0

> <b_epik_Metal_Only>
0

> <s_lp_Force_Field>
OPLS_2005

> <r_lp_Energy>
21.0963

> <b_lp_Chiralities_Consistent>
1

> <s_lp_Variant>
AV-unprocessed.smi:896-2

> <Gold.Version>
5.8.1

> <Gold.Id.Protein>
6NUR|6NUR_protein|mol2

> <Gold.PLP.Fitness>
40.7505

> <Gold.PLP.PLP>
-38.1878

> <Gold.PLP.part.hbond>
-2.7317

> <Gold.PLP.part.metal>
0.0000

> <Gold.PLP.part.buried>
1.4333

> <Gold.PLP.part.nonpolar>
-37.4326

> <Gold.PLP.part.repulsive>
0.4145

> <Gold.PLP.ligand.clash>
0.1955

> <Gold.PLP.ligand.torsion>
1.1937

> <Gold.PLP.Chemscore.Hbond>
1.6953

> <Gold.PLP.Chemscore.CHOScore>
0.0000

> <Gold.PLP.Chemscore.Metal>
0.0000

> <Gold.Chemscore.Hbonds>
donor molecule, donor type, donor heavy atom, donor atom, acceptor molecule, acceptor atom, score
      L1  H     7    28       P1  7948  0.70
      L1  H    10    29       P1  7948  0.98

> <Gold.PLP.Chemscore.Internal.Correction>
0.0597

> <Gold.Rescore>
     Score         DG    S(hbond)    S(metal)    S(lipo)     H(rot)  DE(clash)    DE(int)     intcor
     14.18     -18.40       1.58        0.00     101.36       1.65       1.89       2.32       ----

> <Gold.Chemscore.Fitness>
14.1842

> <Gold.Chemscore.DG>
-18.3960

> <Gold.Chemscore.ZeroCoef>
-5.4800

> <Gold.Chemscore.Hbond>
1.5827

> <Gold.Chemscore.Metal>
0.0000

> <Gold.Chemscore.Lipo>
101.3603

> <Gold.Chemscore.Internal_Hbond>
0.0000

> <Gold.Chemscore.DEClash>
1.8918

> <Gold.Chemscore.DEInternal>
2.3200

> <Gold.Chemscore.Rot>
1.6521

> <Gold.Chemscore.Internal.Correction>
   9.000000E+99

> <Gold.Chemscore.Hbonds>
donor molecule, donor type, donor heavy atom, donor atom, acceptor molecule, acceptor atom, score
      L1  H     7    28       P1  7948  0.66
      L1  H    10    29       P1  7948  0.87

> <Gold.Chemscore.Hbond.Weighted>
-5.2863

> <Gold.Chemscore.Metal.Weighted>
-0.0000

> <Gold.Chemscore.Lipo.Weighted>
-11.8592

> <Gold.Chemscore.Internal_Hbond.Weighted>
0.0000

> <Gold.Chemscore.DEClash.Weighted>
1.8918

> <Gold.Chemscore.DEInternal.Weighted>
2.3200

> <Gold.Chemscore.Rot.Weighted>
4.2294

> <Gold.Chemscore.Internal.Correction.Weighted>
   9.000000E+99

> <Gold.Protein.RotatedTorsions>
[ 6907 6896 6895 6894 ] final    8.56 input  -60.11 | X-H torsion
[ 7974 7965 7964 7962 ] final   -4.24 input  175.53 | X-H torsion
[ 8008 7997 7996 7995 ] final    0.92 input   59.86 | X-H torsion
[ 10167 10162 10161 10158 ] final   24.41 input  -65.29 | X-H torsion
[ 10718 10713 10712 10709 ] final   10.03 input   66.30 | X-H torsion
[ 10763 10752 10751 10750 ] final  171.12 input  -60.55 | X-H torsion
[ 11005 11000 10999 10996 ] final   90.76 input  -57.11 | X-H torsion

> <Gold.Protein.ActiveResidues>
 VAL166  LYS551  ARG553  GLY616  TRP617  ASP618  TYR619  PRO620  LYS621  CYS622 
 ASP623  PHE694  ASN695  SER759  ASP760  ASP761  ALA762  ILE779  LEU786  VAL792 
 PHE793  MET794  SER795  GLU796  ALA797  LYS798  CYS799  TRP800  GLU811  SER814 

> <Gold.Protein.RotatedAtoms>
  151.7080  135.0918  160.0262 H   0  0  0  0  0  0  0  0  0  0  0  0  # atno 6907 bound_to 6896
  152.3679  133.6376  159.6073 H   0  0  0  0  0  0  0  0  0  0  0  0  # atno 6908 bound_to 6896
  150.7651  133.9234  159.3446 H   0  0  0  0  0  0  0  0  0  0  0  0  # atno 6909 bound_to 6896
  146.2376  140.1842  142.8332 H   0  0  0  0  0  0  0  0  0  0  0  0  # atno 7974 bound_to 7965
  154.6737  140.2617  155.6980 H   0  0  0  0  0  0  0  0  0  0  0  0  # atno 8008 bound_to 7997
  156.2669  140.2824  156.1178 H   0  0  0  0  0  0  0  0  0  0  0  0  # atno 8009 bound_to 7997
  155.1131  140.0376  157.2719 H   0  0  0  0  0  0  0  0  0  0  0  0  # atno 8010 bound_to 7997
  140.5190  144.0034  150.6407 H   0  0  0  0  0  0  0  0  0  0  0  0  # atno 10167 bound_to 10162
  156.9750  130.5983  149.5672 H   0  0  0  0  0  0  0  0  0  0  0  0  # atno 10718 bound_to 10713
  154.4074  135.2756  155.2058 H   0  0  0  0  0  0  0  0  0  0  0  0  # atno 10763 bound_to 10752
  154.4058  135.6034  153.5927 H   0  0  0  0  0  0  0  0  0  0  0  0  # atno 10764 bound_to 10752
  152.9831  135.5937  154.4351 H   0  0  0  0  0  0  0  0  0  0  0  0  # atno 10765 bound_to 10752
  139.8850  134.8633  156.3331 H   0  0  0  0  0  0  0  0  0  0  0  0  # atno 11005 bound_to 11000
  144.9910  140.8547  143.5339 LP  0  0  0  0  0  0  0  0  0  0  0  0  # atno 17320 bound_to 7965
  145.1847  139.2332  143.5274 LP  0  0  0  0  0  0  0  0  0  0  0  0  # atno 17321 bound_to 7965
  140.3378  143.3038  152.0620 LP  0  0  0  0  0  0  0  0  0  0  0  0  # atno 17342 bound_to 10162
  139.4918  144.6464  151.6769 LP  0  0  0  0  0  0  0  0  0  0  0  0  # atno 17343 bound_to 10162
  156.0267  130.5361  150.8426 LP  0  0  0  0  0  0  0  0  0  0  0  0  # atno 17370 bound_to 10713
  157.5566  131.0945  150.9619 LP  0  0  0  0  0  0  0  0  0  0  0  0  # atno 17371 bound_to 10713
  140.9709  133.7328  156.0533 LP  0  0  0  0  0  0  0  0  0  0  0  0  # atno 17394 bound_to 11000
  140.7872  134.3659  157.5473 LP  0  0  0  0  0  0  0  0  0  0  0  0  # atno 17395 bound_to 11000

$$$$
