AV-unprocessed.smi:614|AV-procd|sdf|3068|dock3
  -GOLD-   2262023593D 1   1.00000     0.00000
 Structure written by MMmdl.
 44 45  0  0  0  0  0  0  0  0  1 V2000
  153.0975  143.0147  160.6950 C   0  0  0  0  0  0  0  0  0  0  0  0
  152.1744  143.6760  159.7978 N   0  0  0  0  0  0  0  0  0  0  0  0
  152.4556  144.5044  158.7301 C   0  0  0  0  0  0  0  0  0  0  0  0
  151.2631  144.8835  158.1813 C   0  0  0  0  0  0  0  0  0  0  0  0
  150.3028  144.2237  158.9970 C   0  0  0  0  0  0  0  0  0  0  0  0
  148.9150  144.3640  158.7389 N   0  0  0  0  0  0  0  0  0  0  0  0
  147.8993  144.2014  159.6040 C   0  0  0  0  0  0  0  0  0  0  0  0
  148.0272  143.9371  160.7995 O   0  0  0  0  0  0  0  0  0  0  0  0
  146.7156  144.3676  158.9902 N   0  0  0  0  0  0  0  0  0  0  0  0
  145.3595  144.2656  159.5518 C   0  0  1  0  0  0  0  0  0  0  0  0
  145.1437  142.8527  160.1526 C   0  0  0  0  0  0  0  0  0  0  0  0
  145.1950  145.3167  160.6888 C   0  0  0  0  0  0  0  0  0  0  0  0
  145.9930  145.0169  161.8165 O   0  0  0  0  0  0  0  0  0  0  0  0
  144.3471  144.5163  158.3780 C   0  0  0  0  0  0  0  0  0  0  0  0
  144.4951  143.5076  157.2058 C   0  0  0  0  0  0  0  0  0  0  0  0
  143.4540  143.7423  156.0998 C   0  0  0  0  0  0  0  0  0  0  0  0
  143.5264  145.1763  155.5619 C   0  0  0  0  0  0  0  0  0  0  0  0
  143.3624  146.1901  156.7008 C   0  0  0  0  0  0  0  0  0  0  0  0
  144.4022  145.9600  157.8092 C   0  0  0  0  0  0  0  0  0  0  0  0
  150.8471  143.5000  159.9658 N   0  0  0  0  0  0  0  0  0  0  0  0
  154.1094  143.3866  160.5322 H   0  0  0  0  0  0  0  0  0  0  0  0
  153.0798  141.9399  160.5127 H   0  0  0  0  0  0  0  0  0  0  0  0
  152.8123  143.2074  161.7298 H   0  0  0  0  0  0  0  0  0  0  0  0
  153.4695  144.7517  158.4518 H   0  0  0  0  0  0  0  0  0  0  0  0
  151.1058  145.5291  157.3298 H   0  0  0  0  0  0  0  0  0  0  0  0
  148.6681  144.5955  157.7882 H   0  0  0  0  0  0  0  0  0  0  0  0
  146.7502  144.5847  158.0052 H   0  0  0  0  0  0  0  0  0  0  0  0
  144.0923  142.6778  160.3828 H   0  0  0  0  0  0  0  0  0  0  0  0
  145.6969  142.7158  161.0817 H   0  0  0  0  0  0  0  0  0  0  0  0
  145.4700  142.0633  159.4761 H   0  0  0  0  0  0  0  0  0  0  0  0
  145.4757  146.3129  160.3471 H   0  0  0  0  0  0  0  0  0  0  0  0
  144.1564  145.3950  161.0101 H   0  0  0  0  0  0  0  0  0  0  0  0
  145.9175  145.7280  162.4342 H   0  0  0  0  0  0  0  0  0  0  0  0
  143.3420  144.3734  158.7779 H   0  0  0  0  0  0  0  0  0  0  0  0
  145.4936  143.5739  156.7722 H   0  0  0  0  0  0  0  0  0  0  0  0
  144.3809  142.4838  157.5586 H   0  0  0  0  0  0  0  0  0  0  0  0
  143.6108  143.0337  155.2862 H   0  0  0  0  0  0  0  0  0  0  0  0
  142.4547  143.5469  156.4911 H   0  0  0  0  0  0  0  0  0  0  0  0
  144.4835  145.3347  155.0635 H   0  0  0  0  0  0  0  0  0  0  0  0
  142.7539  145.3323  154.8084 H   0  0  0  0  0  0  0  0  0  0  0  0
  143.4546  147.2039  156.3100 H   0  0  0  0  0  0  0  0  0  0  0  0
  142.3584  146.1110  157.1199 H   0  0  0  0  0  0  0  0  0  0  0  0
  144.2188  146.6924  158.5942 H   0  0  0  0  0  0  0  0  0  0  0  0
  145.3964  146.1730  157.4153 H   0  0  0  0  0  0  0  0  0  0  0  0
  1  2  1  0  0  0  0
  1 21  1  0  0  0  0
  1 22  1  0  0  0  0
  1 23  1  0  0  0  0
  2 20  1  0  0  0  0
  2  3  1  0  0  0  0
  3  4  2  0  0  0  0
  3 24  1  0  0  0  0
  4  5  1  0  0  0  0
  4 25  1  0  0  0  0
  5  6  1  0  0  0  0
  5 20  2  0  0  0  0
  6  7  1  0  0  0  0
  6 26  1  0  0  0  0
  7  8  2  0  0  0  0
  7  9  1  0  0  0  0
  9 10  1  0  0  0  0
  9 27  1  0  0  0  0
 10 11  1  0  0  0  0
 10 12  1  0  0  0  0
 10 14  1  0  0  0  0
 11 28  1  0  0  0  0
 11 29  1  0  0  0  0
 11 30  1  0  0  0  0
 12 13  1  0  0  0  0
 12 31  1  0  0  0  0
 12 32  1  0  0  0  0
 13 33  1  0  0  0  0
 14 19  1  0  0  0  0
 14 15  1  0  0  0  0
 14 34  1  0  0  0  0
 15 16  1  0  0  0  0
 15 35  1  0  0  0  0
 15 36  1  0  0  0  0
 16 17  1  0  0  0  0
 16 37  1  0  0  0  0
 16 38  1  0  0  0  0
 17 18  1  0  0  0  0
 17 39  1  0  0  0  0
 17 40  1  0  0  0  0
 18 19  1  0  0  0  0
 18 41  1  0  0  0  0
 18 42  1  0  0  0  0
 19 43  1  0  0  0  0
 19 44  1  0  0  0  0
M  END
> <s_m_source_file>
AV-unprocessed.smi

> <i_m_source_file_index>
614

> <i_lp_mmshare_version>
43012

> <i_f3d_flags>
0

> <s_epik_input>
W0NIM11uMVtjSF1bY0hdYyhuMSlbTkhdQyg9TylbTkhdW0NAQF0oW0NIM10pKFtDSDJdW09IXSlbQ0hdMltDSDJdW0NIMl1bQ0gyXVtDSDJdW0NIMl0y

> <s_epik_cmdline>
J2VwaWtfcHl0aG9uJywgJy1waCcsICc3LjAnLCAnLXRuJywgJzgnLCAnLW1hJywgJzIwMCcsICctbWV0YWxfYmluZGluZycsICctaW1hZScsICc8aW5maWxlLm1hZT4nLCAnLW9tYWUnLCAnPG91dGZpbGUubWFlPic=

> <r_lp_tautomer_probability>
1

> <r_epik_Ionization_Penalty>
3.66621e-05

> <r_epik_Ionization_Penalty_Charging>
0

> <r_epik_Ionization_Penalty_Neutral>
3.66621e-05

> <r_epik_State_Penalty>
-0

> <r_epik_Charging_Adjusted_Penalty>
0

> <i_epik_Tot_Q>
0

> <i_epik_Tot_abs_Q>
0

> <r_epik_Metal_State_Penalty>
-0

> <b_epik_Metal_Only>
0

> <s_lp_Force_Field>
OPLS_2005

> <r_lp_Energy>
18.5246

> <b_lp_Chiralities_Consistent>
1

> <s_lp_Variant>
AV-unprocessed.smi:614-1

> <Gold.Version>
5.8.1

> <Gold.Id.Protein>
6NUR|6NUR_protein|mol2

> <Gold.PLP.Fitness>
42.8370

> <Gold.PLP.PLP>
-34.4638

> <Gold.PLP.part.hbond>
-5.8981

> <Gold.PLP.part.metal>
0.0000

> <Gold.PLP.part.buried>
-5.3657

> <Gold.PLP.part.nonpolar>
-23.3541

> <Gold.PLP.part.repulsive>
0.4277

> <Gold.PLP.ligand.clash>
0.0000

> <Gold.PLP.ligand.torsion>
0.1998

> <Gold.PLP.Chemscore.Hbond>
2.9040

> <Gold.PLP.Chemscore.CHOScore>
0.0000

> <Gold.PLP.Chemscore.Metal>
0.0000

> <Gold.Chemscore.Hbonds>
donor molecule, donor type, donor heavy atom, donor atom, acceptor molecule, acceptor atom, score
      L1  H     6    26       P1  8029  0.34
      L1  H     9    27       P1  8029  0.48
      P1  H  6933  6944       L1     8  1.00

> <Gold.PLP.Chemscore.Internal.Correction>
0.0609

> <Gold.Rescore>
     Score         DG    S(hbond)    S(metal)    S(lipo)     H(rot)  DE(clash)    DE(int)     intcor
     15.53     -17.06       2.53        0.00      72.10       2.07       0.10       1.42       ----

> <Gold.Chemscore.Fitness>
15.5267

> <Gold.Chemscore.DG>
-17.0559

> <Gold.Chemscore.ZeroCoef>
-5.4800

> <Gold.Chemscore.Hbond>
2.5276

> <Gold.Chemscore.Metal>
0.0000

> <Gold.Chemscore.Lipo>
72.0970

> <Gold.Chemscore.Internal_Hbond>
0.0000

> <Gold.Chemscore.DEClash>
0.1049

> <Gold.Chemscore.DEInternal>
1.4243

> <Gold.Chemscore.Rot>
2.0710

> <Gold.Chemscore.Internal.Correction>
   9.000000E+99

> <Gold.Chemscore.Hbonds>
donor molecule, donor type, donor heavy atom, donor atom, acceptor molecule, acceptor atom, score
      L1  H     6    26       P1  8029  0.02
      L1  H     9    27       P1  8029  0.26
      P1  H  6933  6944       L1     8  1.00

> <Gold.Chemscore.Hbond.Weighted>
-8.4422

> <Gold.Chemscore.Metal.Weighted>
-0.0000

> <Gold.Chemscore.Lipo.Weighted>
-8.4354

> <Gold.Chemscore.Internal_Hbond.Weighted>
0.0000

> <Gold.Chemscore.DEClash.Weighted>
0.1049

> <Gold.Chemscore.DEInternal.Weighted>
1.4243

> <Gold.Chemscore.Rot.Weighted>
5.3017

> <Gold.Chemscore.Internal.Correction.Weighted>
   9.000000E+99

> <Gold.Protein.RotatedTorsions>
[ 6907 6896 6895 6894 ] final  107.13 input  -60.11 | X-H torsion
[ 7974 7965 7964 7962 ] final  118.43 input  175.53 | X-H torsion
[ 8008 7997 7996 7995 ] final   25.64 input   59.86 | X-H torsion
[ 10167 10162 10161 10158 ] final  115.98 input  -65.29 | X-H torsion
[ 10718 10713 10712 10709 ] final  138.49 input   66.30 | X-H torsion
[ 10763 10752 10751 10750 ] final   99.90 input  -60.55 | X-H torsion
[ 11005 11000 10999 10996 ] final   -0.97 input  -57.11 | X-H torsion

> <Gold.Protein.ActiveResidues>
 VAL166  LYS551  ARG553  GLY616  TRP617  ASP618  TYR619  PRO620  LYS621  CYS622 
 ASP623  PHE694  ASN695  SER759  ASP760  ASP761  ALA762  ILE779  LEU786  VAL792 
 PHE793  MET794  SER795  GLU796  ALA797  LYS798  CYS799  TRP800  GLU811  SER814 

> <Gold.Protein.RotatedAtoms>
  152.5166  133.9279  159.7566 H   0  0  0  0  0  0  0  0  0  0  0  0  # atno 6907 bound_to 6896
  150.9636  133.6410  159.2757 H   0  0  0  0  0  0  0  0  0  0  0  0  # atno 6908 bound_to 6896
  151.3646  135.0916  159.9498 H   0  0  0  0  0  0  0  0  0  0  0  0  # atno 6909 bound_to 6896
  145.1553  139.3186  143.4545 H   0  0  0  0  0  0  0  0  0  0  0  0  # atno 7974 bound_to 7965
  155.0149  140.3141  155.4815 H   0  0  0  0  0  0  0  0  0  0  0  0  # atno 8008 bound_to 7997
  156.2902  140.2208  156.5207 H   0  0  0  0  0  0  0  0  0  0  0  0  # atno 8009 bound_to 7997
  154.7502  140.0467  157.0875 H   0  0  0  0  0  0  0  0  0  0  0  0  # atno 8010 bound_to 7997
  139.6279  144.7111  151.2495 H   0  0  0  0  0  0  0  0  0  0  0  0  # atno 10167 bound_to 10162
  157.4247  131.1042  151.0315 H   0  0  0  0  0  0  0  0  0  0  0  0  # atno 10718 bound_to 10713
  153.3072  135.4097  155.1305 H   0  0  0  0  0  0  0  0  0  0  0  0  # atno 10763 bound_to 10752
  154.8566  135.3556  154.5772 H   0  0  0  0  0  0  0  0  0  0  0  0  # atno 10764 bound_to 10752
  153.6199  135.7065  153.5373 H   0  0  0  0  0  0  0  0  0  0  0  0  # atno 10765 bound_to 10752
  140.6422  133.9479  155.8332 H   0  0  0  0  0  0  0  0  0  0  0  0  # atno 11005 bound_to 11000
  146.3489  140.1643  142.8590 LP  0  0  0  0  0  0  0  0  0  0  0  0  # atno 17320 bound_to 7965
  145.0387  140.8929  143.5065 LP  0  0  0  0  0  0  0  0  0  0  0  0  # atno 17321 bound_to 7965
  140.7422  143.6534  150.8228 LP  0  0  0  0  0  0  0  0  0  0  0  0  # atno 17342 bound_to 10162
  140.0155  143.5597  152.2822 LP  0  0  0  0  0  0  0  0  0  0  0  0  # atno 17343 bound_to 10162
  157.1233  130.6071  149.5510 LP  0  0  0  0  0  0  0  0  0  0  0  0  # atno 17370 bound_to 10713
  155.9892  130.4939  150.7206 LP  0  0  0  0  0  0  0  0  0  0  0  0  # atno 17371 bound_to 10713
  141.0598  134.0362  157.3673 LP  0  0  0  0  0  0  0  0  0  0  0  0  # atno 17394 bound_to 11000
  139.9076  135.0183  156.7553 LP  0  0  0  0  0  0  0  0  0  0  0  0  # atno 17395 bound_to 11000

$$$$
