AV-unprocessed.smi:2226|AV-procd|sdf|9018|dock7
  -GOLD-   2272012223D 1   1.00000     0.00000
 Structure written by MMmdl.
 39 41  0  0  0  0  0  0  0  0  3 V2000
  150.1322  141.7248  156.3577 C   0  0  0  0  0  0  0  0  0  0  0  0
  150.4031  140.4723  155.6127 N   0  3  2  0  0  0  0  0  0  0  0  0
  149.1935  139.7412  155.1638 C   0  0  1  0  0  0  0  0  0  0  0  0
  149.5973  138.7344  154.0612 C   0  0  0  0  0  0  0  0  0  0  0  0
  150.7420  137.7870  154.4738 C   0  0  0  0  0  0  0  0  0  0  0  0
  151.8624  138.5192  155.2403 C   0  0  0  0  0  0  0  0  0  0  0  0
  151.3442  139.5402  156.2804 C   0  0  2  0  0  0  0  0  0  0  0  0
  150.7097  138.9117  157.5454 C   0  0  0  0  0  0  0  0  0  0  0  0
  149.3151  138.2829  157.3233 C   0  0  1  0  0  0  0  0  0  0  0  0
  148.6506  138.1382  158.6167 N   0  0  0  0  0  0  0  0  0  0  0  0
  148.3144  136.9833  159.2107 C   0  0  0  0  0  0  0  0  0  0  0  0
  148.5647  135.9156  158.6480 O   0  0  0  0  0  0  0  0  0  0  0  0
  147.7114  137.1597  160.4121 N   0  5  0  0  0  0  0  0  0  0  0  0
  147.2006  136.1611  161.1640 C   0  0  0  0  0  0  0  0  0  0  0  0
  146.6423  136.2127  162.3801 N   0  0  0  0  0  0  0  0  0  0  0  0
  146.2819  134.9144  162.7027 C   0  0  0  0  0  0  0  0  0  0  0  0
  146.6403  134.1120  161.6562 C   0  0  0  0  0  0  0  0  0  0  0  0
  147.2172  134.8838  160.6864 O   0  0  0  0  0  0  0  0  0  0  0  0
  148.4346  139.1201  156.3620 C   0  0  0  0  0  0  0  0  0  0  0  0
  149.6190  141.5432  157.3018 H   0  0  0  0  0  0  0  0  0  0  0  0
  149.5125  142.3942  155.7604 H   0  0  0  0  0  0  0  0  0  0  0  0
  151.0648  142.2461  156.5754 H   0  0  0  0  0  0  0  0  0  0  0  0
  148.5230  140.4617  154.6931 H   0  0  0  0  0  0  0  0  0  0  0  0
  148.7314  138.1564  153.7366 H   0  0  0  0  0  0  0  0  0  0  0  0
  149.9224  139.2994  153.1863 H   0  0  0  0  0  0  0  0  0  0  0  0
  150.3552  136.9610  155.0642 H   0  0  0  0  0  0  0  0  0  0  0  0
  151.1597  137.3137  153.5847 H   0  0  0  0  0  0  0  0  0  0  0  0
  152.5268  137.7958  155.7139 H   0  0  0  0  0  0  0  0  0  0  0  0
  152.4759  139.0546  154.5146 H   0  0  0  0  0  0  0  0  0  0  0  0
  152.2110  140.1176  156.6049 H   0  0  0  0  0  0  0  0  0  0  0  0
  151.3852  138.1691  157.9718 H   0  0  0  0  0  0  0  0  0  0  0  0
  150.6285  139.6915  158.3040 H   0  0  0  0  0  0  0  0  0  0  0  0
  149.4483  137.2831  156.9171 H   0  0  0  0  0  0  0  0  0  0  0  0
  148.4312  138.9888  159.1142 H   0  0  0  0  0  0  0  0  0  0  0  0
  145.8047  134.6687  163.6397 H   0  0  0  0  0  0  0  0  0  0  0  0
  146.5620  133.0538  161.4568 H   0  0  0  0  0  0  0  0  0  0  0  0
  147.9724  139.9311  156.9264 H   0  0  0  0  0  0  0  0  0  0  0  0
  147.6026  138.5158  155.9990 H   0  0  0  0  0  0  0  0  0  0  0  0
  150.8694  140.7722  154.7684 H   0  0  0  0  0  0  0  0  0  0  0  0
  1  2  1  0  0  0  0
  1 20  1  0  0  0  0
  1 21  1  0  0  0  0
  1 22  1  0  0  0  0
  2  7  1  0  0  0  0
  2  3  1  0  0  0  0
  2 39  1  0  0  0  0
  3 19  1  0  0  0  0
  3  4  1  0  0  0  0
  3 23  1  0  0  0  0
  4  5  1  0  0  0  0
  4 24  1  0  0  0  0
  4 25  1  0  0  0  0
  5  6  1  0  0  0  0
  5 26  1  0  0  0  0
  5 27  1  0  0  0  0
  6  7  1  0  0  0  0
  6 28  1  0  0  0  0
  6 29  1  0  0  0  0
  7  8  1  0  0  0  0
  7 30  1  0  0  0  0
  8  9  1  0  0  0  0
  8 31  1  0  0  0  0
  8 32  1  0  0  0  0
  9 10  1  0  0  0  0
  9 19  1  0  0  0  0
  9 33  1  0  0  0  0
 10 34  1  0  0  0  0
 10 11  1  0  0  0  0
 11 13  1  0  0  0  0
 11 12  2  0  0  0  0
 13 14  1  0  0  0  0
 14 18  1  0  0  0  0
 14 15  2  0  0  0  0
 15 16  1  0  0  0  0
 16 35  1  0  0  0  0
 16 17  2  0  0  0  0
 17 36  1  0  0  0  0
 17 18  1  0  0  0  0
 19 37  1  0  0  0  0
 19 38  1  0  0  0  0
M  CHG  1   2   1
M  CHG  1  13  -1
M  END
> <s_m_source_file>
AV-unprocessed.smi

> <i_m_source_file_index>
2226

> <i_lp_mmshare_version>
43012

> <i_f3d_flags>
0

> <s_epik_input>
W0NIMl0xW0NIMl1bQ0gyXVtDQEhdKE4oW0NIM10pW0NIXTEyKVtDSDJdW0NASF0oW0NIMl0yKVtOSF1DKD1PKVtOSF1jM25bY0hdW2NIXW8z

> <s_epik_cmdline>
J2VwaWtfcHl0aG9uJywgJy1waCcsICc3LjAnLCAnLXRuJywgJzgnLCAnLW1hJywgJzIwMCcsICctbWV0YWxfYmluZGluZycsICctaW1hZScsICc8aW5maWxlLm1hZT4nLCAnLW9tYWUnLCAnPG91dGZpbGUubWFlPic=

> <r_lp_tautomer_probability>
0.107061

> <r_epik_Ionization_Penalty>
10.5612

> <r_epik_Ionization_Penalty_Charging>
7.48913

> <r_epik_Ionization_Penalty_Neutral>
3.07202

> <r_epik_State_Penalty>
5.6431

> <r_epik_Charging_Adjusted_Penalty>
13.1322

> <i_epik_Tot_Q>
0

> <i_epik_Tot_abs_Q>
2

> <r_epik_Metal_State_Penalty>
1.58163

> <b_epik_Metal_Only>
1

> <s_lp_Force_Field>
OPLS_2005

> <r_lp_Energy>
28.9751

> <b_lp_Chiralities_Consistent>
1

> <s_lp_Variant>
AV-unprocessed.smi:2226-18

> <Gold.Version>
5.8.1

> <Gold.Id.Protein>
6NUR|6NUR_protein|mol2

> <Gold.PLP.Fitness>
43.5585

> <Gold.PLP.PLP>
-31.1838

> <Gold.PLP.part.hbond>
-2.9747

> <Gold.PLP.part.metal>
0.0000

> <Gold.PLP.part.buried>
-5.9888

> <Gold.PLP.part.nonpolar>
-25.2735

> <Gold.PLP.part.repulsive>
0.3257

> <Gold.PLP.ligand.clash>
0.0000

> <Gold.PLP.ligand.torsion>
0.0211

> <Gold.PLP.Chemscore.Hbond>
4.1360

> <Gold.PLP.Chemscore.CHOScore>
0.0000

> <Gold.PLP.Chemscore.Metal>
0.0000

> <Gold.Chemscore.Hbonds>
donor molecule, donor type, donor heavy atom, donor atom, acceptor molecule, acceptor atom, score
      P1  H  6931  6943       L1    13  0.60
      P1  H  6934  6947       L1    13  1.82

> <Gold.PLP.Chemscore.Internal.Correction>
0.0091

> <Gold.Rescore>
     Score         DG    S(hbond)    S(metal)    S(lipo)     H(rot)  DE(clash)    DE(int)     intcor
     15.19     -16.79       1.97        0.00      62.43       1.00       0.01       1.60       ----

> <Gold.Chemscore.Fitness>
15.1866

> <Gold.Chemscore.DG>
-16.7937

> <Gold.Chemscore.ZeroCoef>
-5.4800

> <Gold.Chemscore.Hbond>
1.9669

> <Gold.Chemscore.Metal>
0.0000

> <Gold.Chemscore.Lipo>
62.4300

> <Gold.Chemscore.Internal_Hbond>
0.0000

> <Gold.Chemscore.DEClash>
0.0058

> <Gold.Chemscore.DEInternal>
1.6013

> <Gold.Chemscore.Rot>
1.0000

> <Gold.Chemscore.Internal.Correction>
   9.000000E+99

> <Gold.Chemscore.Hbonds>
donor molecule, donor type, donor heavy atom, donor atom, acceptor molecule, acceptor atom, score
      P1  H  6931  6943       L1    13  0.10
      P1  H  6934  6947       L1    13  0.77

> <Gold.Chemscore.Hbond.Weighted>
-6.5694

> <Gold.Chemscore.Metal.Weighted>
-0.0000

> <Gold.Chemscore.Lipo.Weighted>
-7.3043

> <Gold.Chemscore.Internal_Hbond.Weighted>
0.0000

> <Gold.Chemscore.DEClash.Weighted>
0.0058

> <Gold.Chemscore.DEInternal.Weighted>
1.6013

> <Gold.Chemscore.Rot.Weighted>
2.5600

> <Gold.Chemscore.Internal.Correction.Weighted>
   9.000000E+99

> <Gold.Protein.RotatedTorsions>
[ 6907 6896 6895 6894 ] final  178.20 input  -60.11 | X-H torsion
[ 7974 7965 7964 7962 ] final  -28.31 input  175.53 | X-H torsion
[ 8008 7997 7996 7995 ] final   23.24 input   59.86 | X-H torsion
[ 10167 10162 10161 10158 ] final  -31.37 input  -65.29 | X-H torsion
[ 10718 10713 10712 10709 ] final   17.27 input   66.30 | X-H torsion
[ 10763 10752 10751 10750 ] final  102.90 input  -60.55 | X-H torsion
[ 11005 11000 10999 10996 ] final  -96.94 input  -57.11 | X-H torsion

> <Gold.Protein.ActiveResidues>
 VAL166  LYS551  ARG553  GLY616  TRP617  ASP618  TYR619  PRO620  LYS621  CYS622 
 ASP623  PHE694  ASN695  SER759  ASP760  ASP761  ALA762  ILE779  LEU786  VAL792 
 PHE793  MET794  SER795  GLU796  ALA797  LYS798  CYS799  TRP800  GLU811  SER814 

> <Gold.Protein.RotatedAtoms>
  151.6916  133.3311  159.3244 H   0  0  0  0  0  0  0  0  0  0  0  0  # atno 6907 bound_to 6896
  150.7776  134.6693  159.6392 H   0  0  0  0  0  0  0  0  0  0  0  0  # atno 6908 bound_to 6896
  152.3823  134.6574  160.0190 H   0  0  0  0  0  0  0  0  0  0  0  0  # atno 6909 bound_to 6896
  146.1297  140.5266  142.8699 H   0  0  0  0  0  0  0  0  0  0  0  0  # atno 7974 bound_to 7965
  154.9779  140.3098  155.4959 H   0  0  0  0  0  0  0  0  0  0  0  0  # atno 8008 bound_to 7997
  156.2957  140.2272  156.4815 H   0  0  0  0  0  0  0  0  0  0  0  0  # atno 8009 bound_to 7997
  154.7817  140.0445  157.1120 H   0  0  0  0  0  0  0  0  0  0  0  0  # atno 8010 bound_to 7997
  140.7237  143.3776  151.1660 H   0  0  0  0  0  0  0  0  0  0  0  0  # atno 10167 bound_to 10162
  157.0798  130.6383  149.5824 H   0  0  0  0  0  0  0  0  0  0  0  0  # atno 10718 bound_to 10713
  153.3456  135.3995  155.1606 H   0  0  0  0  0  0  0  0  0  0  0  0  # atno 10763 bound_to 10752
  154.8652  135.3644  154.5288 H   0  0  0  0  0  0  0  0  0  0  0  0  # atno 10764 bound_to 10752
  153.5736  135.7078  153.5553 H   0  0  0  0  0  0  0  0  0  0  0  0  # atno 10765 bound_to 10752
  141.1395  133.8134  157.0639 H   0  0  0  0  0  0  0  0  0  0  0  0  # atno 11005 bound_to 11000
  144.7678  140.5570  143.6691 LP  0  0  0  0  0  0  0  0  0  0  0  0  # atno 17320 bound_to 7965
  145.5288  139.1475  143.3511 LP  0  0  0  0  0  0  0  0  0  0  0  0  # atno 17321 bound_to 7965
  139.7359  143.8999  152.3035 LP  0  0  0  0  0  0  0  0  0  0  0  0  # atno 17342 bound_to 10162
  139.8804  144.7020  150.8884 LP  0  0  0  0  0  0  0  0  0  0  0  0  # atno 17343 bound_to 10162
  155.9927  130.4985  150.7350 LP  0  0  0  0  0  0  0  0  0  0  0  0  # atno 17370 bound_to 10713
  157.4810  131.0902  151.0536 LP  0  0  0  0  0  0  0  0  0  0  0  0  # atno 17371 bound_to 10713
  140.0553  134.9783  157.1210 LP  0  0  0  0  0  0  0  0  0  0  0  0  # atno 17394 bound_to 11000
  140.3928  134.2166  155.7165 LP  0  0  0  0  0  0  0  0  0  0  0  0  # atno 17395 bound_to 11000

$$$$
