AV-unprocessed.smi:1102|AV-procd|sdf|4769|dock9
  -GOLD-   22720 3313D 1   1.00000     0.00000
 Structure written by MMmdl.
 39 40  0  0  0  0  0  0  0  0  1 V2000
  153.4084  132.0096  163.2384 C   0  0  0  0  0  0  0  0  0  0  0  0
  153.6875  133.0792  164.1880 N   0  0  0  0  0  0  0  0  0  0  0  0
  153.8163  132.7749  165.6096 C   0  0  0  0  0  0  0  0  0  0  0  0
  153.7823  134.4185  163.7451 C   0  0  0  0  0  0  0  0  0  0  0  0
  153.5909  135.5070  164.6320 C   0  0  0  0  0  0  0  0  0  0  0  0
  153.6961  136.8217  164.1396 C   0  0  0  0  0  0  0  0  0  0  0  0
  153.9798  137.0284  162.7762 C   0  0  0  0  0  0  0  0  0  0  0  0
  154.1015  138.3662  162.3125 N   0  0  0  0  0  0  0  0  0  0  0  0
  153.7863  138.8645  161.1047 C   0  0  0  0  0  0  0  0  0  0  0  0
  153.2629  138.2312  160.1883 O   0  0  0  0  0  0  0  0  0  0  0  0
  154.0973  140.1657  161.0220 N   0  0  0  0  0  0  0  0  0  0  0  0
  153.9032  141.0011  159.8420 C   0  0  0  0  0  0  0  0  0  0  0  0
  153.8266  142.4918  160.2121 C   0  0  2  0  0  0  0  0  0  0  0  0
  152.8228  142.7948  161.3238 C   0  0  0  0  0  0  0  0  0  0  0  0
  152.4931  144.2445  161.0530 C   0  0  0  0  0  0  0  0  0  0  0  0
  152.4655  144.2729  159.5285 C   0  0  0  0  0  0  0  0  0  0  0  0
  153.3914  143.2769  159.1034 O   0  0  0  0  0  0  0  0  0  0  0  0
  154.1668  135.8834  161.9669 C   0  0  0  0  0  0  0  0  0  0  0  0
  154.0682  134.6217  162.4357 N   0  0  0  0  0  0  0  0  0  0  0  0
  152.4536  132.1795  162.7397 H   0  0  0  0  0  0  0  0  0  0  0  0
  153.3559  131.0411  163.7357 H   0  0  0  0  0  0  0  0  0  0  0  0
  154.1928  131.9519  162.4833 H   0  0  0  0  0  0  0  0  0  0  0  0
  153.0397  133.2836  166.1818 H   0  0  0  0  0  0  0  0  0  0  0  0
  154.7892  133.0957  165.9834 H   0  0  0  0  0  0  0  0  0  0  0  0
  153.7236  131.7054  165.7985 H   0  0  0  0  0  0  0  0  0  0  0  0
  153.3673  135.3611  165.6779 H   0  0  0  0  0  0  0  0  0  0  0  0
  153.5565  137.6610  164.8053 H   0  0  0  0  0  0  0  0  0  0  0  0
  154.4392  139.0308  162.9931 H   0  0  0  0  0  0  0  0  0  0  0  0
  154.5168  140.6070  161.8271 H   0  0  0  0  0  0  0  0  0  0  0  0
  154.6894  140.8254  159.1056 H   0  0  0  0  0  0  0  0  0  0  0  0
  152.9684  140.6939  159.3725 H   0  0  0  0  0  0  0  0  0  0  0  0
  154.8097  142.8570  160.5143 H   0  0  0  0  0  0  0  0  0  0  0  0
  151.9260  142.1835  161.2119 H   0  0  0  0  0  0  0  0  0  0  0  0
  153.2292  142.6269  162.3216 H   0  0  0  0  0  0  0  0  0  0  0  0
  151.5533  144.5647  161.5034 H   0  0  0  0  0  0  0  0  0  0  0  0
  153.2909  144.8869  161.4284 H   0  0  0  0  0  0  0  0  0  0  0  0
  151.4754  144.0033  159.1595 H   0  0  0  0  0  0  0  0  0  0  0  0
  152.7214  145.2531  159.1259 H   0  0  0  0  0  0  0  0  0  0  0  0
  154.4244  135.9553  160.9219 H   0  0  0  0  0  0  0  0  0  0  0  0
  1  2  1  0  0  0  0
  1 20  1  0  0  0  0
  1 21  1  0  0  0  0
  1 22  1  0  0  0  0
  2  3  1  0  0  0  0
  2  4  1  0  0  0  0
  3 23  1  0  0  0  0
  3 24  1  0  0  0  0
  3 25  1  0  0  0  0
  4 19  1  0  0  0  0
  4  5  2  0  0  0  0
  5  6  1  0  0  0  0
  5 26  1  0  0  0  0
  6  7  2  0  0  0  0
  6 27  1  0  0  0  0
  7  8  1  0  0  0  0
  7 18  1  0  0  0  0
  8  9  1  0  0  0  0
  8 28  1  0  0  0  0
  9 10  2  0  0  0  0
  9 11  1  0  0  0  0
 11 12  1  0  0  0  0
 11 29  1  0  0  0  0
 12 13  1  0  0  0  0
 12 30  1  0  0  0  0
 12 31  1  0  0  0  0
 13 17  1  0  0  0  0
 13 14  1  0  0  0  0
 13 32  1  0  0  0  0
 14 15  1  0  0  0  0
 14 33  1  0  0  0  0
 14 34  1  0  0  0  0
 15 16  1  0  0  0  0
 15 35  1  0  0  0  0
 15 36  1  0  0  0  0
 16 17  1  0  0  0  0
 16 37  1  0  0  0  0
 16 38  1  0  0  0  0
 18 19  2  0  0  0  0
 18 39  1  0  0  0  0
M  END
> <s_m_source_file>
AV-unprocessed.smi

> <i_m_source_file_index>
1102

> <i_lp_mmshare_version>
43012

> <i_f3d_flags>
0

> <s_epik_input>
W0NIM11OKFtDSDNdKWMxW2NIXVtjSF1jKFtjSF1uMSlbTkhdQyg9TylbTkhdW0NIMl1bQ0BASF0yW0NIMl1bQ0gyXVtDSDJdTzI=

> <s_epik_cmdline>
J2VwaWtfcHl0aG9uJywgJy1waCcsICc3LjAnLCAnLXRuJywgJzgnLCAnLW1hJywgJzIwMCcsICctbWV0YWxfYmluZGluZycsICctaW1hZScsICc8aW5maWxlLm1hZT4nLCAnLW9tYWUnLCAnPG91dGZpbGUubWFlPic=

> <r_lp_tautomer_probability>
1

> <r_epik_Ionization_Penalty>
0.605145

> <r_epik_Ionization_Penalty_Charging>
0

> <r_epik_Ionization_Penalty_Neutral>
0.605145

> <r_epik_State_Penalty>
0.618734

> <r_epik_Charging_Adjusted_Penalty>
0.618734

> <i_epik_Tot_Q>
0

> <i_epik_Tot_abs_Q>
0

> <r_epik_Metal_State_Penalty>
0.302184

> <b_epik_Metal_Only>
0

> <s_lp_Force_Field>
OPLS_2005

> <r_lp_Energy>
22.0104

> <b_lp_Chiralities_Consistent>
1

> <s_lp_Variant>
AV-unprocessed.smi:1102-3

> <Gold.Version>
5.8.1

> <Gold.Id.Protein>
6NUR|6NUR_protein|mol2

> <Gold.PLP.Fitness>
40.3886

> <Gold.PLP.PLP>
-41.6344

> <Gold.PLP.part.hbond>
0.0000

> <Gold.PLP.part.metal>
0.0000

> <Gold.PLP.part.buried>
-5.0251

> <Gold.PLP.part.nonpolar>
-36.7026

> <Gold.PLP.part.repulsive>
0.0234

> <Gold.PLP.ligand.clash>
0.0000

> <Gold.PLP.ligand.torsion>
0.6264

> <Gold.PLP.Chemscore.Hbond>
0.0000

> <Gold.PLP.Chemscore.CHOScore>
0.0000

> <Gold.PLP.Chemscore.Metal>
0.0000

> <Gold.PLP.Chemscore.Internal.Correction>
0.0070

> <Gold.Rescore>
     Score         DG    S(hbond)    S(metal)    S(lipo)     H(rot)  DE(clash)    DE(int)     intcor
     14.20     -14.76       0.00        0.00     105.90       1.21       0.04       0.53       ----

> <Gold.Chemscore.Fitness>
14.1961

> <Gold.Chemscore.DG>
-14.7607

> <Gold.Chemscore.ZeroCoef>
-5.4800

> <Gold.Chemscore.Hbond>
0.0000

> <Gold.Chemscore.Metal>
0.0000

> <Gold.Chemscore.Lipo>
105.8974

> <Gold.Chemscore.Internal_Hbond>
0.0000

> <Gold.Chemscore.DEClash>
0.0391

> <Gold.Chemscore.DEInternal>
0.5254

> <Gold.Chemscore.Rot>
1.2146

> <Gold.Chemscore.Internal.Correction>
   9.000000E+99

> <Gold.Chemscore.Hbond.Weighted>
-0.0000

> <Gold.Chemscore.Metal.Weighted>
-0.0000

> <Gold.Chemscore.Lipo.Weighted>
-12.3900

> <Gold.Chemscore.Internal_Hbond.Weighted>
0.0000

> <Gold.Chemscore.DEClash.Weighted>
0.0391

> <Gold.Chemscore.DEInternal.Weighted>
0.5254

> <Gold.Chemscore.Rot.Weighted>
3.1093

> <Gold.Chemscore.Internal.Correction.Weighted>
   9.000000E+99

> <Gold.Protein.RotatedTorsions>
[ 6907 6896 6895 6894 ] final  155.31 input  -60.11 | X-H torsion
[ 7974 7965 7964 7962 ] final  124.32 input  175.53 | X-H torsion
[ 8008 7997 7996 7995 ] final  144.00 input   59.86 | X-H torsion
[ 10167 10162 10161 10158 ] final  175.54 input  -65.29 | X-H torsion
[ 10718 10713 10712 10709 ] final -118.02 input   66.30 | X-H torsion
[ 10763 10752 10751 10750 ] final  173.07 input  -60.55 | X-H torsion
[ 11005 11000 10999 10996 ] final  -55.58 input  -57.11 | X-H torsion

> <Gold.Protein.ActiveResidues>
 VAL166  LYS551  ARG553  GLY616  TRP617  ASP618  TYR619  PRO620  LYS621  CYS622 
 ASP623  PHE694  ASN695  SER759  ASP760  ASP761  ALA762  ILE779  LEU786  VAL792 
 PHE793  MET794  SER795  GLU796  ALA797  LYS798  CYS799  TRP800  GLU811  SER814 

> <Gold.Protein.RotatedAtoms>
  152.0460  133.3998  159.4356 H   0  0  0  0  0  0  0  0  0  0  0  0  # atno 6907 bound_to 6896
  150.6873  134.3361  159.4857 H   0  0  0  0  0  0  0  0  0  0  0  0  # atno 6908 bound_to 6896
  152.1165  134.9236  160.0615 H   0  0  0  0  0  0  0  0  0  0  0  0  # atno 6909 bound_to 6896
  145.0858  139.3623  143.4886 H   0  0  0  0  0  0  0  0  0  0  0  0  # atno 7974 bound_to 7965
  156.2918  140.2247  156.4981 H   0  0  0  0  0  0  0  0  0  0  0  0  # atno 8008 bound_to 7997
  154.7713  140.0466  157.1075 H   0  0  0  0  0  0  0  0  0  0  0  0  # atno 8009 bound_to 7997
  154.9871  140.3085  155.4925 H   0  0  0  0  0  0  0  0  0  0  0  0  # atno 8010 bound_to 7997
  139.5181  144.3020  152.0370 H   0  0  0  0  0  0  0  0  0  0  0  0  # atno 10167 bound_to 10162
  156.1076  130.6223  150.9238 H   0  0  0  0  0  0  0  0  0  0  0  0  # atno 10718 bound_to 10713
  154.4349  135.2760  155.1887 H   0  0  0  0  0  0  0  0  0  0  0  0  # atno 10763 bound_to 10752
  154.3778  135.6094  153.5778 H   0  0  0  0  0  0  0  0  0  0  0  0  # atno 10764 bound_to 10752
  152.9838  135.5873  154.4667 H   0  0  0  0  0  0  0  0  0  0  0  0  # atno 10765 bound_to 10752
  141.1081  133.6612  156.4491 H   0  0  0  0  0  0  0  0  0  0  0  0  # atno 11005 bound_to 11000
  146.3531  140.0669  142.8625 LP  0  0  0  0  0  0  0  0  0  0  0  0  # atno 17320 bound_to 7965
  145.1124  140.9413  143.4648 LP  0  0  0  0  0  0  0  0  0  0  0  0  # atno 17321 bound_to 7965
  140.2467  144.4212  150.6238 LP  0  0  0  0  0  0  0  0  0  0  0  0  # atno 17342 bound_to 10162
  140.6253  143.2180  151.6610 LP  0  0  0  0  0  0  0  0  0  0  0  0  # atno 17343 bound_to 10162
  157.6254  131.0926  150.8543 LP  0  0  0  0  0  0  0  0  0  0  0  0  # atno 17370 bound_to 10713
  156.8660  130.5129  149.5300 LP  0  0  0  0  0  0  0  0  0  0  0  0  # atno 17371 bound_to 10713
  140.4850  134.6629  157.5187 LP  0  0  0  0  0  0  0  0  0  0  0  0  # atno 17394 bound_to 11000
  139.9960  134.6910  155.9609 LP  0  0  0  0  0  0  0  0  0  0  0  0  # atno 17395 bound_to 11000

$$$$
