AV-unprocessed.smi:1941|AV-procd|sdf|7848|dock10
  -GOLD-   22720 9593D 1   1.00000     0.00000
 Structure written by MMmdl.
 40 41  0  0  0  0  0  0  0  0  1 V2000
  152.0257  138.3328  154.6225 C   0  0  0  0  0  0  0  0  0  0  0  0
  151.0971  139.4777  154.8408 C   0  0  0  0  0  0  0  0  0  0  0  0
  149.9448  139.6309  154.1834 N   0  0  0  0  0  0  0  0  0  0  0  0
  149.2561  140.7861  154.5669 C   0  0  0  0  0  0  0  0  0  0  0  0
  147.9424  141.1195  153.9288 C   0  0  0  0  0  0  0  0  0  0  0  0
  146.7993  141.2105  154.9532 C   0  0  0  0  0  0  0  0  0  0  0  0
  145.6279  140.4650  154.5085 N   0  0  0  0  0  0  0  0  0  0  0  0
  145.0223  139.4984  155.2113 C   0  0  0  0  0  0  0  0  0  0  0  0
  145.4058  139.1056  156.3134 O   0  0  0  0  0  0  0  0  0  0  0  0
  143.9489  139.0183  154.5676 N   0  0  0  0  0  0  0  0  0  0  0  0
  143.0622  137.9621  155.0519 C   0  0  1  0  0  0  0  0  0  0  0  0
  142.4252  138.4114  156.3748 C   0  0  0  0  0  0  0  0  0  0  0  0
  142.0019  137.6319  153.9833 C   0  0  1  0  0  0  0  0  0  0  0  0
  141.0953  136.4455  154.3211 C   0  0  0  0  0  0  0  0  0  0  0  0
  139.8112  136.7384  153.5593 C   0  0  0  0  0  0  0  0  0  0  0  0
  139.9629  138.1955  153.1152 C   0  0  0  0  0  0  0  0  0  0  0  0
  141.0680  138.6924  153.8556 O   0  0  0  0  0  0  0  0  0  0  0  0
  149.9085  141.5098  155.5337 C   0  0  0  0  0  0  0  0  0  0  0  0
  151.4143  140.7660  155.9964 S   0  0  0  0  0  0  0  0  0  0  0  0
  151.6666  137.6941  153.8148 H   0  0  0  0  0  0  0  0  0  0  0  0
  152.1012  137.7373  155.5324 H   0  0  0  0  0  0  0  0  0  0  0  0
  153.0173  138.7020  154.3608 H   0  0  0  0  0  0  0  0  0  0  0  0
  148.0261  142.0637  153.3889 H   0  0  0  0  0  0  0  0  0  0  0  0
  147.6965  140.3685  153.1769 H   0  0  0  0  0  0  0  0  0  0  0  0
  147.1195  140.7944  155.9089 H   0  0  0  0  0  0  0  0  0  0  0  0
  146.5340  142.2525  155.1412 H   0  0  0  0  0  0  0  0  0  0  0  0
  145.2414  140.7161  153.6102 H   0  0  0  0  0  0  0  0  0  0  0  0
  143.7239  139.4153  153.6672 H   0  0  0  0  0  0  0  0  0  0  0  0
  143.6349  137.0551  155.2534 H   0  0  0  0  0  0  0  0  0  0  0  0
  141.7762  137.6358  156.7825 H   0  0  0  0  0  0  0  0  0  0  0  0
  141.8243  139.3118  156.2425 H   0  0  0  0  0  0  0  0  0  0  0  0
  143.1878  138.6262  157.1241 H   0  0  0  0  0  0  0  0  0  0  0  0
  142.4784  137.4652  153.0148 H   0  0  0  0  0  0  0  0  0  0  0  0
  141.5404  135.4883  154.0478 H   0  0  0  0  0  0  0  0  0  0  0  0
  140.8866  136.4231  155.3919 H   0  0  0  0  0  0  0  0  0  0  0  0
  139.6923  136.0808  152.6975 H   0  0  0  0  0  0  0  0  0  0  0  0
  138.9427  136.6049  154.2053 H   0  0  0  0  0  0  0  0  0  0  0  0
  140.1919  138.2503  152.0499 H   0  0  0  0  0  0  0  0  0  0  0  0
  139.0661  138.7865  153.3017 H   0  0  0  0  0  0  0  0  0  0  0  0
  149.5956  142.4324  155.9998 H   0  0  0  0  0  0  0  0  0  0  0  0
  1  2  1  0  0  0  0
  1 20  1  0  0  0  0
  1 21  1  0  0  0  0
  1 22  1  0  0  0  0
  2 19  1  0  0  0  0
  2  3  2  0  0  0  0
  3  4  1  0  0  0  0
  4  5  1  0  0  0  0
  4 18  2  0  0  0  0
  5  6  1  0  0  0  0
  5 23  1  0  0  0  0
  5 24  1  0  0  0  0
  6  7  1  0  0  0  0
  6 25  1  0  0  0  0
  6 26  1  0  0  0  0
  7  8  1  0  0  0  0
  7 27  1  0  0  0  0
  8  9  2  0  0  0  0
  8 10  1  0  0  0  0
 10 11  1  0  0  0  0
 10 28  1  0  0  0  0
 11 12  1  0  0  0  0
 11 13  1  0  0  0  0
 11 29  1  0  0  0  0
 12 30  1  0  0  0  0
 12 31  1  0  0  0  0
 12 32  1  0  0  0  0
 13 17  1  0  0  0  0
 13 14  1  0  0  0  0
 13 33  1  0  0  0  0
 14 15  1  0  0  0  0
 14 34  1  0  0  0  0
 14 35  1  0  0  0  0
 15 16  1  0  0  0  0
 15 36  1  0  0  0  0
 15 37  1  0  0  0  0
 16 17  1  0  0  0  0
 16 38  1  0  0  0  0
 16 39  1  0  0  0  0
 18 19  1  0  0  0  0
 18 40  1  0  0  0  0
M  END
> <s_m_source_file>
AV-unprocessed.smi

> <i_m_source_file_index>
1941

> <i_lp_mmshare_version>
43012

> <i_f3d_flags>
0

> <s_epik_input>
W0NIM11jMW5jKFtjSF1zMSlbQ0gyXVtDSDJdW05IXUMoPU8pW05IXVtDQEhdKFtDSDNdKVtDQEBIXTJbQ0gyXVtDSDJdW0NIMl1PMg==

> <s_epik_cmdline>
J2VwaWtfcHl0aG9uJywgJy1waCcsICc3LjAnLCAnLXRuJywgJzgnLCAnLW1hJywgJzIwMCcsICctbWV0YWxfYmluZGluZycsICctaW1hZScsICc8aW5maWxlLm1hZT4nLCAnLW9tYWUnLCAnPG91dGZpbGUubWFlPic=

> <r_epik_Ionization_Penalty>
0.00195486

> <r_epik_Ionization_Penalty_Charging>
0

> <r_epik_Ionization_Penalty_Neutral>
0.00195486

> <r_epik_State_Penalty>
0.00129472

> <r_epik_Charging_Adjusted_Penalty>
0.00129472

> <i_epik_Tot_Q>
0

> <i_epik_Tot_abs_Q>
0

> <r_epik_Metal_State_Penalty>
-0

> <b_epik_Metal_Only>
0

> <s_lp_Force_Field>
OPLS_2005

> <r_lp_Energy>
10.4384

> <b_lp_Chiralities_Consistent>
1

> <s_lp_Variant>
AV-unprocessed.smi:1941-4

> <Gold.Version>
5.8.1

> <Gold.Id.Protein>
6NUR|6NUR_protein|mol2

> <Gold.PLP.Fitness>
39.1732

> <Gold.PLP.PLP>
-31.3781

> <Gold.PLP.part.hbond>
-2.2798

> <Gold.PLP.part.metal>
0.0000

> <Gold.PLP.part.buried>
-2.6719

> <Gold.PLP.part.nonpolar>
-27.6701

> <Gold.PLP.part.repulsive>
1.1473

> <Gold.PLP.ligand.clash>
0.0000

> <Gold.PLP.ligand.torsion>
0.4163

> <Gold.PLP.Chemscore.Hbond>
1.8640

> <Gold.PLP.Chemscore.CHOScore>
1.0000

> <Gold.PLP.Chemscore.Metal>
0.0000

> <Gold.Chemscore.Hbonds>
donor molecule, donor type, donor heavy atom, donor atom, acceptor molecule, acceptor atom, score
      L1  H     7    27       P1 10175  0.86
      L1  H    10    28       P1 10175  1.00
      L1  C    18    40       P1  8028  1.00

> <Gold.PLP.Chemscore.Internal.Correction>
0.0356

> <Gold.Rescore>
     Score         DG    S(hbond)    S(metal)    S(lipo)     H(rot)  DE(clash)    DE(int)     intcor
     15.72     -16.11       1.85        0.00      75.10       1.69       0.05       0.34       ----

> <Gold.Chemscore.Fitness>
15.7223

> <Gold.Chemscore.DG>
-16.1126

> <Gold.Chemscore.ZeroCoef>
-5.4800

> <Gold.Chemscore.Hbond>
1.8497

> <Gold.Chemscore.Metal>
0.0000

> <Gold.Chemscore.Lipo>
75.1022

> <Gold.Chemscore.Internal_Hbond>
0.0000

> <Gold.Chemscore.DEClash>
0.0544

> <Gold.Chemscore.DEInternal>
0.3358

> <Gold.Chemscore.Rot>
1.6923

> <Gold.Chemscore.Internal.Correction>
   9.000000E+99

> <Gold.Chemscore.Hbonds>
donor molecule, donor type, donor heavy atom, donor atom, acceptor molecule, acceptor atom, score
      L1  H     7    27       P1 10175  0.80
      L1  H    10    28       P1 10175  0.96

> <Gold.Chemscore.Hbond.Weighted>
-6.1779

> <Gold.Chemscore.Metal.Weighted>
-0.0000

> <Gold.Chemscore.Lipo.Weighted>
-8.7870

> <Gold.Chemscore.Internal_Hbond.Weighted>
0.0000

> <Gold.Chemscore.DEClash.Weighted>
0.0544

> <Gold.Chemscore.DEInternal.Weighted>
0.3358

> <Gold.Chemscore.Rot.Weighted>
4.3323

> <Gold.Chemscore.Internal.Correction.Weighted>
   9.000000E+99

> <Gold.Protein.RotatedTorsions>
[ 6907 6896 6895 6894 ] final  114.25 input  -60.11 | X-H torsion
[ 7974 7965 7964 7962 ] final  -11.90 input  175.53 | X-H torsion
[ 8008 7997 7996 7995 ] final   15.44 input   59.86 | X-H torsion
[ 10167 10162 10161 10158 ] final -143.68 input  -65.29 | X-H torsion
[ 10718 10713 10712 10709 ] final  -61.55 input   66.30 | X-H torsion
[ 10763 10752 10751 10750 ] final  171.52 input  -60.55 | X-H torsion
[ 11005 11000 10999 10996 ] final  -93.52 input  -57.11 | X-H torsion

> <Gold.Protein.ActiveResidues>
 VAL166  LYS551  ARG553  GLY616  TRP617  ASP618  TYR619  PRO620  LYS621  CYS622 
 ASP623  PHE694  ASN695  SER759  ASP760  ASP761  ALA762  ILE779  LEU786  VAL792 
 PHE793  MET794  SER795  GLU796  ALA797  LYS798  CYS799  TRP800  GLU811  SER814 

> <Gold.Protein.RotatedAtoms>
  152.4813  133.8262  159.7079 H   0  0  0  0  0  0  0  0  0  0  0  0  # atno 6907 bound_to 6896
  150.8866  133.7290  159.2923 H   0  0  0  0  0  0  0  0  0  0  0  0  # atno 6908 bound_to 6896
  151.4777  135.1054  159.9821 H   0  0  0  0  0  0  0  0  0  0  0  0  # atno 6909 bound_to 6896
  146.2171  140.2979  142.8373 H   0  0  0  0  0  0  0  0  0  0  0  0  # atno 7974 bound_to 7965
  154.8627  140.2947  155.5529 H   0  0  0  0  0  0  0  0  0  0  0  0  # atno 8008 bound_to 7997
  156.3020  140.2475  156.3536 H   0  0  0  0  0  0  0  0  0  0  0  0  # atno 8009 bound_to 7997
  154.8901  140.0395  157.1823 H   0  0  0  0  0  0  0  0  0  0  0  0  # atno 8010 bound_to 7997
  139.7970  143.7886  152.2655 H   0  0  0  0  0  0  0  0  0  0  0  0  # atno 10167 bound_to 10162
  156.0914  130.4199  150.1010 H   0  0  0  0  0  0  0  0  0  0  0  0  # atno 10718 bound_to 10713
  154.4130  135.2756  155.2024 H   0  0  0  0  0  0  0  0  0  0  0  0  # atno 10763 bound_to 10752
  154.4002  135.6046  153.5896 H   0  0  0  0  0  0  0  0  0  0  0  0  # atno 10764 bound_to 10752
  152.9831  135.5924  154.4415 H   0  0  0  0  0  0  0  0  0  0  0  0  # atno 10765 bound_to 10752
  141.1495  133.7893  157.0171 H   0  0  0  0  0  0  0  0  0  0  0  0  # atno 11005 bound_to 11000
  144.9079  140.7722  143.5826 LP  0  0  0  0  0  0  0  0  0  0  0  0  # atno 17320 bound_to 7965
  145.2908  139.1884  143.4741 LP  0  0  0  0  0  0  0  0  0  0  0  0  # atno 17321 bound_to 7965
  139.7995  144.7379  150.9845 LP  0  0  0  0  0  0  0  0  0  0  0  0  # atno 17342 bound_to 10162
  140.7820  143.4360  151.0623 LP  0  0  0  0  0  0  0  0  0  0  0  0  # atno 17343 bound_to 10162
  156.9019  130.9623  151.3575 LP  0  0  0  0  0  0  0  0  0  0  0  0  # atno 17370 bound_to 10713
  157.6064  130.8550  149.8882 LP  0  0  0  0  0  0  0  0  0  0  0  0  # atno 17371 bound_to 10713
  140.0840  134.9631  157.1670 LP  0  0  0  0  0  0  0  0  0  0  0  0  # atno 17394 bound_to 11000
  140.3537  134.2570  155.7195 LP  0  0  0  0  0  0  0  0  0  0  0  0  # atno 17395 bound_to 11000

$$$$
