AV-unprocessed.smi:652|AV-procd|sdf|3202|dock4
  -GOLD-   22720 0133D 1   1.00000     0.00000
 Structure written by MMmdl.
 48 49  0  0  0  0  0  0  0  0  2 V2000
  142.5931  140.4243  155.2639 C   0  0  0  0  0  0  0  0  0  0  0  0
  143.6456  141.4427  155.7213 C   0  0  0  0  0  0  0  0  0  0  0  0
  143.0235  142.8265  155.9687 C   0  0  0  0  0  0  0  0  0  0  0  0
  144.7047  141.5292  154.7200 N   0  0  0  0  0  0  0  0  0  0  0  0
  145.8145  142.2770  154.8246 C   0  0  0  0  0  0  0  0  0  0  0  0
  146.0730  142.9720  155.8074 O   0  0  0  0  0  0  0  0  0  0  0  0
  146.7876  142.2230  153.6421 C   0  0  0  0  0  0  0  0  0  0  0  0
  147.3455  140.8077  153.3746 C   0  0  0  0  0  0  0  0  0  0  0  0
  148.3868  140.3363  154.2894 N   0  0  0  0  0  0  0  0  0  0  0  0
  149.2661  139.3450  153.6756 C   0  0  0  0  0  0  0  0  0  0  0  0
  150.3590  138.8724  154.6489 C   0  0  0  0  0  0  0  0  0  0  0  0
  151.0915  139.9956  155.1292 O   0  0  0  0  0  0  0  0  0  0  0  0
  150.2706  140.9581  155.7853 C   0  0  1  0  0  0  0  0  0  0  0  0
  151.1806  142.0920  156.2779 C   0  0  0  0  0  0  0  0  0  0  0  0
  150.4224  143.1585  156.9147 N   0  0  0  0  0  0  0  0  0  0  0  0
  150.8677  143.7343  158.1116 C   0  0  0  0  0  0  0  0  0  0  0  0
  152.0497  143.3476  158.7850 C   0  0  0  0  0  0  0  0  0  0  0  0
  152.3819  144.0085  159.9798 C   0  0  0  0  0  0  0  0  0  0  0  0
  151.5128  145.0179  160.4296 C   0  0  0  0  0  0  0  0  0  0  0  0
  150.3872  145.3738  159.7711 N   0  0  0  0  0  0  0  0  0  0  0  0
  150.0959  144.7218  158.6315 N   0  3  0  0  0  0  0  0  0  0  0  0
  149.1930  141.4412  154.7919 C   0  0  0  0  0  0  0  0  0  0  0  0
  141.8092  140.3091  156.0130 H   0  0  0  0  0  0  0  0  0  0  0  0
  143.0393  139.4427  155.1018 H   0  0  0  0  0  0  0  0  0  0  0  0
  142.1187  140.7337  154.3319 H   0  0  0  0  0  0  0  0  0  0  0  0
  144.0732  141.0805  156.6579 H   0  0  0  0  0  0  0  0  0  0  0  0
  142.2327  142.7715  156.7173 H   0  0  0  0  0  0  0  0  0  0  0  0
  142.5889  143.2351  155.0556 H   0  0  0  0  0  0  0  0  0  0  0  0
  143.7669  143.5373  156.3305 H   0  0  0  0  0  0  0  0  0  0  0  0
  144.5807  140.9824  153.8801 H   0  0  0  0  0  0  0  0  0  0  0  0
  146.2801  142.6079  152.7576 H   0  0  0  0  0  0  0  0  0  0  0  0
  147.6177  142.9066  153.8247 H   0  0  0  0  0  0  0  0  0  0  0  0
  146.5195  140.0953  153.3660 H   0  0  0  0  0  0  0  0  0  0  0  0
  147.7433  140.8040  152.3589 H   0  0  0  0  0  0  0  0  0  0  0  0
  148.6908  138.4794  153.3487 H   0  0  0  0  0  0  0  0  0  0  0  0
  149.7334  139.7659  152.7840 H   0  0  0  0  0  0  0  0  0  0  0  0
  149.9198  138.3295  155.4873 H   0  0  0  0  0  0  0  0  0  0  0  0
  151.0433  138.1876  154.1480 H   0  0  0  0  0  0  0  0  0  0  0  0
  149.7962  140.4806  156.6451 H   0  0  0  0  0  0  0  0  0  0  0  0
  151.8908  141.6921  157.0026 H   0  0  0  0  0  0  0  0  0  0  0  0
  151.7597  142.4954  155.4465 H   0  0  0  0  0  0  0  0  0  0  0  0
  149.6365  143.5589  156.4226 H   0  0  0  0  0  0  0  0  0  0  0  0
  152.6934  142.5668  158.4079 H   0  0  0  0  0  0  0  0  0  0  0  0
  153.2730  143.7508  160.5329 H   0  0  0  0  0  0  0  0  0  0  0  0
  151.7246  145.5563  161.3419 H   0  0  0  0  0  0  0  0  0  0  0  0
  149.6694  141.9602  153.9583 H   0  0  0  0  0  0  0  0  0  0  0  0
  148.5460  142.1688  155.2830 H   0  0  0  0  0  0  0  0  0  0  0  0
  149.2480  144.9846  158.1286 H   0  0  0  0  0  0  0  0  0  0  0  0
  1  2  1  0  0  0  0
  1 23  1  0  0  0  0
  1 24  1  0  0  0  0
  1 25  1  0  0  0  0
  2  3  1  0  0  0  0
  2  4  1  0  0  0  0
  2 26  1  0  0  0  0
  3 27  1  0  0  0  0
  3 28  1  0  0  0  0
  3 29  1  0  0  0  0
  4  5  1  0  0  0  0
  4 30  1  0  0  0  0
  5  6  2  0  0  0  0
  5  7  1  0  0  0  0
  7  8  1  0  0  0  0
  7 31  1  0  0  0  0
  7 32  1  0  0  0  0
  8  9  1  0  0  0  0
  8 33  1  0  0  0  0
  8 34  1  0  0  0  0
  9 22  1  0  0  0  0
  9 10  1  0  0  0  0
 10 11  1  0  0  0  0
 10 35  1  0  0  0  0
 10 36  1  0  0  0  0
 11 12  1  0  0  0  0
 11 37  1  0  0  0  0
 11 38  1  0  0  0  0
 12 13  1  0  0  0  0
 13 14  1  0  0  0  0
 13 22  1  0  0  0  0
 13 39  1  0  0  0  0
 14 15  1  0  0  0  0
 14 40  1  0  0  0  0
 14 41  1  0  0  0  0
 15 16  1  0  0  0  0
 15 42  1  0  0  0  0
 16 21  1  0  0  0  0
 16 17  2  0  0  0  0
 17 18  1  0  0  0  0
 17 43  1  0  0  0  0
 18 19  2  0  0  0  0
 18 44  1  0  0  0  0
 19 20  1  0  0  0  0
 19 45  1  0  0  0  0
 20 21  2  0  0  0  0
 21 48  1  0  0  0  0
 22 46  1  0  0  0  0
 22 47  1  0  0  0  0
M  CHG  1  21   1
M  END
> <s_m_source_file>
AV-unprocessed.smi

> <i_m_source_file_index>
652

> <i_lp_mmshare_version>
43012

> <i_f3d_flags>
0

> <s_epik_input>
W0NIM11bQ0hdKFtDSDNdKVtOSF1DKD1PKVtDSDJdW0NIMl1OMVtDSDJdW0NIMl1PW0NASF0oW0NIMl0xKVtDSDJdW05IXWMyW2NIXVtjSF1bY0hdbm4y

> <s_epik_cmdline>
J2VwaWtfcHl0aG9uJywgJy1waCcsICc3LjAnLCAnLXRuJywgJzgnLCAnLW1hJywgJzIwMCcsICctbWV0YWxfYmluZGluZycsICctaW1hZScsICc8aW5maWxlLm1hZT4nLCAnLW9tYWUnLCAnPG91dGZpbGUubWFlPic=

> <r_epik_Ionization_Penalty>
2.70989

> <r_epik_Ionization_Penalty_Charging>
2.3023

> <r_epik_Ionization_Penalty_Neutral>
0.407592

> <r_epik_State_Penalty>
2.65305

> <r_epik_Charging_Adjusted_Penalty>
4.95534

> <i_epik_Tot_Q>
1

> <i_epik_Tot_abs_Q>
1

> <r_epik_Metal_State_Penalty>
2.66064

> <b_epik_Metal_Only>
0

> <s_lp_Force_Field>
OPLS_2005

> <r_lp_Energy>
26.0263

> <b_lp_Chiralities_Consistent>
1

> <s_lp_Variant>
AV-unprocessed.smi:652-11

> <Gold.Version>
5.8.1

> <Gold.Id.Protein>
6NUR|6NUR_protein|mol2

> <Gold.PLP.Fitness>
56.5908

> <Gold.PLP.PLP>
-39.5141

> <Gold.PLP.part.hbond>
-5.2160

> <Gold.PLP.part.metal>
0.0000

> <Gold.PLP.part.buried>
-4.4687

> <Gold.PLP.part.nonpolar>
-31.3810

> <Gold.PLP.part.repulsive>
0.7183

> <Gold.PLP.ligand.clash>
0.0000

> <Gold.PLP.ligand.torsion>
0.5107

> <Gold.PLP.Chemscore.Hbond>
6.0000

> <Gold.PLP.Chemscore.CHOScore>
0.0000

> <Gold.PLP.Chemscore.Metal>
0.0000

> <Gold.Chemscore.Hbonds>
donor molecule, donor type, donor heavy atom, donor atom, acceptor molecule, acceptor atom, score
      L1  H     4    30       P1 10175  1.00
      L1  H    15    42       P1  8028  2.00
      L1  H    21    48       P1  8029  2.00
      P1  H  7989  7998       L1    12  1.00

> <Gold.PLP.Chemscore.Internal.Correction>
0.0981

> <Gold.Rescore>
     Score         DG    S(hbond)    S(metal)    S(lipo)     H(rot)  DE(clash)    DE(int)     intcor
     17.94     -19.07       2.77        0.00      86.76       2.28       0.61       0.52       ----

> <Gold.Chemscore.Fitness>
17.9357

> <Gold.Chemscore.DG>
-19.0680

> <Gold.Chemscore.ZeroCoef>
-5.4800

> <Gold.Chemscore.Hbond>
2.7741

> <Gold.Chemscore.Metal>
0.0000

> <Gold.Chemscore.Lipo>
86.7612

> <Gold.Chemscore.Internal_Hbond>
0.0000

> <Gold.Chemscore.DEClash>
0.6138

> <Gold.Chemscore.DEInternal>
0.5186

> <Gold.Chemscore.Rot>
2.2768

> <Gold.Chemscore.Internal.Correction>
   9.000000E+99

> <Gold.Chemscore.Hbonds>
donor molecule, donor type, donor heavy atom, donor atom, acceptor molecule, acceptor atom, score
      L1  H     4    30       P1 10175  0.81
      L1  H    15    42       P1  8028  0.94
      L1  H    21    48       P1  8029  0.35
      P1  H  7989  7998       L1    12  0.18

> <Gold.Chemscore.Hbond.Weighted>
-9.2656

> <Gold.Chemscore.Metal.Weighted>
-0.0000

> <Gold.Chemscore.Lipo.Weighted>
-10.1511

> <Gold.Chemscore.Internal_Hbond.Weighted>
0.0000

> <Gold.Chemscore.DEClash.Weighted>
0.6138

> <Gold.Chemscore.DEInternal.Weighted>
0.5186

> <Gold.Chemscore.Rot.Weighted>
5.8286

> <Gold.Chemscore.Internal.Correction.Weighted>
   9.000000E+99

> <Gold.Protein.RotatedTorsions>
[ 6907 6896 6895 6894 ] final  168.77 input  -60.11 | X-H torsion
[ 7974 7965 7964 7962 ] final   57.74 input  175.53 | X-H torsion
[ 8008 7997 7996 7995 ] final  108.84 input   59.86 | X-H torsion
[ 10167 10162 10161 10158 ] final  -84.62 input  -65.29 | X-H torsion
[ 10718 10713 10712 10709 ] final -155.23 input   66.30 | X-H torsion
[ 10763 10752 10751 10750 ] final  -32.93 input  -60.55 | X-H torsion
[ 11005 11000 10999 10996 ] final  174.57 input  -57.11 | X-H torsion

> <Gold.Protein.ActiveResidues>
 VAL166  LYS551  ARG553  GLY616  TRP617  ASP618  TYR619  PRO620  LYS621  CYS622 
 ASP623  PHE694  ASN695  SER759  ASP760  ASP761  ALA762  ILE779  LEU786  VAL792 
 PHE793  MET794  SER795  GLU796  ALA797  LYS798  CYS799  TRP800  GLU811  SER814 

> <Gold.Protein.RotatedAtoms>
  151.8423  133.3426  159.3646 H   0  0  0  0  0  0  0  0  0  0  0  0  # atno 6907 bound_to 6896
  150.7231  134.5379  159.5742 H   0  0  0  0  0  0  0  0  0  0  0  0  # atno 6908 bound_to 6896
  152.2855  134.7781  160.0439 H   0  0  0  0  0  0  0  0  0  0  0  0  # atno 6909 bound_to 6896
  145.9257  139.3766  143.0451 H   0  0  0  0  0  0  0  0  0  0  0  0  # atno 7974 bound_to 7965
  156.1934  140.3069  155.9378 H   0  0  0  0  0  0  0  0  0  0  0  0  # atno 8008 bound_to 7997
  155.3121  140.0451  157.3052 H   0  0  0  0  0  0  0  0  0  0  0  0  # atno 8009 bound_to 7997
  154.5480  140.2282  155.8541 H   0  0  0  0  0  0  0  0  0  0  0  0  # atno 8010 bound_to 7997
  140.4115  143.2621  151.9012 H   0  0  0  0  0  0  0  0  0  0  0  0  # atno 10167 bound_to 10162
  156.5101  130.8431  151.2643 H   0  0  0  0  0  0  0  0  0  0  0  0  # atno 10718 bound_to 10713
  153.8219  135.6873  153.4826 H   0  0  0  0  0  0  0  0  0  0  0  0  # atno 10763 bound_to 10752
  153.1564  135.4597  154.9708 H   0  0  0  0  0  0  0  0  0  0  0  0  # atno 10764 bound_to 10752
  154.7924  135.3306  154.7691 H   0  0  0  0  0  0  0  0  0  0  0  0  # atno 10765 bound_to 10752
  140.3527  134.7181  157.4279 H   0  0  0  0  0  0  0  0  0  0  0  0  # atno 11005 bound_to 11000
  145.8492  140.9538  143.0759 LP  0  0  0  0  0  0  0  0  0  0  0  0  # atno 17320 bound_to 7965
  144.6758  140.0384  143.7481 LP  0  0  0  0  0  0  0  0  0  0  0  0  # atno 17321 bound_to 7965
  139.4782  144.5532  151.8354 LP  0  0  0  0  0  0  0  0  0  0  0  0  # atno 17342 bound_to 10162
  140.4633  144.1691  150.5909 LP  0  0  0  0  0  0  0  0  0  0  0  0  # atno 17343 bound_to 10162
  157.7451  130.9952  150.2737 LP  0  0  0  0  0  0  0  0  0  0  0  0  # atno 17370 bound_to 10713
  156.3249  130.3791  149.7542 LP  0  0  0  0  0  0  0  0  0  0  0  0  # atno 17371 bound_to 10713
  140.0690  134.5889  155.8663 LP  0  0  0  0  0  0  0  0  0  0  0  0  # atno 17394 bound_to 11000
  141.2007  133.6614  156.5912 LP  0  0  0  0  0  0  0  0  0  0  0  0  # atno 17395 bound_to 11000

$$$$
