AV-unprocessed.smi:36|AV-procd|sdf|284|dock7
  -GOLD-   2262016 63D 1   1.00000     0.00000
 Structure written by MMmdl.
 64 67  0  0  0  0  0  0  0  0  1 V2000
  145.9505  132.8706  161.7562 C   0  0  0  0  0  0  0  0  0  0  0  0
  145.0896  134.1244  161.5305 C   0  0  0  0  0  0  0  0  0  0  0  0
  144.1806  133.9211  160.3066 C   0  0  0  0  0  0  0  0  0  0  0  0
  144.2281  134.3989  162.7743 C   0  0  0  0  0  0  0  0  0  0  0  0
  146.2257  135.6280  161.2178 Si  0  0  0  0  0  0  0  0  0  0  0  0
  145.2175  137.2262  161.0237 C   0  0  0  0  0  0  0  0  0  0  0  0
  147.4942  135.8319  162.6181 C   0  0  0  0  0  0  0  0  0  0  0  0
  147.0592  135.3508  159.7729 O   0  0  0  0  0  0  0  0  0  0  0  0
  148.0090  134.3202  159.6046 C   0  0  0  0  0  0  0  0  0  0  0  0
  148.1288  133.9940  158.1109 C   0  0  1  0  0  0  0  0  0  0  0  0
  147.4389  134.9631  157.3157 O   0  0  0  0  0  0  0  0  0  0  0  0
  148.2412  135.3866  156.2509 C   0  0  1  0  0  0  0  0  0  0  0  0
  148.8099  136.7310  156.5961 N   0  0  0  0  0  0  0  0  0  0  0  0
  148.5902  137.5171  157.7089 C   0  0  0  0  0  0  0  0  0  0  0  0
  149.2312  138.6551  157.7268 N   0  0  0  0  0  0  0  0  0  0  0  0
  149.9206  138.6719  156.5217 C   0  0  0  0  0  0  0  0  0  0  0  0
  150.7929  139.6027  155.8999 C   0  0  0  0  0  0  0  0  0  0  0  0
  151.1147  140.7582  156.5272 N   0  0  0  0  0  0  0  0  0  0  0  0
  151.4593  140.9533  157.9243 C   0  0  0  0  0  0  0  0  0  0  0  0
  151.5978  140.0096  158.7032 O   0  0  0  0  0  0  0  0  0  0  0  0
  151.7296  142.3687  158.3440 C   0  0  0  0  0  0  0  0  0  0  0  0
  152.1800  142.6439  159.6545 C   0  0  0  0  0  0  0  0  0  0  0  0
  152.4167  143.9710  160.0628 C   0  0  0  0  0  0  0  0  0  0  0  0
  152.1975  145.0343  159.1670 C   0  0  0  0  0  0  0  0  0  0  0  0
  151.7385  144.7701  157.8630 C   0  0  0  0  0  0  0  0  0  0  0  0
  151.5019  143.4435  157.4531 C   0  0  0  0  0  0  0  0  0  0  0  0
  151.2883  139.2751  154.6772 N   0  0  0  0  0  0  0  0  0  0  0  0
  150.9464  138.1193  154.1002 C   0  0  0  0  0  0  0  0  0  0  0  0
  150.1443  137.1595  154.5664 N   0  0  0  0  0  0  0  0  0  0  0  0
  149.6512  137.4775  155.7982 C   0  0  0  0  0  0  0  0  0  0  0  0
  149.3620  134.3525  156.1346 C   0  0  0  0  0  0  0  0  0  0  0  0
  149.5684  133.9736  157.5856 C   0  0  2  0  0  0  0  0  0  0  0  0
  150.1663  132.6983  157.6970 O   0  0  0  0  0  0  0  0  0  0  0  0
  145.3298  131.9928  161.9389 H   0  0  0  0  0  0  0  0  0  0  0  0
  146.6100  132.9908  162.6160 H   0  0  0  0  0  0  0  0  0  0  0  0
  146.5756  132.6559  160.8892 H   0  0  0  0  0  0  0  0  0  0  0  0
  144.7629  133.7112  159.4090 H   0  0  0  0  0  0  0  0  0  0  0  0
  143.5785  134.8086  160.1081 H   0  0  0  0  0  0  0  0  0  0  0  0
  143.4962  133.0853  160.4556 H   0  0  0  0  0  0  0  0  0  0  0  0
  143.5469  133.5714  162.9756 H   0  0  0  0  0  0  0  0  0  0  0  0
  143.6242  135.2981  162.6469 H   0  0  0  0  0  0  0  0  0  0  0  0
  144.8445  134.5398  163.6623 H   0  0  0  0  0  0  0  0  0  0  0  0
  144.6506  137.4542  161.9260 H   0  0  0  0  0  0  0  0  0  0  0  0
  144.5060  137.1548  160.2014 H   0  0  0  0  0  0  0  0  0  0  0  0
  145.8611  138.0818  160.8209 H   0  0  0  0  0  0  0  0  0  0  0  0
  147.0065  135.9527  163.5851 H   0  0  0  0  0  0  0  0  0  0  0  0
  148.1243  136.7075  162.4630 H   0  0  0  0  0  0  0  0  0  0  0  0
  148.1534  134.9672  162.6907 H   0  0  0  0  0  0  0  0  0  0  0  0
  148.9697  134.6553  159.9967 H   0  0  0  0  0  0  0  0  0  0  0  0
  147.7092  133.4419  160.1751 H   0  0  0  0  0  0  0  0  0  0  0  0
  147.6478  133.0361  157.9058 H   0  0  0  0  0  0  0  0  0  0  0  0
  147.6736  135.5518  155.3345 H   0  0  0  0  0  0  0  0  0  0  0  0
  147.9363  137.2263  158.5168 H   0  0  0  0  0  0  0  0  0  0  0  0
  151.0946  141.5905  155.9560 H   0  0  0  0  0  0  0  0  0  0  0  0
  152.3515  141.8387  160.3545 H   0  0  0  0  0  0  0  0  0  0  0  0
  152.7651  144.1733  161.0649 H   0  0  0  0  0  0  0  0  0  0  0  0
  152.3772  146.0519  159.4807 H   0  0  0  0  0  0  0  0  0  0  0  0
  151.5647  145.5862  157.1773 H   0  0  0  0  0  0  0  0  0  0  0  0
  151.1400  143.2641  156.4513 H   0  0  0  0  0  0  0  0  0  0  0  0
  151.3795  137.9372  153.1277 H   0  0  0  0  0  0  0  0  0  0  0  0
  148.9880  133.5066  155.5556 H   0  0  0  0  0  0  0  0  0  0  0  0
  150.2540  134.7457  155.6471 H   0  0  0  0  0  0  0  0  0  0  0  0
  150.1820  134.7226  158.0887 H   0  0  0  0  0  0  0  0  0  0  0  0
  150.1893  132.3031  156.8383 H   0  0  0  0  0  0  0  0  0  0  0  0
  1  2  1  0  0  0  0
  1 34  1  0  0  0  0
  1 35  1  0  0  0  0
  1 36  1  0  0  0  0
  2  3  1  0  0  0  0
  2  4  1  0  0  0  0
  2  5  1  0  0  0  0
  3 37  1  0  0  0  0
  3 38  1  0  0  0  0
  3 39  1  0  0  0  0
  4 40  1  0  0  0  0
  4 41  1  0  0  0  0
  4 42  1  0  0  0  0
  5  6  1  0  0  0  0
  5  7  1  0  0  0  0
  5  8  1  0  0  0  0
  6 43  1  0  0  0  0
  6 44  1  0  0  0  0
  6 45  1  0  0  0  0
  7 46  1  0  0  0  0
  7 47  1  0  0  0  0
  7 48  1  0  0  0  0
  8  9  1  0  0  0  0
  9 10  1  0  0  0  0
  9 49  1  0  0  0  0
  9 50  1  0  0  0  0
 10 32  1  0  0  0  0
 10 11  1  0  0  0  0
 10 51  1  0  0  0  0
 11 12  1  0  0  0  0
 12 13  1  0  0  0  0
 12 31  1  0  0  0  0
 12 52  1  0  0  0  0
 13 30  1  0  0  0  0
 13 14  1  0  0  0  0
 14 15  2  0  0  0  0
 14 53  1  0  0  0  0
 15 16  1  0  0  0  0
 16 30  2  0  0  0  0
 16 17  1  0  0  0  0
 17 18  1  0  0  0  0
 17 27  2  0  0  0  0
 18 19  1  0  0  0  0
 18 54  1  0  0  0  0
 19 20  2  0  0  0  0
 19 21  1  0  0  0  0
 21 26  1  0  0  0  0
 21 22  2  0  0  0  0
 22 23  1  0  0  0  0
 22 55  1  0  0  0  0
 23 24  2  0  0  0  0
 23 56  1  0  0  0  0
 24 25  1  0  0  0  0
 24 57  1  0  0  0  0
 25 26  2  0  0  0  0
 25 58  1  0  0  0  0
 26 59  1  0  0  0  0
 27 28  1  0  0  0  0
 28 29  2  0  0  0  0
 28 60  1  0  0  0  0
 29 30  1  0  0  0  0
 31 32  1  0  0  0  0
 31 61  1  0  0  0  0
 31 62  1  0  0  0  0
 32 33  1  0  0  0  0
 32 63  1  0  0  0  0
 33 64  1  0  0  0  0
M  END
> <s_m_source_file>
AV-unprocessed.smi

> <i_m_source_file_index>
36

> <i_lp_mmshare_version>
43012

> <i_f3d_flags>
0

> <s_epik_input>
W0NIM11DKFtDSDNdKShbQ0gzXSlbU2ldKFtDSDNdKShbQ0gzXSlPW0NIMl1bQ0BASF0xT1tDQEhdKFtDSDJdW0NASF0xW09IXSluKFtjSF1uMiljKGMyMyluW2NIXW5jM1tOSF1DKD1PKWM0W2NIXVtjSF1bY0hdW2NIXVtjSF00

> <s_epik_cmdline>
J2VwaWtfcHl0aG9uJywgJy1waCcsICc3LjAnLCAnLXRuJywgJzgnLCAnLW1hJywgJzIwMCcsICctbWV0YWxfYmluZGluZycsICctaW1hZScsICc8aW5maWxlLm1hZT4nLCAnLW9tYWUnLCAnPG91dGZpbGUubWFlPic=

> <r_lp_tautomer_probability>
1

> <r_epik_Ionization_Penalty>
0.00150433

> <r_epik_Ionization_Penalty_Charging>
0

> <r_epik_Ionization_Penalty_Neutral>
0.00150433

> <r_epik_State_Penalty>
0.00724046

> <r_epik_Charging_Adjusted_Penalty>
0.00724046

> <i_epik_Tot_Q>
0

> <i_epik_Tot_abs_Q>
0

> <r_epik_Metal_State_Penalty>
0.323355

> <b_epik_Metal_Only>
0

> <s_epik_Chemistry_Notes>
This compound contains an acetal/aminal-like group ( X-CH(R)-Y where X, Y are N, S, or O) that may be acid/base labile, releasing an aldehyde.

> <s_lp_Force_Field>
OPLS_2005

> <r_lp_Energy>
33.6094

> <b_lp_Chiralities_Consistent>
1

> <s_lp_Variant>
AV-unprocessed.smi:36-6

> <Gold.Version>
5.8.1

> <Gold.Id.Protein>
6NUR|6NUR_protein|mol2

> <Gold.PLP.Fitness>
51.9160

> <Gold.PLP.PLP>
-46.7909

> <Gold.PLP.part.hbond>
-1.9859

> <Gold.PLP.part.metal>
0.0000

> <Gold.PLP.part.buried>
-7.0985

> <Gold.PLP.part.nonpolar>
-39.1907

> <Gold.PLP.part.repulsive>
0.6839

> <Gold.PLP.ligand.clash>
0.0000

> <Gold.PLP.ligand.torsion>
1.2752

> <Gold.PLP.Chemscore.Hbond>
1.5281

> <Gold.PLP.Chemscore.CHOScore>
0.8644

> <Gold.PLP.Chemscore.Metal>
0.0000

> <Gold.Chemscore.Hbonds>
donor molecule, donor type, donor heavy atom, donor atom, acceptor molecule, acceptor atom, score
      P1  H  6896  6908       L1    33  0.45
      P1  H  7989  7998       L1    27  1.00
      L1  C    28    60       P1  7949  0.95

> <Gold.PLP.Chemscore.Internal.Correction>
0.4981

> <Gold.Rescore>
     Score         DG    S(hbond)    S(metal)    S(lipo)     H(rot)  DE(clash)    DE(int)     intcor
     14.62     -16.54       1.00        0.00     125.26       2.70       0.55       1.37       ----

> <Gold.Chemscore.Fitness>
14.6210

> <Gold.Chemscore.DG>
-16.5384

> <Gold.Chemscore.ZeroCoef>
-5.4800

> <Gold.Chemscore.Hbond>
0.9955

> <Gold.Chemscore.Metal>
0.0000

> <Gold.Chemscore.Lipo>
125.2631

> <Gold.Chemscore.Internal_Hbond>
0.0000

> <Gold.Chemscore.DEClash>
0.5456

> <Gold.Chemscore.DEInternal>
1.3718

> <Gold.Chemscore.Rot>
2.7041

> <Gold.Chemscore.Internal.Correction>
   9.000000E+99

> <Gold.Chemscore.Hbonds>
donor molecule, donor type, donor heavy atom, donor atom, acceptor molecule, acceptor atom, score
      P1  H  6896  6908       L1    33  0.01
      P1  H  7989  7998       L1    27  0.80

> <Gold.Chemscore.Hbond.Weighted>
-3.3251

> <Gold.Chemscore.Metal.Weighted>
-0.0000

> <Gold.Chemscore.Lipo.Weighted>
-14.6558

> <Gold.Chemscore.Internal_Hbond.Weighted>
0.0000

> <Gold.Chemscore.DEClash.Weighted>
0.5456

> <Gold.Chemscore.DEInternal.Weighted>
1.3718

> <Gold.Chemscore.Rot.Weighted>
6.9225

> <Gold.Chemscore.Internal.Correction.Weighted>
   9.000000E+99

> <Gold.Protein.RotatedTorsions>
[ 6907 6896 6895 6894 ] final   80.81 input  -60.11 | X-H torsion
[ 7974 7965 7964 7962 ] final  -85.13 input  175.53 | X-H torsion
[ 8008 7997 7996 7995 ] final  132.10 input   59.86 | X-H torsion
[ 10167 10162 10161 10158 ] final -150.19 input  -65.29 | X-H torsion
[ 10718 10713 10712 10709 ] final   63.14 input   66.30 | X-H torsion
[ 10763 10752 10751 10750 ] final  -85.17 input  -60.55 | X-H torsion
[ 11005 11000 10999 10996 ] final -139.51 input  -57.11 | X-H torsion

> <Gold.Protein.ActiveResidues>
 VAL166  LYS551  ARG553  GLY616  TRP617  ASP618  TYR619  PRO620  LYS621  CYS622 
 ASP623  PHE694  ASN695  SER759  ASP760  ASP761  ALA762  ILE779  LEU786  VAL792 
 PHE793  MET794  SER795  GLU796  ALA797  LYS798  CYS799  TRP800  GLU811  SER814 

> <Gold.Protein.RotatedAtoms>
  152.5247  134.3300  159.9179 H   0  0  0  0  0  0  0  0  0  0  0  0  # atno 6907 bound_to 6896
  151.3249  133.4018  159.2665 H   0  0  0  0  0  0  0  0  0  0  0  0  # atno 6908 bound_to 6896
  150.9928  134.9276  159.7967 H   0  0  0  0  0  0  0  0  0  0  0  0  # atno 6909 bound_to 6896
  145.4974  140.9549  143.1778 H   0  0  0  0  0  0  0  0  0  0  0  0  # atno 7974 bound_to 7965
  156.2978  140.2555  156.3035 H   0  0  0  0  0  0  0  0  0  0  0  0  # atno 8008 bound_to 7997
  154.9395  140.0396  157.2108 H   0  0  0  0  0  0  0  0  0  0  0  0  # atno 8009 bound_to 7997
  154.8140  140.2849  155.5837 H   0  0  0  0  0  0  0  0  0  0  0  0  # atno 8010 bound_to 7997
  139.7376  143.8711  152.2553 H   0  0  0  0  0  0  0  0  0  0  0  0  # atno 10167 bound_to 10162
  157.5950  130.9089  149.9677 H   0  0  0  0  0  0  0  0  0  0  0  0  # atno 10718 bound_to 10713
  154.6080  135.5494  153.7443 H   0  0  0  0  0  0  0  0  0  0  0  0  # atno 10763 bound_to 10752
  153.0183  135.6382  154.1619 H   0  0  0  0  0  0  0  0  0  0  0  0  # atno 10764 bound_to 10752
  154.1558  135.2900  155.3103 H   0  0  0  0  0  0  0  0  0  0  0  0  # atno 10765 bound_to 10752
  140.8512  134.2283  157.4759 H   0  0  0  0  0  0  0  0  0  0  0  0  # atno 11005 bound_to 11000
  144.7799  139.6548  143.7159 LP  0  0  0  0  0  0  0  0  0  0  0  0  # atno 17320 bound_to 7965
  146.2247  139.5700  142.9595 LP  0  0  0  0  0  0  0  0  0  0  0  0  # atno 17321 bound_to 7965
  139.8653  144.7096  150.9051 LP  0  0  0  0  0  0  0  0  0  0  0  0  # atno 17342 bound_to 10162
  140.7781  143.3783  151.1522 LP  0  0  0  0  0  0  0  0  0  0  0  0  # atno 17343 bound_to 10162
  156.1011  130.3656  150.0216 LP  0  0  0  0  0  0  0  0  0  0  0  0  # atno 17370 bound_to 10713
  156.8332  130.9399  151.3636 LP  0  0  0  0  0  0  0  0  0  0  0  0  # atno 17371 bound_to 10713
  139.8704  134.9684  156.4631 LP  0  0  0  0  0  0  0  0  0  0  0  0  # atno 17394 bound_to 11000
  140.8787  133.7934  155.9443 LP  0  0  0  0  0  0  0  0  0  0  0  0  # atno 17395 bound_to 11000

$$$$
