AV-unprocessed.smi:3036|AV-procd|sdf|11584|dock3
  -GOLD-   2272016553D 1   1.00000     0.00000
 Structure written by MMmdl.
 41 42  0  0  0  0  0  0  0  0  1 V2000
  154.8064  140.4510  160.9379 C   0  0  0  0  0  0  0  0  0  0  0  0
  153.7929  141.2781  160.1274 C   0  0  2  0  0  0  0  0  0  0  0  0
  153.0435  142.2739  161.0358 C   0  0  0  0  0  0  0  0  0  0  0  0
  152.5966  143.4594  160.3246 N   0  0  0  0  0  0  0  0  0  0  0  0
  152.7757  143.7790  158.9949 C   0  0  0  0  0  0  0  0  0  0  0  0
  152.1746  144.9864  158.7824 C   0  0  0  0  0  0  0  0  0  0  0  0
  151.6427  145.3280  160.0573 C   0  0  0  0  0  0  0  0  0  0  0  0
  151.8933  144.4105  160.9772 N   0  0  0  0  0  0  0  0  0  0  0  0
  152.8209  140.3914  159.4961 N   0  0  0  0  0  0  0  0  0  0  0  0
  152.3636  140.9120  158.2126 C   0  0  0  0  0  0  0  0  0  0  0  0
  151.8486  139.7805  157.2987 C   0  0  0  0  0  0  0  0  0  0  0  0
  151.2496  140.2430  155.9548 C   0  0  0  0  0  0  0  0  0  0  0  0
  151.7210  139.8022  154.9050 O   0  0  0  0  0  0  0  0  0  0  0  0
  150.2235  141.1282  155.9633 N   0  0  0  0  0  0  0  0  0  0  0  0
  149.6435  141.6694  157.1965 C   0  0  0  0  0  0  0  0  0  0  0  0
  148.1920  141.1713  157.3133 C   0  0  0  0  0  0  0  0  0  0  0  0
  147.4542  141.5773  156.1635 O   0  0  0  0  0  0  0  0  0  0  0  0
  148.0067  141.0867  154.9447 C   0  0  0  0  0  0  0  0  0  0  0  0
  149.4585  141.5774  154.7949 C   0  0  0  0  0  0  0  0  0  0  0  0
  155.5077  141.1023  161.4600 H   0  0  0  0  0  0  0  0  0  0  0  0
  155.3971  139.7897  160.3045 H   0  0  0  0  0  0  0  0  0  0  0  0
  154.3075  139.8353  161.6876 H   0  0  0  0  0  0  0  0  0  0  0  0
  154.3233  141.8439  159.3599 H   0  0  0  0  0  0  0  0  0  0  0  0
  152.1800  141.7960  161.5011 H   0  0  0  0  0  0  0  0  0  0  0  0
  153.6925  142.5996  161.8501 H   0  0  0  0  0  0  0  0  0  0  0  0
  153.3112  143.1286  158.3188 H   0  0  0  0  0  0  0  0  0  0  0  0
  152.1207  145.5403  157.8571 H   0  0  0  0  0  0  0  0  0  0  0  0
  151.0839  146.2082  160.3394 H   0  0  0  0  0  0  0  0  0  0  0  0
  152.0215  140.2919  160.1053 H   0  0  0  0  0  0  0  0  0  0  0  0
  151.5619  141.6305  158.3880 H   0  0  0  0  0  0  0  0  0  0  0  0
  153.1652  141.4508  157.7081 H   0  0  0  0  0  0  0  0  0  0  0  0
  152.6726  139.0925  157.1060 H   0  0  0  0  0  0  0  0  0  0  0  0
  151.0831  139.2184  157.8346 H   0  0  0  0  0  0  0  0  0  0  0  0
  150.2022  141.3891  158.0902 H   0  0  0  0  0  0  0  0  0  0  0  0
  149.6656  142.7595  157.1578 H   0  0  0  0  0  0  0  0  0  0  0  0
  148.1601  140.0852  157.4137 H   0  0  0  0  0  0  0  0  0  0  0  0
  147.7189  141.5888  158.2022 H   0  0  0  0  0  0  0  0  0  0  0  0
  147.9614  139.9964  154.9270 H   0  0  0  0  0  0  0  0  0  0  0  0
  147.3992  141.4450  154.1135 H   0  0  0  0  0  0  0  0  0  0  0  0
  149.4828  142.6671  154.7483 H   0  0  0  0  0  0  0  0  0  0  0  0
  149.8569  141.2295  153.8439 H   0  0  0  0  0  0  0  0  0  0  0  0
  1  2  1  0  0  0  0
  1 20  1  0  0  0  0
  1 21  1  0  0  0  0
  1 22  1  0  0  0  0
  2  3  1  0  0  0  0
  2  9  1  0  0  0  0
  2 23  1  0  0  0  0
  3  4  1  0  0  0  0
  3 24  1  0  0  0  0
  3 25  1  0  0  0  0
  4  8  1  0  0  0  0
  4  5  1  0  0  0  0
  5  6  2  0  0  0  0
  5 26  1  0  0  0  0
  6  7  1  0  0  0  0
  6 27  1  0  0  0  0
  7  8  2  0  0  0  0
  7 28  1  0  0  0  0
  9 10  1  0  0  0  0
  9 29  1  0  0  0  0
 10 11  1  0  0  0  0
 10 30  1  0  0  0  0
 10 31  1  0  0  0  0
 11 12  1  0  0  0  0
 11 32  1  0  0  0  0
 11 33  1  0  0  0  0
 12 13  2  0  0  0  0
 12 14  1  0  0  0  0
 14 19  1  0  0  0  0
 14 15  1  0  0  0  0
 15 16  1  0  0  0  0
 15 34  1  0  0  0  0
 15 35  1  0  0  0  0
 16 17  1  0  0  0  0
 16 36  1  0  0  0  0
 16 37  1  0  0  0  0
 17 18  1  0  0  0  0
 18 19  1  0  0  0  0
 18 38  1  0  0  0  0
 18 39  1  0  0  0  0
 19 40  1  0  0  0  0
 19 41  1  0  0  0  0
M  END
> <s_m_source_file>
AV-unprocessed.smi

> <i_m_source_file_index>
3036

> <i_lp_mmshare_version>
43012

> <i_f3d_flags>
0

> <s_epik_input>
bjFbY0hdW2NIXVtjSF1uMVtDSDJdW0NAQEhdKFtDSDNdKVtOSF1bQ0gyXVtDSDJdQyg9TylOMltDSDJdW0NIMl1PW0NIMl1bQ0gyXTI=

> <s_epik_cmdline>
J2VwaWtfcHl0aG9uJywgJy1waCcsICc3LjAnLCAnLXRuJywgJzgnLCAnLW1hJywgJzIwMCcsICctbWV0YWxfYmluZGluZycsICctaW1hZScsICc8aW5maWxlLm1hZT4nLCAnLW9tYWUnLCAnPG91dGZpbGUubWFlPic=

> <r_lp_tautomer_probability>
1

> <r_epik_Ionization_Penalty>
2.55703

> <r_epik_Ionization_Penalty_Charging>
0

> <r_epik_Ionization_Penalty_Neutral>
2.55703

> <r_epik_State_Penalty>
2.726

> <r_epik_Charging_Adjusted_Penalty>
2.726

> <i_epik_Tot_Q>
0

> <i_epik_Tot_abs_Q>
0

> <r_epik_Metal_State_Penalty>
2.72597

> <b_epik_Metal_Only>
0

> <s_lp_Force_Field>
OPLS_2005

> <r_lp_Energy>
22.7119

> <b_lp_Chiralities_Consistent>
1

> <s_lp_Variant>
AV-unprocessed.smi:3036-3

> <Gold.Version>
5.8.1

> <Gold.Id.Protein>
6NUR|6NUR_protein|mol2

> <Gold.PLP.Fitness>
47.9427

> <Gold.PLP.PLP>
-46.6285

> <Gold.PLP.part.hbond>
-1.0000

> <Gold.PLP.part.metal>
0.0000

> <Gold.PLP.part.buried>
-5.5566

> <Gold.PLP.part.nonpolar>
-40.1758

> <Gold.PLP.part.repulsive>
0.3076

> <Gold.PLP.ligand.clash>
0.0000

> <Gold.PLP.ligand.torsion>
0.8939

> <Gold.PLP.Chemscore.Hbond>
1.0000

> <Gold.PLP.Chemscore.CHOScore>
0.0000

> <Gold.PLP.Chemscore.Metal>
0.0000

> <Gold.Chemscore.Hbonds>
donor molecule, donor type, donor heavy atom, donor atom, acceptor molecule, acceptor atom, score
      P1  H  7989  7998       L1    13  1.00

> <Gold.PLP.Chemscore.Internal.Correction>
0.1019

> <Gold.Rescore>
     Score         DG    S(hbond)    S(metal)    S(lipo)     H(rot)  DE(clash)    DE(int)     intcor
     14.47     -15.55       0.94        0.00     102.74       1.99       0.02       1.06       ----

> <Gold.Chemscore.Fitness>
14.4715

> <Gold.Chemscore.DG>
-15.5535

> <Gold.Chemscore.ZeroCoef>
-5.4800

> <Gold.Chemscore.Hbond>
0.9422

> <Gold.Chemscore.Metal>
0.0000

> <Gold.Chemscore.Lipo>
102.7429

> <Gold.Chemscore.Internal_Hbond>
0.0000

> <Gold.Chemscore.DEClash>
0.0240

> <Gold.Chemscore.DEInternal>
1.0580

> <Gold.Chemscore.Rot>
1.9900

> <Gold.Chemscore.Internal.Correction>
   9.000000E+99

> <Gold.Chemscore.Hbonds>
donor molecule, donor type, donor heavy atom, donor atom, acceptor molecule, acceptor atom, score
      P1  H  7989  7998       L1    13  0.91

> <Gold.Chemscore.Hbond.Weighted>
-3.1470

> <Gold.Chemscore.Metal.Weighted>
-0.0000

> <Gold.Chemscore.Lipo.Weighted>
-12.0209

> <Gold.Chemscore.Internal_Hbond.Weighted>
0.0000

> <Gold.Chemscore.DEClash.Weighted>
0.0240

> <Gold.Chemscore.DEInternal.Weighted>
1.0580

> <Gold.Chemscore.Rot.Weighted>
5.0944

> <Gold.Chemscore.Internal.Correction.Weighted>
   9.000000E+99

> <Gold.Protein.RotatedTorsions>
[ 6907 6896 6895 6894 ] final  -91.63 input  -60.11 | X-H torsion
[ 7974 7965 7964 7962 ] final  -73.17 input  175.53 | X-H torsion
[ 8008 7997 7996 7995 ] final  -18.90 input   59.86 | X-H torsion
[ 10167 10162 10161 10158 ] final -118.34 input  -65.29 | X-H torsion
[ 10718 10713 10712 10709 ] final  -12.33 input   66.30 | X-H torsion
[ 10763 10752 10751 10750 ] final  -97.79 input  -60.55 | X-H torsion
[ 11005 11000 10999 10996 ] final  131.65 input  -57.11 | X-H torsion

> <Gold.Protein.ActiveResidues>
 VAL166  LYS551  ARG553  GLY616  TRP617  ASP618  TYR619  PRO620  LYS621  CYS622 
 ASP623  PHE694  ASN695  SER759  ASP760  ASP761  ALA762  ILE779  LEU786  VAL792 
 PHE793  MET794  SER795  GLU796  ALA797  LYS798  CYS799  TRP800  GLU811  SER814 

> <Gold.Protein.RotatedAtoms>
  150.6895  134.2247  159.4410 H   0  0  0  0  0  0  0  0  0  0  0  0  # atno 6907 bound_to 6896
  152.0201  134.9825  160.0579 H   0  0  0  0  0  0  0  0  0  0  0  0  # atno 6908 bound_to 6896
  152.1405  133.4426  159.4801 H   0  0  0  0  0  0  0  0  0  0  0  0  # atno 6909 bound_to 6896
  145.6557  140.9269  143.0961 H   0  0  0  0  0  0  0  0  0  0  0  0  # atno 7974 bound_to 7965
  154.4873  140.2103  155.9626 H   0  0  0  0  0  0  0  0  0  0  0  0  # atno 8008 bound_to 7997
  156.1255  140.3206  155.8240 H   0  0  0  0  0  0  0  0  0  0  0  0  # atno 8009 bound_to 7997
  155.4391  140.0509  157.3003 H   0  0  0  0  0  0  0  0  0  0  0  0  # atno 8010 bound_to 7997
  140.0586  143.4990  152.2044 H   0  0  0  0  0  0  0  0  0  0  0  0  # atno 10167 bound_to 10162
  156.6462  130.4942  149.6077 H   0  0  0  0  0  0  0  0  0  0  0  0  # atno 10718 bound_to 10713
  154.7358  135.5033  153.9039 H   0  0  0  0  0  0  0  0  0  0  0  0  # atno 10763 bound_to 10752
  153.0994  135.6681  153.9710 H   0  0  0  0  0  0  0  0  0  0  0  0  # atno 10764 bound_to 10752
  153.9500  135.3058  155.3418 H   0  0  0  0  0  0  0  0  0  0  0  0  # atno 10765 bound_to 10752
  139.9742  134.9568  156.9468 H   0  0  0  0  0  0  0  0  0  0  0  0  # atno 11005 bound_to 11000
  144.7107  139.8383  143.7415 LP  0  0  0  0  0  0  0  0  0  0  0  0  # atno 17320 bound_to 7965
  146.1167  139.4179  143.0254 LP  0  0  0  0  0  0  0  0  0  0  0  0  # atno 17321 bound_to 7965
  139.5908  144.7549  151.3406 LP  0  0  0  0  0  0  0  0  0  0  0  0  # atno 17342 bound_to 10162
  140.7183  143.7206  150.7698 LP  0  0  0  0  0  0  0  0  0  0  0  0  # atno 17343 bound_to 10162
  156.2120  130.6684  151.1279 LP  0  0  0  0  0  0  0  0  0  0  0  0  # atno 17370 bound_to 10713
  157.7155  131.0712  150.6342 LP  0  0  0  0  0  0  0  0  0  0  0  0  # atno 17371 bound_to 10713
  140.5228  134.0890  155.7296 LP  0  0  0  0  0  0  0  0  0  0  0  0  # atno 17394 bound_to 11000
  141.1421  133.9120  157.2302 LP  0  0  0  0  0  0  0  0  0  0  0  0  # atno 17395 bound_to 11000

$$$$
