AV-unprocessed.smi:102|AV-procd|sdf|958|dock7
  -GOLD-   2262017493D 1   1.00000     0.00000
 Structure written by MMmdl.
 44 45  0  0  0  0  0  0  0  0  1 V2000
  146.3738  136.1371  161.7870 C   0  0  0  0  0  0  0  0  0  0  0  0
  147.7351  136.3592  161.1419 C   0  0  0  0  0  0  0  0  0  0  0  0
  148.6785  136.8303  161.7777 O   0  0  0  0  0  0  0  0  0  0  0  0
  147.7562  135.9857  159.8491 O   0  0  0  0  0  0  0  0  0  0  0  0
  148.9578  135.5094  159.2591 C   0  0  0  0  0  0  0  0  0  0  0  0
  149.4417  136.4557  158.1495 C   0  0  1  0  0  0  0  0  0  0  0  0
  149.9389  137.6696  158.7049 O   0  0  0  0  0  0  0  0  0  0  0  0
  150.9667  138.1856  157.9135 C   0  0  1  0  0  0  0  0  0  0  0  0
  152.1799  138.4172  158.7828 N   0  0  0  0  0  0  0  0  0  0  0  0
  152.7418  137.3880  159.5276 C   0  0  0  0  0  0  0  0  0  0  0  0
  153.8356  137.5557  160.3076 C   0  0  0  0  0  0  0  0  0  0  0  0
  154.3236  136.5121  160.9999 F   0  0  0  0  0  0  0  0  0  0  0  0
  154.4932  138.8560  160.3979 C   0  0  0  0  0  0  0  0  0  0  0  0
  155.4853  139.1072  161.0788 O   0  0  0  0  0  0  0  0  0  0  0  0
  153.9029  139.8565  159.6201 N   0  0  0  0  0  0  0  0  0  0  0  0
  152.7778  139.6967  158.8093 C   0  0  0  0  0  0  0  0  0  0  0  0
  152.3532  140.6473  158.1542 O   0  0  0  0  0  0  0  0  0  0  0  0
  151.2933  137.1552  156.8244 C   0  0  2  0  0  0  0  0  0  0  0  0
  150.6981  137.5599  155.5950 O   0  0  0  0  0  0  0  0  0  0  0  0
  151.1988  138.6000  154.9072 C   0  0  0  0  0  0  0  0  0  0  0  0
  150.1724  139.2225  153.9704 C   0  0  0  0  0  0  0  0  0  0  0  0
  152.3451  139.0407  154.9882 O   0  0  0  0  0  0  0  0  0  0  0  0
  150.6325  135.8982  157.3738 C   0  0  2  0  0  0  0  0  0  0  0  0
  150.2305  134.9945  156.3508 O   0  0  0  0  0  0  0  0  0  0  0  0
  150.1648  133.6760  156.6034 C   0  0  0  0  0  0  0  0  0  0  0  0
  150.0684  132.8448  155.3312 C   0  0  0  0  0  0  0  0  0  0  0  0
  150.1866  133.1497  157.7161 O   0  0  0  0  0  0  0  0  0  0  0  0
  154.3300  140.7712  159.6438 H   0  0  0  0  0  0  0  0  0  0  0  0
  146.1208  135.0768  161.7801 H   0  0  0  0  0  0  0  0  0  0  0  0
  145.6024  136.6823  161.2427 H   0  0  0  0  0  0  0  0  0  0  0  0
  146.3787  136.4846  162.8205 H   0  0  0  0  0  0  0  0  0  0  0  0
  149.7365  135.3424  160.0047 H   0  0  0  0  0  0  0  0  0  0  0  0
  148.7357  134.5352  158.8235 H   0  0  0  0  0  0  0  0  0  0  0  0
  148.6310  136.6944  157.4587 H   0  0  0  0  0  0  0  0  0  0  0  0
  150.6583  139.1609  157.5324 H   0  0  0  0  0  0  0  0  0  0  0  0
  152.3019  136.4023  159.4919 H   0  0  0  0  0  0  0  0  0  0  0  0
  152.3711  137.0170  156.7222 H   0  0  0  0  0  0  0  0  0  0  0  0
  149.6119  138.4468  153.4483 H   0  0  0  0  0  0  0  0  0  0  0  0
  150.6642  139.8511  153.2277 H   0  0  0  0  0  0  0  0  0  0  0  0
  149.4711  139.8376  154.5341 H   0  0  0  0  0  0  0  0  0  0  0  0
  151.3101  135.4118  158.0773 H   0  0  0  0  0  0  0  0  0  0  0  0
  149.3530  133.2882  154.6381 H   0  0  0  0  0  0  0  0  0  0  0  0
  149.7423  131.8301  155.5609 H   0  0  0  0  0  0  0  0  0  0  0  0
  151.0409  132.7928  154.8415 H   0  0  0  0  0  0  0  0  0  0  0  0
  1  2  1  0  0  0  0
  1 29  1  0  0  0  0
  1 30  1  0  0  0  0
  1 31  1  0  0  0  0
  2  3  2  0  0  0  0
  2  4  1  0  0  0  0
  4  5  1  0  0  0  0
  5  6  1  0  0  0  0
  5 32  1  0  0  0  0
  5 33  1  0  0  0  0
  6 23  1  0  0  0  0
  6  7  1  0  0  0  0
  6 34  1  0  0  0  0
  7  8  1  0  0  0  0
  8  9  1  0  0  0  0
  8 18  1  0  0  0  0
  8 35  1  0  0  0  0
  9 16  1  0  0  0  0
  9 10  1  0  0  0  0
 10 11  2  0  0  0  0
 10 36  1  0  0  0  0
 11 12  1  0  0  0  0
 11 13  1  0  0  0  0
 13 14  2  0  0  0  0
 13 15  1  0  0  0  0
 15 28  1  0  0  0  0
 15 16  1  0  0  0  0
 16 17  2  0  0  0  0
 18 19  1  0  0  0  0
 18 23  1  0  0  0  0
 18 37  1  0  0  0  0
 19 20  1  0  0  0  0
 20 21  1  0  0  0  0
 20 22  2  0  0  0  0
 21 38  1  0  0  0  0
 21 39  1  0  0  0  0
 21 40  1  0  0  0  0
 23 24  1  0  0  0  0
 23 41  1  0  0  0  0
 24 25  1  0  0  0  0
 25 26  1  0  0  0  0
 25 27  2  0  0  0  0
 26 42  1  0  0  0  0
 26 43  1  0  0  0  0
 26 44  1  0  0  0  0
M  END
> <s_m_source_file>
AV-unprocessed.smi

> <i_m_source_file_index>
102

> <i_lp_mmshare_version>
43012

> <i_f3d_flags>
0

> <s_epik_input>
W0NIM11DKD1PKU9bQ0gyXVtDQEBIXTFPW0NASF0oW0NAQEhdKE9DKD1PKVtDSDNdKVtDQEhdMU9DKD1PKVtDSDNdKW4yW2NIXWMoRiljKD1PKVtuSF1jMj1P

> <s_epik_cmdline>
J2VwaWtfcHl0aG9uJywgJy1waCcsICc3LjAnLCAnLXRuJywgJzgnLCAnLW1hJywgJzIwMCcsICctbWV0YWxfYmluZGluZycsICctaW1hZScsICc8aW5maWxlLm1hZT4nLCAnLW9tYWUnLCAnPG91dGZpbGUubWFlPic=

> <r_lp_tautomer_probability>
0.999537

> <r_epik_Ionization_Penalty>
0.058267

> <r_epik_Ionization_Penalty_Charging>
0.058267

> <r_epik_Ionization_Penalty_Neutral>
6.57791e-16

> <r_epik_State_Penalty>
0.0503774

> <r_epik_Charging_Adjusted_Penalty>
0.108644

> <i_epik_Tot_Q>
0

> <i_epik_Tot_abs_Q>
0

> <r_epik_Metal_State_Penalty>
2.6644

> <b_epik_Metal_Only>
0

> <s_epik_Chemistry_Notes>
This compound has an ester and may undergo hydrolysis at high or low pH. This compound contains an acetal/aminal-like group ( X-CH(R)-Y where X, Y are N, S, or O) that may be acid/base labile, releasing an aldehyde.

> <s_lp_Force_Field>
OPLS_2005

> <r_lp_Energy>
14.1022

> <b_lp_Chiralities_Consistent>
1

> <s_lp_Variant>
AV-unprocessed.smi:102-14

> <Gold.Version>
5.8.1

> <Gold.Id.Protein>
6NUR|6NUR_protein|mol2

> <Gold.PLP.Fitness>
39.3742

> <Gold.PLP.PLP>
-33.7471

> <Gold.PLP.part.hbond>
-3.4845

> <Gold.PLP.part.metal>
0.0000

> <Gold.PLP.part.buried>
-8.0810

> <Gold.PLP.part.nonpolar>
-23.7548

> <Gold.PLP.part.repulsive>
0.1537

> <Gold.PLP.ligand.clash>
0.0000

> <Gold.PLP.ligand.torsion>
1.7365

> <Gold.PLP.Chemscore.Hbond>
2.9913

> <Gold.PLP.Chemscore.CHOScore>
0.0000

> <Gold.PLP.Chemscore.Metal>
0.0000

> <Gold.Chemscore.Hbonds>
donor molecule, donor type, donor heavy atom, donor atom, acceptor molecule, acceptor atom, score
      P1  H  6896  6908       L1    27  1.00
      P1  H  6931  6943       L1     3  0.83

> <Gold.PLP.Chemscore.Internal.Correction>
0.1263

> <Gold.Rescore>
     Score         DG    S(hbond)    S(metal)    S(lipo)     H(rot)  DE(clash)    DE(int)     intcor
      8.20      -9.86       2.96        0.00      41.60       4.05       0.24       1.42       ----

> <Gold.Chemscore.Fitness>
8.1983

> <Gold.Chemscore.DG>
-9.8576

> <Gold.Chemscore.ZeroCoef>
-5.4800

> <Gold.Chemscore.Hbond>
2.9592

> <Gold.Chemscore.Metal>
0.0000

> <Gold.Chemscore.Lipo>
41.5980

> <Gold.Chemscore.Internal_Hbond>
0.0000

> <Gold.Chemscore.DEClash>
0.2386

> <Gold.Chemscore.DEInternal>
1.4207

> <Gold.Chemscore.Rot>
4.0520

> <Gold.Chemscore.Internal.Correction>
   9.000000E+99

> <Gold.Chemscore.Hbonds>
donor molecule, donor type, donor heavy atom, donor atom, acceptor molecule, acceptor atom, score
      P1  H  6896  6908       L1    27  1.00
      P1  H  6931  6943       L1     3  0.80

> <Gold.Chemscore.Hbond.Weighted>
-9.8838

> <Gold.Chemscore.Metal.Weighted>
-0.0000

> <Gold.Chemscore.Lipo.Weighted>
-4.8670

> <Gold.Chemscore.Internal_Hbond.Weighted>
0.0000

> <Gold.Chemscore.DEClash.Weighted>
0.2386

> <Gold.Chemscore.DEInternal.Weighted>
1.4207

> <Gold.Chemscore.Rot.Weighted>
10.3732

> <Gold.Chemscore.Internal.Correction.Weighted>
   9.000000E+99

> <Gold.Protein.RotatedTorsions>
[ 6907 6896 6895 6894 ] final  110.91 input  -60.11 | X-H torsion
[ 7974 7965 7964 7962 ] final   55.56 input  175.53 | X-H torsion
[ 8008 7997 7996 7995 ] final  -50.26 input   59.86 | X-H torsion
[ 10167 10162 10161 10158 ] final  130.88 input  -65.29 | X-H torsion
[ 10718 10713 10712 10709 ] final -126.67 input   66.30 | X-H torsion
[ 10763 10752 10751 10750 ] final    9.27 input  -60.55 | X-H torsion
[ 11005 11000 10999 10996 ] final  -53.86 input  -57.11 | X-H torsion

> <Gold.Protein.ActiveResidues>
 VAL166  LYS551  ARG553  GLY616  TRP617  ASP618  TYR619  PRO620  LYS621  CYS622 
 ASP623  PHE694  ASN695  SER759  ASP760  ASP761  ALA762  ILE779  LEU786  VAL792 
 PHE793  MET794  SER795  GLU796  ALA797  LYS798  CYS799  TRP800  GLU811  SER814 

> <Gold.Protein.RotatedAtoms>
  152.4996  133.8733  159.7309 H   0  0  0  0  0  0  0  0  0  0  0  0  # atno 6907 bound_to 6896
  150.9214  133.6867  159.2838 H   0  0  0  0  0  0  0  0  0  0  0  0  # atno 6908 bound_to 6896
  151.4242  135.1006  159.9675 H   0  0  0  0  0  0  0  0  0  0  0  0  # atno 6909 bound_to 6896
  145.9491  139.3956  143.0317 H   0  0  0  0  0  0  0  0  0  0  0  0  # atno 7974 bound_to 7965
  154.4058  140.1276  156.4636 H   0  0  0  0  0  0  0  0  0  0  0  0  # atno 8008 bound_to 7997
  155.7248  140.3492  155.5013 H   0  0  0  0  0  0  0  0  0  0  0  0  # atno 8009 bound_to 7997
  155.9181  140.1047  157.1218 H   0  0  0  0  0  0  0  0  0  0  0  0  # atno 8010 bound_to 7997
  139.5410  144.6730  151.4626 H   0  0  0  0  0  0  0  0  0  0  0  0  # atno 10167 bound_to 10162
  156.1786  130.6716  151.0275 H   0  0  0  0  0  0  0  0  0  0  0  0  # atno 10718 bound_to 10713
  153.2158  135.6875  153.8058 H   0  0  0  0  0  0  0  0  0  0  0  0  # atno 10763 bound_to 10752
  153.7274  135.3258  155.3280 H   0  0  0  0  0  0  0  0  0  0  0  0  # atno 10764 bound_to 10752
  154.8245  135.4627  154.0985 H   0  0  0  0  0  0  0  0  0  0  0  0  # atno 10765 bound_to 10752
  141.0997  133.6619  156.4235 H   0  0  0  0  0  0  0  0  0  0  0  0  # atno 11005 bound_to 11000
  145.8196  140.9686  143.0906 LP  0  0  0  0  0  0  0  0  0  0  0  0  # atno 17320 bound_to 7965
  144.6792  140.0024  143.7484 LP  0  0  0  0  0  0  0  0  0  0  0  0  # atno 17321 bound_to 7965
  140.6639  143.8440  150.6919 LP  0  0  0  0  0  0  0  0  0  0  0  0  # atno 17342 bound_to 10162
  140.1843  143.4089  152.1910 LP  0  0  0  0  0  0  0  0  0  0  0  0  # atno 17343 bound_to 10162
  157.6853  131.0826  150.7260 LP  0  0  0  0  0  0  0  0  0  0  0  0  # atno 17370 bound_to 10713
  156.7318  130.4712  149.5498 LP  0  0  0  0  0  0  0  0  0  0  0  0  # atno 17371 bound_to 10713
  140.5052  134.6448  157.5263 LP  0  0  0  0  0  0  0  0  0  0  0  0  # atno 17394 bound_to 11000
  139.9845  134.7084  155.9799 LP  0  0  0  0  0  0  0  0  0  0  0  0  # atno 17395 bound_to 11000

$$$$
