AV-unprocessed.smi:153|AV-procd|sdf|1254|dock5
  -GOLD-   2262018493D 1   1.00000     0.00000
 Structure written by MMmdl.
 60 63  0  0  0  0  0  0  0  0  2 V2000
  152.7706  142.3438  161.9748 C   0  0  0  0  0  0  0  0  0  0  0  0
  152.8878  143.3727  160.8441 C   0  0  2  0  0  0  0  0  0  0  0  0
  152.0624  144.4868  161.1597 O   0  0  0  0  0  0  0  0  0  0  0  0
  151.8442  145.2064  159.9623 C   0  0  0  0  0  0  0  0  0  0  0  0
  151.5421  144.0882  158.9766 C   0  0  0  0  0  0  0  0  0  0  0  0
  152.4745  142.9494  159.4012 C   0  0  1  0  0  0  0  0  0  0  0  0
  153.6294  143.0279  158.5850 O   0  0  0  0  0  0  0  0  0  0  0  0
  151.7677  141.5756  159.1965 C   0  0  0  0  0  0  0  0  0  0  0  0
  150.8902  141.4681  158.0360 N   0  0  0  0  0  0  0  0  0  0  0  0
  149.6455  142.0343  157.8879 C   0  0  0  0  0  0  0  0  0  0  0  0
  149.0649  141.8117  156.7423 N   0  0  0  0  0  0  0  0  0  0  0  0
  149.9889  141.0652  156.0182 C   0  0  0  0  0  0  0  0  0  0  0  0
  150.0225  140.5070  154.7012 C   0  0  0  0  0  0  0  0  0  0  0  0
  149.0140  140.5847  153.7844 N   0  0  0  0  0  0  0  0  0  0  0  0
  148.1807  141.7795  153.7142 C   0  0  0  0  0  0  0  0  0  0  0  0
  148.9875  139.6638  152.6449 C   0  0  0  0  0  0  0  0  0  0  0  0
  147.5636  139.1668  152.3205 C   0  0  1  0  0  0  0  0  0  0  0  0
  147.6369  138.2973  151.2077 O   0  0  0  0  0  0  0  0  0  0  0  0
  146.9622  138.3668  153.4935 C   0  0  0  0  0  0  0  0  0  0  0  0
  145.5067  138.1171  153.3319 N   0  3  0  0  0  0  0  0  0  0  0  0
  145.2245  136.9832  152.4198 C   0  0  0  0  0  0  0  0  0  0  0  0
  143.7082  136.8060  152.2339 C   0  0  0  0  0  0  0  0  0  0  0  0
  143.0912  136.6139  153.5008 O   0  0  0  0  0  0  0  0  0  0  0  0
  143.2791  137.7331  154.3577 C   0  0  0  0  0  0  0  0  0  0  0  0
  144.7813  137.9411  154.6149 C   0  0  0  0  0  0  0  0  0  0  0  0
  151.1603  139.8514  154.3465 N   0  0  0  0  0  0  0  0  0  0  0  0
  152.1862  139.7445  155.1936 C   0  0  0  0  0  0  0  0  0  0  0  0
  152.2891  140.2102  156.4372 N   0  0  0  0  0  0  0  0  0  0  0  0
  151.1536  140.8622  156.8171 C   0  0  0  0  0  0  0  0  0  0  0  0
  153.4820  141.5311  161.8386 H   0  0  0  0  0  0  0  0  0  0  0  0
  151.7654  141.9293  162.0477 H   0  0  0  0  0  0  0  0  0  0  0  0
  153.0007  142.8067  162.9346 H   0  0  0  0  0  0  0  0  0  0  0  0
  153.9140  143.7470  160.8413 H   0  0  0  0  0  0  0  0  0  0  0  0
  151.0238  145.9175  160.0604 H   0  0  0  0  0  0  0  0  0  0  0  0
  152.7480  145.7500  159.6821 H   0  0  0  0  0  0  0  0  0  0  0  0
  150.5006  143.7905  159.1067 H   0  0  0  0  0  0  0  0  0  0  0  0
  151.6624  144.3957  157.9366 H   0  0  0  0  0  0  0  0  0  0  0  0
  154.0414  143.8668  158.7257 H   0  0  0  0  0  0  0  0  0  0  0  0
  152.5023  140.7709  159.1565 H   0  0  0  0  0  0  0  0  0  0  0  0
  151.1521  141.3607  160.0712 H   0  0  0  0  0  0  0  0  0  0  0  0
  149.1726  142.6217  158.6610 H   0  0  0  0  0  0  0  0  0  0  0  0
  147.7569  142.0135  154.6912 H   0  0  0  0  0  0  0  0  0  0  0  0
  147.3483  141.6375  153.0248 H   0  0  0  0  0  0  0  0  0  0  0  0
  148.7593  142.6350  153.3643 H   0  0  0  0  0  0  0  0  0  0  0  0
  149.4770  140.0761  151.7615 H   0  0  0  0  0  0  0  0  0  0  0  0
  149.6031  138.8082  152.9244 H   0  0  0  0  0  0  0  0  0  0  0  0
  146.9264  140.0158  152.0754 H   0  0  0  0  0  0  0  0  0  0  0  0
  148.3557  137.6974  151.3421 H   0  0  0  0  0  0  0  0  0  0  0  0
  147.4902  137.4145  153.5707 H   0  0  0  0  0  0  0  0  0  0  0  0
  147.1316  138.8853  154.4385 H   0  0  0  0  0  0  0  0  0  0  0  0
  145.6921  137.1611  151.4504 H   0  0  0  0  0  0  0  0  0  0  0  0
  145.6620  136.0694  152.8256 H   0  0  0  0  0  0  0  0  0  0  0  0
  143.2729  137.6709  151.7305 H   0  0  0  0  0  0  0  0  0  0  0  0
  143.5058  135.9375  151.6068 H   0  0  0  0  0  0  0  0  0  0  0  0
  142.8315  138.6250  153.9158 H   0  0  0  0  0  0  0  0  0  0  0  0
  142.7591  137.5491  155.2980 H   0  0  0  0  0  0  0  0  0  0  0  0
  145.1884  137.0831  155.1523 H   0  0  0  0  0  0  0  0  0  0  0  0
  144.9148  138.8117  155.2556 H   0  0  0  0  0  0  0  0  0  0  0  0
  153.0464  139.2072  154.8223 H   0  0  0  0  0  0  0  0  0  0  0  0
  145.1270  138.9405  152.8859 H   0  0  0  0  0  0  0  0  0  0  0  0
  1  2  1  0  0  0  0
  1 30  1  0  0  0  0
  1 31  1  0  0  0  0
  1 32  1  0  0  0  0
  2  6  1  0  0  0  0
  2  3  1  0  0  0  0
  2 33  1  0  0  0  0
  3  4  1  0  0  0  0
  4  5  1  0  0  0  0
  4 34  1  0  0  0  0
  4 35  1  0  0  0  0
  5  6  1  0  0  0  0
  5 36  1  0  0  0  0
  5 37  1  0  0  0  0
  6  7  1  0  0  0  0
  6  8  1  0  0  0  0
  7 38  1  0  0  0  0
  8  9  1  0  0  0  0
  8 39  1  0  0  0  0
  8 40  1  0  0  0  0
  9 29  1  0  0  0  0
  9 10  1  0  0  0  0
 10 11  2  0  0  0  0
 10 41  1  0  0  0  0
 11 12  1  0  0  0  0
 12 29  2  0  0  0  0
 12 13  1  0  0  0  0
 13 14  1  0  0  0  0
 13 26  2  0  0  0  0
 14 15  1  0  0  0  0
 14 16  1  0  0  0  0
 15 42  1  0  0  0  0
 15 43  1  0  0  0  0
 15 44  1  0  0  0  0
 16 17  1  0  0  0  0
 16 45  1  0  0  0  0
 16 46  1  0  0  0  0
 17 18  1  0  0  0  0
 17 19  1  0  0  0  0
 17 47  1  0  0  0  0
 18 48  1  0  0  0  0
 19 20  1  0  0  0  0
 19 49  1  0  0  0  0
 19 50  1  0  0  0  0
 20 25  1  0  0  0  0
 20 21  1  0  0  0  0
 20 60  1  0  0  0  0
 21 22  1  0  0  0  0
 21 51  1  0  0  0  0
 21 52  1  0  0  0  0
 22 23  1  0  0  0  0
 22 53  1  0  0  0  0
 22 54  1  0  0  0  0
 23 24  1  0  0  0  0
 24 25  1  0  0  0  0
 24 55  1  0  0  0  0
 24 56  1  0  0  0  0
 25 57  1  0  0  0  0
 25 58  1  0  0  0  0
 26 27  1  0  0  0  0
 27 28  2  0  0  0  0
 27 59  1  0  0  0  0
 28 29  1  0  0  0  0
M  CHG  1  20   1
M  END
> <s_m_source_file>
AV-unprocessed.smi

> <i_m_source_file_index>
153

> <i_lp_mmshare_version>
43012

> <i_f3d_flags>
0

> <s_epik_input>
W0NIMl0xW0NIMl1PW0NAQEhdKFtDSDNdKVtDQEBdMShbT0hdKVtDSDJdbihbY0hdbjIpYyhjMjMpbltjSF1uYzNOKFtDSDNdKVtDSDJdW0NASF0oW09IXSlbQ0gyXU40W0NIMl1bQ0gyXU9bQ0gyXVtDSDJdNA==

> <s_epik_cmdline>
J2VwaWtfcHl0aG9uJywgJy1waCcsICc3LjAnLCAnLXRuJywgJzgnLCAnLW1hJywgJzIwMCcsICctbWV0YWxfYmluZGluZycsICctaW1hZScsICc8aW5maWxlLm1hZT4nLCAnLW9tYWUnLCAnPG91dGZpbGUubWFlPic=

> <r_lp_tautomer_probability>
1

> <r_epik_Ionization_Penalty>
0.403509

> <r_epik_Ionization_Penalty_Charging>
0.40072

> <r_epik_Ionization_Penalty_Neutral>
0.00278876

> <r_epik_State_Penalty>
0.400058

> <r_epik_Charging_Adjusted_Penalty>
0.800778

> <i_epik_Tot_Q>
1

> <i_epik_Tot_abs_Q>
1

> <r_epik_Metal_State_Penalty>
0.400321

> <b_epik_Metal_Only>
0

> <s_lp_Force_Field>
OPLS_2005

> <r_lp_Energy>
49.6176

> <b_lp_Chiralities_Consistent>
1

> <s_lp_Variant>
AV-unprocessed.smi:153-5

> <Gold.Version>
5.8.1

> <Gold.Id.Protein>
6NUR|6NUR_protein|mol2

> <Gold.PLP.Fitness>
58.5764

> <Gold.PLP.PLP>
-47.9312

> <Gold.PLP.part.hbond>
-5.4954

> <Gold.PLP.part.metal>
0.0000

> <Gold.PLP.part.buried>
5.4811

> <Gold.PLP.part.nonpolar>
-46.3438

> <Gold.PLP.part.repulsive>
0.7253

> <Gold.PLP.ligand.clash>
0.0000

> <Gold.PLP.ligand.torsion>
1.4019

> <Gold.PLP.Chemscore.Hbond>
4.1895

> <Gold.PLP.Chemscore.CHOScore>
0.0000

> <Gold.PLP.Chemscore.Metal>
0.0000

> <Gold.Chemscore.Hbonds>
donor molecule, donor type, donor heavy atom, donor atom, acceptor molecule, acceptor atom, score
      L1  H    18    48       P1  7948  1.00
      L1  H    20    60       P1 10175  1.43
      P1  H  7989  7998       L1    26  0.55
      P1  H  7997  8009       L1    28  0.52

> <Gold.PLP.Chemscore.Internal.Correction>
0.8803

> <Gold.Rescore>
     Score         DG    S(hbond)    S(metal)    S(lipo)     H(rot)  DE(clash)    DE(int)     intcor
      9.58     -15.78       1.99        0.00     110.27       3.62       3.10       3.10       ----

> <Gold.Chemscore.Fitness>
9.5756

> <Gold.Chemscore.DG>
-15.7794

> <Gold.Chemscore.ZeroCoef>
-5.4800

> <Gold.Chemscore.Hbond>
1.9941

> <Gold.Chemscore.Metal>
0.0000

> <Gold.Chemscore.Lipo>
110.2715

> <Gold.Chemscore.Internal_Hbond>
0.0000

> <Gold.Chemscore.DEClash>
3.1008

> <Gold.Chemscore.DEInternal>
3.1030

> <Gold.Chemscore.Rot>
3.6182

> <Gold.Chemscore.Internal.Correction>
   9.000000E+99

> <Gold.Chemscore.Hbonds>
donor molecule, donor type, donor heavy atom, donor atom, acceptor molecule, acceptor atom, score
      L1  H    18    48       P1  7948  0.92
      L1  H    20    60       P1 10175  0.72
      P1  H  7989  7998       L1    26  0.02
      P1  H  7997  8009       L1    28  0.16

> <Gold.Chemscore.Hbond.Weighted>
-6.6601

> <Gold.Chemscore.Metal.Weighted>
-0.0000

> <Gold.Chemscore.Lipo.Weighted>
-12.9018

> <Gold.Chemscore.Internal_Hbond.Weighted>
0.0000

> <Gold.Chemscore.DEClash.Weighted>
3.1008

> <Gold.Chemscore.DEInternal.Weighted>
3.1030

> <Gold.Chemscore.Rot.Weighted>
9.2625

> <Gold.Chemscore.Internal.Correction.Weighted>
   9.000000E+99

> <Gold.Protein.RotatedTorsions>
[ 6907 6896 6895 6894 ] final  107.65 input  -60.11 | X-H torsion
[ 7974 7965 7964 7962 ] final  -80.01 input  175.53 | X-H torsion
[ 8008 7997 7996 7995 ] final  171.38 input   59.86 | X-H torsion
[ 10167 10162 10161 10158 ] final  -93.64 input  -65.29 | X-H torsion
[ 10718 10713 10712 10709 ] final  172.16 input   66.30 | X-H torsion
[ 10763 10752 10751 10750 ] final -146.47 input  -60.55 | X-H torsion
[ 11005 11000 10999 10996 ] final  114.26 input  -57.11 | X-H torsion

> <Gold.Protein.ActiveResidues>
 VAL166  LYS551  ARG553  GLY616  TRP617  ASP618  TYR619  PRO620  LYS621  CYS622 
 ASP623  PHE694  ASN695  SER759  ASP760  ASP761  ALA762  ILE779  LEU786  VAL792 
 PHE793  MET794  SER795  GLU796  ALA797  LYS798  CYS799  TRP800  GLU811  SER814 

> <Gold.Protein.RotatedAtoms>
  152.5145  133.9203  159.7530 H   0  0  0  0  0  0  0  0  0  0  0  0  # atno 6907 bound_to 6896
  150.9576  133.6471  159.2767 H   0  0  0  0  0  0  0  0  0  0  0  0  # atno 6908 bound_to 6896
  151.3728  135.0931  159.9523 H   0  0  0  0  0  0  0  0  0  0  0  0  # atno 6909 bound_to 6896
  145.5656  140.9475  143.1423 H   0  0  0  0  0  0  0  0  0  0  0  0  # atno 7974 bound_to 7965
  156.1277  140.1513  156.9112 H   0  0  0  0  0  0  0  0  0  0  0  0  # atno 8008 bound_to 7997
  154.4884  140.0858  156.7580 H   0  0  0  0  0  0  0  0  0  0  0  0  # atno 8009 bound_to 7997
  155.4314  140.3427  155.4283 H   0  0  0  0  0  0  0  0  0  0  0  0  # atno 8010 bound_to 7997
  140.3226  143.3040  152.0030 H   0  0  0  0  0  0  0  0  0  0  0  0  # atno 10167 bound_to 10162
  156.9830  131.0124  151.2876 H   0  0  0  0  0  0  0  0  0  0  0  0  # atno 10718 bound_to 10713
  154.8334  135.3386  154.6666 H   0  0  0  0  0  0  0  0  0  0  0  0  # atno 10763 bound_to 10752
  153.7283  135.6953  153.5000 H   0  0  0  0  0  0  0  0  0  0  0  0  # atno 10764 bound_to 10752
  153.2331  135.4410  155.0569 H   0  0  0  0  0  0  0  0  0  0  0  0  # atno 10765 bound_to 10752
  139.8975  134.9565  156.6865 H   0  0  0  0  0  0  0  0  0  0  0  0  # atno 11005 bound_to 11000
  144.7462  139.7314  143.7291 LP  0  0  0  0  0  0  0  0  0  0  0  0  # atno 17320 bound_to 7965
  146.1821  139.5018  142.9860 LP  0  0  0  0  0  0  0  0  0  0  0  0  # atno 17321 bound_to 7965
  139.4871  144.6299  151.7091 LP  0  0  0  0  0  0  0  0  0  0  0  0  # atno 17342 bound_to 10162
  140.5470  144.0487  150.6111 LP  0  0  0  0  0  0  0  0  0  0  0  0  # atno 17343 bound_to 10162
  157.5513  130.8184  149.8148 LP  0  0  0  0  0  0  0  0  0  0  0  0  # atno 17370 bound_to 10713
  156.0237  130.3787  150.1886 LP  0  0  0  0  0  0  0  0  0  0  0  0  # atno 17371 bound_to 10713
  140.7258  133.9101  155.8177 LP  0  0  0  0  0  0  0  0  0  0  0  0  # atno 17394 bound_to 11000
  141.0192  134.0913  157.4139 LP  0  0  0  0  0  0  0  0  0  0  0  0  # atno 17395 bound_to 11000

$$$$
