AV-unprocessed.smi:704|AV-procd|sdf|3444|dock6
  -GOLD-   22720 0433D 1   1.00000     0.00000
 Structure written by MMmdl.
 38 39  0  0  0  0  0  0  0  0  1 V2000
  151.8685  145.5928  159.9729 C   0  0  0  0  0  0  0  0  0  0  0  0
  151.6482  144.5112  159.0742 O   0  0  0  0  0  0  0  0  0  0  0  0
  152.1872  143.2768  159.3828 C   0  0  0  0  0  0  0  0  0  0  0  0
  153.0816  143.1991  160.4003 N   0  0  0  0  0  0  0  0  0  0  0  0
  153.6103  141.9952  160.7007 C   0  0  0  0  0  0  0  0  0  0  0  0
  153.2844  140.8156  160.0065 C   0  0  0  0  0  0  0  0  0  0  0  0
  152.3574  140.8936  158.9511 C   0  0  0  0  0  0  0  0  0  0  0  0
  151.7827  142.1478  158.6330 C   0  0  0  0  0  0  0  0  0  0  0  0
  150.8558  142.3397  157.5723 N   0  0  0  0  0  0  0  0  0  0  0  0
  150.6402  141.5580  156.5013 C   0  0  0  0  0  0  0  0  0  0  0  0
  151.2096  140.4910  156.2719 O   0  0  0  0  0  0  0  0  0  0  0  0
  149.6883  142.0729  155.7106 N   0  0  0  0  0  0  0  0  0  0  0  0
  149.1914  141.4518  154.4816 C   0  0  2  0  0  0  0  0  0  0  0  0
  147.8044  142.0025  154.0995 C   0  0  0  0  0  0  0  0  0  0  0  0
  146.9695  140.8091  153.6164 C   0  0  0  0  0  0  0  0  0  0  0  0
  147.9392  139.6280  153.5190 C   0  0  0  0  0  0  0  0  0  0  0  0
  149.0470  139.9080  154.5455 C   0  0  2  0  0  0  0  0  0  0  0  0
  148.6725  139.3420  155.9329 C   0  0  0  0  0  0  0  0  0  0  0  0
  149.5205  138.4653  156.4766 N   0  0  0  0  0  0  0  0  0  0  0  0
  147.6438  139.6932  156.5087 O   0  0  0  0  0  0  0  0  0  0  0  0
  151.3715  146.4845  159.5916 H   0  0  0  0  0  0  0  0  0  0  0  0
  152.9309  145.8211  160.0682 H   0  0  0  0  0  0  0  0  0  0  0  0
  151.4565  145.3820  160.9609 H   0  0  0  0  0  0  0  0  0  0  0  0
  154.3195  141.9726  161.5148 H   0  0  0  0  0  0  0  0  0  0  0  0
  153.7397  139.8737  160.2738 H   0  0  0  0  0  0  0  0  0  0  0  0
  152.1183  139.9979  158.3988 H   0  0  0  0  0  0  0  0  0  0  0  0
  150.2388  143.1321  157.6768 H   0  0  0  0  0  0  0  0  0  0  0  0
  149.2646  142.9482  155.9814 H   0  0  0  0  0  0  0  0  0  0  0  0
  149.8775  141.6927  153.6670 H   0  0  0  0  0  0  0  0  0  0  0  0
  147.3088  142.4754  154.9489 H   0  0  0  0  0  0  0  0  0  0  0  0
  147.8966  142.7602  153.3207 H   0  0  0  0  0  0  0  0  0  0  0  0
  146.1882  140.5883  154.3446 H   0  0  0  0  0  0  0  0  0  0  0  0
  146.4769  141.0086  152.6644 H   0  0  0  0  0  0  0  0  0  0  0  0
  147.4357  138.6728  153.6754 H   0  0  0  0  0  0  0  0  0  0  0  0
  148.3765  139.5980  152.5201 H   0  0  0  0  0  0  0  0  0  0  0  0
  149.9778  139.4372  154.2244 H   0  0  0  0  0  0  0  0  0  0  0  0
  149.3187  138.0621  157.3802 H   0  0  0  0  0  0  0  0  0  0  0  0
  150.3592  138.2047  155.9785 H   0  0  0  0  0  0  0  0  0  0  0  0
  1  2  1  0  0  0  0
  1 21  1  0  0  0  0
  1 22  1  0  0  0  0
  1 23  1  0  0  0  0
  2  3  1  0  0  0  0
  3  8  1  0  0  0  0
  3  4  2  0  0  0  0
  4  5  1  0  0  0  0
  5  6  2  0  0  0  0
  5 24  1  0  0  0  0
  6  7  1  0  0  0  0
  6 25  1  0  0  0  0
  7  8  2  0  0  0  0
  7 26  1  0  0  0  0
  8  9  1  0  0  0  0
  9 10  1  0  0  0  0
  9 27  1  0  0  0  0
 10 11  2  0  0  0  0
 10 12  1  0  0  0  0
 12 13  1  0  0  0  0
 12 28  1  0  0  0  0
 13 17  1  0  0  0  0
 13 14  1  0  0  0  0
 13 29  1  0  0  0  0
 14 15  1  0  0  0  0
 14 30  1  0  0  0  0
 14 31  1  0  0  0  0
 15 16  1  0  0  0  0
 15 32  1  0  0  0  0
 15 33  1  0  0  0  0
 16 17  1  0  0  0  0
 16 34  1  0  0  0  0
 16 35  1  0  0  0  0
 17 18  1  0  0  0  0
 17 36  1  0  0  0  0
 18 19  1  0  0  0  0
 18 20  2  0  0  0  0
 19 37  1  0  0  0  0
 19 38  1  0  0  0  0
M  END
> <s_m_source_file>
AV-unprocessed.smi

> <i_m_source_file_index>
704

> <i_lp_mmshare_version>
43012

> <i_f3d_flags>
0

> <s_epik_input>
W0NIM11PYzFuW2NIXVtjSF1bY0hdYzFbTkhdQyg9TylbTkhdW0NAQEhdMltDSDJdW0NIMl1bQ0gyXVtDQEhdMkMoPU8pW05IMl0=

> <s_epik_cmdline>
J2VwaWtfcHl0aG9uJywgJy1waCcsICc3LjAnLCAnLXRuJywgJzgnLCAnLW1hJywgJzIwMCcsICctbWV0YWxfYmluZGluZycsICctaW1hZScsICc8aW5maWxlLm1hZT4nLCAnLW9tYWUnLCAnPG91dGZpbGUubWFlPic=

> <r_lp_tautomer_probability>
1

> <r_epik_Ionization_Penalty>
9.09123e-05

> <r_epik_Ionization_Penalty_Charging>
0

> <r_epik_Ionization_Penalty_Neutral>
9.09123e-05

> <r_epik_State_Penalty>
-0

> <r_epik_Charging_Adjusted_Penalty>
0

> <i_epik_Tot_Q>
0

> <i_epik_Tot_abs_Q>
0

> <r_epik_Metal_State_Penalty>
-0

> <b_epik_Metal_Only>
0

> <s_lp_Force_Field>
OPLS_2005

> <r_lp_Energy>
16.4905

> <b_lp_Chiralities_Consistent>
1

> <s_lp_Variant>
AV-unprocessed.smi:704-3

> <Gold.Version>
5.8.1

> <Gold.Id.Protein>
6NUR|6NUR_protein|mol2

> <Gold.PLP.Fitness>
39.9124

> <Gold.PLP.PLP>
-37.9180

> <Gold.PLP.part.hbond>
-1.0000

> <Gold.PLP.part.metal>
0.0000

> <Gold.PLP.part.buried>
-3.6351

> <Gold.PLP.part.nonpolar>
-32.4815

> <Gold.PLP.part.repulsive>
0.2432

> <Gold.PLP.ligand.clash>
0.0000

> <Gold.PLP.ligand.torsion>
0.5137

> <Gold.PLP.Chemscore.Hbond>
1.0000

> <Gold.PLP.Chemscore.CHOScore>
0.0000

> <Gold.PLP.Chemscore.Metal>
0.0000

> <Gold.Chemscore.Hbonds>
donor molecule, donor type, donor heavy atom, donor atom, acceptor molecule, acceptor atom, score
      L1  H    12    28       P1  8028  1.00

> <Gold.PLP.Chemscore.Internal.Correction>
0.0218

> <Gold.Rescore>
     Score         DG    S(hbond)    S(metal)    S(lipo)     H(rot)  DE(clash)    DE(int)     intcor
     11.26     -13.73       0.97        0.00      83.49       1.86       0.01       2.46       ----

> <Gold.Chemscore.Fitness>
11.2575

> <Gold.Chemscore.DG>
-13.7292

> <Gold.Chemscore.ZeroCoef>
-5.4800

> <Gold.Chemscore.Hbond>
0.9743

> <Gold.Chemscore.Metal>
0.0000

> <Gold.Chemscore.Lipo>
83.4943

> <Gold.Chemscore.Internal_Hbond>
0.0000

> <Gold.Chemscore.DEClash>
0.0111

> <Gold.Chemscore.DEInternal>
2.4606

> <Gold.Chemscore.Rot>
1.8648

> <Gold.Chemscore.Internal.Correction>
   9.000000E+99

> <Gold.Chemscore.Hbonds>
donor molecule, donor type, donor heavy atom, donor atom, acceptor molecule, acceptor atom, score
      L1  H    12    28       P1  8028  0.95

> <Gold.Chemscore.Hbond.Weighted>
-3.2543

> <Gold.Chemscore.Metal.Weighted>
-0.0000

> <Gold.Chemscore.Lipo.Weighted>
-9.7688

> <Gold.Chemscore.Internal_Hbond.Weighted>
0.0000

> <Gold.Chemscore.DEClash.Weighted>
0.0111

> <Gold.Chemscore.DEInternal.Weighted>
2.4606

> <Gold.Chemscore.Rot.Weighted>
4.7739

> <Gold.Chemscore.Internal.Correction.Weighted>
   9.000000E+99

> <Gold.Protein.RotatedTorsions>
[ 6907 6896 6895 6894 ] final  -10.63 input  -60.11 | X-H torsion
[ 7974 7965 7964 7962 ] final   19.60 input  175.53 | X-H torsion
[ 8008 7997 7996 7995 ] final  -90.21 input   59.86 | X-H torsion
[ 10167 10162 10161 10158 ] final  -42.36 input  -65.29 | X-H torsion
[ 10718 10713 10712 10709 ] final -164.95 input   66.30 | X-H torsion
[ 10763 10752 10751 10750 ] final  118.93 input  -60.55 | X-H torsion
[ 11005 11000 10999 10996 ] final    0.94 input  -57.11 | X-H torsion

> <Gold.Protein.ActiveResidues>
 VAL166  LYS551  ARG553  GLY616  TRP617  ASP618  TYR619  PRO620  LYS621  CYS622 
 ASP623  PHE694  ASN695  SER759  ASP760  ASP761  ALA762  ILE779  LEU786  VAL792 
 PHE793  MET794  SER795  GLU796  ALA797  LYS798  CYS799  TRP800  GLU811  SER814 

> <Gold.Protein.RotatedAtoms>
  151.3989  135.0968  159.9549 H   0  0  0  0  0  0  0  0  0  0  0  0  # atno 6907 bound_to 6896
  152.5056  133.8907  159.7403 H   0  0  0  0  0  0  0  0  0  0  0  0  # atno 6908 bound_to 6896
  150.9377  133.6636  159.2826 H   0  0  0  0  0  0  0  0  0  0  0  0  # atno 6909 bound_to 6896
  146.2143  139.8290  142.8664 H   0  0  0  0  0  0  0  0  0  0  0  0  # atno 7974 bound_to 7965
  154.6958  140.0533  157.0409 H   0  0  0  0  0  0  0  0  0  0  0  0  # atno 8008 bound_to 7997
  155.0753  140.3204  155.4599 H   0  0  0  0  0  0  0  0  0  0  0  0  # atno 8009 bound_to 7997
  156.2744  140.2074  156.5880 H   0  0  0  0  0  0  0  0  0  0  0  0  # atno 8010 bound_to 7997
  140.6972  143.3042  151.3198 H   0  0  0  0  0  0  0  0  0  0  0  0  # atno 10167 bound_to 10162
  156.6463  130.8989  151.3005 H   0  0  0  0  0  0  0  0  0  0  0  0  # atno 10718 bound_to 10713
  153.5753  135.3494  155.2853 H   0  0  0  0  0  0  0  0  0  0  0  0  # atno 10763 bound_to 10752
  154.8676  135.4169  154.2680 H   0  0  0  0  0  0  0  0  0  0  0  0  # atno 10764 bound_to 10752
  153.3455  135.7052  153.6902 H   0  0  0  0  0  0  0  0  0  0  0  0  # atno 10765 bound_to 10752
  140.6210  133.9661  155.8225 H   0  0  0  0  0  0  0  0  0  0  0  0  # atno 11005 bound_to 11000
  145.3017  141.0196  143.3605 LP  0  0  0  0  0  0  0  0  0  0  0  0  # atno 17320 bound_to 7965
  144.9001  139.4660  143.6636 LP  0  0  0  0  0  0  0  0  0  0  0  0  # atno 17321 bound_to 7965
  139.6442  144.0483  152.2577 LP  0  0  0  0  0  0  0  0  0  0  0  0  # atno 17342 bound_to 10162
  139.9998  144.6301  150.7740 LP  0  0  0  0  0  0  0  0  0  0  0  0  # atno 17343 bound_to 10162
  157.7155  130.9492  150.1240 LP  0  0  0  0  0  0  0  0  0  0  0  0  # atno 17370 bound_to 10713
  156.2119  130.3667  149.8660 LP  0  0  0  0  0  0  0  0  0  0  0  0  # atno 17371 bound_to 10713
  141.0742  134.0160  157.3482 LP  0  0  0  0  0  0  0  0  0  0  0  0  # atno 17394 bound_to 11000
  139.9153  135.0196  156.7857 LP  0  0  0  0  0  0  0  0  0  0  0  0  # atno 17395 bound_to 11000

$$$$
