AV-unprocessed.smi:81|AV-procd|sdf|789|dock8
  -GOLD-   2262017163D 1   1.00000     0.00000
 Structure written by MMmdl.
 64 67  0  0  0  0  0  0  0  0  2 V2000
  146.8284  141.6351  155.5233 C   0  0  0  0  0  0  0  0  0  0  0  0
  148.0511  140.9044  154.9439 C   0  0  0  0  0  0  0  0  0  0  0  0
  147.9085  140.7380  153.4242 C   0  0  0  0  0  0  0  0  0  0  0  0
  148.2724  139.5311  155.6169 C   0  0  0  0  0  0  0  0  0  0  0  0
  149.5557  139.4070  156.3150 N   0  0  0  0  0  0  0  0  0  0  0  0
  149.7393  138.2291  156.9630 C   0  0  0  0  0  0  0  0  0  0  0  0
  150.8025  137.4411  156.6530 N   0  0  0  0  0  0  0  0  0  0  0  0
  150.9883  136.2849  157.2968 C   0  0  0  0  0  0  0  0  0  0  0  0
  150.2476  135.7399  158.2642 N   0  0  0  0  0  0  0  0  0  0  0  0
  149.1838  136.5323  158.5817 C   0  0  0  0  0  0  0  0  0  0  0  0
  148.8622  137.7845  157.9882 C   0  0  0  0  0  0  0  0  0  0  0  0
  147.7187  138.3112  158.5748 N   0  0  0  0  0  0  0  0  0  0  0  0
  147.3826  137.4197  159.4667 C   0  0  0  0  0  0  0  0  0  0  0  0
  148.1988  136.3121  159.5285 N   0  0  0  0  0  0  0  0  0  0  0  0
  148.0574  135.1736  160.4232 C   0  0  0  0  0  0  0  0  0  0  0  0
  146.7621  135.1972  161.2815 C   0  0  2  0  0  0  0  0  0  0  0  0
  145.6293  135.1550  160.4345 O   0  0  0  0  0  0  0  0  0  0  0  0
  146.6482  136.4103  162.1969 C   0  0  0  0  0  0  0  0  0  0  0  0
  147.4850  135.9935  163.4023 C   0  0  0  0  0  0  0  0  0  0  0  0
  147.3564  134.5773  163.4864 O   0  0  0  0  0  0  0  0  0  0  0  0
  146.6856  134.0733  162.3338 C   0  0  2  0  0  0  0  0  0  0  0  0
  147.2541  132.7049  161.9293 C   0  0  0  0  0  0  0  0  0  0  0  0
  150.0392  140.6100  157.0083 C   0  0  2  0  0  0  0  0  0  0  0  0
  148.9501  141.3446  157.8189 C   0  0  0  0  0  0  0  0  0  0  0  0
  149.5449  142.5393  158.5817 C   0  0  0  0  0  0  0  0  0  0  0  0
  150.2259  143.4766  157.6543 N   0  3  1  0  0  0  0  0  0  0  0  0
  150.6990  144.7000  158.3366 C   0  0  0  0  0  0  0  0  0  0  0  0
  151.3013  142.8094  156.8792 C   0  0  0  0  0  0  0  0  0  0  0  0
  150.7492  141.6183  156.0788 C   0  0  0  0  0  0  0  0  0  0  0  0
  145.9163  141.0543  155.3830 H   0  0  0  0  0  0  0  0  0  0  0  0
  146.6847  142.6023  155.0411 H   0  0  0  0  0  0  0  0  0  0  0  0
  146.9429  141.8209  156.5912 H   0  0  0  0  0  0  0  0  0  0  0  0
  148.9278  141.5307  155.1110 H   0  0  0  0  0  0  0  0  0  0  0  0
  147.0444  140.1230  153.1713 H   0  0  0  0  0  0  0  0  0  0  0  0
  148.7922  140.2628  152.9972 H   0  0  0  0  0  0  0  0  0  0  0  0
  147.7858  141.7032  152.9321 H   0  0  0  0  0  0  0  0  0  0  0  0
  147.4654  139.3491  156.3273 H   0  0  0  0  0  0  0  0  0  0  0  0
  148.1944  138.7413  154.8683 H   0  0  0  0  0  0  0  0  0  0  0  0
  151.8542  135.7147  156.9942 H   0  0  0  0  0  0  0  0  0  0  0  0
  146.5184  137.5418  160.1037 H   0  0  0  0  0  0  0  0  0  0  0  0
  148.0926  134.2687  159.8154 H   0  0  0  0  0  0  0  0  0  0  0  0
  148.9385  135.1403  161.0649 H   0  0  0  0  0  0  0  0  0  0  0  0
  144.9814  134.5911  160.8282 H   0  0  0  0  0  0  0  0  0  0  0  0
  146.9704  137.3514  161.7542 H   0  0  0  0  0  0  0  0  0  0  0  0
  145.6139  136.5451  162.5184 H   0  0  0  0  0  0  0  0  0  0  0  0
  148.5353  136.2405  163.2440 H   0  0  0  0  0  0  0  0  0  0  0  0
  147.1592  136.4789  164.3224 H   0  0  0  0  0  0  0  0  0  0  0  0
  145.6430  133.9392  162.6283 H   0  0  0  0  0  0  0  0  0  0  0  0
  146.7659  132.3292  161.0298 H   0  0  0  0  0  0  0  0  0  0  0  0
  147.0967  131.9732  162.7217 H   0  0  0  0  0  0  0  0  0  0  0  0
  148.3263  132.7521  161.7393 H   0  0  0  0  0  0  0  0  0  0  0  0
  150.7783  140.2563  157.7284 H   0  0  0  0  0  0  0  0  0  0  0  0
  148.1578  141.7069  157.1626 H   0  0  0  0  0  0  0  0  0  0  0  0
  148.4831  140.6581  158.5258 H   0  0  0  0  0  0  0  0  0  0  0  0
  148.7487  143.0641  159.1112 H   0  0  0  0  0  0  0  0  0  0  0  0
  150.2517  142.1901  159.3364 H   0  0  0  0  0  0  0  0  0  0  0  0
  151.4594  144.4642  159.0821 H   0  0  0  0  0  0  0  0  0  0  0  0
  149.8729  145.2053  158.8378 H   0  0  0  0  0  0  0  0  0  0  0  0
  151.1282  145.3994  157.6185 H   0  0  0  0  0  0  0  0  0  0  0  0
  151.7563  143.5262  156.1944 H   0  0  0  0  0  0  0  0  0  0  0  0
  152.0883  142.4745  157.5569 H   0  0  0  0  0  0  0  0  0  0  0  0
  151.5669  141.1353  155.5435 H   0  0  0  0  0  0  0  0  0  0  0  0
  150.0589  141.9911  155.3217 H   0  0  0  0  0  0  0  0  0  0  0  0
  149.5311  143.7741  156.9842 H   0  0  0  0  0  0  0  0  0  0  0  0
  1  2  1  0  0  0  0
  1 30  1  0  0  0  0
  1 31  1  0  0  0  0
  1 32  1  0  0  0  0
  2  3  1  0  0  0  0
  2  4  1  0  0  0  0
  2 33  1  0  0  0  0
  3 34  1  0  0  0  0
  3 35  1  0  0  0  0
  3 36  1  0  0  0  0
  4  5  1  0  0  0  0
  4 37  1  0  0  0  0
  4 38  1  0  0  0  0
  5  6  1  0  0  0  0
  5 23  1  0  0  0  0
  6 11  1  0  0  0  0
  6  7  2  0  0  0  0
  7  8  1  0  0  0  0
  8  9  2  0  0  0  0
  8 39  1  0  0  0  0
  9 10  1  0  0  0  0
 10 14  1  0  0  0  0
 10 11  2  0  0  0  0
 11 12  1  0  0  0  0
 12 13  2  0  0  0  0
 13 14  1  0  0  0  0
 13 40  1  0  0  0  0
 14 15  1  0  0  0  0
 15 16  1  0  0  0  0
 15 41  1  0  0  0  0
 15 42  1  0  0  0  0
 16 21  1  0  0  0  0
 16 17  1  0  0  0  0
 16 18  1  0  0  0  0
 17 43  1  0  0  0  0
 18 19  1  0  0  0  0
 18 44  1  0  0  0  0
 18 45  1  0  0  0  0
 19 20  1  0  0  0  0
 19 46  1  0  0  0  0
 19 47  1  0  0  0  0
 20 21  1  0  0  0  0
 21 22  1  0  0  0  0
 21 48  1  0  0  0  0
 22 49  1  0  0  0  0
 22 50  1  0  0  0  0
 22 51  1  0  0  0  0
 23 29  1  0  0  0  0
 23 24  1  0  0  0  0
 23 52  1  0  0  0  0
 24 25  1  0  0  0  0
 24 53  1  0  0  0  0
 24 54  1  0  0  0  0
 25 26  1  0  0  0  0
 25 55  1  0  0  0  0
 25 56  1  0  0  0  0
 26 27  1  0  0  0  0
 26 28  1  0  0  0  0
 26 64  1  0  0  0  0
 27 57  1  0  0  0  0
 27 58  1  0  0  0  0
 27 59  1  0  0  0  0
 28 29  1  0  0  0  0
 28 60  1  0  0  0  0
 28 61  1  0  0  0  0
 29 62  1  0  0  0  0
 29 63  1  0  0  0  0
M  CHG  1  26   1
M  END
> <s_m_source_file>
AV-unprocessed.smi

> <i_m_source_file_index>
81

> <i_lp_mmshare_version>
43012

> <i_f3d_flags>
0

> <s_epik_input>
W0NIMl0xW0NIMl1OKFtDSDNdKVtDSDJdW0NIMl1bQ0hdMU4oW0NIMl1bQ0hdKFtDSDNdKVtDSDNdKWMobltjSF1uMiljKGMyMyluW2NIXW4zW0NIMl1bQ0BAXTQoW09IXSlbQ0gyXVtDSDJdT1tDQEhdNFtDSDNd

> <s_epik_cmdline>
J2VwaWtfcHl0aG9uJywgJy1waCcsICc3LjAnLCAnLXRuJywgJzgnLCAnLW1hJywgJzIwMCcsICctbWV0YWxfYmluZGluZycsICctaW1hZScsICc8aW5maWxlLm1hZT4nLCAnLW9tYWUnLCAnPG91dGZpbGUubWFlPic=

> <r_lp_tautomer_probability>
1

> <r_epik_Ionization_Penalty>
0.00272708

> <r_epik_Ionization_Penalty_Charging>
0.00158983

> <r_epik_Ionization_Penalty_Neutral>
0.00113725

> <r_epik_State_Penalty>
-0

> <r_epik_Charging_Adjusted_Penalty>
0.00158983

> <i_epik_Tot_Q>
1

> <i_epik_Tot_abs_Q>
1

> <r_epik_Metal_State_Penalty>
-0

> <b_epik_Metal_Only>
0

> <s_lp_Force_Field>
OPLS_2005

> <r_lp_Energy>
46.4423

> <b_lp_Chiralities_Consistent>
1

> <s_lp_Variant>
AV-unprocessed.smi:81-4

> <Gold.Version>
5.8.1

> <Gold.Id.Protein>
6NUR|6NUR_protein|mol2

> <Gold.PLP.Fitness>
45.1269

> <Gold.PLP.PLP>
-39.7673

> <Gold.PLP.part.hbond>
-4.7321

> <Gold.PLP.part.metal>
0.0000

> <Gold.PLP.part.buried>
-5.3686

> <Gold.PLP.part.nonpolar>
-30.7225

> <Gold.PLP.part.repulsive>
0.0441

> <Gold.PLP.ligand.clash>
0.0000

> <Gold.PLP.ligand.torsion>
1.9326

> <Gold.PLP.Chemscore.Hbond>
2.7855

> <Gold.PLP.Chemscore.CHOScore>
0.0000

> <Gold.PLP.Chemscore.Metal>
0.0000

> <Gold.Chemscore.Hbonds>
donor molecule, donor type, donor heavy atom, donor atom, acceptor molecule, acceptor atom, score
      L1  H    26    64       P1  8028  2.00
      P1  H  6896  6907       L1     9  0.66

> <Gold.PLP.Chemscore.Internal.Correction>
0.8684

> <Gold.Rescore>
     Score         DG    S(hbond)    S(metal)    S(lipo)     H(rot)  DE(clash)    DE(int)     intcor
     10.63     -16.77       1.68        0.00     104.94       2.58       2.42       3.73       ----

> <Gold.Chemscore.Fitness>
10.6313

> <Gold.Chemscore.DG>
-16.7744

> <Gold.Chemscore.ZeroCoef>
-5.4800

> <Gold.Chemscore.Hbond>
1.6809

> <Gold.Chemscore.Metal>
0.0000

> <Gold.Chemscore.Lipo>
104.9435

> <Gold.Chemscore.Internal_Hbond>
0.0000

> <Gold.Chemscore.DEClash>
2.4161

> <Gold.Chemscore.DEInternal>
3.7270

> <Gold.Chemscore.Rot>
2.5774

> <Gold.Chemscore.Internal.Correction>
   9.000000E+99

> <Gold.Chemscore.Hbonds>
donor molecule, donor type, donor heavy atom, donor atom, acceptor molecule, acceptor atom, score
      L1  H    26    64       P1  8028  0.87
      P1  H  6896  6907       L1     9  0.60

> <Gold.Chemscore.Hbond.Weighted>
-5.6143

> <Gold.Chemscore.Metal.Weighted>
-0.0000

> <Gold.Chemscore.Lipo.Weighted>
-12.2784

> <Gold.Chemscore.Internal_Hbond.Weighted>
0.0000

> <Gold.Chemscore.DEClash.Weighted>
2.4161

> <Gold.Chemscore.DEInternal.Weighted>
3.7270

> <Gold.Chemscore.Rot.Weighted>
6.5982

> <Gold.Chemscore.Internal.Correction.Weighted>
   9.000000E+99

> <Gold.Protein.RotatedTorsions>
[ 6907 6896 6895 6894 ] final  -84.26 input  -60.11 | X-H torsion
[ 7974 7965 7964 7962 ] final  110.40 input  175.53 | X-H torsion
[ 8008 7997 7996 7995 ] final   58.24 input   59.86 | X-H torsion
[ 10167 10162 10161 10158 ] final  -11.95 input  -65.29 | X-H torsion
[ 10718 10713 10712 10709 ] final -155.58 input   66.30 | X-H torsion
[ 10763 10752 10751 10750 ] final   59.10 input  -60.55 | X-H torsion
[ 11005 11000 10999 10996 ] final  -33.50 input  -57.11 | X-H torsion

> <Gold.Protein.ActiveResidues>
 VAL166  LYS551  ARG553  GLY616  TRP617  ASP618  TYR619  PRO620  LYS621  CYS622 
 ASP623  PHE694  ASN695  SER759  ASP760  ASP761  ALA762  ILE779  LEU786  VAL792 
 PHE793  MET794  SER795  GLU796  ALA797  LYS798  CYS799  TRP800  GLU811  SER814 

> <Gold.Protein.RotatedAtoms>
  150.6878  134.3386  159.4857 H   0  0  0  0  0  0  0  0  0  0  0  0  # atno 6907 bound_to 6896
  152.1242  134.9180  160.0571 H   0  0  0  0  0  0  0  0  0  0  0  0  # atno 6908 bound_to 6896
  152.0375  133.3928  159.4360 H   0  0  0  0  0  0  0  0  0  0  0  0  # atno 6909 bound_to 6896
  145.2555  139.2723  143.4045 H   0  0  0  0  0  0  0  0  0  0  0  0  # atno 7974 bound_to 7965
  155.5467  140.3485  155.4459 H   0  0  0  0  0  0  0  0  0  0  0  0  # atno 8008 bound_to 7997
  156.0612  140.1340  156.9965 H   0  0  0  0  0  0  0  0  0  0  0  0  # atno 8009 bound_to 7997
  154.4481  140.0985  156.6505 H   0  0  0  0  0  0  0  0  0  0  0  0  # atno 8010 bound_to 7997
  140.7150  143.5584  150.9223 H   0  0  0  0  0  0  0  0  0  0  0  0  # atno 10167 bound_to 10162
  156.5148  130.8451  151.2660 H   0  0  0  0  0  0  0  0  0  0  0  0  # atno 10718 bound_to 10713
  152.9886  135.5583  154.5659 H   0  0  0  0  0  0  0  0  0  0  0  0  # atno 10763 bound_to 10752
  154.5069  135.2800  155.1377 H   0  0  0  0  0  0  0  0  0  0  0  0  # atno 10764 bound_to 10752
  154.2785  135.6349  153.5390 H   0  0  0  0  0  0  0  0  0  0  0  0  # atno 10765 bound_to 10752
  140.9639  133.7148  156.1414 H   0  0  0  0  0  0  0  0  0  0  0  0  # atno 11005 bound_to 11000
  146.3290  140.2957  142.8618 LP  0  0  0  0  0  0  0  0  0  0  0  0  # atno 17320 bound_to 7965
  144.9465  140.8133  143.5598 LP  0  0  0  0  0  0  0  0  0  0  0  0  # atno 17321 bound_to 7965
  139.9309  143.6494  152.3076 LP  0  0  0  0  0  0  0  0  0  0  0  0  # atno 17342 bound_to 10162
  139.6944  144.7643  151.1381 LP  0  0  0  0  0  0  0  0  0  0  0  0  # atno 17343 bound_to 10162
  157.7445  130.9937  150.2683 LP  0  0  0  0  0  0  0  0  0  0  0  0  # atno 17370 bound_to 10713
  156.3206  130.3785  149.7579 LP  0  0  0  0  0  0  0  0  0  0  0  0  # atno 17371 bound_to 10713
  140.7427  134.4132  157.5552 LP  0  0  0  0  0  0  0  0  0  0  0  0  # atno 17394 bound_to 11000
  139.8888  134.8847  156.2456 LP  0  0  0  0  0  0  0  0  0  0  0  0  # atno 17395 bound_to 11000

$$$$
