AV-unprocessed.smi:1781|AV-procd|sdf|7187|dock2
  -GOLD-   22720 8423D 1   1.00000     0.00000
 Structure written by MMmdl.
 38 39  0  0  0  0  0  0  0  0  1 V2000
  156.6819  134.1875  160.8594 C   0  0  0  0  0  0  0  0  0  0  0  0
  155.6884  135.2995  161.2035 C   0  0  0  0  0  0  0  0  0  0  0  0
  154.3813  134.7526  161.2470 O   0  0  0  0  0  0  0  0  0  0  0  0
  153.4618  135.5847  161.9382 C   0  0  0  0  0  0  0  0  0  0  0  0
  153.1151  136.8004  161.0762 C   0  0  0  0  0  0  0  0  0  0  0  0
  152.6423  136.6458  159.9494 O   0  0  0  0  0  0  0  0  0  0  0  0
  153.3685  137.9955  161.6424 N   0  0  0  0  0  0  0  0  0  0  0  0
  153.1681  139.2911  161.0958 C   0  0  0  0  0  0  0  0  0  0  0  0
  153.3760  140.3593  161.9968 C   0  0  0  0  0  0  0  0  0  0  0  0
  153.2069  141.6846  161.5520 C   0  0  0  0  0  0  0  0  0  0  0  0
  152.8301  141.9151  160.2151 C   0  0  0  0  0  0  0  0  0  0  0  0
  152.6636  143.2289  159.7541 N   0  0  0  0  0  0  0  0  0  0  0  0
  152.4788  143.3069  158.3106 C   0  0  0  0  0  0  0  0  0  0  0  0
  152.4320  144.7789  157.8635 C   0  0  0  0  0  0  0  0  0  0  0  0
  151.4114  145.4671  158.5817 O   0  0  0  0  0  0  0  0  0  0  0  0
  151.6409  145.4476  159.9881 C   0  0  0  0  0  0  0  0  0  0  0  0
  151.6600  143.9918  160.4863 C   0  0  0  0  0  0  0  0  0  0  0  0
  152.6449  140.7884  159.3835 C   0  0  0  0  0  0  0  0  0  0  0  0
  152.8080  139.5181  159.8085 N   0  0  0  0  0  0  0  0  0  0  0  0
  157.7002  134.5739  160.8159 H   0  0  0  0  0  0  0  0  0  0  0  0
  156.4510  133.7421  159.8914 H   0  0  0  0  0  0  0  0  0  0  0  0
  156.6564  133.3954  161.6080 H   0  0  0  0  0  0  0  0  0  0  0  0
  155.9437  135.7398  162.1684 H   0  0  0  0  0  0  0  0  0  0  0  0
  155.7413  136.0905  160.4540 H   0  0  0  0  0  0  0  0  0  0  0  0
  152.5505  135.0299  162.1675 H   0  0  0  0  0  0  0  0  0  0  0  0
  153.8942  135.9277  162.8795 H   0  0  0  0  0  0  0  0  0  0  0  0
  153.7542  137.9726  162.5749 H   0  0  0  0  0  0  0  0  0  0  0  0
  153.6634  140.1704  163.0209 H   0  0  0  0  0  0  0  0  0  0  0  0
  153.3642  142.5106  162.2306 H   0  0  0  0  0  0  0  0  0  0  0  0
  153.2931  142.7881  157.8033 H   0  0  0  0  0  0  0  0  0  0  0  0
  151.5510  142.8058  158.0307 H   0  0  0  0  0  0  0  0  0  0  0  0
  153.3955  145.2650  158.0255 H   0  0  0  0  0  0  0  0  0  0  0  0
  152.2191  144.8408  156.7961 H   0  0  0  0  0  0  0  0  0  0  0  0
  152.5806  145.9512  160.2212 H   0  0  0  0  0  0  0  0  0  0  0  0
  150.8477  146.0051  160.4862 H   0  0  0  0  0  0  0  0  0  0  0  0
  150.6750  143.5450  160.3465 H   0  0  0  0  0  0  0  0  0  0  0  0
  151.8809  143.9641  161.5540 H   0  0  0  0  0  0  0  0  0  0  0  0
  152.3657  140.9041  158.3466 H   0  0  0  0  0  0  0  0  0  0  0  0
  1  2  1  0  0  0  0
  1 20  1  0  0  0  0
  1 21  1  0  0  0  0
  1 22  1  0  0  0  0
  2  3  1  0  0  0  0
  2 23  1  0  0  0  0
  2 24  1  0  0  0  0
  3  4  1  0  0  0  0
  4  5  1  0  0  0  0
  4 25  1  0  0  0  0
  4 26  1  0  0  0  0
  5  6  2  0  0  0  0
  5  7  1  0  0  0  0
  7  8  1  0  0  0  0
  7 27  1  0  0  0  0
  8 19  1  0  0  0  0
  8  9  2  0  0  0  0
  9 10  1  0  0  0  0
  9 28  1  0  0  0  0
 10 11  2  0  0  0  0
 10 29  1  0  0  0  0
 11 12  1  0  0  0  0
 11 18  1  0  0  0  0
 12 17  1  0  0  0  0
 12 13  1  0  0  0  0
 13 14  1  0  0  0  0
 13 30  1  0  0  0  0
 13 31  1  0  0  0  0
 14 15  1  0  0  0  0
 14 32  1  0  0  0  0
 14 33  1  0  0  0  0
 15 16  1  0  0  0  0
 16 17  1  0  0  0  0
 16 34  1  0  0  0  0
 16 35  1  0  0  0  0
 17 36  1  0  0  0  0
 17 37  1  0  0  0  0
 18 19  2  0  0  0  0
 18 38  1  0  0  0  0
M  END
> <s_m_source_file>
AV-unprocessed.smi

> <i_m_source_file_index>
1781

> <i_lp_mmshare_version>
43012

> <i_f3d_flags>
0

> <s_epik_input>
W0NIM11bQ0gyXU9bQ0gyXUMoPU8pW05IXWMxW2NIXVtjSF1jKFtjSF1uMSlOMltDSDJdW0NIMl1PW0NIMl1bQ0gyXTI=

> <s_epik_cmdline>
J2VwaWtfcHl0aG9uJywgJy1waCcsICc3LjAnLCAnLXRuJywgJzgnLCAnLW1hJywgJzIwMCcsICctbWV0YWxfYmluZGluZycsICctaW1hZScsICc8aW5maWxlLm1hZT4nLCAnLW9tYWUnLCAnPG91dGZpbGUubWFlPic=

> <r_lp_tautomer_probability>
1

> <r_epik_Ionization_Penalty>
0.00358585

> <r_epik_Ionization_Penalty_Charging>
0

> <r_epik_Ionization_Penalty_Neutral>
0.00358585

> <r_epik_State_Penalty>
0.00535288

> <r_epik_Charging_Adjusted_Penalty>
0.00535288

> <i_epik_Tot_Q>
0

> <i_epik_Tot_abs_Q>
0

> <r_epik_Metal_State_Penalty>
-0

> <b_epik_Metal_Only>
0

> <s_lp_Force_Field>
OPLS_2005

> <r_lp_Energy>
27.8059

> <b_lp_Chiralities_Consistent>
1

> <s_lp_Variant>
AV-unprocessed.smi:1781-1

> <Gold.Version>
5.8.1

> <Gold.Id.Protein>
6NUR|6NUR_protein|mol2

> <Gold.PLP.Fitness>
38.6273

> <Gold.PLP.PLP>
-36.2185

> <Gold.PLP.part.hbond>
-1.6279

> <Gold.PLP.part.metal>
0.0000

> <Gold.PLP.part.buried>
-5.2570

> <Gold.PLP.part.nonpolar>
-28.5636

> <Gold.PLP.part.repulsive>
0.1476

> <Gold.PLP.ligand.clash>
0.2732

> <Gold.PLP.ligand.torsion>
0.2163

> <Gold.PLP.Chemscore.Hbond>
1.0000

> <Gold.PLP.Chemscore.CHOScore>
0.0000

> <Gold.PLP.Chemscore.Metal>
0.0000

> <Gold.Chemscore.Hbonds>
donor molecule, donor type, donor heavy atom, donor atom, acceptor molecule, acceptor atom, score
      P1  H  6896  6908       L1     6  1.00

> <Gold.PLP.Chemscore.Internal.Correction>
0.1145

> <Gold.Rescore>
     Score         DG    S(hbond)    S(metal)    S(lipo)     H(rot)  DE(clash)    DE(int)     intcor
     13.89     -16.04       1.00        0.00      96.05       1.56       0.06       2.10       ----

> <Gold.Chemscore.Fitness>
13.8852

> <Gold.Chemscore.DG>
-16.0430

> <Gold.Chemscore.ZeroCoef>
-5.4800

> <Gold.Chemscore.Hbond>
0.9967

> <Gold.Chemscore.Metal>
0.0000

> <Gold.Chemscore.Lipo>
96.0471

> <Gold.Chemscore.Internal_Hbond>
0.0000

> <Gold.Chemscore.DEClash>
0.0552

> <Gold.Chemscore.DEInternal>
2.1026

> <Gold.Chemscore.Rot>
1.5639

> <Gold.Chemscore.Internal.Correction>
   9.000000E+99

> <Gold.Chemscore.Hbonds>
donor molecule, donor type, donor heavy atom, donor atom, acceptor molecule, acceptor atom, score
      P1  H  6896  6908       L1     6  0.45

> <Gold.Chemscore.Hbond.Weighted>
-3.3291

> <Gold.Chemscore.Metal.Weighted>
-0.0000

> <Gold.Chemscore.Lipo.Weighted>
-11.2375

> <Gold.Chemscore.Internal_Hbond.Weighted>
0.0000

> <Gold.Chemscore.DEClash.Weighted>
0.0552

> <Gold.Chemscore.DEInternal.Weighted>
2.1026

> <Gold.Chemscore.Rot.Weighted>
4.0036

> <Gold.Chemscore.Internal.Correction.Weighted>
   9.000000E+99

> <Gold.Protein.RotatedTorsions>
[ 6907 6896 6895 6894 ] final -105.41 input  -60.11 | X-H torsion
[ 7974 7965 7964 7962 ] final   32.83 input  175.53 | X-H torsion
[ 8008 7997 7996 7995 ] final  111.42 input   59.86 | X-H torsion
[ 10167 10162 10161 10158 ] final   37.75 input  -65.29 | X-H torsion
[ 10718 10713 10712 10709 ] final -120.24 input   66.30 | X-H torsion
[ 10763 10752 10751 10750 ] final  -38.96 input  -60.55 | X-H torsion
[ 11005 11000 10999 10996 ] final   69.62 input  -57.11 | X-H torsion

> <Gold.Protein.ActiveResidues>
 VAL166  LYS551  ARG553  GLY616  TRP617  ASP618  TYR619  PRO620  LYS621  CYS622 
 ASP623  PHE694  ASN695  SER759  ASP760  ASP761  ALA762  ILE779  LEU786  VAL792 
 PHE793  MET794  SER795  GLU796  ALA797  LYS798  CYS799  TRP800  GLU811  SER814 

> <Gold.Protein.RotatedAtoms>
  150.7335  134.0131  159.3676 H   0  0  0  0  0  0  0  0  0  0  0  0  # atno 6907 bound_to 6896
  151.8092  135.0684  160.0420 H   0  0  0  0  0  0  0  0  0  0  0  0  # atno 6908 bound_to 6896
  152.3085  133.5692  159.5701 H   0  0  0  0  0  0  0  0  0  0  0  0  # atno 6909 bound_to 6896
  146.1461  139.6476  142.9130 H   0  0  0  0  0  0  0  0  0  0  0  0  # atno 7974 bound_to 7965
  156.2123  140.3019  155.9759 H   0  0  0  0  0  0  0  0  0  0  0  0  # atno 8008 bound_to 7997
  155.2694  140.0433  157.3022 H   0  0  0  0  0  0  0  0  0  0  0  0  # atno 8009 bound_to 7997
  154.5717  140.2350  155.8191 H   0  0  0  0  0  0  0  0  0  0  0  0  # atno 8010 bound_to 7997
  140.4003  144.1733  150.6133 H   0  0  0  0  0  0  0  0  0  0  0  0  # atno 10167 bound_to 10162
  156.1243  130.6347  150.9516 H   0  0  0  0  0  0  0  0  0  0  0  0  # atno 10718 bound_to 10713
  153.9214  135.6782  153.4747 H   0  0  0  0  0  0  0  0  0  0  0  0  # atno 10763 bound_to 10752
  153.1026  135.4820  154.8892 H   0  0  0  0  0  0  0  0  0  0  0  0  # atno 10764 bound_to 10752
  154.7476  135.3176  154.8573 H   0  0  0  0  0  0  0  0  0  0  0  0  # atno 10765 bound_to 10752
  139.9643  134.7007  156.0579 H   0  0  0  0  0  0  0  0  0  0  0  0  # atno 11005 bound_to 11000
  145.4934  141.0438  143.2580 LP  0  0  0  0  0  0  0  0  0  0  0  0  # atno 17320 bound_to 7965
  144.7848  139.6450  143.7139 LP  0  0  0  0  0  0  0  0  0  0  0  0  # atno 17321 bound_to 7965
  140.4747  143.2400  151.9040 LP  0  0  0  0  0  0  0  0  0  0  0  0  # atno 17342 bound_to 10162
  139.4785  144.5333  151.8635 LP  0  0  0  0  0  0  0  0  0  0  0  0  # atno 17343 bound_to 10162
  157.6425  131.0908  150.8221 LP  0  0  0  0  0  0  0  0  0  0  0  0  # atno 17370 bound_to 10713
  156.8314  130.5017  149.5331 LP  0  0  0  0  0  0  0  0  0  0  0  0  # atno 17371 bound_to 10713
  141.1322  133.6583  156.3496 LP  0  0  0  0  0  0  0  0  0  0  0  0  # atno 17394 bound_to 11000
  140.5431  134.6101  157.5385 LP  0  0  0  0  0  0  0  0  0  0  0  0  # atno 17395 bound_to 11000

$$$$
