AV-unprocessed.smi:3246|AV-procd|sdf|12411|dock6
  -GOLD-   2272018293D 1   1.00000     0.00000
 Structure written by MMmdl.
 36 37  0  0  0  0  0  0  0  0  2 V2000
  146.8965  127.5572  152.6511 O   0  0  0  0  0  0  0  0  0  0  0  0
  147.4618  128.1598  151.7391 C   0  0  0  0  0  0  0  0  0  0  0  0
  148.4093  127.3832  150.8097 C   0  0  0  0  0  0  0  0  0  0  0  0
  148.5624  125.9609  151.1268 N   0  0  0  0  0  0  0  0  0  0  0  0
  148.2369  124.9436  150.1406 C   0  0  0  0  0  0  0  0  0  0  0  0
  148.7304  123.6241  150.7511 C   0  0  0  0  0  0  0  0  0  0  0  0
  149.0011  123.9242  152.2294 C   0  0  0  0  0  0  0  0  0  0  0  0
  148.9731  125.4417  152.2907 C   0  0  0  0  0  0  0  0  0  0  0  0
  149.3003  126.0764  153.2921 O   0  0  0  0  0  0  0  0  0  0  0  0
  147.2793  129.4731  151.5178 N   0  0  0  0  0  0  0  0  0  0  0  0
  146.4189  130.3449  152.3076 C   0  0  0  0  0  0  0  0  0  0  0  0
  145.0591  130.5628  151.6247 C   0  0  0  0  0  0  0  0  0  0  0  0
  144.8236  132.0186  151.2739 C   0  0  0  0  0  0  0  0  0  0  0  0
  145.8371  132.9818  151.4745 C   0  0  0  0  0  0  0  0  0  0  0  0
  145.5858  134.3292  151.1411 C   0  0  0  0  0  0  0  0  0  0  0  0
  144.3263  134.6829  150.6145 C   0  0  0  0  0  0  0  0  0  0  0  0
  143.3806  133.7338  150.4380 N   0  3  0  0  0  0  0  0  0  0  0  0
  143.5821  132.4334  150.7449 C   0  0  0  0  0  0  0  0  0  0  0  0
  148.0548  127.4904  149.7832 H   0  0  0  0  0  0  0  0  0  0  0  0
  149.3888  127.8621  150.8422 H   0  0  0  0  0  0  0  0  0  0  0  0
  147.1571  124.9236  149.9866 H   0  0  0  0  0  0  0  0  0  0  0  0
  148.7159  125.1503  149.1826 H   0  0  0  0  0  0  0  0  0  0  0  0
  148.0009  122.8237  150.6239 H   0  0  0  0  0  0  0  0  0  0  0  0
  149.6531  123.3074  150.2629 H   0  0  0  0  0  0  0  0  0  0  0  0
  148.2152  123.5206  152.8685 H   0  0  0  0  0  0  0  0  0  0  0  0
  149.9617  123.5289  152.5614 H   0  0  0  0  0  0  0  0  0  0  0  0
  147.7814  129.8977  150.7512 H   0  0  0  0  0  0  0  0  0  0  0  0
  146.2844  129.9283  153.3076 H   0  0  0  0  0  0  0  0  0  0  0  0
  146.9295  131.2997  152.4357 H   0  0  0  0  0  0  0  0  0  0  0  0
  144.9955  129.9604  150.7174 H   0  0  0  0  0  0  0  0  0  0  0  0
  144.2500  130.2250  152.2740 H   0  0  0  0  0  0  0  0  0  0  0  0
  146.7962  132.6937  151.8801 H   0  0  0  0  0  0  0  0  0  0  0  0
  146.3484  135.0802  151.2869 H   0  0  0  0  0  0  0  0  0  0  0  0
  144.0486  135.6881  150.3324 H   0  0  0  0  0  0  0  0  0  0  0  0
  142.7496  131.7695  150.5604 H   0  0  0  0  0  0  0  0  0  0  0  0
  142.4755  134.0110  150.0563 H   0  0  0  0  0  0  0  0  0  0  0  0
  1  2  2  0  0  0  0
  2  3  1  0  0  0  0
  2 10  1  0  0  0  0
  3  4  1  0  0  0  0
  3 19  1  0  0  0  0
  3 20  1  0  0  0  0
  4  8  1  0  0  0  0
  4  5  1  0  0  0  0
  5  6  1  0  0  0  0
  5 21  1  0  0  0  0
  5 22  1  0  0  0  0
  6  7  1  0  0  0  0
  6 23  1  0  0  0  0
  6 24  1  0  0  0  0
  7  8  1  0  0  0  0
  7 25  1  0  0  0  0
  7 26  1  0  0  0  0
  8  9  2  0  0  0  0
 10 11  1  0  0  0  0
 10 27  1  0  0  0  0
 11 12  1  0  0  0  0
 11 28  1  0  0  0  0
 11 29  1  0  0  0  0
 12 13  1  0  0  0  0
 12 30  1  0  0  0  0
 12 31  1  0  0  0  0
 13 18  1  0  0  0  0
 13 14  2  0  0  0  0
 14 15  1  0  0  0  0
 14 32  1  0  0  0  0
 15 16  2  0  0  0  0
 15 33  1  0  0  0  0
 16 17  1  0  0  0  0
 16 34  1  0  0  0  0
 17 18  2  0  0  0  0
 17 36  1  0  0  0  0
 18 35  1  0  0  0  0
M  CHG  1  17   1
M  END
> <s_m_source_file>
AV-unprocessed.smi

> <i_m_source_file_index>
3246

> <i_lp_mmshare_version>
43012

> <i_f3d_flags>
0

> <s_epik_input>
Tz1DMVtDSDJdW0NIMl1bQ0gyXU4xW0NIMl1DKD1PKVtOSF1bQ0gyXVtDSDJdYzJbY0hdW2NIXVtjSF1uW2NIXTI=

> <s_epik_cmdline>
J2VwaWtfcHl0aG9uJywgJy1waCcsICc3LjAnLCAnLXRuJywgJzgnLCAnLW1hJywgJzIwMCcsICctbWV0YWxfYmluZGluZycsICctaW1hZScsICc8aW5maWxlLm1hZT4nLCAnLW9tYWUnLCAnPG91dGZpbGUubWFlPic=

> <r_epik_Ionization_Penalty>
2.27275

> <r_epik_Ionization_Penalty_Charging>
2.27275

> <r_epik_Ionization_Penalty_Neutral>
5.87859e-08

> <r_epik_State_Penalty>
2.42145

> <r_epik_Charging_Adjusted_Penalty>
4.69419

> <i_epik_Tot_Q>
1

> <i_epik_Tot_abs_Q>
1

> <r_epik_Metal_State_Penalty>
2.43419

> <b_epik_Metal_Only>
0

> <s_lp_Force_Field>
OPLS_2005

> <r_lp_Energy>
18.8936

> <b_lp_Chiralities_Consistent>
1

> <s_lp_Variant>
AV-unprocessed.smi:3246-2

> <Gold.Version>
5.8.1

> <Gold.Id.Protein>
6NUR|6NUR_protein|mol2

> <Gold.PLP.Fitness>
47.1640

> <Gold.PLP.PLP>
-39.2572

> <Gold.PLP.part.hbond>
-2.1535

> <Gold.PLP.part.metal>
0.0000

> <Gold.PLP.part.buried>
-5.6488

> <Gold.PLP.part.nonpolar>
-31.6921

> <Gold.PLP.part.repulsive>
0.1916

> <Gold.PLP.ligand.clash>
0.0000

> <Gold.PLP.ligand.torsion>
0.5545

> <Gold.PLP.Chemscore.Hbond>
3.0000

> <Gold.PLP.Chemscore.CHOScore>
0.0000

> <Gold.PLP.Chemscore.Metal>
0.0000

> <Gold.Chemscore.Hbonds>
donor molecule, donor type, donor heavy atom, donor atom, acceptor molecule, acceptor atom, score
      L1  H    10    27       P1 10747  0.98
      L1  H    17    36       P1 10186  2.00

> <Gold.PLP.Chemscore.Internal.Correction>
0.0158

> <Gold.Rescore>
     Score         DG    S(hbond)    S(metal)    S(lipo)     H(rot)  DE(clash)    DE(int)     intcor
     15.60     -16.35       1.96        0.00      79.66       1.96       0.05       0.70       ----

> <Gold.Chemscore.Fitness>
15.6034

> <Gold.Chemscore.DG>
-16.3499

> <Gold.Chemscore.ZeroCoef>
-5.4800

> <Gold.Chemscore.Hbond>
1.9647

> <Gold.Chemscore.Metal>
0.0000

> <Gold.Chemscore.Lipo>
79.6558

> <Gold.Chemscore.Internal_Hbond>
0.0000

> <Gold.Chemscore.DEClash>
0.0504

> <Gold.Chemscore.DEInternal>
0.6960

> <Gold.Chemscore.Rot>
1.9579

> <Gold.Chemscore.Internal.Correction>
   9.000000E+99

> <Gold.Chemscore.Hbonds>
donor molecule, donor type, donor heavy atom, donor atom, acceptor molecule, acceptor atom, score
      L1  H    10    27       P1 10747  0.90
      L1  H    17    36       P1 10186  0.98

> <Gold.Chemscore.Hbond.Weighted>
-6.5622

> <Gold.Chemscore.Metal.Weighted>
-0.0000

> <Gold.Chemscore.Lipo.Weighted>
-9.3197

> <Gold.Chemscore.Internal_Hbond.Weighted>
0.0000

> <Gold.Chemscore.DEClash.Weighted>
0.0504

> <Gold.Chemscore.DEInternal.Weighted>
0.6960

> <Gold.Chemscore.Rot.Weighted>
5.0121

> <Gold.Chemscore.Internal.Correction.Weighted>
   9.000000E+99

> <Gold.Protein.RotatedTorsions>
[ 6907 6896 6895 6894 ] final   80.53 input  -60.11 | X-H torsion
[ 7974 7965 7964 7962 ] final   -3.97 input  175.53 | X-H torsion
[ 8008 7997 7996 7995 ] final  123.05 input   59.86 | X-H torsion
[ 10167 10162 10161 10158 ] final  113.05 input  -65.29 | X-H torsion
[ 10718 10713 10712 10709 ] final  177.35 input   66.30 | X-H torsion
[ 10763 10752 10751 10750 ] final -144.04 input  -60.55 | X-H torsion
[ 11005 11000 10999 10996 ] final  120.79 input  -57.11 | X-H torsion

> <Gold.Protein.ActiveResidues>
 VAL166  LYS551  ARG553  GLY616  TRP617  ASP618  TYR619  PRO620  LYS621  CYS622 
 ASP623  PHE694  ASN695  SER759  ASP760  ASP761  ALA762  ILE779  LEU786  VAL792 
 PHE793  MET794  SER795  GLU796  ALA797  LYS798  CYS799  TRP800  GLU811  SER814 

> <Gold.Protein.RotatedAtoms>
  152.5238  134.3343  159.9194 H   0  0  0  0  0  0  0  0  0  0  0  0  # atno 6907 bound_to 6896
  151.3293  133.4001  159.2669 H   0  0  0  0  0  0  0  0  0  0  0  0  # atno 6908 bound_to 6896
  150.9894  134.9250  159.7948 H   0  0  0  0  0  0  0  0  0  0  0  0  # atno 6909 bound_to 6896
  146.2380  140.1801  142.8332 H   0  0  0  0  0  0  0  0  0  0  0  0  # atno 7974 bound_to 7965
  156.2751  140.2772  156.1566 H   0  0  0  0  0  0  0  0  0  0  0  0  # atno 8008 bound_to 7997
  155.0798  140.0387  157.2653 H   0  0  0  0  0  0  0  0  0  0  0  0  # atno 8009 bound_to 7997
  154.6973  140.2642  155.6759 H   0  0  0  0  0  0  0  0  0  0  0  0  # atno 8010 bound_to 7997
  139.6490  144.7127  151.2086 H   0  0  0  0  0  0  0  0  0  0  0  0  # atno 10167 bound_to 10162
  156.9067  130.9896  151.3027 H   0  0  0  0  0  0  0  0  0  0  0  0  # atno 10718 bound_to 10713
  154.8445  135.3451  154.6282 H   0  0  0  0  0  0  0  0  0  0  0  0  # atno 10763 bound_to 10752
  153.6892  135.6976  153.5099 H   0  0  0  0  0  0  0  0  0  0  0  0  # atno 10764 bound_to 10752
  153.2608  135.4323  155.0847 H   0  0  0  0  0  0  0  0  0  0  0  0  # atno 10765 bound_to 10752
  139.9199  134.9636  156.7860 H   0  0  0  0  0  0  0  0  0  0  0  0  # atno 11005 bound_to 11000
  144.9941  140.8573  143.5321 LP  0  0  0  0  0  0  0  0  0  0  0  0  # atno 17320 bound_to 7965
  145.1811  139.2351  143.5292 LP  0  0  0  0  0  0  0  0  0  0  0  0  # atno 17321 bound_to 7965
  140.7528  143.6182  150.8539 LP  0  0  0  0  0  0  0  0  0  0  0  0  # atno 17342 bound_to 10162
  139.9828  143.5932  152.2937 LP  0  0  0  0  0  0  0  0  0  0  0  0  # atno 17343 bound_to 10162
  157.5993  130.8500  149.8777 LP  0  0  0  0  0  0  0  0  0  0  0  0  # atno 17370 bound_to 10713
  156.0556  130.3709  150.1100 LP  0  0  0  0  0  0  0  0  0  0  0  0  # atno 17371 bound_to 10713
  140.6505  133.9735  155.7753 LP  0  0  0  0  0  0  0  0  0  0  0  0  # atno 17394 bound_to 11000
  141.0711  134.0204  157.3525 LP  0  0  0  0  0  0  0  0  0  0  0  0  # atno 17395 bound_to 11000

$$$$
