AV-unprocessed.smi:2124|AV-procd|sdf|8663|dock2
  -GOLD-   2272011413D 1   1.00000     0.00000
 Structure written by MMmdl.
 47 49  0  0  0  0  0  0  0  0  1 V2000
  157.5564  137.7657  162.6932 C   0  0  0  0  0  0  0  0  0  0  0  0
  156.2695  137.8209  161.8991 C   0  0  0  0  0  0  0  0  0  0  0  0
  155.7298  139.0931  161.8029 N   0  0  0  0  0  0  0  0  0  0  0  0
  154.5519  139.2446  161.0931 C   0  0  0  0  0  0  0  0  0  0  0  0
  154.0269  140.6687  161.0384 C   0  0  0  0  0  0  0  0  0  0  0  0
  153.9411  138.1816  160.5107 C   0  0  0  0  0  0  0  0  0  0  0  0
  152.6352  138.3042  159.7261 C   0  0  0  0  0  0  0  0  0  0  0  0
  152.5565  139.4543  158.7182 C   0  0  0  0  0  0  0  0  0  0  0  0
  153.3554  139.5271  157.7839 O   0  0  0  0  0  0  0  0  0  0  0  0
  151.5782  140.3490  158.9237 N   0  0  0  0  0  0  0  0  0  0  0  0
  151.3208  141.5285  158.1003 C   0  0  1  0  0  0  0  0  0  0  0  0
  150.0437  141.2955  157.2724 C   0  0  0  0  0  0  0  0  0  0  0  0
  151.2159  142.7861  158.9972 C   0  0  2  0  0  0  0  0  0  0  0  0
  150.7723  144.0571  158.2319 C   0  0  0  0  0  0  0  0  0  0  0  0
  151.8732  145.0787  158.5688 C   0  0  1  0  0  0  0  0  0  0  0  0
  151.7651  145.4842  160.0498 C   0  0  0  0  0  0  0  0  0  0  0  0
  152.2586  144.2222  160.7814 C   0  0  0  0  0  0  0  0  0  0  0  0
  152.5573  143.2515  159.6222 C   0  0  2  0  0  0  0  0  0  0  0  0
  153.1173  144.2011  158.5681 C   0  0  0  0  0  0  0  0  0  0  0  0
  154.5638  136.8443  160.6527 C   0  0  0  0  0  0  0  0  0  0  0  0
  154.0526  135.8405  160.1582 O   0  0  0  0  0  0  0  0  0  0  0  0
  155.7622  136.7454  161.3778 N   0  0  0  0  0  0  0  0  0  0  0  0
  156.1490  139.9099  162.2235 H   0  0  0  0  0  0  0  0  0  0  0  0
  157.9131  136.7393  162.7875 H   0  0  0  0  0  0  0  0  0  0  0  0
  157.4021  138.1651  163.6961 H   0  0  0  0  0  0  0  0  0  0  0  0
  158.3318  138.3528  162.2004 H   0  0  0  0  0  0  0  0  0  0  0  0
  153.0175  140.7196  161.4473 H   0  0  0  0  0  0  0  0  0  0  0  0
  154.0005  141.0251  160.0084 H   0  0  0  0  0  0  0  0  0  0  0  0
  154.6554  141.3510  161.6125 H   0  0  0  0  0  0  0  0  0  0  0  0
  151.7869  138.3825  160.4072 H   0  0  0  0  0  0  0  0  0  0  0  0
  152.4700  137.3730  159.1838 H   0  0  0  0  0  0  0  0  0  0  0  0
  150.9697  140.2088  159.7173 H   0  0  0  0  0  0  0  0  0  0  0  0
  152.1567  141.6665  157.4123 H   0  0  0  0  0  0  0  0  0  0  0  0
  149.8336  142.1353  156.6106 H   0  0  0  0  0  0  0  0  0  0  0  0
  149.1745  141.1554  157.9158 H   0  0  0  0  0  0  0  0  0  0  0  0
  150.1373  140.4083  156.6453 H   0  0  0  0  0  0  0  0  0  0  0  0
  150.5035  142.5701  159.7954 H   0  0  0  0  0  0  0  0  0  0  0  0
  150.7461  143.8888  157.1546 H   0  0  0  0  0  0  0  0  0  0  0  0
  149.7821  144.3989  158.5355 H   0  0  0  0  0  0  0  0  0  0  0  0
  151.9066  145.9265  157.8839 H   0  0  0  0  0  0  0  0  0  0  0  0
  152.4138  146.3330  160.2695 H   0  0  0  0  0  0  0  0  0  0  0  0
  150.7473  145.7581  160.3300 H   0  0  0  0  0  0  0  0  0  0  0  0
  153.1655  144.4387  161.3478 H   0  0  0  0  0  0  0  0  0  0  0  0
  151.5185  143.8275  161.4783 H   0  0  0  0  0  0  0  0  0  0  0  0
  153.2315  142.4455  159.9115 H   0  0  0  0  0  0  0  0  0  0  0  0
  153.3111  143.7227  157.6067 H   0  0  0  0  0  0  0  0  0  0  0  0
  154.0174  144.7263  158.8930 H   0  0  0  0  0  0  0  0  0  0  0  0
  1 24  1  0  0  0  0
  1 25  1  0  0  0  0
  1 26  1  0  0  0  0
  1  2  1  0  0  0  0
  2  3  1  0  0  0  0
  2 22  2  0  0  0  0
  3  4  1  0  0  0  0
  3 23  1  0  0  0  0
  4  6  2  0  0  0  0
  4  5  1  0  0  0  0
  5 27  1  0  0  0  0
  5 28  1  0  0  0  0
  5 29  1  0  0  0  0
  6 20  1  0  0  0  0
  6  7  1  0  0  0  0
  7  8  1  0  0  0  0
  7 30  1  0  0  0  0
  7 31  1  0  0  0  0
  8  9  2  0  0  0  0
  8 10  1  0  0  0  0
 10 11  1  0  0  0  0
 10 32  1  0  0  0  0
 11 12  1  0  0  0  0
 11 13  1  0  0  0  0
 11 33  1  0  0  0  0
 12 34  1  0  0  0  0
 12 35  1  0  0  0  0
 12 36  1  0  0  0  0
 13 18  1  0  0  0  0
 13 14  1  0  0  0  0
 13 37  1  0  0  0  0
 14 15  1  0  0  0  0
 14 38  1  0  0  0  0
 14 39  1  0  0  0  0
 15 19  1  0  0  0  0
 15 16  1  0  0  0  0
 15 40  1  0  0  0  0
 16 17  1  0  0  0  0
 16 41  1  0  0  0  0
 16 42  1  0  0  0  0
 17 18  1  0  0  0  0
 17 43  1  0  0  0  0
 17 44  1  0  0  0  0
 18 19  1  0  0  0  0
 18 45  1  0  0  0  0
 19 46  1  0  0  0  0
 19 47  1  0  0  0  0
 20 21  2  0  0  0  0
 20 22  1  0  0  0  0
M  END
> <s_m_source_file>
AV-unprocessed.smi

> <i_m_source_file_index>
2124

> <i_lp_mmshare_version>
43012

> <i_f3d_flags>
0

> <s_epik_input>
W0NIM11jMW5jKFtDSDNdKWMoYyg9TylbbkhdMSlbQ0gyXUMoPU8pW05IXVtDQEhdKFtDSDNdKVtDQEhdKFtDSDJdW0NASF0yMylbQ0BIXShbQ0gyXTMpW0NIMl1bQ0gyXTI=

> <s_epik_cmdline>
J2VwaWtfcHl0aG9uJywgJy1waCcsICc3LjAnLCAnLXRuJywgJzgnLCAnLW1hJywgJzIwMCcsICctbWV0YWxfYmluZGluZycsICctaW1hZScsICc8aW5maWxlLm1hZT4nLCAnLW9tYWUnLCAnPG91dGZpbGUubWFlPic=

> <r_lp_tautomer_probability>
0.156392

> <r_epik_Ionization_Penalty>
0.0139374

> <r_epik_Ionization_Penalty_Charging>
0.0138122

> <r_epik_Ionization_Penalty_Neutral>
0.000125146

> <r_epik_State_Penalty>
1.15342

> <r_epik_Charging_Adjusted_Penalty>
1.16723

> <i_epik_Tot_Q>
0

> <i_epik_Tot_abs_Q>
0

> <r_epik_Metal_State_Penalty>
1.3173

> <b_epik_Metal_Only>
0

> <s_lp_Force_Field>
OPLS_2005

> <r_lp_Energy>
55.952

> <b_lp_Chiralities_Consistent>
1

> <s_lp_Variant>
AV-unprocessed.smi:2124-14

> <Gold.Version>
5.8.1

> <Gold.Id.Protein>
6NUR|6NUR_protein|mol2

> <Gold.PLP.Fitness>
46.4470

> <Gold.PLP.PLP>
-41.1784

> <Gold.PLP.part.hbond>
-2.0000

> <Gold.PLP.part.metal>
0.0000

> <Gold.PLP.part.buried>
-5.5115

> <Gold.PLP.part.nonpolar>
-33.4050

> <Gold.PLP.part.repulsive>
0.1674

> <Gold.PLP.ligand.clash>
0.0000

> <Gold.PLP.ligand.torsion>
0.3783

> <Gold.PLP.Chemscore.Hbond>
2.0000

> <Gold.PLP.Chemscore.CHOScore>
0.0000

> <Gold.PLP.Chemscore.Metal>
0.0000

> <Gold.Chemscore.Hbonds>
donor molecule, donor type, donor heavy atom, donor atom, acceptor molecule, acceptor atom, score
      P1  H  6896  6909       L1    21  1.00
      P1  H  7997  8008       L1     9  1.00

> <Gold.PLP.Chemscore.Internal.Correction>
0.0252

> <Gold.Rescore>
     Score         DG    S(hbond)    S(metal)    S(lipo)     H(rot)  DE(clash)    DE(int)     intcor
     22.34     -22.57       2.00        0.00     125.23       1.65       0.03       0.20       ----

> <Gold.Chemscore.Fitness>
22.3412

> <Gold.Chemscore.DG>
-22.5667

> <Gold.Chemscore.ZeroCoef>
-5.4800

> <Gold.Chemscore.Hbond>
1.9961

> <Gold.Chemscore.Metal>
0.0000

> <Gold.Chemscore.Lipo>
125.2344

> <Gold.Chemscore.Internal_Hbond>
0.0000

> <Gold.Chemscore.DEClash>
0.0293

> <Gold.Chemscore.DEInternal>
0.1962

> <Gold.Chemscore.Rot>
1.6534

> <Gold.Chemscore.Internal.Correction>
   9.000000E+99

> <Gold.Chemscore.Hbonds>
donor molecule, donor type, donor heavy atom, donor atom, acceptor molecule, acceptor atom, score
      P1  H  6896  6909       L1    21  0.96
      P1  H  7997  8008       L1     9  0.93

> <Gold.Chemscore.Hbond.Weighted>
-6.6668

> <Gold.Chemscore.Metal.Weighted>
-0.0000

> <Gold.Chemscore.Lipo.Weighted>
-14.6524

> <Gold.Chemscore.Internal_Hbond.Weighted>
0.0000

> <Gold.Chemscore.DEClash.Weighted>
0.0293

> <Gold.Chemscore.DEInternal.Weighted>
0.1962

> <Gold.Chemscore.Rot.Weighted>
4.2326

> <Gold.Chemscore.Internal.Correction.Weighted>
   9.000000E+99

> <Gold.Protein.RotatedTorsions>
[ 6907 6896 6895 6894 ] final -173.59 input  -60.11 | X-H torsion
[ 7974 7965 7964 7962 ] final   96.28 input  175.53 | X-H torsion
[ 8008 7997 7996 7995 ] final  -85.81 input   59.86 | X-H torsion
[ 10167 10162 10161 10158 ] final  166.34 input  -65.29 | X-H torsion
[ 10718 10713 10712 10709 ] final  178.77 input   66.30 | X-H torsion
[ 10763 10752 10751 10750 ] final  152.98 input  -60.55 | X-H torsion
[ 11005 11000 10999 10996 ] final  145.33 input  -57.11 | X-H torsion

> <Gold.Protein.ActiveResidues>
 VAL166  LYS551  ARG553  GLY616  TRP617  ASP618  TYR619  PRO620  LYS621  CYS622 
 ASP623  PHE694  ASN695  SER759  ASP760  ASP761  ALA762  ILE779  LEU786  VAL792 
 PHE793  MET794  SER795  GLU796  ALA797  LYS798  CYS799  TRP800  GLU811  SER814 

> <Gold.Protein.RotatedAtoms>
  151.5587  133.3406  159.2966 H   0  0  0  0  0  0  0  0  0  0  0  0  # atno 6907 bound_to 6896
  150.8435  134.7739  159.6963 H   0  0  0  0  0  0  0  0  0  0  0  0  # atno 6908 bound_to 6896
  152.4498  134.5425  159.9895 H   0  0  0  0  0  0  0  0  0  0  0  0  # atno 6909 bound_to 6896
  145.4410  139.2301  143.3092 H   0  0  0  0  0  0  0  0  0  0  0  0  # atno 7974 bound_to 7965
  154.6449  140.0586  156.9888 H   0  0  0  0  0  0  0  0  0  0  0  0  # atno 8008 bound_to 7997
  155.1460  140.3270  155.4423 H   0  0  0  0  0  0  0  0  0  0  0  0  # atno 8009 bound_to 7997
  156.2548  140.1955  156.6574 H   0  0  0  0  0  0  0  0  0  0  0  0  # atno 8010 bound_to 7997
  139.4923  144.4038  151.9379 H   0  0  0  0  0  0  0  0  0  0  0  0  # atno 10167 bound_to 10162
  156.8857  130.9830  151.3056 H   0  0  0  0  0  0  0  0  0  0  0  0  # atno 10718 bound_to 10713
  154.1288  135.2828  155.3190 H   0  0  0  0  0  0  0  0  0  0  0  0  # atno 10763 bound_to 10752
  154.6370  135.5415  153.7749 H   0  0  0  0  0  0  0  0  0  0  0  0  # atno 10764 bound_to 10752
  153.0288  135.6477  154.1439 H   0  0  0  0  0  0  0  0  0  0  0  0  # atno 10765 bound_to 10752
  140.0703  134.9155  157.1334 H   0  0  0  0  0  0  0  0  0  0  0  0  # atno 11005 bound_to 11000
  146.2556  140.5158  142.8875 LP  0  0  0  0  0  0  0  0  0  0  0  0  # atno 17320 bound_to 7965
  144.8121  140.6404  143.6408 LP  0  0  0  0  0  0  0  0  0  0  0  0  # atno 17321 bound_to 7965
  140.3477  144.3126  150.5955 LP  0  0  0  0  0  0  0  0  0  0  0  0  # atno 17342 bound_to 10162
  140.5511  143.2206  151.7925 LP  0  0  0  0  0  0  0  0  0  0  0  0  # atno 17343 bound_to 10162
  157.6114  130.8586  149.8958 LP  0  0  0  0  0  0  0  0  0  0  0  0  # atno 17370 bound_to 10713
  156.0654  130.3693  150.0889 LP  0  0  0  0  0  0  0  0  0  0  0  0  # atno 17371 bound_to 10713
  140.3637  134.2466  155.7184 LP  0  0  0  0  0  0  0  0  0  0  0  0  # atno 17394 bound_to 11000
  141.2009  133.7975  157.0466 LP  0  0  0  0  0  0  0  0  0  0  0  0  # atno 17395 bound_to 11000

$$$$
