AV-unprocessed.smi:360|AV-procd|sdf|2419|dock8
  -GOLD-   2262022353D 1   1.00000     0.00000
 Structure written by MMmdl.
 37 38  0  0  0  0  0  0  0  0  1 V2000
  154.9529  131.4942  166.9490 C   0  0  0  0  0  0  0  0  0  0  0  0
  154.3336  132.4127  166.1930 C   0  0  0  0  0  0  0  0  0  0  0  0
  154.9977  133.6586  165.6507 C   0  0  0  0  0  0  0  0  0  0  0  0
  154.8565  133.7684  164.2089 N   0  0  0  0  0  0  0  0  0  0  0  0
  154.5746  134.9058  163.4635 C   0  0  0  0  0  0  0  0  0  0  0  0
  154.3713  136.2103  164.0735 C   0  0  0  0  0  0  0  0  0  0  0  0
  154.1132  137.2693  163.3871 N   0  0  0  0  0  0  0  0  0  0  0  0
  154.0212  137.1847  162.0122 N   0  0  0  0  0  0  0  0  0  0  0  0
  153.7161  138.4622  161.3570 C   0  0  0  0  0  0  0  0  0  0  0  0
  154.8832  139.4562  161.4706 C   0  0  0  0  0  0  0  0  0  0  0  0
  154.4450  140.6287  162.1439 O   0  0  0  0  0  0  0  0  0  0  0  0
  153.9157  141.6558  161.3934 C   0  0  0  0  0  0  0  0  0  0  0  0
  153.2119  142.6590  162.0910 C   0  0  0  0  0  0  0  0  0  0  0  0
  152.6357  143.7455  161.4051 C   0  0  0  0  0  0  0  0  0  0  0  0
  152.7599  143.8395  160.0065 C   0  0  0  0  0  0  0  0  0  0  0  0
  152.0553  145.1696  159.1630 Cl  0  0  0  0  0  0  0  0  0  0  0  0
  153.4600  142.8455  159.2974 C   0  0  0  0  0  0  0  0  0  0  0  0
  154.0354  141.7583  159.9840 C   0  0  0  0  0  0  0  0  0  0  0  0
  154.1779  136.0344  161.2918 C   0  0  0  0  0  0  0  0  0  0  0  0
  154.0778  136.0035  160.0646 O   0  0  0  0  0  0  0  0  0  0  0  0
  154.4730  134.8481  162.1086 C   0  0  0  0  0  0  0  0  0  0  0  0
  154.6936  133.3434  161.2791 Cl  0  0  0  0  0  0  0  0  0  0  0  0
  155.9947  131.5968  167.2163 H   0  0  0  0  0  0  0  0  0  0  0  0
  154.4233  130.6251  167.3108 H   0  0  0  0  0  0  0  0  0  0  0  0
  153.2900  132.2785  165.9479 H   0  0  0  0  0  0  0  0  0  0  0  0
  154.5430  134.5311  166.1204 H   0  0  0  0  0  0  0  0  0  0  0  0
  156.0549  133.6548  165.9178 H   0  0  0  0  0  0  0  0  0  0  0  0
  154.9485  132.8997  163.7014 H   0  0  0  0  0  0  0  0  0  0  0  0
  154.4493  136.2488  165.1597 H   0  0  0  0  0  0  0  0  0  0  0  0
  153.5103  138.2781  160.3011 H   0  0  0  0  0  0  0  0  0  0  0  0
  152.8013  138.9078  161.7510 H   0  0  0  0  0  0  0  0  0  0  0  0
  155.7178  138.9934  162.0000 H   0  0  0  0  0  0  0  0  0  0  0  0
  155.2252  139.7187  160.4685 H   0  0  0  0  0  0  0  0  0  0  0  0
  153.1129  142.5946  163.1648 H   0  0  0  0  0  0  0  0  0  0  0  0
  152.0993  144.5052  161.9546 H   0  0  0  0  0  0  0  0  0  0  0  0
  153.5563  142.9140  158.2237 H   0  0  0  0  0  0  0  0  0  0  0  0
  154.5627  141.0152  159.4055 H   0  0  0  0  0  0  0  0  0  0  0  0
  1  2  2  0  0  0  0
  1 23  1  0  0  0  0
  1 24  1  0  0  0  0
  2  3  1  0  0  0  0
  2 25  1  0  0  0  0
  3  4  1  0  0  0  0
  3 26  1  0  0  0  0
  3 27  1  0  0  0  0
  4  5  1  0  0  0  0
  4 28  1  0  0  0  0
  5 21  2  0  0  0  0
  5  6  1  0  0  0  0
  6  7  2  0  0  0  0
  6 29  1  0  0  0  0
  7  8  1  0  0  0  0
  8  9  1  0  0  0  0
  8 19  1  0  0  0  0
  9 10  1  0  0  0  0
  9 30  1  0  0  0  0
  9 31  1  0  0  0  0
 10 11  1  0  0  0  0
 10 32  1  0  0  0  0
 10 33  1  0  0  0  0
 11 12  1  0  0  0  0
 12 18  1  0  0  0  0
 12 13  2  0  0  0  0
 13 14  1  0  0  0  0
 13 34  1  0  0  0  0
 14 15  2  0  0  0  0
 14 35  1  0  0  0  0
 15 16  1  0  0  0  0
 15 17  1  0  0  0  0
 17 18  2  0  0  0  0
 17 36  1  0  0  0  0
 18 37  1  0  0  0  0
 19 20  2  0  0  0  0
 19 21  1  0  0  0  0
 21 22  1  0  0  0  0
M  END
> <s_m_source_file>
AV-unprocessed.smi

> <i_m_source_file_index>
360

> <i_lp_mmshare_version>
43012

> <i_f3d_flags>
0

> <s_epik_input>
W0NIMl09W0NIXVtDSDJdW05IXWMxW2NIXW5uKGMoPU8pYzFDbClbQ0gyXVtDSDJdT2MyW2NIXVtjSF1jKENsKVtjSF1bY0hdMg==

> <s_epik_cmdline>
J2VwaWtfcHl0aG9uJywgJy1waCcsICc3LjAnLCAnLXRuJywgJzgnLCAnLW1hJywgJzIwMCcsICctbWV0YWxfYmluZGluZycsICctaW1hZScsICc8aW5maWxlLm1hZT4nLCAnLW9tYWUnLCAnPG91dGZpbGUubWFlPic=

> <r_lp_tautomer_probability>
1

> <r_epik_Ionization_Penalty>
1.57681e-05

> <r_epik_Ionization_Penalty_Charging>
9.79356e-10

> <r_epik_Ionization_Penalty_Neutral>
1.57671e-05

> <r_epik_State_Penalty>
-0

> <r_epik_Charging_Adjusted_Penalty>
9.79356e-10

> <i_epik_Tot_Q>
0

> <i_epik_Tot_abs_Q>
0

> <r_epik_Metal_State_Penalty>
-0

> <b_epik_Metal_Only>
0

> <s_lp_Force_Field>
OPLS_2005

> <r_lp_Energy>
29.545

> <b_lp_Chiralities_Consistent>
1

> <s_lp_Variant>
AV-unprocessed.smi:360-1

> <Gold.Version>
5.8.1

> <Gold.Id.Protein>
6NUR|6NUR_protein|mol2

> <Gold.PLP.Fitness>
49.3766

> <Gold.PLP.PLP>
-48.1856

> <Gold.PLP.part.hbond>
-0.9524

> <Gold.PLP.part.metal>
0.0000

> <Gold.PLP.part.buried>
-5.8883

> <Gold.PLP.part.nonpolar>
-41.0991

> <Gold.PLP.part.repulsive>
0.0215

> <Gold.PLP.ligand.clash>
0.0000

> <Gold.PLP.ligand.torsion>
0.9350

> <Gold.PLP.Chemscore.Hbond>
0.9913

> <Gold.PLP.Chemscore.CHOScore>
0.0000

> <Gold.PLP.Chemscore.Metal>
0.0000

> <Gold.Chemscore.Hbonds>
donor molecule, donor type, donor heavy atom, donor atom, acceptor molecule, acceptor atom, score
      P1  H  6896  6908       L1    20  0.62

> <Gold.PLP.Chemscore.Internal.Correction>
0.0873

> <Gold.Rescore>
     Score         DG    S(hbond)    S(metal)    S(lipo)     H(rot)  DE(clash)    DE(int)     intcor
     19.29     -20.04       0.98        0.00     134.37       1.73       0.02       0.73       ----

> <Gold.Chemscore.Fitness>
19.2873

> <Gold.Chemscore.DG>
-20.0409

> <Gold.Chemscore.ZeroCoef>
-5.4800

> <Gold.Chemscore.Hbond>
0.9823

> <Gold.Chemscore.Metal>
0.0000

> <Gold.Chemscore.Lipo>
134.3667

> <Gold.Chemscore.Internal_Hbond>
0.0000

> <Gold.Chemscore.DEClash>
0.0235

> <Gold.Chemscore.DEInternal>
0.7302

> <Gold.Chemscore.Rot>
1.7348

> <Gold.Chemscore.Internal.Correction>
   9.000000E+99

> <Gold.Chemscore.Hbonds>
donor molecule, donor type, donor heavy atom, donor atom, acceptor molecule, acceptor atom, score
      P1  H  6896  6908       L1    20  0.08

> <Gold.Chemscore.Hbond.Weighted>
-3.2810

> <Gold.Chemscore.Metal.Weighted>
-0.0000

> <Gold.Chemscore.Lipo.Weighted>
-15.7209

> <Gold.Chemscore.Internal_Hbond.Weighted>
0.0000

> <Gold.Chemscore.DEClash.Weighted>
0.0235

> <Gold.Chemscore.DEInternal.Weighted>
0.7302

> <Gold.Chemscore.Rot.Weighted>
4.4410

> <Gold.Chemscore.Internal.Correction.Weighted>
   9.000000E+99

> <Gold.Protein.RotatedTorsions>
[ 6907 6896 6895 6894 ] final  -68.64 input  -60.11 | X-H torsion
[ 7974 7965 7964 7962 ] final   59.91 input  175.53 | X-H torsion
[ 8008 7997 7996 7995 ] final  132.37 input   59.86 | X-H torsion
[ 10167 10162 10161 10158 ] final  136.35 input  -65.29 | X-H torsion
[ 10718 10713 10712 10709 ] final  150.71 input   66.30 | X-H torsion
[ 10763 10752 10751 10750 ] final   -7.32 input  -60.55 | X-H torsion
[ 11005 11000 10999 10996 ] final  -11.08 input  -57.11 | X-H torsion

> <Gold.Protein.ActiveResidues>
 VAL166  LYS551  ARG553  GLY616  TRP617  ASP618  TYR619  PRO620  LYS621  CYS622 
 ASP623  PHE694  ASN695  SER759  ASP760  ASP761  ALA762  ILE779  LEU786  VAL792 
 PHE793  MET794  SER795  GLU796  ALA797  LYS798  CYS799  TRP800  GLU811  SER814 

> <Gold.Protein.RotatedAtoms>
  150.7346  134.5711  159.5890 H   0  0  0  0  0  0  0  0  0  0  0  0  # atno 6907 bound_to 6896
  152.3149  134.7448  160.0336 H   0  0  0  0  0  0  0  0  0  0  0  0  # atno 6908 bound_to 6896
  151.7984  133.3331  159.3556 H   0  0  0  0  0  0  0  0  0  0  0  0  # atno 6909 bound_to 6896
  145.9019  139.3588  143.0587 H   0  0  0  0  0  0  0  0  0  0  0  0  # atno 7974 bound_to 7965
  156.2982  140.2548  156.3079 H   0  0  0  0  0  0  0  0  0  0  0  0  # atno 8008 bound_to 7997
  154.9355  140.0397  157.2089 H   0  0  0  0  0  0  0  0  0  0  0  0  # atno 8009 bound_to 7997
  154.8177  140.2855  155.5813 H   0  0  0  0  0  0  0  0  0  0  0  0  # atno 8010 bound_to 7997
  139.5183  144.6469  151.5414 H   0  0  0  0  0  0  0  0  0  0  0  0  # atno 10167 bound_to 10162
  157.2800  131.0833  151.1539 H   0  0  0  0  0  0  0  0  0  0  0  0  # atno 10718 bound_to 10713
  153.4247  135.7011  153.6271 H   0  0  0  0  0  0  0  0  0  0  0  0  # atno 10763 bound_to 10752
  153.4711  135.3714  155.2391 H   0  0  0  0  0  0  0  0  0  0  0  0  # atno 10764 bound_to 10752
  154.8723  135.4043  154.3621 H   0  0  0  0  0  0  0  0  0  0  0  0  # atno 10765 bound_to 10752
  140.7515  133.8588  155.9049 H   0  0  0  0  0  0  0  0  0  0  0  0  # atno 11005 bound_to 11000
  145.8780  140.9380  143.0616 LP  0  0  0  0  0  0  0  0  0  0  0  0  # atno 17320 bound_to 7965
  144.6736  140.0742  143.7472 LP  0  0  0  0  0  0  0  0  0  0  0  0  # atno 17321 bound_to 7965
  140.6257  143.9173  150.6563 LP  0  0  0  0  0  0  0  0  0  0  0  0  # atno 17342 bound_to 10162
  140.2461  143.3628  152.1446 LP  0  0  0  0  0  0  0  0  0  0  0  0  # atno 17343 bound_to 10162
  157.2976  130.6827  149.6147 LP  0  0  0  0  0  0  0  0  0  0  0  0  # atno 17370 bound_to 10713
  155.9664  130.4402  150.5288 LP  0  0  0  0  0  0  0  0  0  0  0  0  # atno 17371 bound_to 10713
  140.9746  134.1485  157.4547 LP  0  0  0  0  0  0  0  0  0  0  0  0  # atno 17394 bound_to 11000
  139.8787  134.9990  156.5932 LP  0  0  0  0  0  0  0  0  0  0  0  0  # atno 17395 bound_to 11000

$$$$
