AV-unprocessed.smi:174|AV-procd|sdf|1426|dock5
  -GOLD-   2262019203D 1   1.00000     0.00000
 Structure written by MMmdl.
 51 54  0  0  0  0  0  0  0  0  1 V2000
  150.9176  128.9104  155.7668 N   0  0  0  0  0  0  0  0  0  0  0  0
  150.8034  130.2386  155.8355 C   0  0  0  0  0  0  0  0  0  0  0  0
  149.7712  130.7855  156.2214 O   0  0  0  0  0  0  0  0  0  0  0  0
  152.0238  131.0555  155.3866 C   0  0  0  0  0  0  0  0  0  0  0  0
  151.8235  132.5107  155.4839 N   0  0  0  0  0  0  0  0  0  0  0  0
  150.7192  133.0773  154.7024 C   0  0  0  0  0  0  0  0  0  0  0  0
  151.0221  134.5023  154.2296 C   0  0  0  0  0  0  0  0  0  0  0  0
  151.4046  135.3373  155.3612 N   0  0  0  0  0  0  0  0  0  0  0  0
  151.3069  136.6931  155.2704 C   0  0  0  0  0  0  0  0  0  0  0  0
  150.9263  137.2181  154.0751 N   0  0  0  0  0  0  0  0  0  0  0  0
  150.8186  138.5387  153.9102 C   0  0  0  0  0  0  0  0  0  0  0  0
  151.0364  139.5092  154.7975 N   0  0  0  0  0  0  0  0  0  0  0  0
  151.4082  138.9974  156.0050 C   0  0  0  0  0  0  0  0  0  0  0  0
  151.5676  137.6178  156.3292 C   0  0  0  0  0  0  0  0  0  0  0  0
  151.9426  137.5008  157.6650 N   0  0  0  0  0  0  0  0  0  0  0  0
  152.0135  138.7300  158.0961 C   0  0  0  0  0  0  0  0  0  0  0  0
  151.7089  139.6922  157.1632 N   0  0  0  0  0  0  0  0  0  0  0  0
  151.7082  141.1301  157.3692 C   0  0  0  0  0  0  0  0  0  0  0  0
  151.9421  141.5158  158.8432 C   0  0  1  0  0  0  0  0  0  0  0  0
  153.2802  141.2240  159.1997 O   0  0  0  0  0  0  0  0  0  0  0  0
  151.6752  143.0102  159.1003 C   0  0  2  0  0  0  0  0  0  0  0  0
  152.0559  143.4931  160.4998 C   0  0  0  0  0  0  0  0  0  0  0  0
  151.2001  144.7347  160.6841 C   0  0  0  0  0  0  0  0  0  0  0  0
  150.0801  144.5682  159.6526 C   0  0  0  0  0  0  0  0  0  0  0  0
  150.2831  143.2850  159.0748 O   0  0  0  0  0  0  0  0  0  0  0  0
  152.3357  134.7977  156.3657 C   0  0  0  0  0  0  0  0  0  0  0  0
  152.5778  133.2771  156.3094 C   0  0  0  0  0  0  0  0  0  0  0  0
  153.4704  132.8089  157.0167 O   0  0  0  0  0  0  0  0  0  0  0  0
  150.1465  128.3260  156.0562 H   0  0  0  0  0  0  0  0  0  0  0  0
  151.7743  128.4935  155.4328 H   0  0  0  0  0  0  0  0  0  0  0  0
  152.8932  130.7573  155.9757 H   0  0  0  0  0  0  0  0  0  0  0  0
  152.2625  130.7725  154.3611 H   0  0  0  0  0  0  0  0  0  0  0  0
  150.4918  132.4563  153.8357 H   0  0  0  0  0  0  0  0  0  0  0  0
  149.8248  133.0765  155.3271 H   0  0  0  0  0  0  0  0  0  0  0  0
  151.8284  134.4934  153.4950 H   0  0  0  0  0  0  0  0  0  0  0  0
  150.1311  134.8995  153.7422 H   0  0  0  0  0  0  0  0  0  0  0  0
  150.5146  138.8637  152.9261 H   0  0  0  0  0  0  0  0  0  0  0  0
  152.2920  138.9700  159.1120 H   0  0  0  0  0  0  0  0  0  0  0  0
  152.4727  141.5766  156.7321 H   0  0  0  0  0  0  0  0  0  0  0  0
  150.7506  141.5213  157.0235 H   0  0  0  0  0  0  0  0  0  0  0  0
  151.2890  140.9167  159.4791 H   0  0  0  0  0  0  0  0  0  0  0  0
  153.3829  140.2852  159.2387 H   0  0  0  0  0  0  0  0  0  0  0  0
  152.1705  143.6244  158.3452 H   0  0  0  0  0  0  0  0  0  0  0  0
  151.7795  142.7452  161.2443 H   0  0  0  0  0  0  0  0  0  0  0  0
  153.1226  143.6937  160.6038 H   0  0  0  0  0  0  0  0  0  0  0  0
  150.8155  144.8052  161.7020 H   0  0  0  0  0  0  0  0  0  0  0  0
  151.7737  145.6391  160.4780 H   0  0  0  0  0  0  0  0  0  0  0  0
  149.0881  144.6371  160.0993 H   0  0  0  0  0  0  0  0  0  0  0  0
  150.1574  145.3304  158.8762 H   0  0  0  0  0  0  0  0  0  0  0  0
  153.2992  135.3004  156.2666 H   0  0  0  0  0  0  0  0  0  0  0  0
  151.9591  135.0230  157.3644 H   0  0  0  0  0  0  0  0  0  0  0  0
  1  2  1  0  0  0  0
  1 29  1  0  0  0  0
  1 30  1  0  0  0  0
  2  3  2  0  0  0  0
  2  4  1  0  0  0  0
  4  5  1  0  0  0  0
  4 31  1  0  0  0  0
  4 32  1  0  0  0  0
  5 27  1  0  0  0  0
  5  6  1  0  0  0  0
  6  7  1  0  0  0  0
  6 33  1  0  0  0  0
  6 34  1  0  0  0  0
  7  8  1  0  0  0  0
  7 35  1  0  0  0  0
  7 36  1  0  0  0  0
  8  9  1  0  0  0  0
  8 26  1  0  0  0  0
  9 14  1  0  0  0  0
  9 10  2  0  0  0  0
 10 11  1  0  0  0  0
 11 12  2  0  0  0  0
 11 37  1  0  0  0  0
 12 13  1  0  0  0  0
 13 17  1  0  0  0  0
 13 14  2  0  0  0  0
 14 15  1  0  0  0  0
 15 16  2  0  0  0  0
 16 17  1  0  0  0  0
 16 38  1  0  0  0  0
 17 18  1  0  0  0  0
 18 19  1  0  0  0  0
 18 39  1  0  0  0  0
 18 40  1  0  0  0  0
 19 20  1  0  0  0  0
 19 21  1  0  0  0  0
 19 41  1  0  0  0  0
 20 42  1  0  0  0  0
 21 25  1  0  0  0  0
 21 22  1  0  0  0  0
 21 43  1  0  0  0  0
 22 23  1  0  0  0  0
 22 44  1  0  0  0  0
 22 45  1  0  0  0  0
 23 24  1  0  0  0  0
 23 46  1  0  0  0  0
 23 47  1  0  0  0  0
 24 25  1  0  0  0  0
 24 48  1  0  0  0  0
 24 49  1  0  0  0  0
 26 27  1  0  0  0  0
 26 50  1  0  0  0  0
 26 51  1  0  0  0  0
 27 28  2  0  0  0  0
M  END
> <s_m_source_file>
AV-unprocessed.smi

> <i_m_source_file_index>
174

> <i_lp_mmshare_version>
43012

> <i_f3d_flags>
0

> <s_epik_input>
W05IMl1DKD1PKVtDSDJdTjFbQ0gyXVtDSDJdTihbQ0gyXUMxPU8pYyhuW2NIXW4yKWMoYzIzKW5bY0hdbjNbQ0gyXVtDQEhdKFtPSF0pW0NAQEhdNFtDSDJdW0NIMl1bQ0gyXU80

> <s_epik_cmdline>
J2VwaWtfcHl0aG9uJywgJy1waCcsICc3LjAnLCAnLXRuJywgJzgnLCAnLW1hJywgJzIwMCcsICctbWV0YWxfYmluZGluZycsICctaW1hZScsICc8aW5maWxlLm1hZT4nLCAnLW9tYWUnLCAnPG91dGZpbGUubWFlPic=

> <r_lp_tautomer_probability>
1

> <r_epik_Ionization_Penalty>
0.000250477

> <r_epik_Ionization_Penalty_Charging>
0

> <r_epik_Ionization_Penalty_Neutral>
0.000250477

> <r_epik_State_Penalty>
-0

> <r_epik_Charging_Adjusted_Penalty>
0

> <i_epik_Tot_Q>
0

> <i_epik_Tot_abs_Q>
0

> <r_epik_Metal_State_Penalty>
-0

> <b_epik_Metal_Only>
0

> <s_lp_Force_Field>
OPLS_2005

> <r_lp_Energy>
35.93

> <b_lp_Chiralities_Consistent>
1

> <s_lp_Variant>
AV-unprocessed.smi:174-2

> <Gold.Version>
5.8.1

> <Gold.Id.Protein>
6NUR|6NUR_protein|mol2

> <Gold.PLP.Fitness>
46.9742

> <Gold.PLP.PLP>
-39.0881

> <Gold.PLP.part.hbond>
-2.0000

> <Gold.PLP.part.metal>
0.0000

> <Gold.PLP.part.buried>
-7.3692

> <Gold.PLP.part.nonpolar>
-32.3605

> <Gold.PLP.part.repulsive>
1.8465

> <Gold.PLP.ligand.clash>
0.0000

> <Gold.PLP.ligand.torsion>
0.3767

> <Gold.PLP.Chemscore.Hbond>
1.8000

> <Gold.PLP.Chemscore.CHOScore>
1.0000

> <Gold.PLP.Chemscore.Metal>
0.0000

> <Gold.Chemscore.Hbonds>
donor molecule, donor type, donor heavy atom, donor atom, acceptor molecule, acceptor atom, score
      P1  H  7989  7998       L1    12  0.80
      L1  C    11    37       P1  7957  1.00

> <Gold.PLP.Chemscore.Internal.Correction>
0.2396

> <Gold.Rescore>
     Score         DG    S(hbond)    S(metal)    S(lipo)     H(rot)  DE(clash)    DE(int)     intcor
      6.31      -9.12       0.79        0.00      84.12       3.46       0.23       2.57       ----

> <Gold.Chemscore.Fitness>
6.3094

> <Gold.Chemscore.DG>
-9.1152

> <Gold.Chemscore.ZeroCoef>
-5.4800

> <Gold.Chemscore.Hbond>
0.7928

> <Gold.Chemscore.Metal>
0.0000

> <Gold.Chemscore.Lipo>
84.1243

> <Gold.Chemscore.Internal_Hbond>
0.0000

> <Gold.Chemscore.DEClash>
0.2314

> <Gold.Chemscore.DEInternal>
2.5744

> <Gold.Chemscore.Rot>
3.4591

> <Gold.Chemscore.Internal.Correction>
   9.000000E+99

> <Gold.Chemscore.Hbonds>
donor molecule, donor type, donor heavy atom, donor atom, acceptor molecule, acceptor atom, score
      P1  H  7989  7998       L1    12  0.12

> <Gold.Chemscore.Hbond.Weighted>
-2.6480

> <Gold.Chemscore.Metal.Weighted>
-0.0000

> <Gold.Chemscore.Lipo.Weighted>
-9.8425

> <Gold.Chemscore.Internal_Hbond.Weighted>
0.0000

> <Gold.Chemscore.DEClash.Weighted>
0.2314

> <Gold.Chemscore.DEInternal.Weighted>
2.5744

> <Gold.Chemscore.Rot.Weighted>
8.8553

> <Gold.Chemscore.Internal.Correction.Weighted>
   9.000000E+99

> <Gold.Protein.RotatedTorsions>
[ 6907 6896 6895 6894 ] final  -63.98 input  -60.11 | X-H torsion
[ 7974 7965 7964 7962 ] final  -71.05 input  175.53 | X-H torsion
[ 8008 7997 7996 7995 ] final   40.46 input   59.86 | X-H torsion
[ 10167 10162 10161 10158 ] final   87.71 input  -65.29 | X-H torsion
[ 10718 10713 10712 10709 ] final -127.04 input   66.30 | X-H torsion
[ 10763 10752 10751 10750 ] final  115.34 input  -60.55 | X-H torsion
[ 11005 11000 10999 10996 ] final  -31.38 input  -57.11 | X-H torsion

> <Gold.Protein.ActiveResidues>
 VAL166  LYS551  ARG553  GLY616  TRP617  ASP618  TYR619  PRO620  LYS621  CYS622 
 ASP623  PHE694  ASN695  SER759  ASP760  ASP761  ALA762  ILE779  LEU786  VAL792 
 PHE793  MET794  SER795  GLU796  ALA797  LYS798  CYS799  TRP800  GLU811  SER814 

> <Gold.Protein.RotatedAtoms>
  150.7614  134.6361  159.6211 H   0  0  0  0  0  0  0  0  0  0  0  0  # atno 6907 bound_to 6896
  152.3624  134.6850  160.0212 H   0  0  0  0  0  0  0  0  0  0  0  0  # atno 6908 bound_to 6896
  151.7236  133.3279  159.3358 H   0  0  0  0  0  0  0  0  0  0  0  0  # atno 6909 bound_to 6896
  145.6830  140.9181  143.0822 H   0  0  0  0  0  0  0  0  0  0  0  0  # atno 7974 bound_to 7965
  155.2535  140.3354  155.4280 H   0  0  0  0  0  0  0  0  0  0  0  0  # atno 8008 bound_to 7997
  156.2205  140.1807  156.7530 H   0  0  0  0  0  0  0  0  0  0  0  0  # atno 8009 bound_to 7997
  154.5819  140.0652  156.9100 H   0  0  0  0  0  0  0  0  0  0  0  0  # atno 8010 bound_to 7997
  139.8747  144.6474  150.8910 H   0  0  0  0  0  0  0  0  0  0  0  0  # atno 10167 bound_to 10162
  156.1820  130.6738  151.0316 H   0  0  0  0  0  0  0  0  0  0  0  0  # atno 10718 bound_to 10713
  153.5207  135.3598  155.2631 H   0  0  0  0  0  0  0  0  0  0  0  0  # atno 10763 bound_to 10752
  154.8735  135.4045  154.3262 H   0  0  0  0  0  0  0  0  0  0  0  0  # atno 10764 bound_to 10752
  153.3933  135.7072  153.6546 H   0  0  0  0  0  0  0  0  0  0  0  0  # atno 10765 bound_to 10752
  140.9463  133.7248  156.1152 H   0  0  0  0  0  0  0  0  0  0  0  0  # atno 11005 bound_to 11000
  144.7020  139.8722  143.7441 LP  0  0  0  0  0  0  0  0  0  0  0  0  # atno 17320 bound_to 7965
  146.0948  139.3939  143.0383 LP  0  0  0  0  0  0  0  0  0  0  0  0  # atno 17321 bound_to 7965
  140.7755  143.3635  151.1783 LP  0  0  0  0  0  0  0  0  0  0  0  0  # atno 17342 bound_to 10162
  139.7252  143.9160  152.3000 LP  0  0  0  0  0  0  0  0  0  0  0  0  # atno 17343 bound_to 10162
  157.6874  131.0820  150.7204 LP  0  0  0  0  0  0  0  0  0  0  0  0  # atno 17370 bound_to 10713
  156.7261  130.4695  149.5511 LP  0  0  0  0  0  0  0  0  0  0  0  0  # atno 17371 bound_to 10713
  140.7664  134.3881  157.5516 LP  0  0  0  0  0  0  0  0  0  0  0  0  # atno 17394 bound_to 11000
  139.8834  134.8994  156.2766 LP  0  0  0  0  0  0  0  0  0  0  0  0  # atno 17395 bound_to 11000

$$$$
