AV-unprocessed.smi:2426|AV-procd|sdf|9576|dock2
  -GOLD-   2272013203D 1   1.00000     0.00000
 Structure written by MMmdl.
 36 37  0  0  0  0  0  0  0  0  1 V2000
  154.5185  140.9620  160.8169 C   0  0  0  0  0  0  0  0  0  0  0  0
  153.5117  140.8310  159.8198 O   0  0  0  0  0  0  0  0  0  0  0  0
  152.8106  141.9599  159.4499 C   0  0  0  0  0  0  0  0  0  0  0  0
  151.8091  141.8586  158.4627 C   0  0  0  0  0  0  0  0  0  0  0  0
  151.1148  143.0385  158.1130 C   0  0  0  0  0  0  0  0  0  0  0  0
  150.1142  142.8924  157.1162 N   0  0  0  0  0  0  0  0  0  0  0  0
  149.4908  141.7670  156.7253 C   0  0  0  0  0  0  0  0  0  0  0  0
  149.6915  140.6439  157.1888 O   0  0  0  0  0  0  0  0  0  0  0  0
  148.6063  142.0181  155.7488 N   0  0  0  0  0  0  0  0  0  0  0  0
  147.7553  141.0254  155.0987 C   0  0  2  0  0  0  0  0  0  0  0  0
  148.4536  140.4634  153.8498 C   0  0  0  0  0  0  0  0  0  0  0  0
  146.4079  141.6637  154.7655 C   0  0  0  0  0  0  0  0  0  0  0  0
  146.3491  142.9084  153.8663 C   0  0  0  0  0  0  0  0  0  0  0  0
  145.1627  143.3986  154.7011 C   0  0  0  0  0  0  0  0  0  0  0  0
  145.6625  142.4883  155.8264 C   0  0  0  0  0  0  0  0  0  0  0  0
  151.4229  144.2102  158.7219 N   0  0  0  0  0  0  0  0  0  0  0  0
  152.3873  144.2011  159.6438 C   0  0  0  0  0  0  0  0  0  0  0  0
  153.0971  143.1447  160.0415 N   0  0  0  0  0  0  0  0  0  0  0  0
  154.9769  139.9899  160.9972 H   0  0  0  0  0  0  0  0  0  0  0  0
  154.1011  141.3111  161.7624 H   0  0  0  0  0  0  0  0  0  0  0  0
  155.3069  141.6458  160.4992 H   0  0  0  0  0  0  0  0  0  0  0  0
  151.5867  140.9104  157.9954 H   0  0  0  0  0  0  0  0  0  0  0  0
  149.8426  143.7426  156.6454 H   0  0  0  0  0  0  0  0  0  0  0  0
  148.5103  142.9708  155.4295 H   0  0  0  0  0  0  0  0  0  0  0  0
  147.5864  140.1994  155.7923 H   0  0  0  0  0  0  0  0  0  0  0  0
  147.8365  139.7096  153.3607 H   0  0  0  0  0  0  0  0  0  0  0  0
  149.4028  139.9914  154.1052 H   0  0  0  0  0  0  0  0  0  0  0  0
  148.6576  141.2496  153.1223 H   0  0  0  0  0  0  0  0  0  0  0  0
  145.7167  140.9173  154.3671 H   0  0  0  0  0  0  0  0  0  0  0  0
  147.2276  143.5476  153.9682 H   0  0  0  0  0  0  0  0  0  0  0  0
  146.1193  142.7052  152.8199 H   0  0  0  0  0  0  0  0  0  0  0  0
  145.1757  144.4638  154.9336 H   0  0  0  0  0  0  0  0  0  0  0  0
  144.2000  143.0819  154.2964 H   0  0  0  0  0  0  0  0  0  0  0  0
  144.8800  141.9460  156.3578 H   0  0  0  0  0  0  0  0  0  0  0  0
  146.3356  143.0016  156.5151 H   0  0  0  0  0  0  0  0  0  0  0  0
  152.6164  145.1453  160.1150 H   0  0  0  0  0  0  0  0  0  0  0  0
  1  2  1  0  0  0  0
  1 19  1  0  0  0  0
  1 20  1  0  0  0  0
  1 21  1  0  0  0  0
  2  3  1  0  0  0  0
  3 18  1  0  0  0  0
  3  4  2  0  0  0  0
  4  5  1  0  0  0  0
  4 22  1  0  0  0  0
  5  6  1  0  0  0  0
  5 16  2  0  0  0  0
  6  7  1  0  0  0  0
  6 23  1  0  0  0  0
  7  8  2  0  0  0  0
  7  9  1  0  0  0  0
  9 10  1  0  0  0  0
  9 24  1  0  0  0  0
 10 11  1  0  0  0  0
 10 12  1  0  0  0  0
 10 25  1  0  0  0  0
 11 26  1  0  0  0  0
 11 27  1  0  0  0  0
 11 28  1  0  0  0  0
 12 15  1  0  0  0  0
 12 13  1  0  0  0  0
 12 29  1  0  0  0  0
 13 14  1  0  0  0  0
 13 30  1  0  0  0  0
 13 31  1  0  0  0  0
 14 15  1  0  0  0  0
 14 32  1  0  0  0  0
 14 33  1  0  0  0  0
 15 34  1  0  0  0  0
 15 35  1  0  0  0  0
 16 17  1  0  0  0  0
 17 18  2  0  0  0  0
 17 36  1  0  0  0  0
M  END
> <s_m_source_file>
AV-unprocessed.smi

> <i_m_source_file_index>
2426

> <i_lp_mmshare_version>
43012

> <i_f3d_flags>
0

> <s_epik_input>
W0NIM11PYzFbY0hdYyhuW2NIXW4xKVtOSF1DKD1PKVtOSF1bQ0BIXShbQ0gzXSlbQ0hdMltDSDJdW0NIMl1bQ0gyXTI=

> <s_epik_cmdline>
J2VwaWtfcHl0aG9uJywgJy1waCcsICc3LjAnLCAnLXRuJywgJzgnLCAnLW1hJywgJzIwMCcsICctbWV0YWxfYmluZGluZycsICctaW1hZScsICc8aW5maWxlLm1hZT4nLCAnLW9tYWUnLCAnPG91dGZpbGUubWFlPic=

> <r_lp_tautomer_probability>
1

> <r_epik_Ionization_Penalty>
2.84534e-05

> <r_epik_Ionization_Penalty_Charging>
0

> <r_epik_Ionization_Penalty_Neutral>
2.84534e-05

> <r_epik_State_Penalty>
-0

> <r_epik_Charging_Adjusted_Penalty>
0

> <i_epik_Tot_Q>
0

> <i_epik_Tot_abs_Q>
0

> <r_epik_Metal_State_Penalty>
-0

> <b_epik_Metal_Only>
0

> <s_lp_Force_Field>
OPLS_2005

> <r_lp_Energy>
12.1235

> <b_lp_Chiralities_Consistent>
1

> <s_lp_Variant>
AV-unprocessed.smi:2426-1

> <Gold.Version>
5.8.1

> <Gold.Id.Protein>
6NUR|6NUR_protein|mol2

> <Gold.PLP.Fitness>
38.7798

> <Gold.PLP.PLP>
-33.7354

> <Gold.PLP.part.hbond>
-2.0000

> <Gold.PLP.part.metal>
0.0000

> <Gold.PLP.part.buried>
-5.3817

> <Gold.PLP.part.nonpolar>
-26.8334

> <Gold.PLP.part.repulsive>
0.2295

> <Gold.PLP.ligand.clash>
0.0000

> <Gold.PLP.ligand.torsion>
0.5178

> <Gold.PLP.Chemscore.Hbond>
1.9760

> <Gold.PLP.Chemscore.CHOScore>
0.0000

> <Gold.PLP.Chemscore.Metal>
0.0000

> <Gold.Chemscore.Hbonds>
donor molecule, donor type, donor heavy atom, donor atom, acceptor molecule, acceptor atom, score
      L1  H     6    23       P1  8028  1.00
      L1  H     9    24       P1  8028  0.99

> <Gold.PLP.Chemscore.Internal.Correction>
0.1519

> <Gold.Rescore>
     Score         DG    S(hbond)    S(metal)    S(lipo)     H(rot)  DE(clash)    DE(int)     intcor
     11.47     -13.44       1.91        0.00      48.29       1.60       0.02       1.94       ----

> <Gold.Chemscore.Fitness>
11.4738

> <Gold.Chemscore.DG>
-13.4365

> <Gold.Chemscore.ZeroCoef>
-5.4800

> <Gold.Chemscore.Hbond>
1.9148

> <Gold.Chemscore.Metal>
0.0000

> <Gold.Chemscore.Lipo>
48.2876

> <Gold.Chemscore.Internal_Hbond>
0.0000

> <Gold.Chemscore.DEClash>
0.0195

> <Gold.Chemscore.DEInternal>
1.9431

> <Gold.Chemscore.Rot>
1.5971

> <Gold.Chemscore.Internal.Correction>
   9.000000E+99

> <Gold.Chemscore.Hbonds>
donor molecule, donor type, donor heavy atom, donor atom, acceptor molecule, acceptor atom, score
      L1  H     6    23       P1  8028  0.99
      L1  H     9    24       P1  8028  0.94

> <Gold.Chemscore.Hbond.Weighted>
-6.3954

> <Gold.Chemscore.Metal.Weighted>
-0.0000

> <Gold.Chemscore.Lipo.Weighted>
-5.6497

> <Gold.Chemscore.Internal_Hbond.Weighted>
0.0000

> <Gold.Chemscore.DEClash.Weighted>
0.0195

> <Gold.Chemscore.DEInternal.Weighted>
1.9431

> <Gold.Chemscore.Rot.Weighted>
4.0886

> <Gold.Chemscore.Internal.Correction.Weighted>
   9.000000E+99

> <Gold.Protein.RotatedTorsions>
[ 6907 6896 6895 6894 ] final -123.50 input  -60.11 | X-H torsion
[ 7974 7965 7964 7962 ] final  117.18 input  175.53 | X-H torsion
[ 8008 7997 7996 7995 ] final   76.67 input   59.86 | X-H torsion
[ 10167 10162 10161 10158 ] final  142.49 input  -65.29 | X-H torsion
[ 10718 10713 10712 10709 ] final  150.41 input   66.30 | X-H torsion
[ 10763 10752 10751 10750 ] final -119.11 input  -60.55 | X-H torsion
[ 11005 11000 10999 10996 ] final  100.65 input  -57.11 | X-H torsion

> <Gold.Protein.ActiveResidues>
 VAL166  LYS551  ARG553  GLY616  TRP617  ASP618  TYR619  PRO620  LYS621  CYS622 
 ASP623  PHE694  ASN695  SER759  ASP760  ASP761  ALA762  ILE779  LEU786  VAL792 
 PHE793  MET794  SER795  GLU796  ALA797  LYS798  CYS799  TRP800  GLU811  SER814 

> <Gold.Protein.RotatedAtoms>
  150.8677  133.7551  159.2971 H   0  0  0  0  0  0  0  0  0  0  0  0  # atno 6907 bound_to 6896
  151.5173  135.1065  159.9879 H   0  0  0  0  0  0  0  0  0  0  0  0  # atno 6908 bound_to 6896
  152.4672  133.7905  159.6955 H   0  0  0  0  0  0  0  0  0  0  0  0  # atno 6909 bound_to 6896
  145.1705  139.3104  143.4470 H   0  0  0  0  0  0  0  0  0  0  0  0  # atno 7974 bound_to 7965
  155.8307  140.3466  155.5570 H   0  0  0  0  0  0  0  0  0  0  0  0  # atno 8008 bound_to 7997
  155.8245  140.0918  157.1849 H   0  0  0  0  0  0  0  0  0  0  0  0  # atno 8009 bound_to 7997
  154.4004  140.1424  156.3527 H   0  0  0  0  0  0  0  0  0  0  0  0  # atno 8010 bound_to 7997
  139.4993  144.6103  151.6286 H   0  0  0  0  0  0  0  0  0  0  0  0  # atno 10167 bound_to 10162
  157.2838  131.0840  151.1512 H   0  0  0  0  0  0  0  0  0  0  0  0  # atno 10718 bound_to 10713
  154.8608  135.4250  154.2247 H   0  0  0  0  0  0  0  0  0  0  0  0  # atno 10763 bound_to 10752
  153.3244  135.6984  153.7008 H   0  0  0  0  0  0  0  0  0  0  0  0  # atno 10764 bound_to 10752
  153.6049  135.3530  155.2932 H   0  0  0  0  0  0  0  0  0  0  0  0  # atno 10765 bound_to 10752
  139.8771  134.9149  156.4788 H   0  0  0  0  0  0  0  0  0  0  0  0  # atno 11005 bound_to 11000
  146.3469  140.1848  142.8589 LP  0  0  0  0  0  0  0  0  0  0  0  0  # atno 17320 bound_to 7965
  145.0238  140.8815  143.5151 LP  0  0  0  0  0  0  0  0  0  0  0  0  # atno 17321 bound_to 7965
  140.5776  144.0001  150.6250 LP  0  0  0  0  0  0  0  0  0  0  0  0  # atno 17342 bound_to 10162
  140.3140  143.3180  152.0851 LP  0  0  0  0  0  0  0  0  0  0  0  0  # atno 17343 bound_to 10162
  157.2935  130.6808  149.6126 LP  0  0  0  0  0  0  0  0  0  0  0  0  # atno 17370 bound_to 10713
  155.9665  130.4413  150.5336 LP  0  0  0  0  0  0  0  0  0  0  0  0  # atno 17371 bound_to 10713
  140.8742  133.7965  155.9397 LP  0  0  0  0  0  0  0  0  0  0  0  0  # atno 17394 bound_to 11000
  140.8921  134.2482  157.5089 LP  0  0  0  0  0  0  0  0  0  0  0  0  # atno 17395 bound_to 11000

$$$$
