AV-unprocessed.smi:72|AV-procd|sdf|695|dock7
  -GOLD-   2262017 13D 1   1.00000     0.00000
 Structure written by MMmdl.
 30 31  0  0  0  0  0  0  0  0  2 V2000
  151.3891  143.8493  158.3049 N   0  0  0  0  0  0  0  0  0  0  0  0
  151.0444  142.6737  157.6708 C   0  0  0  0  0  0  0  0  0  0  0  0
  150.0336  142.7249  156.7271 N   0  3  0  0  0  0  0  0  0  0  0  0
  149.5874  141.6783  156.0188 C   0  0  0  0  0  0  0  0  0  0  0  0
  150.1424  140.4981  156.2041 N   0  0  0  0  0  0  0  0  0  0  0  0
  149.6789  139.2940  155.4320 C   0  0  2  0  0  0  0  0  0  0  0  0
  149.6118  138.2186  156.3193 O   0  0  0  0  0  0  0  0  0  0  0  0
  150.2677  137.0827  155.7642 C   0  0  2  0  0  0  0  0  0  0  0  0
  150.7800  136.1743  156.8925 C   0  0  0  0  0  0  0  0  0  0  0  0
  151.5893  135.1493  156.3577 O   0  0  0  0  0  0  0  0  0  0  0  0
  151.3823  137.7200  154.9347 C   0  0  1  0  0  0  0  0  0  0  0  0
  151.9203  136.8461  153.9608 O   0  0  0  0  0  0  0  0  0  0  0  0
  150.6966  138.9426  154.3358 C   0  0  1  0  0  0  0  0  0  0  0  0
  150.0422  138.6597  153.1128 O   0  0  0  0  0  0  0  0  0  0  0  0
  151.1644  140.3393  157.1739 C   0  0  0  0  0  0  0  0  0  0  0  0
  151.6546  139.2309  157.3865 O   0  0  0  0  0  0  0  0  0  0  0  0
  151.5650  141.4931  157.8632 N   0  0  0  0  0  0  0  0  0  0  0  0
  148.6780  139.5269  155.0636 H   0  0  0  0  0  0  0  0  0  0  0  0
  149.5770  136.5508  155.1064 H   0  0  0  0  0  0  0  0  0  0  0  0
  152.1854  138.0504  155.5952 H   0  0  0  0  0  0  0  0  0  0  0  0
  151.4012  139.7585  154.1679 H   0  0  0  0  0  0  0  0  0  0  0  0
  152.1107  143.9065  159.0100 H   0  0  0  0  0  0  0  0  0  0  0  0
  150.9526  144.7407  158.1187 H   0  0  0  0  0  0  0  0  0  0  0  0
  148.7779  141.8169  155.3130 H   0  0  0  0  0  0  0  0  0  0  0  0
  151.3956  136.7473  157.5865 H   0  0  0  0  0  0  0  0  0  0  0  0
  149.9563  135.7484  157.4660 H   0  0  0  0  0  0  0  0  0  0  0  0
  151.0304  134.5024  155.9548 H   0  0  0  0  0  0  0  0  0  0  0  0
  151.3638  136.8635  153.1972 H   0  0  0  0  0  0  0  0  0  0  0  0
  150.2849  137.7903  152.8319 H   0  0  0  0  0  0  0  0  0  0  0  0
  149.6011  143.6226  156.5617 H   0  0  0  0  0  0  0  0  0  0  0  0
  1  2  1  0  0  0  0
  1 22  1  0  0  0  0
  1 23  1  0  0  0  0
  2 17  2  0  0  0  0
  2  3  1  0  0  0  0
  3  4  2  0  0  0  0
  3 30  1  0  0  0  0
  4  5  1  0  0  0  0
  4 24  1  0  0  0  0
  5  6  1  0  0  0  0
  5 15  1  0  0  0  0
  6 18  1  0  0  0  0
  6 13  1  0  0  0  0
  6  7  1  0  0  0  0
  7  8  1  0  0  0  0
  8 19  1  0  0  0  0
  8  9  1  0  0  0  0
  8 11  1  0  0  0  0
  9 10  1  0  0  0  0
  9 25  1  0  0  0  0
  9 26  1  0  0  0  0
 10 27  1  0  0  0  0
 11 20  1  0  0  0  0
 11 12  1  0  0  0  0
 11 13  1  0  0  0  0
 12 28  1  0  0  0  0
 13 21  1  0  0  0  0
 13 14  1  0  0  0  0
 14 29  1  0  0  0  0
 15 16  2  0  0  0  0
 15 17  1  0  0  0  0
M  CHG  1   3   1
M  END
> <s_m_source_file>
AV-unprocessed.smi

> <i_m_source_file_index>
72

> <i_lp_mmshare_version>
43012

> <i_f3d_flags>
0

> <s_epik_input>
W05IMl1jMW5bY0hdbihjKD1PKW4xKVtDQEBIXTJPW0NASF0oW0NIMl1bT0hdKVtDQEBIXShbT0hdKVtDQEhdMltPSF0=

> <s_epik_cmdline>
J2VwaWtfcHl0aG9uJywgJy1waCcsICc3LjAnLCAnLXRuJywgJzgnLCAnLW1hJywgJzIwMCcsICctbWV0YWxfYmluZGluZycsICctaW1hZScsICc8aW5maWxlLm1hZT4nLCAnLW9tYWUnLCAnPG91dGZpbGUubWFlPic=

> <r_lp_tautomer_probability>
4.77166e-05

> <r_epik_Ionization_Penalty>
0.104979

> <r_epik_Ionization_Penalty_Charging>
0.0999619

> <r_epik_Ionization_Penalty_Neutral>
0.00501745

> <r_epik_State_Penalty>
2.51541

> <r_epik_Charging_Adjusted_Penalty>
2.61537

> <i_epik_Tot_Q>
1

> <i_epik_Tot_abs_Q>
1

> <r_epik_Metal_State_Penalty>
3.53763

> <b_epik_Metal_Only>
0

> <s_epik_Chemistry_Notes>
This compound contains an acetal/aminal-like group ( X-CH(R)-Y where X, Y are N, S, or O) that may be acid/base labile, releasing an aldehyde.

> <s_lp_Force_Field>
OPLS_2005

> <r_lp_Energy>
34.3488

> <b_lp_Chiralities_Consistent>
1

> <s_lp_Variant>
AV-unprocessed.smi:72-33

> <Gold.Version>
5.8.1

> <Gold.Id.Protein>
6NUR|6NUR_protein|mol2

> <Gold.PLP.Fitness>
36.5465

> <Gold.PLP.PLP>
-23.4619

> <Gold.PLP.part.hbond>
-5.9282

> <Gold.PLP.part.metal>
0.0000

> <Gold.PLP.part.buried>
-3.9140

> <Gold.PLP.part.nonpolar>
-13.7668

> <Gold.PLP.part.repulsive>
0.0877

> <Gold.PLP.ligand.clash>
0.0000

> <Gold.PLP.ligand.torsion>
0.4805

> <Gold.PLP.Chemscore.Hbond>
4.6756

> <Gold.PLP.Chemscore.CHOScore>
0.0000

> <Gold.PLP.Chemscore.Metal>
0.0000

> <Gold.Chemscore.Hbonds>
donor molecule, donor type, donor heavy atom, donor atom, acceptor molecule, acceptor atom, score
      L1  H     3    30       P1  8028  2.00
      L1  H    12    28       P1  7949  0.80
      L1  H    14    29       P1  7948  0.21
      P1  H 10752 10763       L1    12  0.50
      P1  H 10752 10764       L1    10  0.58
      L1  C     4    24       P1  8028  0.01

> <Gold.PLP.Chemscore.Internal.Correction>
0.0190

> <Gold.Rescore>
     Score         DG    S(hbond)    S(metal)    S(lipo)     H(rot)  DE(clash)    DE(int)     intcor
      3.54      -8.05       3.06        0.00      23.79       4.08       0.11       4.40       ----

> <Gold.Chemscore.Fitness>
3.5355

> <Gold.Chemscore.DG>
-8.0465

> <Gold.Chemscore.ZeroCoef>
-5.4800

> <Gold.Chemscore.Hbond>
3.0609

> <Gold.Chemscore.Metal>
0.0000

> <Gold.Chemscore.Lipo>
23.7912

> <Gold.Chemscore.Internal_Hbond>
0.0000

> <Gold.Chemscore.DEClash>
0.1094

> <Gold.Chemscore.DEInternal>
4.4016

> <Gold.Chemscore.Rot>
4.0783

> <Gold.Chemscore.Internal.Correction>
   9.000000E+99

> <Gold.Chemscore.Hbonds>
donor molecule, donor type, donor heavy atom, donor atom, acceptor molecule, acceptor atom, score
      L1  H     3    30       P1  8028  0.96
      L1  H    12    28       P1  7949  0.62
      L1  H    14    29       P1  7948  0.02
      P1  H 10752 10763       L1    12  0.37
      P1  H 10752 10764       L1    10  0.45

> <Gold.Chemscore.Hbond.Weighted>
-10.2233

> <Gold.Chemscore.Metal.Weighted>
-0.0000

> <Gold.Chemscore.Lipo.Weighted>
-2.7836

> <Gold.Chemscore.Internal_Hbond.Weighted>
0.0000

> <Gold.Chemscore.DEClash.Weighted>
0.1094

> <Gold.Chemscore.DEInternal.Weighted>
4.4016

> <Gold.Chemscore.Rot.Weighted>
10.4404

> <Gold.Chemscore.Internal.Correction.Weighted>
   9.000000E+99

> <Gold.Protein.RotatedTorsions>
[ 6907 6896 6895 6894 ] final  -71.49 input  -60.11 | X-H torsion
[ 7974 7965 7964 7962 ] final  133.47 input  175.53 | X-H torsion
[ 8008 7997 7996 7995 ] final   86.54 input   59.86 | X-H torsion
[ 10167 10162 10161 10158 ] final  -62.34 input  -65.29 | X-H torsion
[ 10718 10713 10712 10709 ] final  173.02 input   66.30 | X-H torsion
[ 10763 10752 10751 10750 ] final   -6.08 input  -60.55 | X-H torsion
[ 11005 11000 10999 10996 ] final  -42.32 input  -57.11 | X-H torsion

> <Gold.Protein.ActiveResidues>
 VAL166  LYS551  ARG553  GLY616  TRP617  ASP618  TYR619  PRO620  LYS621  CYS622 
 ASP623  PHE694  ASN695  SER759  ASP760  ASP761  ALA762  ILE779  LEU786  VAL792 
 PHE793  MET794  SER795  GLU796  ALA797  LYS798  CYS799  TRP800  GLU811  SER814 

> <Gold.Protein.RotatedAtoms>
  150.7210  134.5300  159.5695 H   0  0  0  0  0  0  0  0  0  0  0  0  # atno 6907 bound_to 6896
  152.2836  134.7798  160.0401 H   0  0  0  0  0  0  0  0  0  0  0  0  # atno 6908 bound_to 6896
  151.8436  133.3392  159.3688 H   0  0  0  0  0  0  0  0  0  0  0  0  # atno 6909 bound_to 6896
  144.9862  139.4453  143.5362 H   0  0  0  0  0  0  0  0  0  0  0  0  # atno 7974 bound_to 7965
  155.9641  140.3391  155.6517 H   0  0  0  0  0  0  0  0  0  0  0  0  # atno 8008 bound_to 7997
  155.6760  140.0732  157.2521 H   0  0  0  0  0  0  0  0  0  0  0  0  # atno 8009 bound_to 7997
  154.4150  140.1683  156.1918 H   0  0  0  0  0  0  0  0  0  0  0  0  # atno 8010 bound_to 7997
  140.5945  143.2348  151.6066 H   0  0  0  0  0  0  0  0  0  0  0  0  # atno 10167 bound_to 10162
  156.9704  131.0088  151.2906 H   0  0  0  0  0  0  0  0  0  0  0  0  # atno 10718 bound_to 10713
  153.4074  135.7006  153.6383 H   0  0  0  0  0  0  0  0  0  0  0  0  # atno 10763 bound_to 10752
  153.4892  135.3676  155.2483 H   0  0  0  0  0  0  0  0  0  0  0  0  # atno 10764 bound_to 10752
  154.8715  135.4084  154.3420 H   0  0  0  0  0  0  0  0  0  0  0  0  # atno 10765 bound_to 10752
  141.0307  133.6821  156.2579 H   0  0  0  0  0  0  0  0  0  0  0  0  # atno 11005 bound_to 11000
  146.3420  139.9166  142.8772 LP  0  0  0  0  0  0  0  0  0  0  0  0  # atno 17320 bound_to 7965
  145.2350  140.9987  143.3969 LP  0  0  0  0  0  0  0  0  0  0  0  0  # atno 17321 bound_to 7965
  139.5249  144.3090  152.1009 LP  0  0  0  0  0  0  0  0  0  0  0  0  # atno 17342 bound_to 10162
  140.2260  144.4418  150.6321 LP  0  0  0  0  0  0  0  0  0  0  0  0  # atno 17343 bound_to 10162
  157.5597  130.8237  149.8249 LP  0  0  0  0  0  0  0  0  0  0  0  0  # atno 17370 bound_to 10713
  156.0285  130.3772  150.1754 LP  0  0  0  0  0  0  0  0  0  0  0  0  # atno 17371 bound_to 10713
  140.6411  134.5165  157.5569 LP  0  0  0  0  0  0  0  0  0  0  0  0  # atno 17394 bound_to 11000
  139.9206  134.8156  156.1223 LP  0  0  0  0  0  0  0  0  0  0  0  0  # atno 17395 bound_to 11000

$$$$
