AV-unprocessed.smi:399|AV-procd|sdf|2490|dock10
  -GOLD-   2262022433D 1   1.00000     0.00000
 Structure written by MMmdl.
 46 47  0  0  0  0  0  0  0  0  3 V2000
  143.8977  136.3744  152.0408 C   0  0  0  0  0  0  0  0  0  0  0  0
  145.2889  135.7387  151.7865 C   0  0  0  0  0  0  0  0  0  0  0  0
  145.8136  136.4069  150.4890 C   0  0  0  0  0  0  0  0  0  0  0  0
  146.2385  136.1107  152.9650 C   0  0  0  0  0  0  0  0  0  0  0  0
  146.7561  137.4727  152.8727 N   0  0  0  0  0  0  0  0  0  0  0  0
  146.7006  138.3756  153.8613 C   0  0  0  0  0  0  0  0  0  0  0  0
  146.2033  138.1365  154.9628 O   0  0  0  0  0  0  0  0  0  0  0  0
  147.3184  139.7471  153.5527 C   0  0  0  0  0  0  0  0  0  0  0  0
  148.4803  140.0688  154.3987 N   0  0  0  0  0  0  0  0  0  0  0  0
  149.6170  139.2477  154.2629 C   0  0  0  0  0  0  0  0  0  0  0  0
  150.7335  139.4441  154.9915 C   0  0  0  0  0  0  0  0  0  0  0  0
  151.8890  138.5866  154.8442 N   0  3  0  0  0  0  0  0  0  0  0  0
  151.7755  137.5530  154.1933 O   0  0  0  0  0  0  0  0  0  0  0  0
  152.9464  138.9160  155.3736 O   0  5  0  0  0  0  0  0  0  0  0  0
  150.7371  140.5446  155.9357 C   0  0  0  0  0  0  0  0  0  0  0  0
  149.6514  141.3308  156.0738 C   0  0  0  0  0  0  0  0  0  0  0  0
  148.4355  141.1113  155.2838 C   0  0  0  0  0  0  0  0  0  0  0  0
  147.4375  141.8212  155.4105 O   0  0  0  0  0  0  0  0  0  0  0  0
  145.1575  134.2680  151.5944 N   0  0  0  0  0  0  0  0  0  0  0  0
  144.2144  133.8606  150.5454 C   0  0  0  0  0  0  0  0  0  0  0  0
  144.0335  132.3339  150.4903 C   0  0  0  0  0  0  0  0  0  0  0  0
  145.2960  131.7087  150.2958 O   0  0  0  0  0  0  0  0  0  0  0  0
  146.2239  132.0288  151.3252 C   0  0  0  0  0  0  0  0  0  0  0  0
  146.4232  133.5529  151.3882 C   0  0  0  0  0  0  0  0  0  0  0  0
  143.9256  137.4630  151.9850 H   0  0  0  0  0  0  0  0  0  0  0  0
  143.5081  136.1313  153.0293 H   0  0  0  0  0  0  0  0  0  0  0  0
  143.1684  136.0377  151.3028 H   0  0  0  0  0  0  0  0  0  0  0  0
  145.7333  137.4938  150.5241 H   0  0  0  0  0  0  0  0  0  0  0  0
  145.2485  136.0748  149.6171 H   0  0  0  0  0  0  0  0  0  0  0  0
  146.8656  136.1871  150.3077 H   0  0  0  0  0  0  0  0  0  0  0  0
  145.7236  136.0211  153.9217 H   0  0  0  0  0  0  0  0  0  0  0  0
  147.0875  135.4273  153.0002 H   0  0  0  0  0  0  0  0  0  0  0  0
  147.1809  137.7436  151.9976 H   0  0  0  0  0  0  0  0  0  0  0  0
  147.5992  139.7641  152.4985 H   0  0  0  0  0  0  0  0  0  0  0  0
  146.5509  140.5168  153.6545 H   0  0  0  0  0  0  0  0  0  0  0  0
  149.5108  138.4521  153.5396 H   0  0  0  0  0  0  0  0  0  0  0  0
  151.6097  140.7465  156.5393 H   0  0  0  0  0  0  0  0  0  0  0  0
  149.6760  142.1445  156.7837 H   0  0  0  0  0  0  0  0  0  0  0  0
  143.2342  134.3047  150.7081 H   0  0  0  0  0  0  0  0  0  0  0  0
  144.5609  134.2043  149.5707 H   0  0  0  0  0  0  0  0  0  0  0  0
  143.5737  131.9657  151.4089 H   0  0  0  0  0  0  0  0  0  0  0  0
  143.3711  132.0608  149.6687 H   0  0  0  0  0  0  0  0  0  0  0  0
  145.8646  131.6459  152.2818 H   0  0  0  0  0  0  0  0  0  0  0  0
  147.1713  131.5317  151.1168 H   0  0  0  0  0  0  0  0  0  0  0  0
  146.8964  133.8802  150.4625 H   0  0  0  0  0  0  0  0  0  0  0  0
  147.1250  133.7616  152.1936 H   0  0  0  0  0  0  0  0  0  0  0  0
  1  2  1  0  0  0  0
  1 25  1  0  0  0  0
  1 26  1  0  0  0  0
  1 27  1  0  0  0  0
  2  3  1  0  0  0  0
  2  4  1  0  0  0  0
  2 19  1  0  0  0  0
  3 28  1  0  0  0  0
  3 29  1  0  0  0  0
  3 30  1  0  0  0  0
  4  5  1  0  0  0  0
  4 31  1  0  0  0  0
  4 32  1  0  0  0  0
  5  6  1  0  0  0  0
  5 33  1  0  0  0  0
  6  7  2  0  0  0  0
  6  8  1  0  0  0  0
  8  9  1  0  0  0  0
  8 34  1  0  0  0  0
  8 35  1  0  0  0  0
  9 17  1  0  0  0  0
  9 10  1  0  0  0  0
 10 11  2  0  0  0  0
 10 36  1  0  0  0  0
 11 12  1  0  0  0  0
 11 15  1  0  0  0  0
 12 13  2  0  0  0  0
 12 14  1  0  0  0  0
 15 16  2  0  0  0  0
 15 37  1  0  0  0  0
 16 17  1  0  0  0  0
 16 38  1  0  0  0  0
 17 18  2  0  0  0  0
 19 24  1  0  0  0  0
 19 20  1  0  0  0  0
 20 21  1  0  0  0  0
 20 39  1  0  0  0  0
 20 40  1  0  0  0  0
 21 22  1  0  0  0  0
 21 41  1  0  0  0  0
 21 42  1  0  0  0  0
 22 23  1  0  0  0  0
 23 24  1  0  0  0  0
 23 43  1  0  0  0  0
 23 44  1  0  0  0  0
 24 45  1  0  0  0  0
 24 46  1  0  0  0  0
M  CHG  1  12   1
M  CHG  1  14  -1
M  END
> <s_m_source_file>
AV-unprocessed.smi

> <i_m_source_file_index>
399

> <i_lp_mmshare_version>
43012

> <i_f3d_flags>
0

> <s_epik_input>
W0NIMl0xW0NIMl1PW0NIMl1bQ0gyXU4xQyhbQ0gzXSkoW0NIM10pW0NIMl1bTkhdQyg9TylbQ0gyXW4yW2NIXWMoW04rXSg9TylbTy1dKVtjSF1bY0hdYzI9Tw==

> <s_epik_cmdline>
J2VwaWtfcHl0aG9uJywgJy1waCcsICc3LjAnLCAnLXRuJywgJzgnLCAnLW1hJywgJzIwMCcsICctbWV0YWxfYmluZGluZycsICctaW1hZScsICc8aW5maWxlLm1hZT4nLCAnLW9tYWUnLCAnPG91dGZpbGUubWFlPic=

> <r_lp_tautomer_probability>
1

> <r_epik_Ionization_Penalty>
0.237382

> <r_epik_Ionization_Penalty_Charging>
7.45368e-11

> <r_epik_Ionization_Penalty_Neutral>
0.237382

> <r_epik_State_Penalty>
0.228245

> <r_epik_Charging_Adjusted_Penalty>
0.228245

> <i_epik_Tot_Q>
0

> <i_epik_Tot_abs_Q>
2

> <r_epik_Metal_State_Penalty>
0.22822

> <b_epik_Metal_Only>
0

> <s_lp_Force_Field>
OPLS_2005

> <r_lp_Energy>
50.757

> <b_lp_Chiralities_Consistent>
1

> <s_lp_Variant>
AV-unprocessed.smi:399-1

> <Gold.Version>
5.8.1

> <Gold.Id.Protein>
6NUR|6NUR_protein|mol2

> <Gold.PLP.Fitness>
47.3573

> <Gold.PLP.PLP>
-39.9429

> <Gold.PLP.part.hbond>
-3.0000

> <Gold.PLP.part.metal>
0.0000

> <Gold.PLP.part.buried>
-0.4026

> <Gold.PLP.part.nonpolar>
-36.4571

> <Gold.PLP.part.repulsive>
1.2611

> <Gold.PLP.ligand.clash>
0.0000

> <Gold.PLP.ligand.torsion>
0.4489

> <Gold.PLP.Chemscore.Hbond>
2.0659

> <Gold.PLP.Chemscore.CHOScore>
0.6751

> <Gold.PLP.Chemscore.Metal>
0.0000

> <Gold.Chemscore.Hbonds>
donor molecule, donor type, donor heavy atom, donor atom, acceptor molecule, acceptor atom, score
      L1  H     5    33       P1  7948  0.01
      P1  H  7997  8008       L1    14  1.00
      P1  H 10752 10765       L1    13  0.55
      L1  C    10    36       P1  7948  0.32
      L1  C    10    36       P1  7957  0.08

> <Gold.PLP.Chemscore.Internal.Correction>
0.0892

> <Gold.Rescore>
     Score         DG    S(hbond)    S(metal)    S(lipo)     H(rot)  DE(clash)    DE(int)     intcor
     14.75     -15.56       1.81        0.00      80.71       2.11       0.36       0.46       ----

> <Gold.Chemscore.Fitness>
14.7454

> <Gold.Chemscore.DG>
-15.5611

> <Gold.Chemscore.ZeroCoef>
-5.4800

> <Gold.Chemscore.Hbond>
1.8075

> <Gold.Chemscore.Metal>
0.0000

> <Gold.Chemscore.Lipo>
80.7095

> <Gold.Chemscore.Internal_Hbond>
0.0000

> <Gold.Chemscore.DEClash>
0.3581

> <Gold.Chemscore.DEInternal>
0.4576

> <Gold.Chemscore.Rot>
2.1090

> <Gold.Chemscore.Internal.Correction>
   9.000000E+99

> <Gold.Chemscore.Hbonds>
donor molecule, donor type, donor heavy atom, donor atom, acceptor molecule, acceptor atom, score
      L1  H     5    33       P1  7948  0.03
      P1  H  7997  8008       L1    14  0.94
      P1  H 10752 10765       L1    13  0.51

> <Gold.Chemscore.Hbond.Weighted>
-6.0370

> <Gold.Chemscore.Metal.Weighted>
-0.0000

> <Gold.Chemscore.Lipo.Weighted>
-9.4430

> <Gold.Chemscore.Internal_Hbond.Weighted>
0.0000

> <Gold.Chemscore.DEClash.Weighted>
0.3581

> <Gold.Chemscore.DEInternal.Weighted>
0.4576

> <Gold.Chemscore.Rot.Weighted>
5.3989

> <Gold.Chemscore.Internal.Correction.Weighted>
   9.000000E+99

> <Gold.Protein.RotatedTorsions>
[ 6907 6896 6895 6894 ] final  -90.55 input  -60.11 | X-H torsion
[ 7974 7965 7964 7962 ] final -155.50 input  175.53 | X-H torsion
[ 8008 7997 7996 7995 ] final  -24.53 input   59.86 | X-H torsion
[ 10167 10162 10161 10158 ] final   10.01 input  -65.29 | X-H torsion
[ 10718 10713 10712 10709 ] final  142.56 input   66.30 | X-H torsion
[ 10763 10752 10751 10750 ] final  154.59 input  -60.55 | X-H torsion
[ 11005 11000 10999 10996 ] final -152.96 input  -57.11 | X-H torsion

> <Gold.Protein.ActiveResidues>
 VAL166  LYS551  ARG553  GLY616  TRP617  ASP618  TYR619  PRO620  LYS621  CYS622 
 ASP623  PHE694  ASN695  SER759  ASP760  ASP761  ALA762  ILE779  LEU786  VAL792 
 PHE793  MET794  SER795  GLU796  ALA797  LYS798  CYS799  TRP800  GLU811  SER814 

> <Gold.Protein.RotatedAtoms>
  150.6883  134.2415  159.4473 H   0  0  0  0  0  0  0  0  0  0  0  0  # atno 6907 bound_to 6896
  152.0359  134.9738  160.0582 H   0  0  0  0  0  0  0  0  0  0  0  0  # atno 6908 bound_to 6896
  152.1259  133.4345  159.4734 H   0  0  0  0  0  0  0  0  0  0  0  0  # atno 6909 bound_to 6896
  144.7637  140.4241  143.5957 H   0  0  0  0  0  0  0  0  0  0  0  0  # atno 7974 bound_to 7965
  154.4524  140.1951  156.0479 H   0  0  0  0  0  0  0  0  0  0  0  0  # atno 8008 bound_to 7997
  156.0676  140.3288  155.7509 H   0  0  0  0  0  0  0  0  0  0  0  0  # atno 8009 bound_to 7997
  155.5314  140.0578  157.2879 H   0  0  0  0  0  0  0  0  0  0  0  0  # atno 8010 bound_to 7997
  140.6220  143.8184  150.7186 H   0  0  0  0  0  0  0  0  0  0  0  0  # atno 10167 bound_to 10162
  157.3791  131.0989  151.0756 H   0  0  0  0  0  0  0  0  0  0  0  0  # atno 10718 bound_to 10713
  154.1548  135.2813  155.3125 H   0  0  0  0  0  0  0  0  0  0  0  0  # atno 10763 bound_to 10752
  154.6190  135.5473  153.7558 H   0  0  0  0  0  0  0  0  0  0  0  0  # atno 10764 bound_to 10752
  153.0210  135.6434  154.1692 H   0  0  0  0  0  0  0  0  0  0  0  0  # atno 10765 bound_to 10752
  140.7133  134.3808  157.5194 H   0  0  0  0  0  0  0  0  0  0  0  0  # atno 11005 bound_to 11000
  145.6537  139.1569  143.2847 LP  0  0  0  0  0  0  0  0  0  0  0  0  # atno 17320 bound_to 7965
  146.1725  140.6623  142.9226 LP  0  0  0  0  0  0  0  0  0  0  0  0  # atno 17321 bound_to 7965
  140.1776  143.4142  152.1956 LP  0  0  0  0  0  0  0  0  0  0  0  0  # atno 17342 bound_to 10162
  139.5447  144.7288  151.4622 LP  0  0  0  0  0  0  0  0  0  0  0  0  # atno 17343 bound_to 10162
  157.1831  130.6318  149.5678 LP  0  0  0  0  0  0  0  0  0  0  0  0  # atno 17370 bound_to 10713
  155.9772  130.4747  150.6576 LP  0  0  0  0  0  0  0  0  0  0  0  0  # atno 17371 bound_to 10713
  139.8866  134.8905  156.2575 LP  0  0  0  0  0  0  0  0  0  0  0  0  # atno 17394 bound_to 11000
  141.0066  133.7120  156.1044 LP  0  0  0  0  0  0  0  0  0  0  0  0  # atno 17395 bound_to 11000

$$$$
