AV-unprocessed.smi:1196|AV-procd|sdf|4996|dock5
  -GOLD-   22720 4 03D 1   1.00000     0.00000
 Structure written by MMmdl.
 37 38  0  0  0  0  0  0  0  0  1 V2000
  152.6270  140.2206  158.6080 C   0  0  0  0  0  0  0  0  0  0  0  0
  151.8017  140.7726  157.4351 C   0  0  2  0  0  0  0  0  0  0  0  0
  150.6416  141.6581  157.9304 C   0  0  0  0  0  0  0  0  0  0  0  0
  151.1054  142.8820  158.5599 N   0  0  0  0  0  0  0  0  0  0  0  0
  151.4011  144.0919  157.9675 C   0  0  0  0  0  0  0  0  0  0  0  0
  151.8027  144.9418  158.9578 C   0  0  0  0  0  0  0  0  0  0  0  0
  151.7148  144.1511  160.1377 C   0  0  0  0  0  0  0  0  0  0  0  0
  151.2950  142.9196  159.8966 N   0  0  0  0  0  0  0  0  0  0  0  0
  151.2820  139.6687  156.6293 N   0  0  0  0  0  0  0  0  0  0  0  0
  152.0157  138.8638  155.8455 C   0  0  0  0  0  0  0  0  0  0  0  0
  153.2376  138.9628  155.7312 O   0  0  0  0  0  0  0  0  0  0  0  0
  151.2445  137.7902  155.0713 C   0  0  0  0  0  0  0  0  0  0  0  0
  150.5978  136.7317  155.9864 C   0  0  0  0  0  0  0  0  0  0  0  0
  150.4658  135.3512  155.3135 C   0  0  2  0  0  0  0  0  0  0  0  0
  149.4521  135.3259  154.2728 N   0  0  0  0  0  0  0  0  0  0  0  0
  148.4856  134.4312  154.5203 C   0  0  0  0  0  0  0  0  0  0  0  0
  147.5139  134.2024  153.8040 O   0  0  0  0  0  0  0  0  0  0  0  0
  148.7646  133.8335  155.6835 N   0  0  0  0  0  0  0  0  0  0  0  0
  149.8837  134.2964  156.2379 C   0  0  0  0  0  0  0  0  0  0  0  0
  150.3785  133.9481  157.3081 O   0  0  0  0  0  0  0  0  0  0  0  0
  153.0367  141.0301  159.2126 H   0  0  0  0  0  0  0  0  0  0  0  0
  153.4659  139.6207  158.2537 H   0  0  0  0  0  0  0  0  0  0  0  0
  152.0197  139.5922  159.2604 H   0  0  0  0  0  0  0  0  0  0  0  0
  152.4602  141.3898  156.8209 H   0  0  0  0  0  0  0  0  0  0  0  0
  149.9775  141.9187  157.1051 H   0  0  0  0  0  0  0  0  0  0  0  0
  150.0356  141.1135  158.6560 H   0  0  0  0  0  0  0  0  0  0  0  0
  151.3053  144.2445  156.9026 H   0  0  0  0  0  0  0  0  0  0  0  0
  152.1119  145.9713  158.8553 H   0  0  0  0  0  0  0  0  0  0  0  0
  151.9413  144.4339  161.1553 H   0  0  0  0  0  0  0  0  0  0  0  0
  150.2850  139.5141  156.6617 H   0  0  0  0  0  0  0  0  0  0  0  0
  150.4774  138.2730  154.4642 H   0  0  0  0  0  0  0  0  0  0  0  0
  151.9345  137.3081  154.3780 H   0  0  0  0  0  0  0  0  0  0  0  0
  151.1974  136.6228  156.8917 H   0  0  0  0  0  0  0  0  0  0  0  0
  149.6160  137.0810  156.3119 H   0  0  0  0  0  0  0  0  0  0  0  0
  151.4216  135.0097  154.9142 H   0  0  0  0  0  0  0  0  0  0  0  0
  149.4874  135.9178  153.4558 H   0  0  0  0  0  0  0  0  0  0  0  0
  148.1861  133.1183  156.0995 H   0  0  0  0  0  0  0  0  0  0  0  0
  1  2  1  0  0  0  0
  1 21  1  0  0  0  0
  1 22  1  0  0  0  0
  1 23  1  0  0  0  0
  2  3  1  0  0  0  0
  2  9  1  0  0  0  0
  2 24  1  0  0  0  0
  3  4  1  0  0  0  0
  3 25  1  0  0  0  0
  3 26  1  0  0  0  0
  4  8  1  0  0  0  0
  4  5  1  0  0  0  0
  5  6  2  0  0  0  0
  5 27  1  0  0  0  0
  6  7  1  0  0  0  0
  6 28  1  0  0  0  0
  7  8  2  0  0  0  0
  7 29  1  0  0  0  0
  9 10  1  0  0  0  0
  9 30  1  0  0  0  0
 10 11  2  0  0  0  0
 10 12  1  0  0  0  0
 12 13  1  0  0  0  0
 12 31  1  0  0  0  0
 12 32  1  0  0  0  0
 13 14  1  0  0  0  0
 13 33  1  0  0  0  0
 13 34  1  0  0  0  0
 14 19  1  0  0  0  0
 14 15  1  0  0  0  0
 14 35  1  0  0  0  0
 15 16  1  0  0  0  0
 15 36  1  0  0  0  0
 16 17  2  0  0  0  0
 16 18  1  0  0  0  0
 18 19  1  0  0  0  0
 18 37  1  0  0  0  0
 19 20  2  0  0  0  0
M  END
> <s_m_source_file>
AV-unprocessed.smi

> <i_m_source_file_index>
1196

> <i_lp_mmshare_version>
43012

> <i_f3d_flags>
0

> <s_epik_input>
bjFbY0hdW2NIXVtjSF1uMVtDSDJdW0NAQEhdKFtDSDNdKVtOSF1DKD1PKVtDSDJdW0NIMl1bQ0BASF0yW05IXUMoPU8pW05IXUMyPU8=

> <s_epik_cmdline>
J2VwaWtfcHl0aG9uJywgJy1waCcsICc3LjAnLCAnLXRuJywgJzgnLCAnLW1hJywgJzIwMCcsICctbWV0YWxfYmluZGluZycsICctaW1hZScsICc8aW5maWxlLm1hZT4nLCAnLW9tYWUnLCAnPG91dGZpbGUubWFlPic=

> <r_lp_tautomer_probability>
1

> <r_epik_Ionization_Penalty>
0.00815973

> <r_epik_Ionization_Penalty_Charging>
0

> <r_epik_Ionization_Penalty_Neutral>
0.00815973

> <r_epik_State_Penalty>
0.00583796

> <r_epik_Charging_Adjusted_Penalty>
0.00583796

> <i_epik_Tot_Q>
0

> <i_epik_Tot_abs_Q>
0

> <r_epik_Metal_State_Penalty>
0.409204

> <b_epik_Metal_Only>
0

> <s_lp_Force_Field>
OPLS_2005

> <r_lp_Energy>
19.6523

> <b_lp_Chiralities_Consistent>
1

> <s_lp_Variant>
AV-unprocessed.smi:1196-1

> <Gold.Version>
5.8.1

> <Gold.Id.Protein>
6NUR|6NUR_protein|mol2

> <Gold.PLP.Fitness>
43.8627

> <Gold.PLP.PLP>
-34.4991

> <Gold.PLP.part.hbond>
-3.1896

> <Gold.PLP.part.metal>
0.0000

> <Gold.PLP.part.buried>
-5.3342

> <Gold.PLP.part.nonpolar>
-26.2951

> <Gold.PLP.part.repulsive>
0.2387

> <Gold.PLP.ligand.clash>
0.0000

> <Gold.PLP.ligand.torsion>
0.7685

> <Gold.PLP.Chemscore.Hbond>
2.6000

> <Gold.PLP.Chemscore.CHOScore>
1.0000

> <Gold.PLP.Chemscore.Metal>
0.0000

> <Gold.Chemscore.Hbonds>
donor molecule, donor type, donor heavy atom, donor atom, acceptor molecule, acceptor atom, score
      L1  H    15    36       P1  7948  0.98
      P1  H  6896  6909       L1    20  0.80
      P1  H  7997  8009       L1    11  0.80
      L1  C     5    27       P1  8028  0.43

> <Gold.PLP.Chemscore.Internal.Correction>
0.1006

> <Gold.Rescore>
     Score         DG    S(hbond)    S(metal)    S(lipo)     H(rot)  DE(clash)    DE(int)     intcor
     15.37     -16.18       2.85        0.00      74.89       2.96       0.11       0.69       ----

> <Gold.Chemscore.Fitness>
15.3713

> <Gold.Chemscore.DG>
-16.1751

> <Gold.Chemscore.ZeroCoef>
-5.4800

> <Gold.Chemscore.Hbond>
2.8457

> <Gold.Chemscore.Metal>
0.0000

> <Gold.Chemscore.Lipo>
74.8865

> <Gold.Chemscore.Internal_Hbond>
0.0000

> <Gold.Chemscore.DEClash>
0.1097

> <Gold.Chemscore.DEInternal>
0.6942

> <Gold.Chemscore.Rot>
2.9575

> <Gold.Chemscore.Internal.Correction>
   9.000000E+99

> <Gold.Chemscore.Hbonds>
donor molecule, donor type, donor heavy atom, donor atom, acceptor molecule, acceptor atom, score
      L1  H    15    36       P1  7948  0.32
      P1  H  6896  6909       L1    20  0.77
      P1  H  7997  8009       L1    11  0.80

> <Gold.Chemscore.Hbond.Weighted>
-9.5048

> <Gold.Chemscore.Metal.Weighted>
-0.0000

> <Gold.Chemscore.Lipo.Weighted>
-8.7617

> <Gold.Chemscore.Internal_Hbond.Weighted>
0.0000

> <Gold.Chemscore.DEClash.Weighted>
0.1097

> <Gold.Chemscore.DEInternal.Weighted>
0.6942

> <Gold.Chemscore.Rot.Weighted>
7.5713

> <Gold.Chemscore.Internal.Correction.Weighted>
   9.000000E+99

> <Gold.Protein.RotatedTorsions>
[ 6907 6896 6895 6894 ] final   -2.04 input  -60.11 | X-H torsion
[ 7974 7965 7964 7962 ] final   -4.27 input  175.53 | X-H torsion
[ 8008 7997 7996 7995 ] final -128.35 input   59.86 | X-H torsion
[ 10167 10162 10161 10158 ] final -138.32 input  -65.29 | X-H torsion
[ 10718 10713 10712 10709 ] final   33.17 input   66.30 | X-H torsion
[ 10763 10752 10751 10750 ] final -163.70 input  -60.55 | X-H torsion
[ 11005 11000 10999 10996 ] final  -44.88 input  -57.11 | X-H torsion

> <Gold.Protein.ActiveResidues>
 VAL166  LYS551  ARG553  GLY616  TRP617  ASP618  TYR619  PRO620  LYS621  CYS622 
 ASP623  PHE694  ASN695  SER759  ASP760  ASP761  ALA762  ILE779  LEU786  VAL792 
 PHE793  MET794  SER795  GLU796  ALA797  LYS798  CYS799  TRP800  GLU811  SER814 

> <Gold.Protein.RotatedAtoms>
  151.5363  135.1068  159.9914 H   0  0  0  0  0  0  0  0  0  0  0  0  # atno 6907 bound_to 6896
  152.4556  133.7712  159.6810 H   0  0  0  0  0  0  0  0  0  0  0  0  # atno 6908 bound_to 6896
  150.8498  133.7739  159.3054 H   0  0  0  0  0  0  0  0  0  0  0  0  # atno 6909 bound_to 6896
  146.2375  140.1846  142.8332 H   0  0  0  0  0  0  0  0  0  0  0  0  # atno 7974 bound_to 7965
  155.2612  140.0436  157.2997 H   0  0  0  0  0  0  0  0  0  0  0  0  # atno 8008 bound_to 7997
  154.5709  140.2373  155.8162 H   0  0  0  0  0  0  0  0  0  0  0  0  # atno 8009 bound_to 7997
  156.2122  140.2995  155.9766 H   0  0  0  0  0  0  0  0  0  0  0  0  # atno 8010 bound_to 7997
  139.8490  143.7223  152.2659 H   0  0  0  0  0  0  0  0  0  0  0  0  # atno 10167 bound_to 10162
  157.2945  130.7319  149.6630 H   0  0  0  0  0  0  0  0  0  0  0  0  # atno 10718 bound_to 10713
  154.7098  135.3004  154.9214 H   0  0  0  0  0  0  0  0  0  0  0  0  # atno 10763 bound_to 10752
  154.0120  135.6693  153.4770 H   0  0  0  0  0  0  0  0  0  0  0  0  # atno 10764 bound_to 10752
  153.0746  135.5042  154.8290 H   0  0  0  0  0  0  0  0  0  0  0  0  # atno 10765 bound_to 10752
  141.0479  133.6754  156.2935 H   0  0  0  0  0  0  0  0  0  0  0  0  # atno 11005 bound_to 11000
  144.9907  140.8544  143.5341 LP  0  0  0  0  0  0  0  0  0  0  0  0  # atno 17320 bound_to 7965
  145.1852  139.2330  143.5272 LP  0  0  0  0  0  0  0  0  0  0  0  0  # atno 17321 bound_to 7965
  139.7484  144.7541  151.0544 LP  0  0  0  0  0  0  0  0  0  0  0  0  # atno 17342 bound_to 10162
  140.7790  143.4889  150.9919 LP  0  0  0  0  0  0  0  0  0  0  0  0  # atno 17343 bound_to 10162
  155.9668  130.4299  150.4852 LP  0  0  0  0  0  0  0  0  0  0  0  0  # atno 17370 bound_to 10713
  157.2821  131.0609  151.2191 LP  0  0  0  0  0  0  0  0  0  0  0  0  # atno 17371 bound_to 10713
  140.6111  134.5458  157.5533 LP  0  0  0  0  0  0  0  0  0  0  0  0  # atno 17394 bound_to 11000
  139.9327  134.7934  156.0887 LP  0  0  0  0  0  0  0  0  0  0  0  0  # atno 17395 bound_to 11000

$$$$
