AV-unprocessed.smi:1427|AV-procd|sdf|5809|dock2
  -GOLD-   22720 5463D 1   1.00000     0.00000
 Structure written by MMmdl.
 33 34  0  0  0  0  0  0  0  0  1 V2000
  151.3267  141.1066  157.7301 C   0  0  0  0  0  0  0  0  0  0  0  0
  151.3075  142.4580  157.0006 C   0  0  2  0  0  0  0  0  0  0  0  0
  151.1735  143.6361  157.9856 C   0  0  0  0  0  0  0  0  0  0  0  0
  151.7184  143.3225  159.2959 N   0  0  0  0  0  0  0  0  0  0  0  0
  151.1848  143.6067  160.5351 C   0  0  0  0  0  0  0  0  0  0  0  0
  152.0398  143.1001  161.4715 C   0  0  0  0  0  0  0  0  0  0  0  0
  153.0810  142.5151  160.6982 C   0  0  0  0  0  0  0  0  0  0  0  0
  152.8880  142.6532  159.3966 N   0  0  0  0  0  0  0  0  0  0  0  0
  150.2082  142.4944  156.0409 N   0  0  0  0  0  0  0  0  0  0  0  0
  150.1067  141.7535  154.9254 C   0  0  0  0  0  0  0  0  0  0  0  0
  150.9148  140.8722  154.6340 O   0  0  0  0  0  0  0  0  0  0  0  0
  148.9237  142.0389  153.9795 C   0  0  2  0  0  0  0  0  0  0  0  0
  147.5415  141.7895  154.6147 C   0  0  0  0  0  0  0  0  0  0  0  0
  147.1006  140.4198  154.0814 C   0  0  0  0  0  0  0  0  0  0  0  0
  147.9442  140.2681  152.8258 C   0  0  0  0  0  0  0  0  0  0  0  0
  147.7480  139.4041  151.9747 O   0  0  0  0  0  0  0  0  0  0  0  0
  148.9034  141.1945  152.7920 N   0  0  0  0  0  0  0  0  0  0  0  0
  152.1510  141.0587  158.4420 H   0  0  0  0  0  0  0  0  0  0  0  0
  151.4519  140.2808  157.0290 H   0  0  0  0  0  0  0  0  0  0  0  0
  150.4006  140.9394  158.2810 H   0  0  0  0  0  0  0  0  0  0  0  0
  152.2538  142.5715  156.4682 H   0  0  0  0  0  0  0  0  0  0  0  0
  151.6721  144.5252  157.5950 H   0  0  0  0  0  0  0  0  0  0  0  0
  150.1232  143.9004  158.1134 H   0  0  0  0  0  0  0  0  0  0  0  0
  150.2500  144.1365  160.6452 H   0  0  0  0  0  0  0  0  0  0  0  0
  151.9355  143.1394  162.5456 H   0  0  0  0  0  0  0  0  0  0  0  0
  153.9651  141.9982  161.0411 H   0  0  0  0  0  0  0  0  0  0  0  0
  149.4981  143.1952  156.1985 H   0  0  0  0  0  0  0  0  0  0  0  0
  149.0011  143.0804  153.6651 H   0  0  0  0  0  0  0  0  0  0  0  0
  147.5563  141.8158  155.7053 H   0  0  0  0  0  0  0  0  0  0  0  0
  146.8383  142.5555  154.2846 H   0  0  0  0  0  0  0  0  0  0  0  0
  147.3506  139.6204  154.7798 H   0  0  0  0  0  0  0  0  0  0  0  0
  146.0329  140.3805  153.8641 H   0  0  0  0  0  0  0  0  0  0  0  0
  149.5806  141.2833  152.0483 H   0  0  0  0  0  0  0  0  0  0  0  0
  1  2  1  0  0  0  0
  1 18  1  0  0  0  0
  1 19  1  0  0  0  0
  1 20  1  0  0  0  0
  2  3  1  0  0  0  0
  2  9  1  0  0  0  0
  2 21  1  0  0  0  0
  3  4  1  0  0  0  0
  3 22  1  0  0  0  0
  3 23  1  0  0  0  0
  4  8  1  0  0  0  0
  4  5  1  0  0  0  0
  5  6  2  0  0  0  0
  5 24  1  0  0  0  0
  6  7  1  0  0  0  0
  6 25  1  0  0  0  0
  7  8  2  0  0  0  0
  7 26  1  0  0  0  0
  9 10  1  0  0  0  0
  9 27  1  0  0  0  0
 10 11  2  0  0  0  0
 10 12  1  0  0  0  0
 12 17  1  0  0  0  0
 12 13  1  0  0  0  0
 12 28  1  0  0  0  0
 13 14  1  0  0  0  0
 13 29  1  0  0  0  0
 13 30  1  0  0  0  0
 14 15  1  0  0  0  0
 14 31  1  0  0  0  0
 14 32  1  0  0  0  0
 15 16  2  0  0  0  0
 15 17  1  0  0  0  0
 17 33  1  0  0  0  0
M  END
> <s_m_source_file>
AV-unprocessed.smi

> <i_m_source_file_index>
1427

> <i_lp_mmshare_version>
43012

> <i_f3d_flags>
0

> <s_epik_input>
bjFbY0hdW2NIXVtjSF1uMVtDSDJdW0NAQEhdKFtDSDNdKVtOSF1DKD1PKVtDQEBIXTJbQ0gyXVtDSDJdQyg9TylbTkhdMg==

> <s_epik_cmdline>
J2VwaWtfcHl0aG9uJywgJy1waCcsICc3LjAnLCAnLXRuJywgJzgnLCAnLW1hJywgJzIwMCcsICctbWV0YWxfYmluZGluZycsICctaW1hZScsICc8aW5maWxlLm1hZT4nLCAnLW9tYWUnLCAnPG91dGZpbGUubWFlPic=

> <r_lp_tautomer_probability>
1

> <r_epik_Ionization_Penalty>
0.000310707

> <r_epik_Ionization_Penalty_Charging>
0

> <r_epik_Ionization_Penalty_Neutral>
0.000310707

> <r_epik_State_Penalty>
-0

> <r_epik_Charging_Adjusted_Penalty>
0

> <i_epik_Tot_Q>
0

> <i_epik_Tot_abs_Q>
0

> <r_epik_Metal_State_Penalty>
-0

> <b_epik_Metal_Only>
0

> <s_lp_Force_Field>
OPLS_2005

> <r_lp_Energy>
13.3236

> <b_lp_Chiralities_Consistent>
1

> <s_lp_Variant>
AV-unprocessed.smi:1427-1

> <Gold.Version>
5.8.1

> <Gold.Id.Protein>
6NUR|6NUR_protein|mol2

> <Gold.PLP.Fitness>
45.0864

> <Gold.PLP.PLP>
-37.5420

> <Gold.PLP.part.hbond>
-2.8876

> <Gold.PLP.part.metal>
0.0000

> <Gold.PLP.part.buried>
-4.6905

> <Gold.PLP.part.nonpolar>
-30.6948

> <Gold.PLP.part.repulsive>
0.6275

> <Gold.PLP.ligand.clash>
0.0000

> <Gold.PLP.ligand.torsion>
0.7220

> <Gold.PLP.Chemscore.Hbond>
2.9825

> <Gold.PLP.Chemscore.CHOScore>
0.0000

> <Gold.PLP.Chemscore.Metal>
0.0000

> <Gold.Chemscore.Hbonds>
donor molecule, donor type, donor heavy atom, donor atom, acceptor molecule, acceptor atom, score
      L1  H     9    27       P1  8028  0.88
      L1  H    17    33       P1  7957  0.25
      P1  H  7989  7998       L1    11  0.40

> <Gold.PLP.Chemscore.Internal.Correction>
0.0407

> <Gold.Rescore>
     Score         DG    S(hbond)    S(metal)    S(lipo)     H(rot)  DE(clash)    DE(int)     intcor
     14.27     -16.31       1.99        0.00      76.83       1.88       0.14       1.90       ----

> <Gold.Chemscore.Fitness>
14.2720

> <Gold.Chemscore.DG>
-16.3133

> <Gold.Chemscore.ZeroCoef>
-5.4800

> <Gold.Chemscore.Hbond>
1.9947

> <Gold.Chemscore.Metal>
0.0000

> <Gold.Chemscore.Lipo>
76.8281

> <Gold.Chemscore.Internal_Hbond>
0.0000

> <Gold.Chemscore.DEClash>
0.1367

> <Gold.Chemscore.DEInternal>
1.9046

> <Gold.Chemscore.Rot>
1.8821

> <Gold.Chemscore.Internal.Correction>
   9.000000E+99

> <Gold.Chemscore.Hbonds>
donor molecule, donor type, donor heavy atom, donor atom, acceptor molecule, acceptor atom, score
      L1  H     9    27       P1  8028  0.87
      L1  H    17    33       P1  7957  0.23
      P1  H  7989  7998       L1    11  0.41

> <Gold.Chemscore.Hbond.Weighted>
-6.6624

> <Gold.Chemscore.Metal.Weighted>
-0.0000

> <Gold.Chemscore.Lipo.Weighted>
-8.9889

> <Gold.Chemscore.Internal_Hbond.Weighted>
0.0000

> <Gold.Chemscore.DEClash.Weighted>
0.1367

> <Gold.Chemscore.DEInternal.Weighted>
1.9046

> <Gold.Chemscore.Rot.Weighted>
4.8181

> <Gold.Chemscore.Internal.Correction.Weighted>
   9.000000E+99

> <Gold.Protein.RotatedTorsions>
[ 6907 6896 6895 6894 ] final  -65.72 input  -60.11 | X-H torsion
[ 7974 7965 7964 7962 ] final -133.60 input  175.53 | X-H torsion
[ 8008 7997 7996 7995 ] final -174.40 input   59.86 | X-H torsion
[ 10167 10162 10161 10158 ] final  -39.01 input  -65.29 | X-H torsion
[ 10718 10713 10712 10709 ] final  106.06 input   66.30 | X-H torsion
[ 10763 10752 10751 10750 ] final  -41.50 input  -60.55 | X-H torsion
[ 11005 11000 10999 10996 ] final  -62.56 input  -57.11 | X-H torsion

> <Gold.Protein.ActiveResidues>
 VAL166  LYS551  ARG553  GLY616  TRP617  ASP618  TYR619  PRO620  LYS621  CYS622 
 ASP623  PHE694  ASN695  SER759  ASP760  ASP761  ALA762  ILE779  LEU786  VAL792 
 PHE793  MET794  SER795  GLU796  ALA797  LYS798  CYS799  TRP800  GLU811  SER814 

> <Gold.Protein.RotatedAtoms>
  150.7507  134.6120  159.6090 H   0  0  0  0  0  0  0  0  0  0  0  0  # atno 6907 bound_to 6896
  152.3452  134.7078  160.0261 H   0  0  0  0  0  0  0  0  0  0  0  0  # atno 6908 bound_to 6896
  151.7517  133.3292  159.3430 H   0  0  0  0  0  0  0  0  0  0  0  0  # atno 6909 bound_to 6896
  144.9178  140.6977  143.4984 H   0  0  0  0  0  0  0  0  0  0  0  0  # atno 7974 bound_to 7965
  155.9696  140.1160  157.0824 H   0  0  0  0  0  0  0  0  0  0  0  0  # atno 8008 bound_to 7997
  154.4153  140.1166  156.5356 H   0  0  0  0  0  0  0  0  0  0  0  0  # atno 8009 bound_to 7997
  155.6613  140.3473  155.4786 H   0  0  0  0  0  0  0  0  0  0  0  0  # atno 8010 bound_to 7997
  140.7076  143.3241  151.2723 H   0  0  0  0  0  0  0  0  0  0  0  0  # atno 10167 bound_to 10162
  157.6682  131.0842  150.5951 H   0  0  0  0  0  0  0  0  0  0  0  0  # atno 10718 bound_to 10713
  153.9636  135.6736  153.4745 H   0  0  0  0  0  0  0  0  0  0  0  0  # atno 10763 bound_to 10752
  153.0826  135.4915  154.8530 H   0  0  0  0  0  0  0  0  0  0  0  0  # atno 10764 bound_to 10752
  154.7259  135.3127  154.8932 H   0  0  0  0  0  0  0  0  0  0  0  0  # atno 10765 bound_to 10752
  141.1364  133.6641  156.5546 H   0  0  0  0  0  0  0  0  0  0  0  0  # atno 11005 bound_to 11000
  145.3346  139.1750  143.4518 LP  0  0  0  0  0  0  0  0  0  0  0  0  # atno 17320 bound_to 7965
  146.3190  140.3379  142.8645 LP  0  0  0  0  0  0  0  0  0  0  0  0  # atno 17321 bound_to 7965
  139.6703  144.0031  152.2749 LP  0  0  0  0  0  0  0  0  0  0  0  0  # atno 17342 bound_to 10162
  139.9628  144.6546  150.8063 LP  0  0  0  0  0  0  0  0  0  0  0  0  # atno 17343 bound_to 10162
  156.6251  130.4416  149.5807 LP  0  0  0  0  0  0  0  0  0  0  0  0  # atno 17370 bound_to 10713
  156.2325  130.6803  151.1477 LP  0  0  0  0  0  0  0  0  0  0  0  0  # atno 17371 bound_to 10713
  140.4036  134.7334  157.4794 LP  0  0  0  0  0  0  0  0  0  0  0  0  # atno 17394 bound_to 11000
  140.0478  134.6174  155.8899 LP  0  0  0  0  0  0  0  0  0  0  0  0  # atno 17395 bound_to 11000

$$$$
