AV-unprocessed.smi:1205|AV-procd|sdf|5040|dock8
  -GOLD-   22720 4 63D 1   1.00000     0.00000
 Structure written by MMmdl.
 49 50  0  0  0  0  0  0  0  0  2 V2000
  150.0272  141.7017  155.9498 C   0  0  0  0  0  0  0  0  0  0  0  0
  150.2031  140.3301  155.3674 C   0  0  0  0  0  0  0  0  0  0  0  0
  149.2033  139.3431  155.1279 C   0  0  0  0  0  0  0  0  0  0  0  0
  149.9234  138.3080  154.5970 C   0  0  0  0  0  0  0  0  0  0  0  0
  149.4886  137.0882  154.1826 N   0  0  0  0  0  0  0  0  0  0  0  0
  149.3488  135.9588  154.8984 C   0  0  0  0  0  0  0  0  0  0  0  0
  149.6003  135.8341  156.0973 O   0  0  0  0  0  0  0  0  0  0  0  0
  148.8829  134.9575  154.1383 N   0  0  0  0  0  0  0  0  0  0  0  0
  148.6143  133.6045  154.6151 C   0  0  0  0  0  0  0  0  0  0  0  0
  148.9982  132.5210  153.5744 C   0  0  1  0  0  0  0  0  0  0  0  0
  149.6971  131.3059  154.2139 C   0  0  0  0  0  0  0  0  0  0  0  0
  147.8481  132.0832  152.7302 N   0  3  1  0  0  0  0  0  0  0  0  0
  147.0039  131.0038  153.3113 C   0  0  0  0  0  0  0  0  0  0  0  0
  146.0121  130.4694  152.2665 C   0  0  0  0  0  0  0  0  0  0  0  0
  145.1417  131.6035  151.7089 C   0  0  0  0  0  0  0  0  0  0  0  0
  146.0257  132.7302  151.1466 C   0  0  1  0  0  0  0  0  0  0  0  0
  145.1789  133.8900  150.6044 C   0  0  0  0  0  0  0  0  0  0  0  0
  147.0243  133.2117  152.2188 C   0  0  0  0  0  0  0  0  0  0  0  0
  151.2500  138.6733  154.5367 N   0  0  0  0  0  0  0  0  0  0  0  0
  152.3938  137.9199  154.0604 C   0  0  0  0  0  0  0  0  0  0  0  0
  151.4179  139.9254  155.0140 N   0  0  0  0  0  0  0  0  0  0  0  0
  148.9797  141.9022  156.1766 H   0  0  0  0  0  0  0  0  0  0  0  0
  150.3690  142.4701  155.2564 H   0  0  0  0  0  0  0  0  0  0  0  0
  150.5933  141.8104  156.8753 H   0  0  0  0  0  0  0  0  0  0  0  0
  148.1434  139.4046  155.3236 H   0  0  0  0  0  0  0  0  0  0  0  0
  149.2260  137.0348  153.2094 H   0  0  0  0  0  0  0  0  0  0  0  0
  148.7042  135.1428  153.1619 H   0  0  0  0  0  0  0  0  0  0  0  0
  149.1875  133.4730  155.5325 H   0  0  0  0  0  0  0  0  0  0  0  0
  147.5626  133.5264  154.8941 H   0  0  0  0  0  0  0  0  0  0  0  0
  149.7320  132.9543  152.8933 H   0  0  0  0  0  0  0  0  0  0  0  0
  150.6387  131.5927  154.6826 H   0  0  0  0  0  0  0  0  0  0  0  0
  149.9301  130.5484  153.4648 H   0  0  0  0  0  0  0  0  0  0  0  0
  149.0825  130.8382  154.9827 H   0  0  0  0  0  0  0  0  0  0  0  0
  147.6247  130.1811  153.6642 H   0  0  0  0  0  0  0  0  0  0  0  0
  146.4531  131.3812  154.1738 H   0  0  0  0  0  0  0  0  0  0  0  0
  146.5577  129.9898  151.4526 H   0  0  0  0  0  0  0  0  0  0  0  0
  145.3804  129.7003  152.7117 H   0  0  0  0  0  0  0  0  0  0  0  0
  144.4806  131.2164  150.9325 H   0  0  0  0  0  0  0  0  0  0  0  0
  144.4991  131.9937  152.4994 H   0  0  0  0  0  0  0  0  0  0  0  0
  146.5985  132.3247  150.3109 H   0  0  0  0  0  0  0  0  0  0  0  0
  144.5725  134.3404  151.3909 H   0  0  0  0  0  0  0  0  0  0  0  0
  144.5046  133.5490  149.8182 H   0  0  0  0  0  0  0  0  0  0  0  0
  145.8090  134.6724  150.1804 H   0  0  0  0  0  0  0  0  0  0  0  0
  146.4896  133.6839  153.0440 H   0  0  0  0  0  0  0  0  0  0  0  0
  147.6737  133.9736  151.7854 H   0  0  0  0  0  0  0  0  0  0  0  0
  152.1600  137.4620  153.0990 H   0  0  0  0  0  0  0  0  0  0  0  0
  152.6407  137.1378  154.7789 H   0  0  0  0  0  0  0  0  0  0  0  0
  153.2581  138.5738  153.9364 H   0  0  0  0  0  0  0  0  0  0  0  0
  148.2734  131.6819  151.9066 H   0  0  0  0  0  0  0  0  0  0  0  0
  1  2  1  0  0  0  0
  1 22  1  0  0  0  0
  1 23  1  0  0  0  0
  1 24  1  0  0  0  0
  2 21  2  0  0  0  0
  2  3  1  0  0  0  0
  3  4  2  0  0  0  0
  3 25  1  0  0  0  0
  4  5  1  0  0  0  0
  4 19  1  0  0  0  0
  5  6  1  0  0  0  0
  5 26  1  0  0  0  0
  6  7  2  0  0  0  0
  6  8  1  0  0  0  0
  8  9  1  0  0  0  0
  8 27  1  0  0  0  0
  9 10  1  0  0  0  0
  9 28  1  0  0  0  0
  9 29  1  0  0  0  0
 10 11  1  0  0  0  0
 10 12  1  0  0  0  0
 10 30  1  0  0  0  0
 11 31  1  0  0  0  0
 11 32  1  0  0  0  0
 11 33  1  0  0  0  0
 12 18  1  0  0  0  0
 12 13  1  0  0  0  0
 12 49  1  0  0  0  0
 13 14  1  0  0  0  0
 13 34  1  0  0  0  0
 13 35  1  0  0  0  0
 14 15  1  0  0  0  0
 14 36  1  0  0  0  0
 14 37  1  0  0  0  0
 15 16  1  0  0  0  0
 15 38  1  0  0  0  0
 15 39  1  0  0  0  0
 16 17  1  0  0  0  0
 16 18  1  0  0  0  0
 16 40  1  0  0  0  0
 17 41  1  0  0  0  0
 17 42  1  0  0  0  0
 17 43  1  0  0  0  0
 18 44  1  0  0  0  0
 18 45  1  0  0  0  0
 19 20  1  0  0  0  0
 19 21  1  0  0  0  0
 20 46  1  0  0  0  0
 20 47  1  0  0  0  0
 20 48  1  0  0  0  0
M  CHG  1  12   1
M  END
> <s_m_source_file>
AV-unprocessed.smi

> <i_m_source_file_index>
1205

> <i_lp_mmshare_version>
43012

> <i_f3d_flags>
0

> <s_epik_input>
W0NIM11jMVtjSF1jKG4objEpW0NIM10pW05IXUMoPU8pW05IXVtDSDJdW0NASF0oW0NIM10pTjJbQ0gyXVtDSDJdW0NIMl1bQ0BASF0oW0NIM10pW0NIMl0y

> <s_epik_cmdline>
J2VwaWtfcHl0aG9uJywgJy1waCcsICc3LjAnLCAnLXRuJywgJzgnLCAnLW1hJywgJzIwMCcsICctbWV0YWxfYmluZGluZycsICctaW1hZScsICc8aW5maWxlLm1hZT4nLCAnLW9tYWUnLCAnPG91dGZpbGUubWFlPic=

> <r_lp_tautomer_probability>
1

> <r_epik_Ionization_Penalty>
0.0020309

> <r_epik_Ionization_Penalty_Charging>
0.00195276

> <r_epik_Ionization_Penalty_Neutral>
7.81448e-05

> <r_epik_State_Penalty>
0.00133177

> <r_epik_Charging_Adjusted_Penalty>
0.00328452

> <i_epik_Tot_Q>
1

> <i_epik_Tot_abs_Q>
1

> <r_epik_Metal_State_Penalty>
-0

> <b_epik_Metal_Only>
0

> <s_lp_Force_Field>
OPLS_2005

> <r_lp_Energy>
21.6269

> <b_lp_Chiralities_Consistent>
1

> <s_lp_Variant>
AV-unprocessed.smi:1205-2

> <Gold.Version>
5.8.1

> <Gold.Id.Protein>
6NUR|6NUR_protein|mol2

> <Gold.PLP.Fitness>
45.8483

> <Gold.PLP.PLP>
-37.3138

> <Gold.PLP.part.hbond>
-3.9955

> <Gold.PLP.part.metal>
0.0000

> <Gold.PLP.part.buried>
-2.2470

> <Gold.PLP.part.nonpolar>
-29.8316

> <Gold.PLP.part.repulsive>
0.0890

> <Gold.PLP.ligand.clash>
0.0000

> <Gold.PLP.ligand.torsion>
1.7308

> <Gold.PLP.Chemscore.Hbond>
3.9600

> <Gold.PLP.Chemscore.CHOScore>
0.0000

> <Gold.PLP.Chemscore.Metal>
0.0000

> <Gold.Chemscore.Hbonds>
donor molecule, donor type, donor heavy atom, donor atom, acceptor molecule, acceptor atom, score
      L1  H     5    26       P1  7948  1.00
      L1  H     8    27       P1  7948  0.93
      L1  H    12    49       P1 10747  1.00
      P1  H  7989  7998       L1    21  1.00

> <Gold.PLP.Chemscore.Internal.Correction>
0.1161

> <Gold.Rescore>
     Score         DG    S(hbond)    S(metal)    S(lipo)     H(rot)  DE(clash)    DE(int)     intcor
     18.61     -20.48       2.70        0.00      83.06       1.47       0.17       1.69       ----

> <Gold.Chemscore.Fitness>
18.6130

> <Gold.Chemscore.DG>
-20.4758

> <Gold.Chemscore.ZeroCoef>
-5.4800

> <Gold.Chemscore.Hbond>
2.7037

> <Gold.Chemscore.Metal>
0.0000

> <Gold.Chemscore.Lipo>
83.0592

> <Gold.Chemscore.Internal_Hbond>
0.0000

> <Gold.Chemscore.DEClash>
0.1690

> <Gold.Chemscore.DEInternal>
1.6938

> <Gold.Chemscore.Rot>
1.4658

> <Gold.Chemscore.Internal.Correction>
   9.000000E+99

> <Gold.Chemscore.Hbonds>
donor molecule, donor type, donor heavy atom, donor atom, acceptor molecule, acceptor atom, score
      L1  H     5    26       P1  7948  0.92
      L1  H     8    27       P1  7948  0.58
      L1  H    12    49       P1 10747  0.99
      P1  H  7989  7998       L1    21  0.10

> <Gold.Chemscore.Hbond.Weighted>
-9.0304

> <Gold.Chemscore.Metal.Weighted>
-0.0000

> <Gold.Chemscore.Lipo.Weighted>
-9.7179

> <Gold.Chemscore.Internal_Hbond.Weighted>
0.0000

> <Gold.Chemscore.DEClash.Weighted>
0.1690

> <Gold.Chemscore.DEInternal.Weighted>
1.6938

> <Gold.Chemscore.Rot.Weighted>
3.7526

> <Gold.Chemscore.Internal.Correction.Weighted>
   9.000000E+99

> <Gold.Protein.RotatedTorsions>
[ 6907 6896 6895 6894 ] final    9.32 input  -60.11 | X-H torsion
[ 7974 7965 7964 7962 ] final -162.35 input  175.53 | X-H torsion
[ 8008 7997 7996 7995 ] final   56.44 input   59.86 | X-H torsion
[ 10167 10162 10161 10158 ] final  125.33 input  -65.29 | X-H torsion
[ 10718 10713 10712 10709 ] final -168.10 input   66.30 | X-H torsion
[ 10763 10752 10751 10750 ] final  -94.27 input  -60.55 | X-H torsion
[ 11005 11000 10999 10996 ] final   32.69 input  -57.11 | X-H torsion

> <Gold.Protein.ActiveResidues>
 VAL166  LYS551  ARG553  GLY616  TRP617  ASP618  TYR619  PRO620  LYS621  CYS622 
 ASP623  PHE694  ASN695  SER759  ASP760  ASP761  ALA762  ILE779  LEU786  VAL792 
 PHE793  MET794  SER795  GLU796  ALA797  LYS798  CYS799  TRP800  GLU811  SER814 

> <Gold.Protein.RotatedAtoms>
  151.7203  135.0895  160.0282 H   0  0  0  0  0  0  0  0  0  0  0  0  # atno 6907 bound_to 6896
  152.3606  133.6288  159.6020 H   0  0  0  0  0  0  0  0  0  0  0  0  # atno 6908 bound_to 6896
  150.7602  133.9346  159.3479 H   0  0  0  0  0  0  0  0  0  0  0  0  # atno 6909 bound_to 6896
  144.7360  140.3265  143.6161 H   0  0  0  0  0  0  0  0  0  0  0  0  # atno 7974 bound_to 7965
  155.5175  140.3479  155.4400 H   0  0  0  0  0  0  0  0  0  0  0  0  # atno 8008 bound_to 7997
  156.0807  140.1386  156.9743 H   0  0  0  0  0  0  0  0  0  0  0  0  # atno 8009 bound_to 7997
  154.4578  140.0946  156.6784 H   0  0  0  0  0  0  0  0  0  0  0  0  # atno 8010 bound_to 7997
  139.5692  144.6929  151.3826 H   0  0  0  0  0  0  0  0  0  0  0  0  # atno 10167 bound_to 10162
  156.6920  130.9163  151.3070 H   0  0  0  0  0  0  0  0  0  0  0  0  # atno 10718 bound_to 10713
  154.7038  135.5164  153.8566 H   0  0  0  0  0  0  0  0  0  0  0  0  # atno 10763 bound_to 10752
  153.0725  135.6606  154.0225 H   0  0  0  0  0  0  0  0  0  0  0  0  # atno 10764 bound_to 10752
  154.0079  135.3005  155.3375 H   0  0  0  0  0  0  0  0  0  0  0  0  # atno 10765 bound_to 10752
  140.2708  134.3084  155.7828 H   0  0  0  0  0  0  0  0  0  0  0  0  # atno 11005 bound_to 11000
  145.7516  139.1795  143.2318 LP  0  0  0  0  0  0  0  0  0  0  0  0  # atno 17320 bound_to 7965
  146.1056  140.7490  142.9528 LP  0  0  0  0  0  0  0  0  0  0  0  0  # atno 17321 bound_to 7965
  140.6976  143.7711  150.7351 LP  0  0  0  0  0  0  0  0  0  0  0  0  # atno 17342 bound_to 10162
  140.1212  143.4610  152.2312 LP  0  0  0  0  0  0  0  0  0  0  0  0  # atno 17343 bound_to 10162
  157.7005  130.9328  150.0771 LP  0  0  0  0  0  0  0  0  0  0  0  0  # atno 17370 bound_to 10713
  156.1790  130.3649  149.9060 LP  0  0  0  0  0  0  0  0  0  0  0  0  # atno 17371 bound_to 10713
  141.2177  133.7466  156.9332 LP  0  0  0  0  0  0  0  0  0  0  0  0  # atno 17394 bound_to 11000
  140.1375  134.9316  157.2421 LP  0  0  0  0  0  0  0  0  0  0  0  0  # atno 17395 bound_to 11000

$$$$
