AV-unprocessed.smi:2007|AV-procd|sdf|8133|dock2
  -GOLD-   2272010363D 1   1.00000     0.00000
 Structure written by MMmdl.
 36 37  0  0  0  0  0  0  0  0  1 V2000
  146.7632  137.5865  155.2421 C   0  0  0  0  0  0  0  0  0  0  0  0
  146.5015  138.0721  153.8101 C   0  0  2  0  0  0  0  0  0  0  0  0
  147.3908  139.2871  153.4647 C   0  0  0  0  0  0  0  0  0  0  0  0
  148.4987  139.5441  154.3858 N   0  0  0  0  0  0  0  0  0  0  0  0
  149.6493  138.7024  154.0790 C   0  0  0  0  0  0  0  0  0  0  0  0
  150.8142  138.9494  155.0534 C   0  0  0  0  0  0  0  0  0  0  0  0
  151.1756  140.3262  155.0252 O   0  0  0  0  0  0  0  0  0  0  0  0
  150.0897  141.1859  155.3567 C   0  0  0  0  0  0  0  0  0  0  0  0
  148.9228  140.9429  154.3843 C   0  0  0  0  0  0  0  0  0  0  0  0
  145.0883  138.4239  153.6794 N   0  0  0  0  0  0  0  0  0  0  0  0
  144.0516  137.6019  153.9016 C   0  0  0  0  0  0  0  0  0  0  0  0
  144.1730  136.4388  154.2870 O   0  0  0  0  0  0  0  0  0  0  0  0
  142.8828  138.2152  153.6458 N   0  0  0  0  0  0  0  0  0  0  0  0
  141.5747  137.6666  153.6993 C   0  0  0  0  0  0  0  0  0  0  0  0
  141.2863  136.4457  154.1653 N   0  0  0  0  0  0  0  0  0  0  0  0
  139.9201  136.1640  154.0893 C   0  0  0  0  0  0  0  0  0  0  0  0
  139.1769  137.1896  153.5598 C   0  0  0  0  0  0  0  0  0  0  0  0
  140.1698  138.5576  153.1321 S   0  0  0  0  0  0  0  0  0  0  0  0
  147.8045  137.2900  155.3701 H   0  0  0  0  0  0  0  0  0  0  0  0
  146.1440  136.7218  155.4831 H   0  0  0  0  0  0  0  0  0  0  0  0
  146.5472  138.3661  155.9736 H   0  0  0  0  0  0  0  0  0  0  0  0
  146.7421  137.2384  153.1498 H   0  0  0  0  0  0  0  0  0  0  0  0
  147.7940  139.1272  152.4635 H   0  0  0  0  0  0  0  0  0  0  0  0
  146.7697  140.1813  153.3916 H   0  0  0  0  0  0  0  0  0  0  0  0
  149.3617  137.6513  154.1235 H   0  0  0  0  0  0  0  0  0  0  0  0
  149.9853  138.8914  153.0583 H   0  0  0  0  0  0  0  0  0  0  0  0
  150.5367  138.6597  156.0681 H   0  0  0  0  0  0  0  0  0  0  0  0
  151.6786  138.3474  154.7728 H   0  0  0  0  0  0  0  0  0  0  0  0
  149.7757  141.0081  156.3868 H   0  0  0  0  0  0  0  0  0  0  0  0
  150.4237  142.2217  155.2977 H   0  0  0  0  0  0  0  0  0  0  0  0
  149.2238  141.2375  153.3779 H   0  0  0  0  0  0  0  0  0  0  0  0
  148.0964  141.5941  154.6649 H   0  0  0  0  0  0  0  0  0  0  0  0
  144.8867  139.3621  153.3668 H   0  0  0  0  0  0  0  0  0  0  0  0
  142.9363  139.1802  153.3554 H   0  0  0  0  0  0  0  0  0  0  0  0
  139.5618  135.2056  154.4352 H   0  0  0  0  0  0  0  0  0  0  0  0
  138.1102  137.2221  153.3952 H   0  0  0  0  0  0  0  0  0  0  0  0
  1  2  1  0  0  0  0
  1 19  1  0  0  0  0
  1 20  1  0  0  0  0
  1 21  1  0  0  0  0
  2  3  1  0  0  0  0
  2 10  1  0  0  0  0
  2 22  1  0  0  0  0
  3  4  1  0  0  0  0
  3 23  1  0  0  0  0
  3 24  1  0  0  0  0
  4  9  1  0  0  0  0
  4  5  1  0  0  0  0
  5  6  1  0  0  0  0
  5 25  1  0  0  0  0
  5 26  1  0  0  0  0
  6  7  1  0  0  0  0
  6 27  1  0  0  0  0
  6 28  1  0  0  0  0
  7  8  1  0  0  0  0
  8  9  1  0  0  0  0
  8 29  1  0  0  0  0
  8 30  1  0  0  0  0
  9 31  1  0  0  0  0
  9 32  1  0  0  0  0
 10 11  1  0  0  0  0
 10 33  1  0  0  0  0
 11 12  2  0  0  0  0
 11 13  1  0  0  0  0
 13 14  1  0  0  0  0
 13 34  1  0  0  0  0
 14 18  1  0  0  0  0
 14 15  2  0  0  0  0
 15 16  1  0  0  0  0
 16 17  2  0  0  0  0
 16 35  1  0  0  0  0
 17 18  1  0  0  0  0
 17 36  1  0  0  0  0
M  END
> <s_m_source_file>
AV-unprocessed.smi

> <i_m_source_file_index>
2007

> <i_lp_mmshare_version>
43012

> <i_f3d_flags>
0

> <s_epik_input>
W0NIMl0xW0NIMl1PW0NIMl1bQ0gyXU4xW0NIMl1bQ0BASF0oW0NIM10pW05IXUMoPU8pW05IXWMybltjSF1bY0hdczI=

> <s_epik_cmdline>
J2VwaWtfcHl0aG9uJywgJy1waCcsICc3LjAnLCAnLXRuJywgJzgnLCAnLW1hJywgJzIwMCcsICctbWV0YWxfYmluZGluZycsICctaW1hZScsICc8aW5maWxlLm1hZT4nLCAnLW9tYWUnLCAnPG91dGZpbGUubWFlPic=

> <r_lp_tautomer_probability>
0.999

> <r_epik_Ionization_Penalty>
0.219197

> <r_epik_Ionization_Penalty_Charging>
0

> <r_epik_Ionization_Penalty_Neutral>
0.219197

> <r_epik_State_Penalty>
0.209349

> <r_epik_Charging_Adjusted_Penalty>
0.209349

> <i_epik_Tot_Q>
0

> <i_epik_Tot_abs_Q>
0

> <r_epik_Metal_State_Penalty>
0.254604

> <b_epik_Metal_Only>
0

> <s_lp_Force_Field>
OPLS_2005

> <r_lp_Energy>
23.8142

> <b_lp_Chiralities_Consistent>
1

> <s_lp_Variant>
AV-unprocessed.smi:2007-1

> <Gold.Version>
5.8.1

> <Gold.Id.Protein>
6NUR|6NUR_protein|mol2

> <Gold.PLP.Fitness>
37.1613

> <Gold.PLP.PLP>
-27.5260

> <Gold.PLP.part.hbond>
-3.0000

> <Gold.PLP.part.metal>
0.0000

> <Gold.PLP.part.buried>
-1.3153

> <Gold.PLP.part.nonpolar>
-23.1550

> <Gold.PLP.part.repulsive>
0.2435

> <Gold.PLP.ligand.clash>
0.0000

> <Gold.PLP.ligand.torsion>
0.9200

> <Gold.PLP.Chemscore.Hbond>
2.9280

> <Gold.PLP.Chemscore.CHOScore>
0.8849

> <Gold.PLP.Chemscore.Metal>
0.0000

> <Gold.Chemscore.Hbonds>
donor molecule, donor type, donor heavy atom, donor atom, acceptor molecule, acceptor atom, score
      L1  H    10    33       P1 10175  0.91
      L1  H    13    34       P1 10175  1.00
      P1  H  7989  7998       L1     7  1.00
      L1  C    16    35       P1 11000  0.80

> <Gold.PLP.Chemscore.Internal.Correction>
0.0365

> <Gold.Rescore>
     Score         DG    S(hbond)    S(metal)    S(lipo)     H(rot)  DE(clash)    DE(int)     intcor
     13.99     -17.46       2.58        0.00      63.44       1.58       0.21       3.27       ----

> <Gold.Chemscore.Fitness>
13.9862

> <Gold.Chemscore.DG>
-17.4571

> <Gold.Chemscore.ZeroCoef>
-5.4800

> <Gold.Chemscore.Hbond>
2.5767

> <Gold.Chemscore.Metal>
0.0000

> <Gold.Chemscore.Lipo>
63.4382

> <Gold.Chemscore.Internal_Hbond>
0.0000

> <Gold.Chemscore.DEClash>
0.2053

> <Gold.Chemscore.DEInternal>
3.2656

> <Gold.Chemscore.Rot>
1.5825

> <Gold.Chemscore.Internal.Correction>
   9.000000E+99

> <Gold.Chemscore.Hbonds>
donor molecule, donor type, donor heavy atom, donor atom, acceptor molecule, acceptor atom, score
      L1  H    10    33       P1 10175  0.90
      L1  H    13    34       P1 10175  0.97
      P1  H  7989  7998       L1     7  0.34

> <Gold.Chemscore.Hbond.Weighted>
-8.6061

> <Gold.Chemscore.Metal.Weighted>
-0.0000

> <Gold.Chemscore.Lipo.Weighted>
-7.4223

> <Gold.Chemscore.Internal_Hbond.Weighted>
0.0000

> <Gold.Chemscore.DEClash.Weighted>
0.2053

> <Gold.Chemscore.DEInternal.Weighted>
3.2656

> <Gold.Chemscore.Rot.Weighted>
4.0512

> <Gold.Chemscore.Internal.Correction.Weighted>
   9.000000E+99

> <Gold.Protein.RotatedTorsions>
[ 6907 6896 6895 6894 ] final  126.01 input  -60.11 | X-H torsion
[ 7974 7965 7964 7962 ] final  -60.06 input  175.53 | X-H torsion
[ 8008 7997 7996 7995 ] final -170.12 input   59.86 | X-H torsion
[ 10167 10162 10161 10158 ] final  112.41 input  -65.29 | X-H torsion
[ 10718 10713 10712 10709 ] final -161.63 input   66.30 | X-H torsion
[ 10763 10752 10751 10750 ] final   47.59 input  -60.55 | X-H torsion
[ 11005 11000 10999 10996 ] final -125.19 input  -57.11 | X-H torsion

> <Gold.Protein.ActiveResidues>
 VAL166  LYS551  ARG553  GLY616  TRP617  ASP618  TYR619  PRO620  LYS621  CYS622 
 ASP623  PHE694  ASN695  SER759  ASP760  ASP761  ALA762  ILE779  LEU786  VAL792 
 PHE793  MET794  SER795  GLU796  ALA797  LYS798  CYS799  TRP800  GLU811  SER814 

> <Gold.Protein.RotatedAtoms>
  152.3941  133.6722  159.6261 H   0  0  0  0  0  0  0  0  0  0  0  0  # atno 6907 bound_to 6896
  150.7844  133.8903  159.3320 H   0  0  0  0  0  0  0  0  0  0  0  0  # atno 6908 bound_to 6896
  151.6684  135.0981  160.0244 H   0  0  0  0  0  0  0  0  0  0  0  0  # atno 6909 bound_to 6896
  145.8200  140.8546  143.0137 H   0  0  0  0  0  0  0  0  0  0  0  0  # atno 7974 bound_to 7965
  155.9141  140.1062  157.1257 H   0  0  0  0  0  0  0  0  0  0  0  0  # atno 8008 bound_to 7997
  154.4044  140.1268  156.4659 H   0  0  0  0  0  0  0  0  0  0  0  0  # atno 8009 bound_to 7997
  155.7275  140.3469  155.5046 H   0  0  0  0  0  0  0  0  0  0  0  0  # atno 8010 bound_to 7997
  139.6538  144.7129  151.1996 H   0  0  0  0  0  0  0  0  0  0  0  0  # atno 10167 bound_to 10162
  156.5989  130.8802  151.2909 H   0  0  0  0  0  0  0  0  0  0  0  0  # atno 10718 bound_to 10713
  152.9798  135.5971  154.3787 H   0  0  0  0  0  0  0  0  0  0  0  0  # atno 10763 bound_to 10752
  154.3454  135.2767  155.2402 H   0  0  0  0  0  0  0  0  0  0  0  0  # atno 10764 bound_to 10752
  154.4466  135.6000  153.6219 H   0  0  0  0  0  0  0  0  0  0  0  0  # atno 10765 bound_to 10752
  140.9782  134.0710  157.3795 H   0  0  0  0  0  0  0  0  0  0  0  0  # atno 11005 bound_to 11000
  144.6748  140.0520  143.7478 LP  0  0  0  0  0  0  0  0  0  0  0  0  # atno 17320 bound_to 7965
  145.9685  139.2852  143.1113 LP  0  0  0  0  0  0  0  0  0  0  0  0  # atno 17321 bound_to 7965
  140.7550  143.6106  150.8609 LP  0  0  0  0  0  0  0  0  0  0  0  0  # atno 17342 bound_to 10162
  139.9757  143.6007  152.2959 LP  0  0  0  0  0  0  0  0  0  0  0  0  # atno 17343 bound_to 10162
  157.7284  130.9657  150.1743 LP  0  0  0  0  0  0  0  0  0  0  0  0  # atno 17370 bound_to 10713
  156.2486  130.3698  149.8258 LP  0  0  0  0  0  0  0  0  0  0  0  0  # atno 17371 bound_to 10713
  139.8939  135.0133  156.6923 LP  0  0  0  0  0  0  0  0  0  0  0  0  # atno 17394 bound_to 11000
  140.7227  133.9127  155.8157 LP  0  0  0  0  0  0  0  0  0  0  0  0  # atno 17395 bound_to 11000

$$$$
