AV-unprocessed.smi:485|AV-procd|sdf|2691|dock4
  -GOLD-   2262023123D 1   1.00000     0.00000
 Structure written by MMmdl.
 36 38  0  0  0  0  0  0  0  0  1 V2000
  153.3123  138.9974  155.2103 O   0  0  0  0  0  0  0  0  0  0  0  0
  152.2669  139.2593  156.1212 C   0  0  0  0  0  0  0  0  0  0  0  0
  150.9780  139.6234  155.4478 C   0  0  0  0  0  0  0  0  0  0  0  0
  150.2888  138.7334  154.7324 N   0  0  0  0  0  0  0  0  0  0  0  0
  149.1873  139.4584  154.3229 C   0  0  0  0  0  0  0  0  0  0  0  0
  148.0781  139.0760  153.5348 C   0  0  0  0  0  0  0  0  0  0  0  0
  147.0529  140.0014  153.2484 C   0  0  0  0  0  0  0  0  0  0  0  0
  147.1208  141.3184  153.7468 C   0  0  0  0  0  0  0  0  0  0  0  0
  148.2176  141.7198  154.5334 C   0  0  0  0  0  0  0  0  0  0  0  0
  149.2409  140.7937  154.8127 C   0  0  0  0  0  0  0  0  0  0  0  0
  150.4311  140.8643  155.5309 N   0  0  0  0  0  0  0  0  0  0  0  0
  150.9387  142.0412  156.2272 C   0  0  0  0  0  0  0  0  0  0  0  0
  150.3922  142.1709  157.6642 C   0  0  2  0  0  0  0  0  0  0  0  0
  149.5547  143.3054  157.7681 O   0  0  0  0  0  0  0  0  0  0  0  0
  151.5203  142.1944  158.6836 C   0  0  0  0  0  0  0  0  0  0  0  0
  151.7082  143.3292  159.5020 C   0  0  0  0  0  0  0  0  0  0  0  0
  152.7477  143.3550  160.4522 C   0  0  0  0  0  0  0  0  0  0  0  0
  153.6033  142.2453  160.5913 C   0  0  0  0  0  0  0  0  0  0  0  0
  153.4178  141.1087  159.7813 C   0  0  0  0  0  0  0  0  0  0  0  0
  152.3786  141.0823  158.8309 C   0  0  0  0  0  0  0  0  0  0  0  0
  153.2067  138.1199  154.8766 H   0  0  0  0  0  0  0  0  0  0  0  0
  152.1141  138.3694  156.7329 H   0  0  0  0  0  0  0  0  0  0  0  0
  152.5635  140.0557  156.8035 H   0  0  0  0  0  0  0  0  0  0  0  0
  148.0156  138.0685  153.1509 H   0  0  0  0  0  0  0  0  0  0  0  0
  146.2099  139.6984  152.6450 H   0  0  0  0  0  0  0  0  0  0  0  0
  146.3307  142.0207  153.5248 H   0  0  0  0  0  0  0  0  0  0  0  0
  148.2708  142.7276  154.9170 H   0  0  0  0  0  0  0  0  0  0  0  0
  152.0267  141.9700  156.2513 H   0  0  0  0  0  0  0  0  0  0  0  0
  150.7077  142.9391  155.6558 H   0  0  0  0  0  0  0  0  0  0  0  0
  149.7617  141.3087  157.8819 H   0  0  0  0  0  0  0  0  0  0  0  0
  149.6090  143.7924  156.9605 H   0  0  0  0  0  0  0  0  0  0  0  0
  151.0558  144.1847  159.4048 H   0  0  0  0  0  0  0  0  0  0  0  0
  152.8884  144.2261  161.0751 H   0  0  0  0  0  0  0  0  0  0  0  0
  154.4003  142.2658  161.3200 H   0  0  0  0  0  0  0  0  0  0  0  0
  154.0724  140.2564  159.8887 H   0  0  0  0  0  0  0  0  0  0  0  0
  152.2413  140.2048  158.2158 H   0  0  0  0  0  0  0  0  0  0  0  0
  1  2  1  0  0  0  0
  1 21  1  0  0  0  0
  2  3  1  0  0  0  0
  2 22  1  0  0  0  0
  2 23  1  0  0  0  0
  3 11  1  0  0  0  0
  3  4  2  0  0  0  0
  4  5  1  0  0  0  0
  5 10  2  0  0  0  0
  5  6  1  0  0  0  0
  6  7  2  0  0  0  0
  6 24  1  0  0  0  0
  7  8  1  0  0  0  0
  7 25  1  0  0  0  0
  8  9  2  0  0  0  0
  8 26  1  0  0  0  0
  9 10  1  0  0  0  0
  9 27  1  0  0  0  0
 10 11  1  0  0  0  0
 11 12  1  0  0  0  0
 12 13  1  0  0  0  0
 12 28  1  0  0  0  0
 12 29  1  0  0  0  0
 13 14  1  0  0  0  0
 13 15  1  0  0  0  0
 13 30  1  0  0  0  0
 14 31  1  0  0  0  0
 15 20  1  0  0  0  0
 15 16  2  0  0  0  0
 16 17  1  0  0  0  0
 16 32  1  0  0  0  0
 17 18  2  0  0  0  0
 17 33  1  0  0  0  0
 18 19  1  0  0  0  0
 18 34  1  0  0  0  0
 19 20  2  0  0  0  0
 19 35  1  0  0  0  0
 20 36  1  0  0  0  0
M  END
> <s_m_source_file>
AV-unprocessed.smi

> <i_m_source_file_index>
485

> <i_lp_mmshare_version>
43012

> <i_f3d_flags>
0

> <s_epik_input>
W2NIXTFbY0hdW2NIXVtjSF1jKGMxMiluKGMobjIpW0NIMl1bT0hdKVtDSDJdW0NASF0oW09IXSljM1tjSF1bY0hdW2NIXVtjSF1bY0hdMw==

> <s_epik_cmdline>
J2VwaWtfcHl0aG9uJywgJy1waCcsICc3LjAnLCAnLXRuJywgJzgnLCAnLW1hJywgJzIwMCcsICctbWV0YWxfYmluZGluZycsICctaW1hZScsICc8aW5maWxlLm1hZT4nLCAnLW9tYWUnLCAnPG91dGZpbGUubWFlPic=

> <r_epik_Ionization_Penalty>
0.0634722

> <r_epik_Ionization_Penalty_Charging>
0

> <r_epik_Ionization_Penalty_Neutral>
0.0634722

> <r_epik_State_Penalty>
0.0551572

> <r_epik_Charging_Adjusted_Penalty>
0.0551572

> <i_epik_Tot_Q>
0

> <i_epik_Tot_abs_Q>
0

> <r_epik_Metal_State_Penalty>
5.78034e-05

> <b_epik_Metal_Only>
0

> <s_lp_Force_Field>
OPLS_2005

> <r_lp_Energy>
12.7627

> <b_lp_Chiralities_Consistent>
1

> <s_lp_Variant>
AV-unprocessed.smi:485-1

> <Gold.Version>
5.8.1

> <Gold.Id.Protein>
6NUR|6NUR_protein|mol2

> <Gold.PLP.Fitness>
49.7976

> <Gold.PLP.PLP>
-46.1536

> <Gold.PLP.part.hbond>
-2.4383

> <Gold.PLP.part.metal>
0.0000

> <Gold.PLP.part.buried>
-2.7609

> <Gold.PLP.part.nonpolar>
-40.9850

> <Gold.PLP.part.repulsive>
0.1496

> <Gold.PLP.ligand.clash>
0.0000

> <Gold.PLP.ligand.torsion>
1.2097

> <Gold.PLP.Chemscore.Hbond>
2.0000

> <Gold.PLP.Chemscore.CHOScore>
0.0000

> <Gold.PLP.Chemscore.Metal>
0.0000

> <Gold.Chemscore.Hbonds>
donor molecule, donor type, donor heavy atom, donor atom, acceptor molecule, acceptor atom, score
      L1  H    14    31       P1  8028  1.00
      P1  H  7997  8010       L1     1  1.00

> <Gold.PLP.Chemscore.Internal.Correction>
0.0633

> <Gold.Rescore>
     Score         DG    S(hbond)    S(metal)    S(lipo)     H(rot)  DE(clash)    DE(int)     intcor
     18.02     -19.65       1.88        0.00     124.71       2.62       0.18       1.45       ----

> <Gold.Chemscore.Fitness>
18.0165

> <Gold.Chemscore.DG>
-19.6455

> <Gold.Chemscore.ZeroCoef>
-5.4800

> <Gold.Chemscore.Hbond>
1.8831

> <Gold.Chemscore.Metal>
0.0000

> <Gold.Chemscore.Lipo>
124.7125

> <Gold.Chemscore.Internal_Hbond>
0.0000

> <Gold.Chemscore.DEClash>
0.1813

> <Gold.Chemscore.DEInternal>
1.4477

> <Gold.Chemscore.Rot>
2.6232

> <Gold.Chemscore.Internal.Correction>
   9.000000E+99

> <Gold.Chemscore.Hbonds>
donor molecule, donor type, donor heavy atom, donor atom, acceptor molecule, acceptor atom, score
      L1  H    14    31       P1  8028  0.87
      P1  H  7997  8010       L1     1  0.25

> <Gold.Chemscore.Hbond.Weighted>
-6.2896

> <Gold.Chemscore.Metal.Weighted>
-0.0000

> <Gold.Chemscore.Lipo.Weighted>
-14.5914

> <Gold.Chemscore.Internal_Hbond.Weighted>
0.0000

> <Gold.Chemscore.DEClash.Weighted>
0.1813

> <Gold.Chemscore.DEInternal.Weighted>
1.4477

> <Gold.Chemscore.Rot.Weighted>
6.7154

> <Gold.Chemscore.Internal.Correction.Weighted>
   9.000000E+99

> <Gold.Protein.RotatedTorsions>
[ 6907 6896 6895 6894 ] final  153.55 input  -60.11 | X-H torsion
[ 7974 7965 7964 7962 ] final  -70.52 input  175.53 | X-H torsion
[ 8008 7997 7996 7995 ] final  112.80 input   59.86 | X-H torsion
[ 10167 10162 10161 10158 ] final  -54.28 input  -65.29 | X-H torsion
[ 10718 10713 10712 10709 ] final   44.64 input   66.30 | X-H torsion
[ 10763 10752 10751 10750 ] final  157.21 input  -60.55 | X-H torsion
[ 11005 11000 10999 10996 ] final  -93.27 input  -57.11 | X-H torsion

> <Gold.Protein.ActiveResidues>
 VAL166  LYS551  ARG553  GLY616  TRP617  ASP618  TYR619  PRO620  LYS621  CYS622 
 ASP623  PHE694  ASN695  SER759  ASP760  ASP761  ALA762  ILE779  LEU786  VAL792 
 PHE793  MET794  SER795  GLU796  ALA797  LYS798  CYS799  TRP800  GLU811  SER814 

> <Gold.Protein.RotatedAtoms>
  152.0711  133.4107  159.4459 H   0  0  0  0  0  0  0  0  0  0  0  0  # atno 6907 bound_to 6896
  150.6863  134.3091  159.4748 H   0  0  0  0  0  0  0  0  0  0  0  0  # atno 6908 bound_to 6896
  152.0923  134.9398  160.0622 H   0  0  0  0  0  0  0  0  0  0  0  0  # atno 6909 bound_to 6896
  145.6899  140.9157  143.0787 H   0  0  0  0  0  0  0  0  0  0  0  0  # atno 7974 bound_to 7965
  156.2216  140.2992  155.9967 H   0  0  0  0  0  0  0  0  0  0  0  0  # atno 8008 bound_to 7997
  155.2465  140.0424  157.2998 H   0  0  0  0  0  0  0  0  0  0  0  0  # atno 8009 bound_to 7997
  154.5850  140.2386  155.8008 H   0  0  0  0  0  0  0  0  0  0  0  0  # atno 8010 bound_to 7997
  140.6439  143.2523  151.4914 H   0  0  0  0  0  0  0  0  0  0  0  0  # atno 10167 bound_to 10162
  157.4290  130.8014  149.7586 H   0  0  0  0  0  0  0  0  0  0  0  0  # atno 10718 bound_to 10713
  154.1966  135.2792  155.3005 H   0  0  0  0  0  0  0  0  0  0  0  0  # atno 10763 bound_to 10752
  154.5887  135.5566  153.7260 H   0  0  0  0  0  0  0  0  0  0  0  0  # atno 10764 bound_to 10752
  153.0098  135.6363  154.2104 H   0  0  0  0  0  0  0  0  0  0  0  0  # atno 10765 bound_to 10752
  141.1501  133.7876  157.0135 H   0  0  0  0  0  0  0  0  0  0  0  0  # atno 11005 bound_to 11000
  144.7000  139.8808  143.7447 LP  0  0  0  0  0  0  0  0  0  0  0  0  # atno 17320 bound_to 7965
  146.0890  139.3880  143.0417 LP  0  0  0  0  0  0  0  0  0  0  0  0  # atno 17321 bound_to 7965
  139.5649  144.2067  152.1749 LP  0  0  0  0  0  0  0  0  0  0  0  0  # atno 17342 bound_to 10162
  140.1346  144.5257  150.6781 LP  0  0  0  0  0  0  0  0  0  0  0  0  # atno 17343 bound_to 10162
  155.9906  130.3943  150.3019 LP  0  0  0  0  0  0  0  0  0  0  0  0  # atno 17370 bound_to 10713
  157.1174  131.0237  151.3023 LP  0  0  0  0  0  0  0  0  0  0  0  0  # atno 17371 bound_to 10713
  140.0862  134.9619  157.1703 LP  0  0  0  0  0  0  0  0  0  0  0  0  # atno 17394 bound_to 11000
  140.3509  134.2600  155.7199 LP  0  0  0  0  0  0  0  0  0  0  0  0  # atno 17395 bound_to 11000

$$$$
