AV-unprocessed.smi:1752|AV-procd|sdf|7060|dock3
  -GOLD-   22720 8273D 1   1.00000     0.00000
 Structure written by MMmdl.
 43 44  0  0  0  0  0  0  0  0  2 V2000
  150.7044  141.5758  158.0081 C   0  0  0  0  0  0  0  0  0  0  0  0
  151.0361  142.1313  156.6167 C   0  0  2  0  0  0  0  0  0  0  0  0
  151.6207  143.5570  156.7064 C   0  0  0  0  0  0  0  0  0  0  0  0
  151.5090  144.1307  158.0358 N   0  0  0  0  0  0  0  0  0  0  0  0
  152.5166  144.5729  158.8671 C   0  0  0  0  0  0  0  0  0  0  0  0
  151.9284  145.0245  160.0135 C   0  0  0  0  0  0  0  0  0  0  0  0
  150.5390  144.8195  159.7838 C   0  0  0  0  0  0  0  0  0  0  0  0
  150.2912  144.2878  158.5977 N   0  0  0  0  0  0  0  0  0  0  0  0
  149.8214  142.1159  155.8032 N   0  0  0  0  0  0  0  0  0  0  0  0
  149.5203  141.2197  154.8468 C   0  0  0  0  0  0  0  0  0  0  0  0
  150.2807  140.3027  154.5347 O   0  0  0  0  0  0  0  0  0  0  0  0
  148.3166  141.4108  154.2498 N   0  0  0  0  0  0  0  0  0  0  0  0
  147.2463  142.2967  154.7376 C   0  0  0  0  0  0  0  0  0  0  0  0
  146.3123  141.5374  155.6957 C   0  0  0  0  0  0  0  0  0  0  0  0
  145.6765  140.2724  155.0814 C   0  0  0  0  0  0  0  0  0  0  0  0
  146.6766  139.1877  154.8886 N   0  3  1  0  0  0  0  0  0  0  0  0
  146.1320  137.8492  155.2080 C   0  0  0  0  0  0  0  0  0  0  0  0
  147.3587  139.1973  153.5637 C   0  0  0  0  0  0  0  0  0  0  0  0
  147.8992  140.5756  153.1166 C   0  0  0  0  0  0  0  0  0  0  0  0
  151.5958  141.5335  158.6348 H   0  0  0  0  0  0  0  0  0  0  0  0
  150.3019  140.5645  157.9421 H   0  0  0  0  0  0  0  0  0  0  0  0
  149.9676  142.1967  158.5192 H   0  0  0  0  0  0  0  0  0  0  0  0
  151.7848  141.4683  156.1790 H   0  0  0  0  0  0  0  0  0  0  0  0
  152.6706  143.5605  156.4096 H   0  0  0  0  0  0  0  0  0  0  0  0
  151.1010  144.2195  156.0126 H   0  0  0  0  0  0  0  0  0  0  0  0
  153.5563  144.5259  158.5786 H   0  0  0  0  0  0  0  0  0  0  0  0
  152.4154  145.4392  160.8834 H   0  0  0  0  0  0  0  0  0  0  0  0
  149.7089  145.0413  160.4381 H   0  0  0  0  0  0  0  0  0  0  0  0
  149.1491  142.8462  155.9875 H   0  0  0  0  0  0  0  0  0  0  0  0
  147.6411  143.1869  155.2285 H   0  0  0  0  0  0  0  0  0  0  0  0
  146.6669  142.6900  153.9016 H   0  0  0  0  0  0  0  0  0  0  0  0
  146.8509  141.2713  156.6062 H   0  0  0  0  0  0  0  0  0  0  0  0
  145.5166  142.2143  156.0078 H   0  0  0  0  0  0  0  0  0  0  0  0
  144.9048  139.9320  155.7733 H   0  0  0  0  0  0  0  0  0  0  0  0
  145.1609  140.4960  154.1463 H   0  0  0  0  0  0  0  0  0  0  0  0
  145.3088  137.5924  154.5398 H   0  0  0  0  0  0  0  0  0  0  0  0
  145.7653  137.8147  156.2345 H   0  0  0  0  0  0  0  0  0  0  0  0
  146.9038  137.0850  155.1101 H   0  0  0  0  0  0  0  0  0  0  0  0
  148.1933  138.4971  153.6212 H   0  0  0  0  0  0  0  0  0  0  0  0
  146.6862  138.8089  152.7974 H   0  0  0  0  0  0  0  0  0  0  0  0
  147.1258  141.0836  152.5396 H   0  0  0  0  0  0  0  0  0  0  0  0
  148.7206  140.4438  152.4103 H   0  0  0  0  0  0  0  0  0  0  0  0
  147.3961  139.3574  155.5772 H   0  0  0  0  0  0  0  0  0  0  0  0
  1  2  1  0  0  0  0
  1 20  1  0  0  0  0
  1 21  1  0  0  0  0
  1 22  1  0  0  0  0
  2  3  1  0  0  0  0
  2  9  1  0  0  0  0
  2 23  1  0  0  0  0
  3  4  1  0  0  0  0
  3 24  1  0  0  0  0
  3 25  1  0  0  0  0
  4  8  1  0  0  0  0
  4  5  1  0  0  0  0
  5  6  2  0  0  0  0
  5 26  1  0  0  0  0
  6  7  1  0  0  0  0
  6 27  1  0  0  0  0
  7  8  2  0  0  0  0
  7 28  1  0  0  0  0
  9 10  1  0  0  0  0
  9 29  1  0  0  0  0
 10 11  2  0  0  0  0
 10 12  1  0  0  0  0
 12 19  1  0  0  0  0
 12 13  1  0  0  0  0
 13 14  1  0  0  0  0
 13 30  1  0  0  0  0
 13 31  1  0  0  0  0
 14 15  1  0  0  0  0
 14 32  1  0  0  0  0
 14 33  1  0  0  0  0
 15 16  1  0  0  0  0
 15 34  1  0  0  0  0
 15 35  1  0  0  0  0
 16 17  1  0  0  0  0
 16 18  1  0  0  0  0
 16 43  1  0  0  0  0
 17 36  1  0  0  0  0
 17 37  1  0  0  0  0
 17 38  1  0  0  0  0
 18 19  1  0  0  0  0
 18 39  1  0  0  0  0
 18 40  1  0  0  0  0
 19 41  1  0  0  0  0
 19 42  1  0  0  0  0
M  CHG  1  16   1
M  END
> <s_m_source_file>
AV-unprocessed.smi

> <i_m_source_file_index>
1752

> <i_lp_mmshare_version>
43012

> <i_f3d_flags>
0

> <s_epik_input>
bjFbY0hdW2NIXVtjSF1uMVtDSDJdW0NAQEhdKFtDSDNdKVtOSF1DKD1PKU4yW0NIMl1bQ0gyXVtDSDJdTihbQ0gzXSlbQ0gyXVtDSDJdMg==

> <s_epik_cmdline>
J2VwaWtfcHl0aG9uJywgJy1waCcsICc3LjAnLCAnLXRuJywgJzgnLCAnLW1hJywgJzIwMCcsICctbWV0YWxfYmluZGluZycsICctaW1hZScsICc8aW5maWxlLm1hZT4nLCAnLW9tYWUnLCAnPG91dGZpbGUubWFlPic=

> <r_lp_tautomer_probability>
1

> <r_epik_Ionization_Penalty>
0.00208423

> <r_epik_Ionization_Penalty_Charging>
0.00203643

> <r_epik_Ionization_Penalty_Neutral>
4.77939e-05

> <r_epik_State_Penalty>
0.00139278

> <r_epik_Charging_Adjusted_Penalty>
0.00342922

> <i_epik_Tot_Q>
1

> <i_epik_Tot_abs_Q>
1

> <r_epik_Metal_State_Penalty>
-0

> <b_epik_Metal_Only>
0

> <s_lp_Force_Field>
OPLS_2005

> <r_lp_Energy>
39.6128

> <b_lp_Chiralities_Consistent>
1

> <s_lp_Variant>
AV-unprocessed.smi:1752-3

> <Gold.Version>
5.8.1

> <Gold.Id.Protein>
6NUR|6NUR_protein|mol2

> <Gold.PLP.Fitness>
39.6860

> <Gold.PLP.PLP>
-36.4945

> <Gold.PLP.part.hbond>
-2.0000

> <Gold.PLP.part.metal>
0.0000

> <Gold.PLP.part.buried>
-1.5215

> <Gold.PLP.part.nonpolar>
-34.1069

> <Gold.PLP.part.repulsive>
0.4316

> <Gold.PLP.ligand.clash>
0.0000

> <Gold.PLP.ligand.torsion>
0.9609

> <Gold.PLP.Chemscore.Hbond>
1.6960

> <Gold.PLP.Chemscore.CHOScore>
0.0000

> <Gold.PLP.Chemscore.Metal>
0.0000

> <Gold.Chemscore.Hbonds>
donor molecule, donor type, donor heavy atom, donor atom, acceptor molecule, acceptor atom, score
      L1  H     9    29       P1  8028  0.80
      P1  H  7989  7998       L1    11  1.00

> <Gold.PLP.Chemscore.Internal.Correction>
0.0253

> <Gold.Rescore>
     Score         DG    S(hbond)    S(metal)    S(lipo)     H(rot)  DE(clash)    DE(int)     intcor
     13.62     -17.66       1.61        0.00      89.01       1.41       2.80       1.25       ----

> <Gold.Chemscore.Fitness>
13.6203

> <Gold.Chemscore.DG>
-17.6622

> <Gold.Chemscore.ZeroCoef>
-5.4800

> <Gold.Chemscore.Hbond>
1.6120

> <Gold.Chemscore.Metal>
0.0000

> <Gold.Chemscore.Lipo>
89.0088

> <Gold.Chemscore.Internal_Hbond>
0.0000

> <Gold.Chemscore.DEClash>
2.7955

> <Gold.Chemscore.DEInternal>
1.2464

> <Gold.Chemscore.Rot>
1.4125

> <Gold.Chemscore.Internal.Correction>
   9.000000E+99

> <Gold.Chemscore.Hbonds>
donor molecule, donor type, donor heavy atom, donor atom, acceptor molecule, acceptor atom, score
      L1  H     9    29       P1  8028  0.79
      P1  H  7989  7998       L1    11  0.79

> <Gold.Chemscore.Hbond.Weighted>
-5.3841

> <Gold.Chemscore.Metal.Weighted>
-0.0000

> <Gold.Chemscore.Lipo.Weighted>
-10.4140

> <Gold.Chemscore.Internal_Hbond.Weighted>
0.0000

> <Gold.Chemscore.DEClash.Weighted>
2.7955

> <Gold.Chemscore.DEInternal.Weighted>
1.2464

> <Gold.Chemscore.Rot.Weighted>
3.6160

> <Gold.Chemscore.Internal.Correction.Weighted>
   9.000000E+99

> <Gold.Protein.RotatedTorsions>
[ 6907 6896 6895 6894 ] final   75.63 input  -60.11 | X-H torsion
[ 7974 7965 7964 7962 ] final  -48.69 input  175.53 | X-H torsion
[ 8008 7997 7996 7995 ] final -116.94 input   59.86 | X-H torsion
[ 10167 10162 10161 10158 ] final   71.05 input  -65.29 | X-H torsion
[ 10718 10713 10712 10709 ] final  -50.71 input   66.30 | X-H torsion
[ 10763 10752 10751 10750 ] final  -66.80 input  -60.55 | X-H torsion
[ 11005 11000 10999 10996 ] final  115.89 input  -57.11 | X-H torsion

> <Gold.Protein.ActiveResidues>
 VAL166  LYS551  ARG553  GLY616  TRP617  ASP618  TYR619  PRO620  LYS621  CYS622 
 ASP623  PHE694  ASN695  SER759  ASP760  ASP761  ALA762  ILE779  LEU786  VAL792 
 PHE793  MET794  SER795  GLU796  ALA797  LYS798  CYS799  TRP800  GLU811  SER814 

> <Gold.Protein.RotatedAtoms>
  152.5035  134.4092  159.9442 H   0  0  0  0  0  0  0  0  0  0  0  0  # atno 6907 bound_to 6896
  151.4059  133.3736  159.2745 H   0  0  0  0  0  0  0  0  0  0  0  0  # atno 6908 bound_to 6896
  150.9327  134.8763  159.7621 H   0  0  0  0  0  0  0  0  0  0  0  0  # atno 6909 bound_to 6896
  145.9484  140.7595  142.9517 H   0  0  0  0  0  0  0  0  0  0  0  0  # atno 7974 bound_to 7965
  155.0758  140.0394  157.2623 H   0  0  0  0  0  0  0  0  0  0  0  0  # atno 8008 bound_to 7997
  154.6946  140.2660  155.6754 H   0  0  0  0  0  0  0  0  0  0  0  0  # atno 8009 bound_to 7997
  156.2740  140.2752  156.1536 H   0  0  0  0  0  0  0  0  0  0  0  0  # atno 8010 bound_to 7997
  140.0503  144.5317  150.7368 H   0  0  0  0  0  0  0  0  0  0  0  0  # atno 10167 bound_to 10162
  156.1776  130.4150  149.9554 H   0  0  0  0  0  0  0  0  0  0  0  0  # atno 10718 bound_to 10713
  154.3651  135.6107  153.5710 H   0  0  0  0  0  0  0  0  0  0  0  0  # atno 10763 bound_to 10752
  152.9792  135.5824  154.4588 H   0  0  0  0  0  0  0  0  0  0  0  0  # atno 10764 bound_to 10752
  154.4332  135.2848  155.1876 H   0  0  0  0  0  0  0  0  0  0  0  0  # atno 10765 bound_to 10752
  139.9024  134.9590  156.7114 H   0  0  0  0  0  0  0  0  0  0  0  0  # atno 11005 bound_to 11000
  144.6791  140.2395  143.7345 LP  0  0  0  0  0  0  0  0  0  0  0  0  # atno 17320 bound_to 7965
  145.8204  139.2041  143.1941 LP  0  0  0  0  0  0  0  0  0  0  0  0  # atno 17321 bound_to 7965
  140.7220  143.2598  151.4248 LP  0  0  0  0  0  0  0  0  0  0  0  0  # atno 17342 bound_to 10162
  139.5957  144.1403  152.2141 LP  0  0  0  0  0  0  0  0  0  0  0  0  # atno 17343 bound_to 10162
  156.7334  130.9052  151.3627 LP  0  0  0  0  0  0  0  0  0  0  0  0  # atno 17370 bound_to 10713
  157.6846  130.9173  150.0354 LP  0  0  0  0  0  0  0  0  0  0  0  0  # atno 17371 bound_to 10713
  140.7073  133.9254  155.8062 LP  0  0  0  0  0  0  0  0  0  0  0  0  # atno 17394 bound_to 11000
  141.0327  134.0733  157.3995 LP  0  0  0  0  0  0  0  0  0  0  0  0  # atno 17395 bound_to 11000

$$$$
