AV-unprocessed.smi:1176|AV-procd|sdf|4952|dock8
  -GOLD-   22720 3543D 1   1.00000     0.00000
 Structure written by MMmdl.
 50 51  0  0  0  0  0  0  0  0  2 V2000
  145.1562  132.6656  150.4568 C   0  0  0  0  0  0  0  0  0  0  0  0
  146.0603  133.7809  151.0029 C   0  0  0  0  0  0  0  0  0  0  0  0
  146.4719  133.4757  152.4530 C   0  0  0  0  0  0  0  0  0  0  0  0
  145.3624  135.1528  150.8790 C   0  0  0  0  0  0  0  0  0  0  0  0
  146.1516  136.2662  151.4678 N   0  3  2  0  0  0  0  0  0  0  0  0
  145.7410  136.5660  152.8643 C   0  0  0  0  0  0  0  0  0  0  0  0
  146.6551  137.6258  153.5017 C   0  0  0  0  0  0  0  0  0  0  0  0
  146.6816  138.9136  152.6591 C   0  0  1  0  0  0  0  0  0  0  0  0
  147.6152  139.8875  153.2163 N   0  0  0  0  0  0  0  0  0  0  0  0
  147.3493  140.7115  154.2413 C   0  0  0  0  0  0  0  0  0  0  0  0
  146.2771  140.7075  154.8477 O   0  0  0  0  0  0  0  0  0  0  0  0
  148.4789  141.6671  154.6493 C   0  0  0  0  0  0  0  0  0  0  0  0
  149.5853  140.9876  155.3356 N   0  0  0  0  0  0  0  0  0  0  0  0
  150.2134  139.9155  154.7282 C   0  0  0  0  0  0  0  0  0  0  0  0
  151.2227  139.2224  155.2991 C   0  0  0  0  0  0  0  0  0  0  0  0
  151.7214  139.5793  156.6217 C   0  0  0  0  0  0  0  0  0  0  0  0
  152.6226  138.9610  157.1893 O   0  0  0  0  0  0  0  0  0  0  0  0
  151.0747  140.6909  157.2129 N   0  0  0  0  0  0  0  0  0  0  0  0
  151.4935  141.0997  158.5377 C   0  0  0  0  0  0  0  0  0  0  0  0
  150.0063  141.3999  156.6184 C   0  0  0  0  0  0  0  0  0  0  0  0
  149.4462  142.3391  157.1894 O   0  0  0  0  0  0  0  0  0  0  0  0
  147.0824  138.5696  151.2164 C   0  0  0  0  0  0  0  0  0  0  0  0
  146.1567  137.4928  150.6260 C   0  0  0  0  0  0  0  0  0  0  0  0
  144.2274  132.5931  151.0239 H   0  0  0  0  0  0  0  0  0  0  0  0
  145.6527  131.6960  150.5069 H   0  0  0  0  0  0  0  0  0  0  0  0
  144.8954  132.8450  149.4135 H   0  0  0  0  0  0  0  0  0  0  0  0
  146.9623  133.7782  150.3916 H   0  0  0  0  0  0  0  0  0  0  0  0
  145.6066  133.4610  153.1165 H   0  0  0  0  0  0  0  0  0  0  0  0
  147.1727  134.2184  152.8351 H   0  0  0  0  0  0  0  0  0  0  0  0
  146.9602  132.5033  152.5249 H   0  0  0  0  0  0  0  0  0  0  0  0
  145.1452  135.3828  149.8346 H   0  0  0  0  0  0  0  0  0  0  0  0
  144.3950  135.0865  151.3794 H   0  0  0  0  0  0  0  0  0  0  0  0
  144.7043  136.9067  152.8750 H   0  0  0  0  0  0  0  0  0  0  0  0
  145.7821  135.6560  153.4642 H   0  0  0  0  0  0  0  0  0  0  0  0
  146.3108  137.8420  154.5137 H   0  0  0  0  0  0  0  0  0  0  0  0
  147.6648  137.2238  153.5985 H   0  0  0  0  0  0  0  0  0  0  0  0
  145.6811  139.3508  152.6416 H   0  0  0  0  0  0  0  0  0  0  0  0
  148.5234  139.9542  152.7796 H   0  0  0  0  0  0  0  0  0  0  0  0
  148.8466  142.1630  153.7499 H   0  0  0  0  0  0  0  0  0  0  0  0
  148.0805  142.4627  155.2818 H   0  0  0  0  0  0  0  0  0  0  0  0
  149.8767  139.6079  153.7489 H   0  0  0  0  0  0  0  0  0  0  0  0
  151.6647  138.3895  154.7722 H   0  0  0  0  0  0  0  0  0  0  0  0
  151.4163  142.1851  158.6185 H   0  0  0  0  0  0  0  0  0  0  0  0
  152.5362  140.8250  158.7007 H   0  0  0  0  0  0  0  0  0  0  0  0
  150.8340  140.5977  159.2468 H   0  0  0  0  0  0  0  0  0  0  0  0
  147.0476  139.4651  150.5945 H   0  0  0  0  0  0  0  0  0  0  0  0
  148.1139  138.2142  151.1903 H   0  0  0  0  0  0  0  0  0  0  0  0
  146.4910  137.2604  149.6159 H   0  0  0  0  0  0  0  0  0  0  0  0
  145.1404  137.8809  150.5395 H   0  0  0  0  0  0  0  0  0  0  0  0
  147.1059  135.9396  151.5216 H   0  0  0  0  0  0  0  0  0  0  0  0
  1  2  1  0  0  0  0
  1 24  1  0  0  0  0
  1 25  1  0  0  0  0
  1 26  1  0  0  0  0
  2  3  1  0  0  0  0
  2  4  1  0  0  0  0
  2 27  1  0  0  0  0
  3 28  1  0  0  0  0
  3 29  1  0  0  0  0
  3 30  1  0  0  0  0
  4  5  1  0  0  0  0
  4 31  1  0  0  0  0
  4 32  1  0  0  0  0
  5 23  1  0  0  0  0
  5  6  1  0  0  0  0
  5 50  1  0  0  0  0
  6  7  1  0  0  0  0
  6 33  1  0  0  0  0
  6 34  1  0  0  0  0
  7  8  1  0  0  0  0
  7 35  1  0  0  0  0
  7 36  1  0  0  0  0
  8  9  1  0  0  0  0
  8 22  1  0  0  0  0
  8 37  1  0  0  0  0
  9 10  1  0  0  0  0
  9 38  1  0  0  0  0
 10 11  2  0  0  0  0
 10 12  1  0  0  0  0
 12 13  1  0  0  0  0
 12 39  1  0  0  0  0
 12 40  1  0  0  0  0
 13 20  1  0  0  0  0
 13 14  1  0  0  0  0
 14 15  2  0  0  0  0
 14 41  1  0  0  0  0
 15 16  1  0  0  0  0
 15 42  1  0  0  0  0
 16 17  2  0  0  0  0
 16 18  1  0  0  0  0
 18 19  1  0  0  0  0
 18 20  1  0  0  0  0
 19 43  1  0  0  0  0
 19 44  1  0  0  0  0
 19 45  1  0  0  0  0
 20 21  2  0  0  0  0
 22 23  1  0  0  0  0
 22 46  1  0  0  0  0
 22 47  1  0  0  0  0
 23 48  1  0  0  0  0
 23 49  1  0  0  0  0
M  CHG  1   5   1
M  END
> <s_m_source_file>
AV-unprocessed.smi

> <i_m_source_file_index>
1176

> <i_lp_mmshare_version>
43012

> <i_f3d_flags>
0

> <s_epik_input>
W0NIM11bQ0hdKFtDSDNdKVtDSDJdTjFbQ0gyXVtDSDJdW0NIXShbQ0gyXVtDSDJdMSlbTkhdQyg9TylbQ0gyXW4yW2NIXVtjSF1jKD1PKW4oW0NIM10pYzI9Tw==

> <s_epik_cmdline>
J2VwaWtfcHl0aG9uJywgJy1waCcsICc3LjAnLCAnLXRuJywgJzgnLCAnLW1hJywgJzIwMCcsICctbWV0YWxfYmluZGluZycsICctaW1hZScsICc8aW5maWxlLm1hZT4nLCAnLW9tYWUnLCAnPG91dGZpbGUubWFlPic=

> <r_lp_tautomer_probability>
1

> <r_epik_Ionization_Penalty>
0.00401429

> <r_epik_Ionization_Penalty_Charging>
0.00401425

> <r_epik_Ionization_Penalty_Neutral>
4.29561e-08

> <r_epik_State_Penalty>
0.00287487

> <r_epik_Charging_Adjusted_Penalty>
0.00688912

> <i_epik_Tot_Q>
1

> <i_epik_Tot_abs_Q>
1

> <r_epik_Metal_State_Penalty>
-0

> <b_epik_Metal_Only>
0

> <s_lp_Force_Field>
OPLS_2005

> <r_lp_Energy>
26.9025

> <b_lp_Chiralities_Consistent>
1

> <s_lp_Variant>
AV-unprocessed.smi:1176-1

> <Gold.Version>
5.8.1

> <Gold.Id.Protein>
6NUR|6NUR_protein|mol2

> <Gold.PLP.Fitness>
51.3143

> <Gold.PLP.PLP>
-38.3581

> <Gold.PLP.part.hbond>
-3.0000

> <Gold.PLP.part.metal>
0.0000

> <Gold.PLP.part.buried>
7.7038

> <Gold.PLP.part.nonpolar>
-44.2697

> <Gold.PLP.part.repulsive>
1.1613

> <Gold.PLP.ligand.clash>
0.0000

> <Gold.PLP.ligand.torsion>
1.0425

> <Gold.PLP.Chemscore.Hbond>
4.0000

> <Gold.PLP.Chemscore.CHOScore>
1.0000

> <Gold.PLP.Chemscore.Metal>
0.0000

> <Gold.Chemscore.Hbonds>
donor molecule, donor type, donor heavy atom, donor atom, acceptor molecule, acceptor atom, score
      L1  H     5    50       P1  7948  2.00
      L1  H     9    38       P1  7957  0.98
      P1  H  7997  8008       L1    17  0.68
      L1  C    14    41       P1  7957  0.74

> <Gold.PLP.Chemscore.Internal.Correction>
0.0411

> <Gold.Rescore>
     Score         DG    S(hbond)    S(metal)    S(lipo)     H(rot)  DE(clash)    DE(int)     intcor
     14.93     -19.13       2.45        0.00      88.77       1.92       2.01       2.20       ----

> <Gold.Chemscore.Fitness>
14.9251

> <Gold.Chemscore.DG>
-19.1285

> <Gold.Chemscore.ZeroCoef>
-5.4800

> <Gold.Chemscore.Hbond>
2.4481

> <Gold.Chemscore.Metal>
0.0000

> <Gold.Chemscore.Lipo>
88.7736

> <Gold.Chemscore.Internal_Hbond>
0.0000

> <Gold.Chemscore.DEClash>
2.0072

> <Gold.Chemscore.DEInternal>
2.1962

> <Gold.Chemscore.Rot>
1.9198

> <Gold.Chemscore.Internal.Correction>
   9.000000E+99

> <Gold.Chemscore.Hbonds>
donor molecule, donor type, donor heavy atom, donor atom, acceptor molecule, acceptor atom, score
      L1  H     5    50       P1  7948  0.96
      L1  H     9    38       P1  7957  0.92
      P1  H  7997  8008       L1    17  0.40

> <Gold.Chemscore.Hbond.Weighted>
-8.1766

> <Gold.Chemscore.Metal.Weighted>
-0.0000

> <Gold.Chemscore.Lipo.Weighted>
-10.3865

> <Gold.Chemscore.Internal_Hbond.Weighted>
0.0000

> <Gold.Chemscore.DEClash.Weighted>
2.0072

> <Gold.Chemscore.DEInternal.Weighted>
2.1962

> <Gold.Chemscore.Rot.Weighted>
4.9147

> <Gold.Chemscore.Internal.Correction.Weighted>
   9.000000E+99

> <Gold.Protein.RotatedTorsions>
[ 6907 6896 6895 6894 ] final  -49.08 input  -60.11 | X-H torsion
[ 7974 7965 7964 7962 ] final -117.90 input  175.53 | X-H torsion
[ 8008 7997 7996 7995 ] final  -71.79 input   59.86 | X-H torsion
[ 10167 10162 10161 10158 ] final  -21.50 input  -65.29 | X-H torsion
[ 10718 10713 10712 10709 ] final  -87.67 input   66.30 | X-H torsion
[ 10763 10752 10751 10750 ] final  -84.80 input  -60.55 | X-H torsion
[ 11005 11000 10999 10996 ] final   76.08 input  -57.11 | X-H torsion

> <Gold.Protein.ActiveResidues>
 VAL166  LYS551  ARG553  GLY616  TRP617  ASP618  TYR619  PRO620  LYS621  CYS622 
 ASP623  PHE694  ASN695  SER759  ASP760  ASP761  ALA762  ILE779  LEU786  VAL792 
 PHE793  MET794  SER795  GLU796  ALA797  LYS798  CYS799  TRP800  GLU811  SER814 

> <Gold.Protein.RotatedAtoms>
  150.8841  134.8236  159.7245 H   0  0  0  0  0  0  0  0  0  0  0  0  # atno 6907 bound_to 6896
  152.4796  134.4750  159.9657 H   0  0  0  0  0  0  0  0  0  0  0  0  # atno 6908 bound_to 6896
  151.4821  133.3505  159.2875 H   0  0  0  0  0  0  0  0  0  0  0  0  # atno 6909 bound_to 6896
  145.0800  140.8419  143.4045 H   0  0  0  0  0  0  0  0  0  0  0  0  # atno 7974 bound_to 7965
  154.5115  140.0809  156.7999 H   0  0  0  0  0  0  0  0  0  0  0  0  # atno 8008 bound_to 7997
  155.3774  140.3426  155.4227 H   0  0  0  0  0  0  0  0  0  0  0  0  # atno 8009 bound_to 7997
  156.1579  140.1579  156.8649 H   0  0  0  0  0  0  0  0  0  0  0  0  # atno 8010 bound_to 7997
  140.7282  143.4622  151.0363 H   0  0  0  0  0  0  0  0  0  0  0  0  # atno 10167 bound_to 10162
  155.9985  130.4808  150.4903 H   0  0  0  0  0  0  0  0  0  0  0  0  # atno 10718 bound_to 10713
  154.6037  135.5508  153.7400 H   0  0  0  0  0  0  0  0  0  0  0  0  # atno 10763 bound_to 10752
  153.0165  135.6372  154.1678 H   0  0  0  0  0  0  0  0  0  0  0  0  # atno 10764 bound_to 10752
  154.1617  135.2897  155.3086 H   0  0  0  0  0  0  0  0  0  0  0  0  # atno 10765 bound_to 10752
  139.9314  134.7571  156.1351 H   0  0  0  0  0  0  0  0  0  0  0  0  # atno 11005 bound_to 11000
  145.1190  139.2706  143.5598 LP  0  0  0  0  0  0  0  0  0  0  0  0  # atno 17320 bound_to 7965
  146.3531  140.0808  142.8618 LP  0  0  0  0  0  0  0  0  0  0  0  0  # atno 17321 bound_to 7965
  139.8308  143.7694  152.3179 LP  0  0  0  0  0  0  0  0  0  0  0  0  # atno 17342 bound_to 10162
  139.7809  144.7445  151.0090 LP  0  0  0  0  0  0  0  0  0  0  0  0  # atno 17343 bound_to 10162
  157.2898  131.0624  151.2141 LP  0  0  0  0  0  0  0  0  0  0  0  0  # atno 17370 bound_to 10713
  157.3158  130.6912  149.6241 LP  0  0  0  0  0  0  0  0  0  0  0  0  # atno 17371 bound_to 10713
  141.0905  133.6716  156.2529 LP  0  0  0  0  0  0  0  0  0  0  0  0  # atno 17394 bound_to 11000
  140.6192  134.5379  157.5545 LP  0  0  0  0  0  0  0  0  0  0  0  0  # atno 17395 bound_to 11000

$$$$
