AV-unprocessed.smi:2237|AV-procd|sdf|9052|dock6
  -GOLD-   2272012253D 1   1.00000     0.00000
 Structure written by MMmdl.
 54 56  0  0  0  0  0  0  0  0  2 V2000
  153.3470  141.3023  160.1600 C   0  0  0  0  0  0  0  0  0  0  0  0
  152.6375  142.4569  159.4843 C   0  0  0  0  0  0  0  0  0  0  0  0
  152.8356  143.7825  159.9180 C   0  0  0  0  0  0  0  0  0  0  0  0
  152.1470  144.8090  159.2473 C   0  0  0  0  0  0  0  0  0  0  0  0
  151.2943  144.4703  158.1789 C   0  0  0  0  0  0  0  0  0  0  0  0
  151.1497  143.1143  157.8080 C   0  0  0  0  0  0  0  0  0  0  0  0
  150.2698  142.8784  156.7185 N   0  0  0  0  0  0  0  0  0  0  0  0
  149.9424  141.7022  156.1546 C   0  0  0  0  0  0  0  0  0  0  0  0
  150.3498  140.5981  156.5173 O   0  0  0  0  0  0  0  0  0  0  0  0
  149.0964  141.8745  155.1283 N   0  0  0  0  0  0  0  0  0  0  0  0
  148.5538  140.8025  154.2987 C   0  0  2  0  0  0  0  0  0  0  0  0
  147.5106  141.3703  153.3283 C   0  0  0  0  0  0  0  0  0  0  0  0
  146.8489  140.2596  152.4943 C   0  0  0  0  0  0  0  0  0  0  0  0
  146.2283  139.2123  153.3576 N   0  3  1  0  0  0  0  0  0  0  0  0
  145.4630  138.1497  152.6265 C   0  0  0  0  0  0  0  0  0  0  0  0
  144.7492  137.1307  153.5480 C   0  0  0  0  0  0  0  0  0  0  0  0
  144.0696  136.0085  152.7444 C   0  0  0  0  0  0  0  0  0  0  0  0
  145.0583  135.3002  151.9352 N   0  0  0  0  0  0  0  0  0  0  0  0
  144.4098  134.2016  151.2331 C   0  0  0  0  0  0  0  0  0  0  0  0
  145.6443  136.2182  150.9616 C   0  0  0  0  0  0  0  0  0  0  0  0
  146.3937  137.3491  151.6865 C   0  0  0  0  0  0  0  0  0  0  0  0
  147.2401  138.6366  154.2902 C   0  0  0  0  0  0  0  0  0  0  0  0
  147.8945  139.7180  155.1645 C   0  0  0  0  0  0  0  0  0  0  0  0
  151.8182  142.1315  158.4611 N   0  0  0  0  0  0  0  0  0  0  0  0
  154.1441  141.6576  160.8135 H   0  0  0  0  0  0  0  0  0  0  0  0
  153.7896  140.6373  159.4174 H   0  0  0  0  0  0  0  0  0  0  0  0
  152.6423  140.7267  160.7606 H   0  0  0  0  0  0  0  0  0  0  0  0
  153.4963  144.0093  160.7418 H   0  0  0  0  0  0  0  0  0  0  0  0
  152.2698  145.8395  159.5463 H   0  0  0  0  0  0  0  0  0  0  0  0
  150.7590  145.2476  157.6532 H   0  0  0  0  0  0  0  0  0  0  0  0
  149.8463  143.7024  156.3182 H   0  0  0  0  0  0  0  0  0  0  0  0
  148.8116  142.8162  154.9011 H   0  0  0  0  0  0  0  0  0  0  0  0
  149.3609  140.3554  153.7145 H   0  0  0  0  0  0  0  0  0  0  0  0
  146.7414  141.9087  153.8844 H   0  0  0  0  0  0  0  0  0  0  0  0
  147.9771  142.0989  152.6640 H   0  0  0  0  0  0  0  0  0  0  0  0
  146.0998  140.7444  151.8700 H   0  0  0  0  0  0  0  0  0  0  0  0
  147.5791  139.7991  151.8267 H   0  0  0  0  0  0  0  0  0  0  0  0
  144.6930  138.6400  152.0280 H   0  0  0  0  0  0  0  0  0  0  0  0
  145.4612  136.6920  154.2489 H   0  0  0  0  0  0  0  0  0  0  0  0
  143.9780  137.6214  154.1420 H   0  0  0  0  0  0  0  0  0  0  0  0
  143.5938  135.3079  153.4321 H   0  0  0  0  0  0  0  0  0  0  0  0
  143.2822  136.4181  152.1091 H   0  0  0  0  0  0  0  0  0  0  0  0
  145.1337  133.6525  150.6301 H   0  0  0  0  0  0  0  0  0  0  0  0
  143.6182  134.5604  150.5735 H   0  0  0  0  0  0  0  0  0  0  0  0
  143.9709  133.4996  151.9431 H   0  0  0  0  0  0  0  0  0  0  0  0
  146.3410  135.6736  150.3229 H   0  0  0  0  0  0  0  0  0  0  0  0
  144.8693  136.6301  150.3128 H   0  0  0  0  0  0  0  0  0  0  0  0
  146.8416  137.9910  150.9300 H   0  0  0  0  0  0  0  0  0  0  0  0
  147.2219  136.9267  152.2580 H   0  0  0  0  0  0  0  0  0  0  0  0
  146.7895  137.8983  154.9503 H   0  0  0  0  0  0  0  0  0  0  0  0
  148.0056  138.1123  153.7157 H   0  0  0  0  0  0  0  0  0  0  0  0
  148.6356  139.2572  155.8191 H   0  0  0  0  0  0  0  0  0  0  0  0
  147.1418  140.1649  155.8160 H   0  0  0  0  0  0  0  0  0  0  0  0
  145.5500  139.6979  153.9272 H   0  0  0  0  0  0  0  0  0  0  0  0
  1  2  1  0  0  0  0
  1 25  1  0  0  0  0
  1 26  1  0  0  0  0
  1 27  1  0  0  0  0
  2 24  1  0  0  0  0
  2  3  2  0  0  0  0
  3  4  1  0  0  0  0
  3 28  1  0  0  0  0
  4  5  2  0  0  0  0
  4 29  1  0  0  0  0
  5  6  1  0  0  0  0
  5 30  1  0  0  0  0
  6  7  1  0  0  0  0
  6 24  2  0  0  0  0
  7  8  1  0  0  0  0
  7 31  1  0  0  0  0
  8  9  2  0  0  0  0
  8 10  1  0  0  0  0
 10 11  1  0  0  0  0
 10 32  1  0  0  0  0
 11 23  1  0  0  0  0
 11 12  1  0  0  0  0
 11 33  1  0  0  0  0
 12 13  1  0  0  0  0
 12 34  1  0  0  0  0
 12 35  1  0  0  0  0
 13 14  1  0  0  0  0
 13 36  1  0  0  0  0
 13 37  1  0  0  0  0
 14 15  1  0  0  0  0
 14 22  1  0  0  0  0
 14 54  1  0  0  0  0
 15 21  1  0  0  0  0
 15 16  1  0  0  0  0
 15 38  1  0  0  0  0
 16 17  1  0  0  0  0
 16 39  1  0  0  0  0
 16 40  1  0  0  0  0
 17 18  1  0  0  0  0
 17 41  1  0  0  0  0
 17 42  1  0  0  0  0
 18 19  1  0  0  0  0
 18 20  1  0  0  0  0
 19 43  1  0  0  0  0
 19 44  1  0  0  0  0
 19 45  1  0  0  0  0
 20 21  1  0  0  0  0
 20 46  1  0  0  0  0
 20 47  1  0  0  0  0
 21 48  1  0  0  0  0
 21 49  1  0  0  0  0
 22 23  1  0  0  0  0
 22 50  1  0  0  0  0
 22 51  1  0  0  0  0
 23 52  1  0  0  0  0
 23 53  1  0  0  0  0
M  CHG  1  14   1
M  END
> <s_m_source_file>
AV-unprocessed.smi

> <i_m_source_file_index>
2237

> <i_lp_mmshare_version>
43012

> <i_f3d_flags>
0

> <s_epik_input>
W0NIM11jMVtjSF1bY0hdW2NIXWMobjEpW05IXUMoPU8pW05IXVtDSF0yW0NIMl1bQ0gyXU4oW0NIMl1bQ0gyXTIpW0NIXTNbQ0gyXVtDSDJdTihbQ0gzXSlbQ0gyXVtDSDJdMw==

> <s_epik_cmdline>
J2VwaWtfcHl0aG9uJywgJy1waCcsICc3LjAnLCAnLXRuJywgJzgnLCAnLW1hJywgJzIwMCcsICctbWV0YWxfYmluZGluZycsICctaW1hZScsICc8aW5maWxlLm1hZT4nLCAnLW9tYWUnLCAnPG91dGZpbGUubWFlPic=

> <r_epik_Ionization_Penalty>
1.37251

> <r_epik_Ionization_Penalty_Charging>
0.00081195

> <r_epik_Ionization_Penalty_Neutral>
1.3717

> <r_epik_State_Penalty>
1.55149

> <r_epik_Charging_Adjusted_Penalty>
1.5523

> <i_epik_Tot_Q>
1

> <i_epik_Tot_abs_Q>
1

> <r_epik_Metal_State_Penalty>
1.55149

> <b_epik_Metal_Only>
0

> <s_lp_Force_Field>
OPLS_2005

> <r_lp_Energy>
32.6589

> <b_lp_Chiralities_Consistent>
1

> <s_lp_Variant>
AV-unprocessed.smi:2237-7

> <Gold.Version>
5.8.1

> <Gold.Id.Protein>
6NUR|6NUR_protein|mol2

> <Gold.PLP.Fitness>
47.9294

> <Gold.PLP.PLP>
-42.4888

> <Gold.PLP.part.hbond>
-3.0000

> <Gold.PLP.part.metal>
0.0000

> <Gold.PLP.part.buried>
0.0388

> <Gold.PLP.part.nonpolar>
-40.9119

> <Gold.PLP.part.repulsive>
0.3874

> <Gold.PLP.ligand.clash>
0.0000

> <Gold.PLP.ligand.torsion>
0.0565

> <Gold.PLP.Chemscore.Hbond>
1.8406

> <Gold.PLP.Chemscore.CHOScore>
0.0000

> <Gold.PLP.Chemscore.Metal>
0.0000

> <Gold.Chemscore.Hbonds>
donor molecule, donor type, donor heavy atom, donor atom, acceptor molecule, acceptor atom, score
      L1  H     7    31       P1  8028  1.00
      L1  H    10    32       P1  8028  0.82

> <Gold.PLP.Chemscore.Internal.Correction>
0.0320

> <Gold.Rescore>
     Score         DG    S(hbond)    S(metal)    S(lipo)     H(rot)  DE(clash)    DE(int)     intcor
     18.11     -22.63       1.90        0.00     118.89       1.21       1.94       2.58       ----

> <Gold.Chemscore.Fitness>
18.1130

> <Gold.Chemscore.DG>
-22.6342

> <Gold.Chemscore.ZeroCoef>
-5.4800

> <Gold.Chemscore.Hbond>
1.8998

> <Gold.Chemscore.Metal>
0.0000

> <Gold.Chemscore.Lipo>
118.8869

> <Gold.Chemscore.Internal_Hbond>
0.0000

> <Gold.Chemscore.DEClash>
1.9433

> <Gold.Chemscore.DEInternal>
2.5779

> <Gold.Chemscore.Rot>
1.2113

> <Gold.Chemscore.Internal.Correction>
   9.000000E+99

> <Gold.Chemscore.Hbonds>
donor molecule, donor type, donor heavy atom, donor atom, acceptor molecule, acceptor atom, score
      L1  H     7    31       P1  8028  0.94
      L1  H    10    32       P1  8028  0.77

> <Gold.Chemscore.Hbond.Weighted>
-6.3453

> <Gold.Chemscore.Metal.Weighted>
-0.0000

> <Gold.Chemscore.Lipo.Weighted>
-13.9098

> <Gold.Chemscore.Internal_Hbond.Weighted>
0.0000

> <Gold.Chemscore.DEClash.Weighted>
1.9433

> <Gold.Chemscore.DEInternal.Weighted>
2.5779

> <Gold.Chemscore.Rot.Weighted>
3.1009

> <Gold.Chemscore.Internal.Correction.Weighted>
   9.000000E+99

> <Gold.Protein.RotatedTorsions>
[ 6907 6896 6895 6894 ] final  106.61 input  -60.11 | X-H torsion
[ 7974 7965 7964 7962 ] final -117.35 input  175.53 | X-H torsion
[ 8008 7997 7996 7995 ] final   92.87 input   59.86 | X-H torsion
[ 10167 10162 10161 10158 ] final  151.51 input  -65.29 | X-H torsion
[ 10718 10713 10712 10709 ] final  -73.06 input   66.30 | X-H torsion
[ 10763 10752 10751 10750 ] final  177.04 input  -60.55 | X-H torsion
[ 11005 11000 10999 10996 ] final -166.90 input  -57.11 | X-H torsion

> <Gold.Protein.ActiveResidues>
 VAL166  LYS551  ARG553  GLY616  TRP617  ASP618  TYR619  PRO620  LYS621  CYS622 
 ASP623  PHE694  ASN695  SER759  ASP760  ASP761  ALA762  ILE779  LEU786  VAL792 
 PHE793  MET794  SER795  GLU796  ALA797  LYS798  CYS799  TRP800  GLU811  SER814 

> <Gold.Protein.RotatedAtoms>
  152.5187  133.9355  159.7600 H   0  0  0  0  0  0  0  0  0  0  0  0  # atno 6907 bound_to 6896
  150.9696  133.6349  159.2747 H   0  0  0  0  0  0  0  0  0  0  0  0  # atno 6908 bound_to 6896
  151.3565  135.0901  159.9473 H   0  0  0  0  0  0  0  0  0  0  0  0  # atno 6909 bound_to 6896
  145.0862  140.8459  143.4009 H   0  0  0  0  0  0  0  0  0  0  0  0  # atno 7974 bound_to 7965
  156.0402  140.3320  155.7236 H   0  0  0  0  0  0  0  0  0  0  0  0  # atno 8008 bound_to 7997
  155.5755  140.0632  157.2814 H   0  0  0  0  0  0  0  0  0  0  0  0  # atno 8009 bound_to 7997
  154.4390  140.1853  156.0911 H   0  0  0  0  0  0  0  0  0  0  0  0  # atno 8010 bound_to 7997
  139.4840  144.5435  151.7525 H   0  0  0  0  0  0  0  0  0  0  0  0  # atno 10167 bound_to 10162
  156.0295  130.4386  150.2686 H   0  0  0  0  0  0  0  0  0  0  0  0  # atno 10718 bound_to 10713
  154.4892  135.2778  155.1510 H   0  0  0  0  0  0  0  0  0  0  0  0  # atno 10763 bound_to 10752
  154.3189  135.6214  153.5502 H   0  0  0  0  0  0  0  0  0  0  0  0  # atno 10764 bound_to 10752
  152.9885  135.5738  154.5309 H   0  0  0  0  0  0  0  0  0  0  0  0  # atno 10765 bound_to 10752
  140.5593  134.5350  157.5139 H   0  0  0  0  0  0  0  0  0  0  0  0  # atno 11005 bound_to 11000
  145.1119  139.2751  143.5633 LP  0  0  0  0  0  0  0  0  0  0  0  0  # atno 17320 bound_to 7965
  146.3531  140.0717  142.8623 LP  0  0  0  0  0  0  0  0  0  0  0  0  # atno 17321 bound_to 7965
  140.4977  144.1215  150.5964 LP  0  0  0  0  0  0  0  0  0  0  0  0  # atno 17342 bound_to 10162
  140.4098  143.2662  151.9847 LP  0  0  0  0  0  0  0  0  0  0  0  0  # atno 17343 bound_to 10162
  157.0789  131.0138  151.3164 LP  0  0  0  0  0  0  0  0  0  0  0  0  # atno 17370 bound_to 10713
  157.4943  130.7841  149.7539 LP  0  0  0  0  0  0  0  0  0  0  0  0  # atno 17371 bound_to 10713
  139.9416  134.7777  156.0665 LP  0  0  0  0  0  0  0  0  0  0  0  0  # atno 17394 bound_to 11000
  141.1124  133.6639  156.3012 LP  0  0  0  0  0  0  0  0  0  0  0  0  # atno 17395 bound_to 11000

$$$$
