AV-unprocessed.smi:1033|AV-procd|sdf|4504|dock5
  -GOLD-   22720 2503D 1   1.00000     0.00000
 Structure written by MMmdl.
 57 59  0  0  0  0  0  0  0  0  3 V2000
  153.1667  143.1835  161.5155 C   0  0  0  0  0  0  0  0  0  0  0  0
  152.5460  142.6478  160.2366 C   0  0  0  0  0  0  0  0  0  0  0  0
  152.6954  141.2741  159.9383 C   0  0  0  0  0  0  0  0  0  0  0  0
  152.1180  140.8145  158.7608 C   0  0  0  0  0  0  0  0  0  0  0  0
  152.0870  139.5389  158.1927 N   0  3  0  0  0  0  0  0  0  0  0  0
  151.3960  139.5804  157.0200 C   0  0  0  0  0  0  0  0  0  0  0  0
  150.9846  140.8638  156.8321 N   0  0  0  0  0  0  0  0  0  0  0  0
  150.2094  141.4562  155.7343 C   0  0  0  0  0  0  0  0  0  0  0  0
  149.7736  140.4220  154.6764 C   0  0  2  0  0  0  0  0  0  0  0  0
  149.6472  141.0846  153.4326 O   0  0  0  0  0  0  0  0  0  0  0  0
  148.4248  139.7704  155.0444 C   0  0  0  0  0  0  0  0  0  0  0  0
  147.2364  140.4182  154.4765 N   0  0  0  0  0  0  0  0  0  0  0  0
  146.8845  139.8921  153.1576 C   0  0  0  0  0  0  0  0  0  0  0  0
  146.3062  138.4626  153.2070 C   0  0  0  0  0  0  0  0  0  0  0  0
  145.1150  138.4151  154.0934 N   0  3  0  0  0  0  0  0  0  0  0  0
  144.4852  137.0706  154.1227 C   0  0  0  0  0  0  0  0  0  0  0  0
  143.6016  136.7986  152.8891 C   0  0  1  0  0  0  0  0  0  0  0  0
  142.5929  135.6618  153.1115 C   0  0  0  0  0  0  0  0  0  0  0  0
  142.8812  137.9753  152.5890 O   0  0  0  0  0  0  0  0  0  0  0  0
  145.4418  138.9491  155.4430 C   0  0  0  0  0  0  0  0  0  0  0  0
  146.0450  140.3641  155.3268 C   0  0  0  0  0  0  0  0  0  0  0  0
  151.4122  141.6692  157.8922 C   0  0  0  0  0  0  0  0  0  0  0  0
  151.2549  143.0248  158.1702 C   0  0  0  0  0  0  0  0  0  0  0  0
  151.8336  143.5114  159.3642 C   0  0  0  0  0  0  0  0  0  0  0  0
  151.6764  144.9855  159.6967 C   0  0  0  0  0  0  0  0  0  0  0  0
  153.6788  142.3969  162.0706 H   0  0  0  0  0  0  0  0  0  0  0  0
  152.4003  143.6050  162.1662 H   0  0  0  0  0  0  0  0  0  0  0  0
  153.8969  143.9610  161.2896 H   0  0  0  0  0  0  0  0  0  0  0  0
  153.2355  140.6108  160.5979 H   0  0  0  0  0  0  0  0  0  0  0  0
  151.2062  138.7462  156.3597 H   0  0  0  0  0  0  0  0  0  0  0  0
  149.3459  141.9668  156.1628 H   0  0  0  0  0  0  0  0  0  0  0  0
  150.8295  142.2284  155.2763 H   0  0  0  0  0  0  0  0  0  0  0  0
  150.5445  139.6553  154.5898 H   0  0  0  0  0  0  0  0  0  0  0  0
  149.4524  140.4414  152.7686 H   0  0  0  0  0  0  0  0  0  0  0  0
  148.4478  138.7498  154.6603 H   0  0  0  0  0  0  0  0  0  0  0  0
  148.3430  139.6623  156.1260 H   0  0  0  0  0  0  0  0  0  0  0  0
  146.1502  140.5536  152.6957 H   0  0  0  0  0  0  0  0  0  0  0  0
  147.7565  139.9167  152.5031 H   0  0  0  0  0  0  0  0  0  0  0  0
  146.0221  138.1577  152.1990 H   0  0  0  0  0  0  0  0  0  0  0  0
  147.0555  137.7483  153.5505 H   0  0  0  0  0  0  0  0  0  0  0  0
  145.2623  136.3057  154.1662 H   0  0  0  0  0  0  0  0  0  0  0  0
  143.9057  136.9675  155.0420 H   0  0  0  0  0  0  0  0  0  0  0  0
  144.2165  136.5739  152.0181 H   0  0  0  0  0  0  0  0  0  0  0  0
  143.0995  134.7164  153.3074 H   0  0  0  0  0  0  0  0  0  0  0  0
  141.9639  135.5177  152.2323 H   0  0  0  0  0  0  0  0  0  0  0  0
  141.9379  135.8698  153.9585 H   0  0  0  0  0  0  0  0  0  0  0  0
  143.1357  138.2793  151.7309 H   0  0  0  0  0  0  0  0  0  0  0  0
  144.5415  139.0011  156.0542 H   0  0  0  0  0  0  0  0  0  0  0  0
  146.1287  138.2756  155.9571 H   0  0  0  0  0  0  0  0  0  0  0  0
  146.2650  140.7612  156.3170 H   0  0  0  0  0  0  0  0  0  0  0  0
  145.2876  141.0317  154.9130 H   0  0  0  0  0  0  0  0  0  0  0  0
  150.7132  143.6810  157.5054 H   0  0  0  0  0  0  0  0  0  0  0  0
  151.0872  145.5049  158.9403 H   0  0  0  0  0  0  0  0  0  0  0  0
  152.6507  145.4712  159.7515 H   0  0  0  0  0  0  0  0  0  0  0  0
  151.1714  145.1113  160.6546 H   0  0  0  0  0  0  0  0  0  0  0  0
  144.4377  139.0427  153.6838 H   0  0  0  0  0  0  0  0  0  0  0  0
  152.5054  138.7004  158.5744 H   0  0  0  0  0  0  0  0  0  0  0  0
  1  2  1  0  0  0  0
  1 26  1  0  0  0  0
  1 27  1  0  0  0  0
  1 28  1  0  0  0  0
  2 24  1  0  0  0  0
  2  3  2  0  0  0  0
  3  4  1  0  0  0  0
  3 29  1  0  0  0  0
  4 22  2  0  0  0  0
  4  5  1  0  0  0  0
  5  6  2  0  0  0  0
  5 57  1  0  0  0  0
  6  7  1  0  0  0  0
  6 30  1  0  0  0  0
  7  8  1  0  0  0  0
  7 22  1  0  0  0  0
  8  9  1  0  0  0  0
  8 31  1  0  0  0  0
  8 32  1  0  0  0  0
  9 10  1  0  0  0  0
  9 11  1  0  0  0  0
  9 33  1  0  0  0  0
 10 34  1  0  0  0  0
 11 12  1  0  0  0  0
 11 35  1  0  0  0  0
 11 36  1  0  0  0  0
 12 21  1  0  0  0  0
 12 13  1  0  0  0  0
 13 14  1  0  0  0  0
 13 37  1  0  0  0  0
 13 38  1  0  0  0  0
 14 15  1  0  0  0  0
 14 39  1  0  0  0  0
 14 40  1  0  0  0  0
 15 16  1  0  0  0  0
 15 20  1  0  0  0  0
 15 56  1  0  0  0  0
 16 17  1  0  0  0  0
 16 41  1  0  0  0  0
 16 42  1  0  0  0  0
 17 18  1  0  0  0  0
 17 19  1  0  0  0  0
 17 43  1  0  0  0  0
 18 44  1  0  0  0  0
 18 45  1  0  0  0  0
 18 46  1  0  0  0  0
 19 47  1  0  0  0  0
 20 21  1  0  0  0  0
 20 48  1  0  0  0  0
 20 49  1  0  0  0  0
 21 50  1  0  0  0  0
 21 51  1  0  0  0  0
 22 23  1  0  0  0  0
 23 24  2  0  0  0  0
 23 52  1  0  0  0  0
 24 25  1  0  0  0  0
 25 53  1  0  0  0  0
 25 54  1  0  0  0  0
 25 55  1  0  0  0  0
M  CHG  1   5   1
M  CHG  1  15   1
M  END
> <s_m_source_file>
AV-unprocessed.smi

> <i_m_source_file_index>
1033

> <i_lp_mmshare_version>
43012

> <i_f3d_flags>
0

> <s_epik_input>
W0NIM11jKFtjSF0xKWMoW0NIM10pW2NIXWMoYzEyKW4oW2NIXW4yKVtDSDJdW0NASF0oW09IXSlbQ0gyXU4zW0NIMl1bQ0gyXU4oW0NIMl1bQ0gyXTMpW0NIMl1bQ0BIXShbQ0gzXSlbT0hd

> <s_epik_cmdline>
J2VwaWtfcHl0aG9uJywgJy1waCcsICc3LjAnLCAnLXRuJywgJzgnLCAnLW1hJywgJzIwMCcsICctbWV0YWxfYmluZGluZycsICctaW1hZScsICc8aW5maWxlLm1hZT4nLCAnLW9tYWUnLCAnPG91dGZpbGUubWFlPic=

> <r_epik_Ionization_Penalty>
1.28617

> <r_epik_Ionization_Penalty_Charging>
1.23646

> <r_epik_Ionization_Penalty_Neutral>
0.0497112

> <r_epik_State_Penalty>
1.79157

> <r_epik_Charging_Adjusted_Penalty>
3.02803

> <i_epik_Tot_Q>
2

> <i_epik_Tot_abs_Q>
2

> <r_epik_Metal_State_Penalty>
5.81739

> <b_epik_Metal_Only>
0

> <s_lp_Force_Field>
OPLS_2005

> <r_lp_Energy>
41.725

> <b_lp_Chiralities_Consistent>
1

> <s_lp_Variant>
AV-unprocessed.smi:1033-15

> <Gold.Version>
5.8.1

> <Gold.Id.Protein>
6NUR|6NUR_protein|mol2

> <Gold.PLP.Fitness>
58.2552

> <Gold.PLP.PLP>
-46.5472

> <Gold.PLP.part.hbond>
-5.2470

> <Gold.PLP.part.metal>
0.0000

> <Gold.PLP.part.buried>
-4.3415

> <Gold.PLP.part.nonpolar>
-36.5341

> <Gold.PLP.part.repulsive>
0.2122

> <Gold.PLP.ligand.clash>
0.0000

> <Gold.PLP.ligand.torsion>
1.5819

> <Gold.PLP.Chemscore.Hbond>
4.8958

> <Gold.PLP.Chemscore.CHOScore>
0.0000

> <Gold.PLP.Chemscore.Metal>
0.0000

> <Gold.Chemscore.Hbonds>
donor molecule, donor type, donor heavy atom, donor atom, acceptor molecule, acceptor atom, score
      L1  H    10    34       P1  7957  0.90
      L1  H    15    56       P1 10175  2.00
      L1  H    19    47       P1 10171  0.96
      P1  H  7989  7998       L1    10  0.02
      P1  H  8011  8017       L1    10  0.75

> <Gold.PLP.Chemscore.Internal.Correction>
0.1844

> <Gold.Rescore>
     Score         DG    S(hbond)    S(metal)    S(lipo)     H(rot)  DE(clash)    DE(int)     intcor
     19.93     -22.87       3.17        0.00     127.06       3.15       0.51       2.42       ----

> <Gold.Chemscore.Fitness>
19.9316

> <Gold.Chemscore.DG>
-22.8678

> <Gold.Chemscore.ZeroCoef>
-5.4800

> <Gold.Chemscore.Hbond>
3.1682

> <Gold.Chemscore.Metal>
0.0000

> <Gold.Chemscore.Lipo>
127.0586

> <Gold.Chemscore.Internal_Hbond>
0.0000

> <Gold.Chemscore.DEClash>
0.5130

> <Gold.Chemscore.DEInternal>
2.4232

> <Gold.Chemscore.Rot>
3.1483

> <Gold.Chemscore.Internal.Correction>
   9.000000E+99

> <Gold.Chemscore.Hbonds>
donor molecule, donor type, donor heavy atom, donor atom, acceptor molecule, acceptor atom, score
      L1  H    10    34       P1  7957  0.88
      L1  H    15    56       P1 10175  0.95
      L1  H    19    47       P1 10171  0.31
      P1  H  8011  8017       L1    10  0.09

> <Gold.Chemscore.Hbond.Weighted>
-10.5817

> <Gold.Chemscore.Metal.Weighted>
-0.0000

> <Gold.Chemscore.Lipo.Weighted>
-14.8659

> <Gold.Chemscore.Internal_Hbond.Weighted>
0.0000

> <Gold.Chemscore.DEClash.Weighted>
0.5130

> <Gold.Chemscore.DEInternal.Weighted>
2.4232

> <Gold.Chemscore.Rot.Weighted>
8.0597

> <Gold.Chemscore.Internal.Correction.Weighted>
   9.000000E+99

> <Gold.Protein.RotatedTorsions>
[ 6907 6896 6895 6894 ] final -100.69 input  -60.11 | X-H torsion
[ 7974 7965 7964 7962 ] final  -53.16 input  175.53 | X-H torsion
[ 8008 7997 7996 7995 ] final  176.35 input   59.86 | X-H torsion
[ 10167 10162 10161 10158 ] final  154.38 input  -65.29 | X-H torsion
[ 10718 10713 10712 10709 ] final  -66.06 input   66.30 | X-H torsion
[ 10763 10752 10751 10750 ] final -133.48 input  -60.55 | X-H torsion
[ 11005 11000 10999 10996 ] final -102.98 input  -57.11 | X-H torsion

> <Gold.Protein.ActiveResidues>
 VAL166  LYS551  ARG553  GLY616  TRP617  ASP618  TYR619  PRO620  LYS621  CYS622 
 ASP623  PHE694  ASN695  SER759  ASP760  ASP761  ALA762  ILE779  LEU786  VAL792 
 PHE793  MET794  SER795  GLU796  ALA797  LYS798  CYS799  TRP800  GLU811  SER814 

> <Gold.Protein.RotatedAtoms>
  150.7125  134.0848  159.3910 H   0  0  0  0  0  0  0  0  0  0  0  0  # atno 6907 bound_to 6896
  151.8833  135.0443  160.0500 H   0  0  0  0  0  0  0  0  0  0  0  0  # atno 6908 bound_to 6896
  152.2550  133.5212  159.5384 H   0  0  0  0  0  0  0  0  0  0  0  0  # atno 6909 bound_to 6896
  145.8999  140.8002  142.9748 H   0  0  0  0  0  0  0  0  0  0  0  0  # atno 7974 bound_to 7965
  156.0774  140.1386  156.9755 H   0  0  0  0  0  0  0  0  0  0  0  0  # atno 8008 bound_to 7997
  154.4565  140.0959  156.6823 H   0  0  0  0  0  0  0  0  0  0  0  0  # atno 8009 bound_to 7997
  155.5131  140.3454  155.4394 H   0  0  0  0  0  0  0  0  0  0  0  0  # atno 8010 bound_to 7997
  139.4823  144.5191  151.7904 H   0  0  0  0  0  0  0  0  0  0  0  0  # atno 10167 bound_to 10162
  156.0633  130.4256  150.1655 H   0  0  0  0  0  0  0  0  0  0  0  0  # atno 10718 bound_to 10713
  154.8732  135.3765  154.4579 H   0  0  0  0  0  0  0  0  0  0  0  0  # atno 10763 bound_to 10752
  153.5249  135.7028  153.5717 H   0  0  0  0  0  0  0  0  0  0  0  0  # atno 10764 bound_to 10752
  153.3948  135.3963  155.1913 H   0  0  0  0  0  0  0  0  0  0  0  0  # atno 10765 bound_to 10752
  141.1165  133.8603  157.1429 H   0  0  0  0  0  0  0  0  0  0  0  0  # atno 11005 bound_to 11000
  144.6735  140.1661  143.7418 LP  0  0  0  0  0  0  0  0  0  0  0  0  # atno 17320 bound_to 7965
  145.8803  139.2319  143.1609 LP  0  0  0  0  0  0  0  0  0  0  0  0  # atno 17321 bound_to 7965
  140.4703  144.1596  150.5917 LP  0  0  0  0  0  0  0  0  0  0  0  0  # atno 17342 bound_to 10162
  140.4389  143.2535  151.9499 LP  0  0  0  0  0  0  0  0  0  0  0  0  # atno 17343 bound_to 10162
  156.9719  130.9837  151.3457 LP  0  0  0  0  0  0  0  0  0  0  0  0  # atno 17370 bound_to 10713
  157.5658  130.8276  149.8325 LP  0  0  0  0  0  0  0  0  0  0  0  0  # atno 17371 bound_to 10713
  140.0092  134.9995  157.0358 LP  0  0  0  0  0  0  0  0  0  0  0  0  # atno 17394 bound_to 11000
  140.4629  134.1465  155.7193 LP  0  0  0  0  0  0  0  0  0  0  0  0  # atno 17395 bound_to 11000

$$$$
