AV-unprocessed.smi:1586|AV-procd|sdf|6379|dock8
  -GOLD-   22720 7 13D 1   1.00000     0.00000
 Structure written by MMmdl.
 46 47  0  0  0  0  0  0  0  0  3 V2000
  146.9785  128.4488  151.6686 C   0  0  0  0  0  0  0  0  0  0  0  0
  146.3107  129.7378  152.1678 C   0  0  0  0  0  0  0  0  0  0  0  0
  147.2679  130.8644  152.2982 N   0  3  0  0  0  0  0  0  0  0  0  0
  148.1810  130.6940  153.4550 C   0  0  0  0  0  0  0  0  0  0  0  0
  149.1772  131.8698  153.5394 C   0  0  0  0  0  0  0  0  0  0  0  0
  148.4874  133.1598  153.6856 N   0  0  0  0  0  0  0  0  0  0  0  0
  147.7623  133.3576  154.9626 C   0  0  2  0  0  0  0  0  0  0  0  0
  147.2985  134.8281  155.0998 C   0  0  0  0  0  0  0  0  0  0  0  0
  148.6354  132.9403  156.1774 C   0  0  0  0  0  0  0  0  0  0  0  0
  147.9890  133.2318  157.4547 N   0  0  0  0  0  0  0  0  0  0  0  0
  148.3297  134.1948  158.3234 C   0  0  0  0  0  0  0  0  0  0  0  0
  149.2767  134.9444  158.0757 O   0  0  0  0  0  0  0  0  0  0  0  0
  147.5394  134.2348  159.4204 N   0  5  0  0  0  0  0  0  0  0  0  0
  147.5912  135.2858  160.2532 C   0  0  0  0  0  0  0  0  0  0  0  0
  147.2168  135.2821  161.6247 C   0  0  0  0  0  0  0  0  0  0  0  0
  147.4700  136.5645  162.0210 C   0  0  0  0  0  0  0  0  0  0  0  0
  147.3110  137.2701  163.3244 C   0  0  0  0  0  0  0  0  0  0  0  0
  147.9661  137.2900  160.9829 O   0  0  0  0  0  0  0  0  0  0  0  0
  148.0462  136.4623  159.8565 N   0  0  0  0  0  0  0  0  0  0  0  0
  147.6731  133.3160  152.4713 C   0  0  0  0  0  0  0  0  0  0  0  0
  146.6159  132.1984  152.3392 C   0  0  0  0  0  0  0  0  0  0  0  0
  146.2675  127.6224  151.6762 H   0  0  0  0  0  0  0  0  0  0  0  0
  147.8175  128.1670  152.3053 H   0  0  0  0  0  0  0  0  0  0  0  0
  147.3462  128.5472  150.6477 H   0  0  0  0  0  0  0  0  0  0  0  0
  145.4855  130.0219  151.5130 H   0  0  0  0  0  0  0  0  0  0  0  0
  145.8725  129.5306  153.1450 H   0  0  0  0  0  0  0  0  0  0  0  0
  147.6095  130.5923  154.3784 H   0  0  0  0  0  0  0  0  0  0  0  0
  148.7393  129.7651  153.3339 H   0  0  0  0  0  0  0  0  0  0  0  0
  149.9002  131.7084  154.3363 H   0  0  0  0  0  0  0  0  0  0  0  0
  149.7763  131.8973  152.6279 H   0  0  0  0  0  0  0  0  0  0  0  0
  146.8706  132.7326  154.9743 H   0  0  0  0  0  0  0  0  0  0  0  0
  146.8085  135.0110  156.0550 H   0  0  0  0  0  0  0  0  0  0  0  0
  146.5606  135.1059  154.3491 H   0  0  0  0  0  0  0  0  0  0  0  0
  148.1394  135.5187  155.0267 H   0  0  0  0  0  0  0  0  0  0  0  0
  148.7941  131.8642  156.1991 H   0  0  0  0  0  0  0  0  0  0  0  0
  149.6248  133.3963  156.1137 H   0  0  0  0  0  0  0  0  0  0  0  0
  147.2063  132.6472  157.7083 H   0  0  0  0  0  0  0  0  0  0  0  0
  146.8240  134.4705  162.2184 H   0  0  0  0  0  0  0  0  0  0  0  0
  148.0070  136.8738  164.0636 H   0  0  0  0  0  0  0  0  0  0  0  0
  146.2995  137.1432  163.7100 H   0  0  0  0  0  0  0  0  0  0  0  0
  147.5008  138.3387  163.2198 H   0  0  0  0  0  0  0  0  0  0  0  0
  147.2043  134.2971  152.4283 H   0  0  0  0  0  0  0  0  0  0  0  0
  148.3334  133.2885  151.6033 H   0  0  0  0  0  0  0  0  0  0  0  0
  146.0551  132.3615  151.4196 H   0  0  0  0  0  0  0  0  0  0  0  0
  145.8915  132.2429  153.1531 H   0  0  0  0  0  0  0  0  0  0  0  0
  147.8533  130.8500  151.4754 H   0  0  0  0  0  0  0  0  0  0  0  0
  1  2  1  0  0  0  0
  1 22  1  0  0  0  0
  1 23  1  0  0  0  0
  1 24  1  0  0  0  0
  2  3  1  0  0  0  0
  2 25  1  0  0  0  0
  2 26  1  0  0  0  0
  3 21  1  0  0  0  0
  3  4  1  0  0  0  0
  3 46  1  0  0  0  0
  4  5  1  0  0  0  0
  4 27  1  0  0  0  0
  4 28  1  0  0  0  0
  5  6  1  0  0  0  0
  5 29  1  0  0  0  0
  5 30  1  0  0  0  0
  6  7  1  0  0  0  0
  6 20  1  0  0  0  0
  7  8  1  0  0  0  0
  7  9  1  0  0  0  0
  7 31  1  0  0  0  0
  8 32  1  0  0  0  0
  8 33  1  0  0  0  0
  8 34  1  0  0  0  0
  9 10  1  0  0  0  0
  9 35  1  0  0  0  0
  9 36  1  0  0  0  0
 10 11  1  0  0  0  0
 10 37  1  0  0  0  0
 11 12  2  0  0  0  0
 11 13  1  0  0  0  0
 13 14  1  0  0  0  0
 14 19  2  0  0  0  0
 14 15  1  0  0  0  0
 15 16  2  0  0  0  0
 15 38  1  0  0  0  0
 16 17  1  0  0  0  0
 16 18  1  0  0  0  0
 17 39  1  0  0  0  0
 17 40  1  0  0  0  0
 17 41  1  0  0  0  0
 18 19  1  0  0  0  0
 20 21  1  0  0  0  0
 20 42  1  0  0  0  0
 20 43  1  0  0  0  0
 21 44  1  0  0  0  0
 21 45  1  0  0  0  0
M  CHG  1   3   1
M  CHG  1  13  -1
M  END
> <s_m_source_file>
AV-unprocessed.smi

> <i_m_source_file_index>
1586

> <i_lp_mmshare_version>
43012

> <i_f3d_flags>
0

> <s_epik_input>
W0NIM11bQ0gyXU4xW0NIMl1bQ0gyXU4oW0NIMl1bQ0gyXTEpW0NASF0oW0NIM10pW0NIMl1bTkhdQyg9TylbTkhdYzJbY0hdYyhbQ0gzXSlvbjI=

> <s_epik_cmdline>
J2VwaWtfcHl0aG9uJywgJy1waCcsICc3LjAnLCAnLXRuJywgJzgnLCAnLW1hJywgJzIwMCcsICctbWV0YWxfYmluZGluZycsICctaW1hZScsICc8aW5maWxlLm1hZT4nLCAnLW9tYWUnLCAnPG91dGZpbGUubWFlPic=

> <r_epik_Ionization_Penalty>
6.66134

> <r_epik_Ionization_Penalty_Charging>
6.66063

> <r_epik_Ionization_Penalty_Neutral>
0.000714131

> <r_epik_State_Penalty>
6.77843

> <r_epik_Charging_Adjusted_Penalty>
13.4391

> <i_epik_Tot_Q>
0

> <i_epik_Tot_abs_Q>
2

> <r_epik_Metal_State_Penalty>
2.70494

> <b_epik_Metal_Only>
1

> <s_lp_Force_Field>
OPLS_2005

> <r_lp_Energy>
11.4851

> <b_lp_Chiralities_Consistent>
1

> <s_lp_Variant>
AV-unprocessed.smi:1586-7

> <Gold.Version>
5.8.1

> <Gold.Id.Protein>
6NUR|6NUR_protein|mol2

> <Gold.PLP.Fitness>
42.7118

> <Gold.PLP.PLP>
-32.3189

> <Gold.PLP.part.hbond>
-4.0000

> <Gold.PLP.part.metal>
0.0000

> <Gold.PLP.part.buried>
-3.2702

> <Gold.PLP.part.nonpolar>
-23.9774

> <Gold.PLP.part.repulsive>
0.1862

> <Gold.PLP.ligand.clash>
0.0000

> <Gold.PLP.ligand.torsion>
0.4613

> <Gold.PLP.Chemscore.Hbond>
3.7216

> <Gold.PLP.Chemscore.CHOScore>
0.0000

> <Gold.PLP.Chemscore.Metal>
0.0000

> <Gold.Chemscore.Hbonds>
donor molecule, donor type, donor heavy atom, donor atom, acceptor molecule, acceptor atom, score
      L1  H     3    46       P1 10747  1.00
      P1  H  6896  6907       L1    12  1.00
      P1  H  6931  6943       L1    18  0.75
      P1  H  6934  6947       L1    18  0.74

> <Gold.PLP.Chemscore.Internal.Correction>
0.1509

> <Gold.Rescore>
     Score         DG    S(hbond)    S(metal)    S(lipo)     H(rot)  DE(clash)    DE(int)     intcor
     18.43     -21.82       3.60        0.00      74.63       1.73       1.38       2.01       ----

> <Gold.Chemscore.Fitness>
18.4271

> <Gold.Chemscore.DG>
-21.8222

> <Gold.Chemscore.ZeroCoef>
-5.4800

> <Gold.Chemscore.Hbond>
3.6007

> <Gold.Chemscore.Metal>
0.0000

> <Gold.Chemscore.Lipo>
74.6323

> <Gold.Chemscore.Internal_Hbond>
0.0000

> <Gold.Chemscore.DEClash>
1.3815

> <Gold.Chemscore.DEInternal>
2.0136

> <Gold.Chemscore.Rot>
1.7250

> <Gold.Chemscore.Internal.Correction>
   9.000000E+99

> <Gold.Chemscore.Hbonds>
donor molecule, donor type, donor heavy atom, donor atom, acceptor molecule, acceptor atom, score
      L1  H     3    46       P1 10747  1.00
      P1  H  6896  6907       L1    12  0.37
      P1  H  6931  6943       L1    18  0.13
      P1  H  6934  6947       L1    18  0.57

> <Gold.Chemscore.Hbond.Weighted>
-12.0263

> <Gold.Chemscore.Metal.Weighted>
-0.0000

> <Gold.Chemscore.Lipo.Weighted>
-8.7320

> <Gold.Chemscore.Internal_Hbond.Weighted>
0.0000

> <Gold.Chemscore.DEClash.Weighted>
1.3815

> <Gold.Chemscore.DEInternal.Weighted>
2.0136

> <Gold.Chemscore.Rot.Weighted>
4.4161

> <Gold.Chemscore.Internal.Correction.Weighted>
   9.000000E+99

> <Gold.Protein.RotatedTorsions>
[ 6907 6896 6895 6894 ] final  -82.00 input  -60.11 | X-H torsion
[ 7974 7965 7964 7962 ] final -152.87 input  175.53 | X-H torsion
[ 8008 7997 7996 7995 ] final   11.84 input   59.86 | X-H torsion
[ 10167 10162 10161 10158 ] final   44.22 input  -65.29 | X-H torsion
[ 10718 10713 10712 10709 ] final  -66.77 input   66.30 | X-H torsion
[ 10763 10752 10751 10750 ] final  166.51 input  -60.55 | X-H torsion
[ 11005 11000 10999 10996 ] final -143.46 input  -57.11 | X-H torsion

> <Gold.Protein.ActiveResidues>
 VAL166  LYS551  ARG553  GLY616  TRP617  ASP618  TYR619  PRO620  LYS621  CYS622 
 ASP623  PHE694  ASN695  SER759  ASP760  ASP761  ALA762  ILE779  LEU786  VAL792 
 PHE793  MET794  SER795  GLU796  ALA797  LYS798  CYS799  TRP800  GLU811  SER814 

> <Gold.Protein.RotatedAtoms>
  150.6903  134.3732  159.5001 H   0  0  0  0  0  0  0  0  0  0  0  0  # atno 6907 bound_to 6896
  152.1545  134.8959  160.0555 H   0  0  0  0  0  0  0  0  0  0  0  0  # atno 6908 bound_to 6896
  152.0044  133.3803  159.4231 H   0  0  0  0  0  0  0  0  0  0  0  0  # atno 6909 bound_to 6896
  144.7771  140.4603  143.5866 H   0  0  0  0  0  0  0  0  0  0  0  0  # atno 7974 bound_to 7965
  154.8124  140.2870  155.5844 H   0  0  0  0  0  0  0  0  0  0  0  0  # atno 8008 bound_to 7997
  156.2989  140.2566  156.2945 H   0  0  0  0  0  0  0  0  0  0  0  0  # atno 8009 bound_to 7997
  154.9432  140.0381  157.2097 H   0  0  0  0  0  0  0  0  0  0  0  0  # atno 8010 bound_to 7997
  140.3365  144.2524  150.6161 H   0  0  0  0  0  0  0  0  0  0  0  0  # atno 10167 bound_to 10162
  156.0594  130.4267  150.1757 H   0  0  0  0  0  0  0  0  0  0  0  0  # atno 10718 bound_to 10713
  154.3400  135.2754  155.2427 H   0  0  0  0  0  0  0  0  0  0  0  0  # atno 10763 bound_to 10752
  154.4702  135.5885  153.6320 H   0  0  0  0  0  0  0  0  0  0  0  0  # atno 10764 bound_to 10752
  152.9858  135.6086  154.3600 H   0  0  0  0  0  0  0  0  0  0  0  0  # atno 10765 bound_to 10752
  140.8123  134.2730  157.4935 H   0  0  0  0  0  0  0  0  0  0  0  0  # atno 11005 bound_to 11000
  145.6156  139.1518  143.3051 LP  0  0  0  0  0  0  0  0  0  0  0  0  # atno 17320 bound_to 7965
  146.1957  140.6269  142.9125 LP  0  0  0  0  0  0  0  0  0  0  0  0  # atno 17321 bound_to 7965
  140.5349  143.2235  151.8179 LP  0  0  0  0  0  0  0  0  0  0  0  0  # atno 17342 bound_to 10162
  139.4847  144.4674  151.9467 LP  0  0  0  0  0  0  0  0  0  0  0  0  # atno 17343 bound_to 10162
  156.9828  130.9869  151.3433 LP  0  0  0  0  0  0  0  0  0  0  0  0  # atno 17370 bound_to 10713
  157.5590  130.8233  149.8241 LP  0  0  0  0  0  0  0  0  0  0  0  0  # atno 17371 bound_to 10713
  139.8713  134.9490  156.4012 LP  0  0  0  0  0  0  0  0  0  0  0  0  # atno 17394 bound_to 11000
  140.9185  133.7662  155.9877 LP  0  0  0  0  0  0  0  0  0  0  0  0  # atno 17395 bound_to 11000

$$$$
