AV-unprocessed.smi:290|AV-procd|sdf|2231|dock10
  -GOLD-   2262022 93D 1   1.00000     0.00000
 Structure written by MMmdl.
 59 62  0  0  0  0  0  0  0  0  2 V2000
  153.2619  142.6370  159.4544 C   0  0  0  0  0  0  0  0  0  0  0  0
  152.1049  143.5636  159.0625 C   0  0  2  0  0  0  0  0  0  0  0  0
  151.3072  143.8025  160.2153 O   0  0  0  0  0  0  0  0  0  0  0  0
  150.0494  144.2736  159.7733 C   0  0  0  0  0  0  0  0  0  0  0  0
  149.7468  143.3234  158.6254 C   0  0  0  0  0  0  0  0  0  0  0  0
  151.1071  143.0888  157.9618 C   0  0  1  0  0  0  0  0  0  0  0  0
  151.2050  143.9941  156.8769 O   0  0  0  0  0  0  0  0  0  0  0  0
  151.2039  141.6217  157.4447 C   0  0  0  0  0  0  0  0  0  0  0  0
  150.1574  141.1943  156.5229 N   0  0  0  0  0  0  0  0  0  0  0  0
  149.7523  141.8364  155.3757 C   0  0  0  0  0  0  0  0  0  0  0  0
  148.8057  141.2386  154.7072 N   0  0  0  0  0  0  0  0  0  0  0  0
  148.5639  140.0664  155.4154 C   0  0  0  0  0  0  0  0  0  0  0  0
  147.6848  138.9521  155.2503 C   0  0  0  0  0  0  0  0  0  0  0  0
  146.7947  138.7860  154.2352 N   0  0  0  0  0  0  0  0  0  0  0  0
  147.1012  139.2926  152.9074 C   0  0  0  0  0  0  0  0  0  0  0  0
  146.4909  138.2782  151.9498 C   0  0  0  0  0  0  0  0  0  0  0  0
  145.2833  137.7149  152.7160 C   0  0  1  0  0  0  0  0  0  0  0  0
  144.8792  136.3706  152.2010 N   0  3  1  0  0  0  0  0  0  0  0  0
  145.9759  135.3731  152.1434 C   0  0  0  0  0  0  0  0  0  0  0  0
  143.6828  135.8180  152.8931 C   0  0  0  0  0  0  0  0  0  0  0  0
  143.2153  134.4963  152.2619 C   0  0  0  0  0  0  0  0  0  0  0  0
  142.0946  133.9998  152.9631 O   0  0  0  0  0  0  0  0  0  0  0  0
  145.7771  137.7395  154.1868 C   0  0  2  0  0  0  0  0  0  0  0  0
  144.6544  138.0433  155.2033 C   0  0  0  0  0  0  0  0  0  0  0  0
  147.7498  137.9682  156.1854 N   0  0  0  0  0  0  0  0  0  0  0  0
  148.6105  138.0501  157.2026 C   0  0  0  0  0  0  0  0  0  0  0  0
  149.4833  139.0188  157.4777 N   0  0  0  0  0  0  0  0  0  0  0  0
  149.4182  140.0222  156.5565 C   0  0  0  0  0  0  0  0  0  0  0  0
  144.4468  138.4080  152.6088 H   0  0  0  0  0  0  0  0  0  0  0  0
  146.2588  136.7883  154.4103 H   0  0  0  0  0  0  0  0  0  0  0  0
  153.9711  142.5303  158.6355 H   0  0  0  0  0  0  0  0  0  0  0  0
  152.9122  141.6495  159.7540 H   0  0  0  0  0  0  0  0  0  0  0  0
  153.8138  143.0544  160.2967 H   0  0  0  0  0  0  0  0  0  0  0  0
  152.5325  144.5292  158.7844 H   0  0  0  0  0  0  0  0  0  0  0  0
  149.3005  144.2344  160.5644 H   0  0  0  0  0  0  0  0  0  0  0  0
  150.1356  145.3036  159.4233 H   0  0  0  0  0  0  0  0  0  0  0  0
  149.3668  142.3906  159.0448 H   0  0  0  0  0  0  0  0  0  0  0  0
  148.9831  143.7070  157.9471 H   0  0  0  0  0  0  0  0  0  0  0  0
  150.3331  144.2649  156.6316 H   0  0  0  0  0  0  0  0  0  0  0  0
  152.1755  141.4385  156.9854 H   0  0  0  0  0  0  0  0  0  0  0  0
  151.1583  140.9433  158.2979 H   0  0  0  0  0  0  0  0  0  0  0  0
  150.1801  142.7714  155.0451 H   0  0  0  0  0  0  0  0  0  0  0  0
  146.6337  140.2706  152.7877 H   0  0  0  0  0  0  0  0  0  0  0  0
  148.1723  139.4004  152.7311 H   0  0  0  0  0  0  0  0  0  0  0  0
  146.2324  138.7338  150.9943 H   0  0  0  0  0  0  0  0  0  0  0  0
  147.2154  137.4850  151.7578 H   0  0  0  0  0  0  0  0  0  0  0  0
  146.4156  135.2197  153.1296 H   0  0  0  0  0  0  0  0  0  0  0  0
  146.7592  135.6802  151.4515 H   0  0  0  0  0  0  0  0  0  0  0  0
  145.6144  134.4086  151.7882 H   0  0  0  0  0  0  0  0  0  0  0  0
  143.9098  135.6719  153.9501 H   0  0  0  0  0  0  0  0  0  0  0  0
  142.8471  136.5164  152.8729 H   0  0  0  0  0  0  0  0  0  0  0  0
  142.9674  134.6103  151.2070 H   0  0  0  0  0  0  0  0  0  0  0  0
  144.0128  133.7552  152.3225 H   0  0  0  0  0  0  0  0  0  0  0  0
  142.3950  133.3873  153.6181 H   0  0  0  0  0  0  0  0  0  0  0  0
  143.8861  137.2737  155.2205 H   0  0  0  0  0  0  0  0  0  0  0  0
  144.1638  138.9892  154.9721 H   0  0  0  0  0  0  0  0  0  0  0  0
  145.0398  138.1237  156.2192 H   0  0  0  0  0  0  0  0  0  0  0  0
  148.5984  137.2203  157.8939 H   0  0  0  0  0  0  0  0  0  0  0  0
  144.5926  136.5283  151.2450 H   0  0  0  0  0  0  0  0  0  0  0  0
  1  2  1  0  0  0  0
  1 31  1  0  0  0  0
  1 32  1  0  0  0  0
  1 33  1  0  0  0  0
  2  6  1  0  0  0  0
  2  3  1  0  0  0  0
  2 34  1  0  0  0  0
  3  4  1  0  0  0  0
  4  5  1  0  0  0  0
  4 35  1  0  0  0  0
  4 36  1  0  0  0  0
  5  6  1  0  0  0  0
  5 37  1  0  0  0  0
  5 38  1  0  0  0  0
  6  7  1  0  0  0  0
  6  8  1  0  0  0  0
  7 39  1  0  0  0  0
  8  9  1  0  0  0  0
  8 40  1  0  0  0  0
  8 41  1  0  0  0  0
  9 28  1  0  0  0  0
  9 10  1  0  0  0  0
 10 11  2  0  0  0  0
 10 42  1  0  0  0  0
 11 12  1  0  0  0  0
 12 28  2  0  0  0  0
 12 13  1  0  0  0  0
 13 14  1  0  0  0  0
 13 25  2  0  0  0  0
 14 23  1  0  0  0  0
 14 15  1  0  0  0  0
 15 16  1  0  0  0  0
 15 43  1  0  0  0  0
 15 44  1  0  0  0  0
 16 17  1  0  0  0  0
 16 45  1  0  0  0  0
 16 46  1  0  0  0  0
 17 29  1  0  0  0  0
 17 18  1  0  0  0  0
 17 23  1  0  0  0  0
 18 19  1  0  0  0  0
 18 20  1  0  0  0  0
 18 59  1  0  0  0  0
 19 47  1  0  0  0  0
 19 48  1  0  0  0  0
 19 49  1  0  0  0  0
 20 21  1  0  0  0  0
 20 50  1  0  0  0  0
 20 51  1  0  0  0  0
 21 22  1  0  0  0  0
 21 52  1  0  0  0  0
 21 53  1  0  0  0  0
 22 54  1  0  0  0  0
 23 30  1  0  0  0  0
 23 24  1  0  0  0  0
 24 55  1  0  0  0  0
 24 56  1  0  0  0  0
 24 57  1  0  0  0  0
 25 26  1  0  0  0  0
 26 27  2  0  0  0  0
 26 58  1  0  0  0  0
 27 28  1  0  0  0  0
M  CHG  1  18   1
M  END
> <s_m_source_file>
AV-unprocessed.smi

> <i_m_source_file_index>
290

> <i_lp_mmshare_version>
43012

> <i_f3d_flags>
0

> <s_epik_input>
W0NIMl0xW0NIMl1PW0NAQEhdKFtDSDNdKVtDQEBdMShbT0hdKVtDSDJdbihbY0hdbjIpYyhjMjMpbltjSF1uYzNONFtDSDJdW0NIMl1bQ0BIXShbQ0BIXTRbQ0gzXSlOKFtDSDNdKVtDSDJdW0NIMl1bT0hd

> <s_epik_cmdline>
J2VwaWtfcHl0aG9uJywgJy1waCcsICc3LjAnLCAnLXRuJywgJzgnLCAnLW1hJywgJzIwMCcsICctbWV0YWxfYmluZGluZycsICctaW1hZScsICc8aW5maWxlLm1hZT4nLCAnLW9tYWUnLCAnPG91dGZpbGUubWFlPic=

> <r_lp_tautomer_probability>
1

> <r_epik_Ionization_Penalty>
0.0036983

> <r_epik_Ionization_Penalty_Charging>
0.0032725

> <r_epik_Ionization_Penalty_Neutral>
0.000425798

> <r_epik_State_Penalty>
-0

> <r_epik_Charging_Adjusted_Penalty>
0.0032725

> <i_epik_Tot_Q>
1

> <i_epik_Tot_abs_Q>
1

> <r_epik_Metal_State_Penalty>
-0

> <b_epik_Metal_Only>
0

> <s_lp_Force_Field>
OPLS_2005

> <r_lp_Energy>
63.0436

> <b_lp_Chiralities_Consistent>
1

> <s_lp_Variant>
AV-unprocessed.smi:290-17

> <Gold.Version>
5.8.1

> <Gold.Id.Protein>
6NUR|6NUR_protein|mol2

> <Gold.PLP.Fitness>
45.1768

> <Gold.PLP.PLP>
-37.8217

> <Gold.PLP.part.hbond>
-2.0000

> <Gold.PLP.part.metal>
0.0000

> <Gold.PLP.part.buried>
-3.5759

> <Gold.PLP.part.nonpolar>
-31.8586

> <Gold.PLP.part.repulsive>
0.2073

> <Gold.PLP.ligand.clash>
0.0000

> <Gold.PLP.ligand.torsion>
0.4090

> <Gold.PLP.Chemscore.Hbond>
2.0000

> <Gold.PLP.Chemscore.CHOScore>
0.6284

> <Gold.PLP.Chemscore.Metal>
0.0000

> <Gold.Chemscore.Hbonds>
donor molecule, donor type, donor heavy atom, donor atom, acceptor molecule, acceptor atom, score
      L1  H     7    39       P1  8028  1.00
      L1  H    22    54       P1 10957  1.00
      L1  C    10    42       P1  8028  0.69

> <Gold.PLP.Chemscore.Internal.Correction>
0.2879

> <Gold.Rescore>
     Score         DG    S(hbond)    S(metal)    S(lipo)     H(rot)  DE(clash)    DE(int)     intcor
     13.92     -14.56       1.98        0.00      94.40       3.35       0.26       0.38       ----

> <Gold.Chemscore.Fitness>
13.9224

> <Gold.Chemscore.DG>
-14.5590

> <Gold.Chemscore.ZeroCoef>
-5.4800

> <Gold.Chemscore.Hbond>
1.9803

> <Gold.Chemscore.Metal>
0.0000

> <Gold.Chemscore.Lipo>
94.4042

> <Gold.Chemscore.Internal_Hbond>
0.0000

> <Gold.Chemscore.DEClash>
0.2606

> <Gold.Chemscore.DEInternal>
0.3759

> <Gold.Chemscore.Rot>
3.3518

> <Gold.Chemscore.Internal.Correction>
   9.000000E+99

> <Gold.Chemscore.Hbonds>
donor molecule, donor type, donor heavy atom, donor atom, acceptor molecule, acceptor atom, score
      L1  H     7    39       P1  8028  0.99
      L1  H    22    54       P1 10957  0.95

> <Gold.Chemscore.Hbond.Weighted>
-6.6142

> <Gold.Chemscore.Metal.Weighted>
-0.0000

> <Gold.Chemscore.Lipo.Weighted>
-11.0453

> <Gold.Chemscore.Internal_Hbond.Weighted>
0.0000

> <Gold.Chemscore.DEClash.Weighted>
0.2606

> <Gold.Chemscore.DEInternal.Weighted>
0.3759

> <Gold.Chemscore.Rot.Weighted>
8.5806

> <Gold.Chemscore.Internal.Correction.Weighted>
   9.000000E+99

> <Gold.Protein.RotatedTorsions>
[ 6907 6896 6895 6894 ] final  -45.95 input  -60.11 | X-H torsion
[ 7974 7965 7964 7962 ] final   91.99 input  175.53 | X-H torsion
[ 8008 7997 7996 7995 ] final   -8.94 input   59.86 | X-H torsion
[ 10167 10162 10161 10158 ] final    5.71 input  -65.29 | X-H torsion
[ 10718 10713 10712 10709 ] final    8.35 input   66.30 | X-H torsion
[ 10763 10752 10751 10750 ] final  147.95 input  -60.55 | X-H torsion
[ 11005 11000 10999 10996 ] final -132.89 input  -57.11 | X-H torsion

> <Gold.Protein.ActiveResidues>
 VAL166  LYS551  ARG553  GLY616  TRP617  ASP618  TYR619  PRO620  LYS621  CYS622 
 ASP623  PHE694  ASN695  SER759  ASP760  ASP761  ALA762  ILE779  LEU786  VAL792 
 PHE793  MET794  SER795  GLU796  ALA797  LYS798  CYS799  TRP800  GLU811  SER814 

> <Gold.Protein.RotatedAtoms>
  150.9164  134.8582  159.7459 H   0  0  0  0  0  0  0  0  0  0  0  0  # atno 6907 bound_to 6896
  152.4971  134.4282  159.9513 H   0  0  0  0  0  0  0  0  0  0  0  0  # atno 6908 bound_to 6896
  151.4320  133.3628  159.2805 H   0  0  0  0  0  0  0  0  0  0  0  0  # atno 6909 bound_to 6896
  145.4983  139.2276  143.2791 H   0  0  0  0  0  0  0  0  0  0  0  0  # atno 7974 bound_to 7965
  154.5693  140.2368  155.8216 H   0  0  0  0  0  0  0  0  0  0  0  0  # atno 8008 bound_to 7997
  156.2094  140.3030  155.9656 H   0  0  0  0  0  0  0  0  0  0  0  0  # atno 8009 bound_to 7997
  155.2742  140.0419  157.3000 H   0  0  0  0  0  0  0  0  0  0  0  0  # atno 8010 bound_to 7997
  140.6467  143.7643  150.7511 H   0  0  0  0  0  0  0  0  0  0  0  0  # atno 10167 bound_to 10162
  156.9504  130.5894  149.5656 H   0  0  0  0  0  0  0  0  0  0  0  0  # atno 10718 bound_to 10713
  154.0467  135.2885  155.3347 H   0  0  0  0  0  0  0  0  0  0  0  0  # atno 10763 bound_to 10752
  154.6895  135.5232  153.8375 H   0  0  0  0  0  0  0  0  0  0  0  0  # atno 10764 bound_to 10752
  153.0577  135.6602  154.0667 H   0  0  0  0  0  0  0  0  0  0  0  0  # atno 10765 bound_to 10752
  140.9129  134.1544  157.4375 H   0  0  0  0  0  0  0  0  0  0  0  0  # atno 11005 bound_to 11000
  146.2242  140.5782  142.9004 LP  0  0  0  0  0  0  0  0  0  0  0  0  # atno 17320 bound_to 7965
  144.7794  140.5809  143.6615 LP  0  0  0  0  0  0  0  0  0  0  0  0  # atno 17321 bound_to 7965
  140.1286  143.4546  152.2268 LP  0  0  0  0  0  0  0  0  0  0  0  0  # atno 17342 bound_to 10162
  139.5679  144.7446  151.3972 LP  0  0  0  0  0  0  0  0  0  0  0  0  # atno 17343 bound_to 10162
  156.0365  130.5452  150.8667 LP  0  0  0  0  0  0  0  0  0  0  0  0  # atno 17370 bound_to 10713
  157.5726  131.0946  150.9395 LP  0  0  0  0  0  0  0  0  0  0  0  0  # atno 17371 bound_to 10713
  139.8761  134.9943  156.5685 LP  0  0  0  0  0  0  0  0  0  0  0  0  # atno 17394 bound_to 11000
  140.8087  133.8447  155.8790 LP  0  0  0  0  0  0  0  0  0  0  0  0  # atno 17395 bound_to 11000

$$$$
