AV-unprocessed.smi:104|AV-procd|sdf|1004|dock5
  -GOLD-   2262017593D 1   1.00000     0.00000
 Structure written by MMmdl.
 47 49  0  0  0  0  0  0  0  0  1 V2000
  147.3308  135.0727  162.1749 C   0  0  0  0  0  0  0  0  0  0  0  0
  147.4245  135.9793  160.9549 C   0  0  0  0  0  0  0  0  0  0  0  0
  147.7158  137.1713  161.0578 O   0  0  0  0  0  0  0  0  0  0  0  0
  147.1555  135.3282  159.8151 O   0  0  0  0  0  0  0  0  0  0  0  0
  147.5228  135.9033  158.5724 C   0  0  0  0  0  0  0  0  0  0  0  0
  146.4721  135.5280  157.5234 C   0  0  1  0  0  0  0  0  0  0  0  0
  147.0244  134.6269  156.5748 O   0  0  0  0  0  0  0  0  0  0  0  0
  145.9902  133.9931  155.8943 C   0  0  2  0  0  0  0  0  0  0  0  0
  145.6403  134.7663  154.6494 N   0  0  0  0  0  0  0  0  0  0  0  0
  145.0869  136.0232  154.4651 C   0  0  0  0  0  0  0  0  0  0  0  0
  144.5825  137.2052  155.8742 Br  0  0  0  0  0  0  0  0  0  0  0  0
  144.9229  136.4222  153.2344 N   0  0  0  0  0  0  0  0  0  0  0  0
  145.4515  135.3770  152.4927 C   0  0  0  0  0  0  0  0  0  0  0  0
  145.6190  135.1385  151.1053 C   0  0  0  0  0  0  0  0  0  0  0  0
  145.2211  136.0031  150.1620 N   0  0  0  0  0  0  0  0  0  0  0  0
  146.2125  133.9870  150.7135 N   0  0  0  0  0  0  0  0  0  0  0  0
  146.6254  133.1121  151.6359 C   0  0  0  0  0  0  0  0  0  0  0  0
  146.5345  133.1962  152.9657 N   0  0  0  0  0  0  0  0  0  0  0  0
  145.9250  134.3527  153.3613 C   0  0  0  0  0  0  0  0  0  0  0  0
  144.7913  133.9709  156.8621 C   0  0  1  0  0  0  0  0  0  0  0  0
  144.4584  132.6276  157.1876 O   0  0  0  0  0  0  0  0  0  0  0  0
  145.3422  131.8407  157.8262 C   0  0  0  0  0  0  0  0  0  0  0  0
  144.8055  130.4358  158.0678 C   0  0  0  0  0  0  0  0  0  0  0  0
  146.4719  132.1649  158.1924 O   0  0  0  0  0  0  0  0  0  0  0  0
  145.3054  134.7228  158.0859 C   0  0  2  0  0  0  0  0  0  0  0  0
  144.3089  135.5989  158.5963 O   0  0  0  0  0  0  0  0  0  0  0  0
  143.0636  135.1506  158.8282 C   0  0  0  0  0  0  0  0  0  0  0  0
  142.1494  136.2350  159.3825 C   0  0  0  0  0  0  0  0  0  0  0  0
  142.6560  134.0054  158.6330 O   0  0  0  0  0  0  0  0  0  0  0  0
  146.2978  134.7642  162.3366 H   0  0  0  0  0  0  0  0  0  0  0  0
  147.6806  135.5928  163.0670 H   0  0  0  0  0  0  0  0  0  0  0  0
  147.9408  134.1804  162.0335 H   0  0  0  0  0  0  0  0  0  0  0  0
  147.6103  136.9876  158.6546 H   0  0  0  0  0  0  0  0  0  0  0  0
  148.4985  135.5136  158.2791 H   0  0  0  0  0  0  0  0  0  0  0  0
  146.0996  136.4172  157.0106 H   0  0  0  0  0  0  0  0  0  0  0  0
  146.2957  133.0140  155.5236 H   0  0  0  0  0  0  0  0  0  0  0  0
  144.7792  136.8709  150.4293 H   0  0  0  0  0  0  0  0  0  0  0  0
  145.3614  135.7845  149.1863 H   0  0  0  0  0  0  0  0  0  0  0  0
  147.0931  132.2163  151.2550 H   0  0  0  0  0  0  0  0  0  0  0  0
  143.9602  134.5127  156.4087 H   0  0  0  0  0  0  0  0  0  0  0  0
  145.3181  129.7221  157.4231 H   0  0  0  0  0  0  0  0  0  0  0  0
  143.7367  130.3848  157.8587 H   0  0  0  0  0  0  0  0  0  0  0  0
  144.9678  130.1439  159.1054 H   0  0  0  0  0  0  0  0  0  0  0  0
  145.6796  134.0257  158.8380 H   0  0  0  0  0  0  0  0  0  0  0  0
  142.3326  136.3736  160.4480 H   0  0  0  0  0  0  0  0  0  0  0  0
  141.1037  135.9602  159.2440 H   0  0  0  0  0  0  0  0  0  0  0  0
  142.3267  137.1822  158.8728 H   0  0  0  0  0  0  0  0  0  0  0  0
  1  2  1  0  0  0  0
  1 30  1  0  0  0  0
  1 31  1  0  0  0  0
  1 32  1  0  0  0  0
  2  3  2  0  0  0  0
  2  4  1  0  0  0  0
  4  5  1  0  0  0  0
  5  6  1  0  0  0  0
  5 33  1  0  0  0  0
  5 34  1  0  0  0  0
  6 25  1  0  0  0  0
  6  7  1  0  0  0  0
  6 35  1  0  0  0  0
  7  8  1  0  0  0  0
  8  9  1  0  0  0  0
  8 20  1  0  0  0  0
  8 36  1  0  0  0  0
  9 19  1  0  0  0  0
  9 10  1  0  0  0  0
 10 11  1  0  0  0  0
 10 12  2  0  0  0  0
 12 13  1  0  0  0  0
 13 19  2  0  0  0  0
 13 14  1  0  0  0  0
 14 15  1  0  0  0  0
 14 16  2  0  0  0  0
 15 37  1  0  0  0  0
 15 38  1  0  0  0  0
 16 17  1  0  0  0  0
 17 18  2  0  0  0  0
 17 39  1  0  0  0  0
 18 19  1  0  0  0  0
 20 21  1  0  0  0  0
 20 25  1  0  0  0  0
 20 40  1  0  0  0  0
 21 22  1  0  0  0  0
 22 23  1  0  0  0  0
 22 24  2  0  0  0  0
 23 41  1  0  0  0  0
 23 42  1  0  0  0  0
 23 43  1  0  0  0  0
 25 26  1  0  0  0  0
 25 44  1  0  0  0  0
 26 27  1  0  0  0  0
 27 28  1  0  0  0  0
 27 29  2  0  0  0  0
 28 45  1  0  0  0  0
 28 46  1  0  0  0  0
 28 47  1  0  0  0  0
M  END
> <s_m_source_file>
AV-unprocessed.smi

> <i_m_source_file_index>
104

> <i_lp_mmshare_version>
43012

> <i_f3d_flags>
0

> <s_epik_input>
W0NIM11DKD1PKU9bQ0gyXVtDQEBIXTFPW0NASF0oW0NAQEhdKE9DKD1PKVtDSDNdKVtDQEhdMU9DKD1PKVtDSDNdKW4oYyhCciluMiljKGMyMyluW2NIXW5jM1tOSDJd

> <s_epik_cmdline>
J2VwaWtfcHl0aG9uJywgJy1waCcsICc3LjAnLCAnLXRuJywgJzgnLCAnLW1hJywgJzIwMCcsICctbWV0YWxfYmluZGluZycsICctaW1hZScsICc8aW5maWxlLm1hZT4nLCAnLW9tYWUnLCAnPG91dGZpbGUubWFlPic=

> <r_lp_tautomer_probability>
1

> <r_epik_Ionization_Penalty>
7.36622e-05

> <r_epik_Ionization_Penalty_Charging>
0

> <r_epik_Ionization_Penalty_Neutral>
7.36622e-05

> <r_epik_State_Penalty>
-0

> <r_epik_Charging_Adjusted_Penalty>
0

> <i_epik_Tot_Q>
0

> <i_epik_Tot_abs_Q>
0

> <r_epik_Metal_State_Penalty>
-0

> <b_epik_Metal_Only>
0

> <s_epik_Chemistry_Notes>
This compound has an ester and may undergo hydrolysis at high or low pH. This compound contains an acetal/aminal-like group ( X-CH(R)-Y where X, Y are N, S, or O) that may be acid/base labile, releasing an aldehyde.

> <s_lp_Force_Field>
OPLS_2005

> <r_lp_Energy>
12.8289

> <b_lp_Chiralities_Consistent>
1

> <s_lp_Variant>
AV-unprocessed.smi:104-12

> <Gold.Version>
5.8.1

> <Gold.Id.Protein>
6NUR|6NUR_protein|mol2

> <Gold.PLP.Fitness>
37.2888

> <Gold.PLP.PLP>
-22.9212

> <Gold.PLP.part.hbond>
-5.0000

> <Gold.PLP.part.metal>
0.0000

> <Gold.PLP.part.buried>
-5.4181

> <Gold.PLP.part.nonpolar>
-13.4359

> <Gold.PLP.part.repulsive>
1.1081

> <Gold.PLP.ligand.clash>
0.0000

> <Gold.PLP.ligand.torsion>
1.5033

> <Gold.PLP.Chemscore.Hbond>
4.7360

> <Gold.PLP.Chemscore.CHOScore>
1.0000

> <Gold.PLP.Chemscore.Metal>
0.0000

> <Gold.Chemscore.Hbonds>
donor molecule, donor type, donor heavy atom, donor atom, acceptor molecule, acceptor atom, score
      L1  H    15    37       P1 10171  0.93
      L1  H    15    38       P1  7921  1.00
      P1  H  6931  6943       L1     3  0.93
      P1  H  6934  6947       L1     3  0.88
      P1  H 11000 11005       L1    29  1.00
      L1  C    17    39       P1 10747  1.00

> <Gold.PLP.Chemscore.Internal.Correction>
0.1661

> <Gold.Rescore>
     Score         DG    S(hbond)    S(metal)    S(lipo)     H(rot)  DE(clash)    DE(int)     intcor
      4.66     -12.03       4.58        0.00      19.58       4.31       0.15       7.23       ----

> <Gold.Chemscore.Fitness>
4.6566

> <Gold.Chemscore.DG>
-12.0330

> <Gold.Chemscore.ZeroCoef>
-5.4800

> <Gold.Chemscore.Hbond>
4.5774

> <Gold.Chemscore.Metal>
0.0000

> <Gold.Chemscore.Lipo>
19.5761

> <Gold.Chemscore.Internal_Hbond>
0.0000

> <Gold.Chemscore.DEClash>
0.1470

> <Gold.Chemscore.DEInternal>
7.2294

> <Gold.Chemscore.Rot>
4.3070

> <Gold.Chemscore.Internal.Correction>
   9.000000E+99

> <Gold.Chemscore.Hbonds>
donor molecule, donor type, donor heavy atom, donor atom, acceptor molecule, acceptor atom, score
      L1  H    15    37       P1 10171  0.84
      L1  H    15    38       P1  7921  0.97
      P1  H  6931  6943       L1     3  0.89
      P1  H  6934  6947       L1     3  0.86
      P1  H 11000 11005       L1    29  0.70

> <Gold.Chemscore.Hbond.Weighted>
-15.2884

> <Gold.Chemscore.Metal.Weighted>
-0.0000

> <Gold.Chemscore.Lipo.Weighted>
-2.2904

> <Gold.Chemscore.Internal_Hbond.Weighted>
0.0000

> <Gold.Chemscore.DEClash.Weighted>
0.1470

> <Gold.Chemscore.DEInternal.Weighted>
7.2294

> <Gold.Chemscore.Rot.Weighted>
11.0259

> <Gold.Chemscore.Internal.Correction.Weighted>
   9.000000E+99

> <Gold.Protein.RotatedTorsions>
[ 6907 6896 6895 6894 ] final -102.24 input  -60.11 | X-H torsion
[ 7974 7965 7964 7962 ] final  -26.42 input  175.53 | X-H torsion
[ 8008 7997 7996 7995 ] final  -75.68 input   59.86 | X-H torsion
[ 10167 10162 10161 10158 ] final -100.57 input  -65.29 | X-H torsion
[ 10718 10713 10712 10709 ] final   53.51 input   66.30 | X-H torsion
[ 10763 10752 10751 10750 ] final   90.48 input  -60.55 | X-H torsion
[ 11005 11000 10999 10996 ] final -124.13 input  -57.11 | X-H torsion

> <Gold.Protein.ActiveResidues>
 VAL166  LYS551  ARG553  GLY616  TRP617  ASP618  TYR619  PRO620  LYS621  CYS622 
 ASP623  PHE694  ASN695  SER759  ASP760  ASP761  ALA762  ILE779  LEU786  VAL792 
 PHE793  MET794  SER795  GLU796  ALA797  LYS798  CYS799  TRP800  GLU811  SER814 

> <Gold.Protein.RotatedAtoms>
  150.7188  134.0612  159.3831 H   0  0  0  0  0  0  0  0  0  0  0  0  # atno 6907 bound_to 6896
  151.8591  135.0528  160.0477 H   0  0  0  0  0  0  0  0  0  0  0  0  # atno 6908 bound_to 6896
  152.2731  133.5365  159.5488 H   0  0  0  0  0  0  0  0  0  0  0  0  # atno 6909 bound_to 6896
  146.1426  140.5018  142.8645 H   0  0  0  0  0  0  0  0  0  0  0  0  # atno 7974 bound_to 7965
  154.5438  140.0740  156.8555 H   0  0  0  0  0  0  0  0  0  0  0  0  # atno 8008 bound_to 7997
  155.3128  140.3391  155.4225 H   0  0  0  0  0  0  0  0  0  0  0  0  # atno 8009 bound_to 7997
  156.1899  140.1682  156.8098 H   0  0  0  0  0  0  0  0  0  0  0  0  # atno 8010 bound_to 7997
  140.2505  143.3476  152.0719 H   0  0  0  0  0  0  0  0  0  0  0  0  # atno 10167 bound_to 10162
  157.5174  130.8541  149.8513 H   0  0  0  0  0  0  0  0  0  0  0  0  # atno 10718 bound_to 10713
  153.1981  135.4432  155.0232 H   0  0  0  0  0  0  0  0  0  0  0  0  # atno 10763 bound_to 10752
  154.8130  135.3303  154.7255 H   0  0  0  0  0  0  0  0  0  0  0  0  # atno 10764 bound_to 10752
  153.7703  135.6985  153.4963 H   0  0  0  0  0  0  0  0  0  0  0  0  # atno 10765 bound_to 10752
  140.9865  134.0599  157.3704 H   0  0  0  0  0  0  0  0  0  0  0  0  # atno 11005 bound_to 11000
  144.7810  140.5839  143.6606 LP  0  0  0  0  0  0  0  0  0  0  0  0  # atno 17320 bound_to 7965
  145.5011  139.1483  143.3656 LP  0  0  0  0  0  0  0  0  0  0  0  0  # atno 17321 bound_to 7965
  139.5048  144.6782  151.6075 LP  0  0  0  0  0  0  0  0  0  0  0  0  # atno 17342 bound_to 10162
  140.6044  143.9551  150.6408 LP  0  0  0  0  0  0  0  0  0  0  0  0  # atno 17343 bound_to 10162
  156.0329  130.3759  150.1637 LP  0  0  0  0  0  0  0  0  0  0  0  0  # atno 17370 bound_to 10713
  156.9826  130.9869  151.3434 LP  0  0  0  0  0  0  0  0  0  0  0  0  # atno 17371 bound_to 10713
  139.8973  135.0149  156.7093 LP  0  0  0  0  0  0  0  0  0  0  0  0  # atno 17394 bound_to 11000
  140.7106  133.9227  155.8082 LP  0  0  0  0  0  0  0  0  0  0  0  0  # atno 17395 bound_to 11000

$$$$
