AV-unprocessed.smi:2209|AV-procd|sdf|8948|dock2
  -GOLD-   2272012163D 1   1.00000     0.00000
 Structure written by MMmdl.
 26 27  0  0  0  0  0  0  0  0  2 V2000
  155.1599  139.0739  160.5033 C   0  0  0  0  0  0  0  0  0  0  0  0
  154.1508  139.9399  159.8291 C   0  0  0  0  0  0  0  0  0  0  0  0
  153.7333  139.6841  158.5953 N   0  0  0  0  0  0  0  0  0  0  0  0
  152.8106  140.7101  158.3460 O   0  0  0  0  0  0  0  0  0  0  0  0
  152.7841  141.4655  159.4703 C   0  0  0  0  0  0  0  0  0  0  0  0
  151.8836  142.6600  159.5191 C   0  0  1  0  0  0  0  0  0  0  0  0
  152.6349  143.9344  159.9489 C   0  0  0  0  0  0  0  0  0  0  0  0
  151.6816  145.1392  159.9734 C   0  0  0  0  0  0  0  0  0  0  0  0
  150.9628  145.2999  158.6236 C   0  0  0  0  0  0  0  0  0  0  0  0
  150.2477  144.0568  158.2613 N   0  3  0  0  0  0  0  0  0  0  0  0
  151.1379  142.8767  158.1866 C   0  0  0  0  0  0  0  0  0  0  0  0
  153.6030  141.0333  160.4273 N   0  0  0  0  0  0  0  0  0  0  0  0
  155.4666  138.2524  159.8548 H   0  0  0  0  0  0  0  0  0  0  0  0
  154.7428  138.6526  161.4181 H   0  0  0  0  0  0  0  0  0  0  0  0
  156.0440  139.6571  160.7615 H   0  0  0  0  0  0  0  0  0  0  0  0
  151.1307  142.4555  160.2824 H   0  0  0  0  0  0  0  0  0  0  0  0
  153.0848  143.7951  160.9326 H   0  0  0  0  0  0  0  0  0  0  0  0
  153.4542  144.1346  159.2570 H   0  0  0  0  0  0  0  0  0  0  0  0
  150.9449  145.0080  160.7671 H   0  0  0  0  0  0  0  0  0  0  0  0
  152.2352  146.0479  160.2124 H   0  0  0  0  0  0  0  0  0  0  0  0
  150.2470  146.1209  158.6717 H   0  0  0  0  0  0  0  0  0  0  0  0
  151.6788  145.5463  157.8382 H   0  0  0  0  0  0  0  0  0  0  0  0
  149.5376  143.8813  158.9580 H   0  0  0  0  0  0  0  0  0  0  0  0
  151.8468  143.0192  157.3695 H   0  0  0  0  0  0  0  0  0  0  0  0
  150.5390  141.9999  157.9387 H   0  0  0  0  0  0  0  0  0  0  0  0
  149.7991  144.1861  157.3655 H   0  0  0  0  0  0  0  0  0  0  0  0
  1  2  1  0  0  0  0
  1 13  1  0  0  0  0
  1 14  1  0  0  0  0
  1 15  1  0  0  0  0
  2 12  1  0  0  0  0
  2  3  2  0  0  0  0
  3  4  1  0  0  0  0
  4  5  1  0  0  0  0
  5  6  1  0  0  0  0
  5 12  2  0  0  0  0
  6 11  1  0  0  0  0
  6  7  1  0  0  0  0
  6 16  1  0  0  0  0
  7  8  1  0  0  0  0
  7 17  1  0  0  0  0
  7 18  1  0  0  0  0
  8  9  1  0  0  0  0
  8 19  1  0  0  0  0
  8 20  1  0  0  0  0
  9 10  1  0  0  0  0
  9 21  1  0  0  0  0
  9 22  1  0  0  0  0
 10 11  1  0  0  0  0
 10 23  1  0  0  0  0
 10 26  1  0  0  0  0
 11 24  1  0  0  0  0
 11 25  1  0  0  0  0
M  CHG  1  10   1
M  END
> <s_m_source_file>
AV-unprocessed.smi

> <i_m_source_file_index>
2209

> <i_lp_mmshare_version>
43012

> <i_f3d_flags>
0

> <s_epik_input>
W0NIM11jMW5vYyhuMSlbQ0BASF0yW0NIMl1bQ0gyXVtDSDJdW05IXVtDSDJdMg==

> <s_epik_cmdline>
J2VwaWtfcHl0aG9uJywgJy1waCcsICc3LjAnLCAnLXRuJywgJzgnLCAnLW1hJywgJzIwMCcsICctbWV0YWxfYmluZGluZycsICctaW1hZScsICc8aW5maWxlLm1hZT4nLCAnLW9tYWUnLCAnPG91dGZpbGUubWFlPic=

> <r_lp_tautomer_probability>
1

> <r_epik_Ionization_Penalty>
0.000532935

> <r_epik_Ionization_Penalty_Charging>
0.000532935

> <r_epik_Ionization_Penalty_Neutral>
4.97553e-13

> <r_epik_State_Penalty>
0.000332992

> <r_epik_Charging_Adjusted_Penalty>
0.000865928

> <i_epik_Tot_Q>
1

> <i_epik_Tot_abs_Q>
1

> <r_epik_Metal_State_Penalty>
-0

> <b_epik_Metal_Only>
0

> <s_lp_Force_Field>
OPLS_2005

> <r_lp_Energy>
10.4199

> <b_lp_Chiralities_Consistent>
1

> <s_lp_Variant>
AV-unprocessed.smi:2209-2

> <Gold.Version>
5.8.1

> <Gold.Id.Protein>
6NUR|6NUR_protein|mol2

> <Gold.PLP.Fitness>
33.9027

> <Gold.PLP.PLP>
-25.0156

> <Gold.PLP.part.hbond>
-3.2998

> <Gold.PLP.part.metal>
0.0000

> <Gold.PLP.part.buried>
-2.5489

> <Gold.PLP.part.nonpolar>
-18.6940

> <Gold.PLP.part.repulsive>
0.0651

> <Gold.PLP.ligand.clash>
0.0000

> <Gold.PLP.ligand.torsion>
0.0732

> <Gold.PLP.Chemscore.Hbond>
3.0000

> <Gold.PLP.Chemscore.CHOScore>
0.0000

> <Gold.PLP.Chemscore.Metal>
0.0000

> <Gold.Chemscore.Hbonds>
donor molecule, donor type, donor heavy atom, donor atom, acceptor molecule, acceptor atom, score
      L1  H    10    26       P1  8028  2.00
      P1  H  7997  8009       L1     3  0.95

> <Gold.PLP.Chemscore.Internal.Correction>
0.0335

> <Gold.Rescore>
     Score         DG    S(hbond)    S(metal)    S(lipo)     H(rot)  DE(clash)    DE(int)     intcor
     13.10     -13.19       0.97        0.00      59.98       1.00       0.04       0.06       ----

> <Gold.Chemscore.Fitness>
13.1027

> <Gold.Chemscore.DG>
-13.1944

> <Gold.Chemscore.ZeroCoef>
-5.4800

> <Gold.Chemscore.Hbond>
0.9750

> <Gold.Chemscore.Metal>
0.0000

> <Gold.Chemscore.Lipo>
59.9825

> <Gold.Chemscore.Internal_Hbond>
0.0000

> <Gold.Chemscore.DEClash>
0.0354

> <Gold.Chemscore.DEInternal>
0.0563

> <Gold.Chemscore.Rot>
1.0000

> <Gold.Chemscore.Internal.Correction>
   9.000000E+99

> <Gold.Chemscore.Hbonds>
donor molecule, donor type, donor heavy atom, donor atom, acceptor molecule, acceptor atom, score
      L1  H    10    26       P1  8028  0.44
      P1  H  7997  8009       L1     3  0.20

> <Gold.Chemscore.Hbond.Weighted>
-3.2565

> <Gold.Chemscore.Metal.Weighted>
-0.0000

> <Gold.Chemscore.Lipo.Weighted>
-7.0179

> <Gold.Chemscore.Internal_Hbond.Weighted>
0.0000

> <Gold.Chemscore.DEClash.Weighted>
0.0354

> <Gold.Chemscore.DEInternal.Weighted>
0.0563

> <Gold.Chemscore.Rot.Weighted>
2.5600

> <Gold.Chemscore.Internal.Correction.Weighted>
   9.000000E+99

> <Gold.Protein.RotatedTorsions>
[ 6907 6896 6895 6894 ] final -119.82 input  -60.11 | X-H torsion
[ 7974 7965 7964 7962 ] final   15.53 input  175.53 | X-H torsion
[ 8008 7997 7996 7995 ] final  130.12 input   59.86 | X-H torsion
[ 10167 10162 10161 10158 ] final   58.37 input  -65.29 | X-H torsion
[ 10718 10713 10712 10709 ] final  -44.12 input   66.30 | X-H torsion
[ 10763 10752 10751 10750 ] final  168.59 input  -60.55 | X-H torsion
[ 11005 11000 10999 10996 ] final   82.95 input  -57.11 | X-H torsion

> <Gold.Protein.ActiveResidues>
 VAL166  LYS551  ARG553  GLY616  TRP617  ASP618  TYR619  PRO620  LYS621  CYS622 
 ASP623  PHE694  ASN695  SER759  ASP760  ASP761  ALA762  ILE779  LEU786  VAL792 
 PHE793  MET794  SER795  GLU796  ALA797  LYS798  CYS799  TRP800  GLU811  SER814 

> <Gold.Protein.RotatedAtoms>
  150.8338  133.8046  159.3087 H   0  0  0  0  0  0  0  0  0  0  0  0  # atno 6907 bound_to 6896
  151.5768  135.1058  160.0017 H   0  0  0  0  0  0  0  0  0  0  0  0  # atno 6908 bound_to 6896
  152.4414  133.7413  159.6699 H   0  0  0  0  0  0  0  0  0  0  0  0  # atno 6909 bound_to 6896
  146.2276  139.8880  142.8559 H   0  0  0  0  0  0  0  0  0  0  0  0  # atno 7974 bound_to 7965
  156.2949  140.2604  156.2710 H   0  0  0  0  0  0  0  0  0  0  0  0  # atno 8008 bound_to 7997
  154.9695  140.0391  157.2246 H   0  0  0  0  0  0  0  0  0  0  0  0  # atno 8009 bound_to 7997
  154.7872  140.2805  155.6024 H   0  0  0  0  0  0  0  0  0  0  0  0  # atno 8010 bound_to 7997
  140.1880  144.4115  150.6584 H   0  0  0  0  0  0  0  0  0  0  0  0  # atno 10167 bound_to 10162
  156.2419  130.4180  149.8750 H   0  0  0  0  0  0  0  0  0  0  0  0  # atno 10718 bound_to 10713
  154.3708  135.2753  155.2267 H   0  0  0  0  0  0  0  0  0  0  0  0  # atno 10763 bound_to 10752
  154.4416  135.5953  153.6136 H   0  0  0  0  0  0  0  0  0  0  0  0  # atno 10764 bound_to 10752
  152.9838  135.6020  154.3939 H   0  0  0  0  0  0  0  0  0  0  0  0  # atno 10765 bound_to 10752
  139.9046  134.8109  156.2244 H   0  0  0  0  0  0  0  0  0  0  0  0  # atno 11005 bound_to 11000
  145.2445  141.0021  143.3916 LP  0  0  0  0  0  0  0  0  0  0  0  0  # atno 17320 bound_to 7965
  144.9424  139.4174  143.6442 LP  0  0  0  0  0  0  0  0  0  0  0  0  # atno 17321 bound_to 7965
  140.6475  143.2217  151.6153 LP  0  0  0  0  0  0  0  0  0  0  0  0  # atno 17342 bound_to 10162
  139.5268  144.3036  152.1053 LP  0  0  0  0  0  0  0  0  0  0  0  0  # atno 17343 bound_to 10162
  156.6329  130.8673  151.3499 LP  0  0  0  0  0  0  0  0  0  0  0  0  # atno 17370 bound_to 10713
  157.7179  130.9520  150.1324 LP  0  0  0  0  0  0  0  0  0  0  0  0  # atno 17371 bound_to 10713
  141.0385  133.6950  156.1556 LP  0  0  0  0  0  0  0  0  0  0  0  0  # atno 17394 bound_to 11000
  140.6991  134.4584  157.5587 LP  0  0  0  0  0  0  0  0  0  0  0  0  # atno 17395 bound_to 11000

$$$$
