AV-unprocessed.smi:877|AV-procd|sdf|4029|dock2
  -GOLD-   22720 1523D 1   1.00000     0.00000
 Structure written by MMmdl.
 44 46  0  0  0  0  0  0  0  0  2 V2000
  143.4800  142.7687  155.8178 C   0  0  0  0  0  0  0  0  0  0  0  0
  144.4293  143.1042  154.8163 O   0  0  0  0  0  0  0  0  0  0  0  0
  145.6951  142.5683  154.9168 C   0  0  0  0  0  0  0  0  0  0  0  0
  146.1580  142.2574  156.2119 C   0  0  0  0  0  0  0  0  0  0  0  0
  147.4413  141.7131  156.4088 C   0  0  0  0  0  0  0  0  0  0  0  0
  148.2827  141.4697  155.3051 C   0  0  0  0  0  0  0  0  0  0  0  0
  149.6731  140.8970  155.5108 C   0  0  0  0  0  0  0  0  0  0  0  0
  150.4082  141.5482  156.6418 C   0  0  0  0  0  0  0  0  0  0  0  0
  150.6118  142.8882  156.7985 N   0  3  0  0  0  0  0  0  0  0  0  0
  151.3472  143.1244  157.9597 C   0  0  0  0  0  0  0  0  0  0  0  0
  151.8016  144.3116  158.5254 C   0  0  0  0  0  0  0  0  0  0  0  0
  152.5328  144.2008  159.7262 C   0  0  0  0  0  0  0  0  0  0  0  0
  152.7857  142.9466  160.3189 C   0  0  0  0  0  0  0  0  0  0  0  0
  152.3193  141.7497  159.7355 C   0  0  0  0  0  0  0  0  0  0  0  0
  151.5983  141.8684  158.5478 C   0  0  0  0  0  0  0  0  0  0  0  0
  150.9988  140.9264  157.7041 N   0  0  0  0  0  0  0  0  0  0  0  0
  151.0895  139.4988  158.0508 C   0  0  0  0  0  0  0  0  0  0  0  0
  152.5394  138.9738  158.0537 C   0  0  2  0  0  0  0  0  0  0  0  0
  153.1337  139.2517  156.8000 O   0  0  0  0  0  0  0  0  0  0  0  0
  152.5968  137.4577  158.3079 C   0  0  0  0  0  0  0  0  0  0  0  0
  151.8925  137.1303  159.4869 O   0  0  0  0  0  0  0  0  0  0  0  0
  147.8279  141.7705  154.0053 C   0  0  0  0  0  0  0  0  0  0  0  0
  146.5447  142.3172  153.8098 C   0  0  0  0  0  0  0  0  0  0  0  0
  142.5316  143.2556  155.5916 H   0  0  0  0  0  0  0  0  0  0  0  0
  143.8003  143.1118  156.8024 H   0  0  0  0  0  0  0  0  0  0  0  0
  143.2985  141.6935  155.8506 H   0  0  0  0  0  0  0  0  0  0  0  0
  145.5218  142.4414  157.0653 H   0  0  0  0  0  0  0  0  0  0  0  0
  147.7764  141.4868  157.4105 H   0  0  0  0  0  0  0  0  0  0  0  0
  149.6146  139.8248  155.7002 H   0  0  0  0  0  0  0  0  0  0  0  0
  150.2354  141.0198  154.5852 H   0  0  0  0  0  0  0  0  0  0  0  0
  151.6098  145.2733  158.0724 H   0  0  0  0  0  0  0  0  0  0  0  0
  152.9078  145.0955  160.2021 H   0  0  0  0  0  0  0  0  0  0  0  0
  153.3498  142.9008  161.2392 H   0  0  0  0  0  0  0  0  0  0  0  0
  152.5215  140.7938  160.1956 H   0  0  0  0  0  0  0  0  0  0  0  0
  150.6217  139.3525  159.0251 H   0  0  0  0  0  0  0  0  0  0  0  0
  150.4814  138.9405  157.3385 H   0  0  0  0  0  0  0  0  0  0  0  0
  153.1038  139.4965  158.8273 H   0  0  0  0  0  0  0  0  0  0  0  0
  153.3586  138.4326  156.3857 H   0  0  0  0  0  0  0  0  0  0  0  0
  152.1210  136.9204  157.4866 H   0  0  0  0  0  0  0  0  0  0  0  0
  153.6254  137.1008  158.3718 H   0  0  0  0  0  0  0  0  0  0  0  0
  152.3885  137.4388  160.2298 H   0  0  0  0  0  0  0  0  0  0  0  0
  148.4663  141.5883  153.1529 H   0  0  0  0  0  0  0  0  0  0  0  0
  146.2356  142.5367  152.7991 H   0  0  0  0  0  0  0  0  0  0  0  0
  150.2778  143.5872  156.1473 H   0  0  0  0  0  0  0  0  0  0  0  0
  1  2  1  0  0  0  0
  1 24  1  0  0  0  0
  1 25  1  0  0  0  0
  1 26  1  0  0  0  0
  2  3  1  0  0  0  0
  3 23  1  0  0  0  0
  3  4  2  0  0  0  0
  4  5  1  0  0  0  0
  4 27  1  0  0  0  0
  5  6  2  0  0  0  0
  5 28  1  0  0  0  0
  6  7  1  0  0  0  0
  6 22  1  0  0  0  0
  7  8  1  0  0  0  0
  7 29  1  0  0  0  0
  7 30  1  0  0  0  0
  8 16  1  0  0  0  0
  8  9  2  0  0  0  0
  9 10  1  0  0  0  0
  9 44  1  0  0  0  0
 10 15  2  0  0  0  0
 10 11  1  0  0  0  0
 11 12  2  0  0  0  0
 11 31  1  0  0  0  0
 12 13  1  0  0  0  0
 12 32  1  0  0  0  0
 13 14  2  0  0  0  0
 13 33  1  0  0  0  0
 14 15  1  0  0  0  0
 14 34  1  0  0  0  0
 15 16  1  0  0  0  0
 16 17  1  0  0  0  0
 17 18  1  0  0  0  0
 17 35  1  0  0  0  0
 17 36  1  0  0  0  0
 18 19  1  0  0  0  0
 18 20  1  0  0  0  0
 18 37  1  0  0  0  0
 19 38  1  0  0  0  0
 20 21  1  0  0  0  0
 20 39  1  0  0  0  0
 20 40  1  0  0  0  0
 21 41  1  0  0  0  0
 22 23  2  0  0  0  0
 22 42  1  0  0  0  0
 23 43  1  0  0  0  0
M  CHG  1   9   1
M  END
> <s_m_source_file>
AV-unprocessed.smi

> <i_m_source_file_index>
877

> <i_lp_mmshare_version>
43012

> <i_f3d_flags>
0

> <s_epik_input>
W0NIM11PYzFbY0hdW2NIXWMoW2NIXVtjSF0xKVtDSDJdYyhuMiluKFtDSDJdW0NASF0oW09IXSlbQ0gyXVtPSF0pYyhjMjMpW2NIXVtjSF1bY0hdW2NIXTM=

> <s_epik_cmdline>
J2VwaWtfcHl0aG9uJywgJy1waCcsICc3LjAnLCAnLXRuJywgJzgnLCAnLW1hJywgJzIwMCcsICctbWV0YWxfYmluZGluZycsICctaW1hZScsICc8aW5maWxlLm1hZT4nLCAnLW9tYWUnLCAnPG91dGZpbGUubWFlPic=

> <r_lp_tautomer_probability>
1

> <r_epik_Ionization_Penalty>
1.37112

> <r_epik_Ionization_Penalty_Charging>
1.37111

> <r_epik_Ionization_Penalty_Neutral>
4.48252e-07

> <r_epik_State_Penalty>
1.45083

> <r_epik_Charging_Adjusted_Penalty>
2.82194

> <i_epik_Tot_Q>
1

> <i_epik_Tot_abs_Q>
1

> <r_epik_Metal_State_Penalty>
5.49009

> <b_epik_Metal_Only>
0

> <s_lp_Force_Field>
OPLS_2005

> <r_lp_Energy>
22.2712

> <b_lp_Chiralities_Consistent>
1

> <s_lp_Variant>
AV-unprocessed.smi:877-3

> <Gold.Version>
5.8.1

> <Gold.Id.Protein>
6NUR|6NUR_protein|mol2

> <Gold.PLP.Fitness>
57.7061

> <Gold.PLP.PLP>
-47.2702

> <Gold.PLP.part.hbond>
-2.9957

> <Gold.PLP.part.metal>
0.0000

> <Gold.PLP.part.buried>
-8.6581

> <Gold.PLP.part.nonpolar>
-37.7315

> <Gold.PLP.part.repulsive>
0.2232

> <Gold.PLP.ligand.clash>
0.0000

> <Gold.PLP.ligand.torsion>
0.6591

> <Gold.PLP.Chemscore.Hbond>
3.8880

> <Gold.PLP.Chemscore.CHOScore>
0.0000

> <Gold.PLP.Chemscore.Metal>
0.0000

> <Gold.Chemscore.Hbonds>
donor molecule, donor type, donor heavy atom, donor atom, acceptor molecule, acceptor atom, score
      L1  H     9    44       P1  8028  1.89
      P1  H  6896  6908       L1    21  0.98
      P1  H  7997  8009       L1    19  0.94

> <Gold.PLP.Chemscore.Internal.Correction>
0.0900

> <Gold.Rescore>
     Score         DG    S(hbond)    S(metal)    S(lipo)     H(rot)  DE(clash)    DE(int)     intcor
     19.28     -19.91       2.72        0.00     116.35       3.23       0.02       0.61       ----

> <Gold.Chemscore.Fitness>
19.2774

> <Gold.Chemscore.DG>
-19.9084

> <Gold.Chemscore.ZeroCoef>
-5.4800

> <Gold.Chemscore.Hbond>
2.7210

> <Gold.Chemscore.Metal>
0.0000

> <Gold.Chemscore.Lipo>
116.3508

> <Gold.Chemscore.Internal_Hbond>
0.0000

> <Gold.Chemscore.DEClash>
0.0174

> <Gold.Chemscore.DEInternal>
0.6137

> <Gold.Chemscore.Rot>
3.2315

> <Gold.Chemscore.Internal.Correction>
   9.000000E+99

> <Gold.Chemscore.Hbonds>
donor molecule, donor type, donor heavy atom, donor atom, acceptor molecule, acceptor atom, score
      L1  H     9    44       P1  8028  0.91
      P1  H  6896  6908       L1    21  0.27
      P1  H  7997  8009       L1    19  0.27

> <Gold.Chemscore.Hbond.Weighted>
-9.0880

> <Gold.Chemscore.Metal.Weighted>
-0.0000

> <Gold.Chemscore.Lipo.Weighted>
-13.6130

> <Gold.Chemscore.Internal_Hbond.Weighted>
0.0000

> <Gold.Chemscore.DEClash.Weighted>
0.0174

> <Gold.Chemscore.DEInternal.Weighted>
0.6137

> <Gold.Chemscore.Rot.Weighted>
8.2727

> <Gold.Chemscore.Internal.Correction.Weighted>
   9.000000E+99

> <Gold.Protein.RotatedTorsions>
[ 6907 6896 6895 6894 ] final -118.50 input  -60.11 | X-H torsion
[ 7974 7965 7964 7962 ] final  -94.78 input  175.53 | X-H torsion
[ 8008 7997 7996 7995 ] final -170.94 input   59.86 | X-H torsion
[ 10167 10162 10161 10158 ] final   32.41 input  -65.29 | X-H torsion
[ 10718 10713 10712 10709 ] final    3.74 input   66.30 | X-H torsion
[ 10763 10752 10751 10750 ] final -165.72 input  -60.55 | X-H torsion
[ 11005 11000 10999 10996 ] final   93.42 input  -57.11 | X-H torsion

> <Gold.Protein.ActiveResidues>
 VAL166  LYS551  ARG553  GLY616  TRP617  ASP618  TYR619  PRO620  LYS621  CYS622 
 ASP623  PHE694  ASN695  SER759  ASP760  ASP761  ALA762  ILE779  LEU786  VAL792 
 PHE793  MET794  SER795  GLU796  ALA797  LYS798  CYS799  TRP800  GLU811  SER814 

> <Gold.Protein.RotatedAtoms>
  150.8225  133.8228  159.3132 H   0  0  0  0  0  0  0  0  0  0  0  0  # atno 6907 bound_to 6896
  151.5982  135.1047  160.0064 H   0  0  0  0  0  0  0  0  0  0  0  0  # atno 6908 bound_to 6896
  152.4313  133.7241  159.6607 H   0  0  0  0  0  0  0  0  0  0  0  0  # atno 6909 bound_to 6896
  145.3687  140.9502  143.2459 H   0  0  0  0  0  0  0  0  0  0  0  0  # atno 7974 bound_to 7965
  155.9250  140.1081  157.1177 H   0  0  0  0  0  0  0  0  0  0  0  0  # atno 8008 bound_to 7997
  154.4061  140.1248  156.4794 H   0  0  0  0  0  0  0  0  0  0  0  0  # atno 8009 bound_to 7997
  155.7149  140.3470  155.4992 H   0  0  0  0  0  0  0  0  0  0  0  0  # atno 8010 bound_to 7997
  140.4501  144.1060  150.6190 H   0  0  0  0  0  0  0  0  0  0  0  0  # atno 10167 bound_to 10162
  156.8822  130.5658  149.5652 H   0  0  0  0  0  0  0  0  0  0  0  0  # atno 10718 bound_to 10713
  154.6904  135.2969  154.9488 H   0  0  0  0  0  0  0  0  0  0  0  0  # atno 10763 bound_to 10752
  154.0453  135.6652  153.4798 H   0  0  0  0  0  0  0  0  0  0  0  0  # atno 10764 bound_to 10752
  153.0608  135.5117  154.7993 H   0  0  0  0  0  0  0  0  0  0  0  0  # atno 10765 bound_to 10752
  139.8810  134.8789  156.3715 H   0  0  0  0  0  0  0  0  0  0  0  0  # atno 11005 bound_to 11000
  144.8592  139.5203  143.6820 LP  0  0  0  0  0  0  0  0  0  0  0  0  # atno 17320 bound_to 7965
  146.2895  139.7098  142.9171 LP  0  0  0  0  0  0  0  0  0  0  0  0  # atno 17321 bound_to 7965
  140.4217  143.2608  151.9707 LP  0  0  0  0  0  0  0  0  0  0  0  0  # atno 17342 bound_to 10162
  139.4796  144.5825  151.7909 LP  0  0  0  0  0  0  0  0  0  0  0  0  # atno 17343 bound_to 10162
  156.0671  130.5712  150.9310 LP  0  0  0  0  0  0  0  0  0  0  0  0  # atno 17370 bound_to 10713
  157.6133  131.0935  150.8755 LP  0  0  0  0  0  0  0  0  0  0  0  0  # atno 17371 bound_to 10713
  140.9461  133.7482  156.0210 LP  0  0  0  0  0  0  0  0  0  0  0  0  # atno 17394 bound_to 11000
  140.8162  134.3343  157.5396 LP  0  0  0  0  0  0  0  0  0  0  0  0  # atno 17395 bound_to 11000

$$$$
