AV-unprocessed.smi:876|AV-procd|sdf|4022|dock4
  -GOLD-   22720 1513D 1   1.00000     0.00000
 Structure written by MMmdl.
 41 42  0  0  0  0  0  0  0  0  2 V2000
  151.3427  144.0368  156.4914 C   0  0  0  0  0  0  0  0  0  0  0  0
  151.3221  142.6451  156.9227 N   0  0  0  0  0  0  0  0  0  0  0  0
  151.8429  142.2724  158.2334 C   0  0  0  0  0  0  0  0  0  0  0  0
  150.7516  141.6595  156.0882 C   0  0  0  0  0  0  0  0  0  0  0  0
  151.2852  140.3545  155.9518 C   0  0  0  0  0  0  0  0  0  0  0  0
  150.6600  139.4228  155.0973 C   0  0  0  0  0  0  0  0  0  0  0  0
  149.4938  139.7985  154.3863 C   0  0  0  0  0  0  0  0  0  0  0  0
  148.7925  138.9486  153.4882 N   0  0  0  0  0  0  0  0  0  0  0  0
  147.4971  138.9860  153.1307 C   0  0  0  0  0  0  0  0  0  0  0  0
  146.6723  139.8103  153.5242 O   0  0  0  0  0  0  0  0  0  0  0  0
  147.2052  138.0063  152.2637 N   0  0  0  0  0  0  0  0  0  0  0  0
  145.8871  137.7727  151.6843 C   0  0  1  0  0  0  0  0  0  0  0  0
  145.9138  136.5731  150.7774 C   0  0  0  0  0  0  0  0  0  0  0  0
  145.0018  135.6607  151.1053 C   0  0  0  0  0  0  0  0  0  0  0  0
  144.1810  136.0591  152.3055 C   0  0  1  0  0  0  0  0  0  0  0  0
  144.1808  134.9920  153.4139 C   0  0  0  0  0  0  0  0  0  0  0  0
  143.4053  133.8757  153.0301 O   0  0  0  0  0  0  0  0  0  0  0  0
  144.8208  137.3996  152.7483 C   0  0  0  0  0  0  0  0  0  0  0  0
  149.0109  141.1123  154.5487 C   0  0  0  0  0  0  0  0  0  0  0  0
  149.6412  141.9726  155.3769 N   0  3  0  0  0  0  0  0  0  0  0  0
  145.5695  138.6375  151.0992 H   0  0  0  0  0  0  0  0  0  0  0  0
  143.1594  136.2388  151.9676 H   0  0  0  0  0  0  0  0  0  0  0  0
  150.3279  144.4065  156.3410 H   0  0  0  0  0  0  0  0  0  0  0  0
  151.8950  144.1408  155.5569 H   0  0  0  0  0  0  0  0  0  0  0  0
  151.8233  144.6750  157.2333 H   0  0  0  0  0  0  0  0  0  0  0  0
  152.6439  141.5390  158.1334 H   0  0  0  0  0  0  0  0  0  0  0  0
  151.0535  141.8427  158.8511 H   0  0  0  0  0  0  0  0  0  0  0  0
  152.2464  143.1367  158.7613 H   0  0  0  0  0  0  0  0  0  0  0  0
  152.1720  140.0494  156.4867 H   0  0  0  0  0  0  0  0  0  0  0  0
  151.1000  138.4429  154.9981 H   0  0  0  0  0  0  0  0  0  0  0  0
  149.3571  138.2527  153.0234 H   0  0  0  0  0  0  0  0  0  0  0  0
  147.9420  137.3742  151.9870 H   0  0  0  0  0  0  0  0  0  0  0  0
  146.5982  136.4947  149.9453 H   0  0  0  0  0  0  0  0  0  0  0  0
  144.8376  134.7316  150.5795 H   0  0  0  0  0  0  0  0  0  0  0  0
  145.1962  134.6635  153.6387 H   0  0  0  0  0  0  0  0  0  0  0  0
  143.7624  135.4026  154.3331 H   0  0  0  0  0  0  0  0  0  0  0  0
  143.3575  133.2779  153.7606 H   0  0  0  0  0  0  0  0  0  0  0  0
  145.2758  137.2961  153.7350 H   0  0  0  0  0  0  0  0  0  0  0  0
  144.0670  138.1829  152.8350 H   0  0  0  0  0  0  0  0  0  0  0  0
  148.1376  141.5025  154.0460 H   0  0  0  0  0  0  0  0  0  0  0  0
  149.2588  142.9136  155.4715 H   0  0  0  0  0  0  0  0  0  0  0  0
  1  2  1  0  0  0  0
  1 23  1  0  0  0  0
  1 24  1  0  0  0  0
  1 25  1  0  0  0  0
  2  3  1  0  0  0  0
  2  4  1  0  0  0  0
  3 26  1  0  0  0  0
  3 27  1  0  0  0  0
  3 28  1  0  0  0  0
  4 20  1  0  0  0  0
  4  5  2  0  0  0  0
  5  6  1  0  0  0  0
  5 29  1  0  0  0  0
  6  7  2  0  0  0  0
  6 30  1  0  0  0  0
  7  8  1  0  0  0  0
  7 19  1  0  0  0  0
  8  9  1  0  0  0  0
  8 31  1  0  0  0  0
  9 10  2  0  0  0  0
  9 11  1  0  0  0  0
 11 12  1  0  0  0  0
 11 32  1  0  0  0  0
 12 21  1  0  0  0  0
 12 18  1  0  0  0  0
 12 13  1  0  0  0  0
 13 14  2  0  0  0  0
 13 33  1  0  0  0  0
 14 15  1  0  0  0  0
 14 34  1  0  0  0  0
 15 22  1  0  0  0  0
 15 16  1  0  0  0  0
 15 18  1  0  0  0  0
 16 17  1  0  0  0  0
 16 35  1  0  0  0  0
 16 36  1  0  0  0  0
 17 37  1  0  0  0  0
 18 38  1  0  0  0  0
 18 39  1  0  0  0  0
 19 20  2  0  0  0  0
 19 40  1  0  0  0  0
 20 41  1  0  0  0  0
M  CHG  1  20   1
M  END
> <s_m_source_file>
AV-unprocessed.smi

> <i_m_source_file_index>
876

> <i_lp_mmshare_version>
43012

> <i_f3d_flags>
0

> <s_epik_input>
W0NIM11OKFtDSDNdKWMxW2NIXVtjSF1jKFtjSF1uMSlbTkhdQyg9TylbTkhdW0NAQEhdMltDSF09W0NIXVtDQEBIXShbQ0gyXTIpW0NIMl1bT0hd

> <s_epik_cmdline>
J2VwaWtfcHl0aG9uJywgJy1waCcsICc3LjAnLCAnLXRuJywgJzgnLCAnLW1hJywgJzIwMCcsICctbWV0YWxfYmluZGluZycsICctaW1hZScsICc8aW5maWxlLm1hZT4nLCAnLW9tYWUnLCAnPG91dGZpbGUubWFlPic=

> <r_lp_tautomer_probability>
0.999994

> <r_epik_Ionization_Penalty>
0.257994

> <r_epik_Ionization_Penalty_Charging>
0.257974

> <r_epik_Ionization_Penalty_Neutral>
1.95938e-05

> <r_epik_State_Penalty>
0.249586

> <r_epik_Charging_Adjusted_Penalty>
0.50756

> <i_epik_Tot_Q>
1

> <i_epik_Tot_abs_Q>
1

> <r_epik_Metal_State_Penalty>
0.538508

> <b_epik_Metal_Only>
0

> <s_lp_Force_Field>
OPLS_2005

> <r_lp_Energy>
25.8864

> <b_lp_Chiralities_Consistent>
1

> <s_lp_Variant>
AV-unprocessed.smi:876-4

> <Gold.Version>
5.8.1

> <Gold.Id.Protein>
6NUR|6NUR_protein|mol2

> <Gold.PLP.Fitness>
46.7989

> <Gold.PLP.PLP>
-35.9023

> <Gold.PLP.part.hbond>
-4.6265

> <Gold.PLP.part.metal>
0.0000

> <Gold.PLP.part.buried>
3.2126

> <Gold.PLP.part.nonpolar>
-34.9865

> <Gold.PLP.part.repulsive>
0.5133

> <Gold.PLP.ligand.clash>
0.0000

> <Gold.PLP.ligand.torsion>
0.8030

> <Gold.PLP.Chemscore.Hbond>
4.1589

> <Gold.PLP.Chemscore.CHOScore>
0.0000

> <Gold.PLP.Chemscore.Metal>
0.0000

> <Gold.Chemscore.Hbonds>
donor molecule, donor type, donor heavy atom, donor atom, acceptor molecule, acceptor atom, score
      L1  H     8    31       P1  7948  0.20
      L1  H    11    32       P1  7948  0.94
      L1  H    17    37       P1 10957  1.00
      L1  H    20    41       P1  8028  2.00

> <Gold.PLP.Chemscore.Internal.Correction>
0.0260

> <Gold.Rescore>
     Score         DG    S(hbond)    S(metal)    S(lipo)     H(rot)  DE(clash)    DE(int)     intcor
     16.94     -19.63       2.95        0.00      76.64       1.82       0.68       2.01       ----

> <Gold.Chemscore.Fitness>
16.9365

> <Gold.Chemscore.DG>
-19.6277

> <Gold.Chemscore.ZeroCoef>
-5.4800

> <Gold.Chemscore.Hbond>
2.9459

> <Gold.Chemscore.Metal>
0.0000

> <Gold.Chemscore.Lipo>
76.6400

> <Gold.Chemscore.Internal_Hbond>
0.0000

> <Gold.Chemscore.DEClash>
0.6775

> <Gold.Chemscore.DEInternal>
2.0136

> <Gold.Chemscore.Rot>
1.8197

> <Gold.Chemscore.Internal.Correction>
   9.000000E+99

> <Gold.Chemscore.Hbonds>
donor molecule, donor type, donor heavy atom, donor atom, acceptor molecule, acceptor atom, score
      L1  H     8    31       P1  7948  0.17
      L1  H    11    32       P1  7948  0.90
      L1  H    17    37       P1 10957  0.97
      L1  H    20    41       P1  8028  1.00

> <Gold.Chemscore.Hbond.Weighted>
-9.8393

> <Gold.Chemscore.Metal.Weighted>
-0.0000

> <Gold.Chemscore.Lipo.Weighted>
-8.9669

> <Gold.Chemscore.Internal_Hbond.Weighted>
0.0000

> <Gold.Chemscore.DEClash.Weighted>
0.6775

> <Gold.Chemscore.DEInternal.Weighted>
2.0136

> <Gold.Chemscore.Rot.Weighted>
4.6585

> <Gold.Chemscore.Internal.Correction.Weighted>
   9.000000E+99

> <Gold.Protein.RotatedTorsions>
[ 6907 6896 6895 6894 ] final   79.14 input  -60.11 | X-H torsion
[ 7974 7965 7964 7962 ] final -112.15 input  175.53 | X-H torsion
[ 8008 7997 7996 7995 ] final   47.78 input   59.86 | X-H torsion
[ 10167 10162 10161 10158 ] final   60.55 input  -65.29 | X-H torsion
[ 10718 10713 10712 10709 ] final -110.46 input   66.30 | X-H torsion
[ 10763 10752 10751 10750 ] final   61.19 input  -60.55 | X-H torsion
[ 11005 11000 10999 10996 ] final   62.47 input  -57.11 | X-H torsion

> <Gold.Protein.ActiveResidues>
 VAL166  LYS551  ARG553  GLY616  TRP617  ASP618  TYR619  PRO620  LYS621  CYS622 
 ASP623  PHE694  ASN695  SER759  ASP760  ASP761  ALA762  ILE779  LEU786  VAL792 
 PHE793  MET794  SER795  GLU796  ALA797  LYS798  CYS799  TRP800  GLU811  SER814 

> <Gold.Protein.RotatedAtoms>
  152.5187  134.3557  159.9266 H   0  0  0  0  0  0  0  0  0  0  0  0  # atno 6907 bound_to 6896
  151.3508  133.3920  159.2688 H   0  0  0  0  0  0  0  0  0  0  0  0  # atno 6908 bound_to 6896
  150.9728  134.9117  159.7856 H   0  0  0  0  0  0  0  0  0  0  0  0  # atno 6909 bound_to 6896
  145.1475  140.8811  143.3666 H   0  0  0  0  0  0  0  0  0  0  0  0  # atno 7974 bound_to 7965
  155.3748  140.3425  155.4244 H   0  0  0  0  0  0  0  0  0  0  0  0  # atno 8008 bound_to 7997
  156.1643  140.1611  156.8592 H   0  0  0  0  0  0  0  0  0  0  0  0  # atno 8009 bound_to 7997
  154.5170  140.0776  156.8081 H   0  0  0  0  0  0  0  0  0  0  0  0  # atno 8010 bound_to 7997
  140.1644  144.4339  150.6693 H   0  0  0  0  0  0  0  0  0  0  0  0  # atno 10167 bound_to 10162
  156.0592  130.5816  150.8240 H   0  0  0  0  0  0  0  0  0  0  0  0  # atno 10718 bound_to 10713
  152.9943  135.5509  154.5995 H   0  0  0  0  0  0  0  0  0  0  0  0  # atno 10763 bound_to 10752
  154.5339  135.2815  155.1158 H   0  0  0  0  0  0  0  0  0  0  0  0  # atno 10764 bound_to 10752
  154.2462  135.6407  153.5277 H   0  0  0  0  0  0  0  0  0  0  0  0  # atno 10765 bound_to 10752
  140.0090  134.6325  155.9810 H   0  0  0  0  0  0  0  0  0  0  0  0  # atno 11005 bound_to 11000
  145.0466  139.3216  143.5950 LP  0  0  0  0  0  0  0  0  0  0  0  0  # atno 17320 bound_to 7965
  146.3498  139.9859  142.8691 LP  0  0  0  0  0  0  0  0  0  0  0  0  # atno 17321 bound_to 7965
  140.6622  143.2256  151.5828 LP  0  0  0  0  0  0  0  0  0  0  0  0  # atno 17342 bound_to 10162
  139.5366  144.2763  152.1265 LP  0  0  0  0  0  0  0  0  0  0  0  0  # atno 17343 bound_to 10162
  157.5587  131.0945  150.9591 LP  0  0  0  0  0  0  0  0  0  0  0  0  # atno 17370 bound_to 10713
  156.9834  130.5535  149.5298 LP  0  0  0  0  0  0  0  0  0  0  0  0  # atno 17371 bound_to 10713
  141.1697  133.6537  156.4608 LP  0  0  0  0  0  0  0  0  0  0  0  0  # atno 17394 bound_to 11000
  140.4589  134.6860  157.5076 LP  0  0  0  0  0  0  0  0  0  0  0  0  # atno 17395 bound_to 11000

$$$$
