AV-unprocessed.smi:516|AV-procd|sdf|2784|dock9
  -GOLD-   2262023253D 1   1.00000     0.00000
 Structure written by MMmdl.
 44 46  0  0  0  0  0  0  0  0  1 V2000
  147.9257  136.8511  158.7423 C   0  0  0  0  0  0  0  0  0  0  0  0
  146.9768  137.5842  157.9880 O   0  0  0  0  0  0  0  0  0  0  0  0
  146.7926  137.0557  156.6862 C   0  0  0  0  0  0  0  0  0  0  0  0
  145.8970  138.0105  155.8882 C   0  0  0  0  0  0  0  0  0  0  0  0
  145.7428  137.5764  154.5056 N   0  0  0  0  0  0  0  0  0  0  0  0
  146.1284  138.2327  153.3806 C   0  0  0  0  0  0  0  0  0  0  0  0
  146.7970  139.5744  153.4087 C   0  0  0  0  0  0  0  0  0  0  0  0
  147.9821  139.6283  154.2627 N   0  0  0  0  0  0  0  0  0  0  0  0
  148.9906  138.6390  153.8891 C   0  0  0  0  0  0  0  0  0  0  0  0
  150.2372  138.7267  154.7871 C   0  0  0  0  0  0  0  0  0  0  0  0
  150.7700  140.0465  154.7408 O   0  0  0  0  0  0  0  0  0  0  0  0
  149.8272  141.0348  155.1435 C   0  0  0  0  0  0  0  0  0  0  0  0
  148.5832  140.9562  154.2424 C   0  0  0  0  0  0  0  0  0  0  0  0
  145.8529  137.5846  152.2436 N   0  0  0  0  0  0  0  0  0  0  0  0
  145.2391  136.4219  152.6857 C   0  0  0  0  0  0  0  0  0  0  0  0
  145.1569  136.4018  154.0388 C   0  0  0  0  0  0  0  0  0  0  0  0
  144.5360  135.2953  154.7760 C   0  0  0  0  0  0  0  0  0  0  0  0
  144.4415  135.2660  156.0011 O   0  0  0  0  0  0  0  0  0  0  0  0
  144.0732  134.3134  153.9642 N   0  0  0  0  0  0  0  0  0  0  0  0
  144.1286  134.2672  152.5973 C   0  0  0  0  0  0  0  0  0  0  0  0
  143.6613  133.2973  152.0012 O   0  0  0  0  0  0  0  0  0  0  0  0
  144.7136  135.3261  151.9469 N   0  0  0  0  0  0  0  0  0  0  0  0
  144.8246  135.3748  150.4877 C   0  0  0  0  0  0  0  0  0  0  0  0
  143.6357  133.5260  154.4199 H   0  0  0  0  0  0  0  0  0  0  0  0
  148.0299  137.2961  159.7318 H   0  0  0  0  0  0  0  0  0  0  0  0
  148.9053  136.8637  158.2626 H   0  0  0  0  0  0  0  0  0  0  0  0
  147.6115  135.8145  158.8706 H   0  0  0  0  0  0  0  0  0  0  0  0
  147.7574  136.9392  156.1899 H   0  0  0  0  0  0  0  0  0  0  0  0
  146.3307  136.0689  156.7463 H   0  0  0  0  0  0  0  0  0  0  0  0
  144.9169  138.0830  156.3583 H   0  0  0  0  0  0  0  0  0  0  0  0
  146.3045  139.0211  155.9014 H   0  0  0  0  0  0  0  0  0  0  0  0
  147.0575  139.8610  152.3886 H   0  0  0  0  0  0  0  0  0  0  0  0
  146.0631  140.3051  153.7502 H   0  0  0  0  0  0  0  0  0  0  0  0
  148.5770  137.6326  153.9575 H   0  0  0  0  0  0  0  0  0  0  0  0
  149.2847  138.7855  152.8487 H   0  0  0  0  0  0  0  0  0  0  0  0
  149.9901  138.4634  155.8167 H   0  0  0  0  0  0  0  0  0  0  0  0
  150.9983  138.0231  154.4496 H   0  0  0  0  0  0  0  0  0  0  0  0
  149.5562  140.8850  156.1898 H   0  0  0  0  0  0  0  0  0  0  0  0
  150.2885  142.0196  155.0690 H   0  0  0  0  0  0  0  0  0  0  0  0
  148.8600  141.2215  153.2207 H   0  0  0  0  0  0  0  0  0  0  0  0
  147.8540  141.6976  154.5707 H   0  0  0  0  0  0  0  0  0  0  0  0
  144.4026  134.5068  149.9800 H   0  0  0  0  0  0  0  0  0  0  0  0
  145.8733  135.4439  150.1973 H   0  0  0  0  0  0  0  0  0  0  0  0
  144.3117  136.2578  150.1051 H   0  0  0  0  0  0  0  0  0  0  0  0
  1  2  1  0  0  0  0
  1 25  1  0  0  0  0
  1 26  1  0  0  0  0
  1 27  1  0  0  0  0
  2  3  1  0  0  0  0
  3  4  1  0  0  0  0
  3 28  1  0  0  0  0
  3 29  1  0  0  0  0
  4  5  1  0  0  0  0
  4 30  1  0  0  0  0
  4 31  1  0  0  0  0
  5 16  1  0  0  0  0
  5  6  1  0  0  0  0
  6  7  1  0  0  0  0
  6 14  2  0  0  0  0
  7  8  1  0  0  0  0
  7 32  1  0  0  0  0
  7 33  1  0  0  0  0
  8 13  1  0  0  0  0
  8  9  1  0  0  0  0
  9 10  1  0  0  0  0
  9 34  1  0  0  0  0
  9 35  1  0  0  0  0
 10 11  1  0  0  0  0
 10 36  1  0  0  0  0
 10 37  1  0  0  0  0
 11 12  1  0  0  0  0
 12 13  1  0  0  0  0
 12 38  1  0  0  0  0
 12 39  1  0  0  0  0
 13 40  1  0  0  0  0
 13 41  1  0  0  0  0
 14 15  1  0  0  0  0
 15 22  1  0  0  0  0
 15 16  2  0  0  0  0
 16 17  1  0  0  0  0
 17 18  2  0  0  0  0
 17 19  1  0  0  0  0
 19 24  1  0  0  0  0
 19 20  1  0  0  0  0
 20 21  2  0  0  0  0
 20 22  1  0  0  0  0
 22 23  1  0  0  0  0
 23 42  1  0  0  0  0
 23 43  1  0  0  0  0
 23 44  1  0  0  0  0
M  END
> <s_m_source_file>
AV-unprocessed.smi

> <i_m_source_file_index>
516

> <i_lp_mmshare_version>
43012

> <i_f3d_flags>
0

> <s_epik_input>
W0NIM11uMWMoPU8pW25IXWMoPU8pYyhjMTIpbihbQ0gyXVtDSDJdT1tDSDNdKWMobjIpW0NIMl1OM1tDSDJdW0NIMl1PW0NIMl1bQ0gyXTM=

> <s_epik_cmdline>
J2VwaWtfcHl0aG9uJywgJy1waCcsICc3LjAnLCAnLXRuJywgJzgnLCAnLW1hJywgJzIwMCcsICctbWV0YWxfYmluZGluZycsICctaW1hZScsICc8aW5maWxlLm1hZT4nLCAnLW9tYWUnLCAnPG91dGZpbGUubWFlPic=

> <r_epik_Ionization_Penalty>
0.0972048

> <r_epik_Ionization_Penalty_Charging>
0.000199653

> <r_epik_Ionization_Penalty_Neutral>
0.0970052

> <r_epik_State_Penalty>
0.0871068

> <r_epik_Charging_Adjusted_Penalty>
0.0873064

> <i_epik_Tot_Q>
0

> <i_epik_Tot_abs_Q>
0

> <r_epik_Metal_State_Penalty>
0.236525

> <b_epik_Metal_Only>
0

> <s_lp_Force_Field>
OPLS_2005

> <r_lp_Energy>
41.4517

> <b_lp_Chiralities_Consistent>
1

> <s_lp_Variant>
AV-unprocessed.smi:516-1

> <Gold.Version>
5.8.1

> <Gold.Id.Protein>
6NUR|6NUR_protein|mol2

> <Gold.PLP.Fitness>
29.1210

> <Gold.PLP.PLP>
-23.3305

> <Gold.PLP.part.hbond>
-2.0000

> <Gold.PLP.part.metal>
0.0000

> <Gold.PLP.part.buried>
-3.3337

> <Gold.PLP.part.nonpolar>
-19.6345

> <Gold.PLP.part.repulsive>
0.6959

> <Gold.PLP.ligand.clash>
0.0000

> <Gold.PLP.ligand.torsion>
0.0731

> <Gold.PLP.Chemscore.Hbond>
1.9750

> <Gold.PLP.Chemscore.CHOScore>
0.0000

> <Gold.PLP.Chemscore.Metal>
0.0000

> <Gold.Chemscore.Hbonds>
donor molecule, donor type, donor heavy atom, donor atom, acceptor molecule, acceptor atom, score
      L1  H    19    24       P1 10957  0.96
      P1  H  7989  7998       L1    11  1.00

> <Gold.PLP.Chemscore.Internal.Correction>
0.0117

> <Gold.Rescore>
     Score         DG    S(hbond)    S(metal)    S(lipo)     H(rot)  DE(clash)    DE(int)     intcor
     11.28     -12.03       1.94        0.00      45.46       2.04       0.66       0.09       ----

> <Gold.Chemscore.Fitness>
11.2837

> <Gold.Chemscore.DG>
-12.0307

> <Gold.Chemscore.ZeroCoef>
-5.4800

> <Gold.Chemscore.Hbond>
1.9353

> <Gold.Chemscore.Metal>
0.0000

> <Gold.Chemscore.Lipo>
45.4578

> <Gold.Chemscore.Internal_Hbond>
0.0000

> <Gold.Chemscore.DEClash>
0.6559

> <Gold.Chemscore.DEInternal>
0.0911

> <Gold.Chemscore.Rot>
2.0437

> <Gold.Chemscore.Internal.Correction>
   9.000000E+99

> <Gold.Chemscore.Hbonds>
donor molecule, donor type, donor heavy atom, donor atom, acceptor molecule, acceptor atom, score
      L1  H    19    24       P1 10957  0.91
      P1  H  7989  7998       L1    11  0.35

> <Gold.Chemscore.Hbond.Weighted>
-6.4640

> <Gold.Chemscore.Metal.Weighted>
-0.0000

> <Gold.Chemscore.Lipo.Weighted>
-5.3186

> <Gold.Chemscore.Internal_Hbond.Weighted>
0.0000

> <Gold.Chemscore.DEClash.Weighted>
0.6559

> <Gold.Chemscore.DEInternal.Weighted>
0.0911

> <Gold.Chemscore.Rot.Weighted>
5.2319

> <Gold.Chemscore.Internal.Correction.Weighted>
   9.000000E+99

> <Gold.Protein.RotatedTorsions>
[ 6907 6896 6895 6894 ] final  115.36 input  -60.11 | X-H torsion
[ 7974 7965 7964 7962 ] final -128.85 input  175.53 | X-H torsion
[ 8008 7997 7996 7995 ] final  -85.17 input   59.86 | X-H torsion
[ 10167 10162 10161 10158 ] final  153.65 input  -65.29 | X-H torsion
[ 10718 10713 10712 10709 ] final   65.73 input   66.30 | X-H torsion
[ 10763 10752 10751 10750 ] final   38.24 input  -60.55 | X-H torsion
[ 11005 11000 10999 10996 ] final  113.07 input  -57.11 | X-H torsion

> <Gold.Protein.ActiveResidues>
 VAL166  LYS551  ARG553  GLY616  TRP617  ASP618  TYR619  PRO620  LYS621  CYS622 
 ASP623  PHE694  ASN695  SER759  ASP760  ASP761  ALA762  ILE779  LEU786  VAL792 
 PHE793  MET794  SER795  GLU796  ALA797  LYS798  CYS799  TRP800  GLU811  SER814 

> <Gold.Protein.RotatedAtoms>
  152.4746  133.8109  159.7002 H   0  0  0  0  0  0  0  0  0  0  0  0  # atno 6907 bound_to 6896
  150.8755  133.7435  159.2954 H   0  0  0  0  0  0  0  0  0  0  0  0  # atno 6908 bound_to 6896
  151.4956  135.1063  159.9867 H   0  0  0  0  0  0  0  0  0  0  0  0  # atno 6909 bound_to 6896
  144.9629  140.7466  143.4718 H   0  0  0  0  0  0  0  0  0  0  0  0  # atno 7974 bound_to 7965
  154.6378  140.0595  156.9810 H   0  0  0  0  0  0  0  0  0  0  0  0  # atno 8008 bound_to 7997
  155.1563  140.3278  155.4402 H   0  0  0  0  0  0  0  0  0  0  0  0  # atno 8009 bound_to 7997
  156.2516  140.1938  156.6673 H   0  0  0  0  0  0  0  0  0  0  0  0  # atno 8010 bound_to 7997
  139.4826  144.5254  151.7808 H   0  0  0  0  0  0  0  0  0  0  0  0  # atno 10167 bound_to 10162
  157.6124  130.9230  150.0015 H   0  0  0  0  0  0  0  0  0  0  0  0  # atno 10718 bound_to 10713
  153.0008  135.6255  154.2273 H   0  0  0  0  0  0  0  0  0  0  0  0  # atno 10763 bound_to 10752
  154.2015  135.2804  155.2991 H   0  0  0  0  0  0  0  0  0  0  0  0  # atno 10764 bound_to 10752
  154.5679  135.5685  153.7127 H   0  0  0  0  0  0  0  0  0  0  0  0  # atno 10765 bound_to 10752
  139.8943  134.9542  156.6682 H   0  0  0  0  0  0  0  0  0  0  0  0  # atno 11005 bound_to 11000
  145.2672  139.1968  143.4860 LP  0  0  0  0  0  0  0  0  0  0  0  0  # atno 17320 bound_to 7965
  146.3359  140.2613  142.8602 LP  0  0  0  0  0  0  0  0  0  0  0  0  # atno 17321 bound_to 7965
  140.4774  144.1500  150.5927 LP  0  0  0  0  0  0  0  0  0  0  0  0  # atno 17342 bound_to 10162
  140.4316  143.2566  151.9588 LP  0  0  0  0  0  0  0  0  0  0  0  0  # atno 17343 bound_to 10162
  156.1232  130.3645  149.9852 LP  0  0  0  0  0  0  0  0  0  0  0  0  # atno 17370 bound_to 10713
  156.7928  130.9262  151.3646 LP  0  0  0  0  0  0  0  0  0  0  0  0  # atno 17371 bound_to 10713
  140.7394  133.8991  155.8267 LP  0  0  0  0  0  0  0  0  0  0  0  0  # atno 17394 bound_to 11000
  141.0090  134.1047  157.4241 LP  0  0  0  0  0  0  0  0  0  0  0  0  # atno 17395 bound_to 11000

$$$$
