AV-unprocessed.smi:161|AV-procd|sdf|1375|dock2
  -GOLD-   2262019 93D 1   1.00000     0.00000
 Structure written by MMmdl.
 52 55  0  0  0  0  0  0  0  0  1 V2000
  146.1763  133.6640  155.2066 C   0  0  0  0  0  0  0  0  0  0  0  0
  147.3157  133.4801  156.2113 C   0  0  0  0  0  0  0  0  0  0  0  0
  147.1824  134.4446  157.2423 O   0  0  0  0  0  0  0  0  0  0  0  0
  147.9916  134.4091  158.3151 C   0  0  0  0  0  0  0  0  0  0  0  0
  148.8962  133.5852  158.4568 O   0  0  0  0  0  0  0  0  0  0  0  0
  147.6439  135.5092  159.2905 C   0  0  2  0  0  0  0  0  0  0  0  0
  148.2392  135.4290  160.7005 C   0  0  0  0  0  0  0  0  0  0  0  0
  147.0544  136.3942  160.8877 C   0  0  2  0  0  0  0  0  0  0  0  0
  146.5586  136.8174  162.2612 C   0  0  0  0  0  0  0  0  0  0  0  0
  146.3013  135.3740  160.0243 C   0  0  0  0  0  0  0  0  0  0  0  0
  147.3030  137.5080  160.0134 O   0  0  0  0  0  0  0  0  0  0  0  0
  147.7718  136.9453  158.7858 C   0  0  0  0  0  0  0  0  0  0  0  0
  146.8107  137.3145  157.6189 C   0  0  0  0  0  0  0  0  0  0  0  0
  146.9804  138.7760  157.1691 C   0  0  0  0  0  0  0  0  0  0  0  0
  148.3905  138.9984  156.8301 N   0  0  0  0  0  0  0  0  0  0  0  0
  148.9308  138.9563  155.5861 C   0  0  0  0  0  0  0  0  0  0  0  0
  148.2388  138.9426  154.5676 O   0  0  0  0  0  0  0  0  0  0  0  0
  150.4048  138.9871  155.4443 C   0  0  0  0  0  0  0  0  0  0  0  0
  151.3336  138.1242  154.9315 C   0  0  0  0  0  0  0  0  0  0  0  0
  152.5964  138.6985  155.0423 N   0  0  0  0  0  0  0  0  0  0  0  0
  152.4847  139.8691  155.5838 N   0  0  0  0  0  0  0  0  0  0  0  0
  151.1688  140.0809  155.8322 N   0  0  0  0  0  0  0  0  0  0  0  0
  150.7714  141.3381  156.4532 C   0  0  0  0  0  0  0  0  0  0  0  0
  151.4151  141.5297  157.8327 C   0  0  0  0  0  0  0  0  0  0  0  0
  149.2221  138.9207  158.0336 C   0  0  0  0  0  0  0  0  0  0  0  0
  149.2182  137.4606  158.5187 C   0  0  0  0  0  0  0  0  0  0  0  0
  146.2582  132.9452  154.3914 H   0  0  0  0  0  0  0  0  0  0  0  0
  146.1923  134.6644  154.7737 H   0  0  0  0  0  0  0  0  0  0  0  0
  145.2069  133.5191  155.6840 H   0  0  0  0  0  0  0  0  0  0  0  0
  147.2802  132.4711  156.6247 H   0  0  0  0  0  0  0  0  0  0  0  0
  148.2814  133.6015  155.7199 H   0  0  0  0  0  0  0  0  0  0  0  0
  148.1637  134.4653  161.2131 H   0  0  0  0  0  0  0  0  0  0  0  0
  149.2235  135.8726  160.8400 H   0  0  0  0  0  0  0  0  0  0  0  0
  146.3779  135.9526  162.9000 H   0  0  0  0  0  0  0  0  0  0  0  0
  145.6251  137.3754  162.1883 H   0  0  0  0  0  0  0  0  0  0  0  0
  147.2869  137.4535  162.7641 H   0  0  0  0  0  0  0  0  0  0  0  0
  145.4212  135.7629  159.5151 H   0  0  0  0  0  0  0  0  0  0  0  0
  146.0902  134.4082  160.4933 H   0  0  0  0  0  0  0  0  0  0  0  0
  147.0029  136.6628  156.7665 H   0  0  0  0  0  0  0  0  0  0  0  0
  145.7693  137.1525  157.8903 H   0  0  0  0  0  0  0  0  0  0  0  0
  146.2908  138.9929  156.3573 H   0  0  0  0  0  0  0  0  0  0  0  0
  146.6889  139.4490  157.9766 H   0  0  0  0  0  0  0  0  0  0  0  0
  151.1975  137.1451  154.4964 H   0  0  0  0  0  0  0  0  0  0  0  0
  151.0565  142.1636  155.7993 H   0  0  0  0  0  0  0  0  0  0  0  0
  149.6849  141.3733  156.5284 H   0  0  0  0  0  0  0  0  0  0  0  0
  151.1549  142.5036  158.2472 H   0  0  0  0  0  0  0  0  0  0  0  0
  152.5022  141.4730  157.7740 H   0  0  0  0  0  0  0  0  0  0  0  0
  151.0767  140.7730  158.5401 H   0  0  0  0  0  0  0  0  0  0  0  0
  150.2443  139.2599  157.8589 H   0  0  0  0  0  0  0  0  0  0  0  0
  148.8236  139.5782  158.8075 H   0  0  0  0  0  0  0  0  0  0  0  0
  149.8442  137.3820  159.4056 H   0  0  0  0  0  0  0  0  0  0  0  0
  149.6990  136.8550  157.7515 H   0  0  0  0  0  0  0  0  0  0  0  0
  1  2  1  0  0  0  0
  1 27  1  0  0  0  0
  1 28  1  0  0  0  0
  1 29  1  0  0  0  0
  2  3  1  0  0  0  0
  2 30  1  0  0  0  0
  2 31  1  0  0  0  0
  3  4  1  0  0  0  0
  4  5  2  0  0  0  0
  4  6  1  0  0  0  0
  6 10  1  0  0  0  0
  6 12  1  0  0  0  0
  6  7  1  0  0  0  0
  7  8  1  0  0  0  0
  7 32  1  0  0  0  0
  7 33  1  0  0  0  0
  8  9  1  0  0  0  0
  8 10  1  0  0  0  0
  8 11  1  0  0  0  0
  9 34  1  0  0  0  0
  9 35  1  0  0  0  0
  9 36  1  0  0  0  0
 10 37  1  0  0  0  0
 10 38  1  0  0  0  0
 11 12  1  0  0  0  0
 12 26  1  0  0  0  0
 12 13  1  0  0  0  0
 13 14  1  0  0  0  0
 13 39  1  0  0  0  0
 13 40  1  0  0  0  0
 14 15  1  0  0  0  0
 14 41  1  0  0  0  0
 14 42  1  0  0  0  0
 15 16  1  0  0  0  0
 15 25  1  0  0  0  0
 16 17  2  0  0  0  0
 16 18  1  0  0  0  0
 18 22  1  0  0  0  0
 18 19  2  0  0  0  0
 19 20  1  0  0  0  0
 19 43  1  0  0  0  0
 20 21  2  0  0  0  0
 21 22  1  0  0  0  0
 22 23  1  0  0  0  0
 23 24  1  0  0  0  0
 23 44  1  0  0  0  0
 23 45  1  0  0  0  0
 24 46  1  0  0  0  0
 24 47  1  0  0  0  0
 24 48  1  0  0  0  0
 25 26  1  0  0  0  0
 25 49  1  0  0  0  0
 25 50  1  0  0  0  0
 26 51  1  0  0  0  0
 26 52  1  0  0  0  0
M  END
> <s_m_source_file>
AV-unprocessed.smi

> <i_m_source_file_index>
161

> <i_lp_mmshare_version>
43012

> <i_f3d_flags>
2

> <s_epik_input>
W0NIM11bQ0gyXU9DKD1PKVtDQEBdMShbQ0gyXVtDQF0oTzIpKFtDSDNdKVtDSDJdMSlDMjNbQ0gyXVtDSDJdTihbQ0gyXVtDSDJdMylDKD1PKWM0W2NIXW5ubjRbQ0gyXVtDSDNd

> <s_epik_cmdline>
J2VwaWtfcHl0aG9uJywgJy1waCcsICc3LjAnLCAnLXRuJywgJzgnLCAnLW1hJywgJzIwMCcsICctbWV0YWxfYmluZGluZycsICctaW1hZScsICc8aW5maWxlLm1hZT4nLCAnLW9tYWUnLCAnPG91dGZpbGUubWFlPic=

> <r_lp_tautomer_probability>
1

> <r_epik_Ionization_Penalty>
1.75517e-07

> <r_epik_Ionization_Penalty_Charging>
0

> <r_epik_Ionization_Penalty_Neutral>
1.75517e-07

> <r_epik_State_Penalty>
-0

> <r_epik_Charging_Adjusted_Penalty>
0

> <i_epik_Tot_Q>
0

> <i_epik_Tot_abs_Q>
0

> <r_epik_Metal_State_Penalty>
-0

> <b_epik_Metal_Only>
0

> <s_epik_Chemistry_Notes>
This compound has an ester and may undergo hydrolysis at high or low pH.

> <s_lp_Force_Field>
OPLS_2005

> <r_lp_Energy>
59.4881

> <b_lp_Chiralities_Consistent>
0

> <s_lp_Variant>
AV-unprocessed.smi:161-1

> <Gold.Version>
5.8.1

> <Gold.Id.Protein>
6NUR|6NUR_protein|mol2

> <Gold.PLP.Fitness>
35.8279

> <Gold.PLP.PLP>
-29.4298

> <Gold.PLP.part.hbond>
-4.2486

> <Gold.PLP.part.metal>
0.0000

> <Gold.PLP.part.buried>
-4.3766

> <Gold.PLP.part.nonpolar>
-21.1122

> <Gold.PLP.part.repulsive>
0.1533

> <Gold.PLP.ligand.clash>
0.0000

> <Gold.PLP.ligand.torsion>
1.5081

> <Gold.PLP.Chemscore.Hbond>
2.8640

> <Gold.PLP.Chemscore.CHOScore>
0.0000

> <Gold.PLP.Chemscore.Metal>
0.0000

> <Gold.Chemscore.Hbonds>
donor molecule, donor type, donor heavy atom, donor atom, acceptor molecule, acceptor atom, score
      P1  H  6896  6908       L1     5  1.00
      P1  H  6934  6947       L1    11  0.98
      P1  H  7997  8008       L1    21  0.90

> <Gold.PLP.Chemscore.Internal.Correction>
0.8222

> <Gold.Rescore>
     Score         DG    S(hbond)    S(metal)    S(lipo)     H(rot)  DE(clash)    DE(int)     intcor
     15.24     -17.29       2.39        0.00      64.91       1.47       0.17       1.88       ----

> <Gold.Chemscore.Fitness>
15.2447

> <Gold.Chemscore.DG>
-17.2900

> <Gold.Chemscore.ZeroCoef>
-5.4800

> <Gold.Chemscore.Hbond>
2.3853

> <Gold.Chemscore.Metal>
0.0000

> <Gold.Chemscore.Lipo>
64.9075

> <Gold.Chemscore.Internal_Hbond>
0.0000

> <Gold.Chemscore.DEClash>
0.1688

> <Gold.Chemscore.DEInternal>
1.8766

> <Gold.Chemscore.Rot>
1.4652

> <Gold.Chemscore.Internal.Correction>
   9.000000E+99

> <Gold.Chemscore.Hbonds>
donor molecule, donor type, donor heavy atom, donor atom, acceptor molecule, acceptor atom, score
      P1  H  6896  6908       L1     5  0.92
      P1  H  6934  6947       L1    11  0.73
      P1  H  7997  8008       L1    21  0.17

> <Gold.Chemscore.Hbond.Weighted>
-7.9669

> <Gold.Chemscore.Metal.Weighted>
-0.0000

> <Gold.Chemscore.Lipo.Weighted>
-7.5942

> <Gold.Chemscore.Internal_Hbond.Weighted>
0.0000

> <Gold.Chemscore.DEClash.Weighted>
0.1688

> <Gold.Chemscore.DEInternal.Weighted>
1.8766

> <Gold.Chemscore.Rot.Weighted>
3.7510

> <Gold.Chemscore.Internal.Correction.Weighted>
   9.000000E+99

> <Gold.Protein.RotatedTorsions>
[ 6907 6896 6895 6894 ] final  137.64 input  -60.11 | X-H torsion
[ 7974 7965 7964 7962 ] final  -91.08 input  175.53 | X-H torsion
[ 8008 7997 7996 7995 ] final  -19.31 input   59.86 | X-H torsion
[ 10167 10162 10161 10158 ] final  -51.54 input  -65.29 | X-H torsion
[ 10718 10713 10712 10709 ] final  163.36 input   66.30 | X-H torsion
[ 10763 10752 10751 10750 ] final -173.90 input  -60.55 | X-H torsion
[ 11005 11000 10999 10996 ] final   62.49 input  -57.11 | X-H torsion

> <Gold.Protein.ActiveResidues>
 VAL166  LYS551  ARG553  GLY616  TRP617  ASP618  TYR619  PRO620  LYS621  CYS622 
 ASP623  PHE694  ASN695  SER759  ASP760  ASP761  ALA762  ILE779  LEU786  VAL792 
 PHE793  MET794  SER795  GLU796  ALA797  LYS798  CYS799  TRP800  GLU811  SER814 

> <Gold.Protein.RotatedAtoms>
  152.2758  133.5424  159.5466 H   0  0  0  0  0  0  0  0  0  0  0  0  # atno 6907 bound_to 6896
  150.7176  134.0634  159.3848 H   0  0  0  0  0  0  0  0  0  0  0  0  # atno 6908 bound_to 6896
  151.8547  135.0545  160.0513 H   0  0  0  0  0  0  0  0  0  0  0  0  # atno 6909 bound_to 6896
  145.4179  140.9549  143.2197 H   0  0  0  0  0  0  0  0  0  0  0  0  # atno 7974 bound_to 7965
  154.4846  140.2092  155.9686 H   0  0  0  0  0  0  0  0  0  0  0  0  # atno 8008 bound_to 7997
  156.1216  140.3212  155.8186 H   0  0  0  0  0  0  0  0  0  0  0  0  # atno 8009 bound_to 7997
  155.4457  140.0513  157.2997 H   0  0  0  0  0  0  0  0  0  0  0  0  # atno 8010 bound_to 7997
  140.6583  143.2616  151.4519 H   0  0  0  0  0  0  0  0  0  0  0  0  # atno 10167 bound_to 10162
  157.1096  131.0464  151.2463 H   0  0  0  0  0  0  0  0  0  0  0  0  # atno 10718 bound_to 10713
  154.6025  135.2856  155.0520 H   0  0  0  0  0  0  0  0  0  0  0  0  # atno 10763 bound_to 10752
  154.1779  135.6461  153.5030 H   0  0  0  0  0  0  0  0  0  0  0  0  # atno 10764 bound_to 10752
  153.0162  135.5416  154.6749 H   0  0  0  0  0  0  0  0  0  0  0  0  # atno 10765 bound_to 10752
  140.0088  134.6327  155.9812 H   0  0  0  0  0  0  0  0  0  0  0  0  # atno 11005 bound_to 11000
  144.8265  139.5701  143.6963 LP  0  0  0  0  0  0  0  0  0  0  0  0  # atno 17320 bound_to 7965
  146.2671  139.6547  142.9321 LP  0  0  0  0  0  0  0  0  0  0  0  0  # atno 17321 bound_to 7965
  139.5810  144.1709  152.1968 LP  0  0  0  0  0  0  0  0  0  0  0  0  # atno 17342 bound_to 10162
  140.1034  144.5519  150.6973 LP  0  0  0  0  0  0  0  0  0  0  0  0  # atno 17343 bound_to 10162
  157.4570  130.7631  149.7202 LP  0  0  0  0  0  0  0  0  0  0  0  0  # atno 17370 bound_to 10713
  155.9853  130.3984  150.3266 LP  0  0  0  0  0  0  0  0  0  0  0  0  # atno 17371 bound_to 10713
  141.1696  133.6537  156.4605 LP  0  0  0  0  0  0  0  0  0  0  0  0  # atno 17394 bound_to 11000
  140.4591  134.6858  157.5077 LP  0  0  0  0  0  0  0  0  0  0  0  0  # atno 17395 bound_to 11000

$$$$
