AV-unprocessed.smi:3170|AV-procd|sdf|12110|dock4
  -GOLD-   2272017553D 1   1.00000     0.00000
 Structure written by MMmdl.
 35 36  0  0  0  0  0  0  0  0  1 V2000
  146.1173  138.5796  154.3058 O   0  0  0  0  0  0  0  0  0  0  0  0
  146.8715  137.7874  153.7409 C   0  0  0  0  0  0  0  0  0  0  0  0
  146.4626  136.6709  153.1228 N   0  0  0  0  0  0  0  0  0  0  0  0
  145.0745  136.2318  153.0150 C   0  0  0  0  0  0  0  0  0  0  0  0
  144.6433  135.9842  151.5567 C   0  0  0  0  0  0  0  0  0  0  0  0
  145.0257  134.6666  151.0852 N   0  0  0  0  0  0  0  0  0  0  0  0
  146.2950  134.1048  151.1053 C   0  0  0  0  0  0  0  0  0  0  0  0
  146.1774  132.8488  150.5541 C   0  0  0  0  0  0  0  0  0  0  0  0
  144.8530  132.6188  150.1891 N   0  0  0  0  0  0  0  0  0  0  0  0
  144.2306  133.7377  150.5365 C   0  0  0  0  0  0  0  0  0  0  0  0
  148.1992  137.9412  153.6641 N   0  0  0  0  0  0  0  0  0  0  0  0
  148.9298  139.0662  154.2328 C   0  0  0  0  0  0  0  0  0  0  0  0
  150.4451  138.8085  154.2095 C   0  0  1  0  0  0  0  0  0  0  0  0
  151.2185  139.5928  155.2492 C   0  0  0  0  0  0  0  0  0  0  0  0
  152.5305  138.8173  155.3176 C   0  0  0  0  0  0  0  0  0  0  0  0
  152.1970  137.4618  155.0310 O   0  0  0  0  0  0  0  0  0  0  0  0
  150.8559  137.3767  154.5578 C   0  0  0  0  0  0  0  0  0  0  0  0
  147.1596  136.0855  152.6863 H   0  0  0  0  0  0  0  0  0  0  0  0
  144.9576  135.3180  153.5984 H   0  0  0  0  0  0  0  0  0  0  0  0
  144.4219  136.9750  153.4754 H   0  0  0  0  0  0  0  0  0  0  0  0
  143.5598  136.0742  151.4721 H   0  0  0  0  0  0  0  0  0  0  0  0
  145.0686  136.7355  150.8900 H   0  0  0  0  0  0  0  0  0  0  0  0
  147.1527  134.6307  151.4981 H   0  0  0  0  0  0  0  0  0  0  0  0
  146.9379  132.0991  150.3925 H   0  0  0  0  0  0  0  0  0  0  0  0
  143.1720  133.8882  150.3825 H   0  0  0  0  0  0  0  0  0  0  0  0
  148.7385  137.2401  153.1776 H   0  0  0  0  0  0  0  0  0  0  0  0
  148.6966  139.9644  153.6593 H   0  0  0  0  0  0  0  0  0  0  0  0
  148.5950  139.2446  155.2561 H   0  0  0  0  0  0  0  0  0  0  0  0
  150.8421  139.0580  153.2238 H   0  0  0  0  0  0  0  0  0  0  0  0
  151.3581  140.6404  154.9810 H   0  0  0  0  0  0  0  0  0  0  0  0
  150.7111  139.5512  156.2141 H   0  0  0  0  0  0  0  0  0  0  0  0
  153.2227  139.1723  154.5532 H   0  0  0  0  0  0  0  0  0  0  0  0
  153.0196  138.9118  156.2873 H   0  0  0  0  0  0  0  0  0  0  0  0
  150.2334  136.9798  155.3609 H   0  0  0  0  0  0  0  0  0  0  0  0
  150.7781  136.7007  153.7060 H   0  0  0  0  0  0  0  0  0  0  0  0
  1  2  2  0  0  0  0
  2  3  1  0  0  0  0
  2 11  1  0  0  0  0
  3  4  1  0  0  0  0
  3 18  1  0  0  0  0
  4  5  1  0  0  0  0
  4 19  1  0  0  0  0
  4 20  1  0  0  0  0
  5  6  1  0  0  0  0
  5 21  1  0  0  0  0
  5 22  1  0  0  0  0
  6 10  1  0  0  0  0
  6  7  1  0  0  0  0
  7  8  2  0  0  0  0
  7 23  1  0  0  0  0
  8  9  1  0  0  0  0
  8 24  1  0  0  0  0
  9 10  2  0  0  0  0
 10 25  1  0  0  0  0
 11 12  1  0  0  0  0
 11 26  1  0  0  0  0
 12 13  1  0  0  0  0
 12 27  1  0  0  0  0
 12 28  1  0  0  0  0
 13 17  1  0  0  0  0
 13 14  1  0  0  0  0
 13 29  1  0  0  0  0
 14 15  1  0  0  0  0
 14 30  1  0  0  0  0
 14 31  1  0  0  0  0
 15 16  1  0  0  0  0
 15 32  1  0  0  0  0
 15 33  1  0  0  0  0
 16 17  1  0  0  0  0
 17 34  1  0  0  0  0
 17 35  1  0  0  0  0
M  END
> <s_m_source_file>
AV-unprocessed.smi

> <i_m_source_file_index>
3170

> <i_lp_mmshare_version>
43012

> <i_f3d_flags>
0

> <s_epik_input>
W0NIMl0xT1tDSDJdW0NIMl1bQ0BIXTFbQ0gyXVtOSF1DKD1PKVtOSF1bQ0gyXVtDSDJdbjJbY0hdW2NIXW5bY0hdMg==

> <s_epik_cmdline>
J2VwaWtfcHl0aG9uJywgJy1waCcsICc3LjAnLCAnLXRuJywgJzgnLCAnLW1hJywgJzIwMCcsICctbWV0YWxfYmluZGluZycsICctaW1hZScsICc8aW5maWxlLm1hZT4nLCAnLW9tYWUnLCAnPG91dGZpbGUubWFlPic=

> <r_lp_tautomer_probability>
1

> <r_epik_Ionization_Penalty>
0.621287

> <r_epik_Ionization_Penalty_Charging>
0.621234

> <r_epik_Ionization_Penalty_Neutral>
5.30999e-05

> <r_epik_State_Penalty>
0.637278

> <r_epik_Charging_Adjusted_Penalty>
1.25851

> <i_epik_Tot_Q>
0

> <i_epik_Tot_abs_Q>
0

> <r_epik_Metal_State_Penalty>
0.306756

> <b_epik_Metal_Only>
0

> <s_lp_Force_Field>
OPLS_2005

> <r_lp_Energy>
18.1747

> <b_lp_Chiralities_Consistent>
1

> <s_lp_Variant>
AV-unprocessed.smi:3170-4

> <Gold.Version>
5.8.1

> <Gold.Id.Protein>
6NUR|6NUR_protein|mol2

> <Gold.PLP.Fitness>
46.2031

> <Gold.PLP.PLP>
-30.3628

> <Gold.PLP.part.hbond>
-3.0000

> <Gold.PLP.part.metal>
0.0000

> <Gold.PLP.part.buried>
-4.1557

> <Gold.PLP.part.nonpolar>
-24.3396

> <Gold.PLP.part.repulsive>
0.3467

> <Gold.PLP.ligand.clash>
0.0000

> <Gold.PLP.ligand.torsion>
0.4515

> <Gold.PLP.Chemscore.Hbond>
2.5680

> <Gold.PLP.Chemscore.CHOScore>
3.0000

> <Gold.PLP.Chemscore.Metal>
0.0000

> <Gold.Chemscore.Hbonds>
donor molecule, donor type, donor heavy atom, donor atom, acceptor molecule, acceptor atom, score
      L1  H     3    18       P1  7948  0.82
      L1  H    11    26       P1  7948  1.00
      P1  H 10752 10765       L1    16  0.73
      L1  C     7    23       P1  7948  1.00
      L1  C     8    24       P1 10747  1.00
      L1  C    10    25       P1 10186  1.00

> <Gold.PLP.Chemscore.Internal.Correction>
0.0392

> <Gold.Rescore>
     Score         DG    S(hbond)    S(metal)    S(lipo)     H(rot)  DE(clash)    DE(int)     intcor
     14.04     -14.91       2.61        0.00      55.30       2.25       0.12       0.75       ----

> <Gold.Chemscore.Fitness>
14.0435

> <Gold.Chemscore.DG>
-14.9096

> <Gold.Chemscore.ZeroCoef>
-5.4800

> <Gold.Chemscore.Hbond>
2.6085

> <Gold.Chemscore.Metal>
0.0000

> <Gold.Chemscore.Lipo>
55.3030

> <Gold.Chemscore.Internal_Hbond>
0.0000

> <Gold.Chemscore.DEClash>
0.1151

> <Gold.Chemscore.DEInternal>
0.7511

> <Gold.Chemscore.Rot>
2.2474

> <Gold.Chemscore.Internal.Correction>
   9.000000E+99

> <Gold.Chemscore.Hbonds>
donor molecule, donor type, donor heavy atom, donor atom, acceptor molecule, acceptor atom, score
      L1  H     3    18       P1  7948  0.78
      L1  H    11    26       P1  7948  0.95
      P1  H 10752 10765       L1    16  0.31

> <Gold.Chemscore.Hbond.Weighted>
-8.7124

> <Gold.Chemscore.Metal.Weighted>
-0.0000

> <Gold.Chemscore.Lipo.Weighted>
-6.4705

> <Gold.Chemscore.Internal_Hbond.Weighted>
0.0000

> <Gold.Chemscore.DEClash.Weighted>
0.1151

> <Gold.Chemscore.DEInternal.Weighted>
0.7511

> <Gold.Chemscore.Rot.Weighted>
5.7532

> <Gold.Chemscore.Internal.Correction.Weighted>
   9.000000E+99

> <Gold.Protein.RotatedTorsions>
[ 6907 6896 6895 6894 ] final  -96.76 input  -60.11 | X-H torsion
[ 7974 7965 7964 7962 ] final   50.06 input  175.53 | X-H torsion
[ 8008 7997 7996 7995 ] final   43.01 input   59.86 | X-H torsion
[ 10167 10162 10161 10158 ] final  122.68 input  -65.29 | X-H torsion
[ 10718 10713 10712 10709 ] final   76.67 input   66.30 | X-H torsion
[ 10763 10752 10751 10750 ] final -179.15 input  -60.55 | X-H torsion
[ 11005 11000 10999 10996 ] final   42.68 input  -57.11 | X-H torsion

> <Gold.Protein.ActiveResidues>
 VAL166  LYS551  ARG553  GLY616  TRP617  ASP618  TYR619  PRO620  LYS621  CYS622 
 ASP623  PHE694  ASN695  SER759  ASP760  ASP761  ALA762  ILE779  LEU786  VAL792 
 PHE793  MET794  SER795  GLU796  ALA797  LYS798  CYS799  TRP800  GLU811  SER814 

> <Gold.Protein.RotatedAtoms>
  150.6997  134.1454  159.4120 H   0  0  0  0  0  0  0  0  0  0  0  0  # atno 6907 bound_to 6896
  151.9437  135.0199  160.0547 H   0  0  0  0  0  0  0  0  0  0  0  0  # atno 6908 bound_to 6896
  152.2071  133.4848  159.5126 H   0  0  0  0  0  0  0  0  0  0  0  0  # atno 6909 bound_to 6896
  146.0049  139.4479  142.9992 H   0  0  0  0  0  0  0  0  0  0  0  0  # atno 7974 bound_to 7965
  155.2956  140.3381  155.4250 H   0  0  0  0  0  0  0  0  0  0  0  0  # atno 8008 bound_to 7997
  156.2025  140.1738  156.7908 H   0  0  0  0  0  0  0  0  0  0  0  0  # atno 8009 bound_to 7997
  154.5578  140.0693  156.8755 H   0  0  0  0  0  0  0  0  0  0  0  0  # atno 8010 bound_to 7997
  139.5844  144.7000  151.3445 H   0  0  0  0  0  0  0  0  0  0  0  0  # atno 10167 bound_to 10162
  157.6682  130.9785  150.1530 H   0  0  0  0  0  0  0  0  0  0  0  0  # atno 10718 bound_to 10713
  154.5388  135.2804  155.1115 H   0  0  0  0  0  0  0  0  0  0  0  0  # atno 10763 bound_to 10752
  154.2606  135.6322  153.5277 H   0  0  0  0  0  0  0  0  0  0  0  0  # atno 10764 bound_to 10752
  152.9974  135.5604  154.5921 H   0  0  0  0  0  0  0  0  0  0  0  0  # atno 10765 bound_to 10752
  140.1716  134.4215  155.8254 H   0  0  0  0  0  0  0  0  0  0  0  0  # atno 11005 bound_to 11000
  145.7431  141.0001  143.1290 LP  0  0  0  0  0  0  0  0  0  0  0  0  # atno 17320 bound_to 7965
  144.6932  139.9123  143.7464 LP  0  0  0  0  0  0  0  0  0  0  0  0  # atno 17321 bound_to 7965
  140.7118  143.7370  150.7581 LP  0  0  0  0  0  0  0  0  0  0  0  0  # atno 17342 bound_to 10162
  140.0911  143.4877  152.2478 LP  0  0  0  0  0  0  0  0  0  0  0  0  # atno 17343 bound_to 10162
  156.2325  130.3683  149.8429 LP  0  0  0  0  0  0  0  0  0  0  0  0  # atno 17370 bound_to 10713
  156.6252  130.8643  151.3484 LP  0  0  0  0  0  0  0  0  0  0  0  0  # atno 17371 bound_to 10713
  141.2218  133.6959  156.7773 LP  0  0  0  0  0  0  0  0  0  0  0  0  # atno 17394 bound_to 11000
  140.2371  134.8642  157.3535 LP  0  0  0  0  0  0  0  0  0  0  0  0  # atno 17395 bound_to 11000

$$$$
