AV-unprocessed.smi:103|AV-procd|sdf|991|dock4
  -GOLD-   2262017573D 1   1.00000     0.00000
 Structure written by MMmdl.
 53 55  0  0  0  0  0  0  0  0  1 V2000
  149.5559  140.4405  157.2836 C   0  0  0  0  0  0  0  0  0  0  0  0
  149.4638  139.1533  158.0919 C   0  0  0  0  0  0  0  0  0  0  0  0
  150.0794  139.0130  159.1491 O   0  0  0  0  0  0  0  0  0  0  0  0
  148.6563  138.2466  157.5197 O   0  0  0  0  0  0  0  0  0  0  0  0
  147.9441  137.3246  158.3292 C   0  0  0  0  0  0  0  0  0  0  0  0
  148.9450  136.4686  159.1249 C   0  0  2  0  0  0  0  0  0  0  0  0
  149.8066  135.8190  158.1862 O   0  0  0  0  0  0  0  0  0  0  0  0
  149.6613  134.4333  158.2552 C   0  0  2  0  0  0  0  0  0  0  0  0
  149.7377  133.8469  156.8761 N   0  0  0  0  0  0  0  0  0  0  0  0
  150.5961  132.8805  156.3920 C   0  0  0  0  0  0  0  0  0  0  0  0
  151.9405  132.1125  157.2865 S   0  0  0  0  0  0  0  0  0  0  0  0
  151.0387  130.9378  158.3753 C   0  0  0  0  0  0  0  0  0  0  0  0
  152.7376  131.3519  156.3123 O   0  0  0  0  0  0  0  0  0  0  0  0
  152.5648  133.1618  158.1074 O   0  0  0  0  0  0  0  0  0  0  0  0
  150.4862  132.5760  155.1277 N   0  0  0  0  0  0  0  0  0  0  0  0
  149.4070  133.3431  154.7139 C   0  0  0  0  0  0  0  0  0  0  0  0
  148.7171  133.4875  153.4839 C   0  0  0  0  0  0  0  0  0  0  0  0
  149.0496  132.8114  152.3755 N   0  0  0  0  0  0  0  0  0  0  0  0
  147.6719  134.3452  153.4246 N   0  0  0  0  0  0  0  0  0  0  0  0
  147.3209  135.0312  154.5164 C   0  0  0  0  0  0  0  0  0  0  0  0
  147.8735  135.0042  155.7314 N   0  0  0  0  0  0  0  0  0  0  0  0
  148.9271  134.1383  155.7942 C   0  0  0  0  0  0  0  0  0  0  0  0
  148.3272  134.1548  158.9591 C   0  0  2  0  0  0  0  0  0  0  0  0
  147.2303  134.2014  158.0469 O   0  0  0  0  0  0  0  0  0  0  0  0
  145.9835  133.8997  158.4504 C   0  0  0  0  0  0  0  0  0  0  0  0
  144.9857  133.9236  157.3011 C   0  0  0  0  0  0  0  0  0  0  0  0
  145.6409  133.6078  159.5960 O   0  0  0  0  0  0  0  0  0  0  0  0
  148.3024  135.3223  159.9266 C   0  0  2  0  0  0  0  0  0  0  0  0
  146.9900  135.5743  160.4173 O   0  0  0  0  0  0  0  0  0  0  0  0
  146.7686  136.5944  161.2629 C   0  0  0  0  0  0  0  0  0  0  0  0
  145.3746  136.5490  161.8741 C   0  0  0  0  0  0  0  0  0  0  0  0
  147.5640  137.4924  161.5389 O   0  0  0  0  0  0  0  0  0  0  0  0
  148.5614  140.7766  156.9892 H   0  0  0  0  0  0  0  0  0  0  0  0
  150.1488  140.2794  156.3831 H   0  0  0  0  0  0  0  0  0  0  0  0
  150.0259  141.2290  157.8721 H   0  0  0  0  0  0  0  0  0  0  0  0
  147.3027  137.8909  159.0049 H   0  0  0  0  0  0  0  0  0  0  0  0
  147.2959  136.6879  157.7271 H   0  0  0  0  0  0  0  0  0  0  0  0
  149.5265  137.1068  159.7910 H   0  0  0  0  0  0  0  0  0  0  0  0
  150.5189  134.0307  158.7931 H   0  0  0  0  0  0  0  0  0  0  0  0
  151.7533  130.3908  158.9895 H   0  0  0  0  0  0  0  0  0  0  0  0
  150.4707  130.2361  157.7650 H   0  0  0  0  0  0  0  0  0  0  0  0
  150.3560  131.4921  159.0193 H   0  0  0  0  0  0  0  0  0  0  0  0
  149.8244  132.1638  152.3950 H   0  0  0  0  0  0  0  0  0  0  0  0
  148.5236  132.9485  151.5246 H   0  0  0  0  0  0  0  0  0  0  0  0
  146.4785  135.6975  154.4013 H   0  0  0  0  0  0  0  0  0  0  0  0
  148.3702  133.2049  159.4925 H   0  0  0  0  0  0  0  0  0  0  0  0
  145.3282  133.2790  156.4909 H   0  0  0  0  0  0  0  0  0  0  0  0
  144.8762  134.9377  156.9162 H   0  0  0  0  0  0  0  0  0  0  0  0
  144.0091  133.5710  157.6337 H   0  0  0  0  0  0  0  0  0  0  0  0
  148.9649  135.0659  160.7555 H   0  0  0  0  0  0  0  0  0  0  0  0
  145.1550  135.5491  162.2490 H   0  0  0  0  0  0  0  0  0  0  0  0
  144.6266  136.8117  161.1259 H   0  0  0  0  0  0  0  0  0  0  0  0
  145.2973  137.2525  162.7033 H   0  0  0  0  0  0  0  0  0  0  0  0
  1  2  1  0  0  0  0
  1 33  1  0  0  0  0
  1 34  1  0  0  0  0
  1 35  1  0  0  0  0
  2  3  2  0  0  0  0
  2  4  1  0  0  0  0
  4  5  1  0  0  0  0
  5  6  1  0  0  0  0
  5 36  1  0  0  0  0
  5 37  1  0  0  0  0
  6 28  1  0  0  0  0
  6  7  1  0  0  0  0
  6 38  1  0  0  0  0
  7  8  1  0  0  0  0
  8  9  1  0  0  0  0
  8 23  1  0  0  0  0
  8 39  1  0  0  0  0
  9 22  1  0  0  0  0
  9 10  1  0  0  0  0
 10 11  1  0  0  0  0
 10 15  2  0  0  0  0
 11 12  1  0  0  0  0
 11 13  2  0  0  0  0
 11 14  2  0  0  0  0
 12 40  1  0  0  0  0
 12 41  1  0  0  0  0
 12 42  1  0  0  0  0
 15 16  1  0  0  0  0
 16 22  2  0  0  0  0
 16 17  1  0  0  0  0
 17 18  1  0  0  0  0
 17 19  2  0  0  0  0
 18 43  1  0  0  0  0
 18 44  1  0  0  0  0
 19 20  1  0  0  0  0
 20 21  2  0  0  0  0
 20 45  1  0  0  0  0
 21 22  1  0  0  0  0
 23 24  1  0  0  0  0
 23 28  1  0  0  0  0
 23 46  1  0  0  0  0
 24 25  1  0  0  0  0
 25 26  1  0  0  0  0
 25 27  2  0  0  0  0
 26 47  1  0  0  0  0
 26 48  1  0  0  0  0
 26 49  1  0  0  0  0
 28 29  1  0  0  0  0
 28 50  1  0  0  0  0
 29 30  1  0  0  0  0
 30 31  1  0  0  0  0
 30 32  2  0  0  0  0
 31 51  1  0  0  0  0
 31 52  1  0  0  0  0
 31 53  1  0  0  0  0
M  END
> <s_m_source_file>
AV-unprocessed.smi

> <i_m_source_file_index>
103

> <i_lp_mmshare_version>
43012

> <i_f3d_flags>
0

> <s_epik_input>
W0NIM11DKD1PKU9bQ0gyXVtDQEBIXTFPW0NASF0oW0NAQEhdKE9DKD1PKVtDSDNdKVtDQEhdMU9DKD1PKVtDSDNdKW4oYyhuMilTKD1PKSg9TylbQ0gzXSljKGMyMyluW2NIXW5jM1tOSDJd

> <s_epik_cmdline>
J2VwaWtfcHl0aG9uJywgJy1waCcsICc3LjAnLCAnLXRuJywgJzgnLCAnLW1hJywgJzIwMCcsICctbWV0YWxfYmluZGluZycsICctaW1hZScsICc8aW5maWxlLm1hZT4nLCAnLW9tYWUnLCAnPG91dGZpbGUubWFlPic=

> <r_lp_tautomer_probability>
1

> <r_epik_Ionization_Penalty>
1.51338e-05

> <r_epik_Ionization_Penalty_Charging>
0

> <r_epik_Ionization_Penalty_Neutral>
1.51338e-05

> <r_epik_State_Penalty>
-0

> <r_epik_Charging_Adjusted_Penalty>
0

> <i_epik_Tot_Q>
0

> <i_epik_Tot_abs_Q>
0

> <r_epik_Metal_State_Penalty>
-0

> <b_epik_Metal_Only>
0

> <s_epik_Chemistry_Notes>
This compound has an ester and may undergo hydrolysis at high or low pH. This compound contains an acetal/aminal-like group ( X-CH(R)-Y where X, Y are N, S, or O) that may be acid/base labile, releasing an aldehyde.

> <s_lp_Force_Field>
OPLS_2005

> <r_lp_Energy>
16.3317

> <b_lp_Chiralities_Consistent>
1

> <s_lp_Variant>
AV-unprocessed.smi:103-15

> <Gold.Version>
5.8.1

> <Gold.Id.Protein>
6NUR|6NUR_protein|mol2

> <Gold.PLP.Fitness>
34.6762

> <Gold.PLP.PLP>
-25.6928

> <Gold.PLP.part.hbond>
-5.0710

> <Gold.PLP.part.metal>
0.0000

> <Gold.PLP.part.buried>
-4.0778

> <Gold.PLP.part.nonpolar>
-16.8942

> <Gold.PLP.part.repulsive>
0.4685

> <Gold.PLP.ligand.clash>
0.0000

> <Gold.PLP.ligand.torsion>
1.5990

> <Gold.PLP.Chemscore.Hbond>
3.2480

> <Gold.PLP.Chemscore.CHOScore>
0.0000

> <Gold.PLP.Chemscore.Metal>
0.0000

> <Gold.Chemscore.Hbonds>
donor molecule, donor type, donor heavy atom, donor atom, acceptor molecule, acceptor atom, score
      P1  H  6896  6909       L1    14  0.50
      P1  H  6931  6943       L1    32  0.80
      P1  H  6934  6947       L1    32  0.75

> <Gold.PLP.Chemscore.Internal.Correction>
2.4374

> <Gold.Rescore>
     Score         DG    S(hbond)    S(metal)    S(lipo)     H(rot)  DE(clash)    DE(int)     intcor
     -3.21      -6.72       2.69        0.00      26.77       4.25       0.00       9.93       ----

> <Gold.Chemscore.Fitness>
-3.2132

> <Gold.Chemscore.DG>
-6.7166

> <Gold.Chemscore.ZeroCoef>
-5.4800

> <Gold.Chemscore.Hbond>
2.6864

> <Gold.Chemscore.Metal>
0.0000

> <Gold.Chemscore.Lipo>
26.7741

> <Gold.Chemscore.Internal_Hbond>
0.0000

> <Gold.Chemscore.DEClash>
0.0015

> <Gold.Chemscore.DEInternal>
9.9282

> <Gold.Chemscore.Rot>
4.2456

> <Gold.Chemscore.Internal.Correction>
   9.000000E+99

> <Gold.Chemscore.Hbonds>
donor molecule, donor type, donor heavy atom, donor atom, acceptor molecule, acceptor atom, score
      P1  H  6896  6909       L1    14  0.38
      P1  H  6931  6943       L1    32  0.80
      P1  H  6934  6947       L1    32  0.71

> <Gold.Chemscore.Hbond.Weighted>
-8.9727

> <Gold.Chemscore.Metal.Weighted>
-0.0000

> <Gold.Chemscore.Lipo.Weighted>
-3.1326

> <Gold.Chemscore.Internal_Hbond.Weighted>
0.0000

> <Gold.Chemscore.DEClash.Weighted>
0.0015

> <Gold.Chemscore.DEInternal.Weighted>
9.9282

> <Gold.Chemscore.Rot.Weighted>
10.8687

> <Gold.Chemscore.Internal.Correction.Weighted>
   9.000000E+99

> <Gold.Protein.RotatedTorsions>
[ 6907 6896 6895 6894 ] final  -70.06 input  -60.11 | X-H torsion
[ 7974 7965 7964 7962 ] final   58.05 input  175.53 | X-H torsion
[ 8008 7997 7996 7995 ] final    5.87 input   59.86 | X-H torsion
[ 10167 10162 10161 10158 ] final   15.63 input  -65.29 | X-H torsion
[ 10718 10713 10712 10709 ] final  151.28 input   66.30 | X-H torsion
[ 10763 10752 10751 10750 ] final  161.57 input  -60.55 | X-H torsion
[ 11005 11000 10999 10996 ] final   85.59 input  -57.11 | X-H torsion

> <Gold.Protein.ActiveResidues>
 VAL166  LYS551  ARG553  GLY616  TRP617  ASP618  TYR619  PRO620  LYS621  CYS622 
 ASP623  PHE694  ASN695  SER759  ASP760  ASP761  ALA762  ILE779  LEU786  VAL792 
 PHE793  MET794  SER795  GLU796  ALA797  LYS798  CYS799  TRP800  GLU811  SER814 

> <Gold.Protein.RotatedAtoms>
  150.7276  134.5508  159.5793 H   0  0  0  0  0  0  0  0  0  0  0  0  # atno 6907 bound_to 6896
  152.2996  134.7624  160.0370 H   0  0  0  0  0  0  0  0  0  0  0  0  # atno 6908 bound_to 6896
  151.8209  133.3359  159.3620 H   0  0  0  0  0  0  0  0  0  0  0  0  # atno 6909 bound_to 6896
  145.9224  139.3740  143.0470 H   0  0  0  0  0  0  0  0  0  0  0  0  # atno 7974 bound_to 7965
  154.7339  140.2736  155.6432 H   0  0  0  0  0  0  0  0  0  0  0  0  # atno 8008 bound_to 7997
  156.2856  140.2710  156.1972 H   0  0  0  0  0  0  0  0  0  0  0  0  # atno 8009 bound_to 7997
  155.0346  140.0371  157.2477 H   0  0  0  0  0  0  0  0  0  0  0  0  # atno 8010 bound_to 7997
  140.5853  143.8901  150.6825 H   0  0  0  0  0  0  0  0  0  0  0  0  # atno 10167 bound_to 10162
  157.2727  131.0820  151.1588 H   0  0  0  0  0  0  0  0  0  0  0  0  # atno 10718 bound_to 10713
  154.2649  135.2767  155.2762 H   0  0  0  0  0  0  0  0  0  0  0  0  # atno 10763 bound_to 10752
  154.5351  135.5718  153.6795 H   0  0  0  0  0  0  0  0  0  0  0  0  # atno 10764 bound_to 10752
  152.9955  135.6237  154.2802 H   0  0  0  0  0  0  0  0  0  0  0  0  # atno 10765 bound_to 10752
  139.8967  134.8297  156.2604 H   0  0  0  0  0  0  0  0  0  0  0  0  # atno 11005 bound_to 11000
  145.8532  140.9517  143.0738 LP  0  0  0  0  0  0  0  0  0  0  0  0  # atno 17320 bound_to 7965
  144.6754  140.0434  143.7480 LP  0  0  0  0  0  0  0  0  0  0  0  0  # atno 17321 bound_to 7965
  140.2410  143.3663  152.1486 LP  0  0  0  0  0  0  0  0  0  0  0  0  # atno 17342 bound_to 10162
  139.5194  144.7019  151.5468 LP  0  0  0  0  0  0  0  0  0  0  0  0  # atno 17343 bound_to 10162
  157.3054  130.6863  149.6186 LP  0  0  0  0  0  0  0  0  0  0  0  0  # atno 17370 bound_to 10713
  155.9663  130.4379  150.5197 LP  0  0  0  0  0  0  0  0  0  0  0  0  # atno 17371 bound_to 10713
  141.0166  133.7065  156.1199 LP  0  0  0  0  0  0  0  0  0  0  0  0  # atno 17394 bound_to 11000
  140.7292  134.4273  157.5567 LP  0  0  0  0  0  0  0  0  0  0  0  0  # atno 17395 bound_to 11000

$$$$
