AV-unprocessed.smi:2047|AV-procd|sdf|8320|dock10
  -GOLD-   2272010583D 1   1.00000     0.00000
 Structure written by MMmdl.
 42 44  0  0  0  0  0  0  0  0  3 V2000
  153.3829  143.4685  164.0166 O   0  0  0  0  0  0  0  0  0  0  0  0
  154.2091  142.5542  163.9159 C   0  0  0  0  0  0  0  0  0  0  0  0
  154.3086  141.8574  162.7713 N   0  0  0  0  0  0  0  0  0  0  0  0
  153.5672  142.0251  161.5691 C   0  0  0  0  0  0  0  0  0  0  0  0
  152.8008  143.1890  161.3123 C   0  0  0  0  0  0  0  0  0  0  0  0
  152.1113  143.3139  160.0898 C   0  0  0  0  0  0  0  0  0  0  0  0
  152.2078  142.2788  159.1409 C   0  0  0  0  0  0  0  0  0  0  0  0
  152.9596  141.1906  159.4102 N   0  3  0  0  0  0  0  0  0  0  0  0
  153.6416  141.0224  160.5702 C   0  0  0  0  0  0  0  0  0  0  0  0
  154.3963  139.8514  160.7554 N   0  0  0  0  0  0  0  0  0  0  0  0
  153.6429  138.6095  160.7129 C   0  0  0  0  0  0  0  0  0  0  0  0
  154.6890  137.5037  160.5489 C   0  0  0  0  0  0  0  0  0  0  0  0
  155.9247  138.2105  159.9775 C   0  0  0  0  0  0  0  0  0  0  0  0
  155.5112  139.6780  159.8405 C   0  0  0  0  0  0  0  0  0  0  0  0
  155.0788  142.1104  164.8623 N   0  5  0  0  0  0  0  0  0  0  0  0
  155.3944  142.8161  166.1078 C   0  0  1  0  0  0  0  0  0  0  0  0
  155.0170  141.9582  167.3317 C   0  0  0  0  0  0  0  0  0  0  0  0
  155.6689  142.5694  168.5800 C   0  0  0  0  0  0  0  0  0  0  0  0
  157.2476  143.3064  168.0057 S   0  0  0  0  0  0  0  0  0  0  0  0
  157.2732  144.7304  168.3756 O   0  0  0  0  0  0  0  0  0  0  0  0
  158.3637  142.4166  168.3624 O   0  0  0  0  0  0  0  0  0  0  0  0
  156.8947  143.1369  166.2116 C   0  0  0  0  0  0  0  0  0  0  0  0
  154.9198  141.0546  162.8042 H   0  0  0  0  0  0  0  0  0  0  0  0
  152.7445  143.9922  162.0316 H   0  0  0  0  0  0  0  0  0  0  0  0
  151.5217  144.1948  159.8827 H   0  0  0  0  0  0  0  0  0  0  0  0
  151.7153  142.2904  158.1795 H   0  0  0  0  0  0  0  0  0  0  0  0
  153.0559  138.4755  161.6219 H   0  0  0  0  0  0  0  0  0  0  0  0
  152.9569  138.6046  159.8646 H   0  0  0  0  0  0  0  0  0  0  0  0
  154.9285  137.0619  161.5169 H   0  0  0  0  0  0  0  0  0  0  0  0
  154.3295  136.7051  159.8994 H   0  0  0  0  0  0  0  0  0  0  0  0
  156.7599  138.1158  160.6727 H   0  0  0  0  0  0  0  0  0  0  0  0
  156.2391  137.7908  159.0215 H   0  0  0  0  0  0  0  0  0  0  0  0
  155.2016  139.8873  158.8156 H   0  0  0  0  0  0  0  0  0  0  0  0
  156.3318  140.3515  160.0898 H   0  0  0  0  0  0  0  0  0  0  0  0
  154.8441  143.7547  166.1906 H   0  0  0  0  0  0  0  0  0  0  0  0
  153.9363  141.8729  167.4491 H   0  0  0  0  0  0  0  0  0  0  0  0
  155.4034  140.9462  167.1990 H   0  0  0  0  0  0  0  0  0  0  0  0
  155.0529  143.3663  168.9998 H   0  0  0  0  0  0  0  0  0  0  0  0
  155.8598  141.8328  169.3603 H   0  0  0  0  0  0  0  0  0  0  0  0
  157.5047  142.3177  165.8294 H   0  0  0  0  0  0  0  0  0  0  0  0
  157.1697  144.0513  165.6861 H   0  0  0  0  0  0  0  0  0  0  0  0
  153.0173  140.4566  158.7045 H   0  0  0  0  0  0  0  0  0  0  0  0
  1  2  2  0  0  0  0
  2  3  1  0  0  0  0
  2 15  1  0  0  0  0
  3  4  1  0  0  0  0
  3 23  1  0  0  0  0
  4  9  1  0  0  0  0
  4  5  2  0  0  0  0
  5  6  1  0  0  0  0
  5 24  1  0  0  0  0
  6  7  2  0  0  0  0
  6 25  1  0  0  0  0
  7  8  1  0  0  0  0
  7 26  1  0  0  0  0
  8  9  2  0  0  0  0
  8 42  1  0  0  0  0
  9 10  1  0  0  0  0
 10 14  1  0  0  0  0
 10 11  1  0  0  0  0
 11 12  1  0  0  0  0
 11 27  1  0  0  0  0
 11 28  1  0  0  0  0
 12 13  1  0  0  0  0
 12 29  1  0  0  0  0
 12 30  1  0  0  0  0
 13 14  1  0  0  0  0
 13 31  1  0  0  0  0
 13 32  1  0  0  0  0
 14 33  1  0  0  0  0
 14 34  1  0  0  0  0
 15 16  1  0  0  0  0
 16 22  1  0  0  0  0
 16 17  1  0  0  0  0
 16 35  1  0  0  0  0
 17 18  1  0  0  0  0
 17 36  1  0  0  0  0
 17 37  1  0  0  0  0
 18 19  1  0  0  0  0
 18 38  1  0  0  0  0
 18 39  1  0  0  0  0
 19 20  2  0  0  0  0
 19 21  2  0  0  0  0
 19 22  1  0  0  0  0
 22 40  1  0  0  0  0
 22 41  1  0  0  0  0
M  CHG  1   8   1
M  CHG  1  15  -1
M  END
> <s_m_source_file>
AV-unprocessed.smi

> <i_m_source_file_index>
2047

> <i_lp_mmshare_version>
43012

> <i_f3d_flags>
0

> <s_epik_input>
Tz1TMSg9TylbQ0gyXVtDSDJdW0NASF0oW0NIMl0xKVtOSF1DKD1PKVtOSF1jMltjSF1bY0hdW2NIXW5jMk4zW0NIMl1bQ0gyXVtDSDJdW0NIMl0z

> <s_epik_cmdline>
J2VwaWtfcHl0aG9uJywgJy1waCcsICc3LjAnLCAnLXRuJywgJzgnLCAnLW1hJywgJzIwMCcsICctbWV0YWxfYmluZGluZycsICctaW1hZScsICc8aW5maWxlLm1hZT4nLCAnLW9tYWUnLCAnPG91dGZpbGUubWFlPic=

> <r_lp_tautomer_probability>
0.999994

> <r_epik_Ionization_Penalty>
8.27033

> <r_epik_Ionization_Penalty_Charging>
8.27033

> <r_epik_Ionization_Penalty_Neutral>
3.23223e-06

> <r_epik_State_Penalty>
7.90314

> <r_epik_Charging_Adjusted_Penalty>
16.1735

> <i_epik_Tot_Q>
0

> <i_epik_Tot_abs_Q>
2

> <r_epik_Metal_State_Penalty>
3.89381

> <b_epik_Metal_Only>
1

> <s_lp_Force_Field>
OPLS_2005

> <r_lp_Energy>
40.3449

> <b_lp_Chiralities_Consistent>
1

> <s_lp_Variant>
AV-unprocessed.smi:2047-6

> <Gold.Version>
5.8.1

> <Gold.Id.Protein>
6NUR|6NUR_protein|mol2

> <Gold.PLP.Fitness>
37.7788

> <Gold.PLP.PLP>
-37.9159

> <Gold.PLP.part.hbond>
-2.6406

> <Gold.PLP.part.metal>
0.0000

> <Gold.PLP.part.buried>
-5.4767

> <Gold.PLP.part.nonpolar>
-28.9513

> <Gold.PLP.part.repulsive>
0.3046

> <Gold.PLP.ligand.clash>
0.0000

> <Gold.PLP.ligand.torsion>
0.0953

> <Gold.PLP.Chemscore.Hbond>
0.0000

> <Gold.PLP.Chemscore.CHOScore>
0.0000

> <Gold.PLP.Chemscore.Metal>
0.0000

> <Gold.PLP.Chemscore.Internal.Correction>
0.0535

> <Gold.Rescore>
     Score         DG    S(hbond)    S(metal)    S(lipo)     H(rot)  DE(clash)    DE(int)     intcor
      9.57     -12.78       0.00        0.00      89.73       1.25       1.37       1.84       ----

> <Gold.Chemscore.Fitness>
9.5732

> <Gold.Chemscore.DG>
-12.7838

> <Gold.Chemscore.ZeroCoef>
-5.4800

> <Gold.Chemscore.Hbond>
0.0000

> <Gold.Chemscore.Metal>
0.0000

> <Gold.Chemscore.Lipo>
89.7321

> <Gold.Chemscore.Internal_Hbond>
0.0000

> <Gold.Chemscore.DEClash>
1.3742

> <Gold.Chemscore.DEInternal>
1.8364

> <Gold.Chemscore.Rot>
1.2480

> <Gold.Chemscore.Internal.Correction>
   9.000000E+99

> <Gold.Chemscore.Hbond.Weighted>
-0.0000

> <Gold.Chemscore.Metal.Weighted>
-0.0000

> <Gold.Chemscore.Lipo.Weighted>
-10.4987

> <Gold.Chemscore.Internal_Hbond.Weighted>
0.0000

> <Gold.Chemscore.DEClash.Weighted>
1.3742

> <Gold.Chemscore.DEInternal.Weighted>
1.8364

> <Gold.Chemscore.Rot.Weighted>
3.1948

> <Gold.Chemscore.Internal.Correction.Weighted>
   9.000000E+99

> <Gold.Protein.RotatedTorsions>
[ 6907 6896 6895 6894 ] final  179.93 input  -60.11 | X-H torsion
[ 7974 7965 7964 7962 ] final  -23.23 input  175.53 | X-H torsion
[ 8008 7997 7996 7995 ] final  -88.64 input   59.86 | X-H torsion
[ 10167 10162 10161 10158 ] final  166.11 input  -65.29 | X-H torsion
[ 10718 10713 10712 10709 ] final   71.36 input   66.30 | X-H torsion
[ 10763 10752 10751 10750 ] final -104.56 input  -60.55 | X-H torsion
[ 11005 11000 10999 10996 ] final   89.22 input  -57.11 | X-H torsion

> <Gold.Protein.ActiveResidues>
 VAL166  LYS551  ARG553  GLY616  TRP617  ASP618  TYR619  PRO620  LYS621  CYS622 
 ASP623  PHE694  ASN695  SER759  ASP760  ASP761  ALA762  ILE779  LEU786  VAL792 
 PHE793  MET794  SER795  GLU796  ALA797  LYS798  CYS799  TRP800  GLU811  SER814 

> <Gold.Protein.RotatedAtoms>
  151.6637  133.3316  159.3179 H   0  0  0  0  0  0  0  0  0  0  0  0  # atno 6907 bound_to 6896
  150.7901  134.6921  159.6512 H   0  0  0  0  0  0  0  0  0  0  0  0  # atno 6908 bound_to 6896
  152.3979  134.6339  160.0134 H   0  0  0  0  0  0  0  0  0  0  0  0  # atno 6909 bound_to 6896
  146.1628  140.4588  142.8564 H   0  0  0  0  0  0  0  0  0  0  0  0  # atno 7974 bound_to 7965
  154.6772  140.0551  157.0228 H   0  0  0  0  0  0  0  0  0  0  0  0  # atno 8008 bound_to 7997
  155.1004  140.3228  155.4530 H   0  0  0  0  0  0  0  0  0  0  0  0  # atno 8009 bound_to 7997
  156.2680  140.2032  156.6130 H   0  0  0  0  0  0  0  0  0  0  0  0  # atno 8010 bound_to 7997
  139.4918  144.4062  151.9353 H   0  0  0  0  0  0  0  0  0  0  0  0  # atno 10167 bound_to 10162
  157.6448  130.9524  150.0779 H   0  0  0  0  0  0  0  0  0  0  0  0  # atno 10718 bound_to 10713
  154.7887  135.4781  154.0003 H   0  0  0  0  0  0  0  0  0  0  0  0  # atno 10763 bound_to 10752
  153.1598  135.6806  153.8766 H   0  0  0  0  0  0  0  0  0  0  0  0  # atno 10764 bound_to 10752
  153.8383  135.3182  155.3402 H   0  0  0  0  0  0  0  0  0  0  0  0  # atno 10765 bound_to 10752
  139.8880  134.8538  156.3112 H   0  0  0  0  0  0  0  0  0  0  0  0  # atno 11005 bound_to 11000
  144.8051  140.6284  143.6452 LP  0  0  0  0  0  0  0  0  0  0  0  0  # atno 17320 bound_to 7965
  145.4544  139.1520  143.3901 LP  0  0  0  0  0  0  0  0  0  0  0  0  # atno 17321 bound_to 7965
  140.3502  144.3098  150.5950 LP  0  0  0  0  0  0  0  0  0  0  0  0  # atno 17342 bound_to 10162
  140.5492  143.2209  151.7956 LP  0  0  0  0  0  0  0  0  0  0  0  0  # atno 17343 bound_to 10162
  156.1764  130.3648  149.9095 LP  0  0  0  0  0  0  0  0  0  0  0  0  # atno 17370 bound_to 10713
  156.7058  130.8951  151.3604 LP  0  0  0  0  0  0  0  0  0  0  0  0  # atno 17371 bound_to 10713
  140.9849  133.7244  156.0727 LP  0  0  0  0  0  0  0  0  0  0  0  0  # atno 17394 bound_to 11000
  140.7701  134.3842  157.5509 LP  0  0  0  0  0  0  0  0  0  0  0  0  # atno 17395 bound_to 11000

$$$$
