AV-unprocessed.smi:62|AV-procd|sdf|604|dock4
  -GOLD-   2262016493D 1   1.00000     0.00000
 Structure written by MMmdl.
 31 32  0  0  0  0  0  0  0  0  3 V2000
  151.9648  145.2920  159.2232 C   0  0  0  0  0  0  0  0  0  0  0  0
  151.8519  143.9560  158.6786 N   0  0  0  0  0  0  0  0  0  0  0  0
  151.0162  143.4981  157.6872 C   0  0  0  0  0  0  0  0  0  0  0  0
  151.2617  142.1645  157.5040 C   0  0  0  0  0  0  0  0  0  0  0  0
  150.5618  141.2871  156.4896 C   0  0  0  0  0  0  0  0  0  0  0  0
  149.2729  141.8844  156.0675 N   0  3  2  0  0  0  0  0  0  0  0  0
  148.1776  141.7619  157.0581 C   0  0  0  0  0  0  0  0  0  0  0  0
  146.8876  141.5049  156.2647 C   0  0  0  0  0  0  0  0  0  0  0  0
  147.2645  141.7975  154.8131 C   0  0  2  0  0  0  0  0  0  0  0  0
  146.4879  141.0473  153.9032 O   0  0  0  0  0  0  0  0  0  0  0  0
  148.7422  141.4215  154.7692 C   0  0  0  0  0  0  0  0  0  0  0  0
  152.2896  141.8920  158.4730 C   0  0  0  0  0  0  0  0  0  0  0  0
  152.8982  140.5284  158.6676 C   0  0  0  0  0  0  0  0  0  0  0  0
  152.9044  139.7022  157.7302 O   0  0  0  0  0  0  0  0  0  0  0  0
  153.3871  140.2628  159.7874 O   0  5  0  0  0  0  0  0  0  0  0  0
  152.6344  142.9738  159.1590 N   0  0  0  0  0  0  0  0  0  0  0  0
  151.4594  146.0052  158.5714 H   0  0  0  0  0  0  0  0  0  0  0  0
  153.0151  145.5731  159.3079 H   0  0  0  0  0  0  0  0  0  0  0  0
  151.5046  145.3248  160.2111 H   0  0  0  0  0  0  0  0  0  0  0  0
  150.3193  144.1565  157.1899 H   0  0  0  0  0  0  0  0  0  0  0  0
  151.1713  141.0474  155.6202 H   0  0  0  0  0  0  0  0  0  0  0  0
  150.3401  140.3215  156.9459 H   0  0  0  0  0  0  0  0  0  0  0  0
  148.3574  140.9447  157.7585 H   0  0  0  0  0  0  0  0  0  0  0  0
  148.1144  142.6855  157.6339 H   0  0  0  0  0  0  0  0  0  0  0  0
  146.6035  140.4570  156.3760 H   0  0  0  0  0  0  0  0  0  0  0  0
  146.0504  142.1122  156.6100 H   0  0  0  0  0  0  0  0  0  0  0  0
  147.1463  142.8619  154.6053 H   0  0  0  0  0  0  0  0  0  0  0  0
  147.0685  140.5646  153.3341 H   0  0  0  0  0  0  0  0  0  0  0  0
  149.2700  141.8681  153.9256 H   0  0  0  0  0  0  0  0  0  0  0  0
  148.8396  140.3374  154.7017 H   0  0  0  0  0  0  0  0  0  0  0  0
  149.4324  142.8759  155.9619 H   0  0  0  0  0  0  0  0  0  0  0  0
  1  2  1  0  0  0  0
  1 17  1  0  0  0  0
  1 18  1  0  0  0  0
  1 19  1  0  0  0  0
  2 16  1  0  0  0  0
  2  3  1  0  0  0  0
  3  4  2  0  0  0  0
  3 20  1  0  0  0  0
  4  5  1  0  0  0  0
  4 12  1  0  0  0  0
  5  6  1  0  0  0  0
  5 21  1  0  0  0  0
  5 22  1  0  0  0  0
  6 11  1  0  0  0  0
  6  7  1  0  0  0  0
  6 31  1  0  0  0  0
  7  8  1  0  0  0  0
  7 23  1  0  0  0  0
  7 24  1  0  0  0  0
  8  9  1  0  0  0  0
  8 25  1  0  0  0  0
  8 26  1  0  0  0  0
  9 10  1  0  0  0  0
  9 11  1  0  0  0  0
  9 27  1  0  0  0  0
 10 28  1  0  0  0  0
 11 29  1  0  0  0  0
 11 30  1  0  0  0  0
 12 13  1  0  0  0  0
 12 16  2  0  0  0  0
 13 14  2  0  0  0  0
 13 15  1  0  0  0  0
M  CHG  1   6   1
M  CHG  1  15  -1
M  END
> <s_m_source_file>
AV-unprocessed.smi

> <i_m_source_file_index>
62

> <i_lp_mmshare_version>
43012

> <i_f3d_flags>
0

> <s_epik_input>
W0NIM11uMVtjSF1jKGMobjEpQyg9TylbT0hdKVtDSDJdTjJbQ0gyXVtDSDJdW0NAQEhdKFtPSF0pW0NIMl0y

> <s_epik_cmdline>
J2VwaWtfcHl0aG9uJywgJy1waCcsICc3LjAnLCAnLXRuJywgJzgnLCAnLW1hJywgJzIwMCcsICctbWV0YWxfYmluZGluZycsICctaW1hZScsICc8aW5maWxlLm1hZT4nLCAnLW9tYWUnLCAnPG91dGZpbGUubWFlPic=

> <r_epik_Ionization_Penalty>
0.0522993

> <r_epik_Ionization_Penalty_Charging>
0.0522915

> <r_epik_Ionization_Penalty_Neutral>
7.84975e-06

> <r_epik_State_Penalty>
0.0448084

> <r_epik_Charging_Adjusted_Penalty>
0.0970998

> <i_epik_Tot_Q>
0

> <i_epik_Tot_abs_Q>
2

> <r_epik_Metal_State_Penalty>
0.0448097

> <b_epik_Metal_Only>
0

> <s_lp_Force_Field>
OPLS_2005

> <r_lp_Energy>
19.3538

> <b_lp_Chiralities_Consistent>
1

> <s_lp_Variant>
AV-unprocessed.smi:62-4

> <Gold.Version>
5.8.1

> <Gold.Id.Protein>
6NUR|6NUR_protein|mol2

> <Gold.PLP.Fitness>
44.4339

> <Gold.PLP.PLP>
-30.9472

> <Gold.PLP.part.hbond>
-2.3963

> <Gold.PLP.part.metal>
0.0000

> <Gold.PLP.part.buried>
-3.5258

> <Gold.PLP.part.nonpolar>
-25.3012

> <Gold.PLP.part.repulsive>
0.1009

> <Gold.PLP.ligand.clash>
0.0000

> <Gold.PLP.ligand.torsion>
0.7378

> <Gold.PLP.Chemscore.Hbond>
3.9840

> <Gold.PLP.Chemscore.CHOScore>
1.0000

> <Gold.PLP.Chemscore.Metal>
0.0000

> <Gold.Chemscore.Hbonds>
donor molecule, donor type, donor heavy atom, donor atom, acceptor molecule, acceptor atom, score
      L1  H     6    31       P1  8028  2.00
      P1  H  7997  8008       L1    14  2.00
      L1  C     3    20       P1  8028  1.00

> <Gold.PLP.Chemscore.Internal.Correction>
0.0102

> <Gold.Rescore>
     Score         DG    S(hbond)    S(metal)    S(lipo)     H(rot)  DE(clash)    DE(int)     intcor
     14.22     -14.85       1.94        0.00      64.21       1.81       0.01       0.62       ----

> <Gold.Chemscore.Fitness>
14.2193

> <Gold.Chemscore.DG>
-14.8471

> <Gold.Chemscore.ZeroCoef>
-5.4800

> <Gold.Chemscore.Hbond>
1.9417

> <Gold.Chemscore.Metal>
0.0000

> <Gold.Chemscore.Lipo>
64.2142

> <Gold.Chemscore.Internal_Hbond>
0.0000

> <Gold.Chemscore.DEClash>
0.0060

> <Gold.Chemscore.DEInternal>
0.6218

> <Gold.Chemscore.Rot>
1.8091

> <Gold.Chemscore.Internal.Correction>
   9.000000E+99

> <Gold.Chemscore.Hbonds>
donor molecule, donor type, donor heavy atom, donor atom, acceptor molecule, acceptor atom, score
      L1  H     6    31       P1  8028  0.97
      P1  H  7997  8008       L1    14  0.35

> <Gold.Chemscore.Hbond.Weighted>
-6.4854

> <Gold.Chemscore.Metal.Weighted>
-0.0000

> <Gold.Chemscore.Lipo.Weighted>
-7.5131

> <Gold.Chemscore.Internal_Hbond.Weighted>
0.0000

> <Gold.Chemscore.DEClash.Weighted>
0.0060

> <Gold.Chemscore.DEInternal.Weighted>
0.6218

> <Gold.Chemscore.Rot.Weighted>
4.6314

> <Gold.Chemscore.Internal.Correction.Weighted>
   9.000000E+99

> <Gold.Protein.RotatedTorsions>
[ 6907 6896 6895 6894 ] final -125.52 input  -60.11 | X-H torsion
[ 7974 7965 7964 7962 ] final  -73.24 input  175.53 | X-H torsion
[ 8008 7997 7996 7995 ] final  -78.23 input   59.86 | X-H torsion
[ 10167 10162 10161 10158 ] final    0.65 input  -65.29 | X-H torsion
[ 10718 10713 10712 10709 ] final  113.06 input   66.30 | X-H torsion
[ 10763 10752 10751 10750 ] final    1.39 input  -60.55 | X-H torsion
[ 11005 11000 10999 10996 ] final  157.28 input  -57.11 | X-H torsion

> <Gold.Protein.ActiveResidues>
 VAL166  LYS551  ARG553  GLY616  TRP617  ASP618  TYR619  PRO620  LYS621  CYS622 
 ASP623  PHE694  ASN695  SER759  ASP760  ASP761  ALA762  ILE779  LEU786  VAL792 
 PHE793  MET794  SER795  GLU796  ALA797  LYS798  CYS799  TRP800  GLU811  SER814 

> <Gold.Protein.RotatedAtoms>
  150.8876  133.7286  159.2913 H   0  0  0  0  0  0  0  0  0  0  0  0  # atno 6907 bound_to 6896
  151.4847  135.1053  159.9797 H   0  0  0  0  0  0  0  0  0  0  0  0  # atno 6908 bound_to 6896
  152.4800  133.8184  159.7096 H   0  0  0  0  0  0  0  0  0  0  0  0  # atno 6909 bound_to 6896
  145.6548  140.9271  143.0965 H   0  0  0  0  0  0  0  0  0  0  0  0  # atno 7974 bound_to 7965
  154.5670  140.0697  156.8907 H   0  0  0  0  0  0  0  0  0  0  0  0  # atno 8008 bound_to 7997
  155.2704  140.3365  155.4247 H   0  0  0  0  0  0  0  0  0  0  0  0  # atno 8009 bound_to 7997
  156.2088  140.1751  156.7726 H   0  0  0  0  0  0  0  0  0  0  0  0  # atno 8010 bound_to 7997
  140.6719  143.7025  150.7941 H   0  0  0  0  0  0  0  0  0  0  0  0  # atno 10167 bound_to 10162
  157.6359  131.0977  150.6985 H   0  0  0  0  0  0  0  0  0  0  0  0  # atno 10718 bound_to 10713
  153.3086  135.6961  153.7137 H   0  0  0  0  0  0  0  0  0  0  0  0  # atno 10763 bound_to 10752
  153.6023  135.3460  155.2950 H   0  0  0  0  0  0  0  0  0  0  0  0  # atno 10764 bound_to 10752
  154.8569  135.4343  154.2217 H   0  0  0  0  0  0  0  0  0  0  0  0  # atno 10765 bound_to 10752
  140.1754  134.8513  157.2740 H   0  0  0  0  0  0  0  0  0  0  0  0  # atno 11005 bound_to 11000
  144.7110  139.8373  143.7414 LP  0  0  0  0  0  0  0  0  0  0  0  0  # atno 17320 bound_to 7965
  146.1174  139.4187  143.0250 LP  0  0  0  0  0  0  0  0  0  0  0  0  # atno 17321 bound_to 7965
  140.0711  143.5060  152.2579 LP  0  0  0  0  0  0  0  0  0  0  0  0  # atno 17342 bound_to 10162
  139.5992  144.7577  151.3213 LP  0  0  0  0  0  0  0  0  0  0  0  0  # atno 17343 bound_to 10162
  156.7317  130.4712  149.5498 LP  0  0  0  0  0  0  0  0  0  0  0  0  # atno 17370 bound_to 10713
  156.1598  130.6366  151.0704 LP  0  0  0  0  0  0  0  0  0  0  0  0  # atno 17371 bound_to 10713
  140.2328  134.3888  155.7514 LP  0  0  0  0  0  0  0  0  0  0  0  0  # atno 17394 bound_to 11000
  141.2220  133.7224  156.8668 LP  0  0  0  0  0  0  0  0  0  0  0  0  # atno 17395 bound_to 11000

$$$$
