AV-unprocessed.smi:47|AV-procd|sdf|432|dock1
  -GOLD-   2262016303D 1   1.00000     0.00000
 Structure written by MMmdl.
 32 34  0  0  0  0  0  0  0  0  2 V2000
  148.4123  141.1404  152.7354 O   0  0  0  0  0  0  0  0  0  0  0  0
  147.9989  140.9345  154.0695 C   0  0  2  0  0  0  0  0  0  0  0  0
  147.2819  142.1593  154.6488 C   0  0  0  0  0  0  0  0  0  0  0  0
  147.5537  142.1455  156.1003 N   0  3  0  0  0  0  0  0  0  0  0  0
  148.5742  141.1105  156.3706 C   0  0  2  0  0  0  0  0  0  0  0  0
  149.5299  141.7362  157.3422 C   0  0  0  0  0  0  0  0  0  0  0  0
  149.5580  143.0570  157.5481 N   0  0  0  0  0  0  0  0  0  0  0  0
  150.4949  143.3495  158.4753 N   0  0  0  0  0  0  0  0  0  0  0  0
  150.9691  142.1400  158.7691 C   0  0  0  0  0  0  0  0  0  0  0  0
  152.0437  141.9444  159.7702 C   0  0  0  0  0  0  0  0  0  0  0  0
  152.1074  142.7434  160.9380 C   0  0  0  0  0  0  0  0  0  0  0  0
  153.1272  142.5611  161.8922 C   0  0  0  0  0  0  0  0  0  0  0  0
  154.1068  141.5719  161.6957 C   0  0  0  0  0  0  0  0  0  0  0  0
  154.0625  140.7682  160.5430 C   0  0  0  0  0  0  0  0  0  0  0  0
  153.0410  140.9545  159.5916 C   0  0  0  0  0  0  0  0  0  0  0  0
  150.4123  141.0858  158.0991 N   0  0  0  0  0  0  0  0  0  0  0  0
  149.1812  140.7432  155.0144 C   0  0  0  0  0  0  0  0  0  0  0  0
  147.3434  140.0635  154.1186 H   0  0  0  0  0  0  0  0  0  0  0  0
  148.0836  140.2452  156.8192 H   0  0  0  0  0  0  0  0  0  0  0  0
  148.9487  140.4097  152.4663 H   0  0  0  0  0  0  0  0  0  0  0  0
  147.7017  143.0806  154.2421 H   0  0  0  0  0  0  0  0  0  0  0  0
  146.2120  142.1557  154.4381 H   0  0  0  0  0  0  0  0  0  0  0  0
  147.9145  143.0489  156.3744 H   0  0  0  0  0  0  0  0  0  0  0  0
  151.3700  143.5122  161.1160 H   0  0  0  0  0  0  0  0  0  0  0  0
  153.1569  143.1822  162.7755 H   0  0  0  0  0  0  0  0  0  0  0  0
  154.8898  141.4303  162.4263 H   0  0  0  0  0  0  0  0  0  0  0  0
  154.8128  140.0071  160.3872 H   0  0  0  0  0  0  0  0  0  0  0  0
  153.0331  140.3219  158.7163 H   0  0  0  0  0  0  0  0  0  0  0  0
  149.6058  139.7392  154.9913 H   0  0  0  0  0  0  0  0  0  0  0  0
  149.9720  141.4495  154.7542 H   0  0  0  0  0  0  0  0  0  0  0  0
  146.7126  141.9415  156.6203 H   0  0  0  0  0  0  0  0  0  0  0  0
  148.9858  143.7616  157.1047 H   0  0  0  0  0  0  0  0  0  0  0  0
  1  2  1  0  0  0  0
  1 20  1  0  0  0  0
  2 18  1  0  0  0  0
  2 17  1  0  0  0  0
  2  3  1  0  0  0  0
  3  4  1  0  0  0  0
  3 21  1  0  0  0  0
  3 22  1  0  0  0  0
  4  5  1  0  0  0  0
  4 23  1  0  0  0  0
  4 31  1  0  0  0  0
  5 19  1  0  0  0  0
  5  6  1  0  0  0  0
  5 17  1  0  0  0  0
  6 16  2  0  0  0  0
  6  7  1  0  0  0  0
  7  8  1  0  0  0  0
  7 32  1  0  0  0  0
  8  9  2  0  0  0  0
  9 10  1  0  0  0  0
  9 16  1  0  0  0  0
 10 15  1  0  0  0  0
 10 11  2  0  0  0  0
 11 12  1  0  0  0  0
 11 24  1  0  0  0  0
 12 13  2  0  0  0  0
 12 25  1  0  0  0  0
 13 14  1  0  0  0  0
 13 26  1  0  0  0  0
 14 15  2  0  0  0  0
 14 27  1  0  0  0  0
 15 28  1  0  0  0  0
 17 29  1  0  0  0  0
 17 30  1  0  0  0  0
M  CHG  1   4   1
M  END
> <s_m_source_file>
AV-unprocessed.smi

> <i_m_source_file_index>
47

> <i_lp_mmshare_version>
43012

> <i_f3d_flags>
0

> <s_epik_input>
W09IXVtDQEhdMVtDSDJdW05IXVtDQEBIXShbQ0gyXTEpYzJuW25IXWMobjIpLWMzW2NIXVtjSF1bY0hdW2NIXVtjSF0z

> <s_epik_cmdline>
J2VwaWtfcHl0aG9uJywgJy1waCcsICc3LjAnLCAnLXRuJywgJzgnLCAnLW1hJywgJzIwMCcsICctbWV0YWxfYmluZGluZycsICctaW1hZScsICc8aW5maWxlLm1hZT4nLCAnLW9tYWUnLCAnPG91dGZpbGUubWFlPic=

> <r_epik_Ionization_Penalty>
1.14296

> <r_epik_Ionization_Penalty_Charging>
0.0688988

> <r_epik_Ionization_Penalty_Neutral>
1.07406

> <r_epik_State_Penalty>
1.72347

> <r_epik_Charging_Adjusted_Penalty>
1.79237

> <i_epik_Tot_Q>
1

> <i_epik_Tot_abs_Q>
1

> <r_epik_Metal_State_Penalty>
2.22085

> <b_epik_Metal_Only>
0

> <s_lp_Force_Field>
OPLS_2005

> <r_lp_Energy>
30.6831

> <b_lp_Chiralities_Consistent>
1

> <s_lp_Variant>
AV-unprocessed.smi:47-10

> <Gold.Version>
5.8.1

> <Gold.Id.Protein>
6NUR|6NUR_protein|mol2

> <Gold.PLP.Fitness>
41.6360

> <Gold.PLP.PLP>
-30.4273

> <Gold.PLP.part.hbond>
-2.3365

> <Gold.PLP.part.metal>
0.0000

> <Gold.PLP.part.buried>
-0.2129

> <Gold.PLP.part.nonpolar>
-27.0628

> <Gold.PLP.part.repulsive>
0.2153

> <Gold.PLP.ligand.clash>
0.0000

> <Gold.PLP.ligand.torsion>
1.0206

> <Gold.PLP.Chemscore.Hbond>
4.4122

> <Gold.PLP.Chemscore.CHOScore>
0.0000

> <Gold.PLP.Chemscore.Metal>
0.0000

> <Gold.Chemscore.Hbonds>
donor molecule, donor type, donor heavy atom, donor atom, acceptor molecule, acceptor atom, score
      L1  H     1    20       P1  7957  0.60
      L1  H     4    23       P1  8028  1.68
      L1  H     7    32       P1  8028  0.86
      P1  H  8011  8017       L1     1  0.61

> <Gold.PLP.Chemscore.Internal.Correction>
0.0132

> <Gold.Rescore>
     Score         DG    S(hbond)    S(metal)    S(lipo)     H(rot)  DE(clash)    DE(int)     intcor
     18.93     -20.19       2.54        0.00      85.85       1.50       0.22       1.04       ----

> <Gold.Chemscore.Fitness>
18.9251

> <Gold.Chemscore.DG>
-20.1907

> <Gold.Chemscore.ZeroCoef>
-5.4800

> <Gold.Chemscore.Hbond>
2.5440

> <Gold.Chemscore.Metal>
0.0000

> <Gold.Chemscore.Lipo>
85.8543

> <Gold.Chemscore.Internal_Hbond>
0.0000

> <Gold.Chemscore.DEClash>
0.2232

> <Gold.Chemscore.DEInternal>
1.0424

> <Gold.Chemscore.Rot>
1.4966

> <Gold.Chemscore.Internal.Correction>
   9.000000E+99

> <Gold.Chemscore.Hbonds>
donor molecule, donor type, donor heavy atom, donor atom, acceptor molecule, acceptor atom, score
      L1  H     1    20       P1  7957  0.58
      L1  H     4    23       P1  8028  0.20
      L1  H     7    32       P1  8028  0.25
      P1  H  8011  8017       L1     1  0.05

> <Gold.Chemscore.Hbond.Weighted>
-8.4969

> <Gold.Chemscore.Metal.Weighted>
-0.0000

> <Gold.Chemscore.Lipo.Weighted>
-10.0450

> <Gold.Chemscore.Internal_Hbond.Weighted>
0.0000

> <Gold.Chemscore.DEClash.Weighted>
0.2232

> <Gold.Chemscore.DEInternal.Weighted>
1.0424

> <Gold.Chemscore.Rot.Weighted>
3.8312

> <Gold.Chemscore.Internal.Correction.Weighted>
   9.000000E+99

> <Gold.Protein.RotatedTorsions>
[ 6907 6896 6895 6894 ] final   32.17 input  -60.11 | X-H torsion
[ 7974 7965 7964 7962 ] final -138.32 input  175.53 | X-H torsion
[ 8008 7997 7996 7995 ] final   80.88 input   59.86 | X-H torsion
[ 10167 10162 10161 10158 ] final   71.63 input  -65.29 | X-H torsion
[ 10718 10713 10712 10709 ] final   99.05 input   66.30 | X-H torsion
[ 10763 10752 10751 10750 ] final  -81.43 input  -60.55 | X-H torsion
[ 11005 11000 10999 10996 ] final  -99.66 input  -57.11 | X-H torsion

> <Gold.Protein.ActiveResidues>
 VAL166  LYS551  ARG553  GLY616  TRP617  ASP618  TYR619  PRO620  LYS621  CYS622 
 ASP623  PHE694  ASN695  SER759  ASP760  ASP761  ALA762  ILE779  LEU786  VAL792 
 PHE793  MET794  SER795  GLU796  ALA797  LYS798  CYS799  TRP800  GLU811  SER814 

> <Gold.Protein.RotatedAtoms>
  152.0706  134.9535  160.0574 H   0  0  0  0  0  0  0  0  0  0  0  0  # atno 6907 bound_to 6896
  152.0863  133.4173  159.4532 H   0  0  0  0  0  0  0  0  0  0  0  0  # atno 6908 bound_to 6896
  150.6836  134.2843  159.4684 H   0  0  0  0  0  0  0  0  0  0  0  0  # atno 6909 bound_to 6896
  144.8768  140.6449  143.5231 H   0  0  0  0  0  0  0  0  0  0  0  0  # atno 7974 bound_to 7965
  155.8896  140.3439  155.5946 H   0  0  0  0  0  0  0  0  0  0  0  0  # atno 8008 bound_to 7997
  155.7626  140.0834  157.2167 H   0  0  0  0  0  0  0  0  0  0  0  0  # atno 8009 bound_to 7997
  154.4032  140.1533  156.2837 H   0  0  0  0  0  0  0  0  0  0  0  0  # atno 8010 bound_to 7997
  140.0440  144.5366  150.7412 H   0  0  0  0  0  0  0  0  0  0  0  0  # atno 10167 bound_to 10162
  157.6884  131.0658  150.4889 H   0  0  0  0  0  0  0  0  0  0  0  0  # atno 10718 bound_to 10713
  154.5634  135.5626  153.7028 H   0  0  0  0  0  0  0  0  0  0  0  0  # atno 10763 bound_to 10752
  153.0025  135.6279  154.2213 H   0  0  0  0  0  0  0  0  0  0  0  0  # atno 10764 bound_to 10752
  154.2152  135.2872  155.2924 H   0  0  0  0  0  0  0  0  0  0  0  0  # atno 10765 bound_to 10752
  141.1300  133.8338  157.1000 H   0  0  0  0  0  0  0  0  0  0  0  0  # atno 11005 bound_to 11000
  145.4027  139.1594  143.4168 LP  0  0  0  0  0  0  0  0  0  0  0  0  # atno 17320 bound_to 7965
  146.2968  140.4125  142.8719 LP  0  0  0  0  0  0  0  0  0  0  0  0  # atno 17321 bound_to 7965
  140.7247  143.2624  151.4161 LP  0  0  0  0  0  0  0  0  0  0  0  0  # atno 17342 bound_to 10162
  139.5995  144.1325  152.2182 LP  0  0  0  0  0  0  0  0  0  0  0  0  # atno 17343 bound_to 10162
  156.5216  130.4163  149.6247 LP  0  0  0  0  0  0  0  0  0  0  0  0  # atno 17370 bound_to 10713
  156.3149  130.7249  151.2149 LP  0  0  0  0  0  0  0  0  0  0  0  0  # atno 17371 bound_to 10713
  140.0339  134.9888  157.0833 LP  0  0  0  0  0  0  0  0  0  0  0  0  # atno 17394 bound_to 11000
  140.4241  134.1849  155.7165 LP  0  0  0  0  0  0  0  0  0  0  0  0  # atno 17395 bound_to 11000

$$$$
