AV-unprocessed.smi:1406|AV-procd|sdf|5715|dock3
  -GOLD-   22720 5343D 1   1.00000     0.00000
 Structure written by MMmdl.
 41 43  0  0  0  0  0  0  0  0  2 V2000
  150.9666  137.2297  154.6539 C   0  0  0  0  0  0  0  0  0  0  0  0
  151.2971  138.6945  155.0047 C   0  0  2  0  0  0  0  0  0  0  0  0
  151.7243  138.8817  156.4697 C   0  0  0  0  0  0  0  0  0  0  0  0
  152.3860  138.0216  157.0517 O   0  0  0  0  0  0  0  0  0  0  0  0
  151.3041  140.0090  157.0670 N   0  0  0  0  0  0  0  0  0  0  0  0
  151.4715  140.3298  158.4823 C   0  0  1  0  0  0  0  0  0  0  0  0
  152.8267  139.8620  159.0474 C   0  0  0  0  0  0  0  0  0  0  0  0
  153.2948  141.0162  159.9400 C   0  0  0  0  0  0  0  0  0  0  0  0
  152.7623  142.1989  159.2538 N   0  3  2  0  0  0  0  0  0  0  0  0
  152.8041  143.4998  159.9521 C   0  0  0  0  0  0  0  0  0  0  0  0
  152.3655  144.5995  158.9613 C   0  0  0  0  0  0  0  0  0  0  0  0
  151.0104  144.2775  158.2916 C   0  0  0  0  0  0  0  0  0  0  0  0
  150.9892  142.8543  157.6944 C   0  0  0  0  0  0  0  0  0  0  0  0
  151.4122  141.8477  158.7812 C   0  0  1  0  0  0  0  0  0  0  0  0
  150.1905  139.5914  154.6910 N   0  0  0  0  0  0  0  0  0  0  0  0
  149.0234  139.3389  154.0943 C   0  0  0  0  0  0  0  0  0  0  0  0
  148.2698  140.4134  153.9085 N   0  0  0  0  0  0  0  0  0  0  0  0
  149.0885  141.3631  154.4510 C   0  0  0  0  0  0  0  0  0  0  0  0
  150.2561  140.9266  154.9223 N   0  0  0  0  0  0  0  0  0  0  0  0
  151.8220  136.5784  154.8363 H   0  0  0  0  0  0  0  0  0  0  0  0
  150.7035  137.1335  153.6001 H   0  0  0  0  0  0  0  0  0  0  0  0
  150.1290  136.8475  155.2386 H   0  0  0  0  0  0  0  0  0  0  0  0
  152.1424  138.9953  154.3839 H   0  0  0  0  0  0  0  0  0  0  0  0
  150.7766  140.6661  156.5109 H   0  0  0  0  0  0  0  0  0  0  0  0
  150.6828  139.8362  159.0541 H   0  0  0  0  0  0  0  0  0  0  0  0
  152.7528  138.9194  159.5909 H   0  0  0  0  0  0  0  0  0  0  0  0
  153.5462  139.7193  158.2394 H   0  0  0  0  0  0  0  0  0  0  0  0
  152.8534  140.9365  160.9346 H   0  0  0  0  0  0  0  0  0  0  0  0
  154.3793  141.0571  160.0429 H   0  0  0  0  0  0  0  0  0  0  0  0
  152.1516  143.4790  160.8262 H   0  0  0  0  0  0  0  0  0  0  0  0
  153.8164  143.6956  160.3071 H   0  0  0  0  0  0  0  0  0  0  0  0
  152.3115  145.5620  159.4708 H   0  0  0  0  0  0  0  0  0  0  0  0
  153.1264  144.7057  158.1869 H   0  0  0  0  0  0  0  0  0  0  0  0
  150.2146  144.3678  159.0322 H   0  0  0  0  0  0  0  0  0  0  0  0
  150.7916  145.0118  157.5158 H   0  0  0  0  0  0  0  0  0  0  0  0
  149.9884  142.6263  157.3271 H   0  0  0  0  0  0  0  0  0  0  0  0
  151.6631  142.7982  156.8382 H   0  0  0  0  0  0  0  0  0  0  0  0
  150.7295  141.9648  159.6256 H   0  0  0  0  0  0  0  0  0  0  0  0
  148.7235  138.3504  153.7788 H   0  0  0  0  0  0  0  0  0  0  0  0
  148.8205  142.4086  154.4907 H   0  0  0  0  0  0  0  0  0  0  0  0
  153.3281  142.3037  158.4238 H   0  0  0  0  0  0  0  0  0  0  0  0
  1  2  1  0  0  0  0
  1 20  1  0  0  0  0
  1 21  1  0  0  0  0
  1 22  1  0  0  0  0
  2  3  1  0  0  0  0
  2 15  1  0  0  0  0
  2 23  1  0  0  0  0
  3  4  2  0  0  0  0
  3  5  1  0  0  0  0
  5  6  1  0  0  0  0
  5 24  1  0  0  0  0
  6 14  1  0  0  0  0
  6  7  1  0  0  0  0
  6 25  1  0  0  0  0
  7  8  1  0  0  0  0
  7 26  1  0  0  0  0
  7 27  1  0  0  0  0
  8  9  1  0  0  0  0
  8 28  1  0  0  0  0
  8 29  1  0  0  0  0
  9 14  1  0  0  0  0
  9 10  1  0  0  0  0
  9 41  1  0  0  0  0
 10 11  1  0  0  0  0
 10 30  1  0  0  0  0
 10 31  1  0  0  0  0
 11 12  1  0  0  0  0
 11 32  1  0  0  0  0
 11 33  1  0  0  0  0
 12 13  1  0  0  0  0
 12 34  1  0  0  0  0
 12 35  1  0  0  0  0
 13 14  1  0  0  0  0
 13 36  1  0  0  0  0
 13 37  1  0  0  0  0
 14 38  1  0  0  0  0
 15 19  1  0  0  0  0
 15 16  1  0  0  0  0
 16 17  2  0  0  0  0
 16 39  1  0  0  0  0
 17 18  1  0  0  0  0
 18 19  2  0  0  0  0
 18 40  1  0  0  0  0
M  CHG  1   9   1
M  END
> <s_m_source_file>
AV-unprocessed.smi

> <i_m_source_file_index>
1406

> <i_lp_mmshare_version>
43012

> <i_f3d_flags>
0

> <s_epik_input>
bjFbY0hdbltjSF1uMVtDQEhdKFtDSDNdKUMoPU8pW05IXVtDQEhdKFtDSDJdW0NIMl0yKVtDQEBIXShOMjMpW0NIMl1bQ0gyXVtDSDJdW0NIMl0z

> <s_epik_cmdline>
J2VwaWtfcHl0aG9uJywgJy1waCcsICc3LjAnLCAnLXRuJywgJzgnLCAnLW1hJywgJzIwMCcsICctbWV0YWxfYmluZGluZycsICctaW1hZScsICc8aW5maWxlLm1hZT4nLCAnLW9tYWUnLCAnPG91dGZpbGUubWFlPic=

> <r_lp_tautomer_probability>
1

> <r_epik_Ionization_Penalty>
0.00197066

> <r_epik_Ionization_Penalty_Charging>
0.00196223

> <r_epik_Ionization_Penalty_Neutral>
8.43107e-06

> <r_epik_State_Penalty>
0.00133866

> <r_epik_Charging_Adjusted_Penalty>
0.00330089

> <i_epik_Tot_Q>
1

> <i_epik_Tot_abs_Q>
1

> <r_epik_Metal_State_Penalty>
-0

> <b_epik_Metal_Only>
0

> <s_lp_Force_Field>
OPLS_2005

> <r_lp_Energy>
45.8752

> <b_lp_Chiralities_Consistent>
1

> <s_lp_Variant>
AV-unprocessed.smi:1406-7

> <Gold.Version>
5.8.1

> <Gold.Id.Protein>
6NUR|6NUR_protein|mol2

> <Gold.PLP.Fitness>
41.2868

> <Gold.PLP.PLP>
-39.3314

> <Gold.PLP.part.hbond>
-1.0000

> <Gold.PLP.part.metal>
0.0000

> <Gold.PLP.part.buried>
-3.9415

> <Gold.PLP.part.nonpolar>
-35.6979

> <Gold.PLP.part.repulsive>
0.6470

> <Gold.PLP.ligand.clash>
0.0000

> <Gold.PLP.ligand.torsion>
0.9857

> <Gold.PLP.Chemscore.Hbond>
0.1472

> <Gold.PLP.Chemscore.CHOScore>
1.1266

> <Gold.PLP.Chemscore.Metal>
0.0000

> <Gold.Chemscore.Hbonds>
donor molecule, donor type, donor heavy atom, donor atom, acceptor molecule, acceptor atom, score
      P1  H  7989  7998       L1    19  0.15
      L1  C    16    39       P1  7948  0.21
      L1  C    18    40       P1  8028  0.90

> <Gold.PLP.Chemscore.Internal.Correction>
0.1056

> <Gold.Rescore>
     Score         DG    S(hbond)    S(metal)    S(lipo)     H(rot)  DE(clash)    DE(int)     intcor
      8.03     -12.12       0.00        0.00      97.99       1.89       0.04       4.05       ----

> <Gold.Chemscore.Fitness>
8.0326

> <Gold.Chemscore.DG>
-12.1222

> <Gold.Chemscore.ZeroCoef>
-5.4800

> <Gold.Chemscore.Hbond>
0.0019

> <Gold.Chemscore.Metal>
0.0000

> <Gold.Chemscore.Lipo>
97.9943

> <Gold.Chemscore.Internal_Hbond>
0.0000

> <Gold.Chemscore.DEClash>
0.0441

> <Gold.Chemscore.DEInternal>
4.0456

> <Gold.Chemscore.Rot>
1.8865

> <Gold.Chemscore.Internal.Correction>
   9.000000E+99

> <Gold.Chemscore.Hbond.Weighted>
-0.0064

> <Gold.Chemscore.Metal.Weighted>
-0.0000

> <Gold.Chemscore.Lipo.Weighted>
-11.4653

> <Gold.Chemscore.Internal_Hbond.Weighted>
0.0000

> <Gold.Chemscore.DEClash.Weighted>
0.0441

> <Gold.Chemscore.DEInternal.Weighted>
4.0456

> <Gold.Chemscore.Rot.Weighted>
4.8295

> <Gold.Chemscore.Internal.Correction.Weighted>
   9.000000E+99

> <Gold.Protein.RotatedTorsions>
[ 6907 6896 6895 6894 ] final  118.82 input  -60.11 | X-H torsion
[ 7974 7965 7964 7962 ] final  154.46 input  175.53 | X-H torsion
[ 8008 7997 7996 7995 ] final  -93.47 input   59.86 | X-H torsion
[ 10167 10162 10161 10158 ] final   83.14 input  -65.29 | X-H torsion
[ 10718 10713 10712 10709 ] final -114.16 input   66.30 | X-H torsion
[ 10763 10752 10751 10750 ] final  -71.09 input  -60.55 | X-H torsion
[ 11005 11000 10999 10996 ] final  173.50 input  -57.11 | X-H torsion

> <Gold.Protein.ActiveResidues>
 VAL166  LYS551  ARG553  GLY616  TRP617  ASP618  TYR619  PRO620  LYS621  CYS622 
 ASP623  PHE694  ASN695  SER759  ASP760  ASP761  ALA762  ILE779  LEU786  VAL792 
 PHE793  MET794  SER795  GLU796  ALA797  LYS798  CYS799  TRP800  GLU811  SER814 

> <Gold.Protein.RotatedAtoms>
  152.4516  133.7640  159.6761 H   0  0  0  0  0  0  0  0  0  0  0  0  # atno 6907 bound_to 6896
  150.8429  133.7897  159.3060 H   0  0  0  0  0  0  0  0  0  0  0  0  # atno 6908 bound_to 6896
  151.5516  135.1070  160.0003 H   0  0  0  0  0  0  0  0  0  0  0  0  # atno 6909 bound_to 6896
  144.8087  139.6936  143.6151 H   0  0  0  0  0  0  0  0  0  0  0  0  # atno 7974 bound_to 7965
  154.7361  140.0498  157.0770 H   0  0  0  0  0  0  0  0  0  0  0  0  # atno 8008 bound_to 7997
  155.0239  140.3150  155.4764 H   0  0  0  0  0  0  0  0  0  0  0  0  # atno 8009 bound_to 7997
  156.2853  140.2162  156.5358 H   0  0  0  0  0  0  0  0  0  0  0  0  # atno 8010 bound_to 7997
  139.9215  144.6210  150.8435 H   0  0  0  0  0  0  0  0  0  0  0  0  # atno 10167 bound_to 10162
  156.0812  130.6011  150.8737 H   0  0  0  0  0  0  0  0  0  0  0  0  # atno 10718 bound_to 10713
  154.4269  135.5973  153.6044 H   0  0  0  0  0  0  0  0  0  0  0  0  # atno 10763 bound_to 10752
  152.9796  135.5965  154.3887 H   0  0  0  0  0  0  0  0  0  0  0  0  # atno 10764 bound_to 10752
  154.3720  135.2841  155.2239 H   0  0  0  0  0  0  0  0  0  0  0  0  # atno 10765 bound_to 10752
  140.3411  134.7275  157.4203 H   0  0  0  0  0  0  0  0  0  0  0  0  # atno 11005 bound_to 11000
  146.2383  139.5949  142.9509 LP  0  0  0  0  0  0  0  0  0  0  0  0  # atno 17320 bound_to 7965
  145.5375  141.0423  143.2349 LP  0  0  0  0  0  0  0  0  0  0  0  0  # atno 17321 bound_to 7965
  140.7661  143.3294  151.2444 LP  0  0  0  0  0  0  0  0  0  0  0  0  # atno 17342 bound_to 10162
  139.6858  143.9777  152.2833 LP  0  0  0  0  0  0  0  0  0  0  0  0  # atno 17343 bound_to 10162
  157.5929  131.0944  150.9089 LP  0  0  0  0  0  0  0  0  0  0  0  0  # atno 17370 bound_to 10713
  156.9261  130.5332  149.5279 LP  0  0  0  0  0  0  0  0  0  0  0  0  # atno 17371 bound_to 10713
  140.0780  134.5770  155.8570 LP  0  0  0  0  0  0  0  0  0  0  0  0  # atno 17394 bound_to 11000
  141.2038  133.6634  156.6084 LP  0  0  0  0  0  0  0  0  0  0  0  0  # atno 17395 bound_to 11000

$$$$
