AV-unprocessed.smi:2006|AV-procd|sdf|8129|dock1
  -GOLD-   2272010363D 1   1.00000     0.00000
 Structure written by MMmdl.
 33 34  0  0  0  0  0  0  0  0  2 V2000
  153.0506  142.8292  161.4541 C   0  0  0  0  0  0  0  0  0  0  0  0
  152.0944  143.1683  160.3063 C   0  0  2  0  0  0  0  0  0  0  0  0
  152.1036  142.0876  159.2082 C   0  0  0  0  0  0  0  0  0  0  0  0
  151.2493  142.4928  158.0989 N   0  0  0  0  0  0  0  0  0  0  0  0
  151.1088  141.5050  157.1143 C   0  0  0  0  0  0  0  0  0  0  0  0
  150.1021  141.6518  156.1370 C   0  0  0  0  0  0  0  0  0  0  0  0
  149.9574  140.6514  155.1570 C   0  0  0  0  0  0  0  0  0  0  0  0
  150.8219  139.5381  155.1881 C   0  0  0  0  0  0  0  0  0  0  0  0
  150.7016  138.4286  154.1630 C   0  0  0  0  0  0  0  0  0  0  0  0
  149.4941  138.6022  153.3386 N   0  3  0  0  0  0  0  0  0  0  0  0
  151.8022  139.4852  156.2012 C   0  0  0  0  0  0  0  0  0  0  0  0
  151.9454  140.4396  157.1446 N   0  0  0  0  0  0  0  0  0  0  0  0
  151.6110  143.8006  157.5675 C   0  0  0  0  0  0  0  0  0  0  0  0
  151.6205  144.8425  158.6990 C   0  0  0  0  0  0  0  0  0  0  0  0
  152.4967  144.4127  159.7376 O   0  0  0  0  0  0  0  0  0  0  0  0
  152.7782  141.8841  161.9250 H   0  0  0  0  0  0  0  0  0  0  0  0
  153.0261  143.6021  162.2225 H   0  0  0  0  0  0  0  0  0  0  0  0
  154.0783  142.7436  161.0996 H   0  0  0  0  0  0  0  0  0  0  0  0
  151.0864  143.2706  160.7121 H   0  0  0  0  0  0  0  0  0  0  0  0
  153.1221  141.9291  158.8502 H   0  0  0  0  0  0  0  0  0  0  0  0
  151.7523  141.1379  159.6134 H   0  0  0  0  0  0  0  0  0  0  0  0
  149.4511  142.5141  156.1390 H   0  0  0  0  0  0  0  0  0  0  0  0
  149.1933  140.7384  154.3986 H   0  0  0  0  0  0  0  0  0  0  0  0
  151.5803  138.4206  153.5173 H   0  0  0  0  0  0  0  0  0  0  0  0
  150.6604  137.4611  154.6646 H   0  0  0  0  0  0  0  0  0  0  0  0
  149.2986  137.7448  152.8417 H   0  0  0  0  0  0  0  0  0  0  0  0
  149.6434  139.3490  152.6750 H   0  0  0  0  0  0  0  0  0  0  0  0
  152.4855  138.6510  156.2622 H   0  0  0  0  0  0  0  0  0  0  0  0
  152.5967  143.7515  157.1028 H   0  0  0  0  0  0  0  0  0  0  0  0
  150.9018  144.0945  156.7928 H   0  0  0  0  0  0  0  0  0  0  0  0
  151.9636  145.8051  158.3204 H   0  0  0  0  0  0  0  0  0  0  0  0
  150.6158  144.9959  159.0964 H   0  0  0  0  0  0  0  0  0  0  0  0
  148.7103  138.8327  153.9324 H   0  0  0  0  0  0  0  0  0  0  0  0
  1  2  1  0  0  0  0
  1 16  1  0  0  0  0
  1 17  1  0  0  0  0
  1 18  1  0  0  0  0
  2 15  1  0  0  0  0
  2  3  1  0  0  0  0
  2 19  1  0  0  0  0
  3  4  1  0  0  0  0
  3 20  1  0  0  0  0
  3 21  1  0  0  0  0
  4  5  1  0  0  0  0
  4 13  1  0  0  0  0
  5 12  1  0  0  0  0
  5  6  2  0  0  0  0
  6  7  1  0  0  0  0
  6 22  1  0  0  0  0
  7  8  2  0  0  0  0
  7 23  1  0  0  0  0
  8  9  1  0  0  0  0
  8 11  1  0  0  0  0
  9 10  1  0  0  0  0
  9 24  1  0  0  0  0
  9 25  1  0  0  0  0
 10 26  1  0  0  0  0
 10 27  1  0  0  0  0
 10 33  1  0  0  0  0
 11 12  2  0  0  0  0
 11 28  1  0  0  0  0
 13 14  1  0  0  0  0
 13 29  1  0  0  0  0
 13 30  1  0  0  0  0
 14 15  1  0  0  0  0
 14 31  1  0  0  0  0
 14 32  1  0  0  0  0
M  CHG  1  10   1
M  END
> <s_m_source_file>
AV-unprocessed.smi

> <i_m_source_file_index>
2006

> <i_lp_mmshare_version>
43012

> <i_f3d_flags>
0

> <s_epik_input>
W0NIM11bQ0BASF0xW0NIMl1OKFtDSDJdW0NIMl1PMSljMltjSF1bY0hdYyhbY0hdbjIpW0NIMl1bTkgyXQ==

> <s_epik_cmdline>
J2VwaWtfcHl0aG9uJywgJy1waCcsICc3LjAnLCAnLXRuJywgJzgnLCAnLW1hJywgJzIwMCcsICctbWV0YWxfYmluZGluZycsICctaW1hZScsICc8aW5maWxlLm1hZT4nLCAnLW9tYWUnLCAnPG91dGZpbGUubWFlPic=

> <r_lp_tautomer_probability>
1

> <r_epik_Ionization_Penalty>
0.0608602

> <r_epik_Ionization_Penalty_Charging>
0.059977

> <r_epik_Ionization_Penalty_Neutral>
0.000883197

> <r_epik_State_Penalty>
0.0524157

> <r_epik_Charging_Adjusted_Penalty>
0.112393

> <i_epik_Tot_Q>
1

> <i_epik_Tot_abs_Q>
1

> <r_epik_Metal_State_Penalty>
0.0524947

> <b_epik_Metal_Only>
0

> <s_lp_Force_Field>
OPLS_2005

> <r_lp_Energy>
16.9798

> <b_lp_Chiralities_Consistent>
1

> <s_lp_Variant>
AV-unprocessed.smi:2006-1

> <Gold.Version>
5.8.1

> <Gold.Id.Protein>
6NUR|6NUR_protein|mol2

> <Gold.PLP.Fitness>
45.4549

> <Gold.PLP.PLP>
-36.8042

> <Gold.PLP.part.hbond>
-1.8720

> <Gold.PLP.part.metal>
0.0000

> <Gold.PLP.part.buried>
-3.4996

> <Gold.PLP.part.nonpolar>
-30.5844

> <Gold.PLP.part.repulsive>
0.1792

> <Gold.PLP.ligand.clash>
0.0000

> <Gold.PLP.ligand.torsion>
0.2257

> <Gold.PLP.Chemscore.Hbond>
3.0000

> <Gold.PLP.Chemscore.CHOScore>
0.0000

> <Gold.PLP.Chemscore.Metal>
0.0000

> <Gold.Chemscore.Hbonds>
donor molecule, donor type, donor heavy atom, donor atom, acceptor molecule, acceptor atom, score
      L1  H    10    26       P1  7948  2.00
      L1  H    10    27       P1  7957  1.00

> <Gold.PLP.Chemscore.Internal.Correction>
0.1022

> <Gold.Rescore>
     Score         DG    S(hbond)    S(metal)    S(lipo)     H(rot)  DE(clash)    DE(int)     intcor
     19.70     -19.95       1.99        0.00      95.45       1.30       0.00       0.25       ----

> <Gold.Chemscore.Fitness>
19.6956

> <Gold.Chemscore.DG>
-19.9488

> <Gold.Chemscore.ZeroCoef>
-5.4800

> <Gold.Chemscore.Hbond>
1.9881

> <Gold.Chemscore.Metal>
0.0000

> <Gold.Chemscore.Lipo>
95.4534

> <Gold.Chemscore.Internal_Hbond>
0.0000

> <Gold.Chemscore.DEClash>
0.0043

> <Gold.Chemscore.DEInternal>
0.2490

> <Gold.Chemscore.Rot>
1.3045

> <Gold.Chemscore.Internal.Correction>
   9.000000E+99

> <Gold.Chemscore.Hbonds>
donor molecule, donor type, donor heavy atom, donor atom, acceptor molecule, acceptor atom, score
      L1  H    10    26       P1  7948  0.94
      L1  H    10    27       P1  7957  0.97

> <Gold.Chemscore.Hbond.Weighted>
-6.6403

> <Gold.Chemscore.Metal.Weighted>
-0.0000

> <Gold.Chemscore.Lipo.Weighted>
-11.1680

> <Gold.Chemscore.Internal_Hbond.Weighted>
0.0000

> <Gold.Chemscore.DEClash.Weighted>
0.0043

> <Gold.Chemscore.DEInternal.Weighted>
0.2490

> <Gold.Chemscore.Rot.Weighted>
3.3395

> <Gold.Chemscore.Internal.Correction.Weighted>
   9.000000E+99

> <Gold.Protein.RotatedTorsions>
[ 6907 6896 6895 6894 ] final   70.51 input  -60.11 | X-H torsion
[ 7974 7965 7964 7962 ] final  178.49 input  175.53 | X-H torsion
[ 8008 7997 7996 7995 ] final  179.25 input   59.86 | X-H torsion
[ 10167 10162 10161 10158 ] final   87.69 input  -65.29 | X-H torsion
[ 10718 10713 10712 10709 ] final   13.72 input   66.30 | X-H torsion
[ 10763 10752 10751 10750 ] final  -24.26 input  -60.55 | X-H torsion
[ 11005 11000 10999 10996 ] final  -81.95 input  -57.11 | X-H torsion

> <Gold.Protein.ActiveResidues>
 VAL166  LYS551  ARG553  GLY616  TRP617  ASP618  TYR619  PRO620  LYS621  CYS622 
 ASP623  PHE694  ASN695  SER759  ASP760  ASP761  ALA762  ILE779  LEU786  VAL792 
 PHE793  MET794  SER795  GLU796  ALA797  LYS798  CYS799  TRP800  GLU811  SER814 

> <Gold.Protein.RotatedAtoms>
  152.4753  134.4858  159.9679 H   0  0  0  0  0  0  0  0  0  0  0  0  # atno 6907 bound_to 6896
  151.4876  133.3526  159.2856 H   0  0  0  0  0  0  0  0  0  0  0  0  # atno 6908 bound_to 6896
  150.8788  134.8203  159.7271 H   0  0  0  0  0  0  0  0  0  0  0  0  # atno 6909 bound_to 6896
  144.7156  140.0405  143.6437 H   0  0  0  0  0  0  0  0  0  0  0  0  # atno 7974 bound_to 7965
  156.0455  140.1313  157.0109 H   0  0  0  0  0  0  0  0  0  0  0  0  # atno 8008 bound_to 7997
  154.4410  140.1021  156.6370 H   0  0  0  0  0  0  0  0  0  0  0  0  # atno 8009 bound_to 7997
  155.5603  140.3464  155.4492 H   0  0  0  0  0  0  0  0  0  0  0  0  # atno 8010 bound_to 7997
  139.8748  144.6473  150.8908 H   0  0  0  0  0  0  0  0  0  0  0  0  # atno 10167 bound_to 10162
  157.0288  130.6184  149.5732 H   0  0  0  0  0  0  0  0  0  0  0  0  # atno 10718 bound_to 10713
  153.6809  135.6967  153.5118 H   0  0  0  0  0  0  0  0  0  0  0  0  # atno 10763 bound_to 10752
  153.2486  135.4282  155.0773 H   0  0  0  0  0  0  0  0  0  0  0  0  # atno 10764 bound_to 10752
  154.8400  135.3525  154.6352 H   0  0  0  0  0  0  0  0  0  0  0  0  # atno 10765 bound_to 10752
  141.1665  133.7221  156.8499 H   0  0  0  0  0  0  0  0  0  0  0  0  # atno 11005 bound_to 11000
  146.0028  139.3105  143.0917 LP  0  0  0  0  0  0  0  0  0  0  0  0  # atno 17320 bound_to 7965
  145.8774  140.9383  143.0619 LP  0  0  0  0  0  0  0  0  0  0  0  0  # atno 17321 bound_to 7965
  140.7754  143.3634  151.1785 LP  0  0  0  0  0  0  0  0  0  0  0  0  # atno 17342 bound_to 10162
  139.7250  143.9163  152.2999 LP  0  0  0  0  0  0  0  0  0  0  0  0  # atno 17343 bound_to 10162
  156.0077  130.5165  150.7884 LP  0  0  0  0  0  0  0  0  0  0  0  0  # atno 17370 bound_to 10713
  157.5194  131.0930  151.0098 LP  0  0  0  0  0  0  0  0  0  0  0  0  # atno 17371 bound_to 10713
  140.1923  134.8956  157.3075 LP  0  0  0  0  0  0  0  0  0  0  0  0  # atno 17394 bound_to 11000
  140.2276  134.3947  155.7536 LP  0  0  0  0  0  0  0  0  0  0  0  0  # atno 17395 bound_to 11000

$$$$
