AV-unprocessed.smi:409|AV-procd|sdf|2505|dock2
  -GOLD-   2262022453D 1   1.00000     0.00000
 Structure written by MMmdl.
 35 36  0  0  0  0  0  0  0  0  1 V2000
  152.8409  139.9877  159.5379 O   0  0  0  0  0  0  0  0  0  0  0  0
  153.5402  140.5294  160.3955 C   0  0  0  0  0  0  0  0  0  0  0  0
  154.5560  139.7158  161.2102 C   0  0  0  0  0  0  0  0  0  0  0  0
  154.5857  138.2938  160.8380 N   0  0  0  0  0  0  0  0  0  0  0  0
  154.4027  137.3133  161.8029 C   0  0  0  0  0  0  0  0  0  0  0  0
  154.4300  135.9868  161.5325 C   0  0  0  0  0  0  0  0  0  0  0  0
  154.6607  135.5150  160.1714 C   0  0  0  0  0  0  0  0  0  0  0  0
  154.7018  134.3361  159.8268 O   0  0  0  0  0  0  0  0  0  0  0  0
  154.8424  136.5312  159.2298 N   0  0  0  0  0  0  0  0  0  0  0  0
  154.8171  137.9000  159.5020 C   0  0  0  0  0  0  0  0  0  0  0  0
  154.9937  138.7139  158.5961 O   0  0  0  0  0  0  0  0  0  0  0  0
  153.4879  141.8433  160.6631 N   0  0  0  0  0  0  0  0  0  0  0  0
  152.6043  142.8039  160.0097 C   0  0  0  0  0  0  0  0  0  0  0  0
  153.3654  143.5948  158.9250 C   0  0  0  0  0  0  0  0  0  0  0  0
  152.4713  144.6655  158.2787 C   0  0  0  0  0  0  0  0  0  0  0  0
  151.8786  145.6106  159.3356 C   0  0  0  0  0  0  0  0  0  0  0  0
  151.1152  144.8265  160.4143 C   0  0  0  0  0  0  0  0  0  0  0  0
  152.0086  143.7569  161.0634 C   0  0  0  0  0  0  0  0  0  0  0  0
  155.0083  136.2524  158.2738 H   0  0  0  0  0  0  0  0  0  0  0  0
  155.5401  140.1643  161.0676 H   0  0  0  0  0  0  0  0  0  0  0  0
  154.3440  139.8205  162.2763 H   0  0  0  0  0  0  0  0  0  0  0  0
  154.2332  137.6163  162.8265 H   0  0  0  0  0  0  0  0  0  0  0  0
  154.2816  135.2710  162.3281 H   0  0  0  0  0  0  0  0  0  0  0  0
  154.1020  142.2046  161.3784 H   0  0  0  0  0  0  0  0  0  0  0  0
  151.7802  142.2638  159.5394 H   0  0  0  0  0  0  0  0  0  0  0  0
  154.2421  144.0736  159.3639 H   0  0  0  0  0  0  0  0  0  0  0  0
  153.7371  142.9183  158.1546 H   0  0  0  0  0  0  0  0  0  0  0  0
  153.0450  145.2371  157.5488 H   0  0  0  0  0  0  0  0  0  0  0  0
  151.6644  144.1815  157.7272 H   0  0  0  0  0  0  0  0  0  0  0  0
  152.6791  146.1876  159.8003 H   0  0  0  0  0  0  0  0  0  0  0  0
  151.2141  146.3320  158.8592 H   0  0  0  0  0  0  0  0  0  0  0  0
  150.7416  145.5110  161.1765 H   0  0  0  0  0  0  0  0  0  0  0  0
  150.2401  144.3507  159.9698 H   0  0  0  0  0  0  0  0  0  0  0  0
  151.4300  143.1913  161.7948 H   0  0  0  0  0  0  0  0  0  0  0  0
  152.8117  144.2465  161.6164 H   0  0  0  0  0  0  0  0  0  0  0  0
  1  2  2  0  0  0  0
  2  3  1  0  0  0  0
  2 12  1  0  0  0  0
  3  4  1  0  0  0  0
  3 20  1  0  0  0  0
  3 21  1  0  0  0  0
  4 10  1  0  0  0  0
  4  5  1  0  0  0  0
  5  6  2  0  0  0  0
  5 22  1  0  0  0  0
  6  7  1  0  0  0  0
  6 23  1  0  0  0  0
  7  8  2  0  0  0  0
  7  9  1  0  0  0  0
  9 19  1  0  0  0  0
  9 10  1  0  0  0  0
 10 11  2  0  0  0  0
 12 13  1  0  0  0  0
 12 24  1  0  0  0  0
 13 18  1  0  0  0  0
 13 14  1  0  0  0  0
 13 25  1  0  0  0  0
 14 15  1  0  0  0  0
 14 26  1  0  0  0  0
 14 27  1  0  0  0  0
 15 16  1  0  0  0  0
 15 28  1  0  0  0  0
 15 29  1  0  0  0  0
 16 17  1  0  0  0  0
 16 30  1  0  0  0  0
 16 31  1  0  0  0  0
 17 18  1  0  0  0  0
 17 32  1  0  0  0  0
 17 33  1  0  0  0  0
 18 34  1  0  0  0  0
 18 35  1  0  0  0  0
M  END
> <s_m_source_file>
AV-unprocessed.smi

> <i_m_source_file_index>
409

> <i_lp_mmshare_version>
43012

> <i_f3d_flags>
0

> <s_epik_input>
W0NIMl0xW0NIMl1bQ0gyXVtDSDJdW0NIMl1bQ0hdMVtOSF1DKD1PKVtDSDJdbjJbY0hdW2NIXWMoPU8pW25IXWMyPU8=

> <s_epik_cmdline>
J2VwaWtfcHl0aG9uJywgJy1waCcsICc3LjAnLCAnLXRuJywgJzgnLCAnLW1hJywgJzIwMCcsICctbWV0YWxfYmluZGluZycsICctaW1hZScsICc8aW5maWxlLm1hZT4nLCAnLW9tYWUnLCAnPG91dGZpbGUubWFlPic=

> <r_lp_tautomer_probability>
0.999537

> <r_epik_Ionization_Penalty>
0.00309578

> <r_epik_Ionization_Penalty_Charging>
0.00309576

> <r_epik_Ionization_Penalty_Neutral>
1.90469e-08

> <r_epik_State_Penalty>
0.00217825

> <r_epik_Charging_Adjusted_Penalty>
0.00527401

> <i_epik_Tot_Q>
0

> <i_epik_Tot_abs_Q>
0

> <r_epik_Metal_State_Penalty>
0.362603

> <b_epik_Metal_Only>
0

> <s_lp_Force_Field>
OPLS_2005

> <r_lp_Energy>
8.21917

> <b_lp_Chiralities_Consistent>
1

> <s_lp_Variant>
AV-unprocessed.smi:409-1

> <Gold.Version>
5.8.1

> <Gold.Id.Protein>
6NUR|6NUR_protein|mol2

> <Gold.PLP.Fitness>
42.5891

> <Gold.PLP.PLP>
-37.2111

> <Gold.PLP.part.hbond>
-2.0000

> <Gold.PLP.part.metal>
0.0000

> <Gold.PLP.part.buried>
-3.8145

> <Gold.PLP.part.nonpolar>
-31.6052

> <Gold.PLP.part.repulsive>
0.0892

> <Gold.PLP.ligand.clash>
0.0000

> <Gold.PLP.ligand.torsion>
0.2764

> <Gold.PLP.Chemscore.Hbond>
1.9750

> <Gold.PLP.Chemscore.CHOScore>
0.0000

> <Gold.PLP.Chemscore.Metal>
0.0000

> <Gold.Chemscore.Hbonds>
donor molecule, donor type, donor heavy atom, donor atom, acceptor molecule, acceptor atom, score
      P1  H  6896  6907       L1     8  0.64
      P1  H  7997  8009       L1    11  1.00

> <Gold.PLP.Chemscore.Internal.Correction>
0.0058

> <Gold.Rescore>
     Score         DG    S(hbond)    S(metal)    S(lipo)     H(rot)  DE(clash)    DE(int)     intcor
     16.98     -17.70       1.56        0.00      97.19       1.70       0.50       0.22       ----

> <Gold.Chemscore.Fitness>
16.9845

> <Gold.Chemscore.DG>
-17.6979

> <Gold.Chemscore.ZeroCoef>
-5.4800

> <Gold.Chemscore.Hbond>
1.5577

> <Gold.Chemscore.Metal>
0.0000

> <Gold.Chemscore.Lipo>
97.1894

> <Gold.Chemscore.Internal_Hbond>
0.0000

> <Gold.Chemscore.DEClash>
0.4962

> <Gold.Chemscore.DEInternal>
0.2172

> <Gold.Chemscore.Rot>
1.7015

> <Gold.Chemscore.Internal.Correction>
   9.000000E+99

> <Gold.Chemscore.Hbonds>
donor molecule, donor type, donor heavy atom, donor atom, acceptor molecule, acceptor atom, score
      P1  H  6896  6907       L1     8  0.13
      P1  H  7997  8009       L1    11  0.99

> <Gold.Chemscore.Hbond.Weighted>
-5.2027

> <Gold.Chemscore.Metal.Weighted>
-0.0000

> <Gold.Chemscore.Lipo.Weighted>
-11.3712

> <Gold.Chemscore.Internal_Hbond.Weighted>
0.0000

> <Gold.Chemscore.DEClash.Weighted>
0.4962

> <Gold.Chemscore.DEInternal.Weighted>
0.2172

> <Gold.Chemscore.Rot.Weighted>
4.3559

> <Gold.Chemscore.Internal.Correction.Weighted>
   9.000000E+99

> <Gold.Protein.RotatedTorsions>
[ 6907 6896 6895 6894 ] final  105.44 input  -60.11 | X-H torsion
[ 7974 7965 7964 7962 ] final    9.39 input  175.53 | X-H torsion
[ 8008 7997 7996 7995 ] final  105.93 input   59.86 | X-H torsion
[ 10167 10162 10161 10158 ] final  -58.81 input  -65.29 | X-H torsion
[ 10718 10713 10712 10709 ] final -151.98 input   66.30 | X-H torsion
[ 10763 10752 10751 10750 ] final   97.32 input  -60.55 | X-H torsion
[ 11005 11000 10999 10996 ] final  -31.37 input  -57.11 | X-H torsion

> <Gold.Protein.ActiveResidues>
 VAL166  LYS551  ARG553  GLY616  TRP617  ASP618  TYR619  PRO620  LYS621  CYS622 
 ASP623  PHE694  ASN695  SER759  ASP760  ASP761  ALA762  ILE779  LEU786  VAL792 
 PHE793  MET794  SER795  GLU796  ALA797  LYS798  CYS799  TRP800  GLU811  SER814 

> <Gold.Protein.RotatedAtoms>
  152.5230  133.9528  159.7679 H   0  0  0  0  0  0  0  0  0  0  0  0  # atno 6907 bound_to 6896
  150.9834  133.6214  159.2726 H   0  0  0  0  0  0  0  0  0  0  0  0  # atno 6908 bound_to 6896
  151.3383  135.0863  159.9415 H   0  0  0  0  0  0  0  0  0  0  0  0  # atno 6909 bound_to 6896
  146.2404  139.9790  142.8438 H   0  0  0  0  0  0  0  0  0  0  0  0  # atno 7974 bound_to 7965
  156.1701  140.3122  155.8958 H   0  0  0  0  0  0  0  0  0  0  0  0  # atno 8008 bound_to 7997
  155.3605  140.0476  157.3063 H   0  0  0  0  0  0  0  0  0  0  0  0  # atno 8009 bound_to 7997
  154.5232  140.2205  155.8948 H   0  0  0  0  0  0  0  0  0  0  0  0  # atno 8010 bound_to 7997
  140.6174  143.2407  151.5564 H   0  0  0  0  0  0  0  0  0  0  0  0  # atno 10167 bound_to 10162
  156.4664  130.8238  151.2468 H   0  0  0  0  0  0  0  0  0  0  0  0  # atno 10718 bound_to 10713
  153.2754  135.4187  155.1028 H   0  0  0  0  0  0  0  0  0  0  0  0  # atno 10763 bound_to 10752
  154.8471  135.3482  154.6185 H   0  0  0  0  0  0  0  0  0  0  0  0  # atno 10764 bound_to 10752
  153.6606  135.7048  153.5236 H   0  0  0  0  0  0  0  0  0  0  0  0  # atno 10765 bound_to 10752
  140.9462  133.7248  156.1151 H   0  0  0  0  0  0  0  0  0  0  0  0  # atno 11005 bound_to 11000
  145.1610  140.9672  143.4377 LP  0  0  0  0  0  0  0  0  0  0  0  0  # atno 17320 bound_to 7965
  145.0116  139.3504  143.6117 LP  0  0  0  0  0  0  0  0  0  0  0  0  # atno 17321 bound_to 7965
  139.5410  144.2648  152.1350 LP  0  0  0  0  0  0  0  0  0  0  0  0  # atno 17342 bound_to 10162
  140.1861  144.4798  150.6503 LP  0  0  0  0  0  0  0  0  0  0  0  0  # atno 17343 bound_to 10162
  157.7494  131.0090  150.3251 LP  0  0  0  0  0  0  0  0  0  0  0  0  # atno 17370 bound_to 10713
  156.3663  130.3855  149.7211 LP  0  0  0  0  0  0  0  0  0  0  0  0  # atno 17371 bound_to 10713
  140.7666  134.3880  157.5516 LP  0  0  0  0  0  0  0  0  0  0  0  0  # atno 17394 bound_to 11000
  139.8834  134.8995  156.2768 LP  0  0  0  0  0  0  0  0  0  0  0  0  # atno 17395 bound_to 11000

$$$$
