AV-unprocessed.smi:7|AV-procd|sdf|43|dock3
  -GOLD-   2262015163D 1   1.00000     0.00000
 Structure written by MMmdl.
 45 48  0  0  0  0  0  0  0  0  1 V2000
  151.5378  139.2635  154.9962 O   0  0  0  0  0  0  0  0  0  0  0  0
  151.2771  140.1673  155.7911 C   0  0  0  0  0  0  0  0  0  0  0  0
  151.9878  140.3178  157.0825 C   0  0  0  0  0  0  0  0  0  0  0  0
  152.9997  139.5485  157.6560 N   0  0  0  0  0  0  0  0  0  0  0  0
  153.2263  140.1721  158.8118 C   0  0  0  0  0  0  0  0  0  0  0  0
  152.4495  141.2540  159.0072 N   0  0  0  0  0  0  0  0  0  0  0  0
  152.5809  142.0345  160.1785 C   0  0  0  0  0  0  0  0  0  0  0  0
  153.3064  141.5509  161.2905 C   0  0  0  0  0  0  0  0  0  0  0  0
  153.4244  142.3367  162.4537 C   0  0  0  0  0  0  0  0  0  0  0  0
  152.8192  143.6070  162.5114 C   0  0  0  0  0  0  0  0  0  0  0  0
  152.0939  144.0916  161.4059 C   0  0  0  0  0  0  0  0  0  0  0  0
  151.9735  143.3069  160.2425 C   0  0  0  0  0  0  0  0  0  0  0  0
  151.6361  141.3655  157.8888 C   0  0  0  0  0  0  0  0  0  0  0  0
  150.6812  142.3324  157.6728 N   0  0  0  0  0  0  0  0  0  0  0  0
  150.0673  142.1685  156.5298 C   0  0  0  0  0  0  0  0  0  0  0  0
  150.3221  141.1245  155.5900 N   0  0  0  0  0  0  0  0  0  0  0  0
  149.5061  141.1317  154.3657 C   0  0  0  0  0  0  0  0  0  0  0  0
  148.2573  140.2225  154.4933 C   0  0  2  0  0  0  0  0  0  0  0  0
  148.2654  139.3333  153.3909 O   0  0  0  0  0  0  0  0  0  0  0  0
  146.9143  141.0046  154.5010 C   0  0  0  0  0  0  0  0  0  0  0  0
  145.8670  140.0687  154.3112 O   0  0  0  0  0  0  0  0  0  0  0  0
  146.6182  141.7722  155.8033 C   0  0  0  0  0  0  0  0  0  0  0  0
  145.6603  142.8866  155.3865 C   0  0  0  0  0  0  0  0  0  0  0  0
  146.1605  143.3118  154.0060 C   0  0  0  0  0  0  0  0  0  0  0  0
  146.7762  142.0553  153.3709 C   0  0  0  0  0  0  0  0  0  0  0  0
  153.9750  139.8356  159.5146 H   0  0  0  0  0  0  0  0  0  0  0  0
  153.7689  140.5751  161.2596 H   0  0  0  0  0  0  0  0  0  0  0  0
  153.9782  141.9636  163.3027 H   0  0  0  0  0  0  0  0  0  0  0  0
  152.9103  144.2088  163.4037 H   0  0  0  0  0  0  0  0  0  0  0  0
  151.6294  145.0658  161.4494 H   0  0  0  0  0  0  0  0  0  0  0  0
  151.4174  143.6870  159.3980 H   0  0  0  0  0  0  0  0  0  0  0  0
  149.2860  142.8608  156.2118 H   0  0  0  0  0  0  0  0  0  0  0  0
  149.2033  142.1616  154.1709 H   0  0  0  0  0  0  0  0  0  0  0  0
  150.0922  140.8612  153.4848 H   0  0  0  0  0  0  0  0  0  0  0  0
  148.3155  139.6271  155.4060 H   0  0  0  0  0  0  0  0  0  0  0  0
  148.8181  139.6976  152.7165 H   0  0  0  0  0  0  0  0  0  0  0  0
  145.2458  140.4336  153.6999 H   0  0  0  0  0  0  0  0  0  0  0  0
  146.2081  141.1391  156.5916 H   0  0  0  0  0  0  0  0  0  0  0  0
  147.5294  142.2247  156.1960 H   0  0  0  0  0  0  0  0  0  0  0  0
  144.6463  142.4923  155.3070 H   0  0  0  0  0  0  0  0  0  0  0  0
  145.6413  143.7125  156.0982 H   0  0  0  0  0  0  0  0  0  0  0  0
  145.3665  143.7410  153.3940 H   0  0  0  0  0  0  0  0  0  0  0  0
  146.9325  144.0740  154.1201 H   0  0  0  0  0  0  0  0  0  0  0  0
  147.7371  142.3113  152.9240 H   0  0  0  0  0  0  0  0  0  0  0  0
  146.1535  141.6893  152.5527 H   0  0  0  0  0  0  0  0  0  0  0  0
  1  2  2  0  0  0  0
  2 16  1  0  0  0  0
  2  3  1  0  0  0  0
  3 13  2  0  0  0  0
  3  4  1  0  0  0  0
  4  5  2  0  0  0  0
  5  6  1  0  0  0  0
  5 26  1  0  0  0  0
  6  7  1  0  0  0  0
  6 13  1  0  0  0  0
  7 12  1  0  0  0  0
  7  8  2  0  0  0  0
  8  9  1  0  0  0  0
  8 27  1  0  0  0  0
  9 10  2  0  0  0  0
  9 28  1  0  0  0  0
 10 11  1  0  0  0  0
 10 29  1  0  0  0  0
 11 12  2  0  0  0  0
 11 30  1  0  0  0  0
 12 31  1  0  0  0  0
 13 14  1  0  0  0  0
 14 15  2  0  0  0  0
 15 16  1  0  0  0  0
 15 32  1  0  0  0  0
 16 17  1  0  0  0  0
 17 18  1  0  0  0  0
 17 33  1  0  0  0  0
 17 34  1  0  0  0  0
 18 19  1  0  0  0  0
 18 20  1  0  0  0  0
 18 35  1  0  0  0  0
 19 36  1  0  0  0  0
 20 25  1  0  0  0  0
 20 21  1  0  0  0  0
 20 22  1  0  0  0  0
 21 37  1  0  0  0  0
 22 23  1  0  0  0  0
 22 38  1  0  0  0  0
 22 39  1  0  0  0  0
 23 24  1  0  0  0  0
 23 40  1  0  0  0  0
 23 41  1  0  0  0  0
 24 25  1  0  0  0  0
 24 42  1  0  0  0  0
 24 43  1  0  0  0  0
 25 44  1  0  0  0  0
 25 45  1  0  0  0  0
M  END
> <s_m_source_file>
AV-unprocessed.smi

> <i_m_source_file_index>
7

> <i_lp_mmshare_version>
43012

> <i_f3d_flags>
0

> <s_epik_input>
W0NIMl0xW0NIMl1bQ0gyXVtDSDJdQzEoW09IXSlbQ0BASF0oW09IXSlbQ0gyXW4oYzI9TylbY0hdbmMoYzIzKW4oW2NIXW4zKS1jNFtjSF1bY0hdW2NIXVtjSF1bY0hdNA==

> <s_epik_cmdline>
J2VwaWtfcHl0aG9uJywgJy1waCcsICc3LjAnLCAnLXRuJywgJzgnLCAnLW1hJywgJzIwMCcsICctbWV0YWxfYmluZGluZycsICctaW1hZScsICc8aW5maWxlLm1hZT4nLCAnLW9tYWUnLCAnPG91dGZpbGUubWFlPic=

> <r_lp_tautomer_probability>
1

> <r_epik_Ionization_Penalty>
0.000116694

> <r_epik_Ionization_Penalty_Charging>
6.60428e-09

> <r_epik_Ionization_Penalty_Neutral>
0.000116688

> <r_epik_State_Penalty>
-0

> <r_epik_Charging_Adjusted_Penalty>
6.60428e-09

> <i_epik_Tot_Q>
0

> <i_epik_Tot_abs_Q>
0

> <r_epik_Metal_State_Penalty>
-0

> <b_epik_Metal_Only>
0

> <s_lp_Force_Field>
OPLS_2005

> <r_lp_Energy>
55.7438

> <b_lp_Chiralities_Consistent>
1

> <s_lp_Variant>
AV-unprocessed.smi:7-1

> <Gold.Version>
5.8.1

> <Gold.Id.Protein>
6NUR|6NUR_protein|mol2

> <Gold.PLP.Fitness>
61.6654

> <Gold.PLP.PLP>
-53.7232

> <Gold.PLP.part.hbond>
-3.5128

> <Gold.PLP.part.metal>
0.0000

> <Gold.PLP.part.buried>
-3.3159

> <Gold.PLP.part.nonpolar>
-46.6059

> <Gold.PLP.part.repulsive>
0.1275

> <Gold.PLP.ligand.clash>
0.0000

> <Gold.PLP.ligand.torsion>
1.3999

> <Gold.PLP.Chemscore.Hbond>
2.5713

> <Gold.PLP.Chemscore.CHOScore>
0.9966

> <Gold.PLP.Chemscore.Metal>
0.0000

> <Gold.Chemscore.Hbonds>
donor molecule, donor type, donor heavy atom, donor atom, acceptor molecule, acceptor atom, score
      L1  H    19    36       P1  7957  1.00
      L1  H    21    37       P1 10175  1.00
      P1  H  7989  7998       L1     1  0.18
      P1  H  7997  8010       L1     4  0.36
      L1  C    15    32       P1  8028  0.87

> <Gold.PLP.Chemscore.Internal.Correction>
0.0386

> <Gold.Rescore>
     Score         DG    S(hbond)    S(metal)    S(lipo)     H(rot)  DE(clash)    DE(int)     intcor
     15.19     -17.92       1.98        0.00     110.78       2.79       0.50       2.23       ----

> <Gold.Chemscore.Fitness>
15.1875

> <Gold.Chemscore.DG>
-17.9183

> <Gold.Chemscore.ZeroCoef>
-5.4800

> <Gold.Chemscore.Hbond>
1.9787

> <Gold.Chemscore.Metal>
0.0000

> <Gold.Chemscore.Lipo>
110.7843

> <Gold.Chemscore.Internal_Hbond>
0.0000

> <Gold.Chemscore.DEClash>
0.5016

> <Gold.Chemscore.DEInternal>
2.2293

> <Gold.Chemscore.Rot>
2.7860

> <Gold.Chemscore.Internal.Correction>
   9.000000E+99

> <Gold.Chemscore.Hbonds>
donor molecule, donor type, donor heavy atom, donor atom, acceptor molecule, acceptor atom, score
      L1  H    19    36       P1  7957  1.00
      L1  H    21    37       P1 10175  0.96
      P1  H  7997  8010       L1     4  0.01

> <Gold.Chemscore.Hbond.Weighted>
-6.6087

> <Gold.Chemscore.Metal.Weighted>
-0.0000

> <Gold.Chemscore.Lipo.Weighted>
-12.9618

> <Gold.Chemscore.Internal_Hbond.Weighted>
0.0000

> <Gold.Chemscore.DEClash.Weighted>
0.5016

> <Gold.Chemscore.DEInternal.Weighted>
2.2293

> <Gold.Chemscore.Rot.Weighted>
7.1322

> <Gold.Chemscore.Internal.Correction.Weighted>
   9.000000E+99

> <Gold.Protein.RotatedTorsions>
[ 6907 6896 6895 6894 ] final   26.55 input  -60.11 | X-H torsion
[ 7974 7965 7964 7962 ] final  -50.02 input  175.53 | X-H torsion
[ 8008 7997 7996 7995 ] final   22.80 input   59.86 | X-H torsion
[ 10167 10162 10161 10158 ] final  -78.84 input  -65.29 | X-H torsion
[ 10718 10713 10712 10709 ] final   68.25 input   66.30 | X-H torsion
[ 10763 10752 10751 10750 ] final  -24.30 input  -60.55 | X-H torsion
[ 11005 11000 10999 10996 ] final   75.28 input  -57.11 | X-H torsion

> <Gold.Protein.ActiveResidues>
 VAL166  LYS551  ARG553  GLY616  TRP617  ASP618  TYR619  PRO620  LYS621  CYS622 
 ASP623  PHE694  ASN695  SER759  ASP760  ASP761  ALA762  ILE779  LEU786  VAL792 
 PHE793  MET794  SER795  GLU796  ALA797  LYS798  CYS799  TRP800  GLU811  SER814 

> <Gold.Protein.RotatedAtoms>
  151.9891  134.9989  160.0560 H   0  0  0  0  0  0  0  0  0  0  0  0  # atno 6907 bound_to 6896
  152.1625  133.4586  159.4876 H   0  0  0  0  0  0  0  0  0  0  0  0  # atno 6908 bound_to 6896
  150.6890  134.1971  159.4351 H   0  0  0  0  0  0  0  0  0  0  0  0  # atno 6909 bound_to 6896
  145.9343  140.7721  142.9584 H   0  0  0  0  0  0  0  0  0  0  0  0  # atno 7974 bound_to 7965
  154.9711  140.3090  155.4987 H   0  0  0  0  0  0  0  0  0  0  0  0  # atno 8008 bound_to 7997
  156.2965  140.2283  156.4743 H   0  0  0  0  0  0  0  0  0  0  0  0  # atno 8009 bound_to 7997
  154.7875  140.0442  157.1164 H   0  0  0  0  0  0  0  0  0  0  0  0  # atno 8010 bound_to 7997
  140.4647  143.2443  151.8296 H   0  0  0  0  0  0  0  0  0  0  0  0  # atno 10167 bound_to 10162
  157.6278  130.9363  150.0352 H   0  0  0  0  0  0  0  0  0  0  0  0  # atno 10718 bound_to 10713
  153.6816  135.6966  153.5116 H   0  0  0  0  0  0  0  0  0  0  0  0  # atno 10763 bound_to 10752
  153.2480  135.4284  155.0767 H   0  0  0  0  0  0  0  0  0  0  0  0  # atno 10764 bound_to 10752
  154.8398  135.3524  154.6359 H   0  0  0  0  0  0  0  0  0  0  0  0  # atno 10765 bound_to 10752
  139.9351  134.7504  156.1251 H   0  0  0  0  0  0  0  0  0  0  0  0  # atno 11005 bound_to 11000
  144.6769  140.2177  143.7370 LP  0  0  0  0  0  0  0  0  0  0  0  0  # atno 17320 bound_to 7965
  145.8385  139.2118  143.1841 LP  0  0  0  0  0  0  0  0  0  0  0  0  # atno 17321 bound_to 7965
  139.4810  144.4965  151.9116 LP  0  0  0  0  0  0  0  0  0  0  0  0  # atno 17342 bound_to 10162
  140.4051  144.2443  150.5891 LP  0  0  0  0  0  0  0  0  0  0  0  0  # atno 17343 bound_to 10162
  156.1461  130.3642  149.9508 LP  0  0  0  0  0  0  0  0  0  0  0  0  # atno 17370 bound_to 10713
  156.7538  130.9125  151.3638 LP  0  0  0  0  0  0  0  0  0  0  0  0  # atno 17371 bound_to 10713
  141.0961  133.6695  156.2647 LP  0  0  0  0  0  0  0  0  0  0  0  0  # atno 17394 bound_to 11000
  140.6097  134.5471  157.5531 LP  0  0  0  0  0  0  0  0  0  0  0  0  # atno 17395 bound_to 11000

$$$$
