AV-unprocessed.smi:1100|AV-procd|sdf|4763|dock5
  -GOLD-   22720 3303D 1   1.00000     0.00000
 Structure written by MMmdl.
 43 44  0  0  0  0  0  0  0  0  3 V2000
  148.4738  138.7200  154.0463 C   0  0  0  0  0  0  0  0  0  0  0  0
  149.4991  137.9080  154.8773 C   0  0  2  0  0  0  0  0  0  0  0  0
  150.9686  138.3915  154.7246 C   0  0  0  0  0  0  0  0  0  0  0  0
  151.0864  139.8244  155.0009 N   0  5  0  0  0  0  0  0  0  0  0  0
  151.8186  140.3667  156.0127 C   0  0  0  0  0  0  0  0  0  0  0  0
  152.8577  139.9139  156.5055 O   0  0  0  0  0  0  0  0  0  0  0  0
  151.2814  141.5211  156.4546 N   0  0  0  0  0  0  0  0  0  0  0  0
  151.6787  142.3697  157.5010 C   0  0  0  0  0  0  0  0  0  0  0  0
  151.4144  143.7846  157.3485 C   0  0  0  0  0  0  0  0  0  0  0  0
  151.7468  144.6666  158.3111 C   0  0  0  0  0  0  0  0  0  0  0  0
  152.3886  144.2359  159.5549 C   0  0  0  0  0  0  0  0  0  0  0  0
  152.7018  145.0305  160.4422 O   0  0  0  0  0  0  0  0  0  0  0  0
  152.6156  142.8954  159.6672 N   0  0  0  0  0  0  0  0  0  0  0  0
  153.2466  142.3656  160.8790 C   0  0  0  0  0  0  0  0  0  0  0  0
  152.2614  141.9802  158.6569 C   0  0  0  0  0  0  0  0  0  0  0  0
  149.4054  136.4339  154.6390 N   0  3  0  0  0  0  0  0  0  0  0  0
  150.6059  135.6829  155.0835 C   0  0  0  0  0  0  0  0  0  0  0  0
  150.5122  134.2144  154.6352 C   0  0  0  0  0  0  0  0  0  0  0  0
  149.3162  133.6303  155.1375 O   0  0  0  0  0  0  0  0  0  0  0  0
  148.1546  134.2928  154.6527 C   0  0  0  0  0  0  0  0  0  0  0  0
  148.1686  135.7567  155.1202 C   0  0  0  0  0  0  0  0  0  0  0  0
  148.4482  139.7688  154.3471 H   0  0  0  0  0  0  0  0  0  0  0  0
  147.4647  138.3336  154.1909 H   0  0  0  0  0  0  0  0  0  0  0  0
  148.6837  138.6957  152.9756 H   0  0  0  0  0  0  0  0  0  0  0  0
  149.2407  138.0640  155.9259 H   0  0  0  0  0  0  0  0  0  0  0  0
  151.6035  137.8046  155.3905 H   0  0  0  0  0  0  0  0  0  0  0  0
  151.3176  138.1530  153.7197 H   0  0  0  0  0  0  0  0  0  0  0  0
  150.4630  141.8316  155.9519 H   0  0  0  0  0  0  0  0  0  0  0  0
  150.9425  144.1447  156.4458 H   0  0  0  0  0  0  0  0  0  0  0  0
  151.5354  145.7154  158.1637 H   0  0  0  0  0  0  0  0  0  0  0  0
  153.3795  141.2837  160.8501 H   0  0  0  0  0  0  0  0  0  0  0  0
  152.6406  142.5944  161.7572 H   0  0  0  0  0  0  0  0  0  0  0  0
  154.2331  142.8092  161.0223 H   0  0  0  0  0  0  0  0  0  0  0  0
  152.4893  140.9572  158.9079 H   0  0  0  0  0  0  0  0  0  0  0  0
  151.5070  136.1289  154.6606 H   0  0  0  0  0  0  0  0  0  0  0  0
  150.6965  135.7412  156.1691 H   0  0  0  0  0  0  0  0  0  0  0  0
  150.5367  134.1387  153.5471 H   0  0  0  0  0  0  0  0  0  0  0  0
  151.3663  133.6512  155.0117 H   0  0  0  0  0  0  0  0  0  0  0  0
  148.1096  134.2302  153.5642 H   0  0  0  0  0  0  0  0  0  0  0  0
  147.2708  133.7841  155.0380 H   0  0  0  0  0  0  0  0  0  0  0  0
  148.1216  135.7839  156.2095 H   0  0  0  0  0  0  0  0  0  0  0  0
  147.2795  136.2656  154.7469 H   0  0  0  0  0  0  0  0  0  0  0  0
  149.3982  136.3436  153.6328 H   0  0  0  0  0  0  0  0  0  0  0  0
  1  2  1  0  0  0  0
  1 22  1  0  0  0  0
  1 23  1  0  0  0  0
  1 24  1  0  0  0  0
  2  3  1  0  0  0  0
  2 16  1  0  0  0  0
  2 25  1  0  0  0  0
  3  4  1  0  0  0  0
  3 26  1  0  0  0  0
  3 27  1  0  0  0  0
  4  5  1  0  0  0  0
  5  6  2  0  0  0  0
  5  7  1  0  0  0  0
  7  8  1  0  0  0  0
  7 28  1  0  0  0  0
  8 15  2  0  0  0  0
  8  9  1  0  0  0  0
  9 10  2  0  0  0  0
  9 29  1  0  0  0  0
 10 11  1  0  0  0  0
 10 30  1  0  0  0  0
 11 12  2  0  0  0  0
 11 13  1  0  0  0  0
 13 14  1  0  0  0  0
 13 15  1  0  0  0  0
 14 31  1  0  0  0  0
 14 32  1  0  0  0  0
 14 33  1  0  0  0  0
 15 34  1  0  0  0  0
 16 21  1  0  0  0  0
 16 17  1  0  0  0  0
 16 43  1  0  0  0  0
 17 18  1  0  0  0  0
 17 35  1  0  0  0  0
 17 36  1  0  0  0  0
 18 19  1  0  0  0  0
 18 37  1  0  0  0  0
 18 38  1  0  0  0  0
 19 20  1  0  0  0  0
 20 21  1  0  0  0  0
 20 39  1  0  0  0  0
 20 40  1  0  0  0  0
 21 41  1  0  0  0  0
 21 42  1  0  0  0  0
M  CHG  1   4  -1
M  CHG  1  16   1
M  END
> <s_m_source_file>
AV-unprocessed.smi

> <i_m_source_file_index>
1100

> <i_lp_mmshare_version>
43012

> <i_f3d_flags>
0

> <s_epik_input>
W0NIMl0xW0NIMl1PW0NIMl1bQ0gyXU4xW0NASF0oW0NIM10pW0NIMl1bTkhdQyg9TylbTkhdYzJbY0hdW2NIXWMoPU8pbihbQ0gzXSlbY0hdMg==

> <s_epik_cmdline>
J2VwaWtfcHl0aG9uJywgJy1waCcsICc3LjAnLCAnLXRuJywgJzgnLCAnLW1hJywgJzIwMCcsICctbWV0YWxfYmluZGluZycsICctaW1hZScsICc8aW5maWxlLm1hZT4nLCAnLW9tYWUnLCAnPG91dGZpbGUubWFlPic=

> <r_lp_tautomer_probability>
1

> <r_epik_Ionization_Penalty>
6.79272

> <r_epik_Ionization_Penalty_Charging>
6.79272

> <r_epik_Ionization_Penalty_Neutral>
3.37009e-06

> <r_epik_State_Penalty>
7.34577

> <r_epik_Charging_Adjusted_Penalty>
14.1385

> <i_epik_Tot_Q>
0

> <i_epik_Tot_abs_Q>
2

> <r_epik_Metal_State_Penalty>
3.26257

> <b_epik_Metal_Only>
1

> <s_lp_Force_Field>
OPLS_2005

> <r_lp_Energy>
31.7412

> <b_lp_Chiralities_Consistent>
1

> <s_lp_Variant>
AV-unprocessed.smi:1100-5

> <Gold.Version>
5.8.1

> <Gold.Id.Protein>
6NUR|6NUR_protein|mol2

> <Gold.PLP.Fitness>
48.3410

> <Gold.PLP.PLP>
-37.6812

> <Gold.PLP.part.hbond>
-3.0000

> <Gold.PLP.part.metal>
0.0000

> <Gold.PLP.part.buried>
-0.5379

> <Gold.PLP.part.nonpolar>
-33.6002

> <Gold.PLP.part.repulsive>
0.3848

> <Gold.PLP.ligand.clash>
0.0000

> <Gold.PLP.ligand.torsion>
0.7391

> <Gold.PLP.Chemscore.Hbond>
4.0000

> <Gold.PLP.Chemscore.CHOScore>
0.0000

> <Gold.PLP.Chemscore.Metal>
0.0000

> <Gold.Chemscore.Hbonds>
donor molecule, donor type, donor heavy atom, donor atom, acceptor molecule, acceptor atom, score
      L1  H    16    43       P1  7948  2.00
      P1  H  7989  7998       L1     4  1.00
      P1  H  7997  8008       L1     6  0.99

> <Gold.PLP.Chemscore.Internal.Correction>
0.1381

> <Gold.Rescore>
     Score         DG    S(hbond)    S(metal)    S(lipo)     H(rot)  DE(clash)    DE(int)     intcor
     16.50     -18.27       2.16        0.00      80.74       1.51       0.07       1.69       ----

> <Gold.Chemscore.Fitness>
16.5037

> <Gold.Chemscore.DG>
-18.2698

> <Gold.Chemscore.ZeroCoef>
-5.4800

> <Gold.Chemscore.Hbond>
2.1603

> <Gold.Chemscore.Metal>
0.0000

> <Gold.Chemscore.Lipo>
80.7438

> <Gold.Chemscore.Internal_Hbond>
0.0000

> <Gold.Chemscore.DEClash>
0.0741

> <Gold.Chemscore.DEInternal>
1.6919

> <Gold.Chemscore.Rot>
1.5128

> <Gold.Chemscore.Internal.Correction>
   9.000000E+99

> <Gold.Chemscore.Hbonds>
donor molecule, donor type, donor heavy atom, donor atom, acceptor molecule, acceptor atom, score
      L1  H    16    43       P1  7948  0.78
      P1  H  7989  7998       L1     4  0.31
      P1  H  7997  8008       L1     6  0.91

> <Gold.Chemscore.Hbond.Weighted>
-7.2154

> <Gold.Chemscore.Metal.Weighted>
-0.0000

> <Gold.Chemscore.Lipo.Weighted>
-9.4470

> <Gold.Chemscore.Internal_Hbond.Weighted>
0.0000

> <Gold.Chemscore.DEClash.Weighted>
0.0741

> <Gold.Chemscore.DEInternal.Weighted>
1.6919

> <Gold.Chemscore.Rot.Weighted>
3.8726

> <Gold.Chemscore.Internal.Correction.Weighted>
   9.000000E+99

> <Gold.Protein.RotatedTorsions>
[ 6907 6896 6895 6894 ] final -101.62 input  -60.11 | X-H torsion
[ 7974 7965 7964 7962 ] final -146.69 input  175.53 | X-H torsion
[ 8008 7997 7996 7995 ] final  -59.79 input   59.86 | X-H torsion
[ 10167 10162 10161 10158 ] final   97.88 input  -65.29 | X-H torsion
[ 10718 10713 10712 10709 ] final   58.41 input   66.30 | X-H torsion
[ 10763 10752 10751 10750 ] final    4.56 input  -60.55 | X-H torsion
[ 11005 11000 10999 10996 ] final   43.25 input  -57.11 | X-H torsion

> <Gold.Protein.ActiveResidues>
 VAL166  LYS551  ARG553  GLY616  TRP617  ASP618  TYR619  PRO620  LYS621  CYS622 
 ASP623  PHE694  ASN695  SER759  ASP760  ASP761  ALA762  ILE779  LEU786  VAL792 
 PHE793  MET794  SER795  GLU796  ALA797  LYS798  CYS799  TRP800  GLU811  SER814 

> <Gold.Protein.RotatedAtoms>
  150.7162  134.0707  159.3863 H   0  0  0  0  0  0  0  0  0  0  0  0  # atno 6907 bound_to 6896
  151.8689  135.0494  160.0486 H   0  0  0  0  0  0  0  0  0  0  0  0  # atno 6908 bound_to 6896
  152.2659  133.5303  159.5446 H   0  0  0  0  0  0  0  0  0  0  0  0  # atno 6909 bound_to 6896
  144.8143  140.5424  143.5621 H   0  0  0  0  0  0  0  0  0  0  0  0  # atno 7974 bound_to 7965
  154.4368  140.1054  156.6171 H   0  0  0  0  0  0  0  0  0  0  0  0  # atno 8008 bound_to 7997
  155.5748  140.3490  155.4506 H   0  0  0  0  0  0  0  0  0  0  0  0  # atno 8009 bound_to 7997
  156.0363  140.1272  157.0193 H   0  0  0  0  0  0  0  0  0  0  0  0  # atno 8010 bound_to 7997
  139.7760  144.6905  151.0089 H   0  0  0  0  0  0  0  0  0  0  0  0  # atno 10167 bound_to 10162
  157.5594  130.8824  149.9086 H   0  0  0  0  0  0  0  0  0  0  0  0  # atno 10718 bound_to 10713
  153.2698  135.6931  153.7492 H   0  0  0  0  0  0  0  0  0  0  0  0  # atno 10763 bound_to 10752
  153.6520  135.3375  155.3103 H   0  0  0  0  0  0  0  0  0  0  0  0  # atno 10764 bound_to 10752
  154.8460  135.4456  154.1717 H   0  0  0  0  0  0  0  0  0  0  0  0  # atno 10765 bound_to 10752
  140.1662  134.4279  155.8286 H   0  0  0  0  0  0  0  0  0  0  0  0  # atno 11005 bound_to 11000
  145.5251  139.1476  143.3530 LP  0  0  0  0  0  0  0  0  0  0  0  0  # atno 17320 bound_to 7965
  146.2444  140.5392  142.8920 LP  0  0  0  0  0  0  0  0  0  0  0  0  # atno 17321 bound_to 7965
  140.7816  143.4535  151.0378 LP  0  0  0  0  0  0  0  0  0  0  0  0  # atno 17342 bound_to 10162
  139.8217  143.7810  152.3177 LP  0  0  0  0  0  0  0  0  0  0  0  0  # atno 17343 bound_to 10162
  156.0648  130.3694  150.0902 LP  0  0  0  0  0  0  0  0  0  0  0  0  # atno 17370 bound_to 10713
  156.9068  130.9638  151.3569 LP  0  0  0  0  0  0  0  0  0  0  0  0  # atno 17371 bound_to 10713
  141.2214  133.6935  156.7682 LP  0  0  0  0  0  0  0  0  0  0  0  0  # atno 17394 bound_to 11000
  140.2431  134.8598  157.3593 LP  0  0  0  0  0  0  0  0  0  0  0  0  # atno 17395 bound_to 11000

$$$$
