AV-unprocessed.smi:719|AV-procd|sdf|3494|dock3
  -GOLD-   22720 0493D 1   1.00000     0.00000
 Structure written by MMmdl.
 41 43  0  0  0  0  0  0  0  0  1 V2000
  143.7583  145.9029  153.9642 C   0  0  0  0  0  0  0  0  0  0  0  0
  143.3571  144.6399  154.7340 C   0  0  0  0  0  0  0  0  0  0  0  0
  144.5478  143.8482  155.1890 C   0  0  0  0  0  0  0  0  0  0  0  0
  145.4122  143.3017  154.2354 N   0  0  0  0  0  0  0  0  0  0  0  0
  146.4191  142.6185  154.7834 C   0  0  0  0  0  0  0  0  0  0  0  0
  147.4969  141.9602  153.9895 C   0  0  0  0  0  0  0  0  0  0  0  0
  148.4787  141.1757  154.8749 C   0  0  0  0  0  0  0  0  0  0  0  0
  149.3514  142.0627  155.6356 N   0  0  0  0  0  0  0  0  0  0  0  0
  150.4807  141.6894  156.2566 C   0  0  0  0  0  0  0  0  0  0  0  0
  150.9078  140.5342  156.2350 O   0  0  0  0  0  0  0  0  0  0  0  0
  151.1742  142.8018  156.9731 C   0  0  2  0  0  0  0  0  0  0  0  0
  151.5915  142.5521  158.4111 C   0  0  1  0  0  0  0  0  0  0  0  0
  152.6784  143.3556  159.0874 C   0  0  0  0  0  0  0  0  0  0  0  0
  152.3062  144.8320  158.8655 C   0  0  0  0  0  0  0  0  0  0  0  0
  150.7875  144.8478  158.6197 C   0  0  0  0  0  0  0  0  0  0  0  0
  150.4371  143.4634  158.1245 C   0  0  1  0  0  0  0  0  0  0  0  0
  146.3889  142.6344  156.5408 S   0  0  0  0  0  0  0  0  0  0  0  0
  144.9288  143.5889  156.4851 C   0  0  0  0  0  0  0  0  0  0  0  0
  144.2524  144.0247  157.7425 C   0  0  0  0  0  0  0  0  0  0  0  0
  142.8773  146.4634  153.6514 H   0  0  0  0  0  0  0  0  0  0  0  0
  144.3297  145.6544  153.0694 H   0  0  0  0  0  0  0  0  0  0  0  0
  144.3703  146.5612  154.5815 H   0  0  0  0  0  0  0  0  0  0  0  0
  142.7400  144.9210  155.5878 H   0  0  0  0  0  0  0  0  0  0  0  0
  142.7197  144.0225  154.1000 H   0  0  0  0  0  0  0  0  0  0  0  0
  147.0288  141.2991  153.2594 H   0  0  0  0  0  0  0  0  0  0  0  0
  148.0296  142.7241  153.4220 H   0  0  0  0  0  0  0  0  0  0  0  0
  147.9256  140.5588  155.5837 H   0  0  0  0  0  0  0  0  0  0  0  0
  149.0778  140.4927  154.2700 H   0  0  0  0  0  0  0  0  0  0  0  0
  149.0732  143.0314  155.6996 H   0  0  0  0  0  0  0  0  0  0  0  0
  151.8260  143.4330  156.3705 H   0  0  0  0  0  0  0  0  0  0  0  0
  151.3849  141.5734  158.8413 H   0  0  0  0  0  0  0  0  0  0  0  0
  152.6772  143.1200  160.1521 H   0  0  0  0  0  0  0  0  0  0  0  0
  153.6595  143.1059  158.6829 H   0  0  0  0  0  0  0  0  0  0  0  0
  152.6019  145.4675  159.7007 H   0  0  0  0  0  0  0  0  0  0  0  0
  152.8186  145.2027  157.9768 H   0  0  0  0  0  0  0  0  0  0  0  0
  150.2542  145.0310  159.5532 H   0  0  0  0  0  0  0  0  0  0  0  0
  150.4874  145.6091  157.8991 H   0  0  0  0  0  0  0  0  0  0  0  0
  149.4324  143.1153  158.3590 H   0  0  0  0  0  0  0  0  0  0  0  0
  144.0871  145.1024  157.7391 H   0  0  0  0  0  0  0  0  0  0  0  0
  144.8524  143.7811  158.6198 H   0  0  0  0  0  0  0  0  0  0  0  0
  143.2850  143.5341  157.8503 H   0  0  0  0  0  0  0  0  0  0  0  0
  1  2  1  0  0  0  0
  1 20  1  0  0  0  0
  1 21  1  0  0  0  0
  1 22  1  0  0  0  0
  2  3  1  0  0  0  0
  2 23  1  0  0  0  0
  2 24  1  0  0  0  0
  3 18  2  0  0  0  0
  3  4  1  0  0  0  0
  4  5  2  0  0  0  0
  5  6  1  0  0  0  0
  5 17  1  0  0  0  0
  6  7  1  0  0  0  0
  6 25  1  0  0  0  0
  6 26  1  0  0  0  0
  7  8  1  0  0  0  0
  7 27  1  0  0  0  0
  7 28  1  0  0  0  0
  8  9  1  0  0  0  0
  8 29  1  0  0  0  0
  9 10  2  0  0  0  0
  9 11  1  0  0  0  0
 11 16  1  0  0  0  0
 11 12  1  0  0  0  0
 11 30  1  0  0  0  0
 12 16  1  0  0  0  0
 12 13  1  0  0  0  0
 12 31  1  0  0  0  0
 13 14  1  0  0  0  0
 13 32  1  0  0  0  0
 13 33  1  0  0  0  0
 14 15  1  0  0  0  0
 14 34  1  0  0  0  0
 14 35  1  0  0  0  0
 15 16  1  0  0  0  0
 15 36  1  0  0  0  0
 15 37  1  0  0  0  0
 16 38  1  0  0  0  0
 17 18  1  0  0  0  0
 18 19  1  0  0  0  0
 19 39  1  0  0  0  0
 19 40  1  0  0  0  0
 19 41  1  0  0  0  0
M  END
> <s_m_source_file>
AV-unprocessed.smi

> <i_m_source_file_index>
719

> <i_lp_mmshare_version>
43012

> <i_f3d_flags>
0

> <s_epik_input>
W0NIM11bQ0gyXWMxbmMoc2MxW0NIM10pW0NIMl1bQ0gyXVtOSF1DKD1PKVtDQEhdMltDQEhdKFtDQEBIXTIzKVtDSDJdW0NIMl1bQ0gyXTM=

> <s_epik_cmdline>
J2VwaWtfcHl0aG9uJywgJy1waCcsICc3LjAnLCAnLXRuJywgJzgnLCAnLW1hJywgJzIwMCcsICctbWV0YWxfYmluZGluZycsICctaW1hZScsICc8aW5maWxlLm1hZT4nLCAnLW9tYWUnLCAnPG91dGZpbGUubWFlPic=

> <r_epik_Ionization_Penalty>
0.00247473

> <r_epik_Ionization_Penalty_Charging>
0

> <r_epik_Ionization_Penalty_Neutral>
0.00247473

> <r_epik_State_Penalty>
0.00171502

> <r_epik_Charging_Adjusted_Penalty>
0.00171502

> <i_epik_Tot_Q>
0

> <i_epik_Tot_abs_Q>
0

> <r_epik_Metal_State_Penalty>
-0

> <b_epik_Metal_Only>
0

> <s_lp_Force_Field>
OPLS_2005

> <r_lp_Energy>
19.4586

> <b_lp_Chiralities_Consistent>
1

> <s_lp_Variant>
AV-unprocessed.smi:719-2

> <Gold.Version>
5.8.1

> <Gold.Id.Protein>
6NUR|6NUR_protein|mol2

> <Gold.PLP.Fitness>
43.1544

> <Gold.PLP.PLP>
-40.6173

> <Gold.PLP.part.hbond>
-1.0000

> <Gold.PLP.part.metal>
0.0000

> <Gold.PLP.part.buried>
-6.3220

> <Gold.PLP.part.nonpolar>
-33.6048

> <Gold.PLP.part.repulsive>
0.3832

> <Gold.PLP.ligand.clash>
0.0000

> <Gold.PLP.ligand.torsion>
0.2865

> <Gold.PLP.Chemscore.Hbond>
1.0000

> <Gold.PLP.Chemscore.CHOScore>
0.0000

> <Gold.PLP.Chemscore.Metal>
0.0000

> <Gold.Chemscore.Hbonds>
donor molecule, donor type, donor heavy atom, donor atom, acceptor molecule, acceptor atom, score
      L1  H     8    29       P1  8028  1.00

> <Gold.PLP.Chemscore.Internal.Correction>
0.1100

> <Gold.Rescore>
     Score         DG    S(hbond)    S(metal)    S(lipo)     H(rot)  DE(clash)    DE(int)     intcor
     17.37     -17.58       1.00        0.00     106.10       1.42       0.03       0.17       ----

> <Gold.Chemscore.Fitness>
17.3748

> <Gold.Chemscore.DG>
-17.5795

> <Gold.Chemscore.ZeroCoef>
-5.4800

> <Gold.Chemscore.Hbond>
0.9952

> <Gold.Chemscore.Metal>
0.0000

> <Gold.Chemscore.Lipo>
106.0953

> <Gold.Chemscore.Internal_Hbond>
0.0000

> <Gold.Chemscore.DEClash>
0.0299

> <Gold.Chemscore.DEInternal>
0.1748

> <Gold.Chemscore.Rot>
1.4209

> <Gold.Chemscore.Internal.Correction>
   9.000000E+99

> <Gold.Chemscore.Hbonds>
donor molecule, donor type, donor heavy atom, donor atom, acceptor molecule, acceptor atom, score
      L1  H     8    29       P1  8028  1.00

> <Gold.Chemscore.Hbond.Weighted>
-3.3239

> <Gold.Chemscore.Metal.Weighted>
-0.0000

> <Gold.Chemscore.Lipo.Weighted>
-12.4131

> <Gold.Chemscore.Internal_Hbond.Weighted>
0.0000

> <Gold.Chemscore.DEClash.Weighted>
0.0299

> <Gold.Chemscore.DEInternal.Weighted>
0.1748

> <Gold.Chemscore.Rot.Weighted>
3.6376

> <Gold.Chemscore.Internal.Correction.Weighted>
   9.000000E+99

> <Gold.Protein.RotatedTorsions>
[ 6907 6896 6895 6894 ] final   92.75 input  -60.11 | X-H torsion
[ 7974 7965 7964 7962 ] final  -69.61 input  175.53 | X-H torsion
[ 8008 7997 7996 7995 ] final    4.77 input   59.86 | X-H torsion
[ 10167 10162 10161 10158 ] final    4.37 input  -65.29 | X-H torsion
[ 10718 10713 10712 10709 ] final -174.30 input   66.30 | X-H torsion
[ 10763 10752 10751 10750 ] final   23.60 input  -60.55 | X-H torsion
[ 11005 11000 10999 10996 ] final  -73.01 input  -57.11 | X-H torsion

> <Gold.Protein.ActiveResidues>
 VAL166  LYS551  ARG553  GLY616  TRP617  ASP618  TYR619  PRO620  LYS621  CYS622 
 ASP623  PHE694  ASN695  SER759  ASP760  ASP761  ALA762  ILE779  LEU786  VAL792 
 PHE793  MET794  SER795  GLU796  ALA797  LYS798  CYS799  TRP800  GLU811  SER814 

> <Gold.Protein.RotatedAtoms>
  152.5453  134.1453  159.8495 H   0  0  0  0  0  0  0  0  0  0  0  0  # atno 6907 bound_to 6896
  151.1485  133.4916  159.2603 H   0  0  0  0  0  0  0  0  0  0  0  0  # atno 6908 bound_to 6896
  151.1497  135.0231  159.8717 H   0  0  0  0  0  0  0  0  0  0  0  0  # atno 6909 bound_to 6896
  145.7016  140.9114  143.0728 H   0  0  0  0  0  0  0  0  0  0  0  0  # atno 7974 bound_to 7965
  154.7200  140.2710  155.6550 H   0  0  0  0  0  0  0  0  0  0  0  0  # atno 8008 bound_to 7997
  156.2821  140.2736  156.1793 H   0  0  0  0  0  0  0  0  0  0  0  0  # atno 8009 bound_to 7997
  155.0520  140.0371  157.2537 H   0  0  0  0  0  0  0  0  0  0  0  0  # atno 8010 bound_to 7997
  140.6538  143.7479  150.7619 H   0  0  0  0  0  0  0  0  0  0  0  0  # atno 10167 bound_to 10162
  156.7830  130.9490  151.3120 H   0  0  0  0  0  0  0  0  0  0  0  0  # atno 10718 bound_to 10713
  153.0826  135.6623  154.0014 H   0  0  0  0  0  0  0  0  0  0  0  0  # atno 10763 bound_to 10752
  153.9632  135.2972  155.3433 H   0  0  0  0  0  0  0  0  0  0  0  0  # atno 10764 bound_to 10752
  154.7228  135.5157  153.8911 H   0  0  0  0  0  0  0  0  0  0  0  0  # atno 10765 bound_to 10752
  141.1617  133.6865  156.7147 H   0  0  0  0  0  0  0  0  0  0  0  0  # atno 11005 bound_to 11000
  144.6967  139.8955  143.7455 LP  0  0  0  0  0  0  0  0  0  0  0  0  # atno 17320 bound_to 7965
  146.0793  139.3781  143.0474 LP  0  0  0  0  0  0  0  0  0  0  0  0  # atno 17321 bound_to 7965
  140.1134  143.4678  152.2356 LP  0  0  0  0  0  0  0  0  0  0  0  0  # atno 17342 bound_to 10162
  139.5757  144.7486  151.3772 LP  0  0  0  0  0  0  0  0  0  0  0  0  # atno 17343 bound_to 10162
  157.6637  130.8989  149.9885 LP  0  0  0  0  0  0  0  0  0  0  0  0  # atno 17370 bound_to 10713
  156.1206  130.3646  149.9894 LP  0  0  0  0  0  0  0  0  0  0  0  0  # atno 17371 bound_to 10713
  140.2861  134.8278  157.3976 LP  0  0  0  0  0  0  0  0  0  0  0  0  # atno 17394 bound_to 11000
  140.1389  134.4998  155.8047 LP  0  0  0  0  0  0  0  0  0  0  0  0  # atno 17395 bound_to 11000

$$$$
