AV-unprocessed.smi:1021|AV-procd|sdf|4455|dock1
  -GOLD-   22720 2423D 1   1.00000     0.00000
 Structure written by MMmdl.
 42 44  0  0  0  0  0  0  0  0  1 V2000
  151.7932  136.8821  154.2358 O   0  0  0  0  0  0  0  0  0  0  0  0
  151.9729  138.2812  154.2888 C   0  0  0  0  0  0  0  0  0  0  0  0
  152.2413  138.7374  155.7300 C   0  0  0  0  0  0  0  0  0  0  0  0
  152.0663  140.2524  155.9318 C   0  0  0  0  0  0  0  0  0  0  0  0
  150.6608  140.7087  155.6690 C   0  0  0  0  0  0  0  0  0  0  0  0
  150.0898  140.5386  154.4759 N   0  0  0  0  0  0  0  0  0  0  0  0
  148.8430  141.1055  154.6489 C   0  0  0  0  0  0  0  0  0  0  0  0
  147.7657  141.2480  153.7451 C   0  0  0  0  0  0  0  0  0  0  0  0
  146.5700  141.8752  154.1526 C   0  0  0  0  0  0  0  0  0  0  0  0
  146.4349  142.3679  155.4665 C   0  0  0  0  0  0  0  0  0  0  0  0
  147.4961  142.2357  156.3825 C   0  0  0  0  0  0  0  0  0  0  0  0
  148.6877  141.6079  155.9716 C   0  0  0  0  0  0  0  0  0  0  0  0
  149.8932  141.3226  156.6073 N   0  0  0  0  0  0  0  0  0  0  0  0
  150.2197  141.6312  157.9948 C   0  0  0  0  0  0  0  0  0  0  0  0
  151.2236  142.7921  158.1389 C   0  0  1  0  0  0  0  0  0  0  0  0
  150.5847  144.0215  157.8520 O   0  0  0  0  0  0  0  0  0  0  0  0
  151.8783  142.7866  159.5117 C   0  0  0  0  0  0  0  0  0  0  0  0
  151.6317  143.8450  160.4126 C   0  0  0  0  0  0  0  0  0  0  0  0
  152.2395  143.8520  161.6834 C   0  0  0  0  0  0  0  0  0  0  0  0
  153.0990  142.8021  162.0597 C   0  0  0  0  0  0  0  0  0  0  0  0
  153.6822  142.8089  163.2815 F   0  0  0  0  0  0  0  0  0  0  0  0
  153.3527  141.7460  161.1637 C   0  0  0  0  0  0  0  0  0  0  0  0
  152.7462  141.7390  159.8925 C   0  0  0  0  0  0  0  0  0  0  0  0
  150.8750  136.6914  154.3526 H   0  0  0  0  0  0  0  0  0  0  0  0
  152.7930  138.5696  153.6305 H   0  0  0  0  0  0  0  0  0  0  0  0
  151.0705  138.7595  153.9076 H   0  0  0  0  0  0  0  0  0  0  0  0
  151.5542  138.2081  156.3901 H   0  0  0  0  0  0  0  0  0  0  0  0
  153.2434  138.4333  156.0352 H   0  0  0  0  0  0  0  0  0  0  0  0
  152.3260  140.5216  156.9563 H   0  0  0  0  0  0  0  0  0  0  0  0
  152.7672  140.7917  155.2974 H   0  0  0  0  0  0  0  0  0  0  0  0
  147.8604  140.8754  152.7361 H   0  0  0  0  0  0  0  0  0  0  0  0
  145.7535  141.9795  153.4533 H   0  0  0  0  0  0  0  0  0  0  0  0
  145.5167  142.8484  155.7710 H   0  0  0  0  0  0  0  0  0  0  0  0
  147.3959  142.6163  157.3879 H   0  0  0  0  0  0  0  0  0  0  0  0
  149.2961  141.8754  158.5202 H   0  0  0  0  0  0  0  0  0  0  0  0
  150.5989  140.7300  158.4769 H   0  0  0  0  0  0  0  0  0  0  0  0
  152.0115  142.6741  157.3962 H   0  0  0  0  0  0  0  0  0  0  0  0
  150.0458  143.9072  157.0842 H   0  0  0  0  0  0  0  0  0  0  0  0
  150.9762  144.6566  160.1319 H   0  0  0  0  0  0  0  0  0  0  0  0
  152.0472  144.6637  162.3692 H   0  0  0  0  0  0  0  0  0  0  0  0
  154.0137  140.9416  161.4507 H   0  0  0  0  0  0  0  0  0  0  0  0
  152.9517  140.9268  159.2106 H   0  0  0  0  0  0  0  0  0  0  0  0
  1  2  1  0  0  0  0
  1 24  1  0  0  0  0
  2  3  1  0  0  0  0
  2 25  1  0  0  0  0
  2 26  1  0  0  0  0
  3  4  1  0  0  0  0
  3 27  1  0  0  0  0
  3 28  1  0  0  0  0
  4  5  1  0  0  0  0
  4 29  1  0  0  0  0
  4 30  1  0  0  0  0
  5 13  1  0  0  0  0
  5  6  2  0  0  0  0
  6  7  1  0  0  0  0
  7 12  2  0  0  0  0
  7  8  1  0  0  0  0
  8  9  2  0  0  0  0
  8 31  1  0  0  0  0
  9 10  1  0  0  0  0
  9 32  1  0  0  0  0
 10 11  2  0  0  0  0
 10 33  1  0  0  0  0
 11 12  1  0  0  0  0
 11 34  1  0  0  0  0
 12 13  1  0  0  0  0
 13 14  1  0  0  0  0
 14 15  1  0  0  0  0
 14 35  1  0  0  0  0
 14 36  1  0  0  0  0
 15 16  1  0  0  0  0
 15 17  1  0  0  0  0
 15 37  1  0  0  0  0
 16 38  1  0  0  0  0
 17 23  1  0  0  0  0
 17 18  2  0  0  0  0
 18 19  1  0  0  0  0
 18 39  1  0  0  0  0
 19 20  2  0  0  0  0
 19 40  1  0  0  0  0
 20 21  1  0  0  0  0
 20 22  1  0  0  0  0
 22 23  2  0  0  0  0
 22 41  1  0  0  0  0
 23 42  1  0  0  0  0
M  END
> <s_m_source_file>
AV-unprocessed.smi

> <i_m_source_file_index>
1021

> <i_lp_mmshare_version>
43012

> <i_f3d_flags>
0

> <s_epik_input>
W09IXVtDSDJdW0NIMl1bQ0gyXWMobjEpbihjKGMxMilbY0hdW2NIXVtjSF1bY0hdMilbQ0gyXVtDQEhdKFtPSF0pYzNbY0hdW2NIXWMoRilbY0hdW2NIXTM=

> <s_epik_cmdline>
J2VwaWtfcHl0aG9uJywgJy1waCcsICc3LjAnLCAnLXRuJywgJzgnLCAnLW1hJywgJzIwMCcsICctbWV0YWxfYmluZGluZycsICctaW1hZScsICc8aW5maWxlLm1hZT4nLCAnLW9tYWUnLCAnPG91dGZpbGUubWFlPic=

> <r_epik_Ionization_Penalty>
0.182562

> <r_epik_Ionization_Penalty_Charging>
0

> <r_epik_Ionization_Penalty_Neutral>
0.182562

> <r_epik_State_Penalty>
0.172086

> <r_epik_Charging_Adjusted_Penalty>
0.172086

> <i_epik_Tot_Q>
0

> <i_epik_Tot_abs_Q>
0

> <r_epik_Metal_State_Penalty>
0.000199649

> <b_epik_Metal_Only>
0

> <s_lp_Force_Field>
OPLS_2005

> <r_lp_Energy>
11.397

> <b_lp_Chiralities_Consistent>
1

> <s_lp_Variant>
AV-unprocessed.smi:1021-2

> <Gold.Version>
5.8.1

> <Gold.Id.Protein>
6NUR|6NUR_protein|mol2

> <Gold.PLP.Fitness>
64.7533

> <Gold.PLP.PLP>
-57.4544

> <Gold.PLP.part.hbond>
-4.0000

> <Gold.PLP.part.metal>
0.0000

> <Gold.PLP.part.buried>
-5.1484

> <Gold.PLP.part.nonpolar>
-48.1348

> <Gold.PLP.part.repulsive>
0.1116

> <Gold.PLP.ligand.clash>
0.0000

> <Gold.PLP.ligand.torsion>
0.4674

> <Gold.PLP.Chemscore.Hbond>
2.7056

> <Gold.PLP.Chemscore.CHOScore>
0.0000

> <Gold.PLP.Chemscore.Metal>
0.0000

> <Gold.Chemscore.Hbonds>
donor molecule, donor type, donor heavy atom, donor atom, acceptor molecule, acceptor atom, score
      L1  H    16    38       P1  8028  0.94
      P1  H  7989  7998       L1     6  0.69
      P1  H 10752 10763       L1     1  1.00

> <Gold.PLP.Chemscore.Internal.Correction>
0.1169

> <Gold.Rescore>
     Score         DG    S(hbond)    S(metal)    S(lipo)     H(rot)  DE(clash)    DE(int)     intcor
     18.41     -19.78       1.92        0.00     134.69       3.07       0.78       0.59       ----

> <Gold.Chemscore.Fitness>
18.4060

> <Gold.Chemscore.DG>
-19.7775

> <Gold.Chemscore.ZeroCoef>
-5.4800

> <Gold.Chemscore.Hbond>
1.9189

> <Gold.Chemscore.Metal>
0.0000

> <Gold.Chemscore.Lipo>
134.6852

> <Gold.Chemscore.Internal_Hbond>
0.0000

> <Gold.Chemscore.DEClash>
0.7789

> <Gold.Chemscore.DEInternal>
0.5927

> <Gold.Chemscore.Rot>
3.0741

> <Gold.Chemscore.Internal.Correction>
   9.000000E+99

> <Gold.Chemscore.Hbonds>
donor molecule, donor type, donor heavy atom, donor atom, acceptor molecule, acceptor atom, score
      L1  H    16    38       P1  8028  0.84
      P1  H  7989  7998       L1     6  0.10
      P1  H 10752 10763       L1     1  0.98

> <Gold.Chemscore.Hbond.Weighted>
-6.4092

> <Gold.Chemscore.Metal.Weighted>
-0.0000

> <Gold.Chemscore.Lipo.Weighted>
-15.7582

> <Gold.Chemscore.Internal_Hbond.Weighted>
0.0000

> <Gold.Chemscore.DEClash.Weighted>
0.7789

> <Gold.Chemscore.DEInternal.Weighted>
0.5927

> <Gold.Chemscore.Rot.Weighted>
7.8698

> <Gold.Chemscore.Internal.Correction.Weighted>
   9.000000E+99

> <Gold.Protein.RotatedTorsions>
[ 6907 6896 6895 6894 ] final  -53.58 input  -60.11 | X-H torsion
[ 7974 7965 7964 7962 ] final -123.60 input  175.53 | X-H torsion
[ 8008 7997 7996 7995 ] final  -38.85 input   59.86 | X-H torsion
[ 10167 10162 10161 10158 ] final  174.67 input  -65.29 | X-H torsion
[ 10718 10713 10712 10709 ] final  135.77 input   66.30 | X-H torsion
[ 10763 10752 10751 10750 ] final   30.18 input  -60.55 | X-H torsion
[ 11005 11000 10999 10996 ] final -165.26 input  -57.11 | X-H torsion

> <Gold.Protein.ActiveResidues>
 VAL166  LYS551  ARG553  GLY616  TRP617  ASP618  TYR619  PRO620  LYS621  CYS622 
 ASP623  PHE694  ASN695  SER759  ASP760  ASP761  ALA762  ILE779  LEU786  VAL792 
 PHE793  MET794  SER795  GLU796  ALA797  LYS798  CYS799  TRP800  GLU811  SER814 

> <Gold.Protein.RotatedAtoms>
  150.8414  134.7707  159.6934 H   0  0  0  0  0  0  0  0  0  0  0  0  # atno 6907 bound_to 6896
  152.4500  134.5410  159.9849 H   0  0  0  0  0  0  0  0  0  0  0  0  # atno 6908 bound_to 6896
  151.5549  133.3374  159.2996 H   0  0  0  0  0  0  0  0  0  0  0  0  # atno 6909 bound_to 6896
  145.0170  140.7955  143.4404 H   0  0  0  0  0  0  0  0  0  0  0  0  # atno 7974 bound_to 7965
  154.4031  140.1567  156.2767 H   0  0  0  0  0  0  0  0  0  0  0  0  # atno 8008 bound_to 7997
  155.8906  140.3439  155.5931 H   0  0  0  0  0  0  0  0  0  0  0  0  # atno 8009 bound_to 7997
  155.7563  140.0811  157.2167 H   0  0  0  0  0  0  0  0  0  0  0  0  # atno 8010 bound_to 7997
  139.5150  144.3120  152.0283 H   0  0  0  0  0  0  0  0  0  0  0  0  # atno 10167 bound_to 10162
  157.4536  131.1068  151.0003 H   0  0  0  0  0  0  0  0  0  0  0  0  # atno 10718 bound_to 10713
  153.0387  135.6470  154.1004 H   0  0  0  0  0  0  0  0  0  0  0  0  # atno 10763 bound_to 10752
  154.0715  135.2880  155.3309 H   0  0  0  0  0  0  0  0  0  0  0  0  # atno 10764 bound_to 10752
  154.6591  135.5398  153.8060 H   0  0  0  0  0  0  0  0  0  0  0  0  # atno 10765 bound_to 10752
  140.5777  134.5173  157.5173 H   0  0  0  0  0  0  0  0  0  0  0  0  # atno 11005 bound_to 11000
  145.1947  139.2283  143.5224 LP  0  0  0  0  0  0  0  0  0  0  0  0  # atno 17320 bound_to 7965
  146.3479  140.1751  142.8589 LP  0  0  0  0  0  0  0  0  0  0  0  0  # atno 17321 bound_to 7965
  140.2564  144.4114  150.6202 LP  0  0  0  0  0  0  0  0  0  0  0  0  # atno 17342 bound_to 10162
  140.6188  143.2174  151.6736 LP  0  0  0  0  0  0  0  0  0  0  0  0  # atno 17343 bound_to 10162
  157.0825  130.5909  149.5423 LP  0  0  0  0  0  0  0  0  0  0  0  0  # atno 17370 bound_to 10713
  155.9998  130.5074  150.7619 LP  0  0  0  0  0  0  0  0  0  0  0  0  # atno 17371 bound_to 10713
  139.9332  134.7925  156.0875 LP  0  0  0  0  0  0  0  0  0  0  0  0  # atno 17394 bound_to 11000
  141.1016  133.6675  156.2767 LP  0  0  0  0  0  0  0  0  0  0  0  0  # atno 17395 bound_to 11000

$$$$
