AV-unprocessed.smi:40|AV-procd|sdf|379|dock5
  -GOLD-   2262016233D 1   1.00000     0.00000
 Structure written by MMmdl.
 47 48  0  0  0  0  0  0  0  0  1 V2000
  152.4193  143.2272  161.5024 C   0  0  0  0  0  0  0  0  0  0  0  0
  152.4137  142.9324  159.9983 C   0  0  0  0  0  0  0  0  0  0  0  0
  152.4810  141.4293  159.6948 C   0  0  0  0  0  0  0  0  0  0  0  0
  153.7559  140.7678  160.2451 C   0  0  0  0  0  0  0  0  0  0  0  0
  153.7478  139.2382  160.1116 C   0  0  0  0  0  0  0  0  0  0  0  0
  152.9547  138.8824  158.9923 O   0  0  0  0  0  0  0  0  0  0  0  0
  152.6785  137.5985  158.7146 C   0  0  0  0  0  0  0  0  0  0  0  0
  153.0287  136.6541  159.4220 O   0  0  0  0  0  0  0  0  0  0  0  0
  151.9207  137.4607  157.4771 N   0  0  0  0  0  0  0  0  0  0  0  0
  151.4488  136.3509  156.8504 C   0  0  0  0  0  0  0  0  0  0  0  0
  151.5908  135.1239  157.3264 N   0  0  0  0  0  0  0  0  0  0  0  0
  151.1115  133.9964  156.7188 C   0  0  0  0  0  0  0  0  0  0  0  0
  151.2590  132.8961  157.2452 O   0  0  0  0  0  0  0  0  0  0  0  0
  150.4414  134.1609  155.4820 N   0  0  0  0  0  0  0  0  0  0  0  0
  149.8315  132.9749  154.7620 C   0  0  2  0  0  0  0  0  0  0  0  0
  149.3455  133.3975  153.5258 O   0  0  0  0  0  0  0  0  0  0  0  0
  148.2228  132.5967  153.1810 C   0  0  2  0  0  0  0  0  0  0  0  0
  147.3811  133.2647  152.0837 C   0  0  0  0  0  0  0  0  0  0  0  0
  147.5158  132.3239  154.5187 C   0  0  2  0  0  0  0  0  0  0  0  0
  146.5806  133.3406  154.8320 O   0  0  0  0  0  0  0  0  0  0  0  0
  148.6814  132.2552  155.5072 C   0  0  2  0  0  0  0  0  0  0  0  0
  148.3773  132.7351  156.8065 O   0  0  0  0  0  0  0  0  0  0  0  0
  150.2668  135.4371  154.9698 C   0  0  0  0  0  0  0  0  0  0  0  0
  150.7458  136.5330  155.5979 C   0  0  0  0  0  0  0  0  0  0  0  0
  150.5665  137.7573  155.0719 F   0  0  0  0  0  0  0  0  0  0  0  0
  150.6620  132.2930  154.5747 H   0  0  0  0  0  0  0  0  0  0  0  0
  148.6101  131.6504  152.7992 H   0  0  0  0  0  0  0  0  0  0  0  0
  146.9702  131.3802  154.4901 H   0  0  0  0  0  0  0  0  0  0  0  0
  148.9875  131.2137  155.6119 H   0  0  0  0  0  0  0  0  0  0  0  0
  152.3716  144.3002  161.6882 H   0  0  0  0  0  0  0  0  0  0  0  0
  153.3275  142.8489  161.9735 H   0  0  0  0  0  0  0  0  0  0  0  0
  151.5656  142.7645  161.9981 H   0  0  0  0  0  0  0  0  0  0  0  0
  151.5166  143.3584  159.5481 H   0  0  0  0  0  0  0  0  0  0  0  0
  153.2625  143.4370  159.5350 H   0  0  0  0  0  0  0  0  0  0  0  0
  151.6029  140.9460  160.1243 H   0  0  0  0  0  0  0  0  0  0  0  0
  152.4228  141.2696  158.6175 H   0  0  0  0  0  0  0  0  0  0  0  0
  154.6242  141.1651  159.7186 H   0  0  0  0  0  0  0  0  0  0  0  0
  153.8847  141.0351  161.2946 H   0  0  0  0  0  0  0  0  0  0  0  0
  154.7622  138.8578  159.9841 H   0  0  0  0  0  0  0  0  0  0  0  0
  153.3375  138.7897  161.0175 H   0  0  0  0  0  0  0  0  0  0  0  0
  151.6973  138.3435  157.0407 H   0  0  0  0  0  0  0  0  0  0  0  0
  146.4992  132.6686  151.8486 H   0  0  0  0  0  0  0  0  0  0  0  0
  147.9610  133.3777  151.1675 H   0  0  0  0  0  0  0  0  0  0  0  0
  147.0475  134.2588  152.3828 H   0  0  0  0  0  0  0  0  0  0  0  0
  146.0035  133.4532  154.0921 H   0  0  0  0  0  0  0  0  0  0  0  0
  149.1142  133.2354  157.1215 H   0  0  0  0  0  0  0  0  0  0  0  0
  149.7378  135.5756  154.0378 H   0  0  0  0  0  0  0  0  0  0  0  0
  1  2  1  0  0  0  0
  1 30  1  0  0  0  0
  1 31  1  0  0  0  0
  1 32  1  0  0  0  0
  2  3  1  0  0  0  0
  2 33  1  0  0  0  0
  2 34  1  0  0  0  0
  3  4  1  0  0  0  0
  3 35  1  0  0  0  0
  3 36  1  0  0  0  0
  4  5  1  0  0  0  0
  4 37  1  0  0  0  0
  4 38  1  0  0  0  0
  5  6  1  0  0  0  0
  5 39  1  0  0  0  0
  5 40  1  0  0  0  0
  6  7  1  0  0  0  0
  7  8  2  0  0  0  0
  7  9  1  0  0  0  0
  9 10  1  0  0  0  0
  9 41  1  0  0  0  0
 10 24  1  0  0  0  0
 10 11  2  0  0  0  0
 11 12  1  0  0  0  0
 12 13  2  0  0  0  0
 12 14  1  0  0  0  0
 14 15  1  0  0  0  0
 14 23  1  0  0  0  0
 15 26  1  0  0  0  0
 15 21  1  0  0  0  0
 15 16  1  0  0  0  0
 16 17  1  0  0  0  0
 17 27  1  0  0  0  0
 17 18  1  0  0  0  0
 17 19  1  0  0  0  0
 18 42  1  0  0  0  0
 18 43  1  0  0  0  0
 18 44  1  0  0  0  0
 19 28  1  0  0  0  0
 19 20  1  0  0  0  0
 19 21  1  0  0  0  0
 20 45  1  0  0  0  0
 21 29  1  0  0  0  0
 21 22  1  0  0  0  0
 22 46  1  0  0  0  0
 23 24  2  0  0  0  0
 23 47  1  0  0  0  0
 24 25  1  0  0  0  0
M  END
> <s_m_source_file>
AV-unprocessed.smi

> <i_m_source_file_index>
40

> <i_lp_mmshare_version>
43012

> <i_f3d_flags>
0

> <s_epik_input>
W0NIM11bQ0gyXVtDSDJdW0NIMl1bQ0gyXU9DKD1PKVtOSF1jMW5jKD1PKW4oW2NIXWMxRilbQ0BASF0yT1tDQEhdKFtDSDNdKVtDQEBIXShbT0hdKVtDQEhdMltPSF0=

> <s_epik_cmdline>
J2VwaWtfcHl0aG9uJywgJy1waCcsICc3LjAnLCAnLXRuJywgJzgnLCAnLW1hJywgJzIwMCcsICctbWV0YWxfYmluZGluZycsICctaW1hZScsICc8aW5maWxlLm1hZT4nLCAnLW9tYWUnLCAnPG91dGZpbGUubWFlPic=

> <r_lp_tautomer_probability>
1

> <r_epik_Ionization_Penalty>
2.29506e-06

> <r_epik_Ionization_Penalty_Charging>
8.26867e-09

> <r_epik_Ionization_Penalty_Neutral>
2.2868e-06

> <r_epik_State_Penalty>
-0

> <r_epik_Charging_Adjusted_Penalty>
8.26867e-09

> <i_epik_Tot_Q>
0

> <i_epik_Tot_abs_Q>
0

> <r_epik_Metal_State_Penalty>
-0

> <b_epik_Metal_Only>
0

> <s_epik_Chemistry_Notes>
This compound has an ester and may undergo hydrolysis at high or low pH. This compound contains an acetal/aminal-like group ( X-CH(R)-Y where X, Y are N, S, or O) that may be acid/base labile, releasing an aldehyde.

> <s_lp_Force_Field>
OPLS_2005

> <r_lp_Energy>
38.6632

> <b_lp_Chiralities_Consistent>
1

> <s_lp_Variant>
AV-unprocessed.smi:40-13

> <Gold.Version>
5.8.1

> <Gold.Id.Protein>
6NUR|6NUR_protein|mol2

> <Gold.PLP.Fitness>
44.8024

> <Gold.PLP.PLP>
-38.5676

> <Gold.PLP.part.hbond>
-3.0000

> <Gold.PLP.part.metal>
0.0000

> <Gold.PLP.part.buried>
-5.4728

> <Gold.PLP.part.nonpolar>
-31.3345

> <Gold.PLP.part.repulsive>
0.3059

> <Gold.PLP.ligand.clash>
0.0000

> <Gold.PLP.ligand.torsion>
0.3270

> <Gold.PLP.Chemscore.Hbond>
1.3477

> <Gold.PLP.Chemscore.CHOScore>
0.9134

> <Gold.PLP.Chemscore.Metal>
0.0000

> <Gold.Chemscore.Hbonds>
donor molecule, donor type, donor heavy atom, donor atom, acceptor molecule, acceptor atom, score
      P1  H  6896  6907       L1    13  0.34
      P1  H  6896  6909       L1     8  0.95
      L1  C    23    47       P1  7948  0.91

> <Gold.PLP.Chemscore.Internal.Correction>
0.1056

> <Gold.Rescore>
     Score         DG    S(hbond)    S(metal)    S(lipo)     H(rot)  DE(clash)    DE(int)     intcor
      7.37      -9.14       1.18        0.00      78.57       3.70       0.05       1.71       ----

> <Gold.Chemscore.Fitness>
7.3724

> <Gold.Chemscore.DG>
-9.1387

> <Gold.Chemscore.ZeroCoef>
-5.4800

> <Gold.Chemscore.Hbond>
1.1758

> <Gold.Chemscore.Metal>
0.0000

> <Gold.Chemscore.Lipo>
78.5679

> <Gold.Chemscore.Internal_Hbond>
0.0000

> <Gold.Chemscore.DEClash>
0.0544

> <Gold.Chemscore.DEInternal>
1.7119

> <Gold.Chemscore.Rot>
3.6957

> <Gold.Chemscore.Internal.Correction>
   9.000000E+99

> <Gold.Chemscore.Hbonds>
donor molecule, donor type, donor heavy atom, donor atom, acceptor molecule, acceptor atom, score
      P1  H  6896  6907       L1    13  0.17
      P1  H  6896  6909       L1     8  0.85

> <Gold.Chemscore.Hbond.Weighted>
-3.9272

> <Gold.Chemscore.Metal.Weighted>
-0.0000

> <Gold.Chemscore.Lipo.Weighted>
-9.1924

> <Gold.Chemscore.Internal_Hbond.Weighted>
0.0000

> <Gold.Chemscore.DEClash.Weighted>
0.0544

> <Gold.Chemscore.DEInternal.Weighted>
1.7119

> <Gold.Chemscore.Rot.Weighted>
9.4610

> <Gold.Chemscore.Internal.Correction.Weighted>
   9.000000E+99

> <Gold.Protein.RotatedTorsions>
[ 6907 6896 6895 6894 ] final  166.94 input  -60.11 | X-H torsion
[ 7974 7965 7964 7962 ] final -106.10 input  175.53 | X-H torsion
[ 8008 7997 7996 7995 ] final   92.31 input   59.86 | X-H torsion
[ 10167 10162 10161 10158 ] final  128.71 input  -65.29 | X-H torsion
[ 10718 10713 10712 10709 ] final  109.95 input   66.30 | X-H torsion
[ 10763 10752 10751 10750 ] final  -36.28 input  -60.55 | X-H torsion
[ 11005 11000 10999 10996 ] final -140.31 input  -57.11 | X-H torsion

> <Gold.Protein.ActiveResidues>
 VAL166  LYS551  ARG553  GLY616  TRP617  ASP618  TYR619  PRO620  LYS621  CYS622 
 ASP623  PHE694  ASN695  SER759  ASP760  ASP761  ALA762  ILE779  LEU786  VAL792 
 PHE793  MET794  SER795  GLU796  ALA797  LYS798  CYS799  TRP800  GLU811  SER814 

> <Gold.Protein.RotatedAtoms>
  151.8711  133.3476  159.3734 H   0  0  0  0  0  0  0  0  0  0  0  0  # atno 6907 bound_to 6896
  150.7152  134.5112  159.5617 H   0  0  0  0  0  0  0  0  0  0  0  0  # atno 6908 bound_to 6896
  152.2645  134.7999  160.0476 H   0  0  0  0  0  0  0  0  0  0  0  0  # atno 6909 bound_to 6896
  145.2222  140.9138  143.3253 H   0  0  0  0  0  0  0  0  0  0  0  0  # atno 7974 bound_to 7965
  156.0338  140.3327  155.7169 H   0  0  0  0  0  0  0  0  0  0  0  0  # atno 8008 bound_to 7997
  155.5845  140.0640  157.2792 H   0  0  0  0  0  0  0  0  0  0  0  0  # atno 8009 bound_to 7997
  154.4364  140.1838  156.0999 H   0  0  0  0  0  0  0  0  0  0  0  0  # atno 8010 bound_to 7997
  139.5513  144.6815  151.4314 H   0  0  0  0  0  0  0  0  0  0  0  0  # atno 10167 bound_to 10162
  157.6517  131.0923  150.6529 H   0  0  0  0  0  0  0  0  0  0  0  0  # atno 10718 bound_to 10713
  153.8771  135.6825  153.4770 H   0  0  0  0  0  0  0  0  0  0  0  0  # atno 10763 bound_to 10752
  153.1254  135.4721  154.9262 H   0  0  0  0  0  0  0  0  0  0  0  0  # atno 10764 bound_to 10752
  154.7686  135.3232  154.8187 H   0  0  0  0  0  0  0  0  0  0  0  0  # atno 10765 bound_to 10752
  140.8435  134.2373  157.4798 H   0  0  0  0  0  0  0  0  0  0  0  0  # atno 11005 bound_to 11000
  144.9755  139.3836  143.6288 LP  0  0  0  0  0  0  0  0  0  0  0  0  # atno 17320 bound_to 7965
  146.3373  139.8872  142.8815 LP  0  0  0  0  0  0  0  0  0  0  0  0  # atno 17321 bound_to 7965
  140.6776  143.8154  150.7079 LP  0  0  0  0  0  0  0  0  0  0  0  0  # atno 17342 bound_to 10162
  140.1597  143.4286  152.2075 LP  0  0  0  0  0  0  0  0  0  0  0  0  # atno 17343 bound_to 10162
  156.6840  130.4575  149.5619 LP  0  0  0  0  0  0  0  0  0  0  0  0  # atno 17370 bound_to 10713
  156.1909  130.6559  151.1060 LP  0  0  0  0  0  0  0  0  0  0  0  0  # atno 17371 bound_to 10713
  139.8703  134.9647  156.4505 LP  0  0  0  0  0  0  0  0  0  0  0  0  # atno 17394 bound_to 11000
  140.8869  133.7876  155.9529 LP  0  0  0  0  0  0  0  0  0  0  0  0  # atno 17395 bound_to 11000

$$$$
