AV-unprocessed.smi:221|AV-procd|sdf|1691|dock4
  -GOLD-   2262020133D 1   1.00000     0.00000
 Structure written by MMmdl.
 50 53  0  0  0  0  0  0  0  0  1 V2000
  145.1207  136.2355  149.7759 N   0  0  0  0  0  0  0  0  0  0  0  0
  145.1616  135.7108  151.0045 C   0  0  0  0  0  0  0  0  0  0  0  0
  145.9909  134.8582  151.3151 O   0  0  0  0  0  0  0  0  0  0  0  0
  144.1225  136.2016  152.0334 C   0  0  1  0  0  0  0  0  0  0  0  0
  143.4234  135.1084  152.8553 C   0  0  0  0  0  0  0  0  0  0  0  0
  142.8191  135.8790  154.0367 C   0  0  1  0  0  0  0  0  0  0  0  0
  143.1417  135.2877  155.1875 F   0  0  0  0  0  0  0  0  0  0  0  0
  143.4269  137.2900  153.9551 C   0  0  0  0  0  0  0  0  0  0  0  0
  144.5453  137.2043  153.0214 N   0  0  0  0  0  0  0  0  0  0  0  0
  145.7320  137.1060  153.6794 C   0  0  0  0  0  0  0  0  0  0  0  0
  146.0179  136.0365  154.4695 N   0  0  0  0  0  0  0  0  0  0  0  0
  147.1831  135.9716  155.1199 C   0  0  0  0  0  0  0  0  0  0  0  0
  148.1839  136.8542  155.1285 N   0  0  0  0  0  0  0  0  0  0  0  0
  147.8962  137.9350  154.3484 C   0  0  0  0  0  0  0  0  0  0  0  0
  146.7043  138.1386  153.5986 C   0  0  0  0  0  0  0  0  0  0  0  0
  146.7643  139.3533  152.9269 N   0  0  0  0  0  0  0  0  0  0  0  0
  147.9268  139.8429  153.2630 C   0  0  0  0  0  0  0  0  0  0  0  0
  148.6690  139.0595  154.1176 N   0  0  0  0  0  0  0  0  0  0  0  0
  149.9856  139.3671  154.6486 C   0  0  0  0  0  0  0  0  0  0  0  0
  149.9620  140.4814  155.7242 C   0  0  1  0  0  0  0  0  0  0  0  0
  148.5257  140.9425  156.0741 C   0  0  0  0  0  0  0  0  0  0  0  0
  148.5314  142.1873  156.7426 O   0  0  0  0  0  0  0  0  0  0  0  0
  150.7746  140.0764  156.9805 C   0  0  2  0  0  0  0  0  0  0  0  0
  151.1364  141.2233  157.9078 C   0  0  0  0  0  0  0  0  0  0  0  0
  152.2725  140.6259  158.7299 C   0  0  0  0  0  0  0  0  0  0  0  0
  152.9518  139.7352  157.8524 O   0  0  0  0  0  0  0  0  0  0  0  0
  152.1672  139.5079  156.6854 C   0  0  0  0  0  0  0  0  0  0  0  0
  143.3567  136.6952  151.4319 H   0  0  0  0  0  0  0  0  0  0  0  0
  141.7303  135.9162  153.9880 H   0  0  0  0  0  0  0  0  0  0  0  0
  145.7908  135.9385  149.0816 H   0  0  0  0  0  0  0  0  0  0  0  0
  144.4240  136.9299  149.5480 H   0  0  0  0  0  0  0  0  0  0  0  0
  142.6628  134.5835  152.2763 H   0  0  0  0  0  0  0  0  0  0  0  0
  144.1393  134.3645  153.2086 H   0  0  0  0  0  0  0  0  0  0  0  0
  142.6986  137.9899  153.5433 H   0  0  0  0  0  0  0  0  0  0  0  0
  143.7031  137.6696  154.9413 H   0  0  0  0  0  0  0  0  0  0  0  0
  147.3337  135.0871  155.7214 H   0  0  0  0  0  0  0  0  0  0  0  0
  148.2768  140.7979  152.8986 H   0  0  0  0  0  0  0  0  0  0  0  0
  150.4207  138.4546  155.0580 H   0  0  0  0  0  0  0  0  0  0  0  0
  150.6174  139.6567  153.8085 H   0  0  0  0  0  0  0  0  0  0  0  0
  150.4609  141.3481  155.2877 H   0  0  0  0  0  0  0  0  0  0  0  0
  147.9164  141.0316  155.1751 H   0  0  0  0  0  0  0  0  0  0  0  0
  148.0201  140.2104  156.7039 H   0  0  0  0  0  0  0  0  0  0  0  0
  148.6628  142.8716  156.1043 H   0  0  0  0  0  0  0  0  0  0  0  0
  150.2162  139.3343  157.5535 H   0  0  0  0  0  0  0  0  0  0  0  0
  151.4985  142.0786  157.3355 H   0  0  0  0  0  0  0  0  0  0  0  0
  150.3041  141.5545  158.5294 H   0  0  0  0  0  0  0  0  0  0  0  0
  152.9452  141.3860  159.1278 H   0  0  0  0  0  0  0  0  0  0  0  0
  151.8746  140.0526  159.5680 H   0  0  0  0  0  0  0  0  0  0  0  0
  152.1392  138.4470  156.4356 H   0  0  0  0  0  0  0  0  0  0  0  0
  152.6342  140.0372  155.8537 H   0  0  0  0  0  0  0  0  0  0  0  0
  1  2  1  0  0  0  0
  1 30  1  0  0  0  0
  1 31  1  0  0  0  0
  2  3  2  0  0  0  0
  2  4  1  0  0  0  0
  4 28  1  0  0  0  0
  4  9  1  0  0  0  0
  4  5  1  0  0  0  0
  5  6  1  0  0  0  0
  5 32  1  0  0  0  0
  5 33  1  0  0  0  0
  6 29  1  0  0  0  0
  6  7  1  0  0  0  0
  6  8  1  0  0  0  0
  8  9  1  0  0  0  0
  8 34  1  0  0  0  0
  8 35  1  0  0  0  0
  9 10  1  0  0  0  0
 10 15  1  0  0  0  0
 10 11  2  0  0  0  0
 11 12  1  0  0  0  0
 12 13  2  0  0  0  0
 12 36  1  0  0  0  0
 13 14  1  0  0  0  0
 14 18  1  0  0  0  0
 14 15  2  0  0  0  0
 15 16  1  0  0  0  0
 16 17  2  0  0  0  0
 17 18  1  0  0  0  0
 17 37  1  0  0  0  0
 18 19  1  0  0  0  0
 19 20  1  0  0  0  0
 19 38  1  0  0  0  0
 19 39  1  0  0  0  0
 20 21  1  0  0  0  0
 20 23  1  0  0  0  0
 20 40  1  0  0  0  0
 21 22  1  0  0  0  0
 21 41  1  0  0  0  0
 21 42  1  0  0  0  0
 22 43  1  0  0  0  0
 23 27  1  0  0  0  0
 23 24  1  0  0  0  0
 23 44  1  0  0  0  0
 24 25  1  0  0  0  0
 24 45  1  0  0  0  0
 24 46  1  0  0  0  0
 25 26  1  0  0  0  0
 25 47  1  0  0  0  0
 25 48  1  0  0  0  0
 26 27  1  0  0  0  0
 27 49  1  0  0  0  0
 27 50  1  0  0  0  0
M  END
> <s_m_source_file>
AV-unprocessed.smi

> <i_m_source_file_index>
221

> <i_lp_mmshare_version>
43012

> <i_f3d_flags>
0

> <s_epik_input>
W05IMl1DKD1PKVtDQEBIXTFbQ0gyXVtDQEBIXShGKVtDSDJdTjFjKG5bY0hdbjIpYyhjMjMpbltjSF1uM1tDSDJdW0NASF0oW0NIMl1bT0hdKVtDQEBIXTRbQ0gyXVtDSDJdT1tDSDJdNA==

> <s_epik_cmdline>
J2VwaWtfcHl0aG9uJywgJy1waCcsICc3LjAnLCAnLXRuJywgJzgnLCAnLW1hJywgJzIwMCcsICctbWV0YWxfYmluZGluZycsICctaW1hZScsICc8aW5maWxlLm1hZT4nLCAnLW9tYWUnLCAnPG91dGZpbGUubWFlPic=

> <r_lp_tautomer_probability>
1

> <r_epik_Ionization_Penalty>
0.000818822

> <r_epik_Ionization_Penalty_Charging>
0

> <r_epik_Ionization_Penalty_Neutral>
0.000818822

> <r_epik_State_Penalty>
0.000440551

> <r_epik_Charging_Adjusted_Penalty>
0.000440551

> <i_epik_Tot_Q>
0

> <i_epik_Tot_abs_Q>
0

> <r_epik_Metal_State_Penalty>
-0

> <b_epik_Metal_Only>
0

> <s_lp_Force_Field>
OPLS_2005

> <r_lp_Energy>
55.0143

> <b_lp_Chiralities_Consistent>
1

> <s_lp_Variant>
AV-unprocessed.smi:221-6

> <Gold.Version>
5.8.1

> <Gold.Id.Protein>
6NUR|6NUR_protein|mol2

> <Gold.PLP.Fitness>
41.0433

> <Gold.PLP.PLP>
-31.2779

> <Gold.PLP.part.hbond>
-4.0000

> <Gold.PLP.part.metal>
0.0000

> <Gold.PLP.part.buried>
-1.2653

> <Gold.PLP.part.nonpolar>
-26.6091

> <Gold.PLP.part.repulsive>
0.9363

> <Gold.PLP.ligand.clash>
0.0000

> <Gold.PLP.ligand.torsion>
1.5484

> <Gold.PLP.Chemscore.Hbond>
3.8800

> <Gold.PLP.Chemscore.CHOScore>
0.3332

> <Gold.PLP.Chemscore.Metal>
0.0000

> <Gold.Chemscore.Hbonds>
donor molecule, donor type, donor heavy atom, donor atom, acceptor molecule, acceptor atom, score
      L1  H     1    30       P1  7921  0.96
      L1  H     1    31       P1 10171  0.94
      L1  H    22    43       P1  8028  1.00
      P1  H  7997  8010       L1    26  1.00
      L1  C    17    37       P1  7957  0.38

> <Gold.PLP.Chemscore.Internal.Correction>
0.2226

> <Gold.Rescore>
     Score         DG    S(hbond)    S(metal)    S(lipo)     H(rot)  DE(clash)    DE(int)     intcor
     10.48     -14.50       3.50        0.00      58.63       3.72       1.53       2.49       ----

> <Gold.Chemscore.Fitness>
10.4762

> <Gold.Chemscore.DG>
-14.4971

> <Gold.Chemscore.ZeroCoef>
-5.4800

> <Gold.Chemscore.Hbond>
3.4974

> <Gold.Chemscore.Metal>
0.0000

> <Gold.Chemscore.Lipo>
58.6294

> <Gold.Chemscore.Internal_Hbond>
0.0000

> <Gold.Chemscore.DEClash>
1.5346

> <Gold.Chemscore.DEInternal>
2.4863

> <Gold.Chemscore.Rot>
3.7202

> <Gold.Chemscore.Internal.Correction>
   9.000000E+99

> <Gold.Chemscore.Hbonds>
donor molecule, donor type, donor heavy atom, donor atom, acceptor molecule, acceptor atom, score
      L1  H     1    30       P1  7921  0.92
      L1  H     1    31       P1 10171  0.91
      L1  H    22    43       P1  8028  0.94
      P1  H  7997  8010       L1    26  0.25

> <Gold.Chemscore.Hbond.Weighted>
-11.6812

> <Gold.Chemscore.Metal.Weighted>
-0.0000

> <Gold.Chemscore.Lipo.Weighted>
-6.8596

> <Gold.Chemscore.Internal_Hbond.Weighted>
0.0000

> <Gold.Chemscore.DEClash.Weighted>
1.5346

> <Gold.Chemscore.DEInternal.Weighted>
2.4863

> <Gold.Chemscore.Rot.Weighted>
9.5237

> <Gold.Chemscore.Internal.Correction.Weighted>
   9.000000E+99

> <Gold.Protein.RotatedTorsions>
[ 6907 6896 6895 6894 ] final -130.27 input  -60.11 | X-H torsion
[ 7974 7965 7964 7962 ] final  -77.44 input  175.53 | X-H torsion
[ 8008 7997 7996 7995 ] final   31.33 input   59.86 | X-H torsion
[ 10167 10162 10161 10158 ] final  -83.90 input  -65.29 | X-H torsion
[ 10718 10713 10712 10709 ] final -171.78 input   66.30 | X-H torsion
[ 10763 10752 10751 10750 ] final -128.65 input  -60.55 | X-H torsion
[ 11005 11000 10999 10996 ] final    0.96 input  -57.11 | X-H torsion

> <Gold.Protein.ActiveResidues>
 VAL166  LYS551  ARG553  GLY616  TRP617  ASP618  TYR619  PRO620  LYS621  CYS622 
 ASP623  PHE694  ASN695  SER759  ASP760  ASP761  ALA762  ILE779  LEU786  VAL792 
 PHE793  MET794  SER795  GLU796  ALA797  LYS798  CYS799  TRP800  GLU811  SER814 

> <Gold.Protein.RotatedAtoms>
  150.9379  133.6690  159.2796 H   0  0  0  0  0  0  0  0  0  0  0  0  # atno 6907 bound_to 6896
  151.4089  135.0981  159.9589 H   0  0  0  0  0  0  0  0  0  0  0  0  # atno 6908 bound_to 6896
  152.5056  133.8856  159.7423 H   0  0  0  0  0  0  0  0  0  0  0  0  # atno 6909 bound_to 6896
  145.5997  140.9411  143.1248 H   0  0  0  0  0  0  0  0  0  0  0  0  # atno 7974 bound_to 7965
  155.1047  140.3233  155.4537 H   0  0  0  0  0  0  0  0  0  0  0  0  # atno 8008 bound_to 7997
  156.2707  140.2054  156.6120 H   0  0  0  0  0  0  0  0  0  0  0  0  # atno 8009 bound_to 7997
  154.6802  140.0527  157.0245 H   0  0  0  0  0  0  0  0  0  0  0  0  # atno 8010 bound_to 7997
  140.4183  143.2595  151.8925 H   0  0  0  0  0  0  0  0  0  0  0  0  # atno 10167 bound_to 10162
  156.7460  130.9360  151.3112 H   0  0  0  0  0  0  0  0  0  0  0  0  # atno 10718 bound_to 10713
  154.8756  135.3921  154.3791 H   0  0  0  0  0  0  0  0  0  0  0  0  # atno 10763 bound_to 10752
  153.4541  135.7028  153.6096 H   0  0  0  0  0  0  0  0  0  0  0  0  # atno 10764 bound_to 10752
  153.4623  135.3809  155.2313 H   0  0  0  0  0  0  0  0  0  0  0  0  # atno 10765 bound_to 10752
  140.6207  133.9664  155.8223 H   0  0  0  0  0  0  0  0  0  0  0  0  # atno 11005 bound_to 11000
  144.7315  139.7711  143.7345 LP  0  0  0  0  0  0  0  0  0  0  0  0  # atno 17320 bound_to 7965
  146.1586  139.4692  143.0003 LP  0  0  0  0  0  0  0  0  0  0  0  0  # atno 17321 bound_to 7965
  139.4782  144.5465  151.8451 LP  0  0  0  0  0  0  0  0  0  0  0  0  # atno 17342 bound_to 10162
  140.4562  144.1786  150.5902 LP  0  0  0  0  0  0  0  0  0  0  0  0  # atno 17343 bound_to 10162
  157.6798  130.9129  150.0239 LP  0  0  0  0  0  0  0  0  0  0  0  0  # atno 17370 bound_to 10713
  156.1433  130.3642  149.9549 LP  0  0  0  0  0  0  0  0  0  0  0  0  # atno 17371 bound_to 10713
  141.0744  134.0157  157.3479 LP  0  0  0  0  0  0  0  0  0  0  0  0  # atno 17394 bound_to 11000
  139.9154  135.0196  156.7861 LP  0  0  0  0  0  0  0  0  0  0  0  0  # atno 17395 bound_to 11000

$$$$
