AV-unprocessed.smi:1734|AV-procd|sdf|6987|dock5
  -GOLD-   22720 8203D 1   1.00000     0.00000
 Structure written by MMmdl.
 51 53  0  0  0  0  0  0  0  0  2 V2000
  147.8777  133.6143  152.9765 C   0  0  0  0  0  0  0  0  0  0  0  0
  146.7456  133.4243  151.9798 C   0  0  0  0  0  0  0  0  0  0  0  0
  146.1653  132.1468  151.8296 C   0  0  0  0  0  0  0  0  0  0  0  0
  145.1200  131.9728  150.9069 C   0  0  0  0  0  0  0  0  0  0  0  0
  144.6953  133.0912  150.1694 C   0  0  0  0  0  0  0  0  0  0  0  0
  145.2437  134.3158  150.3069 N   0  0  0  0  0  0  0  0  0  0  0  0
  146.2552  134.5003  151.1924 C   0  0  0  0  0  0  0  0  0  0  0  0
  146.8832  135.7626  151.3879 N   0  0  0  0  0  0  0  0  0  0  0  0
  146.3966  136.9880  151.1250 C   0  0  0  0  0  0  0  0  0  0  0  0
  145.2869  137.2317  150.6502 O   0  0  0  0  0  0  0  0  0  0  0  0
  147.2759  137.9422  151.4627 N   0  0  0  0  0  0  0  0  0  0  0  0
  147.0340  139.3748  151.3357 C   0  0  0  0  0  0  0  0  0  0  0  0
  146.4132  140.0170  152.6098 C   0  0  1  0  0  0  0  0  0  0  0  0
  147.4331  140.2303  153.7645 C   0  0  1  0  0  0  0  0  0  0  0  0
  148.1552  138.9649  154.1996 C   0  0  0  0  0  0  0  0  0  0  0  0
  149.3439  139.5202  154.9741 C   0  0  0  0  0  0  0  0  0  0  0  0
  149.6887  140.7312  154.3142 O   0  0  0  0  0  0  0  0  0  0  0  0
  148.6369  141.1251  153.4387 C   0  0  0  0  0  0  0  0  0  0  0  0
  145.7164  141.3016  152.2994 N   0  3  0  0  0  0  0  0  0  0  0  0
  144.9708  141.9287  153.4202 C   0  0  0  0  0  0  0  0  0  0  0  0
  144.1647  143.1311  152.9019 C   0  0  0  0  0  0  0  0  0  0  0  0
  145.0443  144.0621  152.2823 O   0  0  0  0  0  0  0  0  0  0  0  0
  145.7173  143.5010  151.1609 C   0  0  0  0  0  0  0  0  0  0  0  0
  146.5692  142.3026  151.6125 C   0  0  0  0  0  0  0  0  0  0  0  0
  148.1058  132.6853  153.4998 H   0  0  0  0  0  0  0  0  0  0  0  0
  147.6087  134.3619  153.7234 H   0  0  0  0  0  0  0  0  0  0  0  0
  148.7834  133.9429  152.4658 H   0  0  0  0  0  0  0  0  0  0  0  0
  146.5151  131.3076  152.4128 H   0  0  0  0  0  0  0  0  0  0  0  0
  144.6559  131.0075  150.7681 H   0  0  0  0  0  0  0  0  0  0  0  0
  143.8949  133.0010  149.4500 H   0  0  0  0  0  0  0  0  0  0  0  0
  147.8106  135.7245  151.7842 H   0  0  0  0  0  0  0  0  0  0  0  0
  148.1676  137.6592  151.8427 H   0  0  0  0  0  0  0  0  0  0  0  0
  147.9919  139.8414  151.1060 H   0  0  0  0  0  0  0  0  0  0  0  0
  146.3998  139.5380  150.4638 H   0  0  0  0  0  0  0  0  0  0  0  0
  145.6467  139.3424  152.9942 H   0  0  0  0  0  0  0  0  0  0  0  0
  146.9256  140.6512  154.6336 H   0  0  0  0  0  0  0  0  0  0  0  0
  147.5381  138.3020  154.8069 H   0  0  0  0  0  0  0  0  0  0  0  0
  148.5045  138.4053  153.3305 H   0  0  0  0  0  0  0  0  0  0  0  0
  149.0549  139.7526  155.9998 H   0  0  0  0  0  0  0  0  0  0  0  0
  150.1850  138.8272  155.0061 H   0  0  0  0  0  0  0  0  0  0  0  0
  148.9745  140.9665  152.4137 H   0  0  0  0  0  0  0  0  0  0  0  0
  148.4162  142.1853  153.5627 H   0  0  0  0  0  0  0  0  0  0  0  0
  144.2940  141.2098  153.8808 H   0  0  0  0  0  0  0  0  0  0  0  0
  145.6615  142.2655  154.1941 H   0  0  0  0  0  0  0  0  0  0  0  0
  143.3966  142.8106  152.1958 H   0  0  0  0  0  0  0  0  0  0  0  0
  143.6522  143.6251  153.7276 H   0  0  0  0  0  0  0  0  0  0  0  0
  144.9941  143.2010  150.4006 H   0  0  0  0  0  0  0  0  0  0  0  0
  146.3522  144.2650  150.7117 H   0  0  0  0  0  0  0  0  0  0  0  0
  147.3607  142.6459  152.2792 H   0  0  0  0  0  0  0  0  0  0  0  0
  147.0530  141.8522  150.7451 H   0  0  0  0  0  0  0  0  0  0  0  0
  145.0159  141.0506  151.6163 H   0  0  0  0  0  0  0  0  0  0  0  0
  1  2  1  0  0  0  0
  1 25  1  0  0  0  0
  1 26  1  0  0  0  0
  1 27  1  0  0  0  0
  2  7  1  0  0  0  0
  2  3  2  0  0  0  0
  3  4  1  0  0  0  0
  3 28  1  0  0  0  0
  4  5  2  0  0  0  0
  4 29  1  0  0  0  0
  5  6  1  0  0  0  0
  5 30  1  0  0  0  0
  6  7  2  0  0  0  0
  7  8  1  0  0  0  0
  8  9  1  0  0  0  0
  8 31  1  0  0  0  0
  9 10  2  0  0  0  0
  9 11  1  0  0  0  0
 11 12  1  0  0  0  0
 11 32  1  0  0  0  0
 12 13  1  0  0  0  0
 12 33  1  0  0  0  0
 12 34  1  0  0  0  0
 13 14  1  0  0  0  0
 13 19  1  0  0  0  0
 13 35  1  0  0  0  0
 14 18  1  0  0  0  0
 14 15  1  0  0  0  0
 14 36  1  0  0  0  0
 15 16  1  0  0  0  0
 15 37  1  0  0  0  0
 15 38  1  0  0  0  0
 16 17  1  0  0  0  0
 16 39  1  0  0  0  0
 16 40  1  0  0  0  0
 17 18  1  0  0  0  0
 18 41  1  0  0  0  0
 18 42  1  0  0  0  0
 19 24  1  0  0  0  0
 19 20  1  0  0  0  0
 19 51  1  0  0  0  0
 20 21  1  0  0  0  0
 20 43  1  0  0  0  0
 20 44  1  0  0  0  0
 21 22  1  0  0  0  0
 21 45  1  0  0  0  0
 21 46  1  0  0  0  0
 22 23  1  0  0  0  0
 23 24  1  0  0  0  0
 23 47  1  0  0  0  0
 23 48  1  0  0  0  0
 24 49  1  0  0  0  0
 24 50  1  0  0  0  0
M  CHG  1  19   1
M  END
> <s_m_source_file>
AV-unprocessed.smi

> <i_m_source_file_index>
1734

> <i_lp_mmshare_version>
43012

> <i_f3d_flags>
0

> <s_epik_input>
W0NIM11jMVtjSF1bY0hdW2NIXW5jMVtOSF1DKD1PKVtOSF1bQ0gyXVtDQEhdKFtDQEBIXTJbQ0gyXVtDSDJdT1tDSDJdMilOM1tDSDJdW0NIMl1PW0NIMl1bQ0gyXTM=

> <s_epik_cmdline>
J2VwaWtfcHl0aG9uJywgJy1waCcsICc3LjAnLCAnLXRuJywgJzgnLCAnLW1hJywgJzIwMCcsICctbWV0YWxfYmluZGluZycsICctaW1hZScsICc8aW5maWxlLm1hZT4nLCAnLW9tYWUnLCAnPG91dGZpbGUubWFlPic=

> <r_epik_Ionization_Penalty>
0.983302

> <r_epik_Ionization_Penalty_Charging>
0.98326

> <r_epik_Ionization_Penalty_Neutral>
4.21967e-05

> <r_epik_State_Penalty>
1.0303

> <r_epik_Charging_Adjusted_Penalty>
2.01356

> <i_epik_Tot_Q>
1

> <i_epik_Tot_abs_Q>
1

> <r_epik_Metal_State_Penalty>
1.03031

> <b_epik_Metal_Only>
0

> <s_lp_Force_Field>
OPLS_2005

> <r_lp_Energy>
38.82

> <b_lp_Chiralities_Consistent>
1

> <s_lp_Variant>
AV-unprocessed.smi:1734-8

> <Gold.Version>
5.8.1

> <Gold.Id.Protein>
6NUR|6NUR_protein|mol2

> <Gold.PLP.Fitness>
55.3721

> <Gold.PLP.PLP>
-38.0364

> <Gold.PLP.part.hbond>
-3.9914

> <Gold.PLP.part.metal>
0.0000

> <Gold.PLP.part.buried>
-5.7860

> <Gold.PLP.part.nonpolar>
-30.6512

> <Gold.PLP.part.repulsive>
2.2920

> <Gold.PLP.ligand.clash>
0.0154

> <Gold.PLP.ligand.torsion>
0.5380

> <Gold.PLP.Chemscore.Hbond>
4.9425

> <Gold.PLP.Chemscore.CHOScore>
1.0000

> <Gold.PLP.Chemscore.Metal>
0.0000

> <Gold.Chemscore.Hbonds>
donor molecule, donor type, donor heavy atom, donor atom, acceptor molecule, acceptor atom, score
      L1  H     8    31       P1  7948  0.20
      L1  H    11    32       P1  7948  0.66
      P1  H  7989  7998       L1    17  0.55

> <Gold.PLP.Chemscore.Internal.Correction>
0.5996

> <Gold.Rescore>
     Score         DG    S(hbond)    S(metal)    S(lipo)     H(rot)  DE(clash)    DE(int)     intcor
     20.27     -24.05       3.84        0.00      86.36       1.70       2.78       1.00       ----

> <Gold.Chemscore.Fitness>
20.2703

> <Gold.Chemscore.DG>
-24.0457

> <Gold.Chemscore.ZeroCoef>
-5.4800

> <Gold.Chemscore.Hbond>
3.8353

> <Gold.Chemscore.Metal>
0.0000

> <Gold.Chemscore.Lipo>
86.3613

> <Gold.Chemscore.Internal_Hbond>
0.0000

> <Gold.Chemscore.DEClash>
2.7769

> <Gold.Chemscore.DEInternal>
0.9985

> <Gold.Chemscore.Rot>
1.6986

> <Gold.Chemscore.Internal.Correction>
   9.000000E+99

> <Gold.Chemscore.Hbonds>
donor molecule, donor type, donor heavy atom, donor atom, acceptor molecule, acceptor atom, score
      L1  H     8    31       P1  7948  0.19
      L1  H    11    32       P1  7948  0.63
      P1  H  7989  7998       L1    17  0.46

> <Gold.Chemscore.Hbond.Weighted>
-12.8099

> <Gold.Chemscore.Metal.Weighted>
-0.0000

> <Gold.Chemscore.Lipo.Weighted>
-10.1043

> <Gold.Chemscore.Internal_Hbond.Weighted>
0.0000

> <Gold.Chemscore.DEClash.Weighted>
2.7769

> <Gold.Chemscore.DEInternal.Weighted>
0.9985

> <Gold.Chemscore.Rot.Weighted>
4.3485

> <Gold.Chemscore.Internal.Correction.Weighted>
   9.000000E+99

> <Gold.Protein.RotatedTorsions>
[ 6907 6896 6895 6894 ] final   72.82 input  -60.11 | X-H torsion
[ 7974 7965 7964 7962 ] final   47.89 input  175.53 | X-H torsion
[ 8008 7997 7996 7995 ] final   58.80 input   59.86 | X-H torsion
[ 10167 10162 10161 10158 ] final  139.29 input  -65.29 | X-H torsion
[ 10718 10713 10712 10709 ] final   -9.69 input   66.30 | X-H torsion
[ 10763 10752 10751 10750 ] final  -39.78 input  -60.55 | X-H torsion
[ 11005 11000 10999 10996 ] final  115.56 input  -57.11 | X-H torsion

> <Gold.Protein.ActiveResidues>
 VAL166  LYS551  ARG553  GLY616  TRP617  ASP618  TYR619  PRO620  LYS621  CYS622 
 ASP623  PHE694  ASN695  SER759  ASP760  ASP761  ALA762  ILE779  LEU786  VAL792 
 PHE793  MET794  SER795  GLU796  ALA797  LYS798  CYS799  TRP800  GLU811  SER814 

> <Gold.Protein.RotatedAtoms>
  152.4889  134.4515  159.9575 H   0  0  0  0  0  0  0  0  0  0  0  0  # atno 6907 bound_to 6896
  151.4505  133.3612  159.2802 H   0  0  0  0  0  0  0  0  0  0  0  0  # atno 6908 bound_to 6896
  150.9024  134.8462  159.7430 H   0  0  0  0  0  0  0  0  0  0  0  0  # atno 6909 bound_to 6896
  146.0255  139.4702  142.9870 H   0  0  0  0  0  0  0  0  0  0  0  0  # atno 7974 bound_to 7965
  155.5559  140.3487  155.4480 H   0  0  0  0  0  0  0  0  0  0  0  0  # atno 8008 bound_to 7997
  156.0549  140.1326  157.0034 H   0  0  0  0  0  0  0  0  0  0  0  0  # atno 8009 bound_to 7997
  154.4452  140.0997  156.6416 H   0  0  0  0  0  0  0  0  0  0  0  0  # atno 8010 bound_to 7997
  139.5083  144.6303  151.5834 H   0  0  0  0  0  0  0  0  0  0  0  0  # atno 10167 bound_to 10162
  156.6843  130.5046  149.5962 H   0  0  0  0  0  0  0  0  0  0  0  0  # atno 10718 bound_to 10713
  153.9351  135.6767  153.4745 H   0  0  0  0  0  0  0  0  0  0  0  0  # atno 10763 bound_to 10752
  153.0960  135.4851  154.8776 H   0  0  0  0  0  0  0  0  0  0  0  0  # atno 10764 bound_to 10752
  154.7407  135.3160  154.8691 H   0  0  0  0  0  0  0  0  0  0  0  0  # atno 10765 bound_to 10752
  139.9014  134.9585  156.7064 H   0  0  0  0  0  0  0  0  0  0  0  0  # atno 11005 bound_to 11000
  145.7124  141.0102  143.1446 LP  0  0  0  0  0  0  0  0  0  0  0  0  # atno 17320 bound_to 7965
  144.7008  139.8773  143.7445 LP  0  0  0  0  0  0  0  0  0  0  0  0  # atno 17321 bound_to 7965
  140.6034  143.9569  150.6401 LP  0  0  0  0  0  0  0  0  0  0  0  0  # atno 17342 bound_to 10162
  140.2788  143.3404  152.1170 LP  0  0  0  0  0  0  0  0  0  0  0  0  # atno 17343 bound_to 10162
  156.1844  130.6520  151.0989 LP  0  0  0  0  0  0  0  0  0  0  0  0  # atno 17370 bound_to 10713
  157.7032  131.0767  150.6753 LP  0  0  0  0  0  0  0  0  0  0  0  0  # atno 17371 bound_to 10713
  140.7110  133.9223  155.8084 LP  0  0  0  0  0  0  0  0  0  0  0  0  # atno 17394 bound_to 11000
  141.0300  134.0769  157.4025 LP  0  0  0  0  0  0  0  0  0  0  0  0  # atno 17395 bound_to 11000

$$$$
