AV-unprocessed.smi:39|AV-procd|sdf|362|dock2
  -GOLD-   2262016203D 1   1.00000     0.00000
 Structure written by MMmdl.
 31 32  0  0  0  0  0  0  0  0  4 V2000
  152.3538  143.3755  159.9613 C   0  0  0  0  0  0  0  0  0  0  0  0
  151.9971  142.5451  158.7408 C   0  0  0  0  0  0  0  0  0  0  0  0
  152.2502  141.2191  158.6720 C   0  0  0  0  0  0  0  0  0  0  0  0
  151.9234  140.4647  157.5567 N   0  0  0  0  0  0  0  0  0  0  0  0
  152.2206  138.9791  157.4795 C   0  0  2  0  0  0  0  0  0  0  0  0
  151.6656  138.2444  158.7151 C   0  0  0  0  0  0  0  0  0  0  0  0
  152.8651  137.4461  159.2069 C   0  0  1  0  0  0  0  0  0  0  0  0
  152.9337  136.1301  158.5557 N   0  0  0  0  0  0  0  0  0  0  0  0
  152.4567  136.0503  157.4163 N   0  3  0  0  0  0  0  0  0  0  0  0
  151.9313  135.8998  156.4181 N   0  5  0  0  0  0  0  0  0  0  0  0
  154.0156  138.3639  158.7770 C   0  0  1  0  0  0  0  0  0  0  0  0
  155.4038  137.7021  158.7363 C   0  0  0  0  0  0  0  0  0  0  0  0
  156.3807  138.6468  158.3533 O   0  0  0  0  0  0  0  0  0  0  0  0
  153.6033  138.7666  157.4759 O   0  0  0  0  0  0  0  0  0  0  0  0
  151.3214  141.0983  156.4377 C   0  0  0  0  0  0  0  0  0  0  0  0
  151.0583  140.4051  155.4543 O   0  0  0  0  0  0  0  0  0  0  0  0
  151.0601  142.4351  156.4990 N   0  5  0  0  0  0  0  0  0  0  0  0
  151.3609  143.1965  157.5896 C   0  0  0  0  0  0  0  0  0  0  0  0
  151.1166  144.4021  157.6332 O   0  0  0  0  0  0  0  0  0  0  0  0
  151.7985  138.6432  156.5308 H   0  0  0  0  0  0  0  0  0  0  0  0
  152.8521  137.3409  160.2935 H   0  0  0  0  0  0  0  0  0  0  0  0
  154.0332  139.2295  159.4426 H   0  0  0  0  0  0  0  0  0  0  0  0
  152.8040  142.7611  160.7415 H   0  0  0  0  0  0  0  0  0  0  0  0
  151.4620  143.8469  160.3756 H   0  0  0  0  0  0  0  0  0  0  0  0
  153.0652  144.1573  159.6936 H   0  0  0  0  0  0  0  0  0  0  0  0
  152.7242  140.7496  159.5201 H   0  0  0  0  0  0  0  0  0  0  0  0
  151.3612  138.9678  159.4734 H   0  0  0  0  0  0  0  0  0  0  0  0
  150.7997  137.6355  158.4520 H   0  0  0  0  0  0  0  0  0  0  0  0
  155.6736  137.3366  159.7275 H   0  0  0  0  0  0  0  0  0  0  0  0
  155.4185  136.8480  158.0584 H   0  0  0  0  0  0  0  0  0  0  0  0
  157.2001  138.1949  158.2216 H   0  0  0  0  0  0  0  0  0  0  0  0
  1  2  1  0  0  0  0
  1 23  1  0  0  0  0
  1 24  1  0  0  0  0
  1 25  1  0  0  0  0
  2 18  1  0  0  0  0
  2  3  2  0  0  0  0
  3  4  1  0  0  0  0
  3 26  1  0  0  0  0
  4  5  1  0  0  0  0
  4 15  1  0  0  0  0
  5 20  1  0  0  0  0
  5 14  1  0  0  0  0
  5  6  1  0  0  0  0
  6  7  1  0  0  0  0
  6 27  1  0  0  0  0
  6 28  1  0  0  0  0
  7 21  1  0  0  0  0
  7  8  1  0  0  0  0
  7 11  1  0  0  0  0
  8  9  2  0  0  0  0
  9 10  2  0  0  0  0
 11 22  1  0  0  0  0
 11 12  1  0  0  0  0
 11 14  1  0  0  0  0
 12 13  1  0  0  0  0
 12 29  1  0  0  0  0
 12 30  1  0  0  0  0
 13 31  1  0  0  0  0
 15 16  2  0  0  0  0
 15 17  1  0  0  0  0
 17 18  1  0  0  0  0
 18 19  2  0  0  0  0
M  CHG  1   9   1
M  CHG  1  10  -1
M  CHG  1  17  -1
M  END
> <s_m_source_file>
AV-unprocessed.smi

> <i_m_source_file_index>
39

> <i_lp_mmshare_version>
43012

> <i_f3d_flags>
0

> <s_epik_input>
Tz1jMVtuSF1jKD1PKW4oW2NIXWMxW0NIM10pW0NASF0yW0NIMl1bQ0BIXShOPVtOK109W04tXSlbQ0BIXShPMilbQ0gyXVtPSF0=

> <s_epik_cmdline>
J2VwaWtfcHl0aG9uJywgJy1waCcsICc3LjAnLCAnLXRuJywgJzgnLCAnLW1hJywgJzIwMCcsICctbWV0YWxfYmluZGluZycsICctaW1hZScsICc8aW5maWxlLm1hZT4nLCAnLW9tYWUnLCAnPG91dGZpbGUubWFlPic=

> <r_lp_tautomer_probability>
0.999537

> <r_epik_Ionization_Penalty>
3.6393

> <r_epik_Ionization_Penalty_Charging>
9.76484e-08

> <r_epik_Ionization_Penalty_Neutral>
3.6393

> <r_epik_State_Penalty>
3.63887

> <r_epik_Charging_Adjusted_Penalty>
3.63887

> <i_epik_Tot_Q>
-1

> <i_epik_Tot_abs_Q>
3

> <r_epik_Metal_State_Penalty>
0.225911

> <b_epik_Metal_Only>
1

> <s_epik_Chemistry_Notes>
This compound contains an acetal/aminal-like group ( X-CH(R)-Y where X, Y are N, S, or O) that may be acid/base labile, releasing an aldehyde.

> <s_lp_Force_Field>
OPLS_2005

> <r_lp_Energy>
37.741

> <b_lp_Chiralities_Consistent>
1

> <s_lp_Variant>
AV-unprocessed.smi:39-12

> <Gold.Version>
5.8.1

> <Gold.Id.Protein>
6NUR|6NUR_protein|mol2

> <Gold.PLP.Fitness>
38.0893

> <Gold.PLP.PLP>
-26.5276

> <Gold.PLP.part.hbond>
-5.2139

> <Gold.PLP.part.metal>
0.0000

> <Gold.PLP.part.buried>
-5.1418

> <Gold.PLP.part.nonpolar>
-17.1312

> <Gold.PLP.part.repulsive>
1.3752

> <Gold.PLP.ligand.clash>
0.0000

> <Gold.PLP.ligand.torsion>
0.4724

> <Gold.PLP.Chemscore.Hbond>
4.1530

> <Gold.PLP.Chemscore.CHOScore>
0.0000

> <Gold.PLP.Chemscore.Metal>
0.0000

> <Gold.Chemscore.Hbonds>
donor molecule, donor type, donor heavy atom, donor atom, acceptor molecule, acceptor atom, score
      P1  H  6896  6909       L1     8  0.58
      P1  H  7989  7998       L1    16  0.84
      P1  H  7997  8008       L1    13  0.86
      P1  H  7997  8009       L1    14  0.91
      P1  H 10752 10764       L1    10  1.00

> <Gold.PLP.Chemscore.Internal.Correction>
0.0476

> <Gold.Rescore>
     Score         DG    S(hbond)    S(metal)    S(lipo)     H(rot)  DE(clash)    DE(int)     intcor
     12.83     -16.49       3.72        0.00      47.36       2.72       0.75       2.91       ----

> <Gold.Chemscore.Fitness>
12.8343

> <Gold.Chemscore.DG>
-16.4854

> <Gold.Chemscore.ZeroCoef>
-5.4800

> <Gold.Chemscore.Hbond>
3.7171

> <Gold.Chemscore.Metal>
0.0000

> <Gold.Chemscore.Lipo>
47.3633

> <Gold.Chemscore.Internal_Hbond>
0.0000

> <Gold.Chemscore.DEClash>
0.7453

> <Gold.Chemscore.DEInternal>
2.9058

> <Gold.Chemscore.Rot>
2.7153

> <Gold.Chemscore.Internal.Correction>
   9.000000E+99

> <Gold.Chemscore.Hbonds>
donor molecule, donor type, donor heavy atom, donor atom, acceptor molecule, acceptor atom, score
      P1  H  6896  6909       L1     8  0.16
      P1  H  7989  7998       L1    16  0.78
      P1  H  7997  8008       L1    13  0.73
      P1  H  7997  8009       L1    14  0.66
      P1  H 10752 10764       L1    10  0.74

> <Gold.Chemscore.Hbond.Weighted>
-12.4151

> <Gold.Chemscore.Metal.Weighted>
-0.0000

> <Gold.Chemscore.Lipo.Weighted>
-5.5415

> <Gold.Chemscore.Internal_Hbond.Weighted>
0.0000

> <Gold.Chemscore.DEClash.Weighted>
0.7453

> <Gold.Chemscore.DEInternal.Weighted>
2.9058

> <Gold.Chemscore.Rot.Weighted>
6.9512

> <Gold.Chemscore.Internal.Correction.Weighted>
   9.000000E+99

> <Gold.Protein.RotatedTorsions>
[ 6907 6896 6895 6894 ] final  158.09 input  -60.11 | X-H torsion
[ 7974 7965 7964 7962 ] final  103.96 input  175.53 | X-H torsion
[ 8008 7997 7996 7995 ] final  179.79 input   59.86 | X-H torsion
[ 10167 10162 10161 10158 ] final   89.01 input  -65.29 | X-H torsion
[ 10718 10713 10712 10709 ] final  -70.52 input   66.30 | X-H torsion
[ 10763 10752 10751 10750 ] final  -27.04 input  -60.55 | X-H torsion
[ 11005 11000 10999 10996 ] final   44.36 input  -57.11 | X-H torsion

> <Gold.Protein.ActiveResidues>
 VAL166  LYS551  ARG553  GLY616  TRP617  ASP618  TYR619  PRO620  LYS621  CYS622 
 ASP623  PHE694  ASN695  SER759  ASP760  ASP761  ALA762  ILE779  LEU786  VAL792 
 PHE793  MET794  SER795  GLU796  ALA797  LYS798  CYS799  TRP800  GLU811  SER814 

> <Gold.Protein.RotatedAtoms>
  152.0056  133.3842  159.4198 H   0  0  0  0  0  0  0  0  0  0  0  0  # atno 6907 bound_to 6896
  150.6905  134.3786  159.5033 H   0  0  0  0  0  0  0  0  0  0  0  0  # atno 6908 bound_to 6896
  152.1540  134.8965  160.0597 H   0  0  0  0  0  0  0  0  0  0  0  0  # atno 6909 bound_to 6896
  145.3391  139.2467  143.3619 H   0  0  0  0  0  0  0  0  0  0  0  0  # atno 7974 bound_to 7965
  156.0394  140.1300  157.0173 H   0  0  0  0  0  0  0  0  0  0  0  0  # atno 8008 bound_to 7997
  154.4384  140.1033  156.6285 H   0  0  0  0  0  0  0  0  0  0  0  0  # atno 8009 bound_to 7997
  155.5690  140.3466  155.4512 H   0  0  0  0  0  0  0  0  0  0  0  0  # atno 8010 bound_to 7997
  139.8615  144.6541  150.9052 H   0  0  0  0  0  0  0  0  0  0  0  0  # atno 10167 bound_to 10162
  156.0404  130.4333  150.2308 H   0  0  0  0  0  0  0  0  0  0  0  0  # atno 10718 bound_to 10713
  153.7257  135.6942  153.5001 H   0  0  0  0  0  0  0  0  0  0  0  0  # atno 10763 bound_to 10752
  153.2172  135.4382  155.0446 H   0  0  0  0  0  0  0  0  0  0  0  0  # atno 10764 bound_to 10752
  154.8270  135.3451  154.6789 H   0  0  0  0  0  0  0  0  0  0  0  0  # atno 10765 bound_to 10752
  140.1559  134.4402  155.8350 H   0  0  0  0  0  0  0  0  0  0  0  0  # atno 11005 bound_to 11000
  146.3015  140.3984  142.8702 LP  0  0  0  0  0  0  0  0  0  0  0  0  # atno 17320 bound_to 7965
  144.8804  140.7393  143.5990 LP  0  0  0  0  0  0  0  0  0  0  0  0  # atno 17321 bound_to 7965
  140.7774  143.3740  151.1597 LP  0  0  0  0  0  0  0  0  0  0  0  0  # atno 17342 bound_to 10162
  139.7369  143.8985  152.3037 LP  0  0  0  0  0  0  0  0  0  0  0  0  # atno 17343 bound_to 10162
  157.0403  131.0033  151.3285 LP  0  0  0  0  0  0  0  0  0  0  0  0  # atno 17370 bound_to 10713
  157.5214  130.8000  149.7813 LP  0  0  0  0  0  0  0  0  0  0  0  0  # atno 17371 bound_to 10713
  141.2204  133.6892  156.7506 LP  0  0  0  0  0  0  0  0  0  0  0  0  # atno 17394 bound_to 11000
  140.2548  134.8512  157.3702 LP  0  0  0  0  0  0  0  0  0  0  0  0  # atno 17395 bound_to 11000

$$$$
