AV-unprocessed.smi:266|AV-procd|sdf|2036|dock6
  -GOLD-   2262021243D 1   1.00000     0.00000
 Structure written by MMmdl.
 52 55  0  0  0  0  0  0  0  0  1 V2000
  145.5053  134.3043  152.1157 C   0  0  0  0  0  0  0  0  0  0  0  0
  144.9144  133.1875  151.2404 C   0  0  1  0  0  0  0  0  0  0  0  0
  144.5393  133.7075  149.9721 O   0  0  0  0  0  0  0  0  0  0  0  0
  144.4474  132.6144  149.0778 C   0  0  0  0  0  0  0  0  0  0  0  0
  145.6924  131.8070  149.4171 C   0  0  0  0  0  0  0  0  0  0  0  0
  145.8291  131.9702  150.9361 C   0  0  1  0  0  0  0  0  0  0  0  0
  147.1874  132.2488  151.2310 O   0  0  0  0  0  0  0  0  0  0  0  0
  145.3907  130.7244  151.7505 C   0  0  0  0  0  0  0  0  0  0  0  0
  146.4573  130.0990  152.5201 N   0  0  0  0  0  0  0  0  0  0  0  0
  146.9734  130.5391  153.7175 C   0  0  0  0  0  0  0  0  0  0  0  0
  147.9341  129.8083  154.2115 N   0  0  0  0  0  0  0  0  0  0  0  0
  148.1137  128.7963  153.2750 C   0  0  0  0  0  0  0  0  0  0  0  0
  148.9859  127.6724  153.1685 C   0  0  0  0  0  0  0  0  0  0  0  0
  149.9410  127.3266  154.0666 N   0  0  0  0  0  0  0  0  0  0  0  0
  150.3189  125.9215  153.9862 C   0  0  0  0  0  0  0  0  0  0  0  0
  149.9536  127.9542  155.3878 C   0  0  0  0  0  0  0  0  0  0  0  0
  151.2833  128.6681  155.7328 C   0  0  1  0  0  0  0  0  0  0  0  0
  151.5713  129.7989  154.7243 C   0  0  0  0  0  0  0  0  0  0  0  0
  150.7241  131.0290  155.0801 C   0  0  0  0  0  0  0  0  0  0  0  0
  150.4836  130.9675  156.8964 S   0  0  0  0  0  0  0  0  0  0  0  0
  151.3235  131.9862  157.5442 O   0  0  0  0  0  0  0  0  0  0  0  0
  149.0435  130.8792  157.1824 O   0  0  0  0  0  0  0  0  0  0  0  0
  151.2512  129.3203  157.1258 C   0  0  0  0  0  0  0  0  0  0  0  0
  148.8460  126.8702  152.0825 N   0  0  0  0  0  0  0  0  0  0  0  0
  147.9353  127.1531  151.1472 C   0  0  0  0  0  0  0  0  0  0  0  0
  147.0706  128.1679  151.1058 N   0  0  0  0  0  0  0  0  0  0  0  0
  147.1903  128.9676  152.2037 C   0  0  0  0  0  0  0  0  0  0  0  0
  145.8101  133.9201  153.0894 H   0  0  0  0  0  0  0  0  0  0  0  0
  144.7697  135.0907  152.2853 H   0  0  0  0  0  0  0  0  0  0  0  0
  146.3745  134.7651  151.6454 H   0  0  0  0  0  0  0  0  0  0  0  0
  143.9937  132.8382  151.7109 H   0  0  0  0  0  0  0  0  0  0  0  0
  143.5398  132.0436  149.2806 H   0  0  0  0  0  0  0  0  0  0  0  0
  144.4270  132.9439  148.0388 H   0  0  0  0  0  0  0  0  0  0  0  0
  145.6188  130.7758  149.0757 H   0  0  0  0  0  0  0  0  0  0  0  0
  146.5438  132.2554  148.9016 H   0  0  0  0  0  0  0  0  0  0  0  0
  147.7324  131.7278  150.6613 H   0  0  0  0  0  0  0  0  0  0  0  0
  144.5880  130.9924  152.4392 H   0  0  0  0  0  0  0  0  0  0  0  0
  144.9755  129.9693  151.0815 H   0  0  0  0  0  0  0  0  0  0  0  0
  146.6091  131.4232  154.2206 H   0  0  0  0  0  0  0  0  0  0  0  0
  150.8109  125.7068  153.0370 H   0  0  0  0  0  0  0  0  0  0  0  0
  149.4419  125.2789  154.0734 H   0  0  0  0  0  0  0  0  0  0  0  0
  151.0124  125.6561  154.7846 H   0  0  0  0  0  0  0  0  0  0  0  0
  149.1168  128.6481  155.4632 H   0  0  0  0  0  0  0  0  0  0  0  0
  149.7586  127.1831  156.1336 H   0  0  0  0  0  0  0  0  0  0  0  0
  152.1022  127.9504  155.6902 H   0  0  0  0  0  0  0  0  0  0  0  0
  152.6249  130.0703  154.8025 H   0  0  0  0  0  0  0  0  0  0  0  0
  151.4092  129.4822  153.6932 H   0  0  0  0  0  0  0  0  0  0  0  0
  151.1999  131.9672  154.7950 H   0  0  0  0  0  0  0  0  0  0  0  0
  149.7432  130.9781  154.6073 H   0  0  0  0  0  0  0  0  0  0  0  0
  150.7022  128.7477  157.8737 H   0  0  0  0  0  0  0  0  0  0  0  0
  152.2653  129.4760  157.4945 H   0  0  0  0  0  0  0  0  0  0  0  0
  147.8935  126.4681  150.3132 H   0  0  0  0  0  0  0  0  0  0  0  0
  1  2  1  0  0  0  0
  1 28  1  0  0  0  0
  1 29  1  0  0  0  0
  1 30  1  0  0  0  0
  2  6  1  0  0  0  0
  2  3  1  0  0  0  0
  2 31  1  0  0  0  0
  3  4  1  0  0  0  0
  4  5  1  0  0  0  0
  4 32  1  0  0  0  0
  4 33  1  0  0  0  0
  5  6  1  0  0  0  0
  5 34  1  0  0  0  0
  5 35  1  0  0  0  0
  6  7  1  0  0  0  0
  6  8  1  0  0  0  0
  7 36  1  0  0  0  0
  8  9  1  0  0  0  0
  8 37  1  0  0  0  0
  8 38  1  0  0  0  0
  9 27  1  0  0  0  0
  9 10  1  0  0  0  0
 10 11  2  0  0  0  0
 10 39  1  0  0  0  0
 11 12  1  0  0  0  0
 12 27  2  0  0  0  0
 12 13  1  0  0  0  0
 13 14  1  0  0  0  0
 13 24  2  0  0  0  0
 14 15  1  0  0  0  0
 14 16  1  0  0  0  0
 15 40  1  0  0  0  0
 15 41  1  0  0  0  0
 15 42  1  0  0  0  0
 16 17  1  0  0  0  0
 16 43  1  0  0  0  0
 16 44  1  0  0  0  0
 17 23  1  0  0  0  0
 17 18  1  0  0  0  0
 17 45  1  0  0  0  0
 18 19  1  0  0  0  0
 18 46  1  0  0  0  0
 18 47  1  0  0  0  0
 19 20  1  0  0  0  0
 19 48  1  0  0  0  0
 19 49  1  0  0  0  0
 20 21  2  0  0  0  0
 20 22  2  0  0  0  0
 20 23  1  0  0  0  0
 23 50  1  0  0  0  0
 23 51  1  0  0  0  0
 24 25  1  0  0  0  0
 25 26  2  0  0  0  0
 25 52  1  0  0  0  0
 26 27  1  0  0  0  0
M  END
> <s_m_source_file>
AV-unprocessed.smi

> <i_m_source_file_index>
266

> <i_lp_mmshare_version>
43012

> <i_f3d_flags>
0

> <s_epik_input>
W0NIMl0xW0NIMl1PW0NAQEhdKFtDSDNdKVtDQEBdMShbT0hdKVtDSDJdbihbY0hdbjIpYyhjMjMpbltjSF1uYzNOKFtDSDNdKVtDSDJdW0NAQEhdKFtDSDJdNClbQ0gyXVtDSDJdUzQoPU8pPU8=

> <s_epik_cmdline>
J2VwaWtfcHl0aG9uJywgJy1waCcsICc3LjAnLCAnLXRuJywgJzgnLCAnLW1hJywgJzIwMCcsICctbWV0YWxfYmluZGluZycsICctaW1hZScsICc8aW5maWxlLm1hZT4nLCAnLW9tYWUnLCAnPG91dGZpbGUubWFlPic=

> <r_lp_tautomer_probability>
1

> <r_epik_Ionization_Penalty>
0.00155497

> <r_epik_Ionization_Penalty_Charging>
0

> <r_epik_Ionization_Penalty_Neutral>
0.00155497

> <r_epik_State_Penalty>
-0

> <r_epik_Charging_Adjusted_Penalty>
0

> <i_epik_Tot_Q>
0

> <i_epik_Tot_abs_Q>
0

> <r_epik_Metal_State_Penalty>
-0

> <b_epik_Metal_Only>
0

> <s_lp_Force_Field>
OPLS_2005

> <r_lp_Energy>
31.7584

> <b_lp_Chiralities_Consistent>
1

> <s_lp_Variant>
AV-unprocessed.smi:266-6

> <Gold.Version>
5.8.1

> <Gold.Id.Protein>
6NUR|6NUR_protein|mol2

> <Gold.PLP.Fitness>
42.8986

> <Gold.PLP.PLP>
-39.7226

> <Gold.PLP.part.hbond>
-2.0000

> <Gold.PLP.part.metal>
0.0000

> <Gold.PLP.part.buried>
-5.7150

> <Gold.PLP.part.nonpolar>
-31.4006

> <Gold.PLP.part.repulsive>
0.7382

> <Gold.PLP.ligand.clash>
0.0000

> <Gold.PLP.ligand.torsion>
1.6921

> <Gold.PLP.Chemscore.Hbond>
2.0000

> <Gold.PLP.Chemscore.CHOScore>
0.0000

> <Gold.PLP.Chemscore.Metal>
0.0000

> <Gold.Chemscore.Hbonds>
donor molecule, donor type, donor heavy atom, donor atom, acceptor molecule, acceptor atom, score
      L1  H     7    36       P1 10747  1.00
      P1  H  6896  6908       L1    21  0.65

> <Gold.PLP.Chemscore.Internal.Correction>
0.5602

> <Gold.Rescore>
     Score         DG    S(hbond)    S(metal)    S(lipo)     H(rot)  DE(clash)    DE(int)     intcor
     11.93     -14.81       1.98        0.00      76.82       2.45       0.03       2.85       ----

> <Gold.Chemscore.Fitness>
11.9287

> <Gold.Chemscore.DG>
-14.8124

> <Gold.Chemscore.ZeroCoef>
-5.4800

> <Gold.Chemscore.Hbond>
1.9789

> <Gold.Chemscore.Metal>
0.0000

> <Gold.Chemscore.Lipo>
76.8165

> <Gold.Chemscore.Internal_Hbond>
0.0000

> <Gold.Chemscore.DEClash>
0.0291

> <Gold.Chemscore.DEInternal>
2.8546

> <Gold.Chemscore.Rot>
2.4471

> <Gold.Chemscore.Internal.Correction>
   9.000000E+99

> <Gold.Chemscore.Hbonds>
donor molecule, donor type, donor heavy atom, donor atom, acceptor molecule, acceptor atom, score
      L1  H     7    36       P1 10747  0.95
      P1  H  6896  6908       L1    21  0.65

> <Gold.Chemscore.Hbond.Weighted>
-6.6094

> <Gold.Chemscore.Metal.Weighted>
-0.0000

> <Gold.Chemscore.Lipo.Weighted>
-8.9875

> <Gold.Chemscore.Internal_Hbond.Weighted>
0.0000

> <Gold.Chemscore.DEClash.Weighted>
0.0291

> <Gold.Chemscore.DEInternal.Weighted>
2.8546

> <Gold.Chemscore.Rot.Weighted>
6.2645

> <Gold.Chemscore.Internal.Correction.Weighted>
   9.000000E+99

> <Gold.Protein.RotatedTorsions>
[ 6907 6896 6895 6894 ] final   62.62 input  -60.11 | X-H torsion
[ 7974 7965 7964 7962 ] final   -8.46 input  175.53 | X-H torsion
[ 8008 7997 7996 7995 ] final  -87.54 input   59.86 | X-H torsion
[ 10167 10162 10161 10158 ] final  140.02 input  -65.29 | X-H torsion
[ 10718 10713 10712 10709 ] final   84.97 input   66.30 | X-H torsion
[ 10763 10752 10751 10750 ] final  135.41 input  -60.55 | X-H torsion
[ 11005 11000 10999 10996 ] final   13.59 input  -57.11 | X-H torsion

> <Gold.Protein.ActiveResidues>
 VAL166  LYS551  ARG553  GLY616  TRP617  ASP618  TYR619  PRO620  LYS621  CYS622 
 ASP623  PHE694  ASN695  SER759  ASP760  ASP761  ALA762  ILE779  LEU786  VAL792 
 PHE793  MET794  SER795  GLU796  ALA797  LYS798  CYS799  TRP800  GLU811  SER814 

> <Gold.Protein.RotatedAtoms>
  152.4187  134.5994  159.9995 H   0  0  0  0  0  0  0  0  0  0  0  0  # atno 6907 bound_to 6896
  151.6151  133.3338  159.3083 H   0  0  0  0  0  0  0  0  0  0  0  0  # atno 6908 bound_to 6896
  150.8075  134.7248  159.6724 H   0  0  0  0  0  0  0  0  0  0  0  0  # atno 6909 bound_to 6896
  146.2279  140.2472  142.8346 H   0  0  0  0  0  0  0  0  0  0  0  0  # atno 7974 bound_to 7965
  154.6645  140.0564  157.0098 H   0  0  0  0  0  0  0  0  0  0  0  0  # atno 8008 bound_to 7997
  155.1180  140.3244  155.4486 H   0  0  0  0  0  0  0  0  0  0  0  0  # atno 8009 bound_to 7997
  156.2632  140.2002  156.6302 H   0  0  0  0  0  0  0  0  0  0  0  0  # atno 8010 bound_to 7997
  139.5061  144.6259  151.5937 H   0  0  0  0  0  0  0  0  0  0  0  0  # atno 10167 bound_to 10162
  157.6907  131.0155  150.2753 H   0  0  0  0  0  0  0  0  0  0  0  0  # atno 10718 bound_to 10713
  153.8396  135.3093  155.3425 H   0  0  0  0  0  0  0  0  0  0  0  0  # atno 10763 bound_to 10752
  154.7938  135.4767  154.0117 H   0  0  0  0  0  0  0  0  0  0  0  0  # atno 10764 bound_to 10752
  153.1584  135.6856  153.8870 H   0  0  0  0  0  0  0  0  0  0  0  0  # atno 10765 bound_to 10752
  140.4791  134.0954  155.7747 H   0  0  0  0  0  0  0  0  0  0  0  0  # atno 11005 bound_to 11000
  144.9439  140.8108  143.5613 LP  0  0  0  0  0  0  0  0  0  0  0  0  # atno 17320 bound_to 7965
  145.2426  139.2066  143.4984 LP  0  0  0  0  0  0  0  0  0  0  0  0  # atno 17321 bound_to 7965
  140.5976  143.9667  150.6365 LP  0  0  0  0  0  0  0  0  0  0  0  0  # atno 17342 bound_to 10162
  140.2868  143.3351  152.1099 LP  0  0  0  0  0  0  0  0  0  0  0  0  # atno 17343 bound_to 10162
  156.3308  130.3800  149.7492 LP  0  0  0  0  0  0  0  0  0  0  0  0  # atno 17370 bound_to 10713
  156.5032  130.8138  151.3140 LP  0  0  0  0  0  0  0  0  0  0  0  0  # atno 17371 bound_to 10713
  141.1540  133.8917  157.2025 LP  0  0  0  0  0  0  0  0  0  0  0  0  # atno 17394 bound_to 11000
  139.9838  135.0089  156.9812 LP  0  0  0  0  0  0  0  0  0  0  0  0  # atno 17395 bound_to 11000

$$$$
