AV-unprocessed.smi:320|AV-procd|sdf|2332|dock5
  -GOLD-   2262022233D 1   1.00000     0.00000
 Structure written by MMmdl.
 49 52  0  0  0  0  0  0  0  0  1 V2000
  147.3763  137.0504  156.7710 C   0  0  0  0  0  0  0  0  0  0  0  0
  148.7366  137.2865  157.4585 C   0  0  2  0  0  0  0  0  0  0  0  0
  148.5247  137.3296  158.9062 N   0  0  0  0  0  0  0  0  0  0  0  0
  148.5084  136.2720  159.7317 C   0  0  0  0  0  0  0  0  0  0  0  0
  148.6909  135.1143  159.3520 O   0  0  0  0  0  0  0  0  0  0  0  0
  148.2584  136.5874  161.2136 C   0  0  0  0  0  0  0  0  0  0  0  0
  147.0499  135.9428  161.7542 N   0  0  0  0  0  0  0  0  0  0  0  0
  147.1179  134.5562  161.9958 C   0  0  0  0  0  0  0  0  0  0  0  0
  146.0728  133.8679  162.4815 C   0  0  0  0  0  0  0  0  0  0  0  0
  144.8517  134.5865  162.7586 C   0  0  0  0  0  0  0  0  0  0  0  0
  144.7744  135.9123  162.5275 C   0  0  0  0  0  0  0  0  0  0  0  0
  145.9138  136.6682  161.9941 C   0  0  0  0  0  0  0  0  0  0  0  0
  145.8507  137.8786  161.7759 O   0  0  0  0  0  0  0  0  0  0  0  0
  149.5224  138.5459  156.9718 C   0  0  0  0  0  0  0  0  0  0  0  0
  149.9027  138.3739  155.4709 C   0  0  0  0  0  0  0  0  0  0  0  0
  150.6622  139.6102  154.9467 C   0  0  2  0  0  0  0  0  0  0  0  0
  151.9553  139.8029  155.7649 C   0  0  0  0  0  0  0  0  0  0  0  0
  151.5895  140.0124  157.2486 C   0  0  1  0  0  0  0  0  0  0  0  0
  150.6985  141.2638  157.3890 C   0  0  0  0  0  0  0  0  0  0  0  0
  149.4099  141.0639  156.5646 C   0  0  1  0  0  0  0  0  0  0  0  0
  149.7691  140.8593  155.0800 C   0  0  0  0  0  0  0  0  0  0  0  0
  148.6488  139.8280  157.0902 C   0  0  0  0  0  0  0  0  0  0  0  0
  150.8340  138.7739  157.7786 C   0  0  0  0  0  0  0  0  0  0  0  0
  147.4820  136.8901  155.6989 H   0  0  0  0  0  0  0  0  0  0  0  0
  146.6913  137.8839  156.9233 H   0  0  0  0  0  0  0  0  0  0  0  0
  146.8915  136.1589  157.1706 H   0  0  0  0  0  0  0  0  0  0  0  0
  149.3588  136.4202  157.2260 H   0  0  0  0  0  0  0  0  0  0  0  0
  148.3716  138.2420  159.3106 H   0  0  0  0  0  0  0  0  0  0  0  0
  149.1396  136.2822  161.7796 H   0  0  0  0  0  0  0  0  0  0  0  0
  148.1962  137.6696  161.3450 H   0  0  0  0  0  0  0  0  0  0  0  0
  148.0638  134.0929  161.7552 H   0  0  0  0  0  0  0  0  0  0  0  0
  146.1424  132.8043  162.6559 H   0  0  0  0  0  0  0  0  0  0  0  0
  143.9956  134.0586  163.1522 H   0  0  0  0  0  0  0  0  0  0  0  0
  143.8520  136.4331  162.7391 H   0  0  0  0  0  0  0  0  0  0  0  0
  150.5252  137.4906  155.3250 H   0  0  0  0  0  0  0  0  0  0  0  0
  149.0056  138.2125  154.8718 H   0  0  0  0  0  0  0  0  0  0  0  0
  150.9174  139.4599  153.8972 H   0  0  0  0  0  0  0  0  0  0  0  0
  152.6059  138.9344  155.6547 H   0  0  0  0  0  0  0  0  0  0  0  0
  152.5166  140.6590  155.3886 H   0  0  0  0  0  0  0  0  0  0  0  0
  152.5023  140.1529  157.8283 H   0  0  0  0  0  0  0  0  0  0  0  0
  150.4545  141.4390  158.4374 H   0  0  0  0  0  0  0  0  0  0  0  0
  151.2339  142.1494  157.0445 H   0  0  0  0  0  0  0  0  0  0  0  0
  148.7776  141.9469  156.6641 H   0  0  0  0  0  0  0  0  0  0  0  0
  150.2854  141.7375  154.6903 H   0  0  0  0  0  0  0  0  0  0  0  0
  148.8628  140.7433  154.4839 H   0  0  0  0  0  0  0  0  0  0  0  0
  147.7165  139.7030  156.5377 H   0  0  0  0  0  0  0  0  0  0  0  0
  148.3679  140.0127  158.1267 H   0  0  0  0  0  0  0  0  0  0  0  0
  150.6145  138.9151  158.8370 H   0  0  0  0  0  0  0  0  0  0  0  0
  151.4849  137.9011  157.7163 H   0  0  0  0  0  0  0  0  0  0  0  0
  1  2  1  0  0  0  0
  1 24  1  0  0  0  0
  1 25  1  0  0  0  0
  1 26  1  0  0  0  0
  2  3  1  0  0  0  0
  2 14  1  0  0  0  0
  2 27  1  0  0  0  0
  3  4  1  0  0  0  0
  3 28  1  0  0  0  0
  4  5  2  0  0  0  0
  4  6  1  0  0  0  0
  6  7  1  0  0  0  0
  6 29  1  0  0  0  0
  6 30  1  0  0  0  0
  7 12  1  0  0  0  0
  7  8  1  0  0  0  0
  8  9  2  0  0  0  0
  8 31  1  0  0  0  0
  9 10  1  0  0  0  0
  9 32  1  0  0  0  0
 10 11  2  0  0  0  0
 10 33  1  0  0  0  0
 11 12  1  0  0  0  0
 11 34  1  0  0  0  0
 12 13  2  0  0  0  0
 14 22  1  0  0  0  0
 14 23  1  0  0  0  0
 14 15  1  0  0  0  0
 15 16  1  0  0  0  0
 15 35  1  0  0  0  0
 15 36  1  0  0  0  0
 16 21  1  0  0  0  0
 16 17  1  0  0  0  0
 16 37  1  0  0  0  0
 17 18  1  0  0  0  0
 17 38  1  0  0  0  0
 17 39  1  0  0  0  0
 18 19  1  0  0  0  0
 18 23  1  0  0  0  0
 18 40  1  0  0  0  0
 19 20  1  0  0  0  0
 19 41  1  0  0  0  0
 19 42  1  0  0  0  0
 20 21  1  0  0  0  0
 20 22  1  0  0  0  0
 20 43  1  0  0  0  0
 21 44  1  0  0  0  0
 21 45  1  0  0  0  0
 22 46  1  0  0  0  0
 22 47  1  0  0  0  0
 23 48  1  0  0  0  0
 23 49  1  0  0  0  0
M  END
> <s_m_source_file>
AV-unprocessed.smi

> <i_m_source_file_index>
320

> <i_lp_mmshare_version>
43012

> <i_f3d_flags>
0

> <s_epik_input>
W0NIMl0xW0NAQEhdKFtDSDJdMilbQ0gyXVtDQEBIXShbQ0gyXTMpW0NIMl1bQ0BIXTFbQ0gyXUMyM1tDQEhdKFtDSDNdKVtOSF1DKD1PKVtDSDJdbjRbY0hdW2NIXVtjSF1bY0hdYzQ9Tw==

> <s_epik_cmdline>
J2VwaWtfcHl0aG9uJywgJy1waCcsICc3LjAnLCAnLXRuJywgJzgnLCAnLW1hJywgJzIwMCcsICctbWV0YWxfYmluZGluZycsICctaW1hZScsICc8aW5maWxlLm1hZT4nLCAnLW9tYWUnLCAnPG91dGZpbGUubWFlPic=

> <r_lp_tautomer_probability>
1

> <r_epik_Ionization_Penalty>
4.15949e-07

> <r_epik_Ionization_Penalty_Charging>
3.97363e-07

> <r_epik_Ionization_Penalty_Neutral>
1.85865e-08

> <r_epik_State_Penalty>
-0

> <r_epik_Charging_Adjusted_Penalty>
3.97363e-07

> <i_epik_Tot_Q>
0

> <i_epik_Tot_abs_Q>
0

> <r_epik_Metal_State_Penalty>
-0

> <b_epik_Metal_Only>
0

> <s_lp_Force_Field>
OPLS_2005

> <r_lp_Energy>
45.4177

> <b_lp_Chiralities_Consistent>
1

> <s_lp_Variant>
AV-unprocessed.smi:320-1

> <Gold.Version>
5.8.1

> <Gold.Id.Protein>
6NUR|6NUR_protein|mol2

> <Gold.PLP.Fitness>
41.9671

> <Gold.PLP.PLP>
-37.7711

> <Gold.PLP.part.hbond>
-2.0000

> <Gold.PLP.part.metal>
0.0000

> <Gold.PLP.part.buried>
-2.4504

> <Gold.PLP.part.nonpolar>
-32.9473

> <Gold.PLP.part.repulsive>
0.1719

> <Gold.PLP.ligand.clash>
0.0000

> <Gold.PLP.ligand.torsion>
0.6038

> <Gold.PLP.Chemscore.Hbond>
1.7840

> <Gold.PLP.Chemscore.CHOScore>
0.0000

> <Gold.PLP.Chemscore.Metal>
0.0000

> <Gold.Chemscore.Hbonds>
donor molecule, donor type, donor heavy atom, donor atom, acceptor molecule, acceptor atom, score
      P1  H  6896  6907       L1     5  0.86
      P1  H  6934  6947       L1    13  0.74

> <Gold.PLP.Chemscore.Internal.Correction>
0.0516

> <Gold.Rescore>
     Score         DG    S(hbond)    S(metal)    S(lipo)     H(rot)  DE(clash)    DE(int)     intcor
     17.69     -18.41       1.89        0.00      89.83       1.52       0.14       0.58       ----

> <Gold.Chemscore.Fitness>
17.6927

> <Gold.Chemscore.DG>
-18.4124

> <Gold.Chemscore.ZeroCoef>
-5.4800

> <Gold.Chemscore.Hbond>
1.8905

> <Gold.Chemscore.Metal>
0.0000

> <Gold.Chemscore.Lipo>
89.8269

> <Gold.Chemscore.Internal_Hbond>
0.0000

> <Gold.Chemscore.DEClash>
0.1359

> <Gold.Chemscore.DEInternal>
0.5838

> <Gold.Chemscore.Rot>
1.5202

> <Gold.Chemscore.Internal.Correction>
   9.000000E+99

> <Gold.Chemscore.Hbonds>
donor molecule, donor type, donor heavy atom, donor atom, acceptor molecule, acceptor atom, score
      P1  H  6896  6907       L1     5  0.78
      P1  H  6934  6947       L1    13  0.74

> <Gold.Chemscore.Hbond.Weighted>
-6.3143

> <Gold.Chemscore.Metal.Weighted>
-0.0000

> <Gold.Chemscore.Lipo.Weighted>
-10.5097

> <Gold.Chemscore.Internal_Hbond.Weighted>
0.0000

> <Gold.Chemscore.DEClash.Weighted>
0.1359

> <Gold.Chemscore.DEInternal.Weighted>
0.5838

> <Gold.Chemscore.Rot.Weighted>
3.8916

> <Gold.Chemscore.Internal.Correction.Weighted>
   9.000000E+99

> <Gold.Protein.RotatedTorsions>
[ 6907 6896 6895 6894 ] final  -85.91 input  -60.11 | X-H torsion
[ 7974 7965 7964 7962 ] final  -71.95 input  175.53 | X-H torsion
[ 8008 7997 7996 7995 ] final  -69.59 input   59.86 | X-H torsion
[ 10167 10162 10161 10158 ] final   31.40 input  -65.29 | X-H torsion
[ 10718 10713 10712 10709 ] final    9.64 input   66.30 | X-H torsion
[ 10763 10752 10751 10750 ] final  -93.46 input  -60.55 | X-H torsion
[ 11005 11000 10999 10996 ] final  -51.60 input  -57.11 | X-H torsion

> <Gold.Protein.ActiveResidues>
 VAL166  LYS551  ARG553  GLY616  TRP617  ASP618  TYR619  PRO620  LYS621  CYS622 
 ASP623  PHE694  ASN695  SER759  ASP760  ASP761  ALA762  ILE779  LEU786  VAL792 
 PHE793  MET794  SER795  GLU796  ALA797  LYS798  CYS799  TRP800  GLU811  SER814 

> <Gold.Protein.RotatedAtoms>
  150.6868  134.3132  159.4755 H   0  0  0  0  0  0  0  0  0  0  0  0  # atno 6907 bound_to 6896
  152.1016  134.9335  160.0578 H   0  0  0  0  0  0  0  0  0  0  0  0  # atno 6908 bound_to 6896
  152.0612  133.4028  159.4455 H   0  0  0  0  0  0  0  0  0  0  0  0  # atno 6909 bound_to 6896
  145.6714  140.9219  143.0881 H   0  0  0  0  0  0  0  0  0  0  0  0  # atno 7974 bound_to 7965
  154.4950  140.0850  156.7676 H   0  0  0  0  0  0  0  0  0  0  0  0  # atno 8008 bound_to 7997
  155.4139  140.3442  155.4247 H   0  0  0  0  0  0  0  0  0  0  0  0  # atno 8009 bound_to 7997
  156.1381  140.1521  156.8951 H   0  0  0  0  0  0  0  0  0  0  0  0  # atno 8010 bound_to 7997
  140.4592  144.0932  150.6209 H   0  0  0  0  0  0  0  0  0  0  0  0  # atno 10167 bound_to 10162
  156.9693  130.5963  149.5667 H   0  0  0  0  0  0  0  0  0  0  0  0  # atno 10718 bound_to 10713
  154.6961  135.5194  153.8460 H   0  0  0  0  0  0  0  0  0  0  0  0  # atno 10763 bound_to 10752
  153.0668  135.6587  154.0346 H   0  0  0  0  0  0  0  0  0  0  0  0  # atno 10764 bound_to 10752
  154.0212  135.2993  155.3360 H   0  0  0  0  0  0  0  0  0  0  0  0  # atno 10765 bound_to 10752
  141.0880  133.6638  156.3902 H   0  0  0  0  0  0  0  0  0  0  0  0  # atno 11005 bound_to 11000
  144.7055  139.8578  143.7431 LP  0  0  0  0  0  0  0  0  0  0  0  0  # atno 17320 bound_to 7965
  146.1042  139.4040  143.0328 LP  0  0  0  0  0  0  0  0  0  0  0  0  # atno 17321 bound_to 7965
  140.4114  143.2655  151.9828 LP  0  0  0  0  0  0  0  0  0  0  0  0  # atno 17342 bound_to 10162
  139.4804  144.5912  151.7769 LP  0  0  0  0  0  0  0  0  0  0  0  0  # atno 17343 bound_to 10162
  156.0289  130.5382  150.8482 LP  0  0  0  0  0  0  0  0  0  0  0  0  # atno 17370 bound_to 10713
  157.5604  131.0946  150.9567 LP  0  0  0  0  0  0  0  0  0  0  0  0  # atno 17371 bound_to 10713
  140.5318  134.6205  157.5352 LP  0  0  0  0  0  0  0  0  0  0  0  0  # atno 17394 bound_to 11000
  139.9701  134.7307  156.0059 LP  0  0  0  0  0  0  0  0  0  0  0  0  # atno 17395 bound_to 11000

$$$$
