AV-unprocessed.smi:3183|AV-procd|sdf|12157|dock2
  -GOLD-   2272017593D 1   1.00000     0.00000
 Structure written by MMmdl.
 43 44  0  0  0  0  0  0  0  0  2 V2000
  152.7150  143.5473  162.1225 C   0  0  0  0  0  0  0  0  0  0  0  0
  152.0732  143.1476  160.7837 C   0  0  2  0  0  0  0  0  0  0  0  0
  153.1219  142.6408  159.7747 C   0  0  0  0  0  0  0  0  0  0  0  0
  152.4613  142.1624  158.4724 C   0  0  0  0  0  0  0  0  0  0  0  0
  151.5887  143.2597  157.8369 C   0  0  1  0  0  0  0  0  0  0  0  0
  150.9478  142.7364  156.6097 N   0  3  0  0  0  0  0  0  0  0  0  0
  150.2533  141.4405  156.7613 C   0  0  0  0  0  0  0  0  0  0  0  0
  150.1649  140.7040  155.4167 C   0  0  0  0  0  0  0  0  0  0  0  0
  151.1793  139.6145  155.2443 C   0  0  0  0  0  0  0  0  0  0  0  0
  152.5446  139.6296  155.3387 C   0  0  0  0  0  0  0  0  0  0  0  0
  152.9275  138.2870  155.0689 C   0  0  0  0  0  0  0  0  0  0  0  0
  151.8914  137.5036  154.8273 N   0  0  0  0  0  0  0  0  0  0  0  0
  150.8186  138.3157  154.9331 N   0  0  0  0  0  0  0  0  0  0  0  0
  149.4921  137.7666  154.7272 C   0  0  0  0  0  0  0  0  0  0  0  0
  150.5429  143.7674  158.8556 C   0  0  0  0  0  0  0  0  0  0  0  0
  151.1847  144.2599  160.1704 C   0  0  2  0  0  0  0  0  0  0  0  0
  151.9040  145.6110  159.9805 C   0  0  0  0  0  0  0  0  0  0  0  0
  153.4646  144.3287  161.9953 H   0  0  0  0  0  0  0  0  0  0  0  0
  153.2116  142.6937  162.5850 H   0  0  0  0  0  0  0  0  0  0  0  0
  151.9658  143.9113  162.8260 H   0  0  0  0  0  0  0  0  0  0  0  0
  151.4137  142.3063  161.0037 H   0  0  0  0  0  0  0  0  0  0  0  0
  153.8453  143.4265  159.5551 H   0  0  0  0  0  0  0  0  0  0  0  0
  153.6903  141.8193  160.2127 H   0  0  0  0  0  0  0  0  0  0  0  0
  153.2325  141.8437  157.7699 H   0  0  0  0  0  0  0  0  0  0  0  0
  151.8527  141.2812  158.6814 H   0  0  0  0  0  0  0  0  0  0  0  0
  152.2427  144.0828  157.5457 H   0  0  0  0  0  0  0  0  0  0  0  0
  150.2573  143.4129  156.3171 H   0  0  0  0  0  0  0  0  0  0  0  0
  150.7850  140.8221  157.4843 H   0  0  0  0  0  0  0  0  0  0  0  0
  149.2505  141.6138  157.1544 H   0  0  0  0  0  0  0  0  0  0  0  0
  149.1667  140.2784  155.3070 H   0  0  0  0  0  0  0  0  0  0  0  0
  150.2790  141.4246  154.6060 H   0  0  0  0  0  0  0  0  0  0  0  0
  153.1801  140.4722  155.5669 H   0  0  0  0  0  0  0  0  0  0  0  0
  153.9200  137.8615  155.0425 H   0  0  0  0  0  0  0  0  0  0  0  0
  148.9410  138.3862  154.0199 H   0  0  0  0  0  0  0  0  0  0  0  0
  148.9552  137.7431  155.6757 H   0  0  0  0  0  0  0  0  0  0  0  0
  149.5522  136.7525  154.3301 H   0  0  0  0  0  0  0  0  0  0  0  0
  149.9435  144.5711  158.4280 H   0  0  0  0  0  0  0  0  0  0  0  0
  149.8434  142.9613  159.0828 H   0  0  0  0  0  0  0  0  0  0  0  0
  150.3683  144.4459  160.8697 H   0  0  0  0  0  0  0  0  0  0  0  0
  152.7838  145.5254  159.3440 H   0  0  0  0  0  0  0  0  0  0  0  0
  152.2261  146.0293  160.9340 H   0  0  0  0  0  0  0  0  0  0  0  0
  151.2392  146.3442  159.5233 H   0  0  0  0  0  0  0  0  0  0  0  0
  151.6458  142.6580  155.8837 H   0  0  0  0  0  0  0  0  0  0  0  0
  1  2  1  0  0  0  0
  1 18  1  0  0  0  0
  1 19  1  0  0  0  0
  1 20  1  0  0  0  0
  2 16  1  0  0  0  0
  2  3  1  0  0  0  0
  2 21  1  0  0  0  0
  3  4  1  0  0  0  0
  3 22  1  0  0  0  0
  3 23  1  0  0  0  0
  4  5  1  0  0  0  0
  4 24  1  0  0  0  0
  4 25  1  0  0  0  0
  5  6  1  0  0  0  0
  5 15  1  0  0  0  0
  5 26  1  0  0  0  0
  6  7  1  0  0  0  0
  6 27  1  0  0  0  0
  6 43  1  0  0  0  0
  7  8  1  0  0  0  0
  7 28  1  0  0  0  0
  7 29  1  0  0  0  0
  8  9  1  0  0  0  0
  8 30  1  0  0  0  0
  8 31  1  0  0  0  0
  9 13  1  0  0  0  0
  9 10  2  0  0  0  0
 10 11  1  0  0  0  0
 10 32  1  0  0  0  0
 11 12  2  0  0  0  0
 11 33  1  0  0  0  0
 12 13  1  0  0  0  0
 13 14  1  0  0  0  0
 14 34  1  0  0  0  0
 14 35  1  0  0  0  0
 14 36  1  0  0  0  0
 15 16  1  0  0  0  0
 15 37  1  0  0  0  0
 15 38  1  0  0  0  0
 16 17  1  0  0  0  0
 16 39  1  0  0  0  0
 17 40  1  0  0  0  0
 17 41  1  0  0  0  0
 17 42  1  0  0  0  0
M  CHG  1   6   1
M  END
> <s_m_source_file>
AV-unprocessed.smi

> <i_m_source_file_index>
3183

> <i_lp_mmshare_version>
43012

> <i_f3d_flags>
0

> <s_epik_input>
W0NIM11bQ0BASF0xW0NIMl1bQ0gyXVtDQEhdKFtDSDJdW0NASF0xW0NIM10pW05IXVtDSDJdW0NIMl1jMltjSF1bY0hdbm4yW0NIM10=

> <s_epik_cmdline>
J2VwaWtfcHl0aG9uJywgJy1waCcsICc3LjAnLCAnLXRuJywgJzgnLCAnLW1hJywgJzIwMCcsICctbWV0YWxfYmluZGluZycsICctaW1hZScsICc8aW5maWxlLm1hZT4nLCAnLW9tYWUnLCAnPG91dGZpbGUubWFlPic=

> <r_lp_tautomer_probability>
1

> <r_epik_Ionization_Penalty>
0.000327718

> <r_epik_Ionization_Penalty_Charging>
0.000294043

> <r_epik_Ionization_Penalty_Neutral>
3.36755e-05

> <r_epik_State_Penalty>
-0

> <r_epik_Charging_Adjusted_Penalty>
0.000294043

> <i_epik_Tot_Q>
1

> <i_epik_Tot_abs_Q>
1

> <r_epik_Metal_State_Penalty>
-0

> <b_epik_Metal_Only>
0

> <s_lp_Force_Field>
OPLS_2005

> <r_lp_Energy>
13.9597

> <b_lp_Chiralities_Consistent>
1

> <s_lp_Variant>
AV-unprocessed.smi:3183-5

> <Gold.Version>
5.8.1

> <Gold.Id.Protein>
6NUR|6NUR_protein|mol2

> <Gold.PLP.Fitness>
48.4916

> <Gold.PLP.PLP>
-41.7268

> <Gold.PLP.part.hbond>
-1.9599

> <Gold.PLP.part.metal>
0.0000

> <Gold.PLP.part.buried>
-2.3027

> <Gold.PLP.part.nonpolar>
-36.9665

> <Gold.PLP.part.repulsive>
0.1695

> <Gold.PLP.ligand.clash>
0.0000

> <Gold.PLP.ligand.torsion>
0.5099

> <Gold.PLP.Chemscore.Hbond>
2.5863

> <Gold.PLP.Chemscore.CHOScore>
0.0000

> <Gold.PLP.Chemscore.Metal>
0.0000

> <Gold.Chemscore.Hbonds>
donor molecule, donor type, donor heavy atom, donor atom, acceptor molecule, acceptor atom, score
      L1  H     6    27       P1  8028  2.00
      P1  H 10752 10764       L1    12  0.54

> <Gold.PLP.Chemscore.Internal.Correction>
0.0258

> <Gold.Rescore>
     Score         DG    S(hbond)    S(metal)    S(lipo)     H(rot)  DE(clash)    DE(int)     intcor
     20.72     -21.99       1.58        0.00     126.06       1.38       0.75       0.53       ----

> <Gold.Chemscore.Fitness>
20.7185

> <Gold.Chemscore.DG>
-21.9933

> <Gold.Chemscore.ZeroCoef>
-5.4800

> <Gold.Chemscore.Hbond>
1.5834

> <Gold.Chemscore.Metal>
0.0000

> <Gold.Chemscore.Lipo>
126.0645

> <Gold.Chemscore.Internal_Hbond>
0.0000

> <Gold.Chemscore.DEClash>
0.7480

> <Gold.Chemscore.DEInternal>
0.5269

> <Gold.Chemscore.Rot>
1.3768

> <Gold.Chemscore.Internal.Correction>
   9.000000E+99

> <Gold.Chemscore.Hbonds>
donor molecule, donor type, donor heavy atom, donor atom, acceptor molecule, acceptor atom, score
      L1  H     6    27       P1  8028  0.96
      P1  H 10752 10764       L1    12  0.12

> <Gold.Chemscore.Hbond.Weighted>
-5.2885

> <Gold.Chemscore.Metal.Weighted>
-0.0000

> <Gold.Chemscore.Lipo.Weighted>
-14.7495

> <Gold.Chemscore.Internal_Hbond.Weighted>
0.0000

> <Gold.Chemscore.DEClash.Weighted>
0.7480

> <Gold.Chemscore.DEInternal.Weighted>
0.5269

> <Gold.Chemscore.Rot.Weighted>
3.5247

> <Gold.Chemscore.Internal.Correction.Weighted>
   9.000000E+99

> <Gold.Protein.RotatedTorsions>
[ 6907 6896 6895 6894 ] final   46.00 input  -60.11 | X-H torsion
[ 7974 7965 7964 7962 ] final -158.43 input  175.53 | X-H torsion
[ 8008 7997 7996 7995 ] final -130.00 input   59.86 | X-H torsion
[ 10167 10162 10161 10158 ] final  -24.50 input  -65.29 | X-H torsion
[ 10718 10713 10712 10709 ] final  -77.59 input   66.30 | X-H torsion
[ 10763 10752 10751 10750 ] final  -71.16 input  -60.55 | X-H torsion
[ 11005 11000 10999 10996 ] final -159.64 input  -57.11 | X-H torsion

> <Gold.Protein.ActiveResidues>
 VAL166  LYS551  ARG553  GLY616  TRP617  ASP618  TYR619  PRO620  LYS621  CYS622 
 ASP623  PHE694  ASN695  SER759  ASP760  ASP761  ALA762  ILE779  LEU786  VAL792 
 PHE793  MET794  SER795  GLU796  ALA797  LYS798  CYS799  TRP800  GLU811  SER814 

> <Gold.Protein.RotatedAtoms>
  152.2512  134.8131  160.0445 H   0  0  0  0  0  0  0  0  0  0  0  0  # atno 6907 bound_to 6896
  151.8811  133.3490  159.3774 H   0  0  0  0  0  0  0  0  0  0  0  0  # atno 6908 bound_to 6896
  150.7084  134.4945  159.5575 H   0  0  0  0  0  0  0  0  0  0  0  0  # atno 6909 bound_to 6896
  144.7506  140.3829  143.6051 H   0  0  0  0  0  0  0  0  0  0  0  0  # atno 7974 bound_to 7965
  155.2885  140.0447  157.3021 H   0  0  0  0  0  0  0  0  0  0  0  0  # atno 8008 bound_to 7997
  154.5555  140.2330  155.8384 H   0  0  0  0  0  0  0  0  0  0  0  0  # atno 8009 bound_to 7997
  156.2004  140.3027  155.9521 H   0  0  0  0  0  0  0  0  0  0  0  0  # atno 8010 bound_to 7997
  140.7288  143.4347  151.0747 H   0  0  0  0  0  0  0  0  0  0  0  0  # atno 10167 bound_to 10162
  156.0141  130.4495  150.3368 H   0  0  0  0  0  0  0  0  0  0  0  0  # atno 10718 bound_to 10713
  154.4278  135.5971  153.6050 H   0  0  0  0  0  0  0  0  0  0  0  0  # atno 10763 bound_to 10752
  152.9797  135.5968  154.3876 H   0  0  0  0  0  0  0  0  0  0  0  0  # atno 10764 bound_to 10752
  154.3710  135.2841  155.2245 H   0  0  0  0  0  0  0  0  0  0  0  0  # atno 10765 bound_to 10752
  140.6403  134.4558  157.5233 H   0  0  0  0  0  0  0  0  0  0  0  0  # atno 11005 bound_to 11000
  145.6958  139.1649  143.2621 LP  0  0  0  0  0  0  0  0  0  0  0  0  # atno 17320 bound_to 7965
  146.1450  140.7005  142.9349 LP  0  0  0  0  0  0  0  0  0  0  0  0  # atno 17321 bound_to 7965
  139.8008  143.8086  152.3162 LP  0  0  0  0  0  0  0  0  0  0  0  0  # atno 17342 bound_to 10162
  139.8102  144.7339  150.9707 LP  0  0  0  0  0  0  0  0  0  0  0  0  # atno 17343 bound_to 10162
  157.1464  131.0310  151.2905 LP  0  0  0  0  0  0  0  0  0  0  0  0  # atno 17370 bound_to 10713
  157.4429  130.7554  149.7084 LP  0  0  0  0  0  0  0  0  0  0  0  0  # atno 17371 bound_to 10713
  139.9083  134.8401  156.1624 LP  0  0  0  0  0  0  0  0  0  0  0  0  # atno 17394 bound_to 11000
  141.0611  133.6841  156.1955 LP  0  0  0  0  0  0  0  0  0  0  0  0  # atno 17395 bound_to 11000

$$$$
