AV-unprocessed.smi:1005|AV-procd|sdf|4377|dock9
  -GOLD-   22720 2293D 1   1.00000     0.00000
 Structure written by MMmdl.
 57 59  0  0  0  0  0  0  0  0  3 V2000
  151.7453  144.2567  161.7796 C   0  0  0  0  0  0  0  0  0  0  0  0
  151.7660  143.3117  160.5904 C   0  0  0  0  0  0  0  0  0  0  0  0
  150.9770  143.6303  159.4621 C   0  0  0  0  0  0  0  0  0  0  0  0
  151.0156  142.7459  158.3908 C   0  0  0  0  0  0  0  0  0  0  0  0
  150.3599  142.7756  157.1583 N   0  3  0  0  0  0  0  0  0  0  0  0
  150.7116  141.6803  156.4301 C   0  0  0  0  0  0  0  0  0  0  0  0
  151.5821  140.9505  157.1792 N   0  0  0  0  0  0  0  0  0  0  0  0
  152.2571  139.6855  156.8556 C   0  0  0  0  0  0  0  0  0  0  0  0
  152.1241  139.3000  155.3692 C   0  0  1  0  0  0  0  0  0  0  0  0
  153.2498  139.8212  154.6933 O   0  0  0  0  0  0  0  0  0  0  0  0
  152.0645  137.7744  155.1307 C   0  0  0  0  0  0  0  0  0  0  0  0
  150.8731  137.0988  155.6466 N   0  0  0  0  0  0  0  0  0  0  0  0
  150.9512  136.8348  157.0821 C   0  0  0  0  0  0  0  0  0  0  0  0
  149.7077  136.0907  157.5968 C   0  0  0  0  0  0  0  0  0  0  0  0
  149.5307  134.8873  156.8571 O   0  0  0  0  0  0  0  0  0  0  0  0
  149.3850  135.1110  155.4572 C   0  0  2  0  0  0  0  0  0  0  0  0
  149.1948  133.7473  154.7690 C   0  0  0  0  0  0  0  0  0  0  0  0
  148.6973  133.8708  153.3748 N   0  3  0  0  0  0  0  0  0  0  0  0
  149.0977  132.7432  152.5014 C   0  0  0  0  0  0  0  0  0  0  0  0
  147.2367  134.1017  153.3251 C   0  0  0  0  0  0  0  0  0  0  0  0
  150.6447  135.8391  154.9469 C   0  0  0  0  0  0  0  0  0  0  0  0
  151.8041  141.5785  158.4114 C   0  0  0  0  0  0  0  0  0  0  0  0
  152.5881  141.2508  159.5158 C   0  0  0  0  0  0  0  0  0  0  0  0
  152.5608  142.1366  160.6167 C   0  0  0  0  0  0  0  0  0  0  0  0
  153.4028  141.8018  161.8364 C   0  0  0  0  0  0  0  0  0  0  0  0
  151.0802  145.1030  161.6054 H   0  0  0  0  0  0  0  0  0  0  0  0
  152.7432  144.6518  161.9721 H   0  0  0  0  0  0  0  0  0  0  0  0
  151.3981  143.7396  162.6744 H   0  0  0  0  0  0  0  0  0  0  0  0
  150.3689  144.5228  159.4349 H   0  0  0  0  0  0  0  0  0  0  0  0
  150.3624  141.4347  155.4374 H   0  0  0  0  0  0  0  0  0  0  0  0
  153.3098  139.8166  157.1108 H   0  0  0  0  0  0  0  0  0  0  0  0
  151.8842  138.8952  157.5070 H   0  0  0  0  0  0  0  0  0  0  0  0
  151.2358  139.7896  154.9724 H   0  0  0  0  0  0  0  0  0  0  0  0
  153.6132  139.1441  154.1435 H   0  0  0  0  0  0  0  0  0  0  0  0
  152.1398  137.6008  154.0561 H   0  0  0  0  0  0  0  0  0  0  0  0
  152.9444  137.3015  155.5671 H   0  0  0  0  0  0  0  0  0  0  0  0
  151.8416  136.2439  157.3024 H   0  0  0  0  0  0  0  0  0  0  0  0
  151.0488  137.7663  157.6379 H   0  0  0  0  0  0  0  0  0  0  0  0
  149.8222  135.8470  158.6531 H   0  0  0  0  0  0  0  0  0  0  0  0
  148.8180  136.7159  157.5068 H   0  0  0  0  0  0  0  0  0  0  0  0
  148.5187  135.7488  155.2800 H   0  0  0  0  0  0  0  0  0  0  0  0
  150.1281  133.1823  154.7726 H   0  0  0  0  0  0  0  0  0  0  0  0
  148.4821  133.1666  155.3567 H   0  0  0  0  0  0  0  0  0  0  0  0
  148.7021  131.7983  152.8759 H   0  0  0  0  0  0  0  0  0  0  0  0
  150.1809  132.6564  152.4269 H   0  0  0  0  0  0  0  0  0  0  0  0
  148.7187  132.8911  151.4895 H   0  0  0  0  0  0  0  0  0  0  0  0
  146.6926  133.2482  153.7322 H   0  0  0  0  0  0  0  0  0  0  0  0
  146.9050  134.2606  152.2983 H   0  0  0  0  0  0  0  0  0  0  0  0
  146.9632  134.9881  153.8986 H   0  0  0  0  0  0  0  0  0  0  0  0
  150.5400  136.0281  153.8776 H   0  0  0  0  0  0  0  0  0  0  0  0
  151.5139  135.1897  155.0645 H   0  0  0  0  0  0  0  0  0  0  0  0
  153.1920  140.3562  159.5411 H   0  0  0  0  0  0  0  0  0  0  0  0
  153.9573  140.8733  161.6968 H   0  0  0  0  0  0  0  0  0  0  0  0
  152.7711  141.6827  162.7168 H   0  0  0  0  0  0  0  0  0  0  0  0
  154.1256  142.5942  162.0325 H   0  0  0  0  0  0  0  0  0  0  0  0
  149.1238  134.7038  152.9935 H   0  0  0  0  0  0  0  0  0  0  0  0
  149.7195  143.4897  156.8350 H   0  0  0  0  0  0  0  0  0  0  0  0
  1  2  1  0  0  0  0
  1 26  1  0  0  0  0
  1 27  1  0  0  0  0
  1 28  1  0  0  0  0
  2 24  1  0  0  0  0
  2  3  2  0  0  0  0
  3  4  1  0  0  0  0
  3 29  1  0  0  0  0
  4 22  2  0  0  0  0
  4  5  1  0  0  0  0
  5  6  2  0  0  0  0
  5 57  1  0  0  0  0
  6  7  1  0  0  0  0
  6 30  1  0  0  0  0
  7  8  1  0  0  0  0
  7 22  1  0  0  0  0
  8  9  1  0  0  0  0
  8 31  1  0  0  0  0
  8 32  1  0  0  0  0
  9 10  1  0  0  0  0
  9 11  1  0  0  0  0
  9 33  1  0  0  0  0
 10 34  1  0  0  0  0
 11 12  1  0  0  0  0
 11 35  1  0  0  0  0
 11 36  1  0  0  0  0
 12 21  1  0  0  0  0
 12 13  1  0  0  0  0
 13 14  1  0  0  0  0
 13 37  1  0  0  0  0
 13 38  1  0  0  0  0
 14 15  1  0  0  0  0
 14 39  1  0  0  0  0
 14 40  1  0  0  0  0
 15 16  1  0  0  0  0
 16 17  1  0  0  0  0
 16 21  1  0  0  0  0
 16 41  1  0  0  0  0
 17 18  1  0  0  0  0
 17 42  1  0  0  0  0
 17 43  1  0  0  0  0
 18 19  1  0  0  0  0
 18 20  1  0  0  0  0
 18 56  1  0  0  0  0
 19 44  1  0  0  0  0
 19 45  1  0  0  0  0
 19 46  1  0  0  0  0
 20 47  1  0  0  0  0
 20 48  1  0  0  0  0
 20 49  1  0  0  0  0
 21 50  1  0  0  0  0
 21 51  1  0  0  0  0
 22 23  1  0  0  0  0
 23 24  2  0  0  0  0
 23 52  1  0  0  0  0
 24 25  1  0  0  0  0
 25 53  1  0  0  0  0
 25 54  1  0  0  0  0
 25 55  1  0  0  0  0
M  CHG  1   5   1
M  CHG  1  18   1
M  END
> <s_m_source_file>
AV-unprocessed.smi

> <i_m_source_file_index>
1005

> <i_lp_mmshare_version>
43012

> <i_f3d_flags>
0

> <s_epik_input>
W0NIM11jKFtjSF0xKWMoW0NIM10pW2NIXWMoYzEyKW4oW2NIXW4yKVtDSDJdW0NASF0oW09IXSlbQ0gyXU4zW0NIMl1bQ0gyXU9bQ0BIXShbQ0gyXTMpW0NIMl1OKFtDSDNdKVtDSDNd

> <s_epik_cmdline>
J2VwaWtfcHl0aG9uJywgJy1waCcsICc3LjAnLCAnLXRuJywgJzgnLCAnLW1hJywgJzIwMCcsICctbWV0YWxfYmluZGluZycsICctaW1hZScsICc8aW5maWxlLm1hZT4nLCAnLW9tYWUnLCAnPG91dGZpbGUubWFlPic=

> <r_epik_Ionization_Penalty>
1.3281

> <r_epik_Ionization_Penalty_Charging>
1.21988

> <r_epik_Ionization_Penalty_Neutral>
0.10822

> <r_epik_State_Penalty>
1.32886

> <r_epik_Charging_Adjusted_Penalty>
2.54875

> <i_epik_Tot_Q>
2

> <i_epik_Tot_abs_Q>
2

> <r_epik_Metal_State_Penalty>
5.33912

> <b_epik_Metal_Only>
0

> <s_lp_Force_Field>
OPLS_2005

> <r_lp_Energy>
45.9182

> <b_lp_Chiralities_Consistent>
1

> <s_lp_Variant>
AV-unprocessed.smi:1005-16

> <Gold.Version>
5.8.1

> <Gold.Id.Protein>
6NUR|6NUR_protein|mol2

> <Gold.PLP.Fitness>
60.3548

> <Gold.PLP.PLP>
-47.5058

> <Gold.PLP.part.hbond>
-4.0000

> <Gold.PLP.part.metal>
0.0000

> <Gold.PLP.part.buried>
-4.3670

> <Gold.PLP.part.nonpolar>
-37.9342

> <Gold.PLP.part.repulsive>
0.0890

> <Gold.PLP.ligand.clash>
0.0000

> <Gold.PLP.ligand.torsion>
1.1507

> <Gold.PLP.Chemscore.Hbond>
5.0000

> <Gold.PLP.Chemscore.CHOScore>
0.0000

> <Gold.PLP.Chemscore.Metal>
0.0000

> <Gold.Chemscore.Hbonds>
donor molecule, donor type, donor heavy atom, donor atom, acceptor molecule, acceptor atom, score
      L1  H     5    57       P1  8028  2.00
      L1  H    18    56       P1  7948  0.86
      P1  H  7989  7998       L1    10  0.02
      P1  H  7997  8008       L1    10  0.90

> <Gold.PLP.Chemscore.Internal.Correction>
0.1503

> <Gold.Rescore>
     Score         DG    S(hbond)    S(metal)    S(lipo)     H(rot)  DE(clash)    DE(int)     intcor
     21.68     -22.97       2.85        0.00     122.64       2.49       0.13       1.16       ----

> <Gold.Chemscore.Fitness>
21.6782

> <Gold.Chemscore.DG>
-22.9708

> <Gold.Chemscore.ZeroCoef>
-5.4800

> <Gold.Chemscore.Hbond>
2.8491

> <Gold.Chemscore.Metal>
0.0000

> <Gold.Chemscore.Lipo>
122.6374

> <Gold.Chemscore.Internal_Hbond>
0.0000

> <Gold.Chemscore.DEClash>
0.1276

> <Gold.Chemscore.DEInternal>
1.1649

> <Gold.Chemscore.Rot>
2.4897

> <Gold.Chemscore.Internal.Correction>
   9.000000E+99

> <Gold.Chemscore.Hbonds>
donor molecule, donor type, donor heavy atom, donor atom, acceptor molecule, acceptor atom, score
      L1  H     5    57       P1  8028  0.99
      L1  H    18    56       P1  7948  0.01
      P1  H  7997  8008       L1    10  0.17

> <Gold.Chemscore.Hbond.Weighted>
-9.5159

> <Gold.Chemscore.Metal.Weighted>
-0.0000

> <Gold.Chemscore.Lipo.Weighted>
-14.3486

> <Gold.Chemscore.Internal_Hbond.Weighted>
0.0000

> <Gold.Chemscore.DEClash.Weighted>
0.1276

> <Gold.Chemscore.DEInternal.Weighted>
1.1649

> <Gold.Chemscore.Rot.Weighted>
6.3737

> <Gold.Chemscore.Internal.Correction.Weighted>
   9.000000E+99

> <Gold.Protein.RotatedTorsions>
[ 6907 6896 6895 6894 ] final   73.76 input  -60.11 | X-H torsion
[ 7974 7965 7964 7962 ] final  178.38 input  175.53 | X-H torsion
[ 8008 7997 7996 7995 ] final    9.71 input   59.86 | X-H torsion
[ 10167 10162 10161 10158 ] final   97.54 input  -65.29 | X-H torsion
[ 10718 10713 10712 10709 ] final  170.14 input   66.30 | X-H torsion
[ 10763 10752 10751 10750 ] final  -71.93 input  -60.55 | X-H torsion
[ 11005 11000 10999 10996 ] final   38.49 input  -57.11 | X-H torsion

> <Gold.Protein.ActiveResidues>
 VAL166  LYS551  ARG553  GLY616  TRP617  ASP618  TYR619  PRO620  LYS621  CYS622 
 ASP623  PHE694  ASN695  SER759  ASP760  ASP761  ALA762  ILE779  LEU786  VAL792 
 PHE793  MET794  SER795  GLU796  ALA797  LYS798  CYS799  TRP800  GLU811  SER814 

> <Gold.Protein.RotatedAtoms>
  152.4940  134.4373  159.9531 H   0  0  0  0  0  0  0  0  0  0  0  0  # atno 6907 bound_to 6896
  151.4355  133.3652  159.2782 H   0  0  0  0  0  0  0  0  0  0  0  0  # atno 6908 bound_to 6896
  150.9124  134.8565  159.7494 H   0  0  0  0  0  0  0  0  0  0  0  0  # atno 6909 bound_to 6896
  144.7157  140.0388  143.6438 H   0  0  0  0  0  0  0  0  0  0  0  0  # atno 7974 bound_to 7965
  154.7836  140.2823  155.6045 H   0  0  0  0  0  0  0  0  0  0  0  0  # atno 8008 bound_to 7997
  156.2954  140.2618  156.2596 H   0  0  0  0  0  0  0  0  0  0  0  0  # atno 8009 bound_to 7997
  154.9754  140.0375  157.2243 H   0  0  0  0  0  0  0  0  0  0  0  0  # atno 8010 bound_to 7997
  139.7792  144.6894  151.0047 H   0  0  0  0  0  0  0  0  0  0  0  0  # atno 10167 bound_to 10162
  157.0125  131.0208  151.2799 H   0  0  0  0  0  0  0  0  0  0  0  0  # atno 10718 bound_to 10713
  154.4386  135.5946  153.6114 H   0  0  0  0  0  0  0  0  0  0  0  0  # atno 10763 bound_to 10752
  152.9804  135.5992  154.3750 H   0  0  0  0  0  0  0  0  0  0  0  0  # atno 10764 bound_to 10752
  154.3598  135.2841  155.2305 H   0  0  0  0  0  0  0  0  0  0  0  0  # atno 10765 bound_to 10752
  140.2121  134.3743  155.8044 H   0  0  0  0  0  0  0  0  0  0  0  0  # atno 11005 bound_to 11000
  146.0041  139.3115  143.0910 LP  0  0  0  0  0  0  0  0  0  0  0  0  # atno 17320 bound_to 7965
  145.8759  140.9392  143.0626 LP  0  0  0  0  0  0  0  0  0  0  0  0  # atno 17321 bound_to 7965
  140.7817  143.4502  151.0424 LP  0  0  0  0  0  0  0  0  0  0  0  0  # atno 17342 bound_to 10162
  139.8183  143.7855  152.3175 LP  0  0  0  0  0  0  0  0  0  0  0  0  # atno 17343 bound_to 10162
  157.5310  130.8058  149.7917 LP  0  0  0  0  0  0  0  0  0  0  0  0  # atno 17370 bound_to 10713
  156.0131  130.3825  150.2199 LP  0  0  0  0  0  0  0  0  0  0  0  0  # atno 17371 bound_to 10713
  141.2226  133.7148  156.8435 LP  0  0  0  0  0  0  0  0  0  0  0  0  # atno 17394 bound_to 11000
  140.1940  134.8945  157.3093 LP  0  0  0  0  0  0  0  0  0  0  0  0  # atno 17395 bound_to 11000

$$$$
