AV-unprocessed.smi:3129|AV-procd|sdf|11922|dock4
  -GOLD-   2272017303D 1   1.00000     0.00000
 Structure written by MMmdl.
 40 40  0  0  0  0  0  0  0  0  2 V2000
  144.5017  134.3519  150.4641 C   0  0  0  0  0  0  0  0  0  0  0  0
  145.7779  133.9371  151.2094 C   0  0  0  0  0  0  0  0  0  0  0  0
  145.7915  132.4198  151.4640 C   0  0  0  0  0  0  0  0  0  0  0  0
  145.9453  134.7602  152.5065 C   0  0  0  0  0  0  0  0  0  0  0  0
  146.4444  136.1108  152.2651 N   0  0  0  0  0  0  0  0  0  0  0  0
  145.8006  137.2408  152.5942 C   0  0  0  0  0  0  0  0  0  0  0  0
  144.7118  137.2561  153.1696 O   0  0  0  0  0  0  0  0  0  0  0  0
  146.4822  138.5603  152.2103 C   0  0  2  0  0  0  0  0  0  0  0  0
  146.5825  138.6801  150.6822 C   0  0  0  0  0  0  0  0  0  0  0  0
  147.8312  138.6295  152.8116 N   0  3  0  0  0  0  0  0  0  0  0  0
  147.8554  138.9938  154.2457 C   0  0  0  0  0  0  0  0  0  0  0  0
  148.9968  139.9761  154.5508 C   0  0  0  0  0  0  0  0  0  0  0  0
  150.2761  139.2982  154.6680 N   0  0  0  0  0  0  0  0  0  0  0  0
  150.5758  137.9770  154.4105 C   0  0  0  0  0  0  0  0  0  0  0  0
  151.9045  137.8037  154.6720 C   0  0  0  0  0  0  0  0  0  0  0  0
  152.3405  139.0947  155.0808 C   0  0  0  0  0  0  0  0  0  0  0  0
  151.3644  139.9875  155.0738 N   0  0  0  0  0  0  0  0  0  0  0  0
  143.6103  134.1450  151.0572 H   0  0  0  0  0  0  0  0  0  0  0  0
  144.4057  133.8146  149.5202 H   0  0  0  0  0  0  0  0  0  0  0  0
  144.5091  135.4180  150.2350 H   0  0  0  0  0  0  0  0  0  0  0  0
  146.6163  134.1657  150.5510 H   0  0  0  0  0  0  0  0  0  0  0  0
  144.9857  132.1238  152.1361 H   0  0  0  0  0  0  0  0  0  0  0  0
  146.7328  132.0942  151.9066 H   0  0  0  0  0  0  0  0  0  0  0  0
  145.6678  131.8666  150.5326 H   0  0  0  0  0  0  0  0  0  0  0  0
  144.9973  134.8172  153.0444 H   0  0  0  0  0  0  0  0  0  0  0  0
  146.6465  134.2596  153.1748 H   0  0  0  0  0  0  0  0  0  0  0  0
  147.3370  136.1874  151.7990 H   0  0  0  0  0  0  0  0  0  0  0  0
  145.8930  139.4027  152.5776 H   0  0  0  0  0  0  0  0  0  0  0  0
  145.5967  138.6402  150.2169 H   0  0  0  0  0  0  0  0  0  0  0  0
  147.1855  137.8785  150.2529 H   0  0  0  0  0  0  0  0  0  0  0  0
  147.0395  139.6274  150.3943 H   0  0  0  0  0  0  0  0  0  0  0  0
  148.2534  137.7180  152.7023 H   0  0  0  0  0  0  0  0  0  0  0  0
  146.8930  139.4347  154.5063 H   0  0  0  0  0  0  0  0  0  0  0  0
  147.9652  138.1058  154.8699 H   0  0  0  0  0  0  0  0  0  0  0  0
  149.0677  140.7386  153.7740 H   0  0  0  0  0  0  0  0  0  0  0  0
  148.8011  140.4978  155.4884 H   0  0  0  0  0  0  0  0  0  0  0  0
  149.8272  137.2762  154.0712 H   0  0  0  0  0  0  0  0  0  0  0  0
  152.4788  136.8934  154.5833 H   0  0  0  0  0  0  0  0  0  0  0  0
  153.3294  139.4078  155.3813 H   0  0  0  0  0  0  0  0  0  0  0  0
  148.3860  139.3054  152.3065 H   0  0  0  0  0  0  0  0  0  0  0  0
  1  2  1  0  0  0  0
  1 18  1  0  0  0  0
  1 19  1  0  0  0  0
  1 20  1  0  0  0  0
  2  3  1  0  0  0  0
  2  4  1  0  0  0  0
  2 21  1  0  0  0  0
  3 22  1  0  0  0  0
  3 23  1  0  0  0  0
  3 24  1  0  0  0  0
  4  5  1  0  0  0  0
  4 25  1  0  0  0  0
  4 26  1  0  0  0  0
  5  6  1  0  0  0  0
  5 27  1  0  0  0  0
  6  7  2  0  0  0  0
  6  8  1  0  0  0  0
  8  9  1  0  0  0  0
  8 10  1  0  0  0  0
  8 28  1  0  0  0  0
  9 29  1  0  0  0  0
  9 30  1  0  0  0  0
  9 31  1  0  0  0  0
 10 11  1  0  0  0  0
 10 32  1  0  0  0  0
 10 40  1  0  0  0  0
 11 12  1  0  0  0  0
 11 33  1  0  0  0  0
 11 34  1  0  0  0  0
 12 13  1  0  0  0  0
 12 35  1  0  0  0  0
 12 36  1  0  0  0  0
 13 17  1  0  0  0  0
 13 14  1  0  0  0  0
 14 15  2  0  0  0  0
 14 37  1  0  0  0  0
 15 16  1  0  0  0  0
 15 38  1  0  0  0  0
 16 17  2  0  0  0  0
 16 39  1  0  0  0  0
M  CHG  1  10   1
M  END
> <s_m_source_file>
AV-unprocessed.smi

> <i_m_source_file_index>
3129

> <i_lp_mmshare_version>
43012

> <i_f3d_flags>
0

> <s_epik_input>
W0NIM11bQ0hdKFtDSDNdKVtDSDJdW05IXUMoPU8pW0NASF0oW0NIM10pW05IXVtDSDJdW0NIMl1uMVtjSF1bY0hdW2NIXW4x

> <s_epik_cmdline>
J2VwaWtfcHl0aG9uJywgJy1waCcsICc3LjAnLCAnLXRuJywgJzgnLCAnLW1hJywgJzIwMCcsICctbWV0YWxfYmluZGluZycsICctaW1hZScsICc8aW5maWxlLm1hZT4nLCAnLW9tYWUnLCAnPG91dGZpbGUubWFlPic=

> <r_lp_tautomer_probability>
1

> <r_epik_Ionization_Penalty>
0.20724

> <r_epik_Ionization_Penalty_Charging>
0.207237

> <r_epik_Ionization_Penalty_Neutral>
3.32432e-06

> <r_epik_State_Penalty>
0.197234

> <r_epik_Charging_Adjusted_Penalty>
0.404471

> <i_epik_Tot_Q>
1

> <i_epik_Tot_abs_Q>
1

> <r_epik_Metal_State_Penalty>
0.197522

> <b_epik_Metal_Only>
0

> <s_lp_Force_Field>
OPLS_2005

> <r_lp_Energy>
5.48994

> <b_lp_Chiralities_Consistent>
1

> <s_lp_Variant>
AV-unprocessed.smi:3129-1

> <Gold.Version>
5.8.1

> <Gold.Id.Protein>
6NUR|6NUR_protein|mol2

> <Gold.PLP.Fitness>
49.0073

> <Gold.PLP.PLP>
-32.4587

> <Gold.PLP.part.hbond>
-3.9203

> <Gold.PLP.part.metal>
0.0000

> <Gold.PLP.part.buried>
1.8641

> <Gold.PLP.part.nonpolar>
-31.8509

> <Gold.PLP.part.repulsive>
0.3119

> <Gold.PLP.ligand.clash>
0.0000

> <Gold.PLP.ligand.torsion>
0.8266

> <Gold.PLP.Chemscore.Hbond>
4.9920

> <Gold.PLP.Chemscore.CHOScore>
1.0000

> <Gold.PLP.Chemscore.Metal>
0.0000

> <Gold.Chemscore.Hbonds>
donor molecule, donor type, donor heavy atom, donor atom, acceptor molecule, acceptor atom, score
      L1  H     5    27       P1  7948  1.00
      L1  H    10    32       P1  7948  2.00
      L1  H    10    40       P1  7957  1.00
      P1  H  7989  7998       L1    17  0.85
      L1  C    14    37       P1  7948  0.92

> <Gold.PLP.Chemscore.Internal.Correction>
0.2258

> <Gold.Rescore>
     Score         DG    S(hbond)    S(metal)    S(lipo)     H(rot)  DE(clash)    DE(int)     intcor
     16.98     -20.56       3.54        0.00      76.61       2.22       2.35       1.24       ----

> <Gold.Chemscore.Fitness>
16.9793

> <Gold.Chemscore.DG>
-20.5629

> <Gold.Chemscore.ZeroCoef>
-5.4800

> <Gold.Chemscore.Hbond>
3.5375

> <Gold.Chemscore.Metal>
0.0000

> <Gold.Chemscore.Lipo>
76.6103

> <Gold.Chemscore.Internal_Hbond>
0.0000

> <Gold.Chemscore.DEClash>
2.3458

> <Gold.Chemscore.DEInternal>
1.2379

> <Gold.Chemscore.Rot>
2.2249

> <Gold.Chemscore.Internal.Correction>
   9.000000E+99

> <Gold.Chemscore.Hbonds>
donor molecule, donor type, donor heavy atom, donor atom, acceptor molecule, acceptor atom, score
      L1  H     5    27       P1  7948  0.95
      L1  H    10    32       P1  7948  0.99
      L1  H    10    40       P1  7957  1.00
      P1  H  7989  7998       L1    17  0.05

> <Gold.Chemscore.Hbond.Weighted>
-11.8153

> <Gold.Chemscore.Metal.Weighted>
-0.0000

> <Gold.Chemscore.Lipo.Weighted>
-8.9634

> <Gold.Chemscore.Internal_Hbond.Weighted>
0.0000

> <Gold.Chemscore.DEClash.Weighted>
2.3458

> <Gold.Chemscore.DEInternal.Weighted>
1.2379

> <Gold.Chemscore.Rot.Weighted>
5.6957

> <Gold.Chemscore.Internal.Correction.Weighted>
   9.000000E+99

> <Gold.Protein.RotatedTorsions>
[ 6907 6896 6895 6894 ] final  118.79 input  -60.11 | X-H torsion
[ 7974 7965 7964 7962 ] final -139.71 input  175.53 | X-H torsion
[ 8008 7997 7996 7995 ] final  -74.06 input   59.86 | X-H torsion
[ 10167 10162 10161 10158 ] final   48.63 input  -65.29 | X-H torsion
[ 10718 10713 10712 10709 ] final  -80.78 input   66.30 | X-H torsion
[ 10763 10752 10751 10750 ] final  -67.04 input  -60.55 | X-H torsion
[ 11005 11000 10999 10996 ] final  144.30 input  -57.11 | X-H torsion

> <Gold.Protein.ActiveResidues>
 VAL166  LYS551  ARG553  GLY616  TRP617  ASP618  TYR619  PRO620  LYS621  CYS622 
 ASP623  PHE694  ASN695  SER759  ASP760  ASP761  ALA762  ILE779  LEU786  VAL792 
 PHE793  MET794  SER795  GLU796  ALA797  LYS798  CYS799  TRP800  GLU811  SER814 

> <Gold.Protein.RotatedAtoms>
  152.4518  133.7645  159.6764 H   0  0  0  0  0  0  0  0  0  0  0  0  # atno 6907 bound_to 6896
  150.8433  133.7892  159.3059 H   0  0  0  0  0  0  0  0  0  0  0  0  # atno 6908 bound_to 6896
  151.5510  135.1070  160.0001 H   0  0  0  0  0  0  0  0  0  0  0  0  # atno 6909 bound_to 6896
  144.8655  140.6286  143.5301 H   0  0  0  0  0  0  0  0  0  0  0  0  # atno 7974 bound_to 7965
  154.5299  140.0768  156.8325 H   0  0  0  0  0  0  0  0  0  0  0  0  # atno 8008 bound_to 7997
  155.3398  140.3406  155.4221 H   0  0  0  0  0  0  0  0  0  0  0  0  # atno 8009 bound_to 7997
  156.1770  140.1639  156.8331 H   0  0  0  0  0  0  0  0  0  0  0  0  # atno 8010 bound_to 7997
  140.2912  144.3043  150.6240 H   0  0  0  0  0  0  0  0  0  0  0  0  # atno 10167 bound_to 10162
  156.0063  130.4584  150.3853 H   0  0  0  0  0  0  0  0  0  0  0  0  # atno 10718 bound_to 10713
  154.3687  135.6100  153.5728 H   0  0  0  0  0  0  0  0  0  0  0  0  # atno 10763 bound_to 10752
  152.9791  135.5832  154.4548 H   0  0  0  0  0  0  0  0  0  0  0  0  # atno 10764 bound_to 10752
  154.4298  135.2847  155.1898 H   0  0  0  0  0  0  0  0  0  0  0  0  # atno 10765 bound_to 10752
  140.0622  134.9198  157.1203 H   0  0  0  0  0  0  0  0  0  0  0  0  # atno 11005 bound_to 11000
  145.4230  139.1561  143.4064 LP  0  0  0  0  0  0  0  0  0  0  0  0  # atno 17320 bound_to 7965
  146.2892  140.4341  142.8746 LP  0  0  0  0  0  0  0  0  0  0  0  0  # atno 17321 bound_to 7965
  140.5730  143.2179  151.7565 LP  0  0  0  0  0  0  0  0  0  0  0  0  # atno 17342 bound_to 10162
  139.4937  144.4189  151.9999 LP  0  0  0  0  0  0  0  0  0  0  0  0  # atno 17343 bound_to 10162
  157.1931  131.0420  151.2690 LP  0  0  0  0  0  0  0  0  0  0  0  0  # atno 17370 bound_to 10713
  157.4044  130.7350  149.6791 LP  0  0  0  0  0  0  0  0  0  0  0  0  # atno 17371 bound_to 10713
  140.3753  134.2345  155.7174 LP  0  0  0  0  0  0  0  0  0  0  0  0  # atno 17394 bound_to 11000
  141.1978  133.8051  157.0613 LP  0  0  0  0  0  0  0  0  0  0  0  0  # atno 17395 bound_to 11000

$$$$
