AV-unprocessed.smi:2804|AV-procd|sdf|10810|dock7
  -GOLD-   2272015243D 1   1.00000     0.00000
 Structure written by MMmdl.
 35 36  0  0  0  0  0  0  0  0  1 V2000
  154.7069  140.8001  162.6571 C   0  0  0  0  0  0  0  0  0  0  0  0
  153.6761  141.3910  161.6899 C   0  0  0  0  0  0  0  0  0  0  0  0
  154.0054  141.0869  160.2200 C   0  0  0  0  0  0  0  0  0  0  0  0
  152.9897  141.6370  159.3259 N   0  0  0  0  0  0  0  0  0  0  0  0
  152.4920  141.0485  158.2129 C   0  0  0  0  0  0  0  0  0  0  0  0
  152.8097  139.9423  157.7765 O   0  0  0  0  0  0  0  0  0  0  0  0
  151.5923  141.8941  157.6573 N   0  0  0  0  0  0  0  0  0  0  0  0
  150.8287  141.6678  156.4284 C   0  0  0  0  0  0  0  0  0  0  0  0
  149.3203  141.3739  156.6531 C   0  0  1  0  0  0  0  0  0  0  0  0
  148.5955  142.5138  157.0836 O   0  0  0  0  0  0  0  0  0  0  0  0
  148.6301  140.7768  155.4106 C   0  0  0  0  0  0  0  0  0  0  0  0
  147.3764  140.4296  155.7034 F   0  0  0  0  0  0  0  0  0  0  0  0
  148.6276  141.6474  154.4010 F   0  0  0  0  0  0  0  0  0  0  0  0
  149.2793  139.6774  155.0268 F   0  0  0  0  0  0  0  0  0  0  0  0
  151.5223  143.0628  158.4293 C   0  0  0  0  0  0  0  0  0  0  0  0
  150.7625  144.2342  158.2666 C   0  0  0  0  0  0  0  0  0  0  0  0
  150.9332  145.2543  159.2316 C   0  0  0  0  0  0  0  0  0  0  0  0
  151.8396  145.0895  160.3111 C   0  0  0  0  0  0  0  0  0  0  0  0
  152.5944  143.9008  160.4487 C   0  0  0  0  0  0  0  0  0  0  0  0
  152.4033  142.9020  159.4781 C   0  0  0  0  0  0  0  0  0  0  0  0
  154.4489  141.0345  163.6901 H   0  0  0  0  0  0  0  0  0  0  0  0
  155.7028  141.1999  162.4642 H   0  0  0  0  0  0  0  0  0  0  0  0
  154.7570  139.7148  162.5647 H   0  0  0  0  0  0  0  0  0  0  0  0
  152.6889  140.9971  161.9346 H   0  0  0  0  0  0  0  0  0  0  0  0
  153.6235  142.4703  161.8388 H   0  0  0  0  0  0  0  0  0  0  0  0
  154.9825  141.4989  159.9630 H   0  0  0  0  0  0  0  0  0  0  0  0
  154.0826  140.0103  160.0645 H   0  0  0  0  0  0  0  0  0  0  0  0
  150.9554  142.5248  155.7655 H   0  0  0  0  0  0  0  0  0  0  0  0
  151.2807  140.8341  155.8907 H   0  0  0  0  0  0  0  0  0  0  0  0
  149.2400  140.6436  157.4593 H   0  0  0  0  0  0  0  0  0  0  0  0
  148.8406  143.2474  156.5407 H   0  0  0  0  0  0  0  0  0  0  0  0
  150.0776  144.3562  157.4407 H   0  0  0  0  0  0  0  0  0  0  0  0
  150.3679  146.1706  159.1448 H   0  0  0  0  0  0  0  0  0  0  0  0
  151.9559  145.8819  161.0359 H   0  0  0  0  0  0  0  0  0  0  0  0
  153.2885  143.7719  161.2657 H   0  0  0  0  0  0  0  0  0  0  0  0
  1  2  1  0  0  0  0
  1 21  1  0  0  0  0
  1 22  1  0  0  0  0
  1 23  1  0  0  0  0
  2  3  1  0  0  0  0
  2 24  1  0  0  0  0
  2 25  1  0  0  0  0
  3  4  1  0  0  0  0
  3 26  1  0  0  0  0
  3 27  1  0  0  0  0
  4 20  1  0  0  0  0
  4  5  1  0  0  0  0
  5  6  2  0  0  0  0
  5  7  1  0  0  0  0
  7  8  1  0  0  0  0
  7 15  1  0  0  0  0
  8  9  1  0  0  0  0
  8 28  1  0  0  0  0
  8 29  1  0  0  0  0
  9 10  1  0  0  0  0
  9 11  1  0  0  0  0
  9 30  1  0  0  0  0
 10 31  1  0  0  0  0
 11 12  1  0  0  0  0
 11 13  1  0  0  0  0
 11 14  1  0  0  0  0
 15 20  2  0  0  0  0
 15 16  1  0  0  0  0
 16 17  2  0  0  0  0
 16 32  1  0  0  0  0
 17 18  1  0  0  0  0
 17 33  1  0  0  0  0
 18 19  2  0  0  0  0
 18 34  1  0  0  0  0
 19 20  1  0  0  0  0
 19 35  1  0  0  0  0
M  END
> <s_m_source_file>
AV-unprocessed.smi

> <i_m_source_file_index>
2804

> <i_lp_mmshare_version>
43012

> <i_f3d_flags>
0

> <s_epik_input>
W2NIXTFbY0hdW2NIXVtjSF1jKGMxMiluKFtDSDJdW0NIMl1bQ0gzXSljKD1PKW4yW0NIMl1bQ0BIXShbT0hdKUMoRikoRilG

> <s_epik_cmdline>
J2VwaWtfcHl0aG9uJywgJy1waCcsICc3LjAnLCAnLXRuJywgJzgnLCAnLW1hJywgJzIwMCcsICctbWV0YWxfYmluZGluZycsICctaW1hZScsICc8aW5maWxlLm1hZT4nLCAnLW9tYWUnLCAnPG91dGZpbGUubWFlPic=

> <r_epik_Ionization_Penalty>
0.0117937

> <r_epik_Ionization_Penalty_Charging>
3.30828e-09

> <r_epik_Ionization_Penalty_Neutral>
0.0117937

> <r_epik_State_Penalty>
0.00909547

> <r_epik_Charging_Adjusted_Penalty>
0.00909547

> <i_epik_Tot_Q>
0

> <i_epik_Tot_abs_Q>
0

> <r_epik_Metal_State_Penalty>
0.00909547

> <b_epik_Metal_Only>
0

> <s_lp_Force_Field>
OPLS_2005

> <r_lp_Energy>
49.0105

> <b_lp_Chiralities_Consistent>
1

> <s_lp_Variant>
AV-unprocessed.smi:2804-2

> <Gold.Version>
5.8.1

> <Gold.Id.Protein>
6NUR|6NUR_protein|mol2

> <Gold.PLP.Fitness>
50.0450

> <Gold.PLP.PLP>
-45.0499

> <Gold.PLP.part.hbond>
-2.0000

> <Gold.PLP.part.metal>
0.0000

> <Gold.PLP.part.buried>
-2.5018

> <Gold.PLP.part.nonpolar>
-39.1520

> <Gold.PLP.part.repulsive>
0.0000

> <Gold.PLP.ligand.clash>
0.0000

> <Gold.PLP.ligand.torsion>
0.5349

> <Gold.PLP.Chemscore.Hbond>
2.0000

> <Gold.PLP.Chemscore.CHOScore>
0.0000

> <Gold.PLP.Chemscore.Metal>
0.0000

> <Gold.Chemscore.Hbonds>
donor molecule, donor type, donor heavy atom, donor atom, acceptor molecule, acceptor atom, score
      L1  H    10    31       P1  8028  1.00
      P1  H  7997  8008       L1     6  1.00

> <Gold.PLP.Chemscore.Internal.Correction>
0.0649

> <Gold.Rescore>
     Score         DG    S(hbond)    S(metal)    S(lipo)     H(rot)  DE(clash)    DE(int)     intcor
     18.56     -19.15       1.87        0.00     113.99       2.32       0.15       0.44       ----

> <Gold.Chemscore.Fitness>
18.5641

> <Gold.Chemscore.DG>
-19.1503

> <Gold.Chemscore.ZeroCoef>
-5.4800

> <Gold.Chemscore.Hbond>
1.8743

> <Gold.Chemscore.Metal>
0.0000

> <Gold.Chemscore.Lipo>
113.9905

> <Gold.Chemscore.Internal_Hbond>
0.0000

> <Gold.Chemscore.DEClash>
0.1482

> <Gold.Chemscore.DEInternal>
0.4381

> <Gold.Chemscore.Rot>
2.3152

> <Gold.Chemscore.Internal.Correction>
   9.000000E+99

> <Gold.Chemscore.Hbonds>
donor molecule, donor type, donor heavy atom, donor atom, acceptor molecule, acceptor atom, score
      L1  H    10    31       P1  8028  0.93
      P1  H  7997  8008       L1     6  0.73

> <Gold.Chemscore.Hbond.Weighted>
-6.2602

> <Gold.Chemscore.Metal.Weighted>
-0.0000

> <Gold.Chemscore.Lipo.Weighted>
-13.3369

> <Gold.Chemscore.Internal_Hbond.Weighted>
0.0000

> <Gold.Chemscore.DEClash.Weighted>
0.1482

> <Gold.Chemscore.DEInternal.Weighted>
0.4381

> <Gold.Chemscore.Rot.Weighted>
5.9268

> <Gold.Chemscore.Internal.Correction.Weighted>
   9.000000E+99

> <Gold.Protein.RotatedTorsions>
[ 6907 6896 6895 6894 ] final   26.63 input  -60.11 | X-H torsion
[ 7974 7965 7964 7962 ] final   14.50 input  175.53 | X-H torsion
[ 8008 7997 7996 7995 ] final  -68.61 input   59.86 | X-H torsion
[ 10167 10162 10161 10158 ] final  127.64 input  -65.29 | X-H torsion
[ 10718 10713 10712 10709 ] final  -60.29 input   66.30 | X-H torsion
[ 10763 10752 10751 10750 ] final  176.24 input  -60.55 | X-H torsion
[ 11005 11000 10999 10996 ] final -112.92 input  -57.11 | X-H torsion

> <Gold.Protein.ActiveResidues>
 VAL166  LYS551  ARG553  GLY616  TRP617  ASP618  TYR619  PRO620  LYS621  CYS622 
 ASP623  PHE694  ASN695  SER759  ASP760  ASP761  ALA762  ILE779  LEU786  VAL792 
 PHE793  MET794  SER795  GLU796  ALA797  LYS798  CYS799  TRP800  GLU811  SER814 

> <Gold.Protein.RotatedAtoms>
  151.9903  134.9982  160.0560 H   0  0  0  0  0  0  0  0  0  0  0  0  # atno 6907 bound_to 6896
  152.1614  133.4579  159.4871 H   0  0  0  0  0  0  0  0  0  0  0  0  # atno 6908 bound_to 6896
  150.6888  134.1984  159.4355 H   0  0  0  0  0  0  0  0  0  0  0  0  # atno 6909 bound_to 6896
  146.2303  139.9032  142.8536 H   0  0  0  0  0  0  0  0  0  0  0  0  # atno 7974 bound_to 7965
  154.4880  140.0869  156.7530 H   0  0  0  0  0  0  0  0  0  0  0  0  # atno 8008 bound_to 7997
  155.4302  140.3449  155.4261 H   0  0  0  0  0  0  0  0  0  0  0  0  # atno 8009 bound_to 7997
  156.1289  140.1495  156.9083 H   0  0  0  0  0  0  0  0  0  0  0  0  # atno 8010 bound_to 7997
  139.5568  144.6854  151.4160 H   0  0  0  0  0  0  0  0  0  0  0  0  # atno 10167 bound_to 10162
  156.1001  130.4187  150.0833 H   0  0  0  0  0  0  0  0  0  0  0  0  # atno 10718 bound_to 10713
  154.4784  135.2774  155.1589 H   0  0  0  0  0  0  0  0  0  0  0  0  # atno 10763 bound_to 10752
  154.3309  135.6190  153.5554 H   0  0  0  0  0  0  0  0  0  0  0  0  # atno 10764 bound_to 10752
  152.9872  135.5765  154.5180 H   0  0  0  0  0  0  0  0  0  0  0  0  # atno 10765 bound_to 10752
  141.0646  133.9480  157.2603 H   0  0  0  0  0  0  0  0  0  0  0  0  # atno 11005 bound_to 11000
  145.2303  140.9970  143.3995 LP  0  0  0  0  0  0  0  0  0  0  0  0  # atno 17320 bound_to 7965
  144.9536  139.4056  143.6390 LP  0  0  0  0  0  0  0  0  0  0  0  0  # atno 17321 bound_to 7965
  140.6841  143.8013  150.7162 LP  0  0  0  0  0  0  0  0  0  0  0  0  # atno 17342 bound_to 10162
  140.1476  143.4386  152.2153 LP  0  0  0  0  0  0  0  0  0  0  0  0  # atno 17343 bound_to 10162
  156.8823  130.9560  151.3598 LP  0  0  0  0  0  0  0  0  0  0  0  0  # atno 17370 bound_to 10713
  157.6169  130.8625  149.9044 LP  0  0  0  0  0  0  0  0  0  0  0  0  # atno 17371 bound_to 10713
  139.9464  135.0183  156.8865 LP  0  0  0  0  0  0  0  0  0  0  0  0  # atno 17394 bound_to 11000
  140.5799  134.0362  155.7460 LP  0  0  0  0  0  0  0  0  0  0  0  0  # atno 17395 bound_to 11000

$$$$
