AV-unprocessed.smi:267|AV-procd|sdf|2039|dock2
  -GOLD-   2262021253D 1   1.00000     0.00000
 Structure written by MMmdl.
 51 54  0  0  0  0  0  0  0  0  1 V2000
  153.8394  138.5201  158.8928 C   0  0  0  0  0  0  0  0  0  0  0  0
  153.2553  139.3368  157.8936 O   0  0  0  0  0  0  0  0  0  0  0  0
  152.0928  140.0086  158.3500 C   0  0  0  0  0  0  0  0  0  0  0  0
  151.4794  140.8460  157.2153 C   0  0  0  0  0  0  0  0  0  0  0  0
  150.5796  140.0536  156.3668 N   0  0  0  0  0  0  0  0  0  0  0  0
  149.2603  139.7877  156.9574 C   0  0  0  0  0  0  0  0  0  0  0  0
  148.5391  138.5983  156.3120 C   0  0  0  0  0  0  0  0  0  0  0  0
  148.5992  138.7249  154.8628 N   0  0  0  0  0  0  0  0  0  0  0  0
  147.6157  138.1257  154.1435 C   0  0  0  0  0  0  0  0  0  0  0  0
  146.9554  138.8346  153.1893 N   0  0  0  0  0  0  0  0  0  0  0  0
  145.9878  138.2609  152.4678 C   0  0  0  0  0  0  0  0  0  0  0  0
  145.5214  137.0130  152.5398 N   0  0  0  0  0  0  0  0  0  0  0  0
  146.1689  136.3005  153.5050 C   0  0  0  0  0  0  0  0  0  0  0  0
  147.2173  136.7729  154.3444 C   0  0  0  0  0  0  0  0  0  0  0  0
  147.6134  135.7626  155.2143 N   0  0  0  0  0  0  0  0  0  0  0  0
  146.8535  134.7496  154.8989 C   0  0  0  0  0  0  0  0  0  0  0  0
  145.9597  134.9854  153.8794 N   0  0  0  0  0  0  0  0  0  0  0  0
  144.9969  134.0481  153.3292 C   0  0  0  0  0  0  0  0  0  0  0  0
  145.2188  133.7098  151.8327 C   0  0  0  0  0  0  0  0  0  0  0  0
  146.5781  133.0071  151.6880 C   0  0  0  0  0  0  0  0  0  0  0  0
  146.8471  132.6679  150.3417 O   0  0  0  0  0  0  0  0  0  0  0  0
  144.0831  133.0357  151.0348 C   0  0  0  0  0  0  0  0  0  0  0  0
  144.2241  133.9753  149.9497 O   0  0  0  0  0  0  0  0  0  0  0  0
  144.9653  134.8465  150.8295 C   0  0  0  0  0  0  0  0  0  0  0  0
  149.9355  138.8441  154.2703 C   0  0  0  0  0  0  0  0  0  0  0  0
  150.9299  139.6622  155.1158 C   0  0  0  0  0  0  0  0  0  0  0  0
  152.0227  139.9321  154.6169 O   0  0  0  0  0  0  0  0  0  0  0  0
  154.7233  138.0249  158.4911 H   0  0  0  0  0  0  0  0  0  0  0  0
  153.1445  137.7491  159.2277 H   0  0  0  0  0  0  0  0  0  0  0  0
  154.1483  139.1127  159.7551 H   0  0  0  0  0  0  0  0  0  0  0  0
  151.3625  139.2933  158.7323 H   0  0  0  0  0  0  0  0  0  0  0  0
  152.3619  140.6674  159.1770 H   0  0  0  0  0  0  0  0  0  0  0  0
  150.9182  141.6744  157.6502 H   0  0  0  0  0  0  0  0  0  0  0  0
  152.2675  141.3154  156.6242 H   0  0  0  0  0  0  0  0  0  0  0  0
  149.3545  139.6118  158.0300 H   0  0  0  0  0  0  0  0  0  0  0  0
  148.6534  140.6865  156.8400 H   0  0  0  0  0  0  0  0  0  0  0  0
  149.0332  137.6678  156.5958 H   0  0  0  0  0  0  0  0  0  0  0  0
  147.5216  138.5327  156.6943 H   0  0  0  0  0  0  0  0  0  0  0  0
  145.5207  138.8931  151.7273 H   0  0  0  0  0  0  0  0  0  0  0  0
  146.9263  133.7968  155.4028 H   0  0  0  0  0  0  0  0  0  0  0  0
  145.0294  133.1400  153.9324 H   0  0  0  0  0  0  0  0  0  0  0  0
  144.0077  134.4700  153.5117 H   0  0  0  0  0  0  0  0  0  0  0  0
  147.3865  133.6352  152.0644 H   0  0  0  0  0  0  0  0  0  0  0  0
  146.6034  132.0877  152.2744 H   0  0  0  0  0  0  0  0  0  0  0  0
  147.6501  132.1706  150.3117 H   0  0  0  0  0  0  0  0  0  0  0  0
  144.3015  132.0104  150.7343 H   0  0  0  0  0  0  0  0  0  0  0  0
  143.0870  133.1009  151.4732 H   0  0  0  0  0  0  0  0  0  0  0  0
  144.3386  135.6516  151.2174 H   0  0  0  0  0  0  0  0  0  0  0  0
  145.8677  135.2457  150.3654 H   0  0  0  0  0  0  0  0  0  0  0  0
  150.3633  137.8510  154.1252 H   0  0  0  0  0  0  0  0  0  0  0  0
  149.8543  139.3096  153.2866 H   0  0  0  0  0  0  0  0  0  0  0  0
  1  2  1  0  0  0  0
  1 28  1  0  0  0  0
  1 29  1  0  0  0  0
  1 30  1  0  0  0  0
  2  3  1  0  0  0  0
  3  4  1  0  0  0  0
  3 31  1  0  0  0  0
  3 32  1  0  0  0  0
  4  5  1  0  0  0  0
  4 33  1  0  0  0  0
  4 34  1  0  0  0  0
  5 26  1  0  0  0  0
  5  6  1  0  0  0  0
  6  7  1  0  0  0  0
  6 35  1  0  0  0  0
  6 36  1  0  0  0  0
  7  8  1  0  0  0  0
  7 37  1  0  0  0  0
  7 38  1  0  0  0  0
  8  9  1  0  0  0  0
  8 25  1  0  0  0  0
  9 14  1  0  0  0  0
  9 10  2  0  0  0  0
 10 11  1  0  0  0  0
 11 12  2  0  0  0  0
 11 39  1  0  0  0  0
 12 13  1  0  0  0  0
 13 17  1  0  0  0  0
 13 14  2  0  0  0  0
 14 15  1  0  0  0  0
 15 16  2  0  0  0  0
 16 17  1  0  0  0  0
 16 40  1  0  0  0  0
 17 18  1  0  0  0  0
 18 19  1  0  0  0  0
 18 41  1  0  0  0  0
 18 42  1  0  0  0  0
 19 24  1  0  0  0  0
 19 20  1  0  0  0  0
 19 22  1  0  0  0  0
 20 21  1  0  0  0  0
 20 43  1  0  0  0  0
 20 44  1  0  0  0  0
 21 45  1  0  0  0  0
 22 23  1  0  0  0  0
 22 46  1  0  0  0  0
 22 47  1  0  0  0  0
 23 24  1  0  0  0  0
 24 48  1  0  0  0  0
 24 49  1  0  0  0  0
 25 26  1  0  0  0  0
 25 50  1  0  0  0  0
 25 51  1  0  0  0  0
 26 27  2  0  0  0  0
M  END
> <s_m_source_file>
AV-unprocessed.smi

> <i_m_source_file_index>
267

> <i_lp_mmshare_version>
43012

> <i_f3d_flags>
0

> <s_epik_input>
W0NIM11PW0NIMl1bQ0gyXU4xW0NIMl1bQ0gyXU4oW0NIMl1DMT1PKWMobltjSF1uMiljKGMyMyluW2NIXW4zW0NIMl1DNChbQ0gyXVtPSF0pW0NIMl1PW0NIMl00

> <s_epik_cmdline>
J2VwaWtfcHl0aG9uJywgJy1waCcsICc3LjAnLCAnLXRuJywgJzgnLCAnLW1hJywgJzIwMCcsICctbWV0YWxfYmluZGluZycsICctaW1hZScsICc8aW5maWxlLm1hZT4nLCAnLW9tYWUnLCAnPG91dGZpbGUubWFlPic=

> <r_lp_tautomer_probability>
1

> <r_epik_Ionization_Penalty>
0.000432285

> <r_epik_Ionization_Penalty_Charging>
0

> <r_epik_Ionization_Penalty_Neutral>
0.000432285

> <r_epik_State_Penalty>
0.000191954

> <r_epik_Charging_Adjusted_Penalty>
0.000191954

> <i_epik_Tot_Q>
0

> <i_epik_Tot_abs_Q>
0

> <r_epik_Metal_State_Penalty>
-0

> <b_epik_Metal_Only>
0

> <s_lp_Force_Field>
OPLS_2005

> <r_lp_Energy>
43.2758

> <b_lp_Chiralities_Consistent>
1

> <s_lp_Variant>
AV-unprocessed.smi:267-1

> <Gold.Version>
5.8.1

> <Gold.Id.Protein>
6NUR|6NUR_protein|mol2

> <Gold.PLP.Fitness>
41.6411

> <Gold.PLP.PLP>
-30.2529

> <Gold.PLP.part.hbond>
-2.7986

> <Gold.PLP.part.metal>
0.0000

> <Gold.PLP.part.buried>
-4.6151

> <Gold.PLP.part.nonpolar>
-24.0384

> <Gold.PLP.part.repulsive>
0.9792

> <Gold.PLP.ligand.clash>
0.0000

> <Gold.PLP.ligand.torsion>
1.6821

> <Gold.PLP.Chemscore.Hbond>
2.8960

> <Gold.PLP.Chemscore.CHOScore>
1.7983

> <Gold.PLP.Chemscore.Metal>
0.0000

> <Gold.Chemscore.Hbonds>
donor molecule, donor type, donor heavy atom, donor atom, acceptor molecule, acceptor atom, score
      L1  H    21    45       P1 10747  1.00
      P1  H  7989  7998       L1    27  0.77
      P1  H  7997  8008       L1     2  1.00
      L1  C    11    39       P1 10171  0.99
      L1  C    11    39       P1 10175  0.79

> <Gold.PLP.Chemscore.Internal.Correction>
0.6694

> <Gold.Rescore>
     Score         DG    S(hbond)    S(metal)    S(lipo)     H(rot)  DE(clash)    DE(int)     intcor
      8.66     -12.76       2.75        0.00      51.86       3.11       0.00       4.10       ----

> <Gold.Chemscore.Fitness>
8.6574

> <Gold.Chemscore.DG>
-12.7648

> <Gold.Chemscore.ZeroCoef>
-5.4800

> <Gold.Chemscore.Hbond>
2.7477

> <Gold.Chemscore.Metal>
0.0000

> <Gold.Chemscore.Lipo>
51.8592

> <Gold.Chemscore.Internal_Hbond>
0.0000

> <Gold.Chemscore.DEClash>
0.0045

> <Gold.Chemscore.DEInternal>
4.1029

> <Gold.Chemscore.Rot>
3.1093

> <Gold.Chemscore.Internal.Correction>
   9.000000E+99

> <Gold.Chemscore.Hbonds>
donor molecule, donor type, donor heavy atom, donor atom, acceptor molecule, acceptor atom, score
      L1  H    21    45       P1 10747  1.00
      P1  H  7989  7998       L1    27  0.32
      P1  H  7997  8008       L1     2  0.70

> <Gold.Chemscore.Hbond.Weighted>
-9.1772

> <Gold.Chemscore.Metal.Weighted>
-0.0000

> <Gold.Chemscore.Lipo.Weighted>
-6.0675

> <Gold.Chemscore.Internal_Hbond.Weighted>
0.0000

> <Gold.Chemscore.DEClash.Weighted>
0.0045

> <Gold.Chemscore.DEInternal.Weighted>
4.1029

> <Gold.Chemscore.Rot.Weighted>
7.9599

> <Gold.Chemscore.Internal.Correction.Weighted>
   9.000000E+99

> <Gold.Protein.RotatedTorsions>
[ 6907 6896 6895 6894 ] final -146.18 input  -60.11 | X-H torsion
[ 7974 7965 7964 7962 ] final  -82.59 input  175.53 | X-H torsion
[ 8008 7997 7996 7995 ] final  -78.58 input   59.86 | X-H torsion
[ 10167 10162 10161 10158 ] final   53.00 input  -65.29 | X-H torsion
[ 10718 10713 10712 10709 ] final   86.69 input   66.30 | X-H torsion
[ 10763 10752 10751 10750 ] final -133.88 input  -60.55 | X-H torsion
[ 11005 11000 10999 10996 ] final  -36.35 input  -57.11 | X-H torsion

> <Gold.Protein.ActiveResidues>
 VAL166  LYS551  ARG553  GLY616  TRP617  ASP618  TYR619  PRO620  LYS621  CYS622 
 ASP623  PHE694  ASN695  SER759  ASP760  ASP761  ALA762  ILE779  LEU786  VAL792 
 PHE793  MET794  SER795  GLU796  ALA797  LYS798  CYS799  TRP800  GLU811  SER814 

> <Gold.Protein.RotatedAtoms>
  151.1381  133.4990  159.2597 H   0  0  0  0  0  0  0  0  0  0  0  0  # atno 6907 bound_to 6896
  151.1684  135.0306  159.8751 H   0  0  0  0  0  0  0  0  0  0  0  0  # atno 6908 bound_to 6896
  152.5461  134.1247  159.8467 H   0  0  0  0  0  0  0  0  0  0  0  0  # atno 6909 bound_to 6896
  145.5313  140.9521  143.1601 H   0  0  0  0  0  0  0  0  0  0  0  0  # atno 7974 bound_to 7965
  154.5703  140.0692  156.8953 H   0  0  0  0  0  0  0  0  0  0  0  0  # atno 8008 bound_to 7997
  155.2647  140.3361  155.4252 H   0  0  0  0  0  0  0  0  0  0  0  0  # atno 8009 bound_to 7997
  156.2113  140.1760  156.7675 H   0  0  0  0  0  0  0  0  0  0  0  0  # atno 8010 bound_to 7997
  140.2454  144.3537  150.6366 H   0  0  0  0  0  0  0  0  0  0  0  0  # atno 10167 bound_to 10162
  157.6931  131.0225  150.3010 H   0  0  0  0  0  0  0  0  0  0  0  0  # atno 10718 bound_to 10713
  154.8727  135.3752  154.4644 H   0  0  0  0  0  0  0  0  0  0  0  0  # atno 10763 bound_to 10752
  153.5309  135.7028  153.5688 H   0  0  0  0  0  0  0  0  0  0  0  0  # atno 10764 bound_to 10752
  153.3893  135.3976  155.1877 H   0  0  0  0  0  0  0  0  0  0  0  0  # atno 10765 bound_to 10752
  140.9868  133.7026  156.1779 H   0  0  0  0  0  0  0  0  0  0  0  0  # atno 11005 bound_to 11000
  144.7624  139.6925  143.7229 LP  0  0  0  0  0  0  0  0  0  0  0  0  # atno 17320 bound_to 7965
  146.2042  139.5355  142.9723 LP  0  0  0  0  0  0  0  0  0  0  0  0  # atno 17321 bound_to 7965
  140.6081  143.2168  151.6940 LP  0  0  0  0  0  0  0  0  0  0  0  0  # atno 17342 bound_to 10162
  139.5063  144.3685  152.0493 LP  0  0  0  0  0  0  0  0  0  0  0  0  # atno 17343 bound_to 10162
  156.3526  130.3833  149.7316 LP  0  0  0  0  0  0  0  0  0  0  0  0  # atno 17370 bound_to 10713
  156.4789  130.8032  151.3047 LP  0  0  0  0  0  0  0  0  0  0  0  0  # atno 17371 bound_to 10713
  140.7102  134.4469  157.5582 LP  0  0  0  0  0  0  0  0  0  0  0  0  # atno 17394 bound_to 11000
  139.8974  134.8637  156.2046 LP  0  0  0  0  0  0  0  0  0  0  0  0  # atno 17395 bound_to 11000

$$$$
