AV-unprocessed.smi:634|AV-procd|sdf|3134|dock1
  -GOLD-   22720 0 53D 1   1.00000     0.00000
 Structure written by MMmdl.
 33 34  0  0  0  0  0  0  0  0  1 V2000
  143.9605  132.4583  149.9193 C   0  0  0  0  0  0  0  0  0  0  0  0
  144.5381  133.3876  150.9313 C   0  0  0  0  0  0  0  0  0  0  0  0
  145.7109  134.0869  150.9909 C   0  0  0  0  0  0  0  0  0  0  0  0
  145.6136  134.7696  152.2327 C   0  0  0  0  0  0  0  0  0  0  0  0
  146.6539  135.6253  152.6772 N   0  0  0  0  0  0  0  0  0  0  0  0
  146.7349  136.2759  153.8505 C   0  0  0  0  0  0  0  0  0  0  0  0
  145.8987  136.2122  154.7516 O   0  0  0  0  0  0  0  0  0  0  0  0
  147.8568  137.0125  153.9176 N   0  0  0  0  0  0  0  0  0  0  0  0
  148.3188  137.8696  155.0188 C   0  0  2  0  0  0  0  0  0  0  0  0
  147.1389  138.6693  155.6121 C   0  0  0  0  0  0  0  0  0  0  0  0
  149.3680  138.8437  154.4301 C   0  0  0  0  0  0  0  0  0  0  0  0
  150.6937  138.1052  154.2113 C   0  0  0  0  0  0  0  0  0  0  0  0
  150.7959  136.8714  155.5570 S   0  0  0  0  0  0  0  0  0  0  0  0
  150.9987  135.5393  154.9677 O   0  0  0  0  0  0  0  0  0  0  0  0
  151.6814  137.3734  156.6186 O   0  0  0  0  0  0  0  0  0  0  0  0
  149.0530  137.0432  156.1022 C   0  0  0  0  0  0  0  0  0  0  0  0
  144.4838  134.5104  152.8730 N   0  0  0  0  0  0  0  0  0  0  0  0
  143.7893  133.6230  152.0426 O   0  0  0  0  0  0  0  0  0  0  0  0
  144.4817  132.5473  148.9660 H   0  0  0  0  0  0  0  0  0  0  0  0
  142.9064  132.6770  149.7487 H   0  0  0  0  0  0  0  0  0  0  0  0
  144.0419  131.4244  150.2545 H   0  0  0  0  0  0  0  0  0  0  0  0
  146.5071  134.1047  150.2616 H   0  0  0  0  0  0  0  0  0  0  0  0
  147.4145  135.7624  152.0284 H   0  0  0  0  0  0  0  0  0  0  0  0
  148.4660  136.9796  153.1132 H   0  0  0  0  0  0  0  0  0  0  0  0
  147.4825  139.3860  156.3587 H   0  0  0  0  0  0  0  0  0  0  0  0
  146.4132  138.0229  156.1057 H   0  0  0  0  0  0  0  0  0  0  0  0
  146.6122  139.2302  154.8394 H   0  0  0  0  0  0  0  0  0  0  0  0
  149.0209  139.3193  153.5118 H   0  0  0  0  0  0  0  0  0  0  0  0
  149.5472  139.6489  155.1440 H   0  0  0  0  0  0  0  0  0  0  0  0
  150.6900  137.5699  153.2617 H   0  0  0  0  0  0  0  0  0  0  0  0
  151.5606  138.7654  154.2367 H   0  0  0  0  0  0  0  0  0  0  0  0
  149.0668  137.5824  157.0498 H   0  0  0  0  0  0  0  0  0  0  0  0
  148.6244  136.0596  156.2927 H   0  0  0  0  0  0  0  0  0  0  0  0
  1  2  1  0  0  0  0
  1 19  1  0  0  0  0
  1 20  1  0  0  0  0
  1 21  1  0  0  0  0
  2 18  1  0  0  0  0
  2  3  2  0  0  0  0
  3  4  1  0  0  0  0
  3 22  1  0  0  0  0
  4  5  1  0  0  0  0
  4 17  2  0  0  0  0
  5  6  1  0  0  0  0
  5 23  1  0  0  0  0
  6  7  2  0  0  0  0
  6  8  1  0  0  0  0
  8  9  1  0  0  0  0
  8 24  1  0  0  0  0
  9 16  1  0  0  0  0
  9 10  1  0  0  0  0
  9 11  1  0  0  0  0
 10 25  1  0  0  0  0
 10 26  1  0  0  0  0
 10 27  1  0  0  0  0
 11 12  1  0  0  0  0
 11 28  1  0  0  0  0
 11 29  1  0  0  0  0
 12 13  1  0  0  0  0
 12 30  1  0  0  0  0
 12 31  1  0  0  0  0
 13 14  2  0  0  0  0
 13 15  2  0  0  0  0
 13 16  1  0  0  0  0
 16 32  1  0  0  0  0
 16 33  1  0  0  0  0
 17 18  1  0  0  0  0
M  END
> <s_m_source_file>
AV-unprocessed.smi

> <i_m_source_file_index>
634

> <i_lp_mmshare_version>
43012

> <i_f3d_flags>
0

> <s_epik_input>
W0NIM11jMVtjSF1jKG5vMSlbTkhdQyg9TylbTkhdW0NAQF0yKFtDSDNdKVtDSDJdW0NIMl1TKD1PKSg9TylbQ0gyXTI=

> <s_epik_cmdline>
J2VwaWtfcHl0aG9uJywgJy1waCcsICc3LjAnLCAnLXRuJywgJzgnLCAnLW1hJywgJzIwMCcsICctbWV0YWxfYmluZGluZycsICctaW1hZScsICc8aW5maWxlLm1hZT4nLCAnLW9tYWUnLCAnPG91dGZpbGUubWFlPic=

> <r_lp_tautomer_probability>
1

> <r_epik_Ionization_Penalty>
3.87281e-05

> <r_epik_Ionization_Penalty_Charging>
0

> <r_epik_Ionization_Penalty_Neutral>
3.87281e-05

> <r_epik_State_Penalty>
-0

> <r_epik_Charging_Adjusted_Penalty>
0

> <i_epik_Tot_Q>
0

> <i_epik_Tot_abs_Q>
0

> <r_epik_Metal_State_Penalty>
0.0249287

> <b_epik_Metal_Only>
0

> <s_lp_Force_Field>
OPLS_2005

> <r_lp_Energy>
3.31823

> <b_lp_Chiralities_Consistent>
1

> <s_lp_Variant>
AV-unprocessed.smi:634-2

> <Gold.Version>
5.8.1

> <Gold.Id.Protein>
6NUR|6NUR_protein|mol2

> <Gold.PLP.Fitness>
28.1485

> <Gold.PLP.PLP>
-20.1075

> <Gold.PLP.part.hbond>
-2.6695

> <Gold.PLP.part.metal>
0.0000

> <Gold.PLP.part.buried>
-3.1065

> <Gold.PLP.part.nonpolar>
-15.0355

> <Gold.PLP.part.repulsive>
0.4117

> <Gold.PLP.ligand.clash>
0.0000

> <Gold.PLP.ligand.torsion>
0.4273

> <Gold.PLP.Chemscore.Hbond>
2.9600

> <Gold.PLP.Chemscore.CHOScore>
0.0000

> <Gold.PLP.Chemscore.Metal>
0.0000

> <Gold.Chemscore.Hbonds>
donor molecule, donor type, donor heavy atom, donor atom, acceptor molecule, acceptor atom, score
      L1  H     5    23       P1  7948  0.94
      L1  H     8    24       P1  7948  0.99
      P1  H 10752 10764       L1    14  1.00

> <Gold.PLP.Chemscore.Internal.Correction>
0.0156

> <Gold.Rescore>
     Score         DG    S(hbond)    S(metal)    S(lipo)     H(rot)  DE(clash)    DE(int)     intcor
     14.10     -17.32       2.90        0.00      40.14       1.00       0.04       3.18       ----

> <Gold.Chemscore.Fitness>
14.0990

> <Gold.Chemscore.DG>
-17.3158

> <Gold.Chemscore.ZeroCoef>
-5.4800

> <Gold.Chemscore.Hbond>
2.9040

> <Gold.Chemscore.Metal>
0.0000

> <Gold.Chemscore.Lipo>
40.1411

> <Gold.Chemscore.Internal_Hbond>
0.0000

> <Gold.Chemscore.DEClash>
0.0380

> <Gold.Chemscore.DEInternal>
3.1789

> <Gold.Chemscore.Rot>
1.0000

> <Gold.Chemscore.Internal.Correction>
   9.000000E+99

> <Gold.Chemscore.Hbonds>
donor molecule, donor type, donor heavy atom, donor atom, acceptor molecule, acceptor atom, score
      L1  H     5    23       P1  7948  0.89
      L1  H     8    24       P1  7948  0.88
      P1  H 10752 10764       L1    14  0.33

> <Gold.Chemscore.Hbond.Weighted>
-9.6993

> <Gold.Chemscore.Metal.Weighted>
-0.0000

> <Gold.Chemscore.Lipo.Weighted>
-4.6965

> <Gold.Chemscore.Internal_Hbond.Weighted>
0.0000

> <Gold.Chemscore.DEClash.Weighted>
0.0380

> <Gold.Chemscore.DEInternal.Weighted>
3.1789

> <Gold.Chemscore.Rot.Weighted>
2.5600

> <Gold.Chemscore.Internal.Correction.Weighted>
   9.000000E+99

> <Gold.Protein.RotatedTorsions>
[ 6907 6896 6895 6894 ] final   94.54 input  -60.11 | X-H torsion
[ 7974 7965 7964 7962 ] final  168.44 input  175.53 | X-H torsion
[ 8008 7997 7996 7995 ] final -150.87 input   59.86 | X-H torsion
[ 10167 10162 10161 10158 ] final   96.85 input  -65.29 | X-H torsion
[ 10718 10713 10712 10709 ] final   41.09 input   66.30 | X-H torsion
[ 10763 10752 10751 10750 ] final  -62.96 input  -60.55 | X-H torsion
[ 11005 11000 10999 10996 ] final   38.61 input  -57.11 | X-H torsion

> <Gold.Protein.ActiveResidues>
 VAL166  LYS551  ARG553  GLY616  TRP617  ASP618  TYR619  PRO620  LYS621  CYS622 
 ASP623  PHE694  ASN695  SER759  ASP760  ASP761  ALA762  ILE779  LEU786  VAL792 
 PHE793  MET794  SER795  GLU796  ALA797  LYS798  CYS799  TRP800  GLU811  SER814 

> <Gold.Protein.RotatedAtoms>
  152.5449  134.1178  159.8385 H   0  0  0  0  0  0  0  0  0  0  0  0  # atno 6907 bound_to 6896
  151.1237  133.5078  159.2608 H   0  0  0  0  0  0  0  0  0  0  0  0  # atno 6908 bound_to 6896
  151.1751  135.0345  159.8823 H   0  0  0  0  0  0  0  0  0  0  0  0  # atno 6909 bound_to 6896
  144.7388  139.8907  143.6403 H   0  0  0  0  0  0  0  0  0  0  0  0  # atno 7974 bound_to 7965
  155.6304  140.0691  157.2651 H   0  0  0  0  0  0  0  0  0  0  0  0  # atno 8008 bound_to 7997
  154.4207  140.1768  156.1515 H   0  0  0  0  0  0  0  0  0  0  0  0  # atno 8009 bound_to 7997
  155.9938  140.3342  155.6782 H   0  0  0  0  0  0  0  0  0  0  0  0  # atno 8010 bound_to 7997
  139.7856  144.6872  150.9963 H   0  0  0  0  0  0  0  0  0  0  0  0  # atno 10167 bound_to 10162
  157.3897  130.7799  149.7259 H   0  0  0  0  0  0  0  0  0  0  0  0  # atno 10718 bound_to 10713
  154.3078  135.6222  153.5452 H   0  0  0  0  0  0  0  0  0  0  0  0  # atno 10763 bound_to 10752
  152.9833  135.5694  154.5212 H   0  0  0  0  0  0  0  0  0  0  0  0  # atno 10764 bound_to 10752
  154.4855  135.2865  155.1514 H   0  0  0  0  0  0  0  0  0  0  0  0  # atno 10765 bound_to 10752
  140.2109  134.3756  155.8049 H   0  0  0  0  0  0  0  0  0  0  0  0  # atno 11005 bound_to 11000
  146.1143  139.4152  143.0268 LP  0  0  0  0  0  0  0  0  0  0  0  0  # atno 17320 bound_to 7965
  145.7397  141.0013  143.1308 LP  0  0  0  0  0  0  0  0  0  0  0  0  # atno 17321 bound_to 7965
  140.7819  143.4436  151.0515 LP  0  0  0  0  0  0  0  0  0  0  0  0  # atno 17342 bound_to 10162
  139.8115  143.7945  152.3171 LP  0  0  0  0  0  0  0  0  0  0  0  0  # atno 17343 bound_to 10162
  155.9795  130.4039  150.3583 LP  0  0  0  0  0  0  0  0  0  0  0  0  # atno 17370 bound_to 10713
  157.1697  131.0366  151.2801 LP  0  0  0  0  0  0  0  0  0  0  0  0  # atno 17371 bound_to 10713
  141.2226  133.7142  156.8416 LP  0  0  0  0  0  0  0  0  0  0  0  0  # atno 17394 bound_to 11000
  140.1952  134.8937  157.3106 LP  0  0  0  0  0  0  0  0  0  0  0  0  # atno 17395 bound_to 11000

$$$$
