AV-unprocessed.smi:2365|AV-procd|sdf|9422|dock3
  -GOLD-   2272013 63D 1   1.00000     0.00000
 Structure written by MMmdl.
 29 30  0  0  0  0  0  0  0  0  1 V2000
  148.2706  141.3740  154.0081 C   0  0  0  0  0  0  0  0  0  0  0  0
  149.1355  140.4072  154.8229 C   0  0  1  0  0  0  0  0  0  0  0  0
  148.6298  138.9695  154.8367 C   0  0  0  0  0  0  0  0  0  0  0  0
  149.8784  138.1753  155.1825 C   0  0  0  0  0  0  0  0  0  0  0  0
  151.0430  139.0889  154.7498 C   0  0  2  0  0  0  0  0  0  0  0  0
  151.9985  139.4442  155.9039 C   0  0  0  0  0  0  0  0  0  0  0  0
  153.1701  139.0703  155.8532 O   0  0  0  0  0  0  0  0  0  0  0  0
  151.4777  140.1582  156.9192 N   0  0  0  0  0  0  0  0  0  0  0  0
  152.1147  140.5812  158.1171 C   0  0  0  0  0  0  0  0  0  0  0  0
  153.0672  139.7928  158.8077 C   0  0  0  0  0  0  0  0  0  0  0  0
  153.6928  140.1975  159.9331 N   0  0  0  0  0  0  0  0  0  0  0  0
  153.3954  141.4206  160.4181 C   0  0  0  0  0  0  0  0  0  0  0  0
  152.4764  142.2944  159.8050 C   0  0  0  0  0  0  0  0  0  0  0  0
  152.1671  143.8472  160.4967 Cl  0  0  0  0  0  0  0  0  0  0  0  0
  151.8265  141.8683  158.6262 C   0  0  0  0  0  0  0  0  0  0  0  0
  150.6895  142.9009  157.8264 Cl  0  0  0  0  0  0  0  0  0  0  0  0
  150.4196  140.2679  154.2342 O   0  0  0  0  0  0  0  0  0  0  0  0
  147.2721  141.4613  154.4366 H   0  0  0  0  0  0  0  0  0  0  0  0
  148.1652  141.0375  152.9764 H   0  0  0  0  0  0  0  0  0  0  0  0
  148.7142  142.3697  153.9899 H   0  0  0  0  0  0  0  0  0  0  0  0
  149.2493  140.7749  155.8442 H   0  0  0  0  0  0  0  0  0  0  0  0
  147.8153  138.8124  155.5442 H   0  0  0  0  0  0  0  0  0  0  0  0
  148.2771  138.6836  153.8448 H   0  0  0  0  0  0  0  0  0  0  0  0
  149.8964  137.9658  156.2532 H   0  0  0  0  0  0  0  0  0  0  0  0
  149.8974  137.2165  154.6636 H   0  0  0  0  0  0  0  0  0  0  0  0
  151.6234  138.6259  153.9513 H   0  0  0  0  0  0  0  0  0  0  0  0
  150.4823  140.3242  156.8712 H   0  0  0  0  0  0  0  0  0  0  0  0
  153.3628  138.8188  158.4490 H   0  0  0  0  0  0  0  0  0  0  0  0
  153.9114  141.7134  161.3208 H   0  0  0  0  0  0  0  0  0  0  0  0
  1  2  1  0  0  0  0
  1 18  1  0  0  0  0
  1 19  1  0  0  0  0
  1 20  1  0  0  0  0
  2 17  1  0  0  0  0
  2  3  1  0  0  0  0
  2 21  1  0  0  0  0
  3  4  1  0  0  0  0
  3 22  1  0  0  0  0
  3 23  1  0  0  0  0
  4  5  1  0  0  0  0
  4 24  1  0  0  0  0
  4 25  1  0  0  0  0
  5  6  1  0  0  0  0
  5 17  1  0  0  0  0
  5 26  1  0  0  0  0
  6  7  2  0  0  0  0
  6  8  1  0  0  0  0
  8  9  1  0  0  0  0
  8 27  1  0  0  0  0
  9 15  1  0  0  0  0
  9 10  2  0  0  0  0
 10 11  1  0  0  0  0
 10 28  1  0  0  0  0
 11 12  2  0  0  0  0
 12 13  1  0  0  0  0
 12 29  1  0  0  0  0
 13 14  1  0  0  0  0
 13 15  2  0  0  0  0
 15 16  1  0  0  0  0
M  END
> <s_m_source_file>
AV-unprocessed.smi

> <i_m_source_file_index>
2365

> <i_lp_mmshare_version>
43012

> <i_f3d_flags>
0

> <s_epik_input>
W0NIM11bQ0BASF0xW0NIMl1bQ0gyXVtDQEhdKE8xKUMoPU8pW05IXWMyW2NIXW5bY0hdYyhDbCljMkNs

> <s_epik_cmdline>
J2VwaWtfcHl0aG9uJywgJy1waCcsICc3LjAnLCAnLXRuJywgJzgnLCAnLW1hJywgJzIwMCcsICctbWV0YWxfYmluZGluZycsICctaW1hZScsICc8aW5maWxlLm1hZT4nLCAnLW9tYWUnLCAnPG91dGZpbGUubWFlPic=

> <r_lp_tautomer_probability>
1

> <r_epik_Ionization_Penalty>
7.32461e-06

> <r_epik_Ionization_Penalty_Charging>
0

> <r_epik_Ionization_Penalty_Neutral>
7.32461e-06

> <r_epik_State_Penalty>
-0

> <r_epik_Charging_Adjusted_Penalty>
0

> <i_epik_Tot_Q>
0

> <i_epik_Tot_abs_Q>
0

> <r_epik_Metal_State_Penalty>
-0

> <b_epik_Metal_Only>
0

> <s_lp_Force_Field>
OPLS_2005

> <r_lp_Energy>
23.5341

> <b_lp_Chiralities_Consistent>
1

> <s_lp_Variant>
AV-unprocessed.smi:2365-4

> <Gold.Version>
5.8.1

> <Gold.Id.Protein>
6NUR|6NUR_protein|mol2

> <Gold.PLP.Fitness>
40.1502

> <Gold.PLP.PLP>
-34.8056

> <Gold.PLP.part.hbond>
-1.8006

> <Gold.PLP.part.metal>
0.0000

> <Gold.PLP.part.buried>
-4.8786

> <Gold.PLP.part.nonpolar>
-29.1177

> <Gold.PLP.part.repulsive>
0.2206

> <Gold.PLP.ligand.clash>
0.0000

> <Gold.PLP.ligand.torsion>
0.3311

> <Gold.PLP.Chemscore.Hbond>
2.0000

> <Gold.PLP.Chemscore.CHOScore>
0.0000

> <Gold.PLP.Chemscore.Metal>
0.0000

> <Gold.Chemscore.Hbonds>
donor molecule, donor type, donor heavy atom, donor atom, acceptor molecule, acceptor atom, score
      P1  H  7989  7998       L1    17  1.00
      P1  H  7997  8009       L1     7  1.00

> <Gold.PLP.Chemscore.Internal.Correction>
0.0067

> <Gold.Rescore>
     Score         DG    S(hbond)    S(metal)    S(lipo)     H(rot)  DE(clash)    DE(int)     intcor
     19.01     -20.21       1.86        0.00      94.62       1.00       0.13       1.07       ----

> <Gold.Chemscore.Fitness>
19.0093

> <Gold.Chemscore.DG>
-20.2083

> <Gold.Chemscore.ZeroCoef>
-5.4800

> <Gold.Chemscore.Hbond>
1.8618

> <Gold.Chemscore.Metal>
0.0000

> <Gold.Chemscore.Lipo>
94.6156

> <Gold.Chemscore.Internal_Hbond>
0.0000

> <Gold.Chemscore.DEClash>
0.1261

> <Gold.Chemscore.DEInternal>
1.0730

> <Gold.Chemscore.Rot>
1.0000

> <Gold.Chemscore.Internal.Correction>
   9.000000E+99

> <Gold.Chemscore.Hbonds>
donor molecule, donor type, donor heavy atom, donor atom, acceptor molecule, acceptor atom, score
      P1  H  7989  7998       L1    17  0.23
      P1  H  7997  8009       L1     7  0.96

> <Gold.Chemscore.Hbond.Weighted>
-6.2183

> <Gold.Chemscore.Metal.Weighted>
-0.0000

> <Gold.Chemscore.Lipo.Weighted>
-11.0700

> <Gold.Chemscore.Internal_Hbond.Weighted>
0.0000

> <Gold.Chemscore.DEClash.Weighted>
0.1261

> <Gold.Chemscore.DEInternal.Weighted>
1.0730

> <Gold.Chemscore.Rot.Weighted>
2.5600

> <Gold.Chemscore.Internal.Correction.Weighted>
   9.000000E+99

> <Gold.Protein.RotatedTorsions>
[ 6907 6896 6895 6894 ] final  -82.21 input  -60.11 | X-H torsion
[ 7974 7965 7964 7962 ] final   55.14 input  175.53 | X-H torsion
[ 8008 7997 7996 7995 ] final -162.26 input   59.86 | X-H torsion
[ 10167 10162 10161 10158 ] final   84.79 input  -65.29 | X-H torsion
[ 10718 10713 10712 10709 ] final   25.34 input   66.30 | X-H torsion
[ 10763 10752 10751 10750 ] final  162.28 input  -60.55 | X-H torsion
[ 11005 11000 10999 10996 ] final   81.82 input  -57.11 | X-H torsion

> <Gold.Protein.ActiveResidues>
 VAL166  LYS551  ARG553  GLY616  TRP617  ASP618  TYR619  PRO620  LYS621  CYS622 
 ASP623  PHE694  ASN695  SER759  ASP760  ASP761  ALA762  ILE779  LEU786  VAL792 
 PHE793  MET794  SER795  GLU796  ALA797  LYS798  CYS799  TRP800  GLU811  SER814 

> <Gold.Protein.RotatedAtoms>
  150.6900  134.3699  159.4987 H   0  0  0  0  0  0  0  0  0  0  0  0  # atno 6907 bound_to 6896
  152.1516  134.8981  160.0557 H   0  0  0  0  0  0  0  0  0  0  0  0  # atno 6908 bound_to 6896
  152.0076  133.3814  159.4243 H   0  0  0  0  0  0  0  0  0  0  0  0  # atno 6909 bound_to 6896
  145.9536  139.3994  143.0291 H   0  0  0  0  0  0  0  0  0  0  0  0  # atno 7974 bound_to 7965
  155.8042  140.0896  157.1940 H   0  0  0  0  0  0  0  0  0  0  0  0  # atno 8008 bound_to 7997
  154.3981  140.1466  156.3370 H   0  0  0  0  0  0  0  0  0  0  0  0  # atno 8009 bound_to 7997
  155.8431  140.3438  155.5647 H   0  0  0  0  0  0  0  0  0  0  0  0  # atno 8010 bound_to 7997
  139.9044  144.6310  150.8602 H   0  0  0  0  0  0  0  0  0  0  0  0  # atno 10167 bound_to 10162
  157.1921  130.6851  149.6154 H   0  0  0  0  0  0  0  0  0  0  0  0  # atno 10718 bound_to 10713
  154.2760  135.2764  155.2718 H   0  0  0  0  0  0  0  0  0  0  0  0  # atno 10763 bound_to 10752
  154.5260  135.5743  153.6723 H   0  0  0  0  0  0  0  0  0  0  0  0  # atno 10764 bound_to 10752
  152.9937  135.6216  154.2916 H   0  0  0  0  0  0  0  0  0  0  0  0  # atno 10765 bound_to 10752
  139.9085  134.8025  156.2092 H   0  0  0  0  0  0  0  0  0  0  0  0  # atno 11005 bound_to 11000
  145.8138  140.9713  143.0935 LP  0  0  0  0  0  0  0  0  0  0  0  0  # atno 17320 bound_to 7965
  144.6800  139.9954  143.7484 LP  0  0  0  0  0  0  0  0  0  0  0  0  # atno 17321 bound_to 7965
  140.7699  143.3412  151.2204 LP  0  0  0  0  0  0  0  0  0  0  0  0  # atno 17342 bound_to 10162
  139.6997  143.9554  152.2899 LP  0  0  0  0  0  0  0  0  0  0  0  0  # atno 17343 bound_to 10162
  155.9710  130.4611  150.6097 LP  0  0  0  0  0  0  0  0  0  0  0  0  # atno 17370 bound_to 10713
  157.3850  131.0787  151.1443 LP  0  0  0  0  0  0  0  0  0  0  0  0  # atno 17371 bound_to 10713
  141.0476  133.6905  156.1712 LP  0  0  0  0  0  0  0  0  0  0  0  0  # atno 17394 bound_to 11000
  140.6860  134.4716  157.5589 LP  0  0  0  0  0  0  0  0  0  0  0  0  # atno 17395 bound_to 11000

$$$$
