AV-unprocessed.smi:1473|AV-procd|sdf|5968|dock1
  -GOLD-   22720 6 53D 1   1.00000     0.00000
 Structure written by MMmdl.
 34 35  0  0  0  0  0  0  0  0  3 V2000
  151.7599  137.6896  157.8354 N   0  0  0  0  0  0  0  0  0  0  0  0
  151.0498  136.3847  156.9733 S   0  0  0  0  0  0  0  0  0  0  0  0
  152.1704  135.5921  156.4418 O   0  0  0  0  0  0  0  0  0  0  0  0
  150.1164  135.7393  157.9101 O   0  0  0  0  0  0  0  0  0  0  0  0
  150.3153  137.2975  155.8536 N   0  5  0  0  0  0  0  0  0  0  0  0
  151.0940  138.2477  155.0765 C   0  0  0  0  0  0  0  0  0  0  0  0
  150.6630  139.6871  155.3242 C   0  0  0  0  0  0  0  0  0  0  0  0
  149.7540  140.3293  154.4503 C   0  0  0  0  0  0  0  0  0  0  0  0
  149.3624  141.6559  154.7189 C   0  0  0  0  0  0  0  0  0  0  0  0
  149.8499  142.2962  155.8032 N   0  3  0  0  0  0  0  0  0  0  0  0
  150.7149  141.7260  156.6704 C   0  0  0  0  0  0  0  0  0  0  0  0
  151.1302  142.4965  157.7638 N   0  0  0  0  0  0  0  0  0  0  0  0
  152.0845  141.8117  158.6270 C   0  0  0  0  0  0  0  0  0  0  0  0
  152.3998  142.6834  159.8545 C   0  0  0  0  0  0  0  0  0  0  0  0
  152.8739  143.9568  159.4250 O   0  0  0  0  0  0  0  0  0  0  0  0
  151.9093  144.6516  158.6393 C   0  0  0  0  0  0  0  0  0  0  0  0
  151.5789  143.8287  157.3819 C   0  0  0  0  0  0  0  0  0  0  0  0
  151.1528  140.4013  156.4435 C   0  0  0  0  0  0  0  0  0  0  0  0
  151.7399  137.5458  158.8442 H   0  0  0  0  0  0  0  0  0  0  0  0
  151.3947  138.5943  157.5398 H   0  0  0  0  0  0  0  0  0  0  0  0
  152.1615  138.1633  155.2832 H   0  0  0  0  0  0  0  0  0  0  0  0
  150.9951  138.0543  154.0080 H   0  0  0  0  0  0  0  0  0  0  0  0
  149.3482  139.8210  153.5859 H   0  0  0  0  0  0  0  0  0  0  0  0
  148.6720  142.2172  154.1063 H   0  0  0  0  0  0  0  0  0  0  0  0
  151.6739  140.8517  158.9429 H   0  0  0  0  0  0  0  0  0  0  0  0
  153.0041  141.6050  158.0781 H   0  0  0  0  0  0  0  0  0  0  0  0
  151.5161  142.8055  160.4833 H   0  0  0  0  0  0  0  0  0  0  0  0
  153.1647  142.2073  160.4680 H   0  0  0  0  0  0  0  0  0  0  0  0
  151.0108  144.8385  159.2299 H   0  0  0  0  0  0  0  0  0  0  0  0
  152.3134  145.6237  158.3574 H   0  0  0  0  0  0  0  0  0  0  0  0
  152.4622  143.7532  156.7461 H   0  0  0  0  0  0  0  0  0  0  0  0
  150.8032  144.3281  156.8001 H   0  0  0  0  0  0  0  0  0  0  0  0
  151.8432  139.9393  157.1363 H   0  0  0  0  0  0  0  0  0  0  0  0
  149.5442  143.2533  155.9799 H   0  0  0  0  0  0  0  0  0  0  0  0
  1  2  1  0  0  0  0
  1 19  1  0  0  0  0
  1 20  1  0  0  0  0
  2  3  2  0  0  0  0
  2  4  2  0  0  0  0
  2  5  1  0  0  0  0
  5  6  1  0  0  0  0
  6  7  1  0  0  0  0
  6 21  1  0  0  0  0
  6 22  1  0  0  0  0
  7 18  1  0  0  0  0
  7  8  2  0  0  0  0
  8  9  1  0  0  0  0
  8 23  1  0  0  0  0
  9 10  2  0  0  0  0
  9 24  1  0  0  0  0
 10 11  1  0  0  0  0
 10 34  1  0  0  0  0
 11 12  1  0  0  0  0
 11 18  2  0  0  0  0
 12 17  1  0  0  0  0
 12 13  1  0  0  0  0
 13 14  1  0  0  0  0
 13 25  1  0  0  0  0
 13 26  1  0  0  0  0
 14 15  1  0  0  0  0
 14 27  1  0  0  0  0
 14 28  1  0  0  0  0
 15 16  1  0  0  0  0
 16 17  1  0  0  0  0
 16 29  1  0  0  0  0
 16 30  1  0  0  0  0
 17 31  1  0  0  0  0
 17 32  1  0  0  0  0
 18 33  1  0  0  0  0
M  CHG  1   5  -1
M  CHG  1  10   1
M  END
> <s_m_source_file>
AV-unprocessed.smi

> <i_m_source_file_index>
1473

> <i_lp_mmshare_version>
43012

> <i_f3d_flags>
0

> <s_epik_input>
W05IMl1TKD1PKSg9TylbTkhdW0NIMl1jMVtjSF1bY0hdbmMoW2NIXTEpTjJbQ0gyXVtDSDJdT1tDSDJdW0NIMl0y

> <s_epik_cmdline>
J2VwaWtfcHl0aG9uJywgJy1waCcsICc3LjAnLCAnLXRuJywgJzgnLCAnLW1hJywgJzIwMCcsICctbWV0YWxfYmluZGluZycsICctaW1hZScsICc8aW5maWxlLm1hZT4nLCAnLW9tYWUnLCAnPG91dGZpbGUubWFlPic=

> <r_epik_Ionization_Penalty>
0.903927

> <r_epik_Ionization_Penalty_Charging>
0.902194

> <r_epik_Ionization_Penalty_Neutral>
0.00173209

> <r_epik_State_Penalty>
1.45154

> <r_epik_Charging_Adjusted_Penalty>
2.35374

> <i_epik_Tot_Q>
0

> <i_epik_Tot_abs_Q>
2

> <r_epik_Metal_State_Penalty>
1.803

> <b_epik_Metal_Only>
0

> <s_lp_Force_Field>
OPLS_2005

> <r_lp_Energy>
13.8401

> <b_lp_Chiralities_Consistent>
1

> <s_lp_Variant>
AV-unprocessed.smi:1473-3

> <Gold.Version>
5.8.1

> <Gold.Id.Protein>
6NUR|6NUR_protein|mol2

> <Gold.PLP.Fitness>
44.4141

> <Gold.PLP.PLP>
-33.7899

> <Gold.PLP.part.hbond>
-3.0000

> <Gold.PLP.part.metal>
0.0000

> <Gold.PLP.part.buried>
-2.9997

> <Gold.PLP.part.nonpolar>
-28.4120

> <Gold.PLP.part.repulsive>
0.2591

> <Gold.PLP.ligand.clash>
0.0000

> <Gold.PLP.ligand.torsion>
0.9785

> <Gold.PLP.Chemscore.Hbond>
3.8480

> <Gold.PLP.Chemscore.CHOScore>
0.0000

> <Gold.PLP.Chemscore.Metal>
0.0000

> <Gold.Chemscore.Hbonds>
donor molecule, donor type, donor heavy atom, donor atom, acceptor molecule, acceptor atom, score
      L1  H    10    34       P1  8028  2.00
      P1  H  6896  6907       L1     4  0.76
      P1  H 10752 10764       L1     3  1.00

> <Gold.PLP.Chemscore.Internal.Correction>
1.0372

> <Gold.Rescore>
     Score         DG    S(hbond)    S(metal)    S(lipo)     H(rot)  DE(clash)    DE(int)     intcor
     18.63     -19.62       2.88        0.00      80.44       1.91       0.00       0.98       ----

> <Gold.Chemscore.Fitness>
18.6348

> <Gold.Chemscore.DG>
-19.6156

> <Gold.Chemscore.ZeroCoef>
-5.4800

> <Gold.Chemscore.Hbond>
2.8799

> <Gold.Chemscore.Metal>
0.0000

> <Gold.Chemscore.Lipo>
80.4419

> <Gold.Chemscore.Internal_Hbond>
0.0000

> <Gold.Chemscore.DEClash>
0.0021

> <Gold.Chemscore.DEInternal>
0.9787

> <Gold.Chemscore.Rot>
1.9121

> <Gold.Chemscore.Internal.Correction>
   9.000000E+99

> <Gold.Chemscore.Hbonds>
donor molecule, donor type, donor heavy atom, donor atom, acceptor molecule, acceptor atom, score
      L1  H    10    34       P1  8028  0.99
      P1  H  6896  6907       L1     4  0.71
      P1  H 10752 10764       L1     3  1.00

> <Gold.Chemscore.Hbond.Weighted>
-9.6190

> <Gold.Chemscore.Metal.Weighted>
-0.0000

> <Gold.Chemscore.Lipo.Weighted>
-9.4117

> <Gold.Chemscore.Internal_Hbond.Weighted>
0.0000

> <Gold.Chemscore.DEClash.Weighted>
0.0021

> <Gold.Chemscore.DEInternal.Weighted>
0.9787

> <Gold.Chemscore.Rot.Weighted>
4.8950

> <Gold.Chemscore.Internal.Correction.Weighted>
   9.000000E+99

> <Gold.Protein.RotatedTorsions>
[ 6907 6896 6895 6894 ] final  -68.11 input  -60.11 | X-H torsion
[ 7974 7965 7964 7962 ] final -153.06 input  175.53 | X-H torsion
[ 8008 7997 7996 7995 ] final   59.65 input   59.86 | X-H torsion
[ 10167 10162 10161 10158 ] final  109.27 input  -65.29 | X-H torsion
[ 10718 10713 10712 10709 ] final   70.30 input   66.30 | X-H torsion
[ 10763 10752 10751 10750 ] final  -30.47 input  -60.55 | X-H torsion
[ 11005 11000 10999 10996 ] final   52.13 input  -57.11 | X-H torsion

> <Gold.Protein.ActiveResidues>
 VAL166  LYS551  ARG553  GLY616  TRP617  ASP618  TYR619  PRO620  LYS621  CYS622 
 ASP623  PHE694  ASN695  SER759  ASP760  ASP761  ALA762  ILE779  LEU786  VAL792 
 PHE793  MET794  SER795  GLU796  ALA797  LYS798  CYS799  TRP800  GLU811  SER814 

> <Gold.Protein.RotatedAtoms>
  150.7373  134.5785  159.5926 H   0  0  0  0  0  0  0  0  0  0  0  0  # atno 6907 bound_to 6896
  152.3205  134.7383  160.0324 H   0  0  0  0  0  0  0  0  0  0  0  0  # atno 6908 bound_to 6896
  151.7900  133.3322  159.3533 H   0  0  0  0  0  0  0  0  0  0  0  0  # atno 6909 bound_to 6896
  144.7761  140.4577  143.5873 H   0  0  0  0  0  0  0  0  0  0  0  0  # atno 7974 bound_to 7965
  155.5696  140.3489  155.4512 H   0  0  0  0  0  0  0  0  0  0  0  0  # atno 8008 bound_to 7997
  156.0454  140.1305  157.0135 H   0  0  0  0  0  0  0  0  0  0  0  0  # atno 8009 bound_to 7997
  154.4410  140.1015  156.6283 H   0  0  0  0  0  0  0  0  0  0  0  0  # atno 8010 bound_to 7997
  139.6780  144.7120  151.1567 H   0  0  0  0  0  0  0  0  0  0  0  0  # atno 10167 bound_to 10162
  157.6392  130.9470  150.0631 H   0  0  0  0  0  0  0  0  0  0  0  0  # atno 10718 bound_to 10713
  153.7815  135.6905  153.4887 H   0  0  0  0  0  0  0  0  0  0  0  0  # atno 10763 bound_to 10752
  153.1809  135.4507  155.0025 H   0  0  0  0  0  0  0  0  0  0  0  0  # atno 10764 bound_to 10752
  154.8080  135.3365  154.7317 H   0  0  0  0  0  0  0  0  0  0  0  0  # atno 10765 bound_to 10752
  140.0875  134.5255  155.8885 H   0  0  0  0  0  0  0  0  0  0  0  0  # atno 11005 bound_to 11000
  145.6183  139.1521  143.3037 LP  0  0  0  0  0  0  0  0  0  0  0  0  # atno 17320 bound_to 7965
  146.1941  140.6295  142.9132 LP  0  0  0  0  0  0  0  0  0  0  0  0  # atno 17321 bound_to 7965
  140.7642  143.5742  150.8963 LP  0  0  0  0  0  0  0  0  0  0  0  0  # atno 17342 bound_to 10162
  139.9412  143.6379  152.3053 LP  0  0  0  0  0  0  0  0  0  0  0  0  # atno 17343 bound_to 10162
  156.1658  130.3645  149.9235 LP  0  0  0  0  0  0  0  0  0  0  0  0  # atno 17370 bound_to 10713
  156.7222  130.9011  151.3619 LP  0  0  0  0  0  0  0  0  0  0  0  0  # atno 17371 bound_to 10713
  141.2067  133.6657  156.6259 LP  0  0  0  0  0  0  0  0  0  0  0  0  # atno 17394 bound_to 11000
  140.3400  134.7857  157.4390 LP  0  0  0  0  0  0  0  0  0  0  0  0  # atno 17395 bound_to 11000

$$$$
