AV-unprocessed.smi:212|AV-procd|sdf|1627|dock9
  -GOLD-   2262019573D 1   1.00000     0.00000
 Structure written by MMmdl.
 65 68  0  0  0  0  0  0  0  0  2 V2000
  143.4305  136.0592  152.2473 C   0  0  0  0  0  0  0  0  0  0  0  0
  144.9400  136.2652  152.4584 C   0  0  2  0  0  0  0  0  0  0  0  0
  145.7821  135.5324  151.3927 C   0  0  0  0  0  0  0  0  0  0  0  0
  145.7700  134.0603  151.6030 N   0  3  1  0  0  0  0  0  0  0  0  0
  146.4581  133.3046  150.5232 C   0  0  0  0  0  0  0  0  0  0  0  0
  145.6204  132.1125  150.0035 C   0  0  0  0  0  0  0  0  0  0  0  0
  145.1233  131.2607  151.1836 C   0  0  0  0  0  0  0  0  0  0  0  0
  144.4308  132.5678  149.1380 C   0  0  0  0  0  0  0  0  0  0  0  0
  146.4434  131.2716  149.2198 O   0  0  0  0  0  0  0  0  0  0  0  0
  146.2303  133.6884  152.9644 C   0  0  0  0  0  0  0  0  0  0  0  0
  145.4041  134.4130  154.0430 C   0  0  0  0  0  0  0  0  0  0  0  0
  145.3600  135.8563  153.8015 N   0  0  0  0  0  0  0  0  0  0  0  0
  146.2830  136.6502  154.4056 C   0  0  0  0  0  0  0  0  0  0  0  0
  146.8343  136.2710  155.5893 N   0  0  0  0  0  0  0  0  0  0  0  0
  147.7515  137.0394  156.1849 C   0  0  0  0  0  0  0  0  0  0  0  0
  148.2523  138.2073  155.7790 N   0  0  0  0  0  0  0  0  0  0  0  0
  147.6973  138.5986  154.5966 C   0  0  0  0  0  0  0  0  0  0  0  0
  146.7167  137.8870  153.8493 C   0  0  0  0  0  0  0  0  0  0  0  0
  146.3876  138.6000  152.7021 N   0  0  0  0  0  0  0  0  0  0  0  0
  147.1376  139.6666  152.7627 C   0  0  0  0  0  0  0  0  0  0  0  0
  147.9571  139.7443  153.8654 N   0  0  0  0  0  0  0  0  0  0  0  0
  148.8827  140.8183  154.1800 C   0  0  0  0  0  0  0  0  0  0  0  0
  149.8350  140.4681  155.3541 C   0  0  2  0  0  0  0  0  0  0  0  0
  150.2208  141.7264  156.1685 C   0  0  0  0  0  0  0  0  0  0  0  0
  149.0828  142.3346  156.7431 O   0  0  0  0  0  0  0  0  0  0  0  0
  151.0867  139.6647  154.8987 C   0  0  1  0  0  0  0  0  0  0  0  0
  152.0735  139.3528  156.0278 C   0  0  0  0  0  0  0  0  0  0  0  0
  152.3416  137.8561  155.8888 C   0  0  0  0  0  0  0  0  0  0  0  0
  151.1535  137.3607  155.2965 O   0  0  0  0  0  0  0  0  0  0  0  0
  150.7899  138.2864  154.2851 C   0  0  0  0  0  0  0  0  0  0  0  0
  143.1225  136.4223  151.2666 H   0  0  0  0  0  0  0  0  0  0  0  0
  142.8552  136.6072  152.9941 H   0  0  0  0  0  0  0  0  0  0  0  0
  143.1453  135.0091  152.3115 H   0  0  0  0  0  0  0  0  0  0  0  0
  145.1268  137.3302  152.3228 H   0  0  0  0  0  0  0  0  0  0  0  0
  145.4146  135.7797  150.3967 H   0  0  0  0  0  0  0  0  0  0  0  0
  146.8138  135.8856  151.4378 H   0  0  0  0  0  0  0  0  0  0  0  0
  146.7252  133.9761  149.7054 H   0  0  0  0  0  0  0  0  0  0  0  0
  147.4065  132.9144  150.8968 H   0  0  0  0  0  0  0  0  0  0  0  0
  144.4678  131.8371  151.8374 H   0  0  0  0  0  0  0  0  0  0  0  0
  145.9531  130.8945  151.7896 H   0  0  0  0  0  0  0  0  0  0  0  0
  144.5600  130.3922  150.8398 H   0  0  0  0  0  0  0  0  0  0  0  0
  143.7709  133.2332  149.6956 H   0  0  0  0  0  0  0  0  0  0  0  0
  143.8338  131.7171  148.8064 H   0  0  0  0  0  0  0  0  0  0  0  0
  144.7579  133.1000  148.2442 H   0  0  0  0  0  0  0  0  0  0  0  0
  147.3287  131.3256  149.5468 H   0  0  0  0  0  0  0  0  0  0  0  0
  146.1384  132.6107  153.1039 H   0  0  0  0  0  0  0  0  0  0  0  0
  147.2887  133.9332  153.0659 H   0  0  0  0  0  0  0  0  0  0  0  0
  144.3824  134.0333  154.0380 H   0  0  0  0  0  0  0  0  0  0  0  0
  145.7947  134.1927  155.0374 H   0  0  0  0  0  0  0  0  0  0  0  0
  148.1403  136.6643  157.1201 H   0  0  0  0  0  0  0  0  0  0  0  0
  147.1146  140.4316  152.0000 H   0  0  0  0  0  0  0  0  0  0  0  0
  149.4392  141.0426  153.2710 H   0  0  0  0  0  0  0  0  0  0  0  0
  148.3047  141.7143  154.4057 H   0  0  0  0  0  0  0  0  0  0  0  0
  149.2775  139.8188  156.0314 H   0  0  0  0  0  0  0  0  0  0  0  0
  150.9356  141.4818  156.9543 H   0  0  0  0  0  0  0  0  0  0  0  0
  150.6930  142.4759  155.5346 H   0  0  0  0  0  0  0  0  0  0  0  0
  148.9123  143.1445  156.2868 H   0  0  0  0  0  0  0  0  0  0  0  0
  151.6225  140.2516  154.1521 H   0  0  0  0  0  0  0  0  0  0  0  0
  152.9930  139.9333  155.9469 H   0  0  0  0  0  0  0  0  0  0  0  0
  151.6486  139.5661  157.0079 H   0  0  0  0  0  0  0  0  0  0  0  0
  153.1853  137.6719  155.2217 H   0  0  0  0  0  0  0  0  0  0  0  0
  152.5473  137.3738  156.8445 H   0  0  0  0  0  0  0  0  0  0  0  0
  149.7549  138.1510  153.9724 H   0  0  0  0  0  0  0  0  0  0  0  0
  151.4198  138.1174  153.4102 H   0  0  0  0  0  0  0  0  0  0  0  0
  144.8011  133.7787  151.5570 H   0  0  0  0  0  0  0  0  0  0  0  0
  1  2  1  0  0  0  0
  1 31  1  0  0  0  0
  1 32  1  0  0  0  0
  1 33  1  0  0  0  0
  2 12  1  0  0  0  0
  2  3  1  0  0  0  0
  2 34  1  0  0  0  0
  3  4  1  0  0  0  0
  3 35  1  0  0  0  0
  3 36  1  0  0  0  0
  4  5  1  0  0  0  0
  4 10  1  0  0  0  0
  4 65  1  0  0  0  0
  5  6  1  0  0  0  0
  5 37  1  0  0  0  0
  5 38  1  0  0  0  0
  6  7  1  0  0  0  0
  6  8  1  0  0  0  0
  6  9  1  0  0  0  0
  7 39  1  0  0  0  0
  7 40  1  0  0  0  0
  7 41  1  0  0  0  0
  8 42  1  0  0  0  0
  8 43  1  0  0  0  0
  8 44  1  0  0  0  0
  9 45  1  0  0  0  0
 10 11  1  0  0  0  0
 10 46  1  0  0  0  0
 10 47  1  0  0  0  0
 11 12  1  0  0  0  0
 11 48  1  0  0  0  0
 11 49  1  0  0  0  0
 12 13  1  0  0  0  0
 13 18  1  0  0  0  0
 13 14  2  0  0  0  0
 14 15  1  0  0  0  0
 15 16  2  0  0  0  0
 15 50  1  0  0  0  0
 16 17  1  0  0  0  0
 17 21  1  0  0  0  0
 17 18  2  0  0  0  0
 18 19  1  0  0  0  0
 19 20  2  0  0  0  0
 20 21  1  0  0  0  0
 20 51  1  0  0  0  0
 21 22  1  0  0  0  0
 22 23  1  0  0  0  0
 22 52  1  0  0  0  0
 22 53  1  0  0  0  0
 23 24  1  0  0  0  0
 23 26  1  0  0  0  0
 23 54  1  0  0  0  0
 24 25  1  0  0  0  0
 24 55  1  0  0  0  0
 24 56  1  0  0  0  0
 25 57  1  0  0  0  0
 26 30  1  0  0  0  0
 26 27  1  0  0  0  0
 26 58  1  0  0  0  0
 27 28  1  0  0  0  0
 27 59  1  0  0  0  0
 27 60  1  0  0  0  0
 28 29  1  0  0  0  0
 28 61  1  0  0  0  0
 28 62  1  0  0  0  0
 29 30  1  0  0  0  0
 30 63  1  0  0  0  0
 30 64  1  0  0  0  0
M  CHG  1   4   1
M  END
> <s_m_source_file>
AV-unprocessed.smi

> <i_m_source_file_index>
212

> <i_lp_mmshare_version>
43012

> <i_f3d_flags>
0

> <s_epik_input>
W0NIM11bQ0BASF0xW0NIMl1OKFtDSDJdQyhbQ0gzXSkoW0NIM10pW09IXSlbQ0gyXVtDSDJdTjFjKG5bY0hdbjIpYyhjMjMpbltjSF1uM1tDSDJdW0NASF0oW0NIMl1bT0hdKVtDQEBIXTRbQ0gyXVtDSDJdT1tDSDJdNA==

> <s_epik_cmdline>
J2VwaWtfcHl0aG9uJywgJy1waCcsICc3LjAnLCAnLXRuJywgJzgnLCAnLW1hJywgJzIwMCcsICctbWV0YWxfYmluZGluZycsICctaW1hZScsICc8aW5maWxlLm1hZT4nLCAnLW9tYWUnLCAnPG91dGZpbGUubWFlPic=

> <r_lp_tautomer_probability>
1

> <r_epik_Ionization_Penalty>
0.00182193

> <r_epik_Ionization_Penalty_Charging>
0.00173996

> <r_epik_Ionization_Penalty_Neutral>
8.19718e-05

> <r_epik_State_Penalty>
-0

> <r_epik_Charging_Adjusted_Penalty>
0.00173996

> <i_epik_Tot_Q>
1

> <i_epik_Tot_abs_Q>
1

> <r_epik_Metal_State_Penalty>
-0

> <b_epik_Metal_Only>
0

> <s_lp_Force_Field>
OPLS_2005

> <r_lp_Energy>
60.0337

> <b_lp_Chiralities_Consistent>
1

> <s_lp_Variant>
AV-unprocessed.smi:212-11

> <Gold.Version>
5.8.1

> <Gold.Id.Protein>
6NUR|6NUR_protein|mol2

> <Gold.PLP.Fitness>
48.1281

> <Gold.PLP.PLP>
-43.3628

> <Gold.PLP.part.hbond>
-2.0000

> <Gold.PLP.part.metal>
0.0000

> <Gold.PLP.part.buried>
-0.4540

> <Gold.PLP.part.nonpolar>
-40.9563

> <Gold.PLP.part.repulsive>
0.4852

> <Gold.PLP.ligand.clash>
0.0000

> <Gold.PLP.ligand.torsion>
1.4076

> <Gold.PLP.Chemscore.Hbond>
2.0000

> <Gold.PLP.Chemscore.CHOScore>
0.2017

> <Gold.PLP.Chemscore.Metal>
0.0000

> <Gold.Chemscore.Hbonds>
donor molecule, donor type, donor heavy atom, donor atom, acceptor molecule, acceptor atom, score
      L1  H     9    45       P1 10747  1.00
      L1  H    25    57       P1  8028  1.00
      L1  C    20    51       P1  7957  0.25

> <Gold.PLP.Chemscore.Internal.Correction>
0.9754

> <Gold.Rescore>
     Score         DG    S(hbond)    S(metal)    S(lipo)     H(rot)  DE(clash)    DE(int)     intcor
     11.35     -15.82       1.93        0.00     107.77       3.40       0.18       4.29       ----

> <Gold.Chemscore.Fitness>
11.3502

> <Gold.Chemscore.DG>
-15.8226

> <Gold.Chemscore.ZeroCoef>
-5.4800

> <Gold.Chemscore.Hbond>
1.9263

> <Gold.Chemscore.Metal>
0.0000

> <Gold.Chemscore.Lipo>
107.7713

> <Gold.Chemscore.Internal_Hbond>
0.0000

> <Gold.Chemscore.DEClash>
0.1847

> <Gold.Chemscore.DEInternal>
4.2877

> <Gold.Chemscore.Rot>
3.3986

> <Gold.Chemscore.Internal.Correction>
   9.000000E+99

> <Gold.Chemscore.Hbonds>
donor molecule, donor type, donor heavy atom, donor atom, acceptor molecule, acceptor atom, score
      L1  H     9    45       P1 10747  1.00
      L1  H    25    57       P1  8028  1.00

> <Gold.Chemscore.Hbond.Weighted>
-6.4338

> <Gold.Chemscore.Metal.Weighted>
-0.0000

> <Gold.Chemscore.Lipo.Weighted>
-12.6092

> <Gold.Chemscore.Internal_Hbond.Weighted>
0.0000

> <Gold.Chemscore.DEClash.Weighted>
0.1847

> <Gold.Chemscore.DEInternal.Weighted>
4.2877

> <Gold.Chemscore.Rot.Weighted>
8.7005

> <Gold.Chemscore.Internal.Correction.Weighted>
   9.000000E+99

> <Gold.Protein.RotatedTorsions>
[ 6907 6896 6895 6894 ] final  109.83 input  -60.11 | X-H torsion
[ 7974 7965 7964 7962 ] final -140.23 input  175.53 | X-H torsion
[ 8008 7997 7996 7995 ] final   89.71 input   59.86 | X-H torsion
[ 10167 10162 10161 10158 ] final  -98.68 input  -65.29 | X-H torsion
[ 10718 10713 10712 10709 ] final -156.39 input   66.30 | X-H torsion
[ 10763 10752 10751 10750 ] final -152.78 input  -60.55 | X-H torsion
[ 11005 11000 10999 10996 ] final -110.11 input  -57.11 | X-H torsion

> <Gold.Protein.ActiveResidues>
 VAL166  LYS551  ARG553  GLY616  TRP617  ASP618  TYR619  PRO620  LYS621  CYS622 
 ASP623  PHE694  ASN695  SER759  ASP760  ASP761  ALA762  ILE779  LEU786  VAL792 
 PHE793  MET794  SER795  GLU796  ALA797  LYS798  CYS799  TRP800  GLU811  SER814 

> <Gold.Protein.RotatedAtoms>
  152.5049  133.8888  159.7383 H   0  0  0  0  0  0  0  0  0  0  0  0  # atno 6907 bound_to 6896
  150.9332  133.6734  159.2813 H   0  0  0  0  0  0  0  0  0  0  0  0  # atno 6908 bound_to 6896
  151.4071  135.0984  159.9626 H   0  0  0  0  0  0  0  0  0  0  0  0  # atno 6909 bound_to 6896
  144.8613  140.6224  143.5326 H   0  0  0  0  0  0  0  0  0  0  0  0  # atno 7974 bound_to 7965
  156.0032  140.3357  155.6866 H   0  0  0  0  0  0  0  0  0  0  0  0  # atno 8008 bound_to 7997
  155.6261  140.0680  157.2681 H   0  0  0  0  0  0  0  0  0  0  0  0  # atno 8009 bound_to 7997
  154.4256  140.1768  156.1410 H   0  0  0  0  0  0  0  0  0  0  0  0  # atno 8010 bound_to 7997
  140.2704  143.3348  152.0540 H   0  0  0  0  0  0  0  0  0  0  0  0  # atno 10167 bound_to 10162
  156.5258  130.8499  151.2698 H   0  0  0  0  0  0  0  0  0  0  0  0  # atno 10718 bound_to 10713
  154.7971  135.3228  154.7640 H   0  0  0  0  0  0  0  0  0  0  0  0  # atno 10763 bound_to 10752
  153.8316  135.6879  153.4818 H   0  0  0  0  0  0  0  0  0  0  0  0  # atno 10764 bound_to 10752
  153.1668  135.4639  154.9791 H   0  0  0  0  0  0  0  0  0  0  0  0  # atno 10765 bound_to 10752
  141.0810  133.9220  157.2289 H   0  0  0  0  0  0  0  0  0  0  0  0  # atno 11005 bound_to 11000
  145.4306  139.1550  143.4024 LP  0  0  0  0  0  0  0  0  0  0  0  0  # atno 17320 bound_to 7965
  146.2863  140.4422  142.8757 LP  0  0  0  0  0  0  0  0  0  0  0  0  # atno 17321 bound_to 7965
  139.4990  144.6660  151.6355 LP  0  0  0  0  0  0  0  0  0  0  0  0  # atno 17342 bound_to 10162
  140.5894  143.9806  150.6315 LP  0  0  0  0  0  0  0  0  0  0  0  0  # atno 17343 bound_to 10162
  157.7429  130.9901  150.2556 LP  0  0  0  0  0  0  0  0  0  0  0  0  # atno 17370 bound_to 10713
  156.3106  130.3771  149.7665 LP  0  0  0  0  0  0  0  0  0  0  0  0  # atno 17371 bound_to 10713
  139.9624  135.0151  156.9296 LP  0  0  0  0  0  0  0  0  0  0  0  0  # atno 17394 bound_to 11000
  140.5468  134.0666  155.7357 LP  0  0  0  0  0  0  0  0  0  0  0  0  # atno 17395 bound_to 11000

$$$$
