AV-unprocessed.smi:1429|AV-procd|sdf|5818|dock3
  -GOLD-   22720 5473D 1   1.00000     0.00000
 Structure written by MMmdl.
 30 31  0  0  0  0  0  0  0  0  1 V2000
  144.2296  131.7538  150.5654 C   0  0  0  0  0  0  0  0  0  0  0  0
  144.6053  133.0920  151.1036 C   0  0  0  0  0  0  0  0  0  0  0  0
  143.6985  133.9792  151.5301 N   0  0  0  0  0  0  0  0  0  0  0  0
  144.2837  135.1525  151.9850 N   0  0  0  0  0  0  0  0  0  0  0  0
  145.6195  135.1160  151.8855 C   0  0  0  0  0  0  0  0  0  0  0  0
  146.4693  136.1837  152.2788 N   0  0  0  0  0  0  0  0  0  0  0  0
  146.1219  137.4042  152.7237 C   0  0  0  0  0  0  0  0  0  0  0  0
  144.9676  137.8073  152.8698 O   0  0  0  0  0  0  0  0  0  0  0  0
  147.2034  138.1488  152.9946 N   0  0  0  0  0  0  0  0  0  0  0  0
  147.1703  139.5206  153.4913 C   0  0  0  0  0  0  0  0  0  0  0  0
  148.3242  139.8108  154.4700 C   0  0  2  0  0  0  0  0  0  0  0  0
  148.6499  141.2803  154.6528 C   0  0  0  0  0  0  0  0  0  0  0  0
  150.0569  141.2132  155.2363 C   0  0  0  0  0  0  0  0  0  0  0  0
  150.6665  140.0764  154.6328 O   0  0  0  0  0  0  0  0  0  0  0  0
  149.6756  139.2573  154.0169 C   0  0  0  0  0  0  0  0  0  0  0  0
  146.2765  133.6304  151.2200 S   0  0  0  0  0  0  0  0  0  0  0  0
  143.3509  131.3690  151.0840 H   0  0  0  0  0  0  0  0  0  0  0  0
  145.0495  131.0482  150.7006 H   0  0  0  0  0  0  0  0  0  0  0  0
  144.0045  131.8305  149.5017 H   0  0  0  0  0  0  0  0  0  0  0  0
  147.4588  135.9958  152.2129 H   0  0  0  0  0  0  0  0  0  0  0  0
  148.1147  137.7400  152.8469 H   0  0  0  0  0  0  0  0  0  0  0  0
  147.2017  140.2192  152.6536 H   0  0  0  0  0  0  0  0  0  0  0  0
  146.2107  139.6770  153.9850 H   0  0  0  0  0  0  0  0  0  0  0  0
  148.0920  139.3842  155.4474 H   0  0  0  0  0  0  0  0  0  0  0  0
  148.6674  141.7915  153.6890 H   0  0  0  0  0  0  0  0  0  0  0  0
  147.9464  141.7998  155.3042 H   0  0  0  0  0  0  0  0  0  0  0  0
  150.6314  142.1212  155.0516 H   0  0  0  0  0  0  0  0  0  0  0  0
  150.0130  141.0529  156.3142 H   0  0  0  0  0  0  0  0  0  0  0  0
  149.8045  138.2088  154.2866 H   0  0  0  0  0  0  0  0  0  0  0  0
  149.7884  139.3421  152.9351 H   0  0  0  0  0  0  0  0  0  0  0  0
  1  2  1  0  0  0  0
  1 17  1  0  0  0  0
  1 18  1  0  0  0  0
  1 19  1  0  0  0  0
  2 16  1  0  0  0  0
  2  3  2  0  0  0  0
  3  4  1  0  0  0  0
  4  5  2  0  0  0  0
  5  6  1  0  0  0  0
  5 16  1  0  0  0  0
  6  7  1  0  0  0  0
  6 20  1  0  0  0  0
  7  8  2  0  0  0  0
  7  9  1  0  0  0  0
  9 10  1  0  0  0  0
  9 21  1  0  0  0  0
 10 11  1  0  0  0  0
 10 22  1  0  0  0  0
 10 23  1  0  0  0  0
 11 15  1  0  0  0  0
 11 12  1  0  0  0  0
 11 24  1  0  0  0  0
 12 13  1  0  0  0  0
 12 25  1  0  0  0  0
 12 26  1  0  0  0  0
 13 14  1  0  0  0  0
 13 27  1  0  0  0  0
 13 28  1  0  0  0  0
 14 15  1  0  0  0  0
 15 29  1  0  0  0  0
 15 30  1  0  0  0  0
M  END
> <s_m_source_file>
AV-unprocessed.smi

> <i_m_source_file_index>
1429

> <i_lp_mmshare_version>
43012

> <i_f3d_flags>
0

> <s_epik_input>
W0NIM11jMW5uYyhzMSlbTkhdQyg9TylbTkhdW0NIMl1bQ0BASF0yW0NIMl1bQ0gyXU9bQ0gyXTI=

> <s_epik_cmdline>
J2VwaWtfcHl0aG9uJywgJy1waCcsICc3LjAnLCAnLXRuJywgJzgnLCAnLW1hJywgJzIwMCcsICctbWV0YWxfYmluZGluZycsICctaW1hZScsICc8aW5maWxlLm1hZT4nLCAnLW9tYWUnLCAnPG91dGZpbGUubWFlPic=

> <r_lp_tautomer_probability>
1

> <r_epik_Ionization_Penalty>
0.000468089

> <r_epik_Ionization_Penalty_Charging>
0

> <r_epik_Ionization_Penalty_Neutral>
0.000468089

> <r_epik_State_Penalty>
-0

> <r_epik_Charging_Adjusted_Penalty>
0

> <i_epik_Tot_Q>
0

> <i_epik_Tot_abs_Q>
0

> <r_epik_Metal_State_Penalty>
0.211262

> <b_epik_Metal_Only>
0

> <s_lp_Force_Field>
OPLS_2005

> <r_lp_Energy>
16.548

> <b_lp_Chiralities_Consistent>
1

> <s_lp_Variant>
AV-unprocessed.smi:1429-1

> <Gold.Version>
5.8.1

> <Gold.Id.Protein>
6NUR|6NUR_protein|mol2

> <Gold.PLP.Fitness>
33.1004

> <Gold.PLP.PLP>
-25.3753

> <Gold.PLP.part.hbond>
-2.8972

> <Gold.PLP.part.metal>
0.0000

> <Gold.PLP.part.buried>
-3.6652

> <Gold.PLP.part.nonpolar>
-20.6059

> <Gold.PLP.part.repulsive>
1.8460

> <Gold.PLP.ligand.clash>
0.0000

> <Gold.PLP.ligand.torsion>
0.3403

> <Gold.PLP.Chemscore.Hbond>
2.8000

> <Gold.PLP.Chemscore.CHOScore>
0.0000

> <Gold.PLP.Chemscore.Metal>
0.0000

> <Gold.Chemscore.Hbonds>
donor molecule, donor type, donor heavy atom, donor atom, acceptor molecule, acceptor atom, score
      L1  H     6    20       P1  7948  1.00
      L1  H     9    21       P1  7948  0.80
      P1  H  7989  7998       L1    14  0.95

> <Gold.PLP.Chemscore.Internal.Correction>
0.0058

> <Gold.Rescore>
     Score         DG    S(hbond)    S(metal)    S(lipo)     H(rot)  DE(clash)    DE(int)     intcor
     14.81     -17.80       2.66        0.00      58.12       1.31       1.41       1.58       ----

> <Gold.Chemscore.Fitness>
14.8059

> <Gold.Chemscore.DG>
-17.7970

> <Gold.Chemscore.ZeroCoef>
-5.4800

> <Gold.Chemscore.Hbond>
2.6576

> <Gold.Chemscore.Metal>
0.0000

> <Gold.Chemscore.Lipo>
58.1247

> <Gold.Chemscore.Internal_Hbond>
0.0000

> <Gold.Chemscore.DEClash>
1.4113

> <Gold.Chemscore.DEInternal>
1.5798

> <Gold.Chemscore.Rot>
1.3125

> <Gold.Chemscore.Internal.Correction>
   9.000000E+99

> <Gold.Chemscore.Hbonds>
donor molecule, donor type, donor heavy atom, donor atom, acceptor molecule, acceptor atom, score
      L1  H     6    20       P1  7948  0.93
      L1  H     9    21       P1  7948  0.78
      P1  H  7989  7998       L1    14  0.18

> <Gold.Chemscore.Hbond.Weighted>
-8.8764

> <Gold.Chemscore.Metal.Weighted>
-0.0000

> <Gold.Chemscore.Lipo.Weighted>
-6.8006

> <Gold.Chemscore.Internal_Hbond.Weighted>
0.0000

> <Gold.Chemscore.DEClash.Weighted>
1.4113

> <Gold.Chemscore.DEInternal.Weighted>
1.5798

> <Gold.Chemscore.Rot.Weighted>
3.3600

> <Gold.Chemscore.Internal.Correction.Weighted>
   9.000000E+99

> <Gold.Protein.RotatedTorsions>
[ 6907 6896 6895 6894 ] final    5.84 input  -60.11 | X-H torsion
[ 7974 7965 7964 7962 ] final   63.92 input  175.53 | X-H torsion
[ 8008 7997 7996 7995 ] final   70.39 input   59.86 | X-H torsion
[ 10167 10162 10161 10158 ] final  103.24 input  -65.29 | X-H torsion
[ 10718 10713 10712 10709 ] final  150.07 input   66.30 | X-H torsion
[ 10763 10752 10751 10750 ] final  142.77 input  -60.55 | X-H torsion
[ 11005 11000 10999 10996 ] final  133.21 input  -57.11 | X-H torsion

> <Gold.Protein.ActiveResidues>
 VAL166  LYS551  ARG553  GLY616  TRP617  ASP618  TYR619  PRO620  LYS621  CYS622 
 ASP623  PHE694  ASN695  SER759  ASP760  ASP761  ALA762  ILE779  LEU786  VAL792 
 PHE793  MET794  SER795  GLU796  ALA797  LYS798  CYS799  TRP800  GLU811  SER814 

> <Gold.Protein.RotatedAtoms>
  151.6641  135.0985  160.0184 H   0  0  0  0  0  0  0  0  0  0  0  0  # atno 6907 bound_to 6896
  152.3930  133.6701  159.6261 H   0  0  0  0  0  0  0  0  0  0  0  0  # atno 6908 bound_to 6896
  150.7842  133.8839  159.3335 H   0  0  0  0  0  0  0  0  0  0  0  0  # atno 6909 bound_to 6896
  145.8562  139.3285  143.0846 H   0  0  0  0  0  0  0  0  0  0  0  0  # atno 7974 bound_to 7965
  155.7381  140.3491  155.5091 H   0  0  0  0  0  0  0  0  0  0  0  0  # atno 8008 bound_to 7997
  155.9120  140.1052  157.1294 H   0  0  0  0  0  0  0  0  0  0  0  0  # atno 8009 bound_to 7997
  154.4057  140.1266  156.4556 H   0  0  0  0  0  0  0  0  0  0  0  0  # atno 8010 bound_to 7997
  139.7280  144.7043  151.0766 H   0  0  0  0  0  0  0  0  0  0  0  0  # atno 10167 bound_to 10162
  157.2881  131.0848  151.1482 H   0  0  0  0  0  0  0  0  0  0  0  0  # atno 10718 bound_to 10713
  153.9614  135.2960  155.3433 H   0  0  0  0  0  0  0  0  0  0  0  0  # atno 10763 bound_to 10752
  154.7373  135.5041  153.9066 H   0  0  0  0  0  0  0  0  0  0  0  0  # atno 10764 bound_to 10752
  153.0945  135.6717  153.9900 H   0  0  0  0  0  0  0  0  0  0  0  0  # atno 10765 bound_to 10752
  139.9838  134.9539  156.9693 H   0  0  0  0  0  0  0  0  0  0  0  0  # atno 11005 bound_to 11000
  145.9300  140.9055  143.0361 LP  0  0  0  0  0  0  0  0  0  0  0  0  # atno 17320 bound_to 7965
  144.6727  140.1406  143.7437 LP  0  0  0  0  0  0  0  0  0  0  0  0  # atno 17321 bound_to 7965
  140.7766  143.5079  150.9689 LP  0  0  0  0  0  0  0  0  0  0  0  0  # atno 17342 bound_to 10162
  139.8767  143.7123  152.3161 LP  0  0  0  0  0  0  0  0  0  0  0  0  # atno 17343 bound_to 10162
  157.2890  130.6787  149.6104 LP  0  0  0  0  0  0  0  0  0  0  0  0  # atno 17370 bound_to 10713
  155.9666  130.4427  150.5390 LP  0  0  0  0  0  0  0  0  0  0  0  0  # atno 17371 bound_to 10713
  140.5044  134.1065  155.7257 LP  0  0  0  0  0  0  0  0  0  0  0  0  # atno 17394 bound_to 11000
  141.1506  133.8976  157.2107 LP  0  0  0  0  0  0  0  0  0  0  0  0  # atno 17395 bound_to 11000

$$$$
