AV-unprocessed.smi:2516|AV-procd|sdf|9898|dock10
  -GOLD-   2272013533D 1   1.00000     0.00000
 Structure written by MMmdl.
 47 48  0  0  0  0  0  0  0  0  1 V2000
  145.9926  128.9715  152.0505 C   0  0  0  0  0  0  0  0  0  0  0  0
  147.1155  129.5532  152.9169 C   0  0  0  0  0  0  0  0  0  0  0  0
  147.1113  131.0067  152.8936 N   0  0  0  0  0  0  0  0  0  0  0  0
  146.1362  131.6387  152.1961 N   0  0  0  0  0  0  0  0  0  0  0  0
  146.3774  132.9304  152.3451 C   0  0  0  0  0  0  0  0  0  0  0  0
  145.4652  133.9359  151.7038 C   0  0  0  0  0  0  0  0  0  0  0  0
  147.5463  133.1377  153.1245 C   0  0  0  0  0  0  0  0  0  0  0  0
  148.0614  134.4110  153.4733 N   0  0  0  0  0  0  0  0  0  0  0  0
  148.3142  134.8594  154.7125 C   0  0  0  0  0  0  0  0  0  0  0  0
  148.0768  134.2376  155.7482 O   0  0  0  0  0  0  0  0  0  0  0  0
  148.8811  136.0740  154.6841 N   0  0  0  0  0  0  0  0  0  0  0  0
  149.3172  136.8384  155.8521 C   0  0  2  0  0  0  0  0  0  0  0  0
  148.0734  137.3982  156.5669 C   0  0  0  0  0  0  0  0  0  0  0  0
  150.3276  137.9342  155.4227 C   0  0  0  0  0  0  0  0  0  0  0  0
  151.5663  137.3465  154.7121 C   0  0  0  0  0  0  0  0  0  0  0  0
  152.5839  138.4438  154.3617 C   0  0  0  0  0  0  0  0  0  0  0  0
  152.9680  139.1438  155.5384 O   0  0  0  0  0  0  0  0  0  0  0  0
  151.8768  139.8111  156.1598 C   0  0  0  0  0  0  0  0  0  0  0  0
  150.8186  138.7899  156.6082 C   0  0  0  0  0  0  0  0  0  0  0  0
  147.9869  131.8959  153.5003 C   0  0  0  0  0  0  0  0  0  0  0  0
  149.1229  131.4492  154.3683 C   0  0  0  0  0  0  0  0  0  0  0  0
  145.9960  127.8824  152.0915 H   0  0  0  0  0  0  0  0  0  0  0  0
  146.1054  129.2652  151.0066 H   0  0  0  0  0  0  0  0  0  0  0  0
  145.0155  129.3147  152.3920 H   0  0  0  0  0  0  0  0  0  0  0  0
  147.0033  129.2122  153.9473 H   0  0  0  0  0  0  0  0  0  0  0  0
  148.0868  129.1922  152.5799 H   0  0  0  0  0  0  0  0  0  0  0  0
  145.8298  134.9534  151.8447 H   0  0  0  0  0  0  0  0  0  0  0  0
  144.4630  133.8818  152.1296 H   0  0  0  0  0  0  0  0  0  0  0  0
  145.3820  133.7615  150.6307 H   0  0  0  0  0  0  0  0  0  0  0  0
  148.4023  134.9755  152.7088 H   0  0  0  0  0  0  0  0  0  0  0  0
  149.0364  136.5008  153.7826 H   0  0  0  0  0  0  0  0  0  0  0  0
  149.8301  136.1672  156.5436 H   0  0  0  0  0  0  0  0  0  0  0  0
  148.3293  137.8696  157.5151 H   0  0  0  0  0  0  0  0  0  0  0  0
  147.3612  136.6039  156.7942 H   0  0  0  0  0  0  0  0  0  0  0  0
  147.5597  138.1372  155.9511 H   0  0  0  0  0  0  0  0  0  0  0  0
  149.8253  138.5994  154.7180 H   0  0  0  0  0  0  0  0  0  0  0  0
  152.0430  136.6055  155.3553 H   0  0  0  0  0  0  0  0  0  0  0  0
  151.2803  136.8252  153.7983 H   0  0  0  0  0  0  0  0  0  0  0  0
  153.4722  137.9998  153.9123 H   0  0  0  0  0  0  0  0  0  0  0  0
  152.1706  139.1386  153.6288 H   0  0  0  0  0  0  0  0  0  0  0  0
  152.2497  140.3651  157.0214 H   0  0  0  0  0  0  0  0  0  0  0  0
  151.4455  140.5427  155.4745 H   0  0  0  0  0  0  0  0  0  0  0  0
  149.9894  139.3260  157.0687 H   0  0  0  0  0  0  0  0  0  0  0  0
  151.2422  138.1453  157.3794 H   0  0  0  0  0  0  0  0  0  0  0  0
  149.3903  132.2212  155.0894 H   0  0  0  0  0  0  0  0  0  0  0  0
  150.0042  131.2276  153.7663 H   0  0  0  0  0  0  0  0  0  0  0  0
  148.8686  130.5564  154.9381 H   0  0  0  0  0  0  0  0  0  0  0  0
  1  2  1  0  0  0  0
  1 22  1  0  0  0  0
  1 23  1  0  0  0  0
  1 24  1  0  0  0  0
  2  3  1  0  0  0  0
  2 25  1  0  0  0  0
  2 26  1  0  0  0  0
  3 20  1  0  0  0  0
  3  4  1  0  0  0  0
  4  5  2  0  0  0  0
  5  6  1  0  0  0  0
  5  7  1  0  0  0  0
  6 27  1  0  0  0  0
  6 28  1  0  0  0  0
  6 29  1  0  0  0  0
  7  8  1  0  0  0  0
  7 20  2  0  0  0  0
  8  9  1  0  0  0  0
  8 30  1  0  0  0  0
  9 10  2  0  0  0  0
  9 11  1  0  0  0  0
 11 12  1  0  0  0  0
 11 31  1  0  0  0  0
 12 13  1  0  0  0  0
 12 14  1  0  0  0  0
 12 32  1  0  0  0  0
 13 33  1  0  0  0  0
 13 34  1  0  0  0  0
 13 35  1  0  0  0  0
 14 19  1  0  0  0  0
 14 15  1  0  0  0  0
 14 36  1  0  0  0  0
 15 16  1  0  0  0  0
 15 37  1  0  0  0  0
 15 38  1  0  0  0  0
 16 17  1  0  0  0  0
 16 39  1  0  0  0  0
 16 40  1  0  0  0  0
 17 18  1  0  0  0  0
 18 19  1  0  0  0  0
 18 41  1  0  0  0  0
 18 42  1  0  0  0  0
 19 43  1  0  0  0  0
 19 44  1  0  0  0  0
 20 21  1  0  0  0  0
 21 45  1  0  0  0  0
 21 46  1  0  0  0  0
 21 47  1  0  0  0  0
M  END
> <s_m_source_file>
AV-unprocessed.smi

> <i_m_source_file_index>
2516

> <i_lp_mmshare_version>
43012

> <i_f3d_flags>
0

> <s_epik_input>
W0NIM11bQ0gyXW4xbmMoW0NIM10pYyhjMVtDSDNdKVtOSF1DKD1PKVtOSF1bQ0BIXShbQ0gzXSlbQ0hdMltDSDJdW0NIMl1PW0NIMl1bQ0gyXTI=

> <s_epik_cmdline>
J2VwaWtfcHl0aG9uJywgJy1waCcsICc3LjAnLCAnLXRuJywgJzgnLCAnLW1hJywgJzIwMCcsICctbWV0YWxfYmluZGluZycsICctaW1hZScsICc8aW5maWxlLm1hZT4nLCAnLW9tYWUnLCAnPG91dGZpbGUubWFlPic=

> <r_lp_tautomer_probability>
1

> <r_epik_Ionization_Penalty>
0.00383358

> <r_epik_Ionization_Penalty_Charging>
0

> <r_epik_Ionization_Penalty_Neutral>
0.00383358

> <r_epik_State_Penalty>
0.00270714

> <r_epik_Charging_Adjusted_Penalty>
0.00270714

> <i_epik_Tot_Q>
0

> <i_epik_Tot_abs_Q>
0

> <r_epik_Metal_State_Penalty>
-0

> <b_epik_Metal_Only>
0

> <s_lp_Force_Field>
OPLS_2005

> <r_lp_Energy>
15.1794

> <b_lp_Chiralities_Consistent>
1

> <s_lp_Variant>
AV-unprocessed.smi:2516-1

> <Gold.Version>
5.8.1

> <Gold.Id.Protein>
6NUR|6NUR_protein|mol2

> <Gold.PLP.Fitness>
38.3930

> <Gold.PLP.PLP>
-30.7329

> <Gold.PLP.part.hbond>
-2.9397

> <Gold.PLP.part.metal>
0.0000

> <Gold.PLP.part.buried>
-3.5578

> <Gold.PLP.part.nonpolar>
-24.0531

> <Gold.PLP.part.repulsive>
0.1736

> <Gold.PLP.ligand.clash>
0.0000

> <Gold.PLP.ligand.torsion>
0.7148

> <Gold.PLP.Chemscore.Hbond>
2.8960

> <Gold.PLP.Chemscore.CHOScore>
0.0000

> <Gold.PLP.Chemscore.Metal>
0.0000

> <Gold.Chemscore.Hbonds>
donor molecule, donor type, donor heavy atom, donor atom, acceptor molecule, acceptor atom, score
      L1  H     8    30       P1  7948  1.00
      L1  H    11    31       P1  7948  0.90
      P1  H  7997  8008       L1    17  1.00

> <Gold.PLP.Chemscore.Internal.Correction>
0.4018

> <Gold.Rescore>
     Score         DG    S(hbond)    S(metal)    S(lipo)     H(rot)  DE(clash)    DE(int)     intcor
     18.66     -19.47       2.67        0.00      71.89       1.30       0.00       0.81       ----

> <Gold.Chemscore.Fitness>
18.6595

> <Gold.Chemscore.DG>
-19.4722

> <Gold.Chemscore.ZeroCoef>
-5.4800

> <Gold.Chemscore.Hbond>
2.6665

> <Gold.Chemscore.Metal>
0.0000

> <Gold.Chemscore.Lipo>
71.8931

> <Gold.Chemscore.Internal_Hbond>
0.0000

> <Gold.Chemscore.DEClash>
0.0000

> <Gold.Chemscore.DEInternal>
0.8127

> <Gold.Chemscore.Rot>
1.2990

> <Gold.Chemscore.Internal.Correction>
   9.000000E+99

> <Gold.Chemscore.Hbonds>
donor molecule, donor type, donor heavy atom, donor atom, acceptor molecule, acceptor atom, score
      L1  H     8    30       P1  7948  0.59
      L1  H    11    31       P1  7948  0.87
      P1  H  7997  8008       L1    17  0.35

> <Gold.Chemscore.Hbond.Weighted>
-8.9062

> <Gold.Chemscore.Metal.Weighted>
-0.0000

> <Gold.Chemscore.Lipo.Weighted>
-8.4115

> <Gold.Chemscore.Internal_Hbond.Weighted>
0.0000

> <Gold.Chemscore.DEClash.Weighted>
0.0000

> <Gold.Chemscore.DEInternal.Weighted>
0.8127

> <Gold.Chemscore.Rot.Weighted>
3.3254

> <Gold.Chemscore.Internal.Correction.Weighted>
   9.000000E+99

> <Gold.Protein.RotatedTorsions>
[ 6907 6896 6895 6894 ] final   49.46 input  -60.11 | X-H torsion
[ 7974 7965 7964 7962 ] final  -90.37 input  175.53 | X-H torsion
[ 8008 7997 7996 7995 ] final  -26.45 input   59.86 | X-H torsion
[ 10167 10162 10161 10158 ] final -135.52 input  -65.29 | X-H torsion
[ 10718 10713 10712 10709 ] final  -91.68 input   66.30 | X-H torsion
[ 10763 10752 10751 10750 ] final -165.02 input  -60.55 | X-H torsion
[ 11005 11000 10999 10996 ] final   74.26 input  -57.11 | X-H torsion

> <Gold.Protein.ActiveResidues>
 VAL166  LYS551  ARG553  GLY616  TRP617  ASP618  TYR619  PRO620  LYS621  CYS622 
 ASP623  PHE694  ASN695  SER759  ASP760  ASP761  ALA762  ILE779  LEU786  VAL792 
 PHE793  MET794  SER795  GLU796  ALA797  LYS798  CYS799  TRP800  GLU811  SER814 

> <Gold.Protein.RotatedAtoms>
  152.2910  134.7721  160.0377 H   0  0  0  0  0  0  0  0  0  0  0  0  # atno 6907 bound_to 6896
  151.8268  133.3397  159.3609 H   0  0  0  0  0  0  0  0  0  0  0  0  # atno 6908 bound_to 6896
  150.7230  134.5450  159.5810 H   0  0  0  0  0  0  0  0  0  0  0  0  # atno 6909 bound_to 6896
  145.4274  140.9554  143.2147 H   0  0  0  0  0  0  0  0  0  0  0  0  # atno 7974 bound_to 7965
  154.4424  140.1899  156.0778 H   0  0  0  0  0  0  0  0  0  0  0  0  # atno 8008 bound_to 7997
  156.0462  140.3314  155.7273 H   0  0  0  0  0  0  0  0  0  0  0  0  # atno 8009 bound_to 7997
  155.5626  140.0605  157.2816 H   0  0  0  0  0  0  0  0  0  0  0  0  # atno 8010 bound_to 7997
  139.8770  143.6886  152.2632 H   0  0  0  0  0  0  0  0  0  0  0  0  # atno 10167 bound_to 10162
  155.9995  130.4957  150.5510 H   0  0  0  0  0  0  0  0  0  0  0  0  # atno 10718 bound_to 10713
  154.6972  135.2981  154.9394 H   0  0  0  0  0  0  0  0  0  0  0  0  # atno 10763 bound_to 10752
  154.0338  135.6666  153.4787 H   0  0  0  0  0  0  0  0  0  0  0  0  # atno 10764 bound_to 10752
  153.0654  135.5091  154.8096 H   0  0  0  0  0  0  0  0  0  0  0  0  # atno 10765 bound_to 10752
  139.9400  134.7417  156.1126 H   0  0  0  0  0  0  0  0  0  0  0  0  # atno 11005 bound_to 11000
  144.8205  139.5800  143.6989 LP  0  0  0  0  0  0  0  0  0  0  0  0  # atno 17320 bound_to 7965
  146.2625  139.6443  142.9352 LP  0  0  0  0  0  0  0  0  0  0  0  0  # atno 17321 bound_to 7965
  139.7231  144.7598  151.0923 LP  0  0  0  0  0  0  0  0  0  0  0  0  # atno 17342 bound_to 10162
  140.7751  143.5183  150.9568 LP  0  0  0  0  0  0  0  0  0  0  0  0  # atno 17343 bound_to 10162
  157.3433  131.0720  151.1771 LP  0  0  0  0  0  0  0  0  0  0  0  0  # atno 17370 bound_to 10713
  157.2611  130.6659  149.5975 LP  0  0  0  0  0  0  0  0  0  0  0  0  # atno 17371 bound_to 10713
  141.1030  133.6670  156.2798 LP  0  0  0  0  0  0  0  0  0  0  0  0  # atno 17394 bound_to 11000
  140.5977  134.5586  157.5512 LP  0  0  0  0  0  0  0  0  0  0  0  0  # atno 17395 bound_to 11000

$$$$
