AV-unprocessed.smi:371|AV-procd|sdf|2442|dock3
  -GOLD-   2262022383D 1   1.00000     0.00000
 Structure written by MMmdl.
 39 40  0  0  0  0  0  0  0  0  1 V2000
  151.6964  137.2622  154.9245 C   0  0  0  0  0  0  0  0  0  0  0  0
  151.3272  138.4856  155.7545 C   0  0  0  0  0  0  0  0  0  0  0  0
  150.6113  139.5571  155.1019 C   0  0  0  0  0  0  0  0  0  0  0  0
  150.3432  140.7052  155.7449 C   0  0  0  0  0  0  0  0  0  0  0  0
  149.5819  141.8281  155.0497 C   0  0  0  0  0  0  0  0  0  0  0  0
  150.7288  140.8797  157.1025 N   0  0  0  0  0  0  0  0  0  0  0  0
  150.5152  142.1962  157.7550 C   0  0  0  0  0  0  0  0  0  0  0  0
  151.8397  142.8891  158.1659 C   0  0  1  0  0  0  0  0  0  0  0  0
  151.9730  144.0720  157.4031 O   0  0  0  0  0  0  0  0  0  0  0  0
  151.9500  143.1489  159.6654 C   0  0  0  0  0  0  0  0  0  0  0  0
  152.3808  142.1225  160.5358 C   0  0  0  0  0  0  0  0  0  0  0  0
  152.5198  142.3693  161.9152 C   0  0  0  0  0  0  0  0  0  0  0  0
  152.2297  143.6446  162.4351 C   0  0  0  0  0  0  0  0  0  0  0  0
  151.7994  144.6724  161.5750 C   0  0  0  0  0  0  0  0  0  0  0  0
  151.6590  144.4278  160.1950 C   0  0  0  0  0  0  0  0  0  0  0  0
  151.2614  145.4347  159.3804 F   0  0  0  0  0  0  0  0  0  0  0  0
  151.2991  139.8638  157.8286 C   0  0  0  0  0  0  0  0  0  0  0  0
  151.4891  139.9919  159.0424 O   0  0  0  0  0  0  0  0  0  0  0  0
  151.6674  138.6431  157.0618 C   0  0  0  0  0  0  0  0  0  0  0  0
  152.4125  137.6032  157.7977 C   0  0  0  0  0  0  0  0  0  0  0  0
  153.0450  138.0303  158.9000 N   0  0  0  0  0  0  0  0  0  0  0  0
  152.5442  136.4377  157.4275 O   0  0  0  0  0  0  0  0  0  0  0  0
  151.4869  137.4258  153.8670 H   0  0  0  0  0  0  0  0  0  0  0  0
  151.1204  136.3942  155.2456 H   0  0  0  0  0  0  0  0  0  0  0  0
  152.7585  137.0321  155.0143 H   0  0  0  0  0  0  0  0  0  0  0  0
  150.2932  139.4337  154.0767 H   0  0  0  0  0  0  0  0  0  0  0  0
  149.4314  141.5976  153.9947 H   0  0  0  0  0  0  0  0  0  0  0  0
  150.1169  142.7754  155.0912 H   0  0  0  0  0  0  0  0  0  0  0  0
  148.5949  141.9561  155.4950 H   0  0  0  0  0  0  0  0  0  0  0  0
  149.9344  142.8592  157.1159 H   0  0  0  0  0  0  0  0  0  0  0  0
  149.8772  142.1056  158.6357 H   0  0  0  0  0  0  0  0  0  0  0  0
  152.6782  142.2588  157.8731 H   0  0  0  0  0  0  0  0  0  0  0  0
  152.7770  144.0205  156.9089 H   0  0  0  0  0  0  0  0  0  0  0  0
  152.6202  141.1439  160.1461 H   0  0  0  0  0  0  0  0  0  0  0  0
  152.8543  141.5807  162.5732 H   0  0  0  0  0  0  0  0  0  0  0  0
  152.3391  143.8351  163.4925 H   0  0  0  0  0  0  0  0  0  0  0  0
  151.5810  145.6522  161.9734 H   0  0  0  0  0  0  0  0  0  0  0  0
  153.5891  137.3837  159.4531 H   0  0  0  0  0  0  0  0  0  0  0  0
  152.9858  139.0026  159.1658 H   0  0  0  0  0  0  0  0  0  0  0  0
  1  2  1  0  0  0  0
  1 23  1  0  0  0  0
  1 24  1  0  0  0  0
  1 25  1  0  0  0  0
  2 19  2  0  0  0  0
  2  3  1  0  0  0  0
  3  4  2  0  0  0  0
  3 26  1  0  0  0  0
  4  5  1  0  0  0  0
  4  6  1  0  0  0  0
  5 27  1  0  0  0  0
  5 28  1  0  0  0  0
  5 29  1  0  0  0  0
  6  7  1  0  0  0  0
  6 17  1  0  0  0  0
  7  8  1  0  0  0  0
  7 30  1  0  0  0  0
  7 31  1  0  0  0  0
  8  9  1  0  0  0  0
  8 10  1  0  0  0  0
  8 32  1  0  0  0  0
  9 33  1  0  0  0  0
 10 15  1  0  0  0  0
 10 11  2  0  0  0  0
 11 12  1  0  0  0  0
 11 34  1  0  0  0  0
 12 13  2  0  0  0  0
 12 35  1  0  0  0  0
 13 14  1  0  0  0  0
 13 36  1  0  0  0  0
 14 15  2  0  0  0  0
 14 37  1  0  0  0  0
 15 16  1  0  0  0  0
 17 18  2  0  0  0  0
 17 19  1  0  0  0  0
 19 20  1  0  0  0  0
 20 21  1  0  0  0  0
 20 22  2  0  0  0  0
 21 38  1  0  0  0  0
 21 39  1  0  0  0  0
M  END
> <s_m_source_file>
AV-unprocessed.smi

> <i_m_source_file_index>
371

> <i_lp_mmshare_version>
43012

> <i_f3d_flags>
0

> <s_epik_input>
W0NIM11jMVtjSF1jKFtDSDNdKW4oYyg9TyljMUMoPU8pW05IMl0pW0NIMl1bQ0BIXShbT0hdKWMyW2NIXVtjSF1bY0hdW2NIXWMyRg==

> <s_epik_cmdline>
J2VwaWtfcHl0aG9uJywgJy1waCcsICc3LjAnLCAnLXRuJywgJzgnLCAnLW1hJywgJzIwMCcsICctbWV0YWxfYmluZGluZycsICctaW1hZScsICc8aW5maWxlLm1hZT4nLCAnLW9tYWUnLCAnPG91dGZpbGUubWFlPic=

> <r_lp_tautomer_probability>
1

> <r_epik_Ionization_Penalty>
3.46512e-07

> <r_epik_Ionization_Penalty_Charging>
1.35363e-07

> <r_epik_Ionization_Penalty_Neutral>
2.11149e-07

> <r_epik_State_Penalty>
-0

> <r_epik_Charging_Adjusted_Penalty>
1.35363e-07

> <i_epik_Tot_Q>
0

> <i_epik_Tot_abs_Q>
0

> <r_epik_Metal_State_Penalty>
-0

> <b_epik_Metal_Only>
0

> <s_lp_Force_Field>
OPLS_2005

> <r_lp_Energy>
37.7279

> <b_lp_Chiralities_Consistent>
1

> <s_lp_Variant>
AV-unprocessed.smi:371-2

> <Gold.Version>
5.8.1

> <Gold.Id.Protein>
6NUR|6NUR_protein|mol2

> <Gold.PLP.Fitness>
48.9328

> <Gold.PLP.PLP>
-49.1948

> <Gold.PLP.part.hbond>
-1.1939

> <Gold.PLP.part.metal>
0.0000

> <Gold.PLP.part.buried>
-2.0506

> <Gold.PLP.part.nonpolar>
-45.7991

> <Gold.PLP.part.repulsive>
0.1172

> <Gold.PLP.ligand.clash>
0.0303

> <Gold.PLP.ligand.torsion>
1.5671

> <Gold.PLP.Chemscore.Hbond>
0.8320

> <Gold.PLP.Chemscore.CHOScore>
0.0000

> <Gold.PLP.Chemscore.Metal>
0.0000

> <Gold.PLP.Chemscore.Internal.Correction>
0.4066

> <Gold.Rescore>
     Score         DG    S(hbond)    S(metal)    S(lipo)     H(rot)  DE(clash)    DE(int)     intcor
      9.37     -17.97       0.87        0.00     126.68       2.04       1.27       7.33       ----

> <Gold.Chemscore.Fitness>
9.3679

> <Gold.Chemscore.DG>
-17.9699

> <Gold.Chemscore.ZeroCoef>
-5.4800

> <Gold.Chemscore.Hbond>
0.8650

> <Gold.Chemscore.Metal>
0.0000

> <Gold.Chemscore.Lipo>
126.6833

> <Gold.Chemscore.Internal_Hbond>
0.0000

> <Gold.Chemscore.DEClash>
1.2723

> <Gold.Chemscore.DEInternal>
7.3297

> <Gold.Chemscore.Rot>
2.0396

> <Gold.Chemscore.Internal.Correction>
   9.000000E+99

> <Gold.Chemscore.Hbond.Weighted>
-2.8893

> <Gold.Chemscore.Metal.Weighted>
-0.0000

> <Gold.Chemscore.Lipo.Weighted>
-14.8219

> <Gold.Chemscore.Internal_Hbond.Weighted>
0.0000

> <Gold.Chemscore.DEClash.Weighted>
1.2723

> <Gold.Chemscore.DEInternal.Weighted>
7.3297

> <Gold.Chemscore.Rot.Weighted>
5.2214

> <Gold.Chemscore.Internal.Correction.Weighted>
   9.000000E+99

> <Gold.Protein.RotatedTorsions>
[ 6907 6896 6895 6894 ] final  -60.99 input  -60.11 | X-H torsion
[ 7974 7965 7964 7962 ] final  -96.51 input  175.53 | X-H torsion
[ 8008 7997 7996 7995 ] final   23.16 input   59.86 | X-H torsion
[ 10167 10162 10161 10158 ] final  109.69 input  -65.29 | X-H torsion
[ 10718 10713 10712 10709 ] final  -55.51 input   66.30 | X-H torsion
[ 10763 10752 10751 10750 ] final -139.99 input  -60.55 | X-H torsion
[ 11005 11000 10999 10996 ] final -132.11 input  -57.11 | X-H torsion

> <Gold.Protein.ActiveResidues>
 VAL166  LYS551  ARG553  GLY616  TRP617  ASP618  TYR619  PRO620  LYS621  CYS622 
 ASP623  PHE694  ASN695  SER759  ASP760  ASP761  ALA762  ILE779  LEU786  VAL792 
 PHE793  MET794  SER795  GLU796  ALA797  LYS798  CYS799  TRP800  GLU811  SER814 

> <Gold.Protein.RotatedAtoms>
  150.7816  134.6764  159.6419 H   0  0  0  0  0  0  0  0  0  0  0  0  # atno 6907 bound_to 6896
  152.3902  134.6450  160.0119 H   0  0  0  0  0  0  0  0  0  0  0  0  # atno 6908 bound_to 6896
  151.6753  133.3276  159.3242 H   0  0  0  0  0  0  0  0  0  0  0  0  # atno 6909 bound_to 6896
  145.3459  140.9468  143.2582 H   0  0  0  0  0  0  0  0  0  0  0  0  # atno 7974 bound_to 7965
  154.9768  140.3097  155.4964 H   0  0  0  0  0  0  0  0  0  0  0  0  # atno 8008 bound_to 7997
  156.2959  140.2274  156.4803 H   0  0  0  0  0  0  0  0  0  0  0  0  # atno 8009 bound_to 7997
  154.7826  140.0445  157.1127 H   0  0  0  0  0  0  0  0  0  0  0  0  # atno 8010 bound_to 7997
  139.6747  144.7123  151.1624 H   0  0  0  0  0  0  0  0  0  0  0  0  # atno 10167 bound_to 10162
  156.1363  130.4156  150.0180 H   0  0  0  0  0  0  0  0  0  0  0  0  # atno 10718 bound_to 10713
  154.8592  135.3566  154.5635 H   0  0  0  0  0  0  0  0  0  0  0  0  # atno 10763 bound_to 10752
  153.6249  135.7004  153.5301 H   0  0  0  0  0  0  0  0  0  0  0  0  # atno 10764 bound_to 10752
  153.3097  135.4182  155.1285 H   0  0  0  0  0  0  0  0  0  0  0  0  # atno 10765 bound_to 10752
  140.9199  134.1457  157.4322 H   0  0  0  0  0  0  0  0  0  0  0  0  # atno 11005 bound_to 11000
  144.8755  139.4977  143.6748 LP  0  0  0  0  0  0  0  0  0  0  0  0  # atno 17320 bound_to 7965
  146.2988  139.7362  142.9106 LP  0  0  0  0  0  0  0  0  0  0  0  0  # atno 17321 bound_to 7965
  140.7631  143.5790  150.8914 LP  0  0  0  0  0  0  0  0  0  0  0  0  # atno 17342 bound_to 10162
  139.9458  143.6329  152.3042 LP  0  0  0  0  0  0  0  0  0  0  0  0  # atno 17343 bound_to 10162
  156.8078  130.9314  151.3645 LP  0  0  0  0  0  0  0  0  0  0  0  0  # atno 17370 bound_to 10713
  157.6535  130.8904  149.9681 LP  0  0  0  0  0  0  0  0  0  0  0  0  # atno 17371 bound_to 10713
  139.8773  134.9967  156.5811 LP  0  0  0  0  0  0  0  0  0  0  0  0  # atno 17394 bound_to 11000
  140.8001  133.8512  155.8719 LP  0  0  0  0  0  0  0  0  0  0  0  0  # atno 17395 bound_to 11000

$$$$
