AV-unprocessed.smi:760|AV-procd|sdf|3627|dock7
  -GOLD-   22720 1 23D 1   1.00000     0.00000
 Structure written by MMmdl.
 44 45  0  0  0  0  0  0  0  0  2 V2000
  152.6375  144.7115  157.9919 C   0  0  0  0  0  0  0  0  0  0  0  0
  152.1263  143.9809  158.9965 C   0  0  0  0  0  0  0  0  0  0  0  0
  153.0133  143.2425  159.9834 C   0  0  0  0  0  0  0  0  0  0  0  0
  150.6261  143.8760  159.2253 C   0  0  0  0  0  0  0  0  0  0  0  0
  149.9168  143.1816  158.1184 N   0  3  2  0  0  0  0  0  0  0  0  0
  148.6967  142.4875  158.6068 C   0  0  0  0  0  0  0  0  0  0  0  0
  147.8822  141.8945  157.4458 C   0  0  0  0  0  0  0  0  0  0  0  0
  148.7368  140.9328  156.6072 C   0  0  1  0  0  0  0  0  0  0  0  0
  147.9623  140.4438  155.4702 N   0  0  0  0  0  0  0  0  0  0  0  0
  147.6900  139.1552  155.2188 C   0  0  0  0  0  0  0  0  0  0  0  0
  148.0700  138.2280  155.9338 O   0  0  0  0  0  0  0  0  0  0  0  0
  146.9642  139.0200  154.0974 N   0  0  0  0  0  0  0  0  0  0  0  0
  146.4882  137.8145  153.5239 C   0  0  0  0  0  0  0  0  0  0  0  0
  146.7758  136.4675  153.8848 C   0  0  0  0  0  0  0  0  0  0  0  0
  146.1269  135.6175  153.1030 N   0  0  0  0  0  0  0  0  0  0  0  0
  145.4256  136.3948  152.2427 N   0  0  0  0  0  0  0  0  0  0  0  0
  144.5934  135.7682  151.2381 C   0  0  0  0  0  0  0  0  0  0  0  0
  145.6222  137.7415  152.4745 C   0  0  0  0  0  0  0  0  0  0  0  0
  150.0057  141.6626  156.1329 C   0  0  0  0  0  0  0  0  0  0  0  0
  150.7788  142.2744  157.3136 C   0  0  0  0  0  0  0  0  0  0  0  0
  153.7045  144.7917  157.8416 H   0  0  0  0  0  0  0  0  0  0  0  0
  151.9960  145.2421  157.3033 H   0  0  0  0  0  0  0  0  0  0  0  0
  152.8923  143.6657  160.9808 H   0  0  0  0  0  0  0  0  0  0  0  0
  154.0656  143.3258  159.7096 H   0  0  0  0  0  0  0  0  0  0  0  0
  152.7630  142.1840  160.0356 H   0  0  0  0  0  0  0  0  0  0  0  0
  150.4213  143.3851  160.1781 H   0  0  0  0  0  0  0  0  0  0  0  0
  150.2370  144.8918  159.3121 H   0  0  0  0  0  0  0  0  0  0  0  0
  148.9812  141.6995  159.3062 H   0  0  0  0  0  0  0  0  0  0  0  0
  148.0698  143.1887  159.1591 H   0  0  0  0  0  0  0  0  0  0  0  0
  147.0083  141.3730  157.8386 H   0  0  0  0  0  0  0  0  0  0  0  0
  147.5043  142.7031  156.8180 H   0  0  0  0  0  0  0  0  0  0  0  0
  149.0225  140.0878  157.2373 H   0  0  0  0  0  0  0  0  0  0  0  0
  147.6074  141.1368  154.8277 H   0  0  0  0  0  0  0  0  0  0  0  0
  146.7293  139.8663  153.5997 H   0  0  0  0  0  0  0  0  0  0  0  0
  147.4122  136.0777  154.6650 H   0  0  0  0  0  0  0  0  0  0  0  0
  144.2470  136.5136  150.5215 H   0  0  0  0  0  0  0  0  0  0  0  0
  143.7292  135.3043  151.7142 H   0  0  0  0  0  0  0  0  0  0  0  0
  145.1629  135.0049  150.7065 H   0  0  0  0  0  0  0  0  0  0  0  0
  145.1409  138.5095  151.8869 H   0  0  0  0  0  0  0  0  0  0  0  0
  150.6553  140.9759  155.5889 H   0  0  0  0  0  0  0  0  0  0  0  0
  149.7373  142.4528  155.4300 H   0  0  0  0  0  0  0  0  0  0  0  0
  151.6272  142.8236  156.9082 H   0  0  0  0  0  0  0  0  0  0  0  0
  151.1801  141.4865  157.9530 H   0  0  0  0  0  0  0  0  0  0  0  0
  149.5982  143.9058  157.4906 H   0  0  0  0  0  0  0  0  0  0  0  0
  1  2  2  0  0  0  0
  1 21  1  0  0  0  0
  1 22  1  0  0  0  0
  2  3  1  0  0  0  0
  2  4  1  0  0  0  0
  3 23  1  0  0  0  0
  3 24  1  0  0  0  0
  3 25  1  0  0  0  0
  4  5  1  0  0  0  0
  4 26  1  0  0  0  0
  4 27  1  0  0  0  0
  5 20  1  0  0  0  0
  5  6  1  0  0  0  0
  5 44  1  0  0  0  0
  6  7  1  0  0  0  0
  6 28  1  0  0  0  0
  6 29  1  0  0  0  0
  7  8  1  0  0  0  0
  7 30  1  0  0  0  0
  7 31  1  0  0  0  0
  8  9  1  0  0  0  0
  8 19  1  0  0  0  0
  8 32  1  0  0  0  0
  9 10  1  0  0  0  0
  9 33  1  0  0  0  0
 10 11  2  0  0  0  0
 10 12  1  0  0  0  0
 12 13  1  0  0  0  0
 12 34  1  0  0  0  0
 13 18  2  0  0  0  0
 13 14  1  0  0  0  0
 14 15  2  0  0  0  0
 14 35  1  0  0  0  0
 15 16  1  0  0  0  0
 16 17  1  0  0  0  0
 16 18  1  0  0  0  0
 17 36  1  0  0  0  0
 17 37  1  0  0  0  0
 17 38  1  0  0  0  0
 18 39  1  0  0  0  0
 19 20  1  0  0  0  0
 19 40  1  0  0  0  0
 19 41  1  0  0  0  0
 20 42  1  0  0  0  0
 20 43  1  0  0  0  0
M  CHG  1   5   1
M  END
> <s_m_source_file>
AV-unprocessed.smi

> <i_m_source_file_index>
760

> <i_lp_mmshare_version>
43012

> <i_f3d_flags>
0

> <s_epik_input>
W0NIMl09QyhbQ0gzXSlbQ0gyXU4xW0NIMl1bQ0gyXVtDSF0oW0NIMl1bQ0gyXTEpW05IXUMoPU8pW05IXWMyW2NIXW5uKFtDSDNdKVtjSF0y

> <s_epik_cmdline>
J2VwaWtfcHl0aG9uJywgJy1waCcsICc3LjAnLCAnLXRuJywgJzgnLCAnLW1hJywgJzIwMCcsICctbWV0YWxfYmluZGluZycsICctaW1hZScsICc8aW5maWxlLm1hZT4nLCAnLW9tYWUnLCAnPG91dGZpbGUubWFlPic=

> <r_lp_tautomer_probability>
1

> <r_epik_Ionization_Penalty>
0.0194996

> <r_epik_Ionization_Penalty_Charging>
0.0193505

> <r_epik_Ionization_Penalty_Neutral>
0.000149098

> <r_epik_State_Penalty>
0.0154499

> <r_epik_Charging_Adjusted_Penalty>
0.0348004

> <i_epik_Tot_Q>
1

> <i_epik_Tot_abs_Q>
1

> <r_epik_Metal_State_Penalty>
0.0154507

> <b_epik_Metal_Only>
0

> <s_lp_Force_Field>
OPLS_2005

> <r_lp_Energy>
20.4425

> <b_lp_Chiralities_Consistent>
1

> <s_lp_Variant>
AV-unprocessed.smi:760-1

> <Gold.Version>
5.8.1

> <Gold.Id.Protein>
6NUR|6NUR_protein|mol2

> <Gold.PLP.Fitness>
41.3433

> <Gold.PLP.PLP>
-30.3239

> <Gold.PLP.part.hbond>
-1.0000

> <Gold.PLP.part.metal>
0.0000

> <Gold.PLP.part.buried>
-3.5678

> <Gold.PLP.part.nonpolar>
-26.7865

> <Gold.PLP.part.repulsive>
0.1445

> <Gold.PLP.ligand.clash>
0.0154

> <Gold.PLP.ligand.torsion>
0.4713

> <Gold.PLP.Chemscore.Hbond>
2.0000

> <Gold.PLP.Chemscore.CHOScore>
1.9845

> <Gold.PLP.Chemscore.Metal>
0.0000

> <Gold.Chemscore.Hbonds>
donor molecule, donor type, donor heavy atom, donor atom, acceptor molecule, acceptor atom, score
      L1  H     5    44       P1  8028  1.62
      L1  C    18    39       P1 10171  1.00
      L1  C    18    39       P1 10175  1.00

> <Gold.PLP.Chemscore.Internal.Correction>
0.0239

> <Gold.Rescore>
     Score         DG    S(hbond)    S(metal)    S(lipo)     H(rot)  DE(clash)    DE(int)     intcor
     13.39     -15.22       0.78        0.00      91.02       1.38       0.07       1.76       ----

> <Gold.Chemscore.Fitness>
13.3917

> <Gold.Chemscore.DG>
-15.2173

> <Gold.Chemscore.ZeroCoef>
-5.4800

> <Gold.Chemscore.Hbond>
0.7810

> <Gold.Chemscore.Metal>
0.0000

> <Gold.Chemscore.Lipo>
91.0193

> <Gold.Chemscore.Internal_Hbond>
0.0000

> <Gold.Chemscore.DEClash>
0.0653

> <Gold.Chemscore.DEInternal>
1.7603

> <Gold.Chemscore.Rot>
1.3752

> <Gold.Chemscore.Internal.Correction>
   9.000000E+99

> <Gold.Chemscore.Hbonds>
donor molecule, donor type, donor heavy atom, donor atom, acceptor molecule, acceptor atom, score
      L1  H     5    44       P1  8028  0.36

> <Gold.Chemscore.Hbond.Weighted>
-2.6084

> <Gold.Chemscore.Metal.Weighted>
-0.0000

> <Gold.Chemscore.Lipo.Weighted>
-10.6493

> <Gold.Chemscore.Internal_Hbond.Weighted>
0.0000

> <Gold.Chemscore.DEClash.Weighted>
0.0653

> <Gold.Chemscore.DEInternal.Weighted>
1.7603

> <Gold.Chemscore.Rot.Weighted>
3.5204

> <Gold.Chemscore.Internal.Correction.Weighted>
   9.000000E+99

> <Gold.Protein.RotatedTorsions>
[ 6907 6896 6895 6894 ] final  -72.21 input  -60.11 | X-H torsion
[ 7974 7965 7964 7962 ] final  106.00 input  175.53 | X-H torsion
[ 8008 7997 7996 7995 ] final  -39.09 input   59.86 | X-H torsion
[ 10167 10162 10161 10158 ] final   63.39 input  -65.29 | X-H torsion
[ 10718 10713 10712 10709 ] final  115.17 input   66.30 | X-H torsion
[ 10763 10752 10751 10750 ] final  -67.82 input  -60.55 | X-H torsion
[ 11005 11000 10999 10996 ] final   63.09 input  -57.11 | X-H torsion

> <Gold.Protein.ActiveResidues>
 VAL166  LYS551  ARG553  GLY616  TRP617  ASP618  TYR619  PRO620  LYS621  CYS622 
 ASP623  PHE694  ASN695  SER759  ASP760  ASP761  ALA762  ILE779  LEU786  VAL792 
 PHE793  MET794  SER795  GLU796  ALA797  LYS798  CYS799  TRP800  GLU811  SER814 

> <Gold.Protein.RotatedAtoms>
  150.7179  134.5196  159.5646 H   0  0  0  0  0  0  0  0  0  0  0  0  # atno 6907 bound_to 6896
  152.2754  134.7884  160.0415 H   0  0  0  0  0  0  0  0  0  0  0  0  # atno 6908 bound_to 6896
  151.8550  133.3411  159.3722 H   0  0  0  0  0  0  0  0  0  0  0  0  # atno 6909 bound_to 6896
  145.3123  139.2536  143.3756 H   0  0  0  0  0  0  0  0  0  0  0  0  # atno 7974 bound_to 7965
  154.4027  140.1560  156.2806 H   0  0  0  0  0  0  0  0  0  0  0  0  # atno 8008 bound_to 7997
  155.8872  140.3440  155.5908 H   0  0  0  0  0  0  0  0  0  0  0  0  # atno 8009 bound_to 7997
  155.7599  140.0816  157.2151 H   0  0  0  0  0  0  0  0  0  0  0  0  # atno 8010 bound_to 7997
  140.1336  144.4620  150.6850 H   0  0  0  0  0  0  0  0  0  0  0  0  # atno 10167 bound_to 10162
  157.6238  131.1009  150.7291 H   0  0  0  0  0  0  0  0  0  0  0  0  # atno 10718 bound_to 10713
  154.3801  135.6076  153.5786 H   0  0  0  0  0  0  0  0  0  0  0  0  # atno 10763 bound_to 10752
  152.9788  135.5858  154.4420 H   0  0  0  0  0  0  0  0  0  0  0  0  # atno 10764 bound_to 10752
  154.4188  135.2845  155.1967 H   0  0  0  0  0  0  0  0  0  0  0  0  # atno 10765 bound_to 10752
  140.0048  134.6386  155.9872 H   0  0  0  0  0  0  0  0  0  0  0  0  # atno 11005 bound_to 11000
  146.3113  140.3662  142.8669 LP  0  0  0  0  0  0  0  0  0  0  0  0  # atno 17320 bound_to 7965
  144.9006  140.7637  143.5869 LP  0  0  0  0  0  0  0  0  0  0  0  0  # atno 17321 bound_to 7965
  140.6802  143.2323  151.5403 LP  0  0  0  0  0  0  0  0  0  0  0  0  # atno 17342 bound_to 10162
  139.5507  144.2403  152.1525 LP  0  0  0  0  0  0  0  0  0  0  0  0  # atno 17343 bound_to 10162
  156.7643  130.4808  149.5430 LP  0  0  0  0  0  0  0  0  0  0  0  0  # atno 17370 bound_to 10713
  156.1398  130.6236  151.0451 LP  0  0  0  0  0  0  0  0  0  0  0  0  # atno 17371 bound_to 10713
  141.1669  133.6537  156.4511 LP  0  0  0  0  0  0  0  0  0  0  0  0  # atno 17394 bound_to 11000
  140.4661  134.6796  157.5108 LP  0  0  0  0  0  0  0  0  0  0  0  0  # atno 17395 bound_to 11000

$$$$
