AV-unprocessed.smi:2215|AV-procd|sdf|8963|dock4
  -GOLD-   2272012183D 1   1.00000     0.00000
 Structure written by MMmdl.
 40 41  0  0  0  0  0  0  0  0  1 V2000
  151.0611  142.4356  156.8020 C   0  0  0  0  0  0  0  0  0  0  0  0
  150.3640  141.4465  155.8917 C   0  0  0  0  0  0  0  0  0  0  0  0
  149.1203  141.7496  155.3066 C   0  0  0  0  0  0  0  0  0  0  0  0
  148.5181  140.7980  154.4615 C   0  0  0  0  0  0  0  0  0  0  0  0
  149.1724  139.5691  154.2191 C   0  0  0  0  0  0  0  0  0  0  0  0
  148.4863  138.6855  153.3440 N   0  0  0  0  0  0  0  0  0  0  0  0
  147.1596  138.5196  153.2013 C   0  0  0  0  0  0  0  0  0  0  0  0
  146.2922  139.1622  153.7938 O   0  0  0  0  0  0  0  0  0  0  0  0
  146.8851  137.5514  152.3154 N   0  0  0  0  0  0  0  0  0  0  0  0
  145.5438  137.1207  151.9331 C   0  0  0  0  0  0  0  0  0  0  0  0
  145.4767  135.6154  151.5786 C   0  0  1  0  0  0  0  0  0  0  0  0
  145.2245  134.7518  152.8373 C   0  0  0  0  0  0  0  0  0  0  0  0
  145.1121  133.2562  152.5045 C   0  0  0  0  0  0  0  0  0  0  0  0
  144.0165  133.0031  151.4608 C   0  0  0  0  0  0  0  0  0  0  0  0
  144.2757  133.8271  150.1928 C   0  0  0  0  0  0  0  0  0  0  0  0
  144.3912  135.3296  150.5108 C   0  0  2  0  0  0  0  0  0  0  0  0
  144.6988  135.9997  149.3046 O   0  0  0  0  0  0  0  0  0  0  0  0
  150.3705  139.2859  154.7888 N   0  0  0  0  0  0  0  0  0  0  0  0
  150.9467  140.1982  155.5993 C   0  0  0  0  0  0  0  0  0  0  0  0
  150.3459  143.1282  157.2470 H   0  0  0  0  0  0  0  0  0  0  0  0
  151.7936  143.0128  156.2377 H   0  0  0  0  0  0  0  0  0  0  0  0
  151.5787  141.9174  157.6098 H   0  0  0  0  0  0  0  0  0  0  0  0
  148.6340  142.6950  155.4979 H   0  0  0  0  0  0  0  0  0  0  0  0
  147.5646  141.0157  154.0030 H   0  0  0  0  0  0  0  0  0  0  0  0
  149.0752  138.0952  152.7754 H   0  0  0  0  0  0  0  0  0  0  0  0
  147.6584  137.0759  151.8740 H   0  0  0  0  0  0  0  0  0  0  0  0
  144.8728  137.3358  152.7652 H   0  0  0  0  0  0  0  0  0  0  0  0
  145.1974  137.7331  151.0992 H   0  0  0  0  0  0  0  0  0  0  0  0
  146.4408  135.3193  151.1611 H   0  0  0  0  0  0  0  0  0  0  0  0
  146.0273  134.8903  153.5620 H   0  0  0  0  0  0  0  0  0  0  0  0
  144.3077  135.0806  153.3284 H   0  0  0  0  0  0  0  0  0  0  0  0
  146.0691  132.8914  152.1285 H   0  0  0  0  0  0  0  0  0  0  0  0
  144.8993  132.6892  153.4111 H   0  0  0  0  0  0  0  0  0  0  0  0
  143.9742  131.9419  151.2135 H   0  0  0  0  0  0  0  0  0  0  0  0
  143.0428  133.2644  151.8774 H   0  0  0  0  0  0  0  0  0  0  0  0
  145.1945  133.4772  149.7194 H   0  0  0  0  0  0  0  0  0  0  0  0
  143.4736  133.6566  149.4737 H   0  0  0  0  0  0  0  0  0  0  0  0
  143.4268  135.6958  150.8654 H   0  0  0  0  0  0  0  0  0  0  0  0
  144.5476  136.9245  149.4265 H   0  0  0  0  0  0  0  0  0  0  0  0
  151.9015  139.9234  156.0231 H   0  0  0  0  0  0  0  0  0  0  0  0
  1  2  1  0  0  0  0
  1 20  1  0  0  0  0
  1 21  1  0  0  0  0
  1 22  1  0  0  0  0
  2 19  1  0  0  0  0
  2  3  2  0  0  0  0
  3  4  1  0  0  0  0
  3 23  1  0  0  0  0
  4  5  2  0  0  0  0
  4 24  1  0  0  0  0
  5  6  1  0  0  0  0
  5 18  1  0  0  0  0
  6  7  1  0  0  0  0
  6 25  1  0  0  0  0
  7  8  2  0  0  0  0
  7  9  1  0  0  0  0
  9 10  1  0  0  0  0
  9 26  1  0  0  0  0
 10 11  1  0  0  0  0
 10 27  1  0  0  0  0
 10 28  1  0  0  0  0
 11 16  1  0  0  0  0
 11 12  1  0  0  0  0
 11 29  1  0  0  0  0
 12 13  1  0  0  0  0
 12 30  1  0  0  0  0
 12 31  1  0  0  0  0
 13 14  1  0  0  0  0
 13 32  1  0  0  0  0
 13 33  1  0  0  0  0
 14 15  1  0  0  0  0
 14 34  1  0  0  0  0
 14 35  1  0  0  0  0
 15 16  1  0  0  0  0
 15 36  1  0  0  0  0
 15 37  1  0  0  0  0
 16 17  1  0  0  0  0
 16 38  1  0  0  0  0
 17 39  1  0  0  0  0
 18 19  2  0  0  0  0
 19 40  1  0  0  0  0
M  END
> <s_m_source_file>
AV-unprocessed.smi

> <i_m_source_file_index>
2215

> <i_lp_mmshare_version>
43012

> <i_f3d_flags>
0

> <s_epik_input>
W0NIM11jMVtjSF1bY0hdYyhuW2NIXTEpW05IXUMoPU8pW05IXVtDSDJdW0NAQEhdMltDSDJdW0NIMl1bQ0gyXVtDSDJdW0NASF0yW09IXQ==

> <s_epik_cmdline>
J2VwaWtfcHl0aG9uJywgJy1waCcsICc3LjAnLCAnLXRuJywgJzgnLCAnLW1hJywgJzIwMCcsICctbWV0YWxfYmluZGluZycsICctaW1hZScsICc8aW5maWxlLm1hZT4nLCAnLW9tYWUnLCAnPG91dGZpbGUubWFlPic=

> <r_lp_tautomer_probability>
1

> <r_epik_Ionization_Penalty>
6.08491e-05

> <r_epik_Ionization_Penalty_Charging>
0

> <r_epik_Ionization_Penalty_Neutral>
6.08491e-05

> <r_epik_State_Penalty>
-0

> <r_epik_Charging_Adjusted_Penalty>
0

> <i_epik_Tot_Q>
0

> <i_epik_Tot_abs_Q>
0

> <r_epik_Metal_State_Penalty>
-0

> <b_epik_Metal_Only>
0

> <s_lp_Force_Field>
OPLS_2005

> <r_lp_Energy>
14.1492

> <b_lp_Chiralities_Consistent>
1

> <s_lp_Variant>
AV-unprocessed.smi:2215-4

> <Gold.Version>
5.8.1

> <Gold.Id.Protein>
6NUR|6NUR_protein|mol2

> <Gold.PLP.Fitness>
41.6337

> <Gold.PLP.PLP>
-34.9470

> <Gold.PLP.part.hbond>
-4.6179

> <Gold.PLP.part.metal>
0.0000

> <Gold.PLP.part.buried>
-2.4450

> <Gold.PLP.part.nonpolar>
-29.3746

> <Gold.PLP.part.repulsive>
0.3997

> <Gold.PLP.ligand.clash>
0.0000

> <Gold.PLP.ligand.torsion>
0.7677

> <Gold.PLP.Chemscore.Hbond>
2.7394

> <Gold.PLP.Chemscore.CHOScore>
0.0000

> <Gold.PLP.Chemscore.Metal>
0.0000

> <Gold.Chemscore.Hbonds>
donor molecule, donor type, donor heavy atom, donor atom, acceptor molecule, acceptor atom, score
      L1  H     6    25       P1  7948  0.75
      L1  H     9    26       P1  7948  0.98
      L1  H    17    39       P1 10171  1.00

> <Gold.PLP.Chemscore.Internal.Correction>
0.0038

> <Gold.Rescore>
     Score         DG    S(hbond)    S(metal)    S(lipo)     H(rot)  DE(clash)    DE(int)     intcor
     16.50     -18.77       2.69        0.00      74.66       1.73       0.18       2.09       ----

> <Gold.Chemscore.Fitness>
16.5047

> <Gold.Chemscore.DG>
-18.7727

> <Gold.Chemscore.ZeroCoef>
-5.4800

> <Gold.Chemscore.Hbond>
2.6933

> <Gold.Chemscore.Metal>
0.0000

> <Gold.Chemscore.Lipo>
74.6644

> <Gold.Chemscore.Internal_Hbond>
0.0000

> <Gold.Chemscore.DEClash>
0.1762

> <Gold.Chemscore.DEInternal>
2.0918

> <Gold.Chemscore.Rot>
1.7339

> <Gold.Chemscore.Internal.Correction>
   9.000000E+99

> <Gold.Chemscore.Hbonds>
donor molecule, donor type, donor heavy atom, donor atom, acceptor molecule, acceptor atom, score
      L1  H     6    25       P1  7948  0.70
      L1  H     9    26       P1  7948  0.91
      L1  H    17    39       P1 10171  1.00

> <Gold.Chemscore.Hbond.Weighted>
-8.9957

> <Gold.Chemscore.Metal.Weighted>
-0.0000

> <Gold.Chemscore.Lipo.Weighted>
-8.7357

> <Gold.Chemscore.Internal_Hbond.Weighted>
0.0000

> <Gold.Chemscore.DEClash.Weighted>
0.1762

> <Gold.Chemscore.DEInternal.Weighted>
2.0918

> <Gold.Chemscore.Rot.Weighted>
4.4387

> <Gold.Chemscore.Internal.Correction.Weighted>
   9.000000E+99

> <Gold.Protein.RotatedTorsions>
[ 6907 6896 6895 6894 ] final  -67.99 input  -60.11 | X-H torsion
[ 7974 7965 7964 7962 ] final  108.39 input  175.53 | X-H torsion
[ 8008 7997 7996 7995 ] final  -13.26 input   59.86 | X-H torsion
[ 10167 10162 10161 10158 ] final  -86.11 input  -65.29 | X-H torsion
[ 10718 10713 10712 10709 ] final -171.95 input   66.30 | X-H torsion
[ 10763 10752 10751 10750 ] final   -7.53 input  -60.55 | X-H torsion
[ 11005 11000 10999 10996 ] final -176.37 input  -57.11 | X-H torsion

> <Gold.Protein.ActiveResidues>
 VAL166  LYS551  ARG553  GLY616  TRP617  ASP618  TYR619  PRO620  LYS621  CYS622 
 ASP623  PHE694  ASN695  SER759  ASP760  ASP761  ALA762  ILE779  LEU786  VAL792 
 PHE793  MET794  SER795  GLU796  ALA797  LYS798  CYS799  TRP800  GLU811  SER814 

> <Gold.Protein.RotatedAtoms>
  150.7380  134.5803  159.5934 H   0  0  0  0  0  0  0  0  0  0  0  0  # atno 6907 bound_to 6896
  152.3218  134.7367  160.0321 H   0  0  0  0  0  0  0  0  0  0  0  0  # atno 6908 bound_to 6896
  151.7880  133.3320  159.3527 H   0  0  0  0  0  0  0  0  0  0  0  0  # atno 6909 bound_to 6896
  145.2813  139.2632  143.3914 H   0  0  0  0  0  0  0  0  0  0  0  0  # atno 7974 bound_to 7965
  154.5307  140.2254  155.8810 H   0  0  0  0  0  0  0  0  0  0  0  0  # atno 8008 bound_to 7997
  156.1761  140.3111  155.9025 H   0  0  0  0  0  0  0  0  0  0  0  0  # atno 8009 bound_to 7997
  155.3457  140.0453  157.3036 H   0  0  0  0  0  0  0  0  0  0  0  0  # atno 8010 bound_to 7997
  140.3973  143.2678  151.9188 H   0  0  0  0  0  0  0  0  0  0  0  0  # atno 10167 bound_to 10162
  156.7484  130.9369  151.3113 H   0  0  0  0  0  0  0  0  0  0  0  0  # atno 10718 bound_to 10713
  153.4277  135.7011  153.6251 H   0  0  0  0  0  0  0  0  0  0  0  0  # atno 10763 bound_to 10752
  153.4679  135.3721  155.2375 H   0  0  0  0  0  0  0  0  0  0  0  0  # atno 10764 bound_to 10752
  154.8724  135.4036  154.3656 H   0  0  0  0  0  0  0  0  0  0  0  0  # atno 10765 bound_to 10752
  140.4528  134.6327  157.4809 H   0  0  0  0  0  0  0  0  0  0  0  0  # atno 11005 bound_to 11000
  146.3215  140.3281  142.8638 LP  0  0  0  0  0  0  0  0  0  0  0  0  # atno 17320 bound_to 7965
  144.9251  140.7912  143.5724 LP  0  0  0  0  0  0  0  0  0  0  0  0  # atno 17321 bound_to 7965
  139.4786  144.5668  151.8151 LP  0  0  0  0  0  0  0  0  0  0  0  0  # atno 17342 bound_to 10162
  140.4777  144.1495  150.5927 LP  0  0  0  0  0  0  0  0  0  0  0  0  # atno 17343 bound_to 10162
  157.6788  130.9120  150.0215 LP  0  0  0  0  0  0  0  0  0  0  0  0  # atno 17370 bound_to 10713
  156.1417  130.3642  149.9571 LP  0  0  0  0  0  0  0  0  0  0  0  0  # atno 17371 bound_to 10713
  139.9995  134.6858  155.9553 LP  0  0  0  0  0  0  0  0  0  0  0  0  # atno 17394 bound_to 11000
  141.1656  133.6537  156.4469 LP  0  0  0  0  0  0  0  0  0  0  0  0  # atno 17395 bound_to 11000

$$$$
