AV-unprocessed.smi:2502|AV-procd|sdf|9846|dock8
  -GOLD-   2272013473D 1   1.00000     0.00000
 Structure written by MMmdl.
 39 41  0  0  0  0  0  0  0  0  1 V2000
  149.9867  140.5168  153.9170 O   0  0  0  0  0  0  0  0  0  0  0  0
  150.1130  140.3750  155.3192 C   0  0  1  0  0  0  0  0  0  0  0  0
  149.0062  139.4318  155.8162 C   0  0  0  0  0  0  0  0  0  0  0  0
  149.3652  138.9392  157.0992 O   0  0  0  0  0  0  0  0  0  0  0  0
  148.4159  138.0553  157.6814 C   0  0  0  0  0  0  0  0  0  0  0  0
  147.0524  138.7399  157.8808 C   0  0  0  0  0  0  0  0  0  0  0  0
  146.1095  137.8343  158.6901 C   0  0  0  0  0  0  0  0  0  0  0  0
  146.7064  137.4958  159.9379 O   0  0  0  0  0  0  0  0  0  0  0  0
  147.9198  136.7646  159.7942 C   0  0  0  0  0  0  0  0  0  0  0  0
  148.9588  137.6164  159.0475 C   0  0  0  0  0  0  0  0  0  0  0  0
  151.5190  139.8319  155.6423 C   0  0  0  0  0  0  0  0  0  0  0  0
  151.8126  139.8525  157.0648 N   0  0  0  0  0  0  0  0  0  0  0  0
  152.0324  138.6764  157.7181 N   0  0  0  0  0  0  0  0  0  0  0  0
  152.2711  138.9336  158.9693 N   0  0  0  0  0  0  0  0  0  0  0  0
  152.2071  140.3059  159.1445 C   0  0  0  0  0  0  0  0  0  0  0  0
  152.3822  141.1189  160.2864 C   0  0  0  0  0  0  0  0  0  0  0  0
  152.2575  142.5222  160.1899 C   0  0  0  0  0  0  0  0  0  0  0  0
  152.4780  143.4823  161.6094 Cl  0  0  0  0  0  0  0  0  0  0  0  0
  151.9553  143.1289  158.9466 C   0  0  0  0  0  0  0  0  0  0  0  0
  151.7972  144.8440  158.8116 Cl  0  0  0  0  0  0  0  0  0  0  0  0
  151.7791  142.3302  157.7990 C   0  0  0  0  0  0  0  0  0  0  0  0
  151.9083  140.9357  157.9168 C   0  0  0  0  0  0  0  0  0  0  0  0
  149.3068  139.9338  153.6154 H   0  0  0  0  0  0  0  0  0  0  0  0
  149.9932  141.3533  155.7869 H   0  0  0  0  0  0  0  0  0  0  0  0
  148.0394  139.9361  155.8238 H   0  0  0  0  0  0  0  0  0  0  0  0
  148.9204  138.5816  155.1377 H   0  0  0  0  0  0  0  0  0  0  0  0
  148.2981  137.1681  157.0563 H   0  0  0  0  0  0  0  0  0  0  0  0
  147.1886  139.6848  158.4081 H   0  0  0  0  0  0  0  0  0  0  0  0
  146.5923  138.9794  156.9225 H   0  0  0  0  0  0  0  0  0  0  0  0
  145.1674  138.3489  158.8795 H   0  0  0  0  0  0  0  0  0  0  0  0
  145.8693  136.9274  158.1329 H   0  0  0  0  0  0  0  0  0  0  0  0
  148.2922  136.5028  160.7848 H   0  0  0  0  0  0  0  0  0  0  0  0
  147.7323  135.8281  159.2669 H   0  0  0  0  0  0  0  0  0  0  0  0
  149.8851  137.0551  158.9219 H   0  0  0  0  0  0  0  0  0  0  0  0
  149.2038  138.4945  159.6466 H   0  0  0  0  0  0  0  0  0  0  0  0
  151.6172  138.8045  155.2884 H   0  0  0  0  0  0  0  0  0  0  0  0
  152.2814  140.4123  155.1207 H   0  0  0  0  0  0  0  0  0  0  0  0
  152.6118  140.6621  161.2380 H   0  0  0  0  0  0  0  0  0  0  0  0
  151.5469  142.7806  156.8452 H   0  0  0  0  0  0  0  0  0  0  0  0
  1  2  1  0  0  0  0
  1 23  1  0  0  0  0
  2  3  1  0  0  0  0
  2 11  1  0  0  0  0
  2 24  1  0  0  0  0
  3  4  1  0  0  0  0
  3 25  1  0  0  0  0
  3 26  1  0  0  0  0
  4  5  1  0  0  0  0
  5 10  1  0  0  0  0
  5  6  1  0  0  0  0
  5 27  1  0  0  0  0
  6  7  1  0  0  0  0
  6 28  1  0  0  0  0
  6 29  1  0  0  0  0
  7  8  1  0  0  0  0
  7 30  1  0  0  0  0
  7 31  1  0  0  0  0
  8  9  1  0  0  0  0
  9 10  1  0  0  0  0
  9 32  1  0  0  0  0
  9 33  1  0  0  0  0
 10 34  1  0  0  0  0
 10 35  1  0  0  0  0
 11 12  1  0  0  0  0
 11 36  1  0  0  0  0
 11 37  1  0  0  0  0
 12 22  1  0  0  0  0
 12 13  1  0  0  0  0
 13 14  2  0  0  0  0
 14 15  1  0  0  0  0
 15 22  2  0  0  0  0
 15 16  1  0  0  0  0
 16 17  2  0  0  0  0
 16 38  1  0  0  0  0
 17 18  1  0  0  0  0
 17 19  1  0  0  0  0
 19 20  1  0  0  0  0
 19 21  2  0  0  0  0
 21 22  1  0  0  0  0
 21 39  1  0  0  0  0
M  END
> <s_m_source_file>
AV-unprocessed.smi

> <i_m_source_file_index>
2502

> <i_lp_mmshare_version>
43012

> <i_f3d_flags>
0

> <s_epik_input>
W2NIXTFjKENsKWMoQ2wpW2NIXWMoYzEyKW4obm4yKVtDSDJdW0NASF0oW09IXSlbQ0gyXU9bQ0hdM1tDSDJdW0NIMl1PW0NIMl1bQ0gyXTM=

> <s_epik_cmdline>
J2VwaWtfcHl0aG9uJywgJy1waCcsICc3LjAnLCAnLXRuJywgJzgnLCAnLW1hJywgJzIwMCcsICctbWV0YWxfYmluZGluZycsICctaW1hZScsICc8aW5maWxlLm1hZT4nLCAnLW9tYWUnLCAnPG91dGZpbGUubWFlPic=

> <r_lp_tautomer_probability>
1

> <r_epik_Ionization_Penalty>
2.65748e-06

> <r_epik_Ionization_Penalty_Charging>
0

> <r_epik_Ionization_Penalty_Neutral>
2.65748e-06

> <r_epik_State_Penalty>
-0

> <r_epik_Charging_Adjusted_Penalty>
0

> <i_epik_Tot_Q>
0

> <i_epik_Tot_abs_Q>
0

> <r_epik_Metal_State_Penalty>
-0

> <b_epik_Metal_Only>
0

> <s_lp_Force_Field>
OPLS_2005

> <r_lp_Energy>
14.648

> <b_lp_Chiralities_Consistent>
1

> <s_lp_Variant>
AV-unprocessed.smi:2502-2

> <Gold.Version>
5.8.1

> <Gold.Id.Protein>
6NUR|6NUR_protein|mol2

> <Gold.PLP.Fitness>
43.8301

> <Gold.PLP.PLP>
-39.0478

> <Gold.PLP.part.hbond>
-3.0000

> <Gold.PLP.part.metal>
0.0000

> <Gold.PLP.part.buried>
-5.2778

> <Gold.PLP.part.nonpolar>
-31.0347

> <Gold.PLP.part.repulsive>
0.0000

> <Gold.PLP.ligand.clash>
0.0000

> <Gold.PLP.ligand.torsion>
0.2216

> <Gold.PLP.Chemscore.Hbond>
1.7360

> <Gold.PLP.Chemscore.CHOScore>
0.0000

> <Gold.PLP.Chemscore.Metal>
0.0000

> <Gold.Chemscore.Hbonds>
donor molecule, donor type, donor heavy atom, donor atom, acceptor molecule, acceptor atom, score
      P1  H  6934  6947       L1     8  1.00
      P1  H  7989  7998       L1     1  0.67

> <Gold.PLP.Chemscore.Internal.Correction>
0.0175

> <Gold.Rescore>
     Score         DG    S(hbond)    S(metal)    S(lipo)     H(rot)  DE(clash)    DE(int)     intcor
     11.51     -14.75       0.82        0.00     104.10       2.21       0.01       3.23       ----

> <Gold.Chemscore.Fitness>
11.5120

> <Gold.Chemscore.DG>
-14.7532

> <Gold.Chemscore.ZeroCoef>
-5.4800

> <Gold.Chemscore.Hbond>
0.8211

> <Gold.Chemscore.Metal>
0.0000

> <Gold.Chemscore.Lipo>
104.0963

> <Gold.Chemscore.Internal_Hbond>
0.0000

> <Gold.Chemscore.DEClash>
0.0093

> <Gold.Chemscore.DEInternal>
3.2320

> <Gold.Chemscore.Rot>
2.2065

> <Gold.Chemscore.Internal.Correction>
   9.000000E+99

> <Gold.Chemscore.Hbonds>
donor molecule, donor type, donor heavy atom, donor atom, acceptor molecule, acceptor atom, score
      P1  H  6934  6947       L1     8  0.39
      P1  H  7989  7998       L1     1  0.20
      P1  H  8011  8017       L1     1  0.01

> <Gold.Chemscore.Hbond.Weighted>
-2.7425

> <Gold.Chemscore.Metal.Weighted>
-0.0000

> <Gold.Chemscore.Lipo.Weighted>
-12.1793

> <Gold.Chemscore.Internal_Hbond.Weighted>
0.0000

> <Gold.Chemscore.DEClash.Weighted>
0.0093

> <Gold.Chemscore.DEInternal.Weighted>
3.2320

> <Gold.Chemscore.Rot.Weighted>
5.6485

> <Gold.Chemscore.Internal.Correction.Weighted>
   9.000000E+99

> <Gold.Protein.RotatedTorsions>
[ 6907 6896 6895 6894 ] final   23.28 input  -60.11 | X-H torsion
[ 7974 7965 7964 7962 ] final   40.96 input  175.53 | X-H torsion
[ 8008 7997 7996 7995 ] final   32.25 input   59.86 | X-H torsion
[ 10167 10162 10161 10158 ] final   58.54 input  -65.29 | X-H torsion
[ 10718 10713 10712 10709 ] final -125.62 input   66.30 | X-H torsion
[ 10763 10752 10751 10750 ] final -108.94 input  -60.55 | X-H torsion
[ 11005 11000 10999 10996 ] final  -83.61 input  -57.11 | X-H torsion

> <Gold.Protein.ActiveResidues>
 VAL166  LYS551  ARG553  GLY616  TRP617  ASP618  TYR619  PRO620  LYS621  CYS622 
 ASP623  PHE694  ASN695  SER759  ASP760  ASP761  ALA762  ILE779  LEU786  VAL792 
 PHE793  MET794  SER795  GLU796  ALA797  LYS798  CYS799  TRP800  GLU811  SER814 

> <Gold.Protein.RotatedAtoms>
  151.9399  135.0218  160.0534 H   0  0  0  0  0  0  0  0  0  0  0  0  # atno 6907 bound_to 6896
  152.2045  133.4861  159.5085 H   0  0  0  0  0  0  0  0  0  0  0  0  # atno 6908 bound_to 6896
  150.6962  134.1464  159.4167 H   0  0  0  0  0  0  0  0  0  0  0  0  # atno 6909 bound_to 6896
  146.0862  139.5471  142.9505 H   0  0  0  0  0  0  0  0  0  0  0  0  # atno 7974 bound_to 7965
  155.1195  140.3247  155.4501 H   0  0  0  0  0  0  0  0  0  0  0  0  # atno 8008 bound_to 7997
  156.2667  140.2030  156.6266 H   0  0  0  0  0  0  0  0  0  0  0  0  # atno 8009 bound_to 7997
  154.6694  140.0538  157.0136 H   0  0  0  0  0  0  0  0  0  0  0  0  # atno 8010 bound_to 7997
  140.1861  144.4133  150.6592 H   0  0  0  0  0  0  0  0  0  0  0  0  # atno 10167 bound_to 10162
  156.1691  130.6655  151.0156 H   0  0  0  0  0  0  0  0  0  0  0  0  # atno 10718 bound_to 10713
  154.8165  135.4619  154.0657 H   0  0  0  0  0  0  0  0  0  0  0  0  # atno 10763 bound_to 10752
  153.2046  135.6873  153.8195 H   0  0  0  0  0  0  0  0  0  0  0  0  # atno 10764 bound_to 10752
  153.7668  135.3276  155.3323 H   0  0  0  0  0  0  0  0  0  0  0  0  # atno 10765 bound_to 10752
  141.1656  133.7303  156.8746 H   0  0  0  0  0  0  0  0  0  0  0  0  # atno 11005 bound_to 11000
  145.6125  141.0337  143.1959 LP  0  0  0  0  0  0  0  0  0  0  0  0  # atno 17320 bound_to 7965
  144.7327  139.7676  143.7341 LP  0  0  0  0  0  0  0  0  0  0  0  0  # atno 17321 bound_to 7965
  140.6487  143.2219  151.6127 LP  0  0  0  0  0  0  0  0  0  0  0  0  # atno 17342 bound_to 10162
  139.5275  144.3014  152.1070 LP  0  0  0  0  0  0  0  0  0  0  0  0  # atno 17343 bound_to 10162
  157.6790  131.0843  150.7420 LP  0  0  0  0  0  0  0  0  0  0  0  0  # atno 17370 bound_to 10713
  156.7480  130.4759  149.5463 LP  0  0  0  0  0  0  0  0  0  0  0  0  # atno 17371 bound_to 10713
  140.1758  134.9068  157.2888 LP  0  0  0  0  0  0  0  0  0  0  0  0  # atno 17394 bound_to 11000
  140.2451  134.3749  155.7465 LP  0  0  0  0  0  0  0  0  0  0  0  0  # atno 17395 bound_to 11000

$$$$
