AV-unprocessed.smi:395|AV-procd|sdf|2486|dock4
  -GOLD-   2262022423D 1   1.00000     0.00000
 Structure written by MMmdl.
 34 35  0  0  0  0  0  0  0  0  1 V2000
  149.6422  133.5442  154.5921 C   0  0  0  0  0  0  0  0  0  0  0  0
  150.2823  134.7093  154.7925 C   0  0  0  0  0  0  0  0  0  0  0  0
  149.6931  135.9855  155.3780 C   0  0  0  0  0  0  0  0  0  0  0  0
  150.6003  137.1298  155.3475 N   0  0  0  0  0  0  0  0  0  0  0  0
  151.7940  137.1856  155.9576 C   0  0  0  0  0  0  0  0  0  0  0  0
  152.2721  136.2438  156.5914 O   0  0  0  0  0  0  0  0  0  0  0  0
  152.5566  138.5122  155.8255 C   0  0  0  0  0  0  0  0  0  0  0  0
  151.7337  139.6874  156.1858 N   0  0  0  0  0  0  0  0  0  0  0  0
  150.7457  140.1398  155.2742 C   0  0  0  0  0  0  0  0  0  0  0  0
  150.5449  139.5518  154.2102 O   0  0  0  0  0  0  0  0  0  0  0  0
  150.0162  141.3383  155.6819 C   0  0  0  0  0  0  0  0  0  0  0  0
  149.0377  141.8441  154.7771 C   0  0  0  0  0  0  0  0  0  0  0  0
  148.2257  142.2417  154.0544 N   0  0  0  0  0  0  0  0  0  0  0  0
  150.2705  141.9392  156.8626 C   0  0  0  0  0  0  0  0  0  0  0  0
  151.2081  141.4607  157.7515 N   0  0  0  0  0  0  0  0  0  0  0  0
  151.5759  142.2045  158.9232 C   0  0  0  0  0  0  0  0  0  0  0  0
  152.0292  143.6466  158.8051 C   0  0  0  0  0  0  0  0  0  0  0  0
  153.0296  142.5660  159.1363 C   0  0  0  0  0  0  0  0  0  0  0  0
  152.0036  140.3451  157.4108 C   0  0  0  0  0  0  0  0  0  0  0  0
  152.9141  139.9602  158.1493 O   0  0  0  0  0  0  0  0  0  0  0  0
  148.6009  133.4083  154.8444 H   0  0  0  0  0  0  0  0  0  0  0  0
  150.1629  132.6994  154.1664 H   0  0  0  0  0  0  0  0  0  0  0  0
  151.3243  134.7719  154.5145 H   0  0  0  0  0  0  0  0  0  0  0  0
  148.7654  136.2214  154.8544 H   0  0  0  0  0  0  0  0  0  0  0  0
  149.4221  135.7927  156.4159 H   0  0  0  0  0  0  0  0  0  0  0  0
  150.2858  137.9471  154.8447 H   0  0  0  0  0  0  0  0  0  0  0  0
  153.4592  138.4469  156.4341 H   0  0  0  0  0  0  0  0  0  0  0  0
  152.9316  138.6148  154.8053 H   0  0  0  0  0  0  0  0  0  0  0  0
  149.7161  142.8285  157.1263 H   0  0  0  0  0  0  0  0  0  0  0  0
  151.0139  141.9585  159.8226 H   0  0  0  0  0  0  0  0  0  0  0  0
  152.0870  144.0893  157.8124 H   0  0  0  0  0  0  0  0  0  0  0  0
  151.7412  144.3283  159.6025 H   0  0  0  0  0  0  0  0  0  0  0  0
  153.4110  142.5290  160.1546 H   0  0  0  0  0  0  0  0  0  0  0  0
  153.7444  142.2951  158.3615 H   0  0  0  0  0  0  0  0  0  0  0  0
  1  2  2  0  0  0  0
  1 21  1  0  0  0  0
  1 22  1  0  0  0  0
  2  3  1  0  0  0  0
  2 23  1  0  0  0  0
  3  4  1  0  0  0  0
  3 24  1  0  0  0  0
  3 25  1  0  0  0  0
  4  5  1  0  0  0  0
  4 26  1  0  0  0  0
  5  6  2  0  0  0  0
  5  7  1  0  0  0  0
  7  8  1  0  0  0  0
  7 27  1  0  0  0  0
  7 28  1  0  0  0  0
  8 19  1  0  0  0  0
  8  9  1  0  0  0  0
  9 10  2  0  0  0  0
  9 11  1  0  0  0  0
 11 12  1  0  0  0  0
 11 14  2  0  0  0  0
 12 13  3  0  0  0  0
 14 15  1  0  0  0  0
 14 29  1  0  0  0  0
 15 16  1  0  0  0  0
 15 19  1  0  0  0  0
 16 18  1  0  0  0  0
 16 17  1  0  0  0  0
 16 30  1  0  0  0  0
 17 18  1  0  0  0  0
 17 31  1  0  0  0  0
 17 32  1  0  0  0  0
 18 33  1  0  0  0  0
 18 34  1  0  0  0  0
 19 20  2  0  0  0  0
M  END
> <s_m_source_file>
AV-unprocessed.smi

> <i_m_source_file_index>
395

> <i_lp_mmshare_version>
43012

> <i_f3d_flags>
0

> <s_epik_input>
W0NIMl09W0NIXVtDSDJdW05IXUMoPU8pW0NIMl1uMWMoPU8pYyhDI04pW2NIXW4oYzE9TylbQ0hdMltDSDJdW0NIMl0y

> <s_epik_cmdline>
J2VwaWtfcHl0aG9uJywgJy1waCcsICc3LjAnLCAnLXRuJywgJzgnLCAnLW1hJywgJzIwMCcsICctbWV0YWxfYmluZGluZycsICctaW1hZScsICc8aW5maWxlLm1hZT4nLCAnLW9tYWUnLCAnPG91dGZpbGUubWFlPic=

> <r_lp_tautomer_probability>
1

> <r_epik_Ionization_Penalty>
1.93471e-08

> <r_epik_Ionization_Penalty_Charging>
8.01404e-11

> <r_epik_Ionization_Penalty_Neutral>
1.9267e-08

> <r_epik_State_Penalty>
-0

> <r_epik_Charging_Adjusted_Penalty>
8.01404e-11

> <i_epik_Tot_Q>
0

> <i_epik_Tot_abs_Q>
0

> <r_epik_Metal_State_Penalty>
-0

> <b_epik_Metal_Only>
0

> <s_lp_Force_Field>
OPLS_2005

> <r_lp_Energy>
28.6083

> <b_lp_Chiralities_Consistent>
1

> <s_lp_Variant>
AV-unprocessed.smi:395-1

> <Gold.Version>
5.8.1

> <Gold.Id.Protein>
6NUR|6NUR_protein|mol2

> <Gold.PLP.Fitness>
45.7935

> <Gold.PLP.PLP>
-36.6773

> <Gold.PLP.part.hbond>
-4.0000

> <Gold.PLP.part.metal>
0.0000

> <Gold.PLP.part.buried>
-0.5921

> <Gold.PLP.part.nonpolar>
-32.7369

> <Gold.PLP.part.repulsive>
1.1491

> <Gold.PLP.ligand.clash>
0.0000

> <Gold.PLP.ligand.torsion>
0.3923

> <Gold.PLP.Chemscore.Hbond>
2.2239

> <Gold.PLP.Chemscore.CHOScore>
0.9996

> <Gold.PLP.Chemscore.Metal>
0.0000

> <Gold.Chemscore.Hbonds>
donor molecule, donor type, donor heavy atom, donor atom, acceptor molecule, acceptor atom, score
      P1  H  7989  7998       L1    10  0.25
      P1  H  7997  8009       L1    20  0.95
      P1  H  8011  8017       L1    13  0.05
      P1  H 10752 10763       L1     6  1.00
      L1  C    14    29       P1  8028  1.00

> <Gold.PLP.Chemscore.Internal.Correction>
0.2304

> <Gold.Rescore>
     Score         DG    S(hbond)    S(metal)    S(lipo)     H(rot)  DE(clash)    DE(int)     intcor
     10.08     -14.12       1.88        0.00      65.88       2.09       0.13       3.92       ----

> <Gold.Chemscore.Fitness>
10.0754

> <Gold.Chemscore.DG>
-14.1219

> <Gold.Chemscore.ZeroCoef>
-5.4800

> <Gold.Chemscore.Hbond>
1.8805

> <Gold.Chemscore.Metal>
0.0000

> <Gold.Chemscore.Lipo>
65.8814

> <Gold.Chemscore.Internal_Hbond>
0.0000

> <Gold.Chemscore.DEClash>
0.1255

> <Gold.Chemscore.DEInternal>
3.9211

> <Gold.Chemscore.Rot>
2.0886

> <Gold.Chemscore.Internal.Correction>
   9.000000E+99

> <Gold.Chemscore.Hbonds>
donor molecule, donor type, donor heavy atom, donor atom, acceptor molecule, acceptor atom, score
      P1  H  7997  8009       L1    20  0.20
      P1  H 10752 10763       L1     6  0.39

> <Gold.Chemscore.Hbond.Weighted>
-6.2807

> <Gold.Chemscore.Metal.Weighted>
-0.0000

> <Gold.Chemscore.Lipo.Weighted>
-7.7081

> <Gold.Chemscore.Internal_Hbond.Weighted>
0.0000

> <Gold.Chemscore.DEClash.Weighted>
0.1255

> <Gold.Chemscore.DEInternal.Weighted>
3.9211

> <Gold.Chemscore.Rot.Weighted>
5.3469

> <Gold.Chemscore.Internal.Correction.Weighted>
   9.000000E+99

> <Gold.Protein.RotatedTorsions>
[ 6907 6896 6895 6894 ] final   48.26 input  -60.11 | X-H torsion
[ 7974 7965 7964 7962 ] final   55.22 input  175.53 | X-H torsion
[ 8008 7997 7996 7995 ] final  168.13 input   59.86 | X-H torsion
[ 10167 10162 10161 10158 ] final   28.40 input  -65.29 | X-H torsion
[ 10718 10713 10712 10709 ] final  -19.78 input   66.30 | X-H torsion
[ 10763 10752 10751 10750 ] final  113.32 input  -60.55 | X-H torsion
[ 11005 11000 10999 10996 ] final -152.81 input  -57.11 | X-H torsion

> <Gold.Protein.ActiveResidues>
 VAL166  LYS551  ARG553  GLY616  TRP617  ASP618  TYR619  PRO620  LYS621  CYS622 
 ASP623  PHE694  ASN695  SER759  ASP760  ASP761  ALA762  ILE779  LEU786  VAL792 
 PHE793  MET794  SER795  GLU796  ALA797  LYS798  CYS799  TRP800  GLU811  SER814 

> <Gold.Protein.RotatedAtoms>
  152.2775  134.7865  160.0402 H   0  0  0  0  0  0  0  0  0  0  0  0  # atno 6907 bound_to 6896
  151.8456  133.3426  159.3665 H   0  0  0  0  0  0  0  0  0  0  0  0  # atno 6908 bound_to 6896
  150.7176  134.5277  159.5729 H   0  0  0  0  0  0  0  0  0  0  0  0  # atno 6909 bound_to 6896
  145.9527  139.3987  143.0296 H   0  0  0  0  0  0  0  0  0  0  0  0  # atno 7974 bound_to 7965
  156.1574  140.1598  156.8670 H   0  0  0  0  0  0  0  0  0  0  0  0  # atno 8008 bound_to 7997
  154.5127  140.0797  156.8058 H   0  0  0  0  0  0  0  0  0  0  0  0  # atno 8009 bound_to 7997
  155.3776  140.3403  155.4248 H   0  0  0  0  0  0  0  0  0  0  0  0  # atno 8010 bound_to 7997
  140.4856  144.0548  150.6279 H   0  0  0  0  0  0  0  0  0  0  0  0  # atno 10167 bound_to 10162
  156.5409  130.4678  149.6499 H   0  0  0  0  0  0  0  0  0  0  0  0  # atno 10718 bound_to 10713
  153.4908  135.3659  155.2491 H   0  0  0  0  0  0  0  0  0  0  0  0  # atno 10763 bound_to 10752
  154.8752  135.3976  154.3591 H   0  0  0  0  0  0  0  0  0  0  0  0  # atno 10764 bound_to 10752
  153.4210  135.7080  153.6359 H   0  0  0  0  0  0  0  0  0  0  0  0  # atno 10765 bound_to 10752
  140.7149  134.3792  157.5192 H   0  0  0  0  0  0  0  0  0  0  0  0  # atno 11005 bound_to 11000
  145.8149  140.9708  143.0929 LP  0  0  0  0  0  0  0  0  0  0  0  0  # atno 17320 bound_to 7965
  144.6799  139.9967  143.7484 LP  0  0  0  0  0  0  0  0  0  0  0  0  # atno 17321 bound_to 7965
  140.3803  143.2806  152.0178 LP  0  0  0  0  0  0  0  0  0  0  0  0  # atno 17342 bound_to 10162
  139.4841  144.6160  151.7345 LP  0  0  0  0  0  0  0  0  0  0  0  0  # atno 17343 bound_to 10162
  156.2973  130.7157  151.2020 LP  0  0  0  0  0  0  0  0  0  0  0  0  # atno 17370 bound_to 10713
  157.7405  131.0515  150.5159 LP  0  0  0  0  0  0  0  0  0  0  0  0  # atno 17371 bound_to 10713
  139.8862  134.8915  156.2597 LP  0  0  0  0  0  0  0  0  0  0  0  0  # atno 17394 bound_to 11000
  141.0053  133.7127  156.1025 LP  0  0  0  0  0  0  0  0  0  0  0  0  # atno 17395 bound_to 11000

$$$$
