AV-unprocessed.smi:1984|AV-procd|sdf|8040|dock2
  -GOLD-   2272010233D 1   1.00000     0.00000
 Structure written by MMmdl.
 38 39  0  0  0  0  0  0  0  0  1 V2000
  154.0569  141.2152  161.2472 C   0  0  0  0  0  0  0  0  0  0  0  0
  153.2975  142.3530  160.6312 C   0  0  0  0  0  0  0  0  0  0  0  0
  152.7304  143.4861  161.2779 C   0  0  0  0  0  0  0  0  0  0  0  0
  152.1428  144.1935  160.2672 C   0  0  0  0  0  0  0  0  0  0  0  0
  151.3773  145.4751  160.3107 C   0  0  0  0  0  0  0  0  0  0  0  0
  152.3700  143.4886  159.0980 N   0  0  0  0  0  0  0  0  0  0  0  0
  151.9307  143.7860  157.7407 C   0  0  0  0  0  0  0  0  0  0  0  0
  151.0592  142.6577  157.1830 C   0  0  0  0  0  0  0  0  0  0  0  0
  150.5437  142.7682  156.0711 O   0  0  0  0  0  0  0  0  0  0  0  0
  150.9298  141.5649  157.9516 N   0  0  0  0  0  0  0  0  0  0  0  0
  150.3384  140.3041  157.5220 C   0  0  0  0  0  0  0  0  0  0  0  0
  151.1306  139.6850  156.3525 C   0  0  2  0  0  0  0  0  0  0  0  0
  150.4477  138.4359  155.7643 C   0  0  0  0  0  0  0  0  0  0  0  0
  151.4298  137.7552  154.8054 C   0  0  0  0  0  0  0  0  0  0  0  0
  153.0877  138.0036  155.5430 S   0  0  0  0  0  0  0  0  0  0  0  0
  153.4727  136.8009  156.2969 O   0  0  0  0  0  0  0  0  0  0  0  0
  153.9839  138.5824  154.5307 O   0  0  0  0  0  0  0  0  0  0  0  0
  152.5750  139.3048  156.7267 C   0  0  0  0  0  0  0  0  0  0  0  0
  153.0837  142.3636  159.3261 N   0  0  0  0  0  0  0  0  0  0  0  0
  154.3718  141.4564  162.2626 H   0  0  0  0  0  0  0  0  0  0  0  0
  154.9518  140.9771  160.6712 H   0  0  0  0  0  0  0  0  0  0  0  0
  153.4413  140.3168  161.2948 H   0  0  0  0  0  0  0  0  0  0  0  0
  152.7476  143.7386  162.3278 H   0  0  0  0  0  0  0  0  0  0  0  0
  151.2407  145.8122  161.3384 H   0  0  0  0  0  0  0  0  0  0  0  0
  150.3900  145.3568  159.8643 H   0  0  0  0  0  0  0  0  0  0  0  0
  151.9050  146.2596  159.7682 H   0  0  0  0  0  0  0  0  0  0  0  0
  151.3733  144.7227  157.7290 H   0  0  0  0  0  0  0  0  0  0  0  0
  152.8084  143.9292  157.1086 H   0  0  0  0  0  0  0  0  0  0  0  0
  151.3739  141.5718  158.8583 H   0  0  0  0  0  0  0  0  0  0  0  0
  150.3393  139.6251  158.3751 H   0  0  0  0  0  0  0  0  0  0  0  0
  149.2939  140.4533  157.2437 H   0  0  0  0  0  0  0  0  0  0  0  0
  151.1892  140.4186  155.5467 H   0  0  0  0  0  0  0  0  0  0  0  0
  150.2050  137.7442  156.5719 H   0  0  0  0  0  0  0  0  0  0  0  0
  149.5112  138.6840  155.2641 H   0  0  0  0  0  0  0  0  0  0  0  0
  151.2306  136.6925  154.6676 H   0  0  0  0  0  0  0  0  0  0  0  0
  151.4180  138.2436  153.8307 H   0  0  0  0  0  0  0  0  0  0  0  0
  153.2623  140.1499  156.6741 H   0  0  0  0  0  0  0  0  0  0  0  0
  152.6247  138.8805  157.7297 H   0  0  0  0  0  0  0  0  0  0  0  0
  1  2  1  0  0  0  0
  1 20  1  0  0  0  0
  1 21  1  0  0  0  0
  1 22  1  0  0  0  0
  2 19  2  0  0  0  0
  2  3  1  0  0  0  0
  3  4  2  0  0  0  0
  3 23  1  0  0  0  0
  4  5  1  0  0  0  0
  4  6  1  0  0  0  0
  5 24  1  0  0  0  0
  5 25  1  0  0  0  0
  5 26  1  0  0  0  0
  6  7  1  0  0  0  0
  6 19  1  0  0  0  0
  7  8  1  0  0  0  0
  7 27  1  0  0  0  0
  7 28  1  0  0  0  0
  8  9  2  0  0  0  0
  8 10  1  0  0  0  0
 10 11  1  0  0  0  0
 10 29  1  0  0  0  0
 11 12  1  0  0  0  0
 11 30  1  0  0  0  0
 11 31  1  0  0  0  0
 12 18  1  0  0  0  0
 12 13  1  0  0  0  0
 12 32  1  0  0  0  0
 13 14  1  0  0  0  0
 13 33  1  0  0  0  0
 13 34  1  0  0  0  0
 14 15  1  0  0  0  0
 14 35  1  0  0  0  0
 14 36  1  0  0  0  0
 15 16  2  0  0  0  0
 15 17  2  0  0  0  0
 15 18  1  0  0  0  0
 18 37  1  0  0  0  0
 18 38  1  0  0  0  0
M  END
> <s_m_source_file>
AV-unprocessed.smi

> <i_m_source_file_index>
1984

> <i_lp_mmshare_version>
43012

> <i_f3d_flags>
0

> <s_epik_input>
W0NIM11jMVtjSF1jKFtDSDNdKW4objEpW0NIMl1DKD1PKVtOSF1bQ0gyXVtDQEBIXShbQ0gyXTIpW0NIMl1bQ0gyXVMyKD1PKT1P

> <s_epik_cmdline>
J2VwaWtfcHl0aG9uJywgJy1waCcsICc3LjAnLCAnLXRuJywgJzgnLCAnLW1hJywgJzIwMCcsICctbWV0YWxfYmluZGluZycsICctaW1hZScsICc8aW5maWxlLm1hZT4nLCAnLW9tYWUnLCAnPG91dGZpbGUubWFlPic=

> <r_lp_tautomer_probability>
1

> <r_epik_Ionization_Penalty>
0.000335865

> <r_epik_Ionization_Penalty_Charging>
0

> <r_epik_Ionization_Penalty_Neutral>
0.000335865

> <r_epik_State_Penalty>
-0

> <r_epik_Charging_Adjusted_Penalty>
0

> <i_epik_Tot_Q>
0

> <i_epik_Tot_abs_Q>
0

> <r_epik_Metal_State_Penalty>
-0

> <b_epik_Metal_Only>
0

> <s_lp_Force_Field>
OPLS_2005

> <r_lp_Energy>
1.39039

> <b_lp_Chiralities_Consistent>
1

> <s_lp_Variant>
AV-unprocessed.smi:1984-1

> <Gold.Version>
5.8.1

> <Gold.Id.Protein>
6NUR|6NUR_protein|mol2

> <Gold.PLP.Fitness>
41.4875

> <Gold.PLP.PLP>
-36.8637

> <Gold.PLP.part.hbond>
-2.0000

> <Gold.PLP.part.metal>
0.0000

> <Gold.PLP.part.buried>
-2.6167

> <Gold.PLP.part.nonpolar>
-36.4187

> <Gold.PLP.part.repulsive>
3.8070

> <Gold.PLP.ligand.clash>
0.0000

> <Gold.PLP.ligand.torsion>
0.0352

> <Gold.PLP.Chemscore.Hbond>
1.5613

> <Gold.PLP.Chemscore.CHOScore>
0.0000

> <Gold.PLP.Chemscore.Metal>
0.0000

> <Gold.Chemscore.Hbonds>
donor molecule, donor type, donor heavy atom, donor atom, acceptor molecule, acceptor atom, score
      P1  H  7997  8008       L1    17  0.72
      P1  H 10752 10763       L1    16  0.67

> <Gold.PLP.Chemscore.Internal.Correction>
0.0103

> <Gold.Rescore>
     Score         DG    S(hbond)    S(metal)    S(lipo)     H(rot)  DE(clash)    DE(int)     intcor
     11.66     -14.89       0.82        0.00      93.75       1.68       1.69       1.53       ----

> <Gold.Chemscore.Fitness>
11.6631

> <Gold.Chemscore.DG>
-14.8864

> <Gold.Chemscore.ZeroCoef>
-5.4800

> <Gold.Chemscore.Hbond>
0.8196

> <Gold.Chemscore.Metal>
0.0000

> <Gold.Chemscore.Lipo>
93.7460

> <Gold.Chemscore.Internal_Hbond>
0.0000

> <Gold.Chemscore.DEClash>
1.6940

> <Gold.Chemscore.DEInternal>
1.5293

> <Gold.Chemscore.Rot>
1.6795

> <Gold.Chemscore.Internal.Correction>
   9.000000E+99

> <Gold.Chemscore.Hbonds>
donor molecule, donor type, donor heavy atom, donor atom, acceptor molecule, acceptor atom, score
      P1  H  7997  8008       L1    17  0.21
      P1  H 10752 10763       L1    16  0.53

> <Gold.Chemscore.Hbond.Weighted>
-2.7376

> <Gold.Chemscore.Metal.Weighted>
-0.0000

> <Gold.Chemscore.Lipo.Weighted>
-10.9683

> <Gold.Chemscore.Internal_Hbond.Weighted>
0.0000

> <Gold.Chemscore.DEClash.Weighted>
1.6940

> <Gold.Chemscore.DEInternal.Weighted>
1.5293

> <Gold.Chemscore.Rot.Weighted>
4.2995

> <Gold.Chemscore.Internal.Correction.Weighted>
   9.000000E+99

> <Gold.Protein.RotatedTorsions>
[ 6907 6896 6895 6894 ] final  -27.50 input  -60.11 | X-H torsion
[ 7974 7965 7964 7962 ] final   33.39 input  175.53 | X-H torsion
[ 8008 7997 7996 7995 ] final    9.58 input   59.86 | X-H torsion
[ 10167 10162 10161 10158 ] final -124.95 input  -65.29 | X-H torsion
[ 10718 10713 10712 10709 ] final  141.07 input   66.30 | X-H torsion
[ 10763 10752 10751 10750 ] final  113.67 input  -60.55 | X-H torsion
[ 11005 11000 10999 10996 ] final -149.82 input  -57.11 | X-H torsion

> <Gold.Protein.ActiveResidues>
 VAL166  LYS551  ARG553  GLY616  TRP617  ASP618  TYR619  PRO620  LYS621  CYS622 
 ASP623  PHE694  ASN695  SER759  ASP760  ASP761  ALA762  ILE779  LEU786  VAL792 
 PHE793  MET794  SER795  GLU796  ALA797  LYS798  CYS799  TRP800  GLU811  SER814 

> <Gold.Protein.RotatedAtoms>
  151.1460  135.0203  159.8646 H   0  0  0  0  0  0  0  0  0  0  0  0  # atno 6907 bound_to 6896
  152.5453  134.1443  159.8502 H   0  0  0  0  0  0  0  0  0  0  0  0  # atno 6908 bound_to 6896
  151.1524  133.4853  159.2628 H   0  0  0  0  0  0  0  0  0  0  0  0  # atno 6909 bound_to 6896
  146.1424  139.6403  142.9154 H   0  0  0  0  0  0  0  0  0  0  0  0  # atno 7974 bound_to 7965
  154.7819  140.2820  155.6057 H   0  0  0  0  0  0  0  0  0  0  0  0  # atno 8008 bound_to 7997
  156.2951  140.2621  156.2575 H   0  0  0  0  0  0  0  0  0  0  0  0  # atno 8009 bound_to 7997
  154.9774  140.0375  157.2252 H   0  0  0  0  0  0  0  0  0  0  0  0  # atno 8010 bound_to 7997
  139.9873  143.5678  152.2355 H   0  0  0  0  0  0  0  0  0  0  0  0  # atno 10167 bound_to 10162
  157.3962  131.1011  151.0597 H   0  0  0  0  0  0  0  0  0  0  0  0  # atno 10718 bound_to 10713
  153.4959  135.3648  155.2515 H   0  0  0  0  0  0  0  0  0  0  0  0  # atno 10763 bound_to 10752
  154.8750  135.3988  154.3534 H   0  0  0  0  0  0  0  0  0  0  0  0  # atno 10764 bound_to 10752
  153.4162  135.7079  153.6391 H   0  0  0  0  0  0  0  0  0  0  0  0  # atno 10765 bound_to 10752
  140.7468  134.3452  157.5135 H   0  0  0  0  0  0  0  0  0  0  0  0  # atno 11005 bound_to 11000
  145.5017  141.0437  143.2537 LP  0  0  0  0  0  0  0  0  0  0  0  0  # atno 17320 bound_to 7965
  144.7807  139.6532  143.7155 LP  0  0  0  0  0  0  0  0  0  0  0  0  # atno 17321 bound_to 7965
  139.6366  144.7650  151.2426 LP  0  0  0  0  0  0  0  0  0  0  0  0  # atno 17342 bound_to 10162
  140.7467  143.6388  150.8354 LP  0  0  0  0  0  0  0  0  0  0  0  0  # atno 17343 bound_to 10162
  157.1613  130.6227  149.5611 LP  0  0  0  0  0  0  0  0  0  0  0  0  # atno 17370 bound_to 10713
  155.9811  130.4816  150.6809 LP  0  0  0  0  0  0  0  0  0  0  0  0  # atno 17371 bound_to 10713
  139.8795  134.9116  156.3041 LP  0  0  0  0  0  0  0  0  0  0  0  0  # atno 17394 bound_to 11000
  140.9787  133.7281  156.0640 LP  0  0  0  0  0  0  0  0  0  0  0  0  # atno 17395 bound_to 11000

$$$$
