AV-unprocessed.smi:1941|AV-procd|sdf|7847|dock10
  -GOLD-   22720 9593D 1   1.00000     0.00000
 Structure written by MMmdl.
 40 41  0  0  0  0  0  0  0  0  1 V2000
  144.7327  135.8952  151.7535 C   0  0  0  0  0  0  0  0  0  0  0  0
  145.5711  134.6970  152.0401 C   0  0  0  0  0  0  0  0  0  0  0  0
  146.4233  134.6180  153.0654 N   0  0  0  0  0  0  0  0  0  0  0  0
  147.0922  133.3907  153.1161 C   0  0  0  0  0  0  0  0  0  0  0  0
  148.0865  133.1223  154.2049 C   0  0  0  0  0  0  0  0  0  0  0  0
  148.2315  134.3140  155.1665 C   0  0  0  0  0  0  0  0  0  0  0  0
  148.2964  135.5809  154.4470 N   0  0  0  0  0  0  0  0  0  0  0  0
  147.9958  136.7759  154.9740 C   0  0  0  0  0  0  0  0  0  0  0  0
  147.6147  136.9399  156.1332 O   0  0  0  0  0  0  0  0  0  0  0  0
  148.1736  137.7671  154.0894 N   0  0  0  0  0  0  0  0  0  0  0  0
  147.9688  139.1927  154.3456 C   0  0  2  0  0  0  0  0  0  0  0  0
  147.0095  139.7718  153.2960 C   0  0  0  0  0  0  0  0  0  0  0  0
  149.3170  139.9418  154.3731 C   0  0  1  0  0  0  0  0  0  0  0  0
  149.2477  141.4120  154.8132 C   0  0  0  0  0  0  0  0  0  0  0  0
  150.5238  141.6252  155.6170 C   0  0  0  0  0  0  0  0  0  0  0  0
  151.2575  140.2897  155.5169 C   0  0  0  0  0  0  0  0  0  0  0  0
  150.2192  139.3496  155.2975 O   0  0  0  0  0  0  0  0  0  0  0  0
  146.7278  132.5341  152.1074 C   0  0  0  0  0  0  0  0  0  0  0  0
  145.5323  133.2399  151.0550 S   0  0  0  0  0  0  0  0  0  0  0  0
  144.9611  136.7008  152.4523 H   0  0  0  0  0  0  0  0  0  0  0  0
  143.6767  135.6414  151.8454 H   0  0  0  0  0  0  0  0  0  0  0  0
  144.9223  136.2479  150.7397 H   0  0  0  0  0  0  0  0  0  0  0  0
  147.7871  132.2338  154.7624 H   0  0  0  0  0  0  0  0  0  0  0  0
  149.0585  132.8863  153.7696 H   0  0  0  0  0  0  0  0  0  0  0  0
  147.3777  134.3525  155.8434 H   0  0  0  0  0  0  0  0  0  0  0  0
  149.1182  134.1947  155.7916 H   0  0  0  0  0  0  0  0  0  0  0  0
  148.6002  135.5451  153.4850 H   0  0  0  0  0  0  0  0  0  0  0  0
  148.4972  137.5222  153.1649 H   0  0  0  0  0  0  0  0  0  0  0  0
  147.4990  139.3346  155.3203 H   0  0  0  0  0  0  0  0  0  0  0  0
  146.8173  140.8289  153.4818 H   0  0  0  0  0  0  0  0  0  0  0  0
  146.0489  139.2558  153.3153 H   0  0  0  0  0  0  0  0  0  0  0  0
  147.4172  139.6801  152.2886 H   0  0  0  0  0  0  0  0  0  0  0  0
  149.7764  139.8977  153.3837 H   0  0  0  0  0  0  0  0  0  0  0  0
  149.1870  142.0784  153.9525 H   0  0  0  0  0  0  0  0  0  0  0  0
  148.3807  141.6139  155.4425 H   0  0  0  0  0  0  0  0  0  0  0  0
  151.1268  142.4519  155.2402 H   0  0  0  0  0  0  0  0  0  0  0  0
  150.2731  141.8389  156.6566 H   0  0  0  0  0  0  0  0  0  0  0  0
  151.9386  140.2834  154.6646 H   0  0  0  0  0  0  0  0  0  0  0  0
  151.8299  140.0553  156.4147 H   0  0  0  0  0  0  0  0  0  0  0  0
  147.0884  131.5330  151.9219 H   0  0  0  0  0  0  0  0  0  0  0  0
  1  2  1  0  0  0  0
  1 20  1  0  0  0  0
  1 21  1  0  0  0  0
  1 22  1  0  0  0  0
  2 19  1  0  0  0  0
  2  3  2  0  0  0  0
  3  4  1  0  0  0  0
  4  5  1  0  0  0  0
  4 18  2  0  0  0  0
  5  6  1  0  0  0  0
  5 23  1  0  0  0  0
  5 24  1  0  0  0  0
  6  7  1  0  0  0  0
  6 25  1  0  0  0  0
  6 26  1  0  0  0  0
  7  8  1  0  0  0  0
  7 27  1  0  0  0  0
  8  9  2  0  0  0  0
  8 10  1  0  0  0  0
 10 11  1  0  0  0  0
 10 28  1  0  0  0  0
 11 12  1  0  0  0  0
 11 13  1  0  0  0  0
 11 29  1  0  0  0  0
 12 30  1  0  0  0  0
 12 31  1  0  0  0  0
 12 32  1  0  0  0  0
 13 17  1  0  0  0  0
 13 14  1  0  0  0  0
 13 33  1  0  0  0  0
 14 15  1  0  0  0  0
 14 34  1  0  0  0  0
 14 35  1  0  0  0  0
 15 16  1  0  0  0  0
 15 36  1  0  0  0  0
 15 37  1  0  0  0  0
 16 17  1  0  0  0  0
 16 38  1  0  0  0  0
 16 39  1  0  0  0  0
 18 19  1  0  0  0  0
 18 40  1  0  0  0  0
M  END
> <s_m_source_file>
AV-unprocessed.smi

> <i_m_source_file_index>
1941

> <i_lp_mmshare_version>
43012

> <i_f3d_flags>
0

> <s_epik_input>
W0NIM11jMW5jKFtjSF1zMSlbQ0gyXVtDSDJdW05IXUMoPU8pW05IXVtDQEhdKFtDSDNdKVtDQEBIXTJbQ0gyXVtDSDJdW0NIMl1PMg==

> <s_epik_cmdline>
J2VwaWtfcHl0aG9uJywgJy1waCcsICc3LjAnLCAnLXRuJywgJzgnLCAnLW1hJywgJzIwMCcsICctbWV0YWxfYmluZGluZycsICctaW1hZScsICc8aW5maWxlLm1hZT4nLCAnLW9tYWUnLCAnPG91dGZpbGUubWFlPic=

> <r_epik_Ionization_Penalty>
0.00195486

> <r_epik_Ionization_Penalty_Charging>
0

> <r_epik_Ionization_Penalty_Neutral>
0.00195486

> <r_epik_State_Penalty>
0.00129472

> <r_epik_Charging_Adjusted_Penalty>
0.00129472

> <i_epik_Tot_Q>
0

> <i_epik_Tot_abs_Q>
0

> <r_epik_Metal_State_Penalty>
-0

> <b_epik_Metal_Only>
0

> <s_lp_Force_Field>
OPLS_2005

> <r_lp_Energy>
12.2091

> <b_lp_Chiralities_Consistent>
1

> <s_lp_Variant>
AV-unprocessed.smi:1941-3

> <Gold.Version>
5.8.1

> <Gold.Id.Protein>
6NUR|6NUR_protein|mol2

> <Gold.PLP.Fitness>
38.1385

> <Gold.PLP.PLP>
-29.8704

> <Gold.PLP.part.hbond>
-2.0000

> <Gold.PLP.part.metal>
0.0000

> <Gold.PLP.part.buried>
-1.0435

> <Gold.PLP.part.nonpolar>
-26.6929

> <Gold.PLP.part.repulsive>
0.8182

> <Gold.PLP.ligand.clash>
0.0000

> <Gold.PLP.ligand.torsion>
0.3256

> <Gold.PLP.Chemscore.Hbond>
1.9600

> <Gold.PLP.Chemscore.CHOScore>
1.0000

> <Gold.PLP.Chemscore.Metal>
0.0000

> <Gold.Chemscore.Hbonds>
donor molecule, donor type, donor heavy atom, donor atom, acceptor molecule, acceptor atom, score
      L1  H     7    27       P1  7948  1.00
      L1  H    10    28       P1  7948  1.00
      L1  C    18    40       P1 10747  0.78

> <Gold.PLP.Chemscore.Internal.Correction>
0.0393

> <Gold.Rescore>
     Score         DG    S(hbond)    S(metal)    S(lipo)     H(rot)  DE(clash)    DE(int)     intcor
     15.71     -16.22       1.85        0.00      76.01       1.69       0.08       0.43       ----

> <Gold.Chemscore.Fitness>
15.7141

> <Gold.Chemscore.DG>
-16.2201

> <Gold.Chemscore.ZeroCoef>
-5.4800

> <Gold.Chemscore.Hbond>
1.8501

> <Gold.Chemscore.Metal>
0.0000

> <Gold.Chemscore.Lipo>
76.0105

> <Gold.Chemscore.Internal_Hbond>
0.0000

> <Gold.Chemscore.DEClash>
0.0779

> <Gold.Chemscore.DEInternal>
0.4282

> <Gold.Chemscore.Rot>
1.6923

> <Gold.Chemscore.Internal.Correction>
   9.000000E+99

> <Gold.Chemscore.Hbonds>
donor molecule, donor type, donor heavy atom, donor atom, acceptor molecule, acceptor atom, score
      L1  H     7    27       P1  7948  0.96
      L1  H    10    28       P1  7948  0.96

> <Gold.Chemscore.Hbond.Weighted>
-6.1792

> <Gold.Chemscore.Metal.Weighted>
-0.0000

> <Gold.Chemscore.Lipo.Weighted>
-8.8932

> <Gold.Chemscore.Internal_Hbond.Weighted>
0.0000

> <Gold.Chemscore.DEClash.Weighted>
0.0779

> <Gold.Chemscore.DEInternal.Weighted>
0.4282

> <Gold.Chemscore.Rot.Weighted>
4.3323

> <Gold.Chemscore.Internal.Correction.Weighted>
   9.000000E+99

> <Gold.Protein.RotatedTorsions>
[ 6907 6896 6895 6894 ] final   99.75 input  -60.11 | X-H torsion
[ 7974 7965 7964 7962 ] final -121.51 input  175.53 | X-H torsion
[ 8008 7997 7996 7995 ] final  -54.55 input   59.86 | X-H torsion
[ 10167 10162 10161 10158 ] final  -69.91 input  -65.29 | X-H torsion
[ 10718 10713 10712 10709 ] final -151.90 input   66.30 | X-H torsion
[ 10763 10752 10751 10750 ] final    9.65 input  -60.55 | X-H torsion
[ 11005 11000 10999 10996 ] final  105.12 input  -57.11 | X-H torsion

> <Gold.Protein.ActiveResidues>
 VAL166  LYS551  ARG553  GLY616  TRP617  ASP618  TYR619  PRO620  LYS621  CYS622 
 ASP623  PHE694  ASN695  SER759  ASP760  ASP761  ALA762  ILE779  LEU786  VAL792 
 PHE793  MET794  SER795  GLU796  ALA797  LYS798  CYS799  TRP800  GLU811  SER814 

> <Gold.Protein.RotatedAtoms>
  152.5386  134.0381  159.8054 H   0  0  0  0  0  0  0  0  0  0  0  0  # atno 6907 bound_to 6896
  151.0541  133.5591  159.2647 H   0  0  0  0  0  0  0  0  0  0  0  0  # atno 6908 bound_to 6896
  151.2515  135.0631  159.9117 H   0  0  0  0  0  0  0  0  0  0  0  0  # atno 6909 bound_to 6896
  145.0395  140.8133  143.4275 H   0  0  0  0  0  0  0  0  0  0  0  0  # atno 7974 bound_to 7965
  154.4166  140.1173  156.5334 H   0  0  0  0  0  0  0  0  0  0  0  0  # atno 8008 bound_to 7997
  155.6582  140.3496  155.4754 H   0  0  0  0  0  0  0  0  0  0  0  0  # atno 8009 bound_to 7997
  155.9735  140.1146  157.0781 H   0  0  0  0  0  0  0  0  0  0  0  0  # atno 8010 bound_to 7997
  140.5394  143.2316  151.7117 H   0  0  0  0  0  0  0  0  0  0  0  0  # atno 10167 bound_to 10162
  156.4654  130.8233  151.2463 H   0  0  0  0  0  0  0  0  0  0  0  0  # atno 10718 bound_to 10713
  153.2117  135.6870  153.8105 H   0  0  0  0  0  0  0  0  0  0  0  0  # atno 10763 bound_to 10752
  153.7335  135.3249  155.3291 H   0  0  0  0  0  0  0  0  0  0  0  0  # atno 10764 bound_to 10752
  154.8225  135.4641  154.0928 H   0  0  0  0  0  0  0  0  0  0  0  0  # atno 10765 bound_to 10752
  139.8799  134.9325  156.5466 H   0  0  0  0  0  0  0  0  0  0  0  0  # atno 11005 bound_to 11000
  145.1666  139.2428  143.5364 LP  0  0  0  0  0  0  0  0  0  0  0  0  # atno 17320 bound_to 7965
  146.3508  140.1406  142.8594 LP  0  0  0  0  0  0  0  0  0  0  0  0  # atno 17321 bound_to 7965
  139.4983  144.3992  152.0199 LP  0  0  0  0  0  0  0  0  0  0  0  0  # atno 17342 bound_to 10162
  140.3100  144.3549  150.6036 LP  0  0  0  0  0  0  0  0  0  0  0  0  # atno 17343 bound_to 10162
  157.7495  131.0093  150.3264 LP  0  0  0  0  0  0  0  0  0  0  0  0  # atno 17370 bound_to 10713
  156.3673  130.3857  149.7203 LP  0  0  0  0  0  0  0  0  0  0  0  0  # atno 17371 bound_to 10713
  140.8271  133.8308  155.8949 LP  0  0  0  0  0  0  0  0  0  0  0  0  # atno 17394 bound_to 11000
  140.9364  134.1957  157.4829 LP  0  0  0  0  0  0  0  0  0  0  0  0  # atno 17395 bound_to 11000

$$$$
