AV-unprocessed.smi:3337|AV-procd|sdf|12865|dock6
  -GOLD-   2272019263D 1   1.00000     0.00000
 Structure written by MMmdl.
 46 47  0  0  0  0  0  0  0  0  2 V2000
  154.2557  141.8112  160.6683 C   0  0  0  0  0  0  0  0  0  0  0  0
  153.2578  142.7192  159.9353 C   0  0  2  0  0  0  0  0  0  0  0  0
  152.2269  143.3201  160.9078 C   0  0  0  0  0  0  0  0  0  0  0  0
  151.1837  144.1814  160.1721 C   0  0  1  0  0  0  0  0  0  0  0  0
  151.7420  145.5406  159.7154 C   0  0  0  0  0  0  0  0  0  0  0  0
  150.5509  143.3906  159.0098 C   0  0  0  0  0  0  0  0  0  0  0  0
  151.5807  142.8484  158.0848 N   0  3  2  0  0  0  0  0  0  0  0  0
  150.9761  142.2142  156.8858 C   0  0  0  0  0  0  0  0  0  0  0  0
  150.2694  140.8852  157.2140 C   0  0  0  0  0  0  0  0  0  0  0  0
  150.9231  139.7571  156.5621 N   0  0  0  0  0  0  0  0  0  0  0  0
  150.8751  139.4961  155.2453 C   0  0  0  0  0  0  0  0  0  0  0  0
  150.2240  140.1816  154.4558 O   0  0  0  0  0  0  0  0  0  0  0  0
  151.6743  138.2734  154.7572 C   0  0  1  0  0  0  0  0  0  0  0  0
  153.2001  138.4917  154.8027 C   0  0  0  0  0  0  0  0  0  0  0  0
  151.2890  137.0708  155.4872 N   0  0  0  0  0  0  0  0  0  0  0  0
  150.6198  135.9920  155.0749 C   0  0  0  0  0  0  0  0  0  0  0  0
  150.4210  135.0871  156.0230 N   0  0  0  0  0  0  0  0  0  0  0  0
  151.0364  135.7135  157.0693 C   0  0  0  0  0  0  0  0  0  0  0  0
  151.5689  136.9063  156.8044 N   0  0  0  0  0  0  0  0  0  0  0  0
  152.5422  141.9658  158.7976 C   0  0  0  0  0  0  0  0  0  0  0  0
  153.7534  140.9641  161.1368 H   0  0  0  0  0  0  0  0  0  0  0  0
  154.7836  142.3590  161.4496 H   0  0  0  0  0  0  0  0  0  0  0  0
  155.0053  141.4153  159.9822 H   0  0  0  0  0  0  0  0  0  0  0  0
  153.8311  143.5346  159.4925 H   0  0  0  0  0  0  0  0  0  0  0  0
  151.7132  142.5118  161.4308 H   0  0  0  0  0  0  0  0  0  0  0  0
  152.7270  143.9092  161.6776 H   0  0  0  0  0  0  0  0  0  0  0  0
  150.3886  144.4036  160.8852 H   0  0  0  0  0  0  0  0  0  0  0  0
  152.5315  145.4299  158.9721 H   0  0  0  0  0  0  0  0  0  0  0  0
  152.1542  146.0977  160.5572 H   0  0  0  0  0  0  0  0  0  0  0  0
  150.9578  146.1544  159.2713 H   0  0  0  0  0  0  0  0  0  0  0  0
  149.9570  142.5640  159.4031 H   0  0  0  0  0  0  0  0  0  0  0  0
  149.8607  144.0370  158.4657 H   0  0  0  0  0  0  0  0  0  0  0  0
  150.2883  142.9115  156.4048 H   0  0  0  0  0  0  0  0  0  0  0  0
  151.7649  142.0104  156.1601 H   0  0  0  0  0  0  0  0  0  0  0  0
  150.2357  140.7252  158.2933 H   0  0  0  0  0  0  0  0  0  0  0  0
  149.2359  140.8956  156.8707 H   0  0  0  0  0  0  0  0  0  0  0  0
  151.4757  139.1469  157.1472 H   0  0  0  0  0  0  0  0  0  0  0  0
  151.3983  138.1172  153.7132 H   0  0  0  0  0  0  0  0  0  0  0  0
  153.4970  139.3426  154.1885 H   0  0  0  0  0  0  0  0  0  0  0  0
  153.7293  137.6173  154.4230 H   0  0  0  0  0  0  0  0  0  0  0  0
  153.5543  138.6755  155.8179 H   0  0  0  0  0  0  0  0  0  0  0  0
  150.2676  135.8668  154.0616 H   0  0  0  0  0  0  0  0  0  0  0  0
  151.0893  135.2796  158.0569 H   0  0  0  0  0  0  0  0  0  0  0  0
  153.2918  141.5873  158.1039 H   0  0  0  0  0  0  0  0  0  0  0  0
  152.0130  141.0966  159.1919 H   0  0  0  0  0  0  0  0  0  0  0  0
  152.1035  143.6456  157.7510 H   0  0  0  0  0  0  0  0  0  0  0  0
  1  2  1  0  0  0  0
  1 21  1  0  0  0  0
  1 22  1  0  0  0  0
  1 23  1  0  0  0  0
  2 20  1  0  0  0  0
  2  3  1  0  0  0  0
  2 24  1  0  0  0  0
  3  4  1  0  0  0  0
  3 25  1  0  0  0  0
  3 26  1  0  0  0  0
  4  5  1  0  0  0  0
  4  6  1  0  0  0  0
  4 27  1  0  0  0  0
  5 28  1  0  0  0  0
  5 29  1  0  0  0  0
  5 30  1  0  0  0  0
  6  7  1  0  0  0  0
  6 31  1  0  0  0  0
  6 32  1  0  0  0  0
  7  8  1  0  0  0  0
  7 20  1  0  0  0  0
  7 46  1  0  0  0  0
  8  9  1  0  0  0  0
  8 33  1  0  0  0  0
  8 34  1  0  0  0  0
  9 10  1  0  0  0  0
  9 35  1  0  0  0  0
  9 36  1  0  0  0  0
 10 11  1  0  0  0  0
 10 37  1  0  0  0  0
 11 12  2  0  0  0  0
 11 13  1  0  0  0  0
 13 14  1  0  0  0  0
 13 15  1  0  0  0  0
 13 38  1  0  0  0  0
 14 39  1  0  0  0  0
 14 40  1  0  0  0  0
 14 41  1  0  0  0  0
 15 19  1  0  0  0  0
 15 16  1  0  0  0  0
 16 17  2  0  0  0  0
 16 42  1  0  0  0  0
 17 18  1  0  0  0  0
 18 19  2  0  0  0  0
 18 43  1  0  0  0  0
 20 44  1  0  0  0  0
 20 45  1  0  0  0  0
M  CHG  1   7   1
M  END
> <s_m_source_file>
AV-unprocessed.smi

> <i_m_source_file_index>
3337

> <i_lp_mmshare_version>
43012

> <i_f3d_flags>
0

> <s_epik_input>
W0NIM11bQ0BASF0xW0NIMl1bQ0BASF0oW0NIM10pW0NIMl1OKFtDSDJdMSlbQ0gyXVtDSDJdW05IXUMoPU8pW0NASF0oW0NIM10pbjJbY0hdbltjSF1uMg==

> <s_epik_cmdline>
J2VwaWtfcHl0aG9uJywgJy1waCcsICc3LjAnLCAnLXRuJywgJzgnLCAnLW1hJywgJzIwMCcsICctbWV0YWxfYmluZGluZycsICctaW1hZScsICc8aW5maWxlLm1hZT4nLCAnLW9tYWUnLCAnPG91dGZpbGUubWFlPic=

> <r_lp_tautomer_probability>
1

> <r_epik_Ionization_Penalty>
0.00175613

> <r_epik_Ionization_Penalty_Charging>
0.00174812

> <r_epik_Ionization_Penalty_Neutral>
8.01354e-06

> <r_epik_State_Penalty>
0.00118332

> <r_epik_Charging_Adjusted_Penalty>
0.00293143

> <i_epik_Tot_Q>
1

> <i_epik_Tot_abs_Q>
1

> <r_epik_Metal_State_Penalty>
-0

> <b_epik_Metal_Only>
0

> <s_lp_Force_Field>
OPLS_2005

> <r_lp_Energy>
24.7209

> <b_lp_Chiralities_Consistent>
1

> <s_lp_Variant>
AV-unprocessed.smi:3337-5

> <Gold.Version>
5.8.1

> <Gold.Id.Protein>
6NUR|6NUR_protein|mol2

> <Gold.PLP.Fitness>
46.4056

> <Gold.PLP.PLP>
-41.7754

> <Gold.PLP.part.hbond>
-1.0000

> <Gold.PLP.part.metal>
0.0000

> <Gold.PLP.part.buried>
-6.4683

> <Gold.PLP.part.nonpolar>
-36.1338

> <Gold.PLP.part.repulsive>
0.2615

> <Gold.PLP.ligand.clash>
0.0000

> <Gold.PLP.ligand.torsion>
0.6829

> <Gold.PLP.Chemscore.Hbond>
0.9600

> <Gold.PLP.Chemscore.CHOScore>
0.9951

> <Gold.PLP.Chemscore.Metal>
0.0000

> <Gold.Chemscore.Hbonds>
donor molecule, donor type, donor heavy atom, donor atom, acceptor molecule, acceptor atom, score
      P1  H  7989  7998       L1    12  0.95
      L1  C    16    42       P1  7948  0.55
      L1  C    16    42       P1  7949  0.09

> <Gold.PLP.Chemscore.Internal.Correction>
0.1307

> <Gold.Rescore>
     Score         DG    S(hbond)    S(metal)    S(lipo)     H(rot)  DE(clash)    DE(int)     intcor
     13.81     -14.42       1.00        0.00     102.88       2.51       0.02       0.59       ----

> <Gold.Chemscore.Fitness>
13.8115

> <Gold.Chemscore.DG>
-14.4215

> <Gold.Chemscore.ZeroCoef>
-5.4800

> <Gold.Chemscore.Hbond>
0.9994

> <Gold.Chemscore.Metal>
0.0000

> <Gold.Chemscore.Lipo>
102.8776

> <Gold.Chemscore.Internal_Hbond>
0.0000

> <Gold.Chemscore.DEClash>
0.0203

> <Gold.Chemscore.DEInternal>
0.5897

> <Gold.Chemscore.Rot>
2.5129

> <Gold.Chemscore.Internal.Correction>
   9.000000E+99

> <Gold.Chemscore.Hbonds>
donor molecule, donor type, donor heavy atom, donor atom, acceptor molecule, acceptor atom, score
      P1  H  7989  7998       L1    12  0.21

> <Gold.Chemscore.Hbond.Weighted>
-3.3379

> <Gold.Chemscore.Metal.Weighted>
-0.0000

> <Gold.Chemscore.Lipo.Weighted>
-12.0367

> <Gold.Chemscore.Internal_Hbond.Weighted>
0.0000

> <Gold.Chemscore.DEClash.Weighted>
0.0203

> <Gold.Chemscore.DEInternal.Weighted>
0.5897

> <Gold.Chemscore.Rot.Weighted>
6.4331

> <Gold.Chemscore.Internal.Correction.Weighted>
   9.000000E+99

> <Gold.Protein.RotatedTorsions>
[ 6907 6896 6895 6894 ] final -100.29 input  -60.11 | X-H torsion
[ 7974 7965 7964 7962 ] final  -80.32 input  175.53 | X-H torsion
[ 8008 7997 7996 7995 ] final   32.44 input   59.86 | X-H torsion
[ 10167 10162 10161 10158 ] final  128.51 input  -65.29 | X-H torsion
[ 10718 10713 10712 10709 ] final  173.38 input   66.30 | X-H torsion
[ 10763 10752 10751 10750 ] final -120.23 input  -60.55 | X-H torsion
[ 11005 11000 10999 10996 ] final  179.05 input  -57.11 | X-H torsion

> <Gold.Protein.ActiveResidues>
 VAL166  LYS551  ARG553  GLY616  TRP617  ASP618  TYR619  PRO620  LYS621  CYS622 
 ASP623  PHE694  ASN695  SER759  ASP760  ASP761  ALA762  ILE779  LEU786  VAL792 
 PHE793  MET794  SER795  GLU796  ALA797  LYS798  CYS799  TRP800  GLU811  SER814 

> <Gold.Protein.RotatedAtoms>
  150.7110  134.0909  159.3931 H   0  0  0  0  0  0  0  0  0  0  0  0  # atno 6907 bound_to 6896
  151.8895  135.0420  160.0506 H   0  0  0  0  0  0  0  0  0  0  0  0  # atno 6908 bound_to 6896
  152.2503  133.5174  159.5358 H   0  0  0  0  0  0  0  0  0  0  0  0  # atno 6909 bound_to 6896
  145.5615  140.9481  143.1445 H   0  0  0  0  0  0  0  0  0  0  0  0  # atno 7974 bound_to 7965
  155.1225  140.3249  155.4494 H   0  0  0  0  0  0  0  0  0  0  0  0  # atno 8008 bound_to 7997
  156.2659  140.2025  156.6295 H   0  0  0  0  0  0  0  0  0  0  0  0  # atno 8009 bound_to 7997
  154.6673  140.0540  157.0114 H   0  0  0  0  0  0  0  0  0  0  0  0  # atno 8010 bound_to 7997
  139.5524  144.6823  151.4285 H   0  0  0  0  0  0  0  0  0  0  0  0  # atno 10167 bound_to 10162
  156.9652  131.0073  151.2918 H   0  0  0  0  0  0  0  0  0  0  0  0  # atno 10718 bound_to 10713
  154.8638  135.4210  154.2425 H   0  0  0  0  0  0  0  0  0  0  0  0  # atno 10763 bound_to 10752
  153.3388  135.6992  153.6891 H   0  0  0  0  0  0  0  0  0  0  0  0  # atno 10764 bound_to 10752
  153.5878  135.3560  155.2872 H   0  0  0  0  0  0  0  0  0  0  0  0  # atno 10765 bound_to 10752
  140.4019  134.6770  157.4566 H   0  0  0  0  0  0  0  0  0  0  0  0  # atno 11005 bound_to 11000
  144.7481  139.7267  143.7284 LP  0  0  0  0  0  0  0  0  0  0  0  0  # atno 17320 bound_to 7965
  146.1848  139.5058  142.9843 LP  0  0  0  0  0  0  0  0  0  0  0  0  # atno 17321 bound_to 7965
  140.6789  143.8127  150.7095 LP  0  0  0  0  0  0  0  0  0  0  0  0  # atno 17342 bound_to 10162
  140.1574  143.4305  152.2090 LP  0  0  0  0  0  0  0  0  0  0  0  0  # atno 17343 bound_to 10162
  157.5631  130.8259  149.8291 LP  0  0  0  0  0  0  0  0  0  0  0  0  # atno 17370 bound_to 10713
  156.0306  130.3766  150.1700 LP  0  0  0  0  0  0  0  0  0  0  0  0  # atno 17371 bound_to 10713
  140.0330  134.6378  155.9081 LP  0  0  0  0  0  0  0  0  0  0  0  0  # atno 17394 bound_to 11000
  141.1854  133.6555  156.5195 LP  0  0  0  0  0  0  0  0  0  0  0  0  # atno 17395 bound_to 11000

$$$$
