AV-unprocessed.smi:62|AV-procd|sdf|602|dock5
  -GOLD-   2262016493D 1   1.00000     0.00000
 Structure written by MMmdl.
 31 32  0  0  0  0  0  0  0  0  3 V2000
  148.5706  141.1147  153.7561 C   0  0  0  0  0  0  0  0  0  0  0  0
  149.5672  140.8976  154.7826 N   0  0  0  0  0  0  0  0  0  0  0  0
  149.6787  141.4970  156.0150 C   0  0  0  0  0  0  0  0  0  0  0  0
  150.7745  140.9756  156.6466 C   0  0  0  0  0  0  0  0  0  0  0  0
  151.2353  141.3607  158.0355 C   0  0  0  0  0  0  0  0  0  0  0  0
  151.4534  142.8226  158.1445 N   0  3  2  0  0  0  0  0  0  0  0  0
  152.4558  143.2134  159.1564 C   0  0  0  0  0  0  0  0  0  0  0  0
  152.1376  144.6694  159.4790 C   0  0  0  0  0  0  0  0  0  0  0  0
  150.6120  144.6872  159.4415 C   0  0  1  0  0  0  0  0  0  0  0  0
  150.1090  145.9722  159.1429 O   0  0  0  0  0  0  0  0  0  0  0  0
  150.2419  143.6485  158.3720 C   0  0  0  0  0  0  0  0  0  0  0  0
  151.2911  140.0460  155.6767 C   0  0  0  0  0  0  0  0  0  0  0  0
  152.5280  139.2160  155.9016 C   0  0  0  0  0  0  0  0  0  0  0  0
  153.1209  139.2508  157.0011 O   0  0  0  0  0  0  0  0  0  0  0  0
  152.9303  138.5028  154.9564 O   0  5  0  0  0  0  0  0  0  0  0  0
  150.5530  140.0072  154.5751 N   0  0  0  0  0  0  0  0  0  0  0  0
  147.7215  141.6600  154.1694 H   0  0  0  0  0  0  0  0  0  0  0  0
  148.2201  140.1577  153.3679 H   0  0  0  0  0  0  0  0  0  0  0  0
  149.0040  141.6951  152.9412 H   0  0  0  0  0  0  0  0  0  0  0  0
  148.9682  142.2405  156.3453 H   0  0  0  0  0  0  0  0  0  0  0  0
  150.5741  141.0238  158.8304 H   0  0  0  0  0  0  0  0  0  0  0  0
  152.1879  140.8734  158.2465 H   0  0  0  0  0  0  0  0  0  0  0  0
  152.3336  142.6035  160.0533 H   0  0  0  0  0  0  0  0  0  0  0  0
  153.4735  143.0774  158.7891 H   0  0  0  0  0  0  0  0  0  0  0  0
  152.5443  144.9936  160.4374 H   0  0  0  0  0  0  0  0  0  0  0  0
  152.5480  145.3146  158.7003 H   0  0  0  0  0  0  0  0  0  0  0  0
  150.2242  144.3659  160.4095 H   0  0  0  0  0  0  0  0  0  0  0  0
  149.4100  145.8837  158.5124 H   0  0  0  0  0  0  0  0  0  0  0  0
  149.9682  144.1172  157.4258 H   0  0  0  0  0  0  0  0  0  0  0  0
  149.3884  143.0611  158.7049 H   0  0  0  0  0  0  0  0  0  0  0  0
  151.8266  143.1284  157.2577 H   0  0  0  0  0  0  0  0  0  0  0  0
  1  2  1  0  0  0  0
  1 17  1  0  0  0  0
  1 18  1  0  0  0  0
  1 19  1  0  0  0  0
  2 16  1  0  0  0  0
  2  3  1  0  0  0  0
  3  4  2  0  0  0  0
  3 20  1  0  0  0  0
  4  5  1  0  0  0  0
  4 12  1  0  0  0  0
  5  6  1  0  0  0  0
  5 21  1  0  0  0  0
  5 22  1  0  0  0  0
  6 11  1  0  0  0  0
  6  7  1  0  0  0  0
  6 31  1  0  0  0  0
  7  8  1  0  0  0  0
  7 23  1  0  0  0  0
  7 24  1  0  0  0  0
  8  9  1  0  0  0  0
  8 25  1  0  0  0  0
  8 26  1  0  0  0  0
  9 10  1  0  0  0  0
  9 11  1  0  0  0  0
  9 27  1  0  0  0  0
 10 28  1  0  0  0  0
 11 29  1  0  0  0  0
 11 30  1  0  0  0  0
 12 13  1  0  0  0  0
 12 16  2  0  0  0  0
 13 14  2  0  0  0  0
 13 15  1  0  0  0  0
M  CHG  1   6   1
M  CHG  1  15  -1
M  END
> <s_m_source_file>
AV-unprocessed.smi

> <i_m_source_file_index>
62

> <i_lp_mmshare_version>
43012

> <i_f3d_flags>
0

> <s_epik_input>
W0NIM11uMVtjSF1jKGMobjEpQyg9TylbT0hdKVtDSDJdTjJbQ0gyXVtDSDJdW0NAQEhdKFtPSF0pW0NIMl0y

> <s_epik_cmdline>
J2VwaWtfcHl0aG9uJywgJy1waCcsICc3LjAnLCAnLXRuJywgJzgnLCAnLW1hJywgJzIwMCcsICctbWV0YWxfYmluZGluZycsICctaW1hZScsICc8aW5maWxlLm1hZT4nLCAnLW9tYWUnLCAnPG91dGZpbGUubWFlPic=

> <r_epik_Ionization_Penalty>
0.0522993

> <r_epik_Ionization_Penalty_Charging>
0.0522915

> <r_epik_Ionization_Penalty_Neutral>
7.84975e-06

> <r_epik_State_Penalty>
0.0448084

> <r_epik_Charging_Adjusted_Penalty>
0.0970998

> <i_epik_Tot_Q>
0

> <i_epik_Tot_abs_Q>
2

> <r_epik_Metal_State_Penalty>
0.0448097

> <b_epik_Metal_Only>
0

> <s_lp_Force_Field>
OPLS_2005

> <r_lp_Energy>
19.3892

> <b_lp_Chiralities_Consistent>
1

> <s_lp_Variant>
AV-unprocessed.smi:62-2

> <Gold.Version>
5.8.1

> <Gold.Id.Protein>
6NUR|6NUR_protein|mol2

> <Gold.PLP.Fitness>
46.3868

> <Gold.PLP.PLP>
-32.4944

> <Gold.PLP.part.hbond>
-5.1731

> <Gold.PLP.part.metal>
0.0000

> <Gold.PLP.part.buried>
3.6072

> <Gold.PLP.part.nonpolar>
-30.0058

> <Gold.PLP.part.repulsive>
0.1475

> <Gold.PLP.ligand.clash>
0.0000

> <Gold.PLP.ligand.torsion>
0.2951

> <Gold.PLP.Chemscore.Hbond>
3.8500

> <Gold.PLP.Chemscore.CHOScore>
0.9742

> <Gold.PLP.Chemscore.Metal>
0.0000

> <Gold.Chemscore.Hbonds>
donor molecule, donor type, donor heavy atom, donor atom, acceptor molecule, acceptor atom, score
      L1  H    10    28       P1  8029  1.00
      P1  H  7989  7998       L1    16  0.95
      P1  H  7997  8008       L1    14  1.70
      L1  C     3    20       P1  8028  0.85

> <Gold.PLP.Chemscore.Internal.Correction>
0.0099

> <Gold.Rescore>
     Score         DG    S(hbond)    S(metal)    S(lipo)     H(rot)  DE(clash)    DE(int)     intcor
     13.95     -15.39       1.89        0.00      70.27       1.81       0.11       1.33       ----

> <Gold.Chemscore.Fitness>
13.9478

> <Gold.Chemscore.DG>
-15.3879

> <Gold.Chemscore.ZeroCoef>
-5.4800

> <Gold.Chemscore.Hbond>
1.8914

> <Gold.Chemscore.Metal>
0.0000

> <Gold.Chemscore.Lipo>
70.2743

> <Gold.Chemscore.Internal_Hbond>
0.0000

> <Gold.Chemscore.DEClash>
0.1122

> <Gold.Chemscore.DEInternal>
1.3279

> <Gold.Chemscore.Rot>
1.8091

> <Gold.Chemscore.Internal.Correction>
   9.000000E+99

> <Gold.Chemscore.Hbonds>
donor molecule, donor type, donor heavy atom, donor atom, acceptor molecule, acceptor atom, score
      L1  H    10    28       P1  8029  0.96
      P1  H  7989  7998       L1    16  0.09
      P1  H  7997  8008       L1    14  0.14

> <Gold.Chemscore.Hbond.Weighted>
-6.3171

> <Gold.Chemscore.Metal.Weighted>
-0.0000

> <Gold.Chemscore.Lipo.Weighted>
-8.2221

> <Gold.Chemscore.Internal_Hbond.Weighted>
0.0000

> <Gold.Chemscore.DEClash.Weighted>
0.1122

> <Gold.Chemscore.DEInternal.Weighted>
1.3279

> <Gold.Chemscore.Rot.Weighted>
4.6314

> <Gold.Chemscore.Internal.Correction.Weighted>
   9.000000E+99

> <Gold.Protein.RotatedTorsions>
[ 6907 6896 6895 6894 ] final  160.45 input  -60.11 | X-H torsion
[ 7974 7965 7964 7962 ] final  135.26 input  175.53 | X-H torsion
[ 8008 7997 7996 7995 ] final  -52.50 input   59.86 | X-H torsion
[ 10167 10162 10161 10158 ] final -114.00 input  -65.29 | X-H torsion
[ 10718 10713 10712 10709 ] final  -79.59 input   66.30 | X-H torsion
[ 10763 10752 10751 10750 ] final  -58.37 input  -60.55 | X-H torsion
[ 11005 11000 10999 10996 ] final -134.48 input  -57.11 | X-H torsion

> <Gold.Protein.ActiveResidues>
 VAL166  LYS551  ARG553  GLY616  TRP617  ASP618  TYR619  PRO620  LYS621  CYS622 
 ASP623  PHE694  ASN695  SER759  ASP760  ASP761  ALA762  ILE779  LEU786  VAL792 
 PHE793  MET794  SER795  GLU796  ALA797  LYS798  CYS799  TRP800  GLU811  SER814 

> <Gold.Protein.RotatedAtoms>
  151.9705  133.3724  159.4069 H   0  0  0  0  0  0  0  0  0  0  0  0  # atno 6907 bound_to 6896
  150.6949  134.4145  159.5186 H   0  0  0  0  0  0  0  0  0  0  0  0  # atno 6908 bound_to 6896
  152.1848  134.8723  160.0574 H   0  0  0  0  0  0  0  0  0  0  0  0  # atno 6909 bound_to 6896
  144.9681  139.4635  143.5446 H   0  0  0  0  0  0  0  0  0  0  0  0  # atno 7974 bound_to 7965
  154.4108  140.1222  156.5002 H   0  0  0  0  0  0  0  0  0  0  0  0  # atno 8008 bound_to 7997
  155.6902  140.3495  155.4871 H   0  0  0  0  0  0  0  0  0  0  0  0  # atno 8009 bound_to 7997
  155.9475  140.1098  157.0994 H   0  0  0  0  0  0  0  0  0  0  0  0  # atno 8010 bound_to 7997
  140.1057  143.4573  152.1784 H   0  0  0  0  0  0  0  0  0  0  0  0  # atno 10167 bound_to 10162
  156.0089  130.4550  150.3672 H   0  0  0  0  0  0  0  0  0  0  0  0  # atno 10718 bound_to 10713
  154.2370  135.6350  153.5194 H   0  0  0  0  0  0  0  0  0  0  0  0  # atno 10763 bound_to 10752
  152.9937  135.5533  154.5951 H   0  0  0  0  0  0  0  0  0  0  0  0  # atno 10764 bound_to 10752
  154.5447  135.2897  155.1038 H   0  0  0  0  0  0  0  0  0  0  0  0  # atno 10765 bound_to 10752
  140.8986  134.1719  157.4477 H   0  0  0  0  0  0  0  0  0  0  0  0  # atno 11005 bound_to 11000
  146.3374  139.8875  142.8814 LP  0  0  0  0  0  0  0  0  0  0  0  0  # atno 17320 bound_to 7965
  145.2599  141.0073  143.3832 LP  0  0  0  0  0  0  0  0  0  0  0  0  # atno 17321 bound_to 7965
  139.5647  144.7427  151.4057 LP  0  0  0  0  0  0  0  0  0  0  0  0  # atno 17342 bound_to 10162
  140.6953  143.7763  150.7318 LP  0  0  0  0  0  0  0  0  0  0  0  0  # atno 17343 bound_to 10162
  157.1758  131.0380  151.2773 LP  0  0  0  0  0  0  0  0  0  0  0  0  # atno 17370 bound_to 10713
  157.4189  130.7426  149.6897 LP  0  0  0  0  0  0  0  0  0  0  0  0  # atno 17371 bound_to 10713
  139.8739  134.9889  156.5431 LP  0  0  0  0  0  0  0  0  0  0  0  0  # atno 17394 bound_to 11000
  140.8258  133.8318  155.8938 LP  0  0  0  0  0  0  0  0  0  0  0  0  # atno 17395 bound_to 11000

$$$$
