AV-unprocessed.smi:1816|AV-procd|sdf|7364|dock4
  -GOLD-   22720 9 23D 1   1.00000     0.00000
 Structure written by MMmdl.
 36 37  0  0  0  0  0  0  0  0  2 V2000
  147.5558  138.1579  154.3773 C   0  0  0  0  0  0  0  0  0  0  0  0
  146.2639  138.7600  153.7800 C   0  0  2  0  0  0  0  0  0  0  0  0
  146.1681  138.4593  152.2613 C   0  0  0  0  0  0  0  0  0  0  0  0
  146.5678  137.0967  151.9230 N   0  0  0  0  0  0  0  0  0  0  0  0
  145.7191  136.0878  151.6810 C   0  0  0  0  0  0  0  0  0  0  0  0
  144.4950  136.2112  151.7208 O   0  0  0  0  0  0  0  0  0  0  0  0
  146.3788  134.9530  151.3998 N   0  0  0  0  0  0  0  0  0  0  0  0
  145.8302  133.6802  151.1057 C   0  0  0  0  0  0  0  0  0  0  0  0
  146.6506  132.6948  150.7379 N   0  0  0  0  0  0  0  0  0  0  0  0
  145.9614  131.5054  150.4839 C   0  0  0  0  0  0  0  0  0  0  0  0
  144.6044  131.6041  150.6664 C   0  0  0  0  0  0  0  0  0  0  0  0
  144.1308  133.2054  151.1669 S   0  0  0  0  0  0  0  0  0  0  0  0
  146.1808  140.2285  154.0279 N   0  3  0  0  0  0  0  0  0  0  0  0
  146.1469  140.6255  155.4592 C   0  0  0  0  0  0  0  0  0  0  0  0
  146.9762  141.9098  155.5968 C   0  0  0  0  0  0  0  0  0  0  0  0
  147.2334  142.3626  154.1646 C   0  0  0  0  0  0  0  0  0  0  0  0
  147.2297  141.0519  153.3871 C   0  0  0  0  0  0  0  0  0  0  0  0
  147.6236  137.0861  154.1908 H   0  0  0  0  0  0  0  0  0  0  0  0
  147.6018  138.2794  155.4593 H   0  0  0  0  0  0  0  0  0  0  0  0
  148.4441  138.6234  153.9497 H   0  0  0  0  0  0  0  0  0  0  0  0
  145.4160  138.2964  154.2867 H   0  0  0  0  0  0  0  0  0  0  0  0
  145.1580  138.6225  151.8832 H   0  0  0  0  0  0  0  0  0  0  0  0
  146.8125  139.1432  151.7081 H   0  0  0  0  0  0  0  0  0  0  0  0
  147.5588  136.9110  151.8670 H   0  0  0  0  0  0  0  0  0  0  0  0
  147.3871  135.0011  151.3989 H   0  0  0  0  0  0  0  0  0  0  0  0
  146.5181  130.6324  150.1763 H   0  0  0  0  0  0  0  0  0  0  0  0
  143.8579  130.8348  150.5368 H   0  0  0  0  0  0  0  0  0  0  0  0
  145.1116  140.7876  155.7608 H   0  0  0  0  0  0  0  0  0  0  0  0
  146.5630  139.8498  156.1041 H   0  0  0  0  0  0  0  0  0  0  0  0
  146.4730  142.6733  156.1908 H   0  0  0  0  0  0  0  0  0  0  0  0
  147.9250  141.6828  156.0851 H   0  0  0  0  0  0  0  0  0  0  0  0
  146.4159  142.9995  153.8234 H   0  0  0  0  0  0  0  0  0  0  0  0
  148.1643  142.9195  154.0546 H   0  0  0  0  0  0  0  0  0  0  0  0
  148.1992  140.5614  153.4894 H   0  0  0  0  0  0  0  0  0  0  0  0
  147.0345  141.2090  152.3258 H   0  0  0  0  0  0  0  0  0  0  0  0
  145.3074  140.5454  153.6321 H   0  0  0  0  0  0  0  0  0  0  0  0
  1  2  1  0  0  0  0
  1 18  1  0  0  0  0
  1 19  1  0  0  0  0
  1 20  1  0  0  0  0
  2  3  1  0  0  0  0
  2 13  1  0  0  0  0
  2 21  1  0  0  0  0
  3  4  1  0  0  0  0
  3 22  1  0  0  0  0
  3 23  1  0  0  0  0
  4  5  1  0  0  0  0
  4 24  1  0  0  0  0
  5  6  2  0  0  0  0
  5  7  1  0  0  0  0
  7  8  1  0  0  0  0
  7 25  1  0  0  0  0
  8 12  1  0  0  0  0
  8  9  2  0  0  0  0
  9 10  1  0  0  0  0
 10 11  2  0  0  0  0
 10 26  1  0  0  0  0
 11 12  1  0  0  0  0
 11 27  1  0  0  0  0
 13 17  1  0  0  0  0
 13 14  1  0  0  0  0
 13 36  1  0  0  0  0
 14 15  1  0  0  0  0
 14 28  1  0  0  0  0
 14 29  1  0  0  0  0
 15 16  1  0  0  0  0
 15 30  1  0  0  0  0
 15 31  1  0  0  0  0
 16 17  1  0  0  0  0
 16 32  1  0  0  0  0
 16 33  1  0  0  0  0
 17 34  1  0  0  0  0
 17 35  1  0  0  0  0
M  CHG  1  13   1
M  END
> <s_m_source_file>
AV-unprocessed.smi

> <i_m_source_file_index>
1816

> <i_lp_mmshare_version>
43012

> <i_f3d_flags>
0

> <s_epik_input>
W0NIMl0xW0NIMl1bQ0gyXVtDSDJdTjFbQ0BIXShbQ0gzXSlbQ0gyXVtOSF1DKD1PKVtOSF1jMm5bY0hdW2NIXXMy

> <s_epik_cmdline>
J2VwaWtfcHl0aG9uJywgJy1waCcsICc3LjAnLCAnLXRuJywgJzgnLCAnLW1hJywgJzIwMCcsICctbWV0YWxfYmluZGluZycsICctaW1hZScsICc8aW5maWxlLm1hZT4nLCAnLW9tYWUnLCAnPG91dGZpbGUubWFlPic=

> <r_lp_tautomer_probability>
0.999

> <r_epik_Ionization_Penalty>
0.000988651

> <r_epik_Ionization_Penalty_Charging>
0.000848324

> <r_epik_Ionization_Penalty_Neutral>
0.000140327

> <r_epik_State_Penalty>
0.000546901

> <r_epik_Charging_Adjusted_Penalty>
0.00139523

> <i_epik_Tot_Q>
1

> <i_epik_Tot_abs_Q>
1

> <r_epik_Metal_State_Penalty>
0.0571994

> <b_epik_Metal_Only>
0

> <s_lp_Force_Field>
OPLS_2005

> <r_lp_Energy>
26.1685

> <b_lp_Chiralities_Consistent>
1

> <s_lp_Variant>
AV-unprocessed.smi:1816-1

> <Gold.Version>
5.8.1

> <Gold.Id.Protein>
6NUR|6NUR_protein|mol2

> <Gold.PLP.Fitness>
40.8595

> <Gold.PLP.PLP>
-27.5860

> <Gold.PLP.part.hbond>
-2.9747

> <Gold.PLP.part.metal>
0.0000

> <Gold.PLP.part.buried>
-4.1823

> <Gold.PLP.part.nonpolar>
-21.9246

> <Gold.PLP.part.repulsive>
1.4258

> <Gold.PLP.ligand.clash>
0.0000

> <Gold.PLP.ligand.torsion>
0.2840

> <Gold.PLP.Chemscore.Hbond>
3.8800

> <Gold.PLP.Chemscore.CHOScore>
0.7199

> <Gold.PLP.Chemscore.Metal>
0.0000

> <Gold.Chemscore.Hbonds>
donor molecule, donor type, donor heavy atom, donor atom, acceptor molecule, acceptor atom, score
      L1  H     4    24       P1  7948  0.99
      L1  H     7    25       P1  7948  0.88
      L1  H    13    36       P1 10175  2.00
      L1  C    10    26       P1 10747  0.73

> <Gold.PLP.Chemscore.Internal.Correction>
0.0419

> <Gold.Rescore>
     Score         DG    S(hbond)    S(metal)    S(lipo)     H(rot)  DE(clash)    DE(int)     intcor
     16.01     -17.09       2.59        0.00      60.33       1.60       0.08       1.00       ----

> <Gold.Chemscore.Fitness>
16.0122

> <Gold.Chemscore.DG>
-17.0883

> <Gold.Chemscore.ZeroCoef>
-5.4800

> <Gold.Chemscore.Hbond>
2.5909

> <Gold.Chemscore.Metal>
0.0000

> <Gold.Chemscore.Lipo>
60.3275

> <Gold.Chemscore.Internal_Hbond>
0.0000

> <Gold.Chemscore.DEClash>
0.0798

> <Gold.Chemscore.DEInternal>
0.9964

> <Gold.Chemscore.Rot>
1.6029

> <Gold.Chemscore.Internal.Correction>
   9.000000E+99

> <Gold.Chemscore.Hbonds>
donor molecule, donor type, donor heavy atom, donor atom, acceptor molecule, acceptor atom, score
      L1  H     4    24       P1  7948  0.92
      L1  H     7    25       P1  7948  0.51
      L1  H    13    36       P1 10175  0.94

> <Gold.Chemscore.Hbond.Weighted>
-8.6536

> <Gold.Chemscore.Metal.Weighted>
-0.0000

> <Gold.Chemscore.Lipo.Weighted>
-7.0583

> <Gold.Chemscore.Internal_Hbond.Weighted>
0.0000

> <Gold.Chemscore.DEClash.Weighted>
0.0798

> <Gold.Chemscore.DEInternal.Weighted>
0.9964

> <Gold.Chemscore.Rot.Weighted>
4.1035

> <Gold.Chemscore.Internal.Correction.Weighted>
   9.000000E+99

> <Gold.Protein.RotatedTorsions>
[ 6907 6896 6895 6894 ] final  154.14 input  -60.11 | X-H torsion
[ 7974 7965 7964 7962 ] final   61.36 input  175.53 | X-H torsion
[ 8008 7997 7996 7995 ] final  101.74 input   59.86 | X-H torsion
[ 10167 10162 10161 10158 ] final   14.70 input  -65.29 | X-H torsion
[ 10718 10713 10712 10709 ] final  146.26 input   66.30 | X-H torsion
[ 10763 10752 10751 10750 ] final  -29.09 input  -60.55 | X-H torsion
[ 11005 11000 10999 10996 ] final  105.77 input  -57.11 | X-H torsion

> <Gold.Protein.ActiveResidues>
 VAL166  LYS551  ARG553  GLY616  TRP617  ASP618  TYR619  PRO620  LYS621  CYS622 
 ASP623  PHE694  ASN695  SER759  ASP760  ASP761  ALA762  ILE779  LEU786  VAL792 
 PHE793  MET794  SER795  GLU796  ALA797  LYS798  CYS799  TRP800  GLU811  SER814 

> <Gold.Protein.RotatedAtoms>
  152.0628  133.4070  159.4424 H   0  0  0  0  0  0  0  0  0  0  0  0  # atno 6907 bound_to 6896
  150.6865  134.3181  159.4784 H   0  0  0  0  0  0  0  0  0  0  0  0  # atno 6908 bound_to 6896
  152.1004  134.9345  160.0620 H   0  0  0  0  0  0  0  0  0  0  0  0  # atno 6909 bound_to 6896
  145.8857  139.3474  143.0679 H   0  0  0  0  0  0  0  0  0  0  0  0  # atno 7974 bound_to 7965
  156.1327  140.3192  155.8374 H   0  0  0  0  0  0  0  0  0  0  0  0  # atno 8008 bound_to 7997
  155.4301  140.0518  157.3036 H   0  0  0  0  0  0  0  0  0  0  0  0  # atno 8009 bound_to 7997
  154.4912  140.2093  155.9557 H   0  0  0  0  0  0  0  0  0  0  0  0  # atno 8010 bound_to 7997
  140.5918  143.8781  150.6880 H   0  0  0  0  0  0  0  0  0  0  0  0  # atno 10167 bound_to 10162
  157.3353  131.0927  151.1128 H   0  0  0  0  0  0  0  0  0  0  0  0  # atno 10718 bound_to 10713
  153.7590  135.6920  153.4929 H   0  0  0  0  0  0  0  0  0  0  0  0  # atno 10763 bound_to 10752
  153.1951  135.4457  155.0196 H   0  0  0  0  0  0  0  0  0  0  0  0  # atno 10764 bound_to 10752
  154.8160  135.3399  154.7107 H   0  0  0  0  0  0  0  0  0  0  0  0  # atno 10765 bound_to 10752
  139.8806  134.9347  156.5564 H   0  0  0  0  0  0  0  0  0  0  0  0  # atno 11005 bound_to 11000
  145.8970  140.9267  143.0522 LP  0  0  0  0  0  0  0  0  0  0  0  0  # atno 17320 bound_to 7965
  144.6728  140.0982  143.7462 LP  0  0  0  0  0  0  0  0  0  0  0  0  # atno 17321 bound_to 7965
  140.2306  143.3739  152.1569 LP  0  0  0  0  0  0  0  0  0  0  0  0  # atno 17342 bound_to 10162
  139.5232  144.7068  151.5328 LP  0  0  0  0  0  0  0  0  0  0  0  0  # atno 17343 bound_to 10162
  157.2361  130.6548  149.5870 LP  0  0  0  0  0  0  0  0  0  0  0  0  # atno 17370 bound_to 10713
  155.9700  130.4583  150.5995 LP  0  0  0  0  0  0  0  0  0  0  0  0  # atno 17371 bound_to 10713
  140.8201  133.8360  155.8888 LP  0  0  0  0  0  0  0  0  0  0  0  0  # atno 17394 bound_to 11000
  140.9426  134.1882  157.4787 LP  0  0  0  0  0  0  0  0  0  0  0  0  # atno 17395 bound_to 11000

$$$$
