AV-unprocessed.smi:1870|AV-procd|sdf|7597|dock3
  -GOLD-   22720 9313D 1   1.00000     0.00000
 Structure written by MMmdl.
 47 49  0  0  0  0  0  0  0  0  1 V2000
  145.0476  144.2895  153.0859 C   0  0  0  0  0  0  0  0  0  0  0  0
  145.3484  143.5238  154.3460 C   0  0  0  0  0  0  0  0  0  0  0  0
  146.2255  142.5787  154.2562 N   0  0  0  0  0  0  0  0  0  0  0  0
  146.5728  141.8121  155.3521 N   0  0  0  0  0  0  0  0  0  0  0  0
  147.5758  140.7794  155.0642 C   0  0  0  0  0  0  0  0  0  0  0  0
  148.9321  141.3897  154.6501 C   0  0  2  0  0  0  0  0  0  0  0  0
  148.9677  141.4910  153.2406 O   0  0  0  0  0  0  0  0  0  0  0  0
  150.1062  140.4782  155.0646 C   0  0  0  0  0  0  0  0  0  0  0  0
  150.8708  140.9214  156.2326 N   0  0  0  0  0  0  0  0  0  0  0  0
  150.4342  140.2218  157.4370 C   0  0  0  0  0  0  0  0  0  0  0  0
  151.3815  140.4766  158.6193 C   0  0  0  0  0  0  0  0  0  0  0  0
  151.7136  141.9503  158.7802 C   0  0  0  0  0  0  0  0  0  0  0  0
  152.3153  142.4151  159.9675 C   0  0  0  0  0  0  0  0  0  0  0  0
  152.6465  143.7770  160.1045 C   0  0  0  0  0  0  0  0  0  0  0  0
  152.3781  144.6766  159.0550 C   0  0  0  0  0  0  0  0  0  0  0  0
  151.7785  144.2158  157.8668 C   0  0  0  0  0  0  0  0  0  0  0  0
  151.4487  142.8525  157.7221 C   0  0  0  0  0  0  0  0  0  0  0  0
  150.7670  142.3695  156.4480 C   0  0  0  0  0  0  0  0  0  0  0  0
  146.0440  141.9580  156.6004 C   0  0  0  0  0  0  0  0  0  0  0  0
  146.3753  141.2474  157.5505 O   0  0  0  0  0  0  0  0  0  0  0  0
  145.0542  143.0336  156.6960 C   0  0  0  0  0  0  0  0  0  0  0  0
  144.4783  143.2236  157.9880 C   0  0  0  0  0  0  0  0  0  0  0  0
  144.0120  143.3989  159.0329 N   0  0  0  0  0  0  0  0  0  0  0  0
  144.7087  143.7966  155.6288 C   0  0  0  0  0  0  0  0  0  0  0  0
  143.6863  144.9241  155.6757 C   0  0  0  0  0  0  0  0  0  0  0  0
  145.3073  145.3418  153.2016 H   0  0  0  0  0  0  0  0  0  0  0  0
  143.9877  144.2274  152.8389 H   0  0  0  0  0  0  0  0  0  0  0  0
  145.6071  143.9045  152.2320 H   0  0  0  0  0  0  0  0  0  0  0  0
  147.7108  140.1942  155.9756 H   0  0  0  0  0  0  0  0  0  0  0  0
  147.2271  140.0567  154.3236 H   0  0  0  0  0  0  0  0  0  0  0  0
  149.0365  142.3803  155.0911 H   0  0  0  0  0  0  0  0  0  0  0  0
  149.2858  140.6720  152.8918 H   0  0  0  0  0  0  0  0  0  0  0  0
  149.7306  139.4713  155.2535 H   0  0  0  0  0  0  0  0  0  0  0  0
  150.7758  140.3841  154.2079 H   0  0  0  0  0  0  0  0  0  0  0  0
  149.4231  140.5395  157.6973 H   0  0  0  0  0  0  0  0  0  0  0  0
  150.3837  139.1474  157.2567 H   0  0  0  0  0  0  0  0  0  0  0  0
  150.9419  140.0935  159.5408 H   0  0  0  0  0  0  0  0  0  0  0  0
  152.3155  139.9354  158.4646 H   0  0  0  0  0  0  0  0  0  0  0  0
  152.5276  141.7280  160.7735 H   0  0  0  0  0  0  0  0  0  0  0  0
  153.1078  144.1315  161.0143 H   0  0  0  0  0  0  0  0  0  0  0  0
  152.6304  145.7213  159.1622 H   0  0  0  0  0  0  0  0  0  0  0  0
  151.5689  144.9122  157.0682 H   0  0  0  0  0  0  0  0  0  0  0  0
  151.2109  142.9082  155.6119 H   0  0  0  0  0  0  0  0  0  0  0  0
  149.7184  142.6670  156.4963 H   0  0  0  0  0  0  0  0  0  0  0  0
  143.3035  145.0933  156.6818 H   0  0  0  0  0  0  0  0  0  0  0  0
  142.8350  144.6936  155.0347 H   0  0  0  0  0  0  0  0  0  0  0  0
  144.1297  145.8605  155.3356 H   0  0  0  0  0  0  0  0  0  0  0  0
  1  2  1  0  0  0  0
  1 26  1  0  0  0  0
  1 27  1  0  0  0  0
  1 28  1  0  0  0  0
  2 24  1  0  0  0  0
  2  3  2  0  0  0  0
  3  4  1  0  0  0  0
  4  5  1  0  0  0  0
  4 19  1  0  0  0  0
  5  6  1  0  0  0  0
  5 29  1  0  0  0  0
  5 30  1  0  0  0  0
  6  7  1  0  0  0  0
  6  8  1  0  0  0  0
  6 31  1  0  0  0  0
  7 32  1  0  0  0  0
  8  9  1  0  0  0  0
  8 33  1  0  0  0  0
  8 34  1  0  0  0  0
  9 18  1  0  0  0  0
  9 10  1  0  0  0  0
 10 11  1  0  0  0  0
 10 35  1  0  0  0  0
 10 36  1  0  0  0  0
 11 12  1  0  0  0  0
 11 37  1  0  0  0  0
 11 38  1  0  0  0  0
 12 17  2  0  0  0  0
 12 13  1  0  0  0  0
 13 14  2  0  0  0  0
 13 39  1  0  0  0  0
 14 15  1  0  0  0  0
 14 40  1  0  0  0  0
 15 16  2  0  0  0  0
 15 41  1  0  0  0  0
 16 17  1  0  0  0  0
 16 42  1  0  0  0  0
 17 18  1  0  0  0  0
 18 43  1  0  0  0  0
 18 44  1  0  0  0  0
 19 20  2  0  0  0  0
 19 21  1  0  0  0  0
 21 22  1  0  0  0  0
 21 24  2  0  0  0  0
 22 23  3  0  0  0  0
 24 25  1  0  0  0  0
 25 45  1  0  0  0  0
 25 46  1  0  0  0  0
 25 47  1  0  0  0  0
M  END
> <s_m_source_file>
AV-unprocessed.smi

> <i_m_source_file_index>
1870

> <i_lp_mmshare_version>
43012

> <i_f3d_flags>
0

> <s_epik_input>
TiNDYyhjMVtDSDNdKWMoPU8pbihuYzFbQ0gzXSlbQ0gyXVtDQEhdKFtPSF0pW0NIMl1OKFtDSDJdW0NIMl0yKVtDSDJdYyhjMjMpW2NIXVtjSF1bY0hdW2NIXTM=

> <s_epik_cmdline>
J2VwaWtfcHl0aG9uJywgJy1waCcsICc3LjAnLCAnLXRuJywgJzgnLCAnLW1hJywgJzIwMCcsICctbWV0YWxfYmluZGluZycsICctaW1hZScsICc8aW5maWxlLm1hZT4nLCAnLW9tYWUnLCAnPG91dGZpbGUubWFlPic=

> <r_epik_Ionization_Penalty>
2.30251

> <r_epik_Ionization_Penalty_Charging>
1.06171e-10

> <r_epik_Ionization_Penalty_Neutral>
2.30251

> <r_epik_State_Penalty>
2.45335

> <r_epik_Charging_Adjusted_Penalty>
2.45335

> <i_epik_Tot_Q>
0

> <i_epik_Tot_abs_Q>
0

> <r_epik_Metal_State_Penalty>
2.45335

> <b_epik_Metal_Only>
0

> <s_lp_Force_Field>
OPLS_2005

> <r_lp_Energy>
46.0919

> <b_lp_Chiralities_Consistent>
1

> <s_lp_Variant>
AV-unprocessed.smi:1870-5

> <Gold.Version>
5.8.1

> <Gold.Id.Protein>
6NUR|6NUR_protein|mol2

> <Gold.PLP.Fitness>
52.0442

> <Gold.PLP.PLP>
-50.5420

> <Gold.PLP.part.hbond>
-2.6898

> <Gold.PLP.part.metal>
0.0000

> <Gold.PLP.part.buried>
-6.0803

> <Gold.PLP.part.nonpolar>
-42.0243

> <Gold.PLP.part.repulsive>
0.2859

> <Gold.PLP.ligand.clash>
0.0235

> <Gold.PLP.ligand.torsion>
1.5499

> <Gold.PLP.Chemscore.Hbond>
1.5280

> <Gold.PLP.Chemscore.CHOScore>
0.0000

> <Gold.PLP.Chemscore.Metal>
0.0000

> <Gold.Chemscore.Hbonds>
donor molecule, donor type, donor heavy atom, donor atom, acceptor molecule, acceptor atom, score
      L1  H     7    32       P1  7957  0.66
      P1  H  8011  8017       L1     7  0.78

> <Gold.PLP.Chemscore.Internal.Correction>
0.0414

> <Gold.Rescore>
     Score         DG    S(hbond)    S(metal)    S(lipo)     H(rot)  DE(clash)    DE(int)     intcor
     18.96     -20.60       1.28        0.00     138.58       2.10       0.11       1.53       ----

> <Gold.Chemscore.Fitness>
18.9607

> <Gold.Chemscore.DG>
-20.5959

> <Gold.Chemscore.ZeroCoef>
-5.4800

> <Gold.Chemscore.Hbond>
1.2788

> <Gold.Chemscore.Metal>
0.0000

> <Gold.Chemscore.Lipo>
138.5751

> <Gold.Chemscore.Internal_Hbond>
0.0000

> <Gold.Chemscore.DEClash>
0.1061

> <Gold.Chemscore.DEInternal>
1.5291

> <Gold.Chemscore.Rot>
2.0971

> <Gold.Chemscore.Internal.Correction>
   9.000000E+99

> <Gold.Chemscore.Hbonds>
donor molecule, donor type, donor heavy atom, donor atom, acceptor molecule, acceptor atom, score
      L1  H     7    32       P1  7957  0.66
      P1  H  8011  8017       L1     7  0.12

> <Gold.Chemscore.Hbond.Weighted>
-4.2712

> <Gold.Chemscore.Metal.Weighted>
-0.0000

> <Gold.Chemscore.Lipo.Weighted>
-16.2133

> <Gold.Chemscore.Internal_Hbond.Weighted>
0.0000

> <Gold.Chemscore.DEClash.Weighted>
0.1061

> <Gold.Chemscore.DEInternal.Weighted>
1.5291

> <Gold.Chemscore.Rot.Weighted>
5.3685

> <Gold.Chemscore.Internal.Correction.Weighted>
   9.000000E+99

> <Gold.Protein.RotatedTorsions>
[ 6907 6896 6895 6894 ] final   -1.18 input  -60.11 | X-H torsion
[ 7974 7965 7964 7962 ] final  173.90 input  175.53 | X-H torsion
[ 8008 7997 7996 7995 ] final   23.00 input   59.86 | X-H torsion
[ 10167 10162 10161 10158 ] final  164.38 input  -65.29 | X-H torsion
[ 10718 10713 10712 10709 ] final    9.45 input   66.30 | X-H torsion
[ 10763 10752 10751 10750 ] final  -71.89 input  -60.55 | X-H torsion
[ 11005 11000 10999 10996 ] final  -26.45 input  -57.11 | X-H torsion

> <Gold.Protein.ActiveResidues>
 VAL166  LYS551  ARG553  GLY616  TRP617  ASP618  TYR619  PRO620  LYS621  CYS622 
 ASP623  PHE694  ASN695  SER759  ASP760  ASP761  ALA762  ILE779  LEU786  VAL792 
 PHE793  MET794  SER795  GLU796  ALA797  LYS798  CYS799  TRP800  GLU811  SER814 

> <Gold.Protein.RotatedAtoms>
  151.5502  135.1067  159.9947 H   0  0  0  0  0  0  0  0  0  0  0  0  # atno 6907 bound_to 6896
  152.4495  133.7597  159.6750 H   0  0  0  0  0  0  0  0  0  0  0  0  # atno 6908 bound_to 6896
  150.8419  133.7855  159.3082 H   0  0  0  0  0  0  0  0  0  0  0  0  # atno 6909 bound_to 6896
  144.7233  139.9717  143.6437 H   0  0  0  0  0  0  0  0  0  0  0  0  # atno 7974 bound_to 7965
  154.9743  140.3094  155.4974 H   0  0  0  0  0  0  0  0  0  0  0  0  # atno 8008 bound_to 7997
  156.2962  140.2278  156.4777 H   0  0  0  0  0  0  0  0  0  0  0  0  # atno 8009 bound_to 7997
  154.7847  140.0443  157.1143 H   0  0  0  0  0  0  0  0  0  0  0  0  # atno 8010 bound_to 7997
  139.4888  144.4241  151.9150 H   0  0  0  0  0  0  0  0  0  0  0  0  # atno 10167 bound_to 10162
  156.9665  130.5952  149.5665 H   0  0  0  0  0  0  0  0  0  0  0  0  # atno 10718 bound_to 10713
  154.4381  135.5947  153.6111 H   0  0  0  0  0  0  0  0  0  0  0  0  # atno 10763 bound_to 10752
  152.9803  135.5991  154.3757 H   0  0  0  0  0  0  0  0  0  0  0  0  # atno 10764 bound_to 10752
  154.3603  135.2841  155.2302 H   0  0  0  0  0  0  0  0  0  0  0  0  # atno 10765 bound_to 10752
  140.9030  133.7511  156.0569 H   0  0  0  0  0  0  0  0  0  0  0  0  # atno 11005 bound_to 11000
  146.0558  139.3555  143.0612 LP  0  0  0  0  0  0  0  0  0  0  0  0  # atno 17320 bound_to 7965
  145.8157  140.9704  143.0925 LP  0  0  0  0  0  0  0  0  0  0  0  0  # atno 17321 bound_to 7965
  140.3687  144.2883  150.5923 LP  0  0  0  0  0  0  0  0  0  0  0  0  # atno 17342 bound_to 10162
  140.5339  143.2237  151.8195 LP  0  0  0  0  0  0  0  0  0  0  0  0  # atno 17343 bound_to 10162
  156.0300  130.5392  150.8510 LP  0  0  0  0  0  0  0  0  0  0  0  0  # atno 17370 bound_to 10713
  157.5622  131.0946  150.9542 LP  0  0  0  0  0  0  0  0  0  0  0  0  # atno 17371 bound_to 10713
  140.8206  134.3293  157.5383 LP  0  0  0  0  0  0  0  0  0  0  0  0  # atno 17394 bound_to 11000
  139.8745  134.9307  156.3509 LP  0  0  0  0  0  0  0  0  0  0  0  0  # atno 17395 bound_to 11000

$$$$
