AV-unprocessed.smi:2186|AV-procd|sdf|8876|dock5
  -GOLD-   2272012 73D 1   1.00000     0.00000
 Structure written by MMmdl.
 43 44  0  0  0  0  0  0  0  0  1 V2000
  142.4387  133.2844  161.2229 C   0  0  0  0  0  0  0  0  0  0  0  0
  142.9674  133.8713  162.5399 C   0  0  0  0  0  0  0  0  0  0  0  0
  141.8779  134.5636  163.3716 C   0  0  0  0  0  0  0  0  0  0  0  0
  144.1568  134.7528  162.3232 C   0  0  0  0  0  0  0  0  0  0  0  0
  145.2955  134.3360  161.7614 N   0  0  0  0  0  0  0  0  0  0  0  0
  146.2627  135.3436  161.6844 C   0  0  0  0  0  0  0  0  0  0  0  0
  147.6102  135.0462  161.0939 C   0  0  0  0  0  0  0  0  0  0  0  0
  148.0760  136.2223  160.2344 C   0  0  0  0  0  0  0  0  0  0  0  0
  147.9591  137.3747  160.6508 O   0  0  0  0  0  0  0  0  0  0  0  0
  148.6080  135.9171  159.0404 N   0  0  0  0  0  0  0  0  0  0  0  0
  149.1534  136.8822  158.0952 C   0  0  0  0  0  0  0  0  0  0  0  0
  150.6568  136.6402  157.8664 C   0  0  0  0  0  0  0  0  0  0  0  0
  151.2541  137.4386  156.7978 N   0  0  0  0  0  0  0  0  0  0  0  0
  151.1173  138.8649  157.0731 C   0  0  0  0  0  0  0  0  0  0  0  0
  151.7420  139.7269  155.9627 C   0  0  0  0  0  0  0  0  0  0  0  0
  151.1420  139.3996  154.7138 O   0  0  0  0  0  0  0  0  0  0  0  0
  151.2870  138.0229  154.3806 C   0  0  0  0  0  0  0  0  0  0  0  0
  150.6702  137.1513  155.4890 C   0  0  0  0  0  0  0  0  0  0  0  0
  145.8311  136.5452  162.1893 C   0  0  0  0  0  0  0  0  0  0  0  0
  144.1989  136.4496  162.7901 S   0  0  0  0  0  0  0  0  0  0  0  0
  143.2188  132.7298  160.7003 H   0  0  0  0  0  0  0  0  0  0  0  0
  142.0819  134.0681  160.5538 H   0  0  0  0  0  0  0  0  0  0  0  0
  141.6099  132.5994  161.4028 H   0  0  0  0  0  0  0  0  0  0  0  0
  143.3164  133.0261  163.1343 H   0  0  0  0  0  0  0  0  0  0  0  0
  142.2692  134.8913  164.3351 H   0  0  0  0  0  0  0  0  0  0  0  0
  141.0440  133.8890  163.5662 H   0  0  0  0  0  0  0  0  0  0  0  0
  141.4824  135.4399  162.8570 H   0  0  0  0  0  0  0  0  0  0  0  0
  148.3462  134.8538  161.8759 H   0  0  0  0  0  0  0  0  0  0  0  0
  147.5700  134.1451  160.4808 H   0  0  0  0  0  0  0  0  0  0  0  0
  148.6685  134.9421  158.7842 H   0  0  0  0  0  0  0  0  0  0  0  0
  148.6132  136.7766  157.1540 H   0  0  0  0  0  0  0  0  0  0  0  0
  148.9600  137.8932  158.4556 H   0  0  0  0  0  0  0  0  0  0  0  0
  151.2033  136.8052  158.7964 H   0  0  0  0  0  0  0  0  0  0  0  0
  150.7866  135.5834  157.6275 H   0  0  0  0  0  0  0  0  0  0  0  0
  150.0619  139.1220  157.1768 H   0  0  0  0  0  0  0  0  0  0  0  0
  151.5917  139.1061  158.0247 H   0  0  0  0  0  0  0  0  0  0  0  0
  151.5838  140.7857  156.1693 H   0  0  0  0  0  0  0  0  0  0  0  0
  152.8200  139.5676  155.9097 H   0  0  0  0  0  0  0  0  0  0  0  0
  150.7915  137.8325  153.4285 H   0  0  0  0  0  0  0  0  0  0  0  0
  152.3430  137.7842  154.2455 H   0  0  0  0  0  0  0  0  0  0  0  0
  150.8177  136.1039  155.2283 H   0  0  0  0  0  0  0  0  0  0  0  0
  149.5922  137.3178  155.5200 H   0  0  0  0  0  0  0  0  0  0  0  0
  146.3757  137.4760  162.2487 H   0  0  0  0  0  0  0  0  0  0  0  0
  1  2  1  0  0  0  0
  1 21  1  0  0  0  0
  1 22  1  0  0  0  0
  1 23  1  0  0  0  0
  2  3  1  0  0  0  0
  2  4  1  0  0  0  0
  2 24  1  0  0  0  0
  3 25  1  0  0  0  0
  3 26  1  0  0  0  0
  3 27  1  0  0  0  0
  4 20  1  0  0  0  0
  4  5  2  0  0  0  0
  5  6  1  0  0  0  0
  6  7  1  0  0  0  0
  6 19  2  0  0  0  0
  7  8  1  0  0  0  0
  7 28  1  0  0  0  0
  7 29  1  0  0  0  0
  8  9  2  0  0  0  0
  8 10  1  0  0  0  0
 10 11  1  0  0  0  0
 10 30  1  0  0  0  0
 11 12  1  0  0  0  0
 11 31  1  0  0  0  0
 11 32  1  0  0  0  0
 12 13  1  0  0  0  0
 12 33  1  0  0  0  0
 12 34  1  0  0  0  0
 13 18  1  0  0  0  0
 13 14  1  0  0  0  0
 14 15  1  0  0  0  0
 14 35  1  0  0  0  0
 14 36  1  0  0  0  0
 15 16  1  0  0  0  0
 15 37  1  0  0  0  0
 15 38  1  0  0  0  0
 16 17  1  0  0  0  0
 17 18  1  0  0  0  0
 17 39  1  0  0  0  0
 17 40  1  0  0  0  0
 18 41  1  0  0  0  0
 18 42  1  0  0  0  0
 19 20  1  0  0  0  0
 19 43  1  0  0  0  0
M  END
> <s_m_source_file>
AV-unprocessed.smi

> <i_m_source_file_index>
2186

> <i_lp_mmshare_version>
43012

> <i_f3d_flags>
0

> <s_epik_input>
W0NIM11bQ0hdKFtDSDNdKWMxbmMoW2NIXXMxKVtDSDJdQyg9TylbTkhdW0NIMl1bQ0gyXU4yW0NIMl1bQ0gyXU9bQ0gyXVtDSDJdMg==

> <s_epik_cmdline>
J2VwaWtfcHl0aG9uJywgJy1waCcsICc3LjAnLCAnLXRuJywgJzgnLCAnLW1hJywgJzIwMCcsICctbWV0YWxfYmluZGluZycsICctaW1hZScsICc8aW5maWxlLm1hZT4nLCAnLW9tYWUnLCAnPG91dGZpbGUubWFlPic=

> <r_epik_Ionization_Penalty>
0.226788

> <r_epik_Ionization_Penalty_Charging>
0

> <r_epik_Ionization_Penalty_Neutral>
0.226788

> <r_epik_State_Penalty>
0.21727

> <r_epik_Charging_Adjusted_Penalty>
0.21727

> <i_epik_Tot_Q>
0

> <i_epik_Tot_abs_Q>
0

> <r_epik_Metal_State_Penalty>
0.217263

> <b_epik_Metal_Only>
0

> <s_lp_Force_Field>
OPLS_2005

> <r_lp_Energy>
12.6153

> <b_lp_Chiralities_Consistent>
1

> <s_lp_Variant>
AV-unprocessed.smi:2186-1

> <Gold.Version>
5.8.1

> <Gold.Id.Protein>
6NUR|6NUR_protein|mol2

> <Gold.PLP.Fitness>
37.2456

> <Gold.PLP.PLP>
-30.6858

> <Gold.PLP.part.hbond>
-3.0000

> <Gold.PLP.part.metal>
0.0000

> <Gold.PLP.part.buried>
-5.3850

> <Gold.PLP.part.nonpolar>
-22.7677

> <Gold.PLP.part.repulsive>
0.2009

> <Gold.PLP.ligand.clash>
0.0000

> <Gold.PLP.ligand.torsion>
0.5536

> <Gold.PLP.Chemscore.Hbond>
2.5200

> <Gold.PLP.Chemscore.CHOScore>
0.0000

> <Gold.PLP.Chemscore.Metal>
0.0000

> <Gold.Chemscore.Hbonds>
donor molecule, donor type, donor heavy atom, donor atom, acceptor molecule, acceptor atom, score
      P1  H  6931  6943       L1     9  0.72
      P1  H  6934  6947       L1     9  0.74
      P1  H  7989  7998       L1    16  1.00

> <Gold.PLP.Chemscore.Internal.Correction>
0.1071

> <Gold.Rescore>
     Score         DG    S(hbond)    S(metal)    S(lipo)     H(rot)  DE(clash)    DE(int)     intcor
     16.50     -18.70       2.42        0.00      81.62       1.73       0.05       2.16       ----

> <Gold.Chemscore.Fitness>
16.4958

> <Gold.Chemscore.DG>
-18.6971

> <Gold.Chemscore.ZeroCoef>
-5.4800

> <Gold.Chemscore.Hbond>
2.4209

> <Gold.Chemscore.Metal>
0.0000

> <Gold.Chemscore.Lipo>
81.6207

> <Gold.Chemscore.Internal_Hbond>
0.0000

> <Gold.Chemscore.DEClash>
0.0456

> <Gold.Chemscore.DEInternal>
2.1557

> <Gold.Chemscore.Rot>
1.7259

> <Gold.Chemscore.Internal.Correction>
   9.000000E+99

> <Gold.Chemscore.Hbonds>
donor molecule, donor type, donor heavy atom, donor atom, acceptor molecule, acceptor atom, score
      P1  H  6931  6943       L1     9  0.72
      P1  H  6934  6947       L1     9  0.74
      P1  H  7989  7998       L1    16  0.54

> <Gold.Chemscore.Hbond.Weighted>
-8.0857

> <Gold.Chemscore.Metal.Weighted>
-0.0000

> <Gold.Chemscore.Lipo.Weighted>
-9.5496

> <Gold.Chemscore.Internal_Hbond.Weighted>
0.0000

> <Gold.Chemscore.DEClash.Weighted>
0.0456

> <Gold.Chemscore.DEInternal.Weighted>
2.1557

> <Gold.Chemscore.Rot.Weighted>
4.4182

> <Gold.Chemscore.Internal.Correction.Weighted>
   9.000000E+99

> <Gold.Protein.RotatedTorsions>
[ 6907 6896 6895 6894 ] final   57.49 input  -60.11 | X-H torsion
[ 7974 7965 7964 7962 ] final  -77.00 input  175.53 | X-H torsion
[ 8008 7997 7996 7995 ] final  -86.25 input   59.86 | X-H torsion
[ 10167 10162 10161 10158 ] final   27.24 input  -65.29 | X-H torsion
[ 10718 10713 10712 10709 ] final -140.71 input   66.30 | X-H torsion
[ 10763 10752 10751 10750 ] final  130.04 input  -60.55 | X-H torsion
[ 11005 11000 10999 10996 ] final    8.21 input  -57.11 | X-H torsion

> <Gold.Protein.ActiveResidues>
 VAL166  LYS551  ARG553  GLY616  TRP617  ASP618  TYR619  PRO620  LYS621  CYS622 
 ASP623  PHE694  ASN695  SER759  ASP760  ASP761  ALA762  ILE779  LEU786  VAL792 
 PHE793  MET794  SER795  GLU796  ALA797  LYS798  CYS799  TRP800  GLU811  SER814 

> <Gold.Protein.RotatedAtoms>
  152.3736  134.6697  160.0167 H   0  0  0  0  0  0  0  0  0  0  0  0  # atno 6907 bound_to 6896
  151.6983  133.3305  159.3268 H   0  0  0  0  0  0  0  0  0  0  0  0  # atno 6908 bound_to 6896
  150.7692  134.6574  159.6365 H   0  0  0  0  0  0  0  0  0  0  0  0  # atno 6909 bound_to 6896
  145.6055  140.9399  143.1218 H   0  0  0  0  0  0  0  0  0  0  0  0  # atno 7974 bound_to 7965
  154.6498  140.0581  156.9942 H   0  0  0  0  0  0  0  0  0  0  0  0  # atno 8008 bound_to 7997
  155.1388  140.3263  155.4438 H   0  0  0  0  0  0  0  0  0  0  0  0  # atno 8009 bound_to 7997
  156.2571  140.1967  156.6505 H   0  0  0  0  0  0  0  0  0  0  0  0  # atno 8010 bound_to 7997
  140.4954  144.0399  150.6312 H   0  0  0  0  0  0  0  0  0  0  0  0  # atno 10167 bound_to 10162
  156.3255  130.7557  151.1664 H   0  0  0  0  0  0  0  0  0  0  0  0  # atno 10718 bound_to 10713
  153.7516  135.3209  155.3322 H   0  0  0  0  0  0  0  0  0  0  0  0  # atno 10763 bound_to 10752
  154.8261  135.4568  154.0926 H   0  0  0  0  0  0  0  0  0  0  0  0  # atno 10764 bound_to 10752
  153.2131  135.6938  153.8173 H   0  0  0  0  0  0  0  0  0  0  0  0  # atno 10765 bound_to 10752
  140.5396  134.0387  155.7899 H   0  0  0  0  0  0  0  0  0  0  0  0  # atno 11005 bound_to 11000
  144.7292  139.7779  143.7353 LP  0  0  0  0  0  0  0  0  0  0  0  0  # atno 17320 bound_to 7965
  146.1544  139.4637  143.0028 LP  0  0  0  0  0  0  0  0  0  0  0  0  # atno 17321 bound_to 7965
  140.3681  143.2870  152.0309 LP  0  0  0  0  0  0  0  0  0  0  0  0  # atno 17342 bound_to 10162
  139.4860  144.6252  151.7179 LP  0  0  0  0  0  0  0  0  0  0  0  0  # atno 17343 bound_to 10162
  157.7420  131.0496  150.5054 LP  0  0  0  0  0  0  0  0  0  0  0  0  # atno 17370 bound_to 10713
  156.5212  130.4162  149.6249 LP  0  0  0  0  0  0  0  0  0  0  0  0  # atno 17371 bound_to 10713
  141.1235  133.9422  157.2683 LP  0  0  0  0  0  0  0  0  0  0  0  0  # atno 17394 bound_to 11000
  139.9511  135.0175  156.8996 LP  0  0  0  0  0  0  0  0  0  0  0  0  # atno 17395 bound_to 11000

$$$$
