AV-unprocessed.smi:433|AV-procd|sdf|2551|dock9
  -GOLD-   2262022513D 1   1.00000     0.00000
 Structure written by MMmdl.
 36 37  0  0  0  0  0  0  0  0  1 V2000
  147.5295  139.6145  154.3485 C   0  0  0  0  0  0  0  0  0  0  0  0
  148.4438  138.5392  154.6047 N   0  0  0  0  0  0  0  0  0  0  0  0
  148.0204  137.2787  154.9778 C   0  0  0  0  0  0  0  0  0  0  0  0
  148.8756  136.2654  155.2356 C   0  0  0  0  0  0  0  0  0  0  0  0
  150.3180  136.4552  155.1272 C   0  0  0  0  0  0  0  0  0  0  0  0
  151.1331  135.5669  155.3788 O   0  0  0  0  0  0  0  0  0  0  0  0
  150.7164  137.7533  154.7234 N   0  0  0  0  0  0  0  0  0  0  0  0
  152.1394  138.0231  154.6159 C   0  0  0  0  0  0  0  0  0  0  0  0
  152.7923  138.3612  155.9756 C   0  0  1  0  0  0  0  0  0  0  0  0
  154.1143  138.8060  155.7489 O   0  0  0  0  0  0  0  0  0  0  0  0
  152.0513  139.4857  156.7137 C   0  0  0  0  0  0  0  0  0  0  0  0
  152.8171  139.8540  157.8529 O   0  0  0  0  0  0  0  0  0  0  0  0
  152.5650  141.0704  158.4480 C   0  0  0  0  0  0  0  0  0  0  0  0
  153.3220  141.3883  159.5943 C   0  0  0  0  0  0  0  0  0  0  0  0
  153.1332  142.6110  160.2666 C   0  0  0  0  0  0  0  0  0  0  0  0
  152.1804  143.5327  159.7953 C   0  0  0  0  0  0  0  0  0  0  0  0
  151.4177  143.2282  158.6523 C   0  0  0  0  0  0  0  0  0  0  0  0
  151.6063  142.0046  157.9801 C   0  0  0  0  0  0  0  0  0  0  0  0
  149.8209  138.8205  154.4728 C   0  0  0  0  0  0  0  0  0  0  0  0
  150.2166  139.9482  154.1634 O   0  0  0  0  0  0  0  0  0  0  0  0
  146.5157  139.2294  154.4636 H   0  0  0  0  0  0  0  0  0  0  0  0
  147.6974  139.9549  153.3252 H   0  0  0  0  0  0  0  0  0  0  0  0
  147.7309  140.3972  155.0820 H   0  0  0  0  0  0  0  0  0  0  0  0
  146.9606  137.0914  155.0734 H   0  0  0  0  0  0  0  0  0  0  0  0
  148.4878  135.3014  155.5301 H   0  0  0  0  0  0  0  0  0  0  0  0
  152.6174  137.1804  154.1127 H   0  0  0  0  0  0  0  0  0  0  0  0
  152.2462  138.8434  153.9040 H   0  0  0  0  0  0  0  0  0  0  0  0
  152.8320  137.4827  156.6214 H   0  0  0  0  0  0  0  0  0  0  0  0
  154.0960  139.7403  155.6063 H   0  0  0  0  0  0  0  0  0  0  0  0
  151.9430  140.3503  156.0562 H   0  0  0  0  0  0  0  0  0  0  0  0
  151.0538  139.1527  157.0057 H   0  0  0  0  0  0  0  0  0  0  0  0
  154.0555  140.6855  159.9619 H   0  0  0  0  0  0  0  0  0  0  0  0
  153.7202  142.8411  161.1436 H   0  0  0  0  0  0  0  0  0  0  0  0
  152.0349  144.4715  160.3092 H   0  0  0  0  0  0  0  0  0  0  0  0
  150.6861  143.9349  158.2894 H   0  0  0  0  0  0  0  0  0  0  0  0
  151.0039  141.8068  157.1067 H   0  0  0  0  0  0  0  0  0  0  0  0
  1  2  1  0  0  0  0
  1 21  1  0  0  0  0
  1 22  1  0  0  0  0
  1 23  1  0  0  0  0
  2 19  1  0  0  0  0
  2  3  1  0  0  0  0
  3  4  2  0  0  0  0
  3 24  1  0  0  0  0
  4  5  1  0  0  0  0
  4 25  1  0  0  0  0
  5  6  2  0  0  0  0
  5  7  1  0  0  0  0
  7  8  1  0  0  0  0
  7 19  1  0  0  0  0
  8  9  1  0  0  0  0
  8 26  1  0  0  0  0
  8 27  1  0  0  0  0
  9 10  1  0  0  0  0
  9 11  1  0  0  0  0
  9 28  1  0  0  0  0
 10 29  1  0  0  0  0
 11 12  1  0  0  0  0
 11 30  1  0  0  0  0
 11 31  1  0  0  0  0
 12 13  1  0  0  0  0
 13 18  1  0  0  0  0
 13 14  2  0  0  0  0
 14 15  1  0  0  0  0
 14 32  1  0  0  0  0
 15 16  2  0  0  0  0
 15 33  1  0  0  0  0
 16 17  1  0  0  0  0
 16 34  1  0  0  0  0
 17 18  2  0  0  0  0
 17 35  1  0  0  0  0
 18 36  1  0  0  0  0
 19 20  2  0  0  0  0
M  END
> <s_m_source_file>
AV-unprocessed.smi

> <i_m_source_file_index>
433

> <i_lp_mmshare_version>
43012

> <i_f3d_flags>
0

> <s_epik_input>
W0NIM11uMVtjSF1bY0hdYyg9TyluKGMxPU8pW0NIMl1bQ0BIXShbT0hdKVtDSDJdT2MyW2NIXVtjSF1bY0hdW2NIXVtjSF0y

> <s_epik_cmdline>
J2VwaWtfcHl0aG9uJywgJy1waCcsICc3LjAnLCAnLXRuJywgJzgnLCAnLW1hJywgJzIwMCcsICctbWV0YWxfYmluZGluZycsICctaW1hZScsICc8aW5maWxlLm1hZT4nLCAnLW9tYWUnLCAnPG91dGZpbGUubWFlPic=

> <r_lp_tautomer_probability>
1

> <r_epik_Ionization_Penalty>
2.21742e-07

> <r_epik_Ionization_Penalty_Charging>
1.04568e-07

> <r_epik_Ionization_Penalty_Neutral>
1.17174e-07

> <r_epik_State_Penalty>
-0

> <r_epik_Charging_Adjusted_Penalty>
1.04568e-07

> <i_epik_Tot_Q>
0

> <i_epik_Tot_abs_Q>
0

> <r_epik_Metal_State_Penalty>
-0

> <b_epik_Metal_Only>
0

> <s_lp_Force_Field>
OPLS_2005

> <r_lp_Energy>
22.7461

> <b_lp_Chiralities_Consistent>
1

> <s_lp_Variant>
AV-unprocessed.smi:433-2

> <Gold.Version>
5.8.1

> <Gold.Id.Protein>
6NUR|6NUR_protein|mol2

> <Gold.PLP.Fitness>
44.3634

> <Gold.PLP.PLP>
-36.3128

> <Gold.PLP.part.hbond>
-2.5304

> <Gold.PLP.part.metal>
0.0000

> <Gold.PLP.part.buried>
-6.1312

> <Gold.PLP.part.nonpolar>
-29.5895

> <Gold.PLP.part.repulsive>
1.0962

> <Gold.PLP.ligand.clash>
0.0000

> <Gold.PLP.ligand.torsion>
0.4753

> <Gold.PLP.Chemscore.Hbond>
2.9920

> <Gold.PLP.Chemscore.CHOScore>
0.0000

> <Gold.PLP.Chemscore.Metal>
0.0000

> <Gold.Chemscore.Hbonds>
donor molecule, donor type, donor heavy atom, donor atom, acceptor molecule, acceptor atom, score
      P1  H  7989  7998       L1    20  1.00
      P1  H  7997  8009       L1    12  1.00
      P1  H 10752 10764       L1     6  1.00

> <Gold.PLP.Chemscore.Internal.Correction>
0.0252

> <Gold.Rescore>
     Score         DG    S(hbond)    S(metal)    S(lipo)     H(rot)  DE(clash)    DE(int)     intcor
     16.88     -17.72       2.44        0.00      88.88       2.46       0.34       0.51       ----

> <Gold.Chemscore.Fitness>
16.8771

> <Gold.Chemscore.DG>
-17.7231

> <Gold.Chemscore.ZeroCoef>
-5.4800

> <Gold.Chemscore.Hbond>
2.4381

> <Gold.Chemscore.Metal>
0.0000

> <Gold.Chemscore.Lipo>
88.8836

> <Gold.Chemscore.Internal_Hbond>
0.0000

> <Gold.Chemscore.DEClash>
0.3389

> <Gold.Chemscore.DEInternal>
0.5070

> <Gold.Chemscore.Rot>
2.4608

> <Gold.Chemscore.Internal.Correction>
   9.000000E+99

> <Gold.Chemscore.Hbonds>
donor molecule, donor type, donor heavy atom, donor atom, acceptor molecule, acceptor atom, score
      P1  H  7989  7998       L1    20  0.97
      P1  H  7997  8009       L1    12  0.14
      P1  H 10752 10764       L1     6  0.98

> <Gold.Chemscore.Hbond.Weighted>
-8.1434

> <Gold.Chemscore.Metal.Weighted>
-0.0000

> <Gold.Chemscore.Lipo.Weighted>
-10.3994

> <Gold.Chemscore.Internal_Hbond.Weighted>
0.0000

> <Gold.Chemscore.DEClash.Weighted>
0.3389

> <Gold.Chemscore.DEInternal.Weighted>
0.5070

> <Gold.Chemscore.Rot.Weighted>
6.2997

> <Gold.Chemscore.Internal.Correction.Weighted>
   9.000000E+99

> <Gold.Protein.RotatedTorsions>
[ 6907 6896 6895 6894 ] final  122.18 input  -60.11 | X-H torsion
[ 7974 7965 7964 7962 ] final  161.98 input  175.53 | X-H torsion
[ 8008 7997 7996 7995 ] final  152.72 input   59.86 | X-H torsion
[ 10167 10162 10161 10158 ] final  -34.81 input  -65.29 | X-H torsion
[ 10718 10713 10712 10709 ] final  140.14 input   66.30 | X-H torsion
[ 10763 10752 10751 10750 ] final  -43.30 input  -60.55 | X-H torsion
[ 11005 11000 10999 10996 ] final -116.89 input  -57.11 | X-H torsion

> <Gold.Protein.ActiveResidues>
 VAL166  LYS551  ARG553  GLY616  TRP617  ASP618  TYR619  PRO620  LYS621  CYS622 
 ASP623  PHE694  ASN695  SER759  ASP760  ASP761  ALA762  ILE779  LEU786  VAL792 
 PHE793  MET794  SER795  GLU796  ALA797  LYS798  CYS799  TRP800  GLU811  SER814 

> <Gold.Protein.RotatedAtoms>
  152.4264  133.7202  159.6528 H   0  0  0  0  0  0  0  0  0  0  0  0  # atno 6907 bound_to 6896
  150.8140  133.8359  159.3175 H   0  0  0  0  0  0  0  0  0  0  0  0  # atno 6908 bound_to 6896
  151.6061  135.1046  160.0122 H   0  0  0  0  0  0  0  0  0  0  0  0  # atno 6909 bound_to 6896
  144.7659  139.7975  143.6315 H   0  0  0  0  0  0  0  0  0  0  0  0  # atno 7974 bound_to 7965
  156.2615  140.2013  156.6378 H   0  0  0  0  0  0  0  0  0  0  0  0  # atno 8008 bound_to 7997
  154.6633  140.0558  157.0110 H   0  0  0  0  0  0  0  0  0  0  0  0  # atno 8009 bound_to 7997
  155.1244  140.3228  155.4492 H   0  0  0  0  0  0  0  0  0  0  0  0  # atno 8010 bound_to 7997
  140.7178  143.3521  151.2134 H   0  0  0  0  0  0  0  0  0  0  0  0  # atno 10167 bound_to 10162
  157.4066  131.1023  151.0498 H   0  0  0  0  0  0  0  0  0  0  0  0  # atno 10718 bound_to 10713
  153.9933  135.6702  153.4755 H   0  0  0  0  0  0  0  0  0  0  0  0  # atno 10763 bound_to 10752
  153.0695  135.4982  154.8270 H   0  0  0  0  0  0  0  0  0  0  0  0  # atno 10764 bound_to 10752
  154.7096  135.3095  154.9180 H   0  0  0  0  0  0  0  0  0  0  0  0  # atno 10765 bound_to 10752
  141.0391  133.9863  157.3023 H   0  0  0  0  0  0  0  0  0  0  0  0  # atno 11005 bound_to 11000
  146.1765  139.4938  142.9894 LP  0  0  0  0  0  0  0  0  0  0  0  0  # atno 17320 bound_to 7965
  145.6473  141.0271  143.1779 LP  0  0  0  0  0  0  0  0  0  0  0  0  # atno 17321 bound_to 7965
  139.7054  143.9463  152.2924 LP  0  0  0  0  0  0  0  0  0  0  0  0  # atno 17342 bound_to 10162
  139.9171  144.6822  150.8501 LP  0  0  0  0  0  0  0  0  0  0  0  0  # atno 17343 bound_to 10162
  157.1477  130.6170  149.5573 LP  0  0  0  0  0  0  0  0  0  0  0  0  # atno 17370 bound_to 10713
  155.9838  130.4859  150.6952 LP  0  0  0  0  0  0  0  0  0  0  0  0  # atno 17371 bound_to 10713
  139.9263  135.0201  156.8244 LP  0  0  0  0  0  0  0  0  0  0  0  0  # atno 17394 bound_to 11000
  140.6267  133.9944  155.7643 LP  0  0  0  0  0  0  0  0  0  0  0  0  # atno 17395 bound_to 11000

$$$$
