AV-unprocessed.smi:246|AV-procd|sdf|1886|dock9
  -GOLD-   2262020543D 1   1.00000     0.00000
 Structure written by MMmdl.
 57 60  0  0  0  0  0  0  0  0  1 V2000
  144.6844  132.2613  149.1986 C   0  0  0  0  0  0  0  0  0  0  0  0
  146.1124  131.7989  149.5178 C   0  0  0  0  0  0  0  0  0  0  0  0
  146.3343  131.7239  150.9186 O   0  0  0  0  0  0  0  0  0  0  0  0
  146.5636  132.9800  151.5402 C   0  0  0  0  0  0  0  0  0  0  0  0
  147.5664  132.7859  152.6805 C   0  0  0  0  0  0  0  0  0  0  0  0
  147.7952  134.0418  153.3004 O   0  0  0  0  0  0  0  0  0  0  0  0
  147.6862  134.0149  154.7169 C   0  0  1  0  0  0  0  0  0  0  0  0
  148.9169  133.3496  155.3432 C   0  0  0  0  0  0  0  0  0  0  0  0
  149.9266  134.4906  155.4248 C   0  0  0  0  0  0  0  0  0  0  0  0
  149.1225  135.6762  155.6828 N   0  0  0  0  0  0  0  0  0  0  0  0
  149.6740  136.9181  155.6602 C   0  0  0  0  0  0  0  0  0  0  0  0
  149.8144  137.5510  154.4647 N   0  0  0  0  0  0  0  0  0  0  0  0
  150.3479  138.7738  154.4011 C   0  0  0  0  0  0  0  0  0  0  0  0
  150.8053  139.5367  155.3946 N   0  0  0  0  0  0  0  0  0  0  0  0
  150.6793  138.9076  156.5977 C   0  0  0  0  0  0  0  0  0  0  0  0
  150.1389  137.6076  156.8195 C   0  0  0  0  0  0  0  0  0  0  0  0
  150.2057  137.3010  158.1748 N   0  0  0  0  0  0  0  0  0  0  0  0
  150.7402  138.3585  158.7199 C   0  0  0  0  0  0  0  0  0  0  0  0
  151.0414  139.3790  157.8477 N   0  0  0  0  0  0  0  0  0  0  0  0
  151.6361  140.6633  158.1829 C   0  0  0  0  0  0  0  0  0  0  0  0
  151.9885  140.8370  159.6787 C   0  0  1  0  0  0  0  0  0  0  0  0
  153.0015  139.9331  160.0760 O   0  0  0  0  0  0  0  0  0  0  0  0
  152.3511  142.2769  160.1099 C   0  0  1  0  0  0  0  0  0  0  0  0
  151.3826  143.3732  159.6556 C   0  0  0  0  0  0  0  0  0  0  0  0
  151.6567  144.4585  160.6726 C   0  0  0  0  0  0  0  0  0  0  0  0
  151.8661  143.6411  161.9436 C   0  0  0  0  0  0  0  0  0  0  0  0
  152.4740  142.4241  161.5229 O   0  0  0  0  0  0  0  0  0  0  0  0
  147.7583  135.4654  155.2146 C   0  0  0  0  0  0  0  0  0  0  0  0
  146.7511  133.5432  155.0245 H   0  0  0  0  0  0  0  0  0  0  0  0
  144.5549  132.3962  148.1248 H   0  0  0  0  0  0  0  0  0  0  0  0
  144.4667  133.2139  149.6823 H   0  0  0  0  0  0  0  0  0  0  0  0
  143.9388  131.5391  149.5298 H   0  0  0  0  0  0  0  0  0  0  0  0
  146.3379  130.8485  149.0316 H   0  0  0  0  0  0  0  0  0  0  0  0
  146.8155  132.5276  149.1134 H   0  0  0  0  0  0  0  0  0  0  0  0
  146.9365  133.7219  150.8336 H   0  0  0  0  0  0  0  0  0  0  0  0
  145.6220  133.3552  151.9432 H   0  0  0  0  0  0  0  0  0  0  0  0
  147.1532  132.0987  153.4201 H   0  0  0  0  0  0  0  0  0  0  0  0
  148.4886  132.3432  152.3027 H   0  0  0  0  0  0  0  0  0  0  0  0
  148.6724  133.0095  156.3503 H   0  0  0  0  0  0  0  0  0  0  0  0
  149.2924  132.4925  154.7846 H   0  0  0  0  0  0  0  0  0  0  0  0
  150.6625  134.3223  156.2118 H   0  0  0  0  0  0  0  0  0  0  0  0
  150.4524  134.6003  154.4750 H   0  0  0  0  0  0  0  0  0  0  0  0
  150.4162  139.2027  153.4123 H   0  0  0  0  0  0  0  0  0  0  0  0
  150.9182  138.4293  159.7831 H   0  0  0  0  0  0  0  0  0  0  0  0
  152.5319  140.7958  157.5749 H   0  0  0  0  0  0  0  0  0  0  0  0
  150.9430  141.4464  157.8730 H   0  0  0  0  0  0  0  0  0  0  0  0
  151.1011  140.5508  160.2444 H   0  0  0  0  0  0  0  0  0  0  0  0
  152.6862  139.0516  159.9463 H   0  0  0  0  0  0  0  0  0  0  0  0
  153.3339  142.5165  159.7008 H   0  0  0  0  0  0  0  0  0  0  0  0
  151.5568  143.6952  158.6286 H   0  0  0  0  0  0  0  0  0  0  0  0
  150.3445  143.0499  159.7391 H   0  0  0  0  0  0  0  0  0  0  0  0
  152.5703  144.9950  160.4133 H   0  0  0  0  0  0  0  0  0  0  0  0
  150.8457  145.1822  160.7592 H   0  0  0  0  0  0  0  0  0  0  0  0
  152.4788  144.1606  162.6806 H   0  0  0  0  0  0  0  0  0  0  0  0
  150.9065  143.4060  162.4056 H   0  0  0  0  0  0  0  0  0  0  0  0
  147.4768  136.1680  154.4291 H   0  0  0  0  0  0  0  0  0  0  0  0
  147.0803  135.6093  156.0563 H   0  0  0  0  0  0  0  0  0  0  0  0
  1  2  1  0  0  0  0
  1 30  1  0  0  0  0
  1 31  1  0  0  0  0
  1 32  1  0  0  0  0
  2  3  1  0  0  0  0
  2 33  1  0  0  0  0
  2 34  1  0  0  0  0
  3  4  1  0  0  0  0
  4  5  1  0  0  0  0
  4 35  1  0  0  0  0
  4 36  1  0  0  0  0
  5  6  1  0  0  0  0
  5 37  1  0  0  0  0
  5 38  1  0  0  0  0
  6  7  1  0  0  0  0
  7 29  1  0  0  0  0
  7 28  1  0  0  0  0
  7  8  1  0  0  0  0
  8  9  1  0  0  0  0
  8 39  1  0  0  0  0
  8 40  1  0  0  0  0
  9 10  1  0  0  0  0
  9 41  1  0  0  0  0
  9 42  1  0  0  0  0
 10 11  1  0  0  0  0
 10 28  1  0  0  0  0
 11 16  1  0  0  0  0
 11 12  2  0  0  0  0
 12 13  1  0  0  0  0
 13 14  2  0  0  0  0
 13 43  1  0  0  0  0
 14 15  1  0  0  0  0
 15 19  1  0  0  0  0
 15 16  2  0  0  0  0
 16 17  1  0  0  0  0
 17 18  2  0  0  0  0
 18 19  1  0  0  0  0
 18 44  1  0  0  0  0
 19 20  1  0  0  0  0
 20 21  1  0  0  0  0
 20 45  1  0  0  0  0
 20 46  1  0  0  0  0
 21 22  1  0  0  0  0
 21 23  1  0  0  0  0
 21 47  1  0  0  0  0
 22 48  1  0  0  0  0
 23 27  1  0  0  0  0
 23 24  1  0  0  0  0
 23 49  1  0  0  0  0
 24 25  1  0  0  0  0
 24 50  1  0  0  0  0
 24 51  1  0  0  0  0
 25 26  1  0  0  0  0
 25 52  1  0  0  0  0
 25 53  1  0  0  0  0
 26 27  1  0  0  0  0
 26 54  1  0  0  0  0
 26 55  1  0  0  0  0
 28 56  1  0  0  0  0
 28 57  1  0  0  0  0
M  END
> <s_m_source_file>
AV-unprocessed.smi

> <i_m_source_file_index>
246

> <i_lp_mmshare_version>
43012

> <i_f3d_flags>
0

> <s_epik_input>
W0NIM11bQ0gyXU9bQ0gyXVtDSDJdT1tDQEhdMVtDSDJdW0NIMl1OKFtDSDJdMSljKG5bY0hdbjIpYyhjMjMpbltjSF1uM1tDSDJdW0NASF0oW09IXSlbQ0BASF00W0NIMl1bQ0gyXVtDSDJdTzQ=

> <s_epik_cmdline>
J2VwaWtfcHl0aG9uJywgJy1waCcsICc3LjAnLCAnLXRuJywgJzgnLCAnLW1hJywgJzIwMCcsICctbWV0YWxfYmluZGluZycsICctaW1hZScsICc8aW5maWxlLm1hZT4nLCAnLW9tYWUnLCAnPG91dGZpbGUubWFlPic=

> <r_lp_tautomer_probability>
1

> <r_epik_Ionization_Penalty>
0.0024631

> <r_epik_Ionization_Penalty_Charging>
0

> <r_epik_Ionization_Penalty_Neutral>
0.0024631

> <r_epik_State_Penalty>
0.00162428

> <r_epik_Charging_Adjusted_Penalty>
0.00162428

> <i_epik_Tot_Q>
0

> <i_epik_Tot_abs_Q>
0

> <r_epik_Metal_State_Penalty>
-0

> <b_epik_Metal_Only>
0

> <s_lp_Force_Field>
OPLS_2005

> <r_lp_Energy>
53.5717

> <b_lp_Chiralities_Consistent>
1

> <s_lp_Variant>
AV-unprocessed.smi:246-7

> <Gold.Version>
5.8.1

> <Gold.Id.Protein>
6NUR|6NUR_protein|mol2

> <Gold.PLP.Fitness>
46.2036

> <Gold.PLP.PLP>
-46.6843

> <Gold.PLP.part.hbond>
0.0000

> <Gold.PLP.part.metal>
0.0000

> <Gold.PLP.part.buried>
-10.4069

> <Gold.PLP.part.nonpolar>
-39.4286

> <Gold.PLP.part.repulsive>
3.6010

> <Gold.PLP.ligand.clash>
0.0000

> <Gold.PLP.ligand.torsion>
2.1453

> <Gold.PLP.Chemscore.Hbond>
0.0000

> <Gold.PLP.Chemscore.CHOScore>
1.0000

> <Gold.PLP.Chemscore.Metal>
0.0000

> <Gold.Chemscore.Hbonds>
donor molecule, donor type, donor heavy atom, donor atom, acceptor molecule, acceptor atom, score
      L1  C    13    43       P1  7957  1.00

> <Gold.PLP.Chemscore.Internal.Correction>
0.8099

> <Gold.Rescore>
     Score         DG    S(hbond)    S(metal)    S(lipo)     H(rot)  DE(clash)    DE(int)     intcor
      7.93     -10.61       0.00        0.00     111.64       3.10       0.10       2.58       ----

> <Gold.Chemscore.Fitness>
7.9314

> <Gold.Chemscore.DG>
-10.6135

> <Gold.Chemscore.ZeroCoef>
-5.4800

> <Gold.Chemscore.Hbond>
0.0043

> <Gold.Chemscore.Metal>
0.0000

> <Gold.Chemscore.Lipo>
111.6401

> <Gold.Chemscore.Internal_Hbond>
0.0000

> <Gold.Chemscore.DEClash>
0.1018

> <Gold.Chemscore.DEInternal>
2.5803

> <Gold.Chemscore.Rot>
3.1026

> <Gold.Chemscore.Internal.Correction>
   9.000000E+99

> <Gold.Chemscore.Hbond.Weighted>
-0.0142

> <Gold.Chemscore.Metal.Weighted>
-0.0000

> <Gold.Chemscore.Lipo.Weighted>
-13.0619

> <Gold.Chemscore.Internal_Hbond.Weighted>
0.0000

> <Gold.Chemscore.DEClash.Weighted>
0.1018

> <Gold.Chemscore.DEInternal.Weighted>
2.5803

> <Gold.Chemscore.Rot.Weighted>
7.9426

> <Gold.Chemscore.Internal.Correction.Weighted>
   9.000000E+99

> <Gold.Protein.RotatedTorsions>
[ 6907 6896 6895 6894 ] final  173.54 input  -60.11 | X-H torsion
[ 7974 7965 7964 7962 ] final  -69.87 input  175.53 | X-H torsion
[ 8008 7997 7996 7995 ] final   54.03 input   59.86 | X-H torsion
[ 10167 10162 10161 10158 ] final -128.28 input  -65.29 | X-H torsion
[ 10718 10713 10712 10709 ] final  104.99 input   66.30 | X-H torsion
[ 10763 10752 10751 10750 ] final  108.96 input  -60.55 | X-H torsion
[ 11005 11000 10999 10996 ] final -123.72 input  -57.11 | X-H torsion

> <Gold.Protein.ActiveResidues>
 VAL166  LYS551  ARG553  GLY616  TRP617  ASP618  TYR619  PRO620  LYS621  CYS622 
 ASP623  PHE694  ASN695  SER759  ASP760  ASP761  ALA762  ILE779  LEU786  VAL792 
 PHE793  MET794  SER795  GLU796  ALA797  LYS798  CYS799  TRP800  GLU811  SER814 

> <Gold.Protein.RotatedAtoms>
  151.7666  133.3338  159.3432 H   0  0  0  0  0  0  0  0  0  0  0  0  # atno 6907 bound_to 6896
  150.7477  134.6057  159.6069 H   0  0  0  0  0  0  0  0  0  0  0  0  # atno 6908 bound_to 6896
  152.3369  134.7187  160.0326 H   0  0  0  0  0  0  0  0  0  0  0  0  # atno 6909 bound_to 6896
  145.6983  140.9126  143.0745 H   0  0  0  0  0  0  0  0  0  0  0  0  # atno 7974 bound_to 7965
  155.4780  140.3467  155.4335 H   0  0  0  0  0  0  0  0  0  0  0  0  # atno 8008 bound_to 7997
  156.1057  140.1447  156.9435 H   0  0  0  0  0  0  0  0  0  0  0  0  # atno 8009 bound_to 7997
  154.4723  140.0896  156.7154 H   0  0  0  0  0  0  0  0  0  0  0  0  # atno 8010 bound_to 7997
  139.9520  143.6045  152.2472 H   0  0  0  0  0  0  0  0  0  0  0  0  # atno 10167 bound_to 10162
  157.6721  131.0817  150.5790 H   0  0  0  0  0  0  0  0  0  0  0  0  # atno 10718 bound_to 10713
  153.4280  135.3795  155.2153 H   0  0  0  0  0  0  0  0  0  0  0  0  # atno 10763 bound_to 10752
  154.8748  135.3833  154.4303 H   0  0  0  0  0  0  0  0  0  0  0  0  # atno 10764 bound_to 10752
  153.4832  135.7088  153.5989 H   0  0  0  0  0  0  0  0  0  0  0  0  # atno 10765 bound_to 10752
  140.9897  134.0556  157.3669 H   0  0  0  0  0  0  0  0  0  0  0  0  # atno 11005 bound_to 11000
  144.6976  139.8913  143.7453 LP  0  0  0  0  0  0  0  0  0  0  0  0  # atno 17320 bound_to 7965
  146.0821  139.3808  143.0458 LP  0  0  0  0  0  0  0  0  0  0  0  0  # atno 17321 bound_to 7965
  139.6621  144.7662  151.1943 LP  0  0  0  0  0  0  0  0  0  0  0  0  # atno 17342 bound_to 10162
  140.7580  143.5994  150.8715 LP  0  0  0  0  0  0  0  0  0  0  0  0  # atno 17343 bound_to 10162
  156.6091  130.4375  149.5866 LP  0  0  0  0  0  0  0  0  0  0  0  0  # atno 17370 bound_to 10713
  156.2445  130.6871  151.1587 LP  0  0  0  0  0  0  0  0  0  0  0  0  # atno 17371 bound_to 10713
  139.8986  135.0155  156.7159 LP  0  0  0  0  0  0  0  0  0  0  0  0  # atno 17394 bound_to 11000
  140.7059  133.9265  155.8053 LP  0  0  0  0  0  0  0  0  0  0  0  0  # atno 17395 bound_to 11000

$$$$
