AV-unprocessed.smi:2439|AV-procd|sdf|9603|dock3
  -GOLD-   2272013233D 1   1.00000     0.00000
 Structure written by MMmdl.
 41 43  0  0  0  0  0  0  0  0  2 V2000
  151.1678  136.3667  154.3951 N   0  0  0  0  0  0  0  0  0  0  0  0
  150.7114  137.4292  154.4289 C   0  0  0  0  0  0  0  0  0  0  0  0
  150.1349  138.7677  154.4722 C   0  0  0  0  0  0  0  0  0  0  0  0
  150.8051  139.7769  155.1948 C   0  0  0  0  0  0  0  0  0  0  0  0
  150.2551  141.0710  155.2361 C   0  0  0  0  0  0  0  0  0  0  0  0
  149.0495  141.3043  154.5504 C   0  0  0  0  0  0  0  0  0  0  0  0
  148.3983  140.3485  153.8552 N   0  0  0  0  0  0  0  0  0  0  0  0
  148.9218  139.0985  153.8102 C   0  0  0  0  0  0  0  0  0  0  0  0
  148.2193  138.1209  153.0807 N   0  0  0  0  0  0  0  0  0  0  0  0
  146.8667  138.3463  152.5851 C   0  0  0  0  0  0  0  0  0  0  0  0
  145.9871  137.0884  152.6834 C   0  0  2  0  0  0  0  0  0  0  0  0
  146.3862  136.0357  151.6340 C   0  0  0  0  0  0  0  0  0  0  0  0
  145.4820  134.8647  151.7026 N   0  3  2  0  0  0  0  0  0  0  0  0
  145.8580  133.8021  150.7362 C   0  0  0  0  0  0  0  0  0  0  0  0
  144.9605  132.5649  150.8987 C   0  0  0  0  0  0  0  0  0  0  0  0
  143.4805  132.9421  150.7564 C   0  0  0  0  0  0  0  0  0  0  0  0
  143.1252  134.0600  151.7459 C   0  0  0  0  0  0  0  0  0  0  0  0
  144.0574  135.2759  151.5745 C   0  0  1  0  0  0  0  0  0  0  0  0
  143.7349  136.3790  152.6018 C   0  0  0  0  0  0  0  0  0  0  0  0
  144.6361  137.4672  152.4426 O   0  0  0  0  0  0  0  0  0  0  0  0
  151.7301  139.5674  155.7130 H   0  0  0  0  0  0  0  0  0  0  0  0
  150.7450  141.8646  155.7805 H   0  0  0  0  0  0  0  0  0  0  0  0
  148.5962  142.2844  154.5585 H   0  0  0  0  0  0  0  0  0  0  0  0
  148.6983  137.2775  152.7979 H   0  0  0  0  0  0  0  0  0  0  0  0
  146.4186  139.1568  153.1603 H   0  0  0  0  0  0  0  0  0  0  0  0
  146.9139  138.6987  151.5540 H   0  0  0  0  0  0  0  0  0  0  0  0
  146.0756  136.6525  153.6799 H   0  0  0  0  0  0  0  0  0  0  0  0
  146.3495  136.4687  150.6328 H   0  0  0  0  0  0  0  0  0  0  0  0
  147.4134  135.7120  151.8067 H   0  0  0  0  0  0  0  0  0  0  0  0
  145.7828  134.1892  149.7186 H   0  0  0  0  0  0  0  0  0  0  0  0
  146.8999  133.5196  150.8922 H   0  0  0  0  0  0  0  0  0  0  0  0
  145.2263  131.8114  150.1568 H   0  0  0  0  0  0  0  0  0  0  0  0
  145.1325  132.1123  151.8762 H   0  0  0  0  0  0  0  0  0  0  0  0
  143.2799  133.2737  149.7368 H   0  0  0  0  0  0  0  0  0  0  0  0
  142.8505  132.0694  150.9315 H   0  0  0  0  0  0  0  0  0  0  0  0
  142.0868  134.3609  151.6028 H   0  0  0  0  0  0  0  0  0  0  0  0
  143.1982  133.6784  152.7653 H   0  0  0  0  0  0  0  0  0  0  0  0
  143.9133  135.6878  150.5737 H   0  0  0  0  0  0  0  0  0  0  0  0
  142.7185  136.7450  152.4551 H   0  0  0  0  0  0  0  0  0  0  0  0
  143.7894  135.9960  153.6224 H   0  0  0  0  0  0  0  0  0  0  0  0
  145.5882  134.4694  152.6260 H   0  0  0  0  0  0  0  0  0  0  0  0
  1  2  3  0  0  0  0
  2  3  1  0  0  0  0
  3  8  1  0  0  0  0
  3  4  2  0  0  0  0
  4  5  1  0  0  0  0
  4 21  1  0  0  0  0
  5  6  2  0  0  0  0
  5 22  1  0  0  0  0
  6  7  1  0  0  0  0
  6 23  1  0  0  0  0
  7  8  2  0  0  0  0
  8  9  1  0  0  0  0
  9 10  1  0  0  0  0
  9 24  1  0  0  0  0
 10 11  1  0  0  0  0
 10 25  1  0  0  0  0
 10 26  1  0  0  0  0
 11 20  1  0  0  0  0
 11 12  1  0  0  0  0
 11 27  1  0  0  0  0
 12 13  1  0  0  0  0
 12 28  1  0  0  0  0
 12 29  1  0  0  0  0
 13 18  1  0  0  0  0
 13 14  1  0  0  0  0
 13 41  1  0  0  0  0
 14 15  1  0  0  0  0
 14 30  1  0  0  0  0
 14 31  1  0  0  0  0
 15 16  1  0  0  0  0
 15 32  1  0  0  0  0
 15 33  1  0  0  0  0
 16 17  1  0  0  0  0
 16 34  1  0  0  0  0
 16 35  1  0  0  0  0
 17 18  1  0  0  0  0
 17 36  1  0  0  0  0
 17 37  1  0  0  0  0
 18 19  1  0  0  0  0
 18 38  1  0  0  0  0
 19 20  1  0  0  0  0
 19 39  1  0  0  0  0
 19 40  1  0  0  0  0
M  CHG  1  13   1
M  END
> <s_m_source_file>
AV-unprocessed.smi

> <i_m_source_file_index>
2439

> <i_lp_mmshare_version>
43012

> <i_f3d_flags>
0

> <s_epik_input>
TiNDYzFbY0hdW2NIXVtjSF1uYzFbTkhdW0NIMl1bQ0BIXShbQ0gyXTIpT1tDSDJdW0NAQEhdKE4yMylbQ0gyXVtDSDJdW0NIMl1bQ0gyXTM=

> <s_epik_cmdline>
J2VwaWtfcHl0aG9uJywgJy1waCcsICc3LjAnLCAnLXRuJywgJzgnLCAnLW1hJywgJzIwMCcsICctbWV0YWxfYmluZGluZycsICctaW1hZScsICc8aW5maWxlLm1hZT4nLCAnLW9tYWUnLCAnPG91dGZpbGUubWFlPic=

> <r_epik_Ionization_Penalty>
0.0803594

> <r_epik_Ionization_Penalty_Charging>
0.0803403

> <r_epik_Ionization_Penalty_Neutral>
1.90988e-05

> <r_epik_State_Penalty>
0.0711481

> <r_epik_Charging_Adjusted_Penalty>
0.151488

> <i_epik_Tot_Q>
1

> <i_epik_Tot_abs_Q>
1

> <r_epik_Metal_State_Penalty>
0.0711482

> <b_epik_Metal_Only>
0

> <s_lp_Force_Field>
OPLS_2005

> <r_lp_Energy>
27.3027

> <b_lp_Chiralities_Consistent>
1

> <s_lp_Variant>
AV-unprocessed.smi:2439-1

> <Gold.Version>
5.8.1

> <Gold.Id.Protein>
6NUR|6NUR_protein|mol2

> <Gold.PLP.Fitness>
41.5364

> <Gold.PLP.PLP>
-33.0412

> <Gold.PLP.part.hbond>
-3.0000

> <Gold.PLP.part.metal>
0.0000

> <Gold.PLP.part.buried>
1.4059

> <Gold.PLP.part.nonpolar>
-33.0588

> <Gold.PLP.part.repulsive>
1.7388

> <Gold.PLP.ligand.clash>
0.0000

> <Gold.PLP.ligand.torsion>
0.2567

> <Gold.PLP.Chemscore.Hbond>
2.0000

> <Gold.PLP.Chemscore.CHOScore>
1.0000

> <Gold.PLP.Chemscore.Metal>
0.0000

> <Gold.Chemscore.Hbonds>
donor molecule, donor type, donor heavy atom, donor atom, acceptor molecule, acceptor atom, score
      L1  H     9    24       P1  7948  0.70
      P1  H 10752 10763       L1     1  1.00
      L1  C     6    23       P1  8028  0.66

> <Gold.PLP.Chemscore.Internal.Correction>
0.0086

> <Gold.Rescore>
     Score         DG    S(hbond)    S(metal)    S(lipo)     H(rot)  DE(clash)    DE(int)     intcor
     12.83     -14.71       0.99        0.00      78.27       1.27       1.48       0.40       ----

> <Gold.Chemscore.Fitness>
12.8278

> <Gold.Chemscore.DG>
-14.7119

> <Gold.Chemscore.ZeroCoef>
-5.4800

> <Gold.Chemscore.Hbond>
0.9926

> <Gold.Chemscore.Metal>
0.0000

> <Gold.Chemscore.Lipo>
78.2696

> <Gold.Chemscore.Internal_Hbond>
0.0000

> <Gold.Chemscore.DEClash>
1.4827

> <Gold.Chemscore.DEInternal>
0.4014

> <Gold.Chemscore.Rot>
1.2659

> <Gold.Chemscore.Internal.Correction>
   9.000000E+99

> <Gold.Chemscore.Hbonds>
donor molecule, donor type, donor heavy atom, donor atom, acceptor molecule, acceptor atom, score
      L1  H     9    24       P1  7948  0.68
      P1  H 10752 10763       L1     1  1.00

> <Gold.Chemscore.Hbond.Weighted>
-3.3151

> <Gold.Chemscore.Metal.Weighted>
-0.0000

> <Gold.Chemscore.Lipo.Weighted>
-9.1575

> <Gold.Chemscore.Internal_Hbond.Weighted>
0.0000

> <Gold.Chemscore.DEClash.Weighted>
1.4827

> <Gold.Chemscore.DEInternal.Weighted>
0.4014

> <Gold.Chemscore.Rot.Weighted>
3.2408

> <Gold.Chemscore.Internal.Correction.Weighted>
   9.000000E+99

> <Gold.Protein.RotatedTorsions>
[ 6907 6896 6895 6894 ] final  174.87 input  -60.11 | X-H torsion
[ 7974 7965 7964 7962 ] final  158.92 input  175.53 | X-H torsion
[ 8008 7997 7996 7995 ] final   60.41 input   59.86 | X-H torsion
[ 10167 10162 10161 10158 ] final  103.22 input  -65.29 | X-H torsion
[ 10718 10713 10712 10709 ] final -118.02 input   66.30 | X-H torsion
[ 10763 10752 10751 10750 ] final   45.00 input  -60.55 | X-H torsion
[ 11005 11000 10999 10996 ] final   52.01 input  -57.11 | X-H torsion

> <Gold.Protein.ActiveResidues>
 VAL166  LYS551  ARG553  GLY616  TRP617  ASP618  TYR619  PRO620  LYS621  CYS622 
 ASP623  PHE694  ASN695  SER759  ASP760  ASP761  ALA762  ILE779  LEU786  VAL792 
 PHE793  MET794  SER795  GLU796  ALA797  LYS798  CYS799  TRP800  GLU811  SER814 

> <Gold.Protein.RotatedAtoms>
  151.7453  133.3324  159.3376 H   0  0  0  0  0  0  0  0  0  0  0  0  # atno 6907 bound_to 6896
  150.7557  134.6241  159.6161 H   0  0  0  0  0  0  0  0  0  0  0  0  # atno 6908 bound_to 6896
  152.3504  134.7015  160.0289 H   0  0  0  0  0  0  0  0  0  0  0  0  # atno 6909 bound_to 6896
  144.7819  139.7545  143.6256 H   0  0  0  0  0  0  0  0  0  0  0  0  # atno 7974 bound_to 7965
  155.5819  140.3491  155.4542 H   0  0  0  0  0  0  0  0  0  0  0  0  # atno 8008 bound_to 7997
  156.0367  140.1286  157.0225 H   0  0  0  0  0  0  0  0  0  0  0  0  # atno 8009 bound_to 7997
  154.4374  140.1032  156.6163 H   0  0  0  0  0  0  0  0  0  0  0  0  # atno 8010 bound_to 7997
  139.7282  144.7042  151.0764 H   0  0  0  0  0  0  0  0  0  0  0  0  # atno 10167 bound_to 10162
  156.1076  130.6223  150.9238 H   0  0  0  0  0  0  0  0  0  0  0  0  # atno 10718 bound_to 10713
  152.9831  135.6053  154.3365 H   0  0  0  0  0  0  0  0  0  0  0  0  # atno 10763 bound_to 10752
  154.3065  135.2772  155.2588 H   0  0  0  0  0  0  0  0  0  0  0  0  # atno 10764 bound_to 10752
  154.4817  135.5915  153.6450 H   0  0  0  0  0  0  0  0  0  0  0  0  # atno 10765 bound_to 10752
  140.0884  134.5242  155.8876 H   0  0  0  0  0  0  0  0  0  0  0  0  # atno 11005 bound_to 11000
  146.2031  139.5338  142.9730 LP  0  0  0  0  0  0  0  0  0  0  0  0  # atno 17320 bound_to 7965
  145.6028  141.0352  143.2009 LP  0  0  0  0  0  0  0  0  0  0  0  0  # atno 17321 bound_to 7965
  140.7766  143.5078  150.9691 LP  0  0  0  0  0  0  0  0  0  0  0  0  # atno 17342 bound_to 10162
  139.8765  143.7125  152.3161 LP  0  0  0  0  0  0  0  0  0  0  0  0  # atno 17343 bound_to 10162
  157.6254  131.0926  150.8543 LP  0  0  0  0  0  0  0  0  0  0  0  0  # atno 17370 bound_to 10713
  156.8659  130.5129  149.5300 LP  0  0  0  0  0  0  0  0  0  0  0  0  # atno 17371 bound_to 10713
  141.2070  133.6660  156.6278 LP  0  0  0  0  0  0  0  0  0  0  0  0  # atno 17394 bound_to 11000
  140.3387  134.7868  157.4381 LP  0  0  0  0  0  0  0  0  0  0  0  0  # atno 17395 bound_to 11000

$$$$
