AV-unprocessed.smi:1794|AV-procd|sdf|7235|dock4
  -GOLD-   22720 8483D 1   1.00000     0.00000
 Structure written by MMmdl.
 56 58  0  0  0  0  0  0  0  0  3 V2000
  148.2388  137.0062  155.3419 C   0  0  0  0  0  0  0  0  0  0  0  0
  149.4790  136.4093  156.0522 C   0  0  0  0  0  0  0  0  0  0  0  0
  148.9974  135.6957  157.3441 C   0  0  0  0  0  0  0  0  0  0  0  0
  150.1481  135.3379  155.1409 C   0  0  0  0  0  0  0  0  0  0  0  0
  149.1900  134.5838  154.3367 N   0  0  0  0  0  0  0  0  0  0  0  0
  148.9766  133.2670  154.4520 C   0  0  0  0  0  0  0  0  0  0  0  0
  149.5604  132.5541  155.2677 O   0  0  0  0  0  0  0  0  0  0  0  0
  148.0715  132.8394  153.5561 N   0  0  0  0  0  0  0  0  0  0  0  0
  147.6385  131.5044  153.3179 C   0  0  0  0  0  0  0  0  0  0  0  0
  148.3385  130.3954  153.8589 C   0  0  0  0  0  0  0  0  0  0  0  0
  147.8996  129.0861  153.5859 C   0  0  0  0  0  0  0  0  0  0  0  0
  146.7634  128.9044  152.7793 C   0  0  0  0  0  0  0  0  0  0  0  0
  146.1071  129.9797  152.2967 N   0  3  0  0  0  0  0  0  0  0  0  0
  146.4716  131.2643  152.5357 C   0  0  0  0  0  0  0  0  0  0  0  0
  145.6801  132.2911  151.9724 N   0  0  0  0  0  0  0  0  0  0  0  0
  146.2931  133.3381  151.1635 C   0  0  0  0  0  0  0  0  0  0  0  0
  145.1261  134.0285  150.4629 C   0  0  0  0  0  0  0  0  0  0  0  0
  144.1663  132.8702  150.2079 C   0  0  0  0  0  0  0  0  0  0  0  0
  144.3719  131.9546  151.4195 C   0  0  0  0  0  0  0  0  0  0  0  0
  150.4927  137.4807  156.3795 N   0  3  0  0  0  0  0  0  0  0  0  0
  151.6763  137.0246  157.1655 C   0  0  0  0  0  0  0  0  0  0  0  0
  152.5471  138.2182  157.5891 C   0  0  0  0  0  0  0  0  0  0  0  0
  152.9720  138.9251  156.4339 O   0  0  0  0  0  0  0  0  0  0  0  0
  151.8693  139.4568  155.7157 C   0  0  0  0  0  0  0  0  0  0  0  0
  150.9553  138.3169  155.2334 C   0  0  0  0  0  0  0  0  0  0  0  0
  147.4596  136.2561  155.2031 H   0  0  0  0  0  0  0  0  0  0  0  0
  148.4797  137.3922  154.3515 H   0  0  0  0  0  0  0  0  0  0  0  0
  147.7929  137.8178  155.9166 H   0  0  0  0  0  0  0  0  0  0  0  0
  148.3557  134.8407  157.1309 H   0  0  0  0  0  0  0  0  0  0  0  0
  148.3989  136.3499  157.9780 H   0  0  0  0  0  0  0  0  0  0  0  0
  149.8382  135.3278  157.9334 H   0  0  0  0  0  0  0  0  0  0  0  0
  150.8457  135.7928  154.4393 H   0  0  0  0  0  0  0  0  0  0  0  0
  150.7256  134.6390  155.7488 H   0  0  0  0  0  0  0  0  0  0  0  0
  148.6698  135.0978  153.6409 H   0  0  0  0  0  0  0  0  0  0  0  0
  147.7471  133.5266  152.8917 H   0  0  0  0  0  0  0  0  0  0  0  0
  149.2073  130.5291  154.4853 H   0  0  0  0  0  0  0  0  0  0  0  0
  148.4293  128.2346  153.9880 H   0  0  0  0  0  0  0  0  0  0  0  0
  146.3567  127.9394  152.5133 H   0  0  0  0  0  0  0  0  0  0  0  0
  146.8656  134.0333  151.7780 H   0  0  0  0  0  0  0  0  0  0  0  0
  146.9617  132.9038  150.4191 H   0  0  0  0  0  0  0  0  0  0  0  0
  144.6634  134.7539  151.1335 H   0  0  0  0  0  0  0  0  0  0  0  0
  145.4229  134.5487  149.5518 H   0  0  0  0  0  0  0  0  0  0  0  0
  143.1312  133.1924  150.0902 H   0  0  0  0  0  0  0  0  0  0  0  0
  144.4602  132.3459  149.2974 H   0  0  0  0  0  0  0  0  0  0  0  0
  144.3020  130.9031  151.1382 H   0  0  0  0  0  0  0  0  0  0  0  0
  143.6092  132.1572  152.1719 H   0  0  0  0  0  0  0  0  0  0  0  0
  151.3838  136.4906  158.0663 H   0  0  0  0  0  0  0  0  0  0  0  0
  152.2828  136.3409  156.5707 H   0  0  0  0  0  0  0  0  0  0  0  0
  152.0038  138.8814  158.2641 H   0  0  0  0  0  0  0  0  0  0  0  0
  153.4273  137.8670  158.1279 H   0  0  0  0  0  0  0  0  0  0  0  0
  151.3169  140.1599  156.3415 H   0  0  0  0  0  0  0  0  0  0  0  0
  152.2453  140.0210  154.8621 H   0  0  0  0  0  0  0  0  0  0  0  0
  151.4864  137.6989  154.5090 H   0  0  0  0  0  0  0  0  0  0  0  0
  150.1215  138.7840  154.7128 H   0  0  0  0  0  0  0  0  0  0  0  0
  149.9998  138.1238  156.9831 H   0  0  0  0  0  0  0  0  0  0  0  0
  145.2802  129.8149  151.7226 H   0  0  0  0  0  0  0  0  0  0  0  0
  1  2  1  0  0  0  0
  1 26  1  0  0  0  0
  1 27  1  0  0  0  0
  1 28  1  0  0  0  0
  2  3  1  0  0  0  0
  2  4  1  0  0  0  0
  2 20  1  0  0  0  0
  3 29  1  0  0  0  0
  3 30  1  0  0  0  0
  3 31  1  0  0  0  0
  4  5  1  0  0  0  0
  4 32  1  0  0  0  0
  4 33  1  0  0  0  0
  5  6  1  0  0  0  0
  5 34  1  0  0  0  0
  6  7  2  0  0  0  0
  6  8  1  0  0  0  0
  8  9  1  0  0  0  0
  8 35  1  0  0  0  0
  9 14  1  0  0  0  0
  9 10  2  0  0  0  0
 10 11  1  0  0  0  0
 10 36  1  0  0  0  0
 11 12  2  0  0  0  0
 11 37  1  0  0  0  0
 12 13  1  0  0  0  0
 12 38  1  0  0  0  0
 13 14  2  0  0  0  0
 13 56  1  0  0  0  0
 14 15  1  0  0  0  0
 15 19  1  0  0  0  0
 15 16  1  0  0  0  0
 16 17  1  0  0  0  0
 16 39  1  0  0  0  0
 16 40  1  0  0  0  0
 17 18  1  0  0  0  0
 17 41  1  0  0  0  0
 17 42  1  0  0  0  0
 18 19  1  0  0  0  0
 18 43  1  0  0  0  0
 18 44  1  0  0  0  0
 19 45  1  0  0  0  0
 19 46  1  0  0  0  0
 20 25  1  0  0  0  0
 20 21  1  0  0  0  0
 20 55  1  0  0  0  0
 21 22  1  0  0  0  0
 21 47  1  0  0  0  0
 21 48  1  0  0  0  0
 22 23  1  0  0  0  0
 22 49  1  0  0  0  0
 22 50  1  0  0  0  0
 23 24  1  0  0  0  0
 24 25  1  0  0  0  0
 24 51  1  0  0  0  0
 24 52  1  0  0  0  0
 25 53  1  0  0  0  0
 25 54  1  0  0  0  0
M  CHG  1  13   1
M  CHG  1  20   1
M  END
> <s_m_source_file>
AV-unprocessed.smi

> <i_m_source_file_index>
1794

> <i_lp_mmshare_version>
43012

> <i_f3d_flags>
0

> <s_epik_input>
W0NIMl0xW0NIMl1PW0NIMl1bQ0gyXU4xQyhbQ0gzXSkoW0NIM10pW0NIMl1bTkhdQyg9TylbTkhdYzJbY0hdW2NIXVtjSF1uYzJOM1tDSDJdW0NIMl1bQ0gyXVtDSDJdMw==

> <s_epik_cmdline>
J2VwaWtfcHl0aG9uJywgJy1waCcsICc3LjAnLCAnLXRuJywgJzgnLCAnLW1hJywgJzIwMCcsICctbWV0YWxfYmluZGluZycsICctaW1hZScsICc8aW5maWxlLm1hZT4nLCAnLW9tYWUnLCAnPG91dGZpbGUubWFlPic=

> <r_lp_tautomer_probability>
0.999994

> <r_epik_Ionization_Penalty>
1.80144

> <r_epik_Ionization_Penalty_Charging>
1.80142

> <r_epik_Ionization_Penalty_Neutral>
2.02981e-05

> <r_epik_State_Penalty>
1.84115

> <r_epik_Charging_Adjusted_Penalty>
3.64257

> <i_epik_Tot_Q>
2

> <i_epik_Tot_abs_Q>
2

> <r_epik_Metal_State_Penalty>
1.92426

> <b_epik_Metal_Only>
0

> <s_lp_Force_Field>
OPLS_2005

> <r_lp_Energy>
63.0658

> <b_lp_Chiralities_Consistent>
1

> <s_lp_Variant>
AV-unprocessed.smi:1794-4

> <Gold.Version>
5.8.1

> <Gold.Id.Protein>
6NUR|6NUR_protein|mol2

> <Gold.PLP.Fitness>
41.7915

> <Gold.PLP.PLP>
-37.4697

> <Gold.PLP.part.hbond>
-2.0000

> <Gold.PLP.part.metal>
0.0000

> <Gold.PLP.part.buried>
-5.3189

> <Gold.PLP.part.nonpolar>
-29.5444

> <Gold.PLP.part.repulsive>
0.1982

> <Gold.PLP.ligand.clash>
0.0000

> <Gold.PLP.ligand.torsion>
0.6750

> <Gold.PLP.Chemscore.Hbond>
1.7280

> <Gold.PLP.Chemscore.CHOScore>
0.0000

> <Gold.PLP.Chemscore.Metal>
0.0000

> <Gold.Chemscore.Hbonds>
donor molecule, donor type, donor heavy atom, donor atom, acceptor molecule, acceptor atom, score
      L1  H     5    34       P1  7948  0.66
      P1  H  7997  8009       L1    23  1.00

> <Gold.PLP.Chemscore.Internal.Correction>
0.4879

> <Gold.Rescore>
     Score         DG    S(hbond)    S(metal)    S(lipo)     H(rot)  DE(clash)    DE(int)     intcor
     14.08     -16.53       1.50        0.00      87.52       1.64       0.18       2.27       ----

> <Gold.Chemscore.Fitness>
14.0821

> <Gold.Chemscore.DG>
-16.5345

> <Gold.Chemscore.ZeroCoef>
-5.4800

> <Gold.Chemscore.Hbond>
1.4971

> <Gold.Chemscore.Metal>
0.0000

> <Gold.Chemscore.Lipo>
87.5185

> <Gold.Chemscore.Internal_Hbond>
0.0000

> <Gold.Chemscore.DEClash>
0.1774

> <Gold.Chemscore.DEInternal>
2.2749

> <Gold.Chemscore.Rot>
1.6350

> <Gold.Chemscore.Internal.Correction>
   9.000000E+99

> <Gold.Chemscore.Hbonds>
donor molecule, donor type, donor heavy atom, donor atom, acceptor molecule, acceptor atom, score
      L1  H     5    34       P1  7948  0.50
      P1  H  7997  8009       L1    23  0.85

> <Gold.Chemscore.Hbond.Weighted>
-5.0004

> <Gold.Chemscore.Metal.Weighted>
-0.0000

> <Gold.Chemscore.Lipo.Weighted>
-10.2397

> <Gold.Chemscore.Internal_Hbond.Weighted>
0.0000

> <Gold.Chemscore.DEClash.Weighted>
0.1774

> <Gold.Chemscore.DEInternal.Weighted>
2.2749

> <Gold.Chemscore.Rot.Weighted>
4.1856

> <Gold.Chemscore.Internal.Correction.Weighted>
   9.000000E+99

> <Gold.Protein.RotatedTorsions>
[ 6907 6896 6895 6894 ] final  140.90 input  -60.11 | X-H torsion
[ 7974 7965 7964 7962 ] final   47.47 input  175.53 | X-H torsion
[ 8008 7997 7996 7995 ] final -176.48 input   59.86 | X-H torsion
[ 10167 10162 10161 10158 ] final  122.60 input  -65.29 | X-H torsion
[ 10718 10713 10712 10709 ] final  -44.43 input   66.30 | X-H torsion
[ 10763 10752 10751 10750 ] final  145.40 input  -60.55 | X-H torsion
[ 11005 11000 10999 10996 ] final  130.55 input  -57.11 | X-H torsion

> <Gold.Protein.ActiveResidues>
 VAL166  LYS551  ARG553  GLY616  TRP617  ASP618  TYR619  PRO620  LYS621  CYS622 
 ASP623  PHE694  ASN695  SER759  ASP760  ASP761  ALA762  ILE779  LEU786  VAL792 
 PHE793  MET794  SER795  GLU796  ALA797  LYS798  CYS799  TRP800  GLU811  SER814 

> <Gold.Protein.RotatedAtoms>
  152.2375  133.5108  159.5250 H   0  0  0  0  0  0  0  0  0  0  0  0  # atno 6907 bound_to 6896
  150.7055  134.1134  159.4017 H   0  0  0  0  0  0  0  0  0  0  0  0  # atno 6908 bound_to 6896
  151.9055  135.0361  160.0561 H   0  0  0  0  0  0  0  0  0  0  0  0  # atno 6909 bound_to 6896
  146.0295  139.4746  142.9847 H   0  0  0  0  0  0  0  0  0  0  0  0  # atno 7974 bound_to 7965
  155.9953  140.1209  157.0599 H   0  0  0  0  0  0  0  0  0  0  0  0  # atno 8008 bound_to 7997
  154.4224  140.1117  156.5691 H   0  0  0  0  0  0  0  0  0  0  0  0  # atno 8009 bound_to 7997
  155.6286  140.3473  155.4678 H   0  0  0  0  0  0  0  0  0  0  0  0  # atno 8010 bound_to 7997
  139.5849  144.7002  151.3435 H   0  0  0  0  0  0  0  0  0  0  0  0  # atno 10167 bound_to 10162
  156.2387  130.4178  149.8787 H   0  0  0  0  0  0  0  0  0  0  0  0  # atno 10718 bound_to 10713
  154.0048  135.2920  155.3399 H   0  0  0  0  0  0  0  0  0  0  0  0  # atno 10763 bound_to 10752
  154.7138  135.5138  153.8709 H   0  0  0  0  0  0  0  0  0  0  0  0  # atno 10764 bound_to 10752
  153.0749  135.6660  154.0286 H   0  0  0  0  0  0  0  0  0  0  0  0  # atno 10765 bound_to 10752
  139.9678  134.9586  156.9310 H   0  0  0  0  0  0  0  0  0  0  0  0  # atno 11005 bound_to 11000
  145.7064  141.0120  143.1477 LP  0  0  0  0  0  0  0  0  0  0  0  0  # atno 17320 bound_to 7965
  144.7024  139.8705  143.7440 LP  0  0  0  0  0  0  0  0  0  0  0  0  # atno 17321 bound_to 7965
  140.7122  143.7361  150.7588 LP  0  0  0  0  0  0  0  0  0  0  0  0  # atno 17342 bound_to 10162
  140.0902  143.4885  152.2482 LP  0  0  0  0  0  0  0  0  0  0  0  0  # atno 17343 bound_to 10162
  156.6376  130.8691  151.3507 LP  0  0  0  0  0  0  0  0  0  0  0  0  # atno 17370 bound_to 10713
  157.7165  130.9504  150.1277 LP  0  0  0  0  0  0  0  0  0  0  0  0  # atno 17371 bound_to 10713
  140.5357  134.0769  155.7328 LP  0  0  0  0  0  0  0  0  0  0  0  0  # atno 17394 bound_to 11000
  141.1358  133.9223  157.2436 LP  0  0  0  0  0  0  0  0  0  0  0  0  # atno 17395 bound_to 11000

$$$$
