AV-unprocessed.smi:1796|AV-procd|sdf|7253|dock10
  -GOLD-   22720 8503D 1   1.00000     0.00000
 Structure written by MMmdl.
 42 43  0  0  0  0  0  0  0  0  1 V2000
  153.4532  141.8879  161.8025 C   0  0  0  0  0  0  0  0  0  0  0  0
  152.8123  143.1717  161.2701 C   0  0  0  0  0  0  0  0  0  0  0  0
  152.5683  144.0721  162.0732 O   0  0  0  0  0  0  0  0  0  0  0  0
  152.5308  143.2727  159.9487 N   0  0  0  0  0  0  0  0  0  0  0  0
  151.8321  144.4279  159.3723 C   0  0  0  0  0  0  0  0  0  0  0  0
  150.4137  143.9924  158.9621 C   0  0  0  0  0  0  0  0  0  0  0  0
  150.4602  142.7928  157.9965 C   0  0  0  0  0  0  0  0  0  0  0  0
  151.3516  141.6512  158.5406 C   0  0  1  0  0  0  0  0  0  0  0  0
  151.4985  140.5312  157.5039 C   0  0  0  0  0  0  0  0  0  0  0  0
  152.6138  140.0928  157.2208 O   0  0  0  0  0  0  0  0  0  0  0  0
  150.3644  140.0899  156.9361 N   0  0  0  0  0  0  0  0  0  0  0  0
  150.2737  139.0723  155.8895 C   0  0  1  0  0  0  0  0  0  0  0  0
  149.1005  138.1350  156.2059 C   0  0  0  0  0  0  0  0  0  0  0  0
  150.1109  139.7278  154.5010 C   0  0  0  0  0  0  0  0  0  0  0  0
  148.8302  140.3934  154.3399 N   0  0  0  0  0  0  0  0  0  0  0  0
  148.5289  141.7270  154.5221 C   0  0  0  0  0  0  0  0  0  0  0  0
  147.2043  141.8871  154.2333 C   0  0  0  0  0  0  0  0  0  0  0  0
  146.7739  140.5762  153.8848 C   0  0  0  0  0  0  0  0  0  0  0  0
  147.7485  139.6835  153.9533 N   0  0  0  0  0  0  0  0  0  0  0  0
  152.7314  142.2105  158.9546 C   0  0  0  0  0  0  0  0  0  0  0  0
  152.8294  141.0219  161.5790 H   0  0  0  0  0  0  0  0  0  0  0  0
  153.5745  141.9392  162.8850 H   0  0  0  0  0  0  0  0  0  0  0  0
  154.4401  141.7383  161.3636 H   0  0  0  0  0  0  0  0  0  0  0  0
  151.7776  145.2750  160.0573 H   0  0  0  0  0  0  0  0  0  0  0  0
  152.3817  144.7860  158.5006 H   0  0  0  0  0  0  0  0  0  0  0  0
  149.8451  143.7219  159.8530 H   0  0  0  0  0  0  0  0  0  0  0  0
  149.8846  144.8252  158.4982 H   0  0  0  0  0  0  0  0  0  0  0  0
  149.4488  142.4285  157.8120 H   0  0  0  0  0  0  0  0  0  0  0  0
  150.8422  143.1351  157.0332 H   0  0  0  0  0  0  0  0  0  0  0  0
  150.8723  141.2382  159.4304 H   0  0  0  0  0  0  0  0  0  0  0  0
  149.4956  140.5079  157.2361 H   0  0  0  0  0  0  0  0  0  0  0  0
  151.1788  138.4622  155.8854 H   0  0  0  0  0  0  0  0  0  0  0  0
  149.0247  137.3389  155.4645 H   0  0  0  0  0  0  0  0  0  0  0  0
  148.1519  138.6729  156.2141 H   0  0  0  0  0  0  0  0  0  0  0  0
  149.2260  137.6638  157.1813 H   0  0  0  0  0  0  0  0  0  0  0  0
  150.8975  140.4664  154.3397 H   0  0  0  0  0  0  0  0  0  0  0  0
  150.2189  138.9831  153.7112 H   0  0  0  0  0  0  0  0  0  0  0  0
  149.2763  142.4436  154.8292 H   0  0  0  0  0  0  0  0  0  0  0  0
  146.6305  142.8014  154.2642 H   0  0  0  0  0  0  0  0  0  0  0  0
  145.7891  140.2486  153.5861 H   0  0  0  0  0  0  0  0  0  0  0  0
  153.2463  142.6336  158.0901 H   0  0  0  0  0  0  0  0  0  0  0  0
  153.3771  141.4064  159.3061 H   0  0  0  0  0  0  0  0  0  0  0  0
  1  2  1  0  0  0  0
  1 21  1  0  0  0  0
  1 22  1  0  0  0  0
  1 23  1  0  0  0  0
  2  3  2  0  0  0  0
  2  4  1  0  0  0  0
  4 20  1  0  0  0  0
  4  5  1  0  0  0  0
  5  6  1  0  0  0  0
  5 24  1  0  0  0  0
  5 25  1  0  0  0  0
  6  7  1  0  0  0  0
  6 26  1  0  0  0  0
  6 27  1  0  0  0  0
  7  8  1  0  0  0  0
  7 28  1  0  0  0  0
  7 29  1  0  0  0  0
  8  9  1  0  0  0  0
  8 20  1  0  0  0  0
  8 30  1  0  0  0  0
  9 10  2  0  0  0  0
  9 11  1  0  0  0  0
 11 12  1  0  0  0  0
 11 31  1  0  0  0  0
 12 13  1  0  0  0  0
 12 14  1  0  0  0  0
 12 32  1  0  0  0  0
 13 33  1  0  0  0  0
 13 34  1  0  0  0  0
 13 35  1  0  0  0  0
 14 15  1  0  0  0  0
 14 36  1  0  0  0  0
 14 37  1  0  0  0  0
 15 19  1  0  0  0  0
 15 16  1  0  0  0  0
 16 17  2  0  0  0  0
 16 38  1  0  0  0  0
 17 18  1  0  0  0  0
 17 39  1  0  0  0  0
 18 19  2  0  0  0  0
 18 40  1  0  0  0  0
 20 41  1  0  0  0  0
 20 42  1  0  0  0  0
M  END
> <s_m_source_file>
AV-unprocessed.smi

> <i_m_source_file_index>
1796

> <i_lp_mmshare_version>
43012

> <i_f3d_flags>
0

> <s_epik_input>
W0NIM11DKD1PKU4xW0NIMl1bQ0gyXVtDSDJdW0NASF0oW0NIMl0xKUMoPU8pW05IXVtDQEhdKFtDSDNdKVtDSDJdbjJbY0hdW2NIXVtjSF1uMg==

> <s_epik_cmdline>
J2VwaWtfcHl0aG9uJywgJy1waCcsICc3LjAnLCAnLXRuJywgJzgnLCAnLW1hJywgJzIwMCcsICctbWV0YWxfYmluZGluZycsICctaW1hZScsICc8aW5maWxlLm1hZT4nLCAnLW9tYWUnLCAnPG91dGZpbGUubWFlPic=

> <r_lp_tautomer_probability>
1

> <r_epik_Ionization_Penalty>
0.000315051

> <r_epik_Ionization_Penalty_Charging>
0

> <r_epik_Ionization_Penalty_Neutral>
0.000315051

> <r_epik_State_Penalty>
-0

> <r_epik_Charging_Adjusted_Penalty>
0

> <i_epik_Tot_Q>
0

> <i_epik_Tot_abs_Q>
0

> <r_epik_Metal_State_Penalty>
-0

> <b_epik_Metal_Only>
0

> <s_lp_Force_Field>
OPLS_2005

> <r_lp_Energy>
22.8088

> <b_lp_Chiralities_Consistent>
1

> <s_lp_Variant>
AV-unprocessed.smi:1796-3

> <Gold.Version>
5.8.1

> <Gold.Id.Protein>
6NUR|6NUR_protein|mol2

> <Gold.PLP.Fitness>
48.9645

> <Gold.PLP.PLP>
-41.9907

> <Gold.PLP.part.hbond>
-1.0000

> <Gold.PLP.part.metal>
0.0000

> <Gold.PLP.part.buried>
-1.9568

> <Gold.PLP.part.nonpolar>
-38.0310

> <Gold.PLP.part.repulsive>
0.3608

> <Gold.PLP.ligand.clash>
0.0000

> <Gold.PLP.ligand.torsion>
0.8208

> <Gold.PLP.Chemscore.Hbond>
1.0000

> <Gold.PLP.Chemscore.CHOScore>
1.8627

> <Gold.PLP.Chemscore.Metal>
0.0000

> <Gold.Chemscore.Hbonds>
donor molecule, donor type, donor heavy atom, donor atom, acceptor molecule, acceptor atom, score
      P1  H  7997  8010       L1    10  1.00
      L1  C    16    38       P1  8028  0.93
      L1  C    18    40       P1 10175  1.00

> <Gold.PLP.Chemscore.Internal.Correction>
0.0272

> <Gold.Rescore>
     Score         DG    S(hbond)    S(metal)    S(lipo)     H(rot)  DE(clash)    DE(int)     intcor
     14.17     -14.84       0.96        0.00      88.37       1.63       0.00       0.67       ----

> <Gold.Chemscore.Fitness>
14.1656

> <Gold.Chemscore.DG>
-14.8394

> <Gold.Chemscore.ZeroCoef>
-5.4800

> <Gold.Chemscore.Hbond>
0.9588

> <Gold.Chemscore.Metal>
0.0000

> <Gold.Chemscore.Lipo>
88.3702

> <Gold.Chemscore.Internal_Hbond>
0.0000

> <Gold.Chemscore.DEClash>
0.0047

> <Gold.Chemscore.DEInternal>
0.6692

> <Gold.Chemscore.Rot>
1.6336

> <Gold.Chemscore.Internal.Correction>
   9.000000E+99

> <Gold.Chemscore.Hbonds>
donor molecule, donor type, donor heavy atom, donor atom, acceptor molecule, acceptor atom, score
      P1  H  7997  8010       L1    10  0.97

> <Gold.Chemscore.Hbond.Weighted>
-3.2023

> <Gold.Chemscore.Metal.Weighted>
-0.0000

> <Gold.Chemscore.Lipo.Weighted>
-10.3393

> <Gold.Chemscore.Internal_Hbond.Weighted>
0.0000

> <Gold.Chemscore.DEClash.Weighted>
0.0047

> <Gold.Chemscore.DEInternal.Weighted>
0.6692

> <Gold.Chemscore.Rot.Weighted>
4.1821

> <Gold.Chemscore.Internal.Correction.Weighted>
   9.000000E+99

> <Gold.Protein.RotatedTorsions>
[ 6907 6896 6895 6894 ] final   29.92 input  -60.11 | X-H torsion
[ 7974 7965 7964 7962 ] final  128.99 input  175.53 | X-H torsion
[ 8008 7997 7996 7995 ] final   51.92 input   59.86 | X-H torsion
[ 10167 10162 10161 10158 ] final  -32.86 input  -65.29 | X-H torsion
[ 10718 10713 10712 10709 ] final -125.64 input   66.30 | X-H torsion
[ 10763 10752 10751 10750 ] final   65.31 input  -60.55 | X-H torsion
[ 11005 11000 10999 10996 ] final  179.29 input  -57.11 | X-H torsion

> <Gold.Protein.ActiveResidues>
 VAL166  LYS551  ARG553  GLY616  TRP617  ASP618  TYR619  PRO620  LYS621  CYS622 
 ASP623  PHE694  ASN695  SER759  ASP760  ASP761  ALA762  ILE779  LEU786  VAL792 
 PHE793  MET794  SER795  GLU796  ALA797  LYS798  CYS799  TRP800  GLU811  SER814 

> <Gold.Protein.RotatedAtoms>
  152.0385  134.9725  160.0573 H   0  0  0  0  0  0  0  0  0  0  0  0  # atno 6907 bound_to 6896
  152.1173  133.4329  159.4667 H   0  0  0  0  0  0  0  0  0  0  0  0  # atno 6908 bound_to 6896
  150.6847  134.2495  159.4548 H   0  0  0  0  0  0  0  0  0  0  0  0  # atno 6909 bound_to 6896
  145.0335  139.4025  143.5137 H   0  0  0  0  0  0  0  0  0  0  0  0  # atno 7974 bound_to 7965
  155.4433  140.3455  155.4292 H   0  0  0  0  0  0  0  0  0  0  0  0  # atno 8008 bound_to 7997
  156.1265  140.1502  156.9158 H   0  0  0  0  0  0  0  0  0  0  0  0  # atno 8009 bound_to 7997
  154.4862  140.0854  156.7472 H   0  0  0  0  0  0  0  0  0  0  0  0  # atno 8010 bound_to 7997
  140.7214  143.3663  151.1865 H   0  0  0  0  0  0  0  0  0  0  0  0  # atno 10167 bound_to 10162
  156.1693  130.6656  151.0158 H   0  0  0  0  0  0  0  0  0  0  0  0  # atno 10718 bound_to 10713
  153.0091  135.5361  154.6647 H   0  0  0  0  0  0  0  0  0  0  0  0  # atno 10763 bound_to 10752
  154.5847  135.2853  155.0699 H   0  0  0  0  0  0  0  0  0  0  0  0  # atno 10764 bound_to 10752
  154.1815  135.6515  153.5088 H   0  0  0  0  0  0  0  0  0  0  0  0  # atno 10765 bound_to 10752
  140.4045  134.6747  157.4580 H   0  0  0  0  0  0  0  0  0  0  0  0  # atno 11005 bound_to 11000
  146.3501  139.9898  142.8687 LP  0  0  0  0  0  0  0  0  0  0  0  0  # atno 17320 bound_to 7965
  145.1739  140.9734  143.4305 LP  0  0  0  0  0  0  0  0  0  0  0  0  # atno 17321 bound_to 7965
  139.7225  143.9201  152.2990 LP  0  0  0  0  0  0  0  0  0  0  0  0  # atno 17342 bound_to 10162
  139.8962  144.6937  150.8715 LP  0  0  0  0  0  0  0  0  0  0  0  0  # atno 17343 bound_to 10162
  157.6791  131.0843  150.7417 LP  0  0  0  0  0  0  0  0  0  0  0  0  # atno 17370 bound_to 10713
  156.7476  130.4758  149.5463 LP  0  0  0  0  0  0  0  0  0  0  0  0  # atno 17371 bound_to 10713
  140.0312  134.6403  155.9104 LP  0  0  0  0  0  0  0  0  0  0  0  0  # atno 17394 bound_to 11000
  141.1844  133.6553  156.5156 LP  0  0  0  0  0  0  0  0  0  0  0  0  # atno 17395 bound_to 11000

$$$$
