AV-unprocessed.smi:2438|AV-procd|sdf|9598|dock9
  -GOLD-   2272013233D 1   1.00000     0.00000
 Structure written by MMmdl.
 43 44  0  0  0  0  0  0  0  0  1 V2000
  145.8179  132.6163  161.7493 C   0  0  0  0  0  0  0  0  0  0  0  0
  147.1559  132.9936  161.3151 N   0  0  0  0  0  0  0  0  0  0  0  0
  148.2488  132.1669  161.8123 C   0  0  0  0  0  0  0  0  0  0  0  0
  147.3722  134.3863  161.3236 C   0  0  0  0  0  0  0  0  0  0  0  0
  147.1864  135.0512  162.4899 N   0  0  0  0  0  0  0  0  0  0  0  0
  147.3737  136.3718  162.4847 C   0  0  0  0  0  0  0  0  0  0  0  0
  147.7360  137.1210  161.4437 N   0  0  0  0  0  0  0  0  0  0  0  0
  147.9286  136.4803  160.2723 C   0  0  0  0  0  0  0  0  0  0  0  0
  147.7489  135.0807  160.1440 C   0  0  0  0  0  0  0  0  0  0  0  0
  147.9873  134.3691  158.9358 N   0  0  0  0  0  0  0  0  0  0  0  0
  148.8936  134.6421  157.9838 C   0  0  0  0  0  0  0  0  0  0  0  0
  149.7320  135.5415  158.0378 O   0  0  0  0  0  0  0  0  0  0  0  0
  148.7541  133.8187  156.9357 N   0  0  0  0  0  0  0  0  0  0  0  0
  149.5296  133.8807  155.6980 C   0  0  1  0  0  0  0  0  0  0  0  0
  150.3948  132.6148  155.5477 C   0  0  0  0  0  0  0  0  0  0  0  0
  149.5477  131.3664  155.2462 C   0  0  0  0  0  0  0  0  0  0  0  0
  148.6510  131.5796  154.0162 C   0  0  0  0  0  0  0  0  0  0  0  0
  147.7492  132.8219  154.1756 C   0  0  2  0  0  0  0  0  0  0  0  0
  146.8282  133.0313  152.9566 C   0  0  0  0  0  0  0  0  0  0  0  0
  146.1391  131.9225  152.6860 F   0  0  0  0  0  0  0  0  0  0  0  0
  145.9712  134.0235  153.1982 F   0  0  0  0  0  0  0  0  0  0  0  0
  147.5532  133.3605  151.8874 F   0  0  0  0  0  0  0  0  0  0  0  0
  148.6152  134.0681  154.4669 C   0  0  0  0  0  0  0  0  0  0  0  0
  145.0460  133.1159  161.1641 H   0  0  0  0  0  0  0  0  0  0  0  0
  145.6712  132.8754  162.7985 H   0  0  0  0  0  0  0  0  0  0  0  0
  145.6727  131.5410  161.6418 H   0  0  0  0  0  0  0  0  0  0  0  0
  149.2047  132.4977  161.4043 H   0  0  0  0  0  0  0  0  0  0  0  0
  148.1005  131.1285  161.5155 H   0  0  0  0  0  0  0  0  0  0  0  0
  148.3028  132.2055  162.9009 H   0  0  0  0  0  0  0  0  0  0  0  0
  147.2207  136.8862  163.4218 H   0  0  0  0  0  0  0  0  0  0  0  0
  148.2535  137.0999  159.4507 H   0  0  0  0  0  0  0  0  0  0  0  0
  147.3127  133.6499  158.7180 H   0  0  0  0  0  0  0  0  0  0  0  0
  148.0379  133.1089  156.9846 H   0  0  0  0  0  0  0  0  0  0  0  0
  150.2016  134.7381  155.7670 H   0  0  0  0  0  0  0  0  0  0  0  0
  151.1068  132.7645  154.7351 H   0  0  0  0  0  0  0  0  0  0  0  0
  150.9914  132.4545  156.4466 H   0  0  0  0  0  0  0  0  0  0  0  0
  150.2003  130.5082  155.0832 H   0  0  0  0  0  0  0  0  0  0  0  0
  148.9299  131.1209  156.1108 H   0  0  0  0  0  0  0  0  0  0  0  0
  149.2746  131.6871  153.1279 H   0  0  0  0  0  0  0  0  0  0  0  0
  148.0408  130.6902  153.8567 H   0  0  0  0  0  0  0  0  0  0  0  0
  147.1024  132.6533  155.0380 H   0  0  0  0  0  0  0  0  0  0  0  0
  147.9808  134.9446  154.6022 H   0  0  0  0  0  0  0  0  0  0  0  0
  149.2367  134.2841  153.5970 H   0  0  0  0  0  0  0  0  0  0  0  0
  1  2  1  0  0  0  0
  1 24  1  0  0  0  0
  1 25  1  0  0  0  0
  1 26  1  0  0  0  0
  2  3  1  0  0  0  0
  2  4  1  0  0  0  0
  3 27  1  0  0  0  0
  3 28  1  0  0  0  0
  3 29  1  0  0  0  0
  4  9  1  0  0  0  0
  4  5  2  0  0  0  0
  5  6  1  0  0  0  0
  6  7  2  0  0  0  0
  6 30  1  0  0  0  0
  7  8  1  0  0  0  0
  8  9  2  0  0  0  0
  8 31  1  0  0  0  0
  9 10  1  0  0  0  0
 10 11  1  0  0  0  0
 10 32  1  0  0  0  0
 11 12  2  0  0  0  0
 11 13  1  0  0  0  0
 13 14  1  0  0  0  0
 13 33  1  0  0  0  0
 14 23  1  0  0  0  0
 14 15  1  0  0  0  0
 14 34  1  0  0  0  0
 15 16  1  0  0  0  0
 15 35  1  0  0  0  0
 15 36  1  0  0  0  0
 16 17  1  0  0  0  0
 16 37  1  0  0  0  0
 16 38  1  0  0  0  0
 17 18  1  0  0  0  0
 17 39  1  0  0  0  0
 17 40  1  0  0  0  0
 18 19  1  0  0  0  0
 18 23  1  0  0  0  0
 18 41  1  0  0  0  0
 19 20  1  0  0  0  0
 19 21  1  0  0  0  0
 19 22  1  0  0  0  0
 23 42  1  0  0  0  0
 23 43  1  0  0  0  0
M  END
> <s_m_source_file>
AV-unprocessed.smi

> <i_m_source_file_index>
2438

> <i_lp_mmshare_version>
43012

> <i_f3d_flags>
0

> <s_epik_input>
W0NIM11OKFtDSDNdKWMxbltjSF1uW2NIXWMxW05IXUMoPU8pW05IXVtDQEBIXTJbQ0gyXVtDSDJdW0NIMl1bQ0BASF0oQyhGKShGKUYpW0NIMl0y

> <s_epik_cmdline>
J2VwaWtfcHl0aG9uJywgJy1waCcsICc3LjAnLCAnLXRuJywgJzgnLCAnLW1hJywgJzIwMCcsICctbWV0YWxfYmluZGluZycsICctaW1hZScsICc8aW5maWxlLm1hZT4nLCAnLW9tYWUnLCAnPG91dGZpbGUubWFlPic=

> <r_lp_tautomer_probability>
1

> <r_epik_Ionization_Penalty>
0.01759

> <r_epik_Ionization_Penalty_Charging>
0

> <r_epik_Ionization_Penalty_Neutral>
0.01759

> <r_epik_State_Penalty>
0.0133536

> <r_epik_Charging_Adjusted_Penalty>
0.0133536

> <i_epik_Tot_Q>
0

> <i_epik_Tot_abs_Q>
0

> <r_epik_Metal_State_Penalty>
0.0129828

> <b_epik_Metal_Only>
0

> <s_lp_Force_Field>
OPLS_2005

> <r_lp_Energy>
8.79066

> <b_lp_Chiralities_Consistent>
1

> <s_lp_Variant>
AV-unprocessed.smi:2438-4

> <Gold.Version>
5.8.1

> <Gold.Id.Protein>
6NUR|6NUR_protein|mol2

> <Gold.PLP.Fitness>
40.9738

> <Gold.PLP.PLP>
-34.4515

> <Gold.PLP.part.hbond>
-3.0000

> <Gold.PLP.part.metal>
0.0000

> <Gold.PLP.part.buried>
-4.1703

> <Gold.PLP.part.nonpolar>
-26.9543

> <Gold.PLP.part.repulsive>
0.1202

> <Gold.PLP.ligand.clash>
0.0000

> <Gold.PLP.ligand.torsion>
0.5874

> <Gold.PLP.Chemscore.Hbond>
2.4500

> <Gold.PLP.Chemscore.CHOScore>
0.0000

> <Gold.PLP.Chemscore.Metal>
0.0000

> <Gold.Chemscore.Hbonds>
donor molecule, donor type, donor heavy atom, donor atom, acceptor molecule, acceptor atom, score
      P1  H  6896  6907       L1    12  0.65
      P1  H  6931  6943       L1     7  1.00
      P1  H  6934  6947       L1     7  0.76

> <Gold.PLP.Chemscore.Internal.Correction>
0.3471

> <Gold.Rescore>
     Score         DG    S(hbond)    S(metal)    S(lipo)     H(rot)  DE(clash)    DE(int)     intcor
     14.08     -16.38       2.38        0.00      53.52       1.30       0.90       1.40       ----

> <Gold.Chemscore.Fitness>
14.0770

> <Gold.Chemscore.DG>
-16.3791

> <Gold.Chemscore.ZeroCoef>
-5.4800

> <Gold.Chemscore.Hbond>
2.3838

> <Gold.Chemscore.Metal>
0.0000

> <Gold.Chemscore.Lipo>
53.5205

> <Gold.Chemscore.Internal_Hbond>
0.0000

> <Gold.Chemscore.DEClash>
0.9027

> <Gold.Chemscore.DEInternal>
1.3994

> <Gold.Chemscore.Rot>
1.2987

> <Gold.Chemscore.Internal.Correction>
   9.000000E+99

> <Gold.Chemscore.Hbonds>
donor molecule, donor type, donor heavy atom, donor atom, acceptor molecule, acceptor atom, score
      P1  H  6896  6907       L1    12  0.05
      P1  H  6931  6943       L1     7  0.68
      P1  H  6934  6947       L1     7  0.39

> <Gold.Chemscore.Hbond.Weighted>
-7.9618

> <Gold.Chemscore.Metal.Weighted>
-0.0000

> <Gold.Chemscore.Lipo.Weighted>
-6.2619

> <Gold.Chemscore.Internal_Hbond.Weighted>
0.0000

> <Gold.Chemscore.DEClash.Weighted>
0.9027

> <Gold.Chemscore.DEInternal.Weighted>
1.3994

> <Gold.Chemscore.Rot.Weighted>
3.3246

> <Gold.Chemscore.Internal.Correction.Weighted>
   9.000000E+99

> <Gold.Protein.RotatedTorsions>
[ 6907 6896 6895 6894 ] final  -64.62 input  -60.11 | X-H torsion
[ 7974 7965 7964 7962 ] final   81.31 input  175.53 | X-H torsion
[ 8008 7997 7996 7995 ] final -173.02 input   59.86 | X-H torsion
[ 10167 10162 10161 10158 ] final  -59.55 input  -65.29 | X-H torsion
[ 10718 10713 10712 10709 ] final   64.55 input   66.30 | X-H torsion
[ 10763 10752 10751 10750 ] final   65.55 input  -60.55 | X-H torsion
[ 11005 11000 10999 10996 ] final -154.30 input  -57.11 | X-H torsion

> <Gold.Protein.ActiveResidues>
 VAL166  LYS551  ARG553  GLY616  TRP617  ASP618  TYR619  PRO620  LYS621  CYS622 
 ASP623  PHE694  ASN695  SER759  ASP760  ASP761  ALA762  ILE779  LEU786  VAL792 
 PHE793  MET794  SER795  GLU796  ALA797  LYS798  CYS799  TRP800  GLU811  SER814 

> <Gold.Protein.RotatedAtoms>
  150.7574  134.6273  159.6167 H   0  0  0  0  0  0  0  0  0  0  0  0  # atno 6907 bound_to 6896
  152.3562  134.6934  160.0230 H   0  0  0  0  0  0  0  0  0  0  0  0  # atno 6908 bound_to 6896
  151.7339  133.3283  159.3384 H   0  0  0  0  0  0  0  0  0  0  0  0  # atno 6909 bound_to 6896
  145.6398  139.2423  143.2037 H   0  0  0  0  0  0  0  0  0  0  0  0  # atno 7974 bound_to 7965
  155.9521  140.1128  157.0968 H   0  0  0  0  0  0  0  0  0  0  0  0  # atno 8008 bound_to 7997
  154.4112  140.1198  156.5133 H   0  0  0  0  0  0  0  0  0  0  0  0  # atno 8009 bound_to 7997
  155.6829  140.3473  155.4864 H   0  0  0  0  0  0  0  0  0  0  0  0  # atno 8010 bound_to 7997
  140.6128  143.2392  151.5670 H   0  0  0  0  0  0  0  0  0  0  0  0  # atno 10167 bound_to 10162
  157.6047  130.9166  149.9860 H   0  0  0  0  0  0  0  0  0  0  0  0  # atno 10718 bound_to 10713
  153.0101  135.5353  154.6684 H   0  0  0  0  0  0  0  0  0  0  0  0  # atno 10763 bound_to 10752
  154.5875  135.2855  155.0672 H   0  0  0  0  0  0  0  0  0  0  0  0  # atno 10764 bound_to 10752
  154.1777  135.6521  153.5078 H   0  0  0  0  0  0  0  0  0  0  0  0  # atno 10765 bound_to 10752
  140.6989  134.3959  157.5212 H   0  0  0  0  0  0  0  0  0  0  0  0  # atno 11005 bound_to 11000
  146.1290  140.7210  142.9421 LP  0  0  0  0  0  0  0  0  0  0  0  0  # atno 17320 bound_to 7965
  144.7162  140.4216  143.7043 LP  0  0  0  0  0  0  0  0  0  0  0  0  # atno 17321 bound_to 7965
  139.5374  144.2742  152.1280 LP  0  0  0  0  0  0  0  0  0  0  0  0  # atno 17342 bound_to 10162
  140.1945  144.4719  150.6462 LP  0  0  0  0  0  0  0  0  0  0  0  0  # atno 17343 bound_to 10162
  156.1130  130.3649  150.0017 LP  0  0  0  0  0  0  0  0  0  0  0  0  # atno 17370 bound_to 10713
  156.8111  130.9325  151.3644 LP  0  0  0  0  0  0  0  0  0  0  0  0  # atno 17371 bound_to 10713
  139.8902  134.8810  156.2380 LP  0  0  0  0  0  0  0  0  0  0  0  0  # atno 17394 bound_to 11000
  141.0180  133.7057  156.1221 LP  0  0  0  0  0  0  0  0  0  0  0  0  # atno 17395 bound_to 11000

$$$$
