AV-unprocessed.smi:3145|AV-procd|sdf|11980|dock3
  -GOLD-   2272017383D 1   1.00000     0.00000
 Structure written by MMmdl.
 35 35  0  0  0  0  0  0  0  0  2 V2000
  147.5704  131.5653  153.2063 C   0  0  0  0  0  0  0  0  0  0  0  0
  147.3528  132.9589  152.6013 C   0  0  1  0  0  0  0  0  0  0  0  0
  145.8489  133.3045  152.5595 C   0  0  0  0  0  0  0  0  0  0  0  0
  145.1892  132.8252  151.3584 N   0  0  0  0  0  0  0  0  0  0  0  0
  145.7563  132.2578  150.2368 C   0  0  0  0  0  0  0  0  0  0  0  0
  144.7417  131.9780  149.3669 C   0  0  0  0  0  0  0  0  0  0  0  0
  143.5748  132.4123  150.0557 C   0  0  0  0  0  0  0  0  0  0  0  0
  143.8461  132.9204  151.2472 N   0  0  0  0  0  0  0  0  0  0  0  0
  148.1117  133.9583  153.3872 N   0  3  0  0  0  0  0  0  0  0  0  0
  149.4024  133.4828  153.9304 C   0  0  0  0  0  0  0  0  0  0  0  0
  150.0362  134.5112  154.8670 C   0  0  0  0  0  0  0  0  0  0  0  0
  150.5761  134.1532  155.9142 O   0  0  0  0  0  0  0  0  0  0  0  0
  149.9771  135.7906  154.4707 N   0  0  0  0  0  0  0  0  0  0  0  0
  150.5292  136.9103  155.2213 C   0  0  0  0  0  0  0  0  0  0  0  0
  150.8048  138.0979  154.2931 C   0  0  0  0  0  0  0  0  0  0  0  0
  151.8973  138.9544  154.7789 C   0  0  0  0  0  0  0  0  0  0  0  0
  152.7565  139.6279  155.1612 N   0  0  0  0  0  0  0  0  0  0  0  0
  147.0450  130.8014  152.6324 H   0  0  0  0  0  0  0  0  0  0  0  0
  147.2072  131.5162  154.2336 H   0  0  0  0  0  0  0  0  0  0  0  0
  148.6281  131.2993  153.2133 H   0  0  0  0  0  0  0  0  0  0  0  0
  147.7411  132.9337  151.5815 H   0  0  0  0  0  0  0  0  0  0  0  0
  145.3405  132.8589  153.4156 H   0  0  0  0  0  0  0  0  0  0  0  0
  145.7004  134.3829  152.6411 H   0  0  0  0  0  0  0  0  0  0  0  0
  146.8221  132.1043  150.1506 H   0  0  0  0  0  0  0  0  0  0  0  0
  144.8206  131.5283  148.3881 H   0  0  0  0  0  0  0  0  0  0  0  0
  142.5464  132.3745  149.7270 H   0  0  0  0  0  0  0  0  0  0  0  0
  148.2787  134.7668  152.8050 H   0  0  0  0  0  0  0  0  0  0  0  0
  149.2426  132.5554  154.4815 H   0  0  0  0  0  0  0  0  0  0  0  0
  150.0935  133.2597  153.1175 H   0  0  0  0  0  0  0  0  0  0  0  0
  149.5199  136.0036  153.5956 H   0  0  0  0  0  0  0  0  0  0  0  0
  149.8315  137.2077  156.0059 H   0  0  0  0  0  0  0  0  0  0  0  0
  151.4524  136.5967  155.7109 H   0  0  0  0  0  0  0  0  0  0  0  0
  151.0729  137.7496  153.2955 H   0  0  0  0  0  0  0  0  0  0  0  0
  149.9145  138.7192  154.1932 H   0  0  0  0  0  0  0  0  0  0  0  0
  147.5442  134.2448  154.1721 H   0  0  0  0  0  0  0  0  0  0  0  0
  1  2  1  0  0  0  0
  1 18  1  0  0  0  0
  1 19  1  0  0  0  0
  1 20  1  0  0  0  0
  2  3  1  0  0  0  0
  2  9  1  0  0  0  0
  2 21  1  0  0  0  0
  3  4  1  0  0  0  0
  3 22  1  0  0  0  0
  3 23  1  0  0  0  0
  4  8  1  0  0  0  0
  4  5  1  0  0  0  0
  5  6  2  0  0  0  0
  5 24  1  0  0  0  0
  6  7  1  0  0  0  0
  6 25  1  0  0  0  0
  7  8  2  0  0  0  0
  7 26  1  0  0  0  0
  9 10  1  0  0  0  0
  9 27  1  0  0  0  0
  9 35  1  0  0  0  0
 10 11  1  0  0  0  0
 10 28  1  0  0  0  0
 10 29  1  0  0  0  0
 11 12  2  0  0  0  0
 11 13  1  0  0  0  0
 13 14  1  0  0  0  0
 13 30  1  0  0  0  0
 14 15  1  0  0  0  0
 14 31  1  0  0  0  0
 14 32  1  0  0  0  0
 15 16  1  0  0  0  0
 15 33  1  0  0  0  0
 15 34  1  0  0  0  0
 16 17  3  0  0  0  0
M  CHG  1   9   1
M  END
> <s_m_source_file>
AV-unprocessed.smi

> <i_m_source_file_index>
3145

> <i_lp_mmshare_version>
43012

> <i_f3d_flags>
0

> <s_epik_input>
bjFbY0hdW2NIXVtjSF1uMVtDSDJdW0NAQEhdKFtDSDNdKVtOSF1bQ0gyXUMoPU8pW05IXVtDSDJdW0NIMl1DI04=

> <s_epik_cmdline>
J2VwaWtfcHl0aG9uJywgJy1waCcsICc3LjAnLCAnLXRuJywgJzgnLCAnLW1hJywgJzIwMCcsICctbWV0YWxfYmluZGluZycsICctaW1hZScsICc8aW5maWxlLm1hZT4nLCAnLW9tYWUnLCAnPG91dGZpbGUubWFlPic=

> <r_lp_tautomer_probability>
1

> <r_epik_Ionization_Penalty>
0.190162

> <r_epik_Ionization_Penalty_Charging>
0.190142

> <r_epik_Ionization_Penalty_Neutral>
2.0165e-05

> <r_epik_State_Penalty>
0.179787

> <r_epik_Charging_Adjusted_Penalty>
0.369929

> <i_epik_Tot_Q>
1

> <i_epik_Tot_abs_Q>
1

> <r_epik_Metal_State_Penalty>
0.191786

> <b_epik_Metal_Only>
0

> <s_lp_Force_Field>
OPLS_2005

> <r_lp_Energy>
4.60732

> <b_lp_Chiralities_Consistent>
1

> <s_lp_Variant>
AV-unprocessed.smi:3145-2

> <Gold.Version>
5.8.1

> <Gold.Id.Protein>
6NUR|6NUR_protein|mol2

> <Gold.PLP.Fitness>
52.5028

> <Gold.PLP.PLP>
-34.9172

> <Gold.PLP.part.hbond>
-4.6256

> <Gold.PLP.part.metal>
0.0000

> <Gold.PLP.part.buried>
-4.0567

> <Gold.PLP.part.nonpolar>
-27.6209

> <Gold.PLP.part.repulsive>
0.2745

> <Gold.PLP.ligand.clash>
0.0344

> <Gold.PLP.ligand.torsion>
1.2382

> <Gold.PLP.Chemscore.Hbond>
4.0000

> <Gold.PLP.Chemscore.CHOScore>
2.6508

> <Gold.PLP.Chemscore.Metal>
0.0000

> <Gold.Chemscore.Hbonds>
donor molecule, donor type, donor heavy atom, donor atom, acceptor molecule, acceptor atom, score
      L1  H     9    27       P1  7948  2.00
      L1  H    13    30       P1  7948  1.00
      P1  H  7997  8008       L1    17  1.00
      L1  C     5    24       P1 10747  1.00
      L1  C     7    26       P1 10186  0.84
      L1  C     7    26       P1 10952  0.68

> <Gold.PLP.Chemscore.Internal.Correction>
0.1441

> <Gold.Rescore>
     Score         DG    S(hbond)    S(metal)    S(lipo)     H(rot)  DE(clash)    DE(int)     intcor
     12.39     -13.44       2.32        0.00      65.07       2.89       0.00       1.05       ----

> <Gold.Chemscore.Fitness>
12.3891

> <Gold.Chemscore.DG>
-13.4374

> <Gold.Chemscore.ZeroCoef>
-5.4800

> <Gold.Chemscore.Hbond>
2.3178

> <Gold.Chemscore.Metal>
0.0000

> <Gold.Chemscore.Lipo>
65.0658

> <Gold.Chemscore.Internal_Hbond>
0.0000

> <Gold.Chemscore.DEClash>
0.0000

> <Gold.Chemscore.DEInternal>
1.0483

> <Gold.Chemscore.Rot>
2.8894

> <Gold.Chemscore.Internal.Correction>
   9.000000E+99

> <Gold.Chemscore.Hbonds>
donor molecule, donor type, donor heavy atom, donor atom, acceptor molecule, acceptor atom, score
      L1  H     9    27       P1  7948  0.60
      L1  H    13    30       P1  7948  0.45
      P1  H  7997  8008       L1    17  0.99

> <Gold.Chemscore.Hbond.Weighted>
-7.7415

> <Gold.Chemscore.Metal.Weighted>
-0.0000

> <Gold.Chemscore.Lipo.Weighted>
-7.6127

> <Gold.Chemscore.Internal_Hbond.Weighted>
0.0000

> <Gold.Chemscore.DEClash.Weighted>
0.0000

> <Gold.Chemscore.DEInternal.Weighted>
1.0483

> <Gold.Chemscore.Rot.Weighted>
7.3968

> <Gold.Chemscore.Internal.Correction.Weighted>
   9.000000E+99

> <Gold.Protein.RotatedTorsions>
[ 6907 6896 6895 6894 ] final   16.79 input  -60.11 | X-H torsion
[ 7974 7965 7964 7962 ] final   74.67 input  175.53 | X-H torsion
[ 8008 7997 7996 7995 ] final  -32.66 input   59.86 | X-H torsion
[ 10167 10162 10161 10158 ] final  135.05 input  -65.29 | X-H torsion
[ 10718 10713 10712 10709 ] final  -35.25 input   66.30 | X-H torsion
[ 10763 10752 10751 10750 ] final   69.71 input  -60.55 | X-H torsion
[ 11005 11000 10999 10996 ] final -122.05 input  -57.11 | X-H torsion

> <Gold.Protein.ActiveResidues>
 VAL166  LYS551  ARG553  GLY616  TRP617  ASP618  TYR619  PRO620  LYS621  CYS622 
 ASP623  PHE694  ASN695  SER759  ASP760  ASP761  ALA762  ILE779  LEU786  VAL792 
 PHE793  MET794  SER795  GLU796  ALA797  LYS798  CYS799  TRP800  GLU811  SER814 

> <Gold.Protein.RotatedAtoms>
  151.8394  135.0595  160.0446 H   0  0  0  0  0  0  0  0  0  0  0  0  # atno 6907 bound_to 6896
  152.2820  133.5475  159.5512 H   0  0  0  0  0  0  0  0  0  0  0  0  # atno 6908 bound_to 6896
  150.7193  134.0466  159.3826 H   0  0  0  0  0  0  0  0  0  0  0  0  # atno 6909 bound_to 6896
  145.7253  139.2663  143.1573 H   0  0  0  0  0  0  0  0  0  0  0  0  # atno 7974 bound_to 7965
  154.4173  140.1731  156.1762 H   0  0  0  0  0  0  0  0  0  0  0  0  # atno 8008 bound_to 7997
  155.9719  140.3385  155.6560 H   0  0  0  0  0  0  0  0  0  0  0  0  # atno 8009 bound_to 7997
  155.6614  140.0701  157.2543 H   0  0  0  0  0  0  0  0  0  0  0  0  # atno 8010 bound_to 7997
  139.5232  144.6537  151.5227 H   0  0  0  0  0  0  0  0  0  0  0  0  # atno 10167 bound_to 10162
  156.3409  130.4293  149.7788 H   0  0  0  0  0  0  0  0  0  0  0  0  # atno 10718 bound_to 10713
  153.0301  135.5201  154.7329 H   0  0  0  0  0  0  0  0  0  0  0  0  # atno 10763 bound_to 10752
  154.6351  135.2905  155.0172 H   0  0  0  0  0  0  0  0  0  0  0  0  # atno 10764 bound_to 10752
  154.1110  135.6622  153.4937 H   0  0  0  0  0  0  0  0  0  0  0  0  # atno 10765 bound_to 10752
  141.0024  134.0383  157.3520 H   0  0  0  0  0  0  0  0  0  0  0  0  # atno 11005 bound_to 11000
  146.0588  140.7992  142.9745 LP  0  0  0  0  0  0  0  0  0  0  0  0  # atno 17320 bound_to 7965
  144.6906  140.3165  143.7239 LP  0  0  0  0  0  0  0  0  0  0  0  0  # atno 17321 bound_to 7965
  140.6353  143.8997  150.6641 LP  0  0  0  0  0  0  0  0  0  0  0  0  # atno 17342 bound_to 10162
  140.2314  143.3733  152.1563 LP  0  0  0  0  0  0  0  0  0  0  0  0  # atno 17343 bound_to 10162
  156.5025  130.8135  151.3138 LP  0  0  0  0  0  0  0  0  0  0  0  0  # atno 17370 bound_to 10713
  157.7446  130.9940  150.2692 LP  0  0  0  0  0  0  0  0  0  0  0  0  # atno 17371 bound_to 10713
  139.9046  135.0175  156.7425 LP  0  0  0  0  0  0  0  0  0  0  0  0  # atno 17394 bound_to 11000
  140.6867  133.9426  155.7942 LP  0  0  0  0  0  0  0  0  0  0  0  0  # atno 17395 bound_to 11000

$$$$
