AV-unprocessed.smi:38|AV-procd|sdf|341|dock4
  -GOLD-   2262016173D 1   1.00000     0.00000
 Structure written by MMmdl.
 28 29  0  0  0  0  0  0  0  0  1 V2000
  150.8445  141.7543  156.3762 O   0  0  0  0  0  0  0  0  0  0  0  0
  149.9811  141.3708  155.5895 C   0  0  0  0  0  0  0  0  0  0  0  0
  149.0106  142.2621  155.1221 N   0  0  0  0  0  0  0  0  0  0  0  0
  147.9829  141.9491  154.2304 C   0  0  0  0  0  0  0  0  0  0  0  0
  147.1940  142.8234  153.8745 O   0  0  0  0  0  0  0  0  0  0  0  0
  147.9134  140.6153  153.7702 N   0  0  0  0  0  0  0  0  0  0  0  0
  146.8210  140.2134  152.8059 C   0  0  1  0  0  0  0  0  0  0  0  0
  147.3891  139.3890  151.6500 C   0  0  0  0  0  0  0  0  0  0  0  0
  146.2938  138.3625  151.4507 C   0  0  1  0  0  0  0  0  0  0  0  0
  146.8033  137.1918  150.8452 O   0  0  0  0  0  0  0  0  0  0  0  0
  145.8206  138.1203  152.8866 C   0  0  2  0  0  0  0  0  0  0  0  0
  144.3837  137.5842  152.9755 C   0  0  0  0  0  0  0  0  0  0  0  0
  143.5493  138.2834  152.0771 O   0  0  0  0  0  0  0  0  0  0  0  0
  145.8901  139.4175  153.4791 O   0  0  0  0  0  0  0  0  0  0  0  0
  148.8634  139.6980  154.1995 C   0  0  0  0  0  0  0  0  0  0  0  0
  149.8582  140.0152  155.0616 C   0  0  0  0  0  0  0  0  0  0  0  0
  150.7430  139.0734  155.4306 F   0  0  0  0  0  0  0  0  0  0  0  0
  149.0595  143.2137  155.4557 H   0  0  0  0  0  0  0  0  0  0  0  0
  146.3030  141.1169  152.4808 H   0  0  0  0  0  0  0  0  0  0  0  0
  145.4905  138.7840  150.8443 H   0  0  0  0  0  0  0  0  0  0  0  0
  146.5211  137.4534  153.3927 H   0  0  0  0  0  0  0  0  0  0  0  0
  147.5814  140.0101  150.7747 H   0  0  0  0  0  0  0  0  0  0  0  0
  148.3197  138.9095  151.9596 H   0  0  0  0  0  0  0  0  0  0  0  0
  147.1016  136.6061  151.5243 H   0  0  0  0  0  0  0  0  0  0  0  0
  144.3461  136.5129  152.7756 H   0  0  0  0  0  0  0  0  0  0  0  0
  143.9865  137.7416  153.9786 H   0  0  0  0  0  0  0  0  0  0  0  0
  143.7440  139.2058  152.1417 H   0  0  0  0  0  0  0  0  0  0  0  0
  148.8222  138.6832  153.8339 H   0  0  0  0  0  0  0  0  0  0  0  0
  1  2  2  0  0  0  0
  2 16  1  0  0  0  0
  2  3  1  0  0  0  0
  3 18  1  0  0  0  0
  3  4  1  0  0  0  0
  4  5  2  0  0  0  0
  4  6  1  0  0  0  0
  6  7  1  0  0  0  0
  6 15  1  0  0  0  0
  7 19  1  0  0  0  0
  7 14  1  0  0  0  0
  7  8  1  0  0  0  0
  8  9  1  0  0  0  0
  8 22  1  0  0  0  0
  8 23  1  0  0  0  0
  9 20  1  0  0  0  0
  9 10  1  0  0  0  0
  9 11  1  0  0  0  0
 10 24  1  0  0  0  0
 11 21  1  0  0  0  0
 11 12  1  0  0  0  0
 11 14  1  0  0  0  0
 12 13  1  0  0  0  0
 12 25  1  0  0  0  0
 12 26  1  0  0  0  0
 13 27  1  0  0  0  0
 15 16  2  0  0  0  0
 15 28  1  0  0  0  0
 16 17  1  0  0  0  0
M  END
> <s_m_source_file>
AV-unprocessed.smi

> <i_m_source_file_index>
38

> <i_lp_mmshare_version>
43012

> <i_f3d_flags>
0

> <s_epik_input>
Tz1jMVtuSF1jKD1PKW4oW2NIXWMxRilbQ0BIXTJbQ0gyXVtDQEhdKFtPSF0pW0NASF0oTzIpW0NIMl1bT0hd

> <s_epik_cmdline>
J2VwaWtfcHl0aG9uJywgJy1waCcsICc3LjAnLCAnLXRuJywgJzgnLCAnLW1hJywgJzIwMCcsICctbWV0YWxfYmluZGluZycsICctaW1hZScsICc8aW5maWxlLm1hZT4nLCAnLW9tYWUnLCAnPG91dGZpbGUubWFlPic=

> <r_lp_tautomer_probability>
0.999537

> <r_epik_Ionization_Penalty>
0.0357432

> <r_epik_Ionization_Penalty_Charging>
0.0357431

> <r_epik_Ionization_Penalty_Neutral>
1.19946e-07

> <r_epik_State_Penalty>
0.0298169

> <r_epik_Charging_Adjusted_Penalty>
0.06556

> <i_epik_Tot_Q>
0

> <i_epik_Tot_abs_Q>
0

> <r_epik_Metal_State_Penalty>
2.348

> <b_epik_Metal_Only>
0

> <s_epik_Chemistry_Notes>
This compound contains an acetal/aminal-like group ( X-CH(R)-Y where X, Y are N, S, or O) that may be acid/base labile, releasing an aldehyde.

> <s_lp_Force_Field>
OPLS_2005

> <r_lp_Energy>
27.15

> <b_lp_Chiralities_Consistent>
1

> <s_lp_Variant>
AV-unprocessed.smi:38-7

> <Gold.Version>
5.8.1

> <Gold.Id.Protein>
6NUR|6NUR_protein|mol2

> <Gold.PLP.Fitness>
37.7649

> <Gold.PLP.PLP>
-27.3453

> <Gold.PLP.part.hbond>
-5.0000

> <Gold.PLP.part.metal>
0.0000

> <Gold.PLP.part.buried>
6.2155

> <Gold.PLP.part.nonpolar>
-29.1897

> <Gold.PLP.part.repulsive>
1.3955

> <Gold.PLP.ligand.clash>
0.0000

> <Gold.PLP.ligand.torsion>
0.4140

> <Gold.PLP.Chemscore.Hbond>
3.7180

> <Gold.PLP.Chemscore.CHOScore>
0.0280

> <Gold.PLP.Chemscore.Metal>
0.0000

> <Gold.Chemscore.Hbonds>
donor molecule, donor type, donor heavy atom, donor atom, acceptor molecule, acceptor atom, score
      L1  H     3    18       P1  8028  0.99
      L1  H    10    24       P1  7948  0.45
      L1  H    13    27       P1 10175  0.34
      P1  H  7954  7966       L1    10  1.00
      P1  H  8022  8030       L1     5  0.06

> <Gold.PLP.Chemscore.Internal.Correction>
0.0097

> <Gold.Rescore>
     Score         DG    S(hbond)    S(metal)    S(lipo)     H(rot)  DE(clash)    DE(int)     intcor
     10.61     -13.46       3.16        0.00      41.72       2.91       2.66       0.18       ----

> <Gold.Chemscore.Fitness>
10.6124

> <Gold.Chemscore.DG>
-13.4558

> <Gold.Chemscore.ZeroCoef>
-5.4800

> <Gold.Chemscore.Hbond>
3.1602

> <Gold.Chemscore.Metal>
0.0000

> <Gold.Chemscore.Lipo>
41.7164

> <Gold.Chemscore.Internal_Hbond>
0.0000

> <Gold.Chemscore.DEClash>
2.6641

> <Gold.Chemscore.DEInternal>
0.1792

> <Gold.Chemscore.Rot>
2.9141

> <Gold.Chemscore.Internal.Correction>
   9.000000E+99

> <Gold.Chemscore.Hbonds>
donor molecule, donor type, donor heavy atom, donor atom, acceptor molecule, acceptor atom, score
      L1  H     3    18       P1  8028  0.92
      L1  H    10    24       P1  7948  0.44
      L1  H    13    27       P1 10175  0.33
      P1  H  7954  7966       L1    10  0.28
      P1  H  8022  8030       L1     5  0.03

> <Gold.Chemscore.Hbond.Weighted>
-10.5550

> <Gold.Chemscore.Metal.Weighted>
-0.0000

> <Gold.Chemscore.Lipo.Weighted>
-4.8808

> <Gold.Chemscore.Internal_Hbond.Weighted>
0.0000

> <Gold.Chemscore.DEClash.Weighted>
2.6641

> <Gold.Chemscore.DEInternal.Weighted>
0.1792

> <Gold.Chemscore.Rot.Weighted>
7.4601

> <Gold.Chemscore.Internal.Correction.Weighted>
   9.000000E+99

> <Gold.Protein.RotatedTorsions>
[ 6907 6896 6895 6894 ] final  175.41 input  -60.11 | X-H torsion
[ 7974 7965 7964 7962 ] final   61.98 input  175.53 | X-H torsion
[ 8008 7997 7996 7995 ] final -123.65 input   59.86 | X-H torsion
[ 10167 10162 10161 10158 ] final   -8.41 input  -65.29 | X-H torsion
[ 10718 10713 10712 10709 ] final  133.81 input   66.30 | X-H torsion
[ 10763 10752 10751 10750 ] final  163.20 input  -60.55 | X-H torsion
[ 11005 11000 10999 10996 ] final   62.17 input  -57.11 | X-H torsion

> <Gold.Protein.ActiveResidues>
 VAL166  LYS551  ARG553  GLY616  TRP617  ASP618  TYR619  PRO620  LYS621  CYS622 
 ASP623  PHE694  ASN695  SER759  ASP760  ASP761  ALA762  ILE779  LEU786  VAL792 
 PHE793  MET794  SER795  GLU796  ALA797  LYS798  CYS799  TRP800  GLU811  SER814 

> <Gold.Protein.RotatedAtoms>
  151.7366  133.3320  159.3354 H   0  0  0  0  0  0  0  0  0  0  0  0  # atno 6907 bound_to 6896
  150.7590  134.6315  159.6198 H   0  0  0  0  0  0  0  0  0  0  0  0  # atno 6908 bound_to 6896
  152.3557  134.6945  160.0274 H   0  0  0  0  0  0  0  0  0  0  0  0  # atno 6909 bound_to 6896
  145.8786  139.3427  143.0719 H   0  0  0  0  0  0  0  0  0  0  0  0  # atno 7974 bound_to 7965
  155.1840  140.0411  157.2887 H   0  0  0  0  0  0  0  0  0  0  0  0  # atno 8008 bound_to 7997
  154.6184  140.2494  155.7552 H   0  0  0  0  0  0  0  0  0  0  0  0  # atno 8009 bound_to 7997
  156.2419  140.2900  156.0480 H   0  0  0  0  0  0  0  0  0  0  0  0  # atno 8010 bound_to 7997
  140.7058  143.5972  150.8834 H   0  0  0  0  0  0  0  0  0  0  0  0  # atno 10167 bound_to 10162
  157.4736  131.1081  150.9772 H   0  0  0  0  0  0  0  0  0  0  0  0  # atno 10718 bound_to 10713
  154.2901  135.2761  155.2659 H   0  0  0  0  0  0  0  0  0  0  0  0  # atno 10763 bound_to 10752
  154.5141  135.5774  153.6632 H   0  0  0  0  0  0  0  0  0  0  0  0  # atno 10764 bound_to 10752
  152.9915  135.6188  154.3065 H   0  0  0  0  0  0  0  0  0  0  0  0  # atno 10765 bound_to 10752
  140.0110  134.6296  155.9780 H   0  0  0  0  0  0  0  0  0  0  0  0  # atno 11005 bound_to 11000
  145.9051  140.9217  143.0483 LP  0  0  0  0  0  0  0  0  0  0  0  0  # atno 17320 bound_to 7965
  144.6727  140.1085  143.7457 LP  0  0  0  0  0  0  0  0  0  0  0  0  # atno 17321 bound_to 7965
  139.9697  143.6070  152.2977 LP  0  0  0  0  0  0  0  0  0  0  0  0  # atno 17342 bound_to 10162
  139.6653  144.7662  151.1885 LP  0  0  0  0  0  0  0  0  0  0  0  0  # atno 17343 bound_to 10162
  157.0529  130.5794  149.5373 LP  0  0  0  0  0  0  0  0  0  0  0  0  # atno 17370 bound_to 10713
  156.0085  130.5175  150.7912 LP  0  0  0  0  0  0  0  0  0  0  0  0  # atno 17371 bound_to 10713
  141.1711  133.6537  156.4655 LP  0  0  0  0  0  0  0  0  0  0  0  0  # atno 17394 bound_to 11000
  140.4554  134.6890  157.5060 LP  0  0  0  0  0  0  0  0  0  0  0  0  # atno 17395 bound_to 11000

$$$$
