AV-unprocessed.smi:2159|AV-procd|sdf|8792|dock9
  -GOLD-   2272011573D 1   1.00000     0.00000
 Structure written by MMmdl.
 47 49  0  0  0  0  0  0  0  0  1 V2000
  151.9252  136.3434  156.2394 O   0  0  0  0  0  0  0  0  0  0  0  0
  151.3061  136.6152  155.2104 C   0  0  0  0  0  0  0  0  0  0  0  0
  151.7249  137.8019  154.3374 C   0  0  0  0  0  0  0  0  0  0  0  0
  152.8055  138.6855  154.9922 C   0  0  0  0  0  0  0  0  0  0  0  0
  152.2570  139.4450  156.1210 N   0  0  0  0  0  0  0  0  0  0  0  0
  152.7146  139.3543  157.3777 C   0  0  0  0  0  0  0  0  0  0  0  0
  153.6479  138.6492  157.7613 O   0  0  0  0  0  0  0  0  0  0  0  0
  151.9139  140.2476  158.3219 C   0  0  1  0  0  0  0  0  0  0  0  0
  152.8097  141.2664  159.0575 C   0  0  0  0  0  0  0  0  0  0  0  0
  151.9711  142.3655  159.7331 C   0  0  0  0  0  0  0  0  0  0  0  0
  150.9371  143.0216  158.7908 C   0  0  0  0  0  0  0  0  0  0  0  0
  150.9500  142.4440  157.3646 C   0  0  0  0  0  0  0  0  0  0  0  0
  150.8802  140.9024  157.3806 C   0  0  1  0  0  0  0  0  0  0  0  0
  151.2275  140.2978  156.0224 C   0  0  0  0  0  0  0  0  0  0  0  0
  150.6116  140.5763  154.9935 O   0  0  0  0  0  0  0  0  0  0  0  0
  150.2404  135.9184  154.7875 N   0  0  0  0  0  0  0  0  0  0  0  0
  149.6602  134.7682  155.4717 C   0  0  0  0  0  0  0  0  0  0  0  0
  149.5547  133.5449  154.5460 C   0  0  0  0  0  0  0  0  0  0  0  0
  148.3567  133.6304  153.6186 C   0  0  0  0  0  0  0  0  0  0  0  0
  147.2976  134.5220  153.8931 C   0  0  0  0  0  0  0  0  0  0  0  0
  146.2027  134.5564  153.0081 C   0  0  0  0  0  0  0  0  0  0  0  0
  146.2081  133.7019  151.8889 C   0  0  0  0  0  0  0  0  0  0  0  0
  147.3134  132.8475  151.7034 C   0  0  0  0  0  0  0  0  0  0  0  0
  148.3681  132.8067  152.5462 N   0  0  0  0  0  0  0  0  0  0  0  0
  152.0916  137.4264  153.3807 H   0  0  0  0  0  0  0  0  0  0  0  0
  150.8368  138.3962  154.1201 H   0  0  0  0  0  0  0  0  0  0  0  0
  153.6412  138.0715  155.3330 H   0  0  0  0  0  0  0  0  0  0  0  0
  153.2288  139.3694  154.2539 H   0  0  0  0  0  0  0  0  0  0  0  0
  151.4002  139.6179  159.0498 H   0  0  0  0  0  0  0  0  0  0  0  0
  153.4196  140.7579  159.8055 H   0  0  0  0  0  0  0  0  0  0  0  0
  153.5100  141.7276  158.3588 H   0  0  0  0  0  0  0  0  0  0  0  0
  151.4461  141.9354  160.5870 H   0  0  0  0  0  0  0  0  0  0  0  0
  152.6339  143.1274  160.1448 H   0  0  0  0  0  0  0  0  0  0  0  0
  149.9411  142.8922  159.2160 H   0  0  0  0  0  0  0  0  0  0  0  0
  151.1044  144.0984  158.7483 H   0  0  0  0  0  0  0  0  0  0  0  0
  150.1128  142.8511  156.7962 H   0  0  0  0  0  0  0  0  0  0  0  0
  151.8542  142.7758  156.8511 H   0  0  0  0  0  0  0  0  0  0  0  0
  149.8753  140.5836  157.6613 H   0  0  0  0  0  0  0  0  0  0  0  0
  149.7912  136.2132  153.9325 H   0  0  0  0  0  0  0  0  0  0  0  0
  150.2441  134.5280  156.3621 H   0  0  0  0  0  0  0  0  0  0  0  0
  148.6668  135.0533  155.8193 H   0  0  0  0  0  0  0  0  0  0  0  0
  150.4626  133.4508  153.9485 H   0  0  0  0  0  0  0  0  0  0  0  0
  149.4797  132.6296  155.1350 H   0  0  0  0  0  0  0  0  0  0  0  0
  147.3220  135.1640  154.7615 H   0  0  0  0  0  0  0  0  0  0  0  0
  145.3735  135.2252  153.1859 H   0  0  0  0  0  0  0  0  0  0  0  0
  145.3854  133.7012  151.1894 H   0  0  0  0  0  0  0  0  0  0  0  0
  147.3511  132.1787  150.8562 H   0  0  0  0  0  0  0  0  0  0  0  0
  1  2  2  0  0  0  0
  2  3  1  0  0  0  0
  2 16  1  0  0  0  0
  3  4  1  0  0  0  0
  3 25  1  0  0  0  0
  3 26  1  0  0  0  0
  4  5  1  0  0  0  0
  4 27  1  0  0  0  0
  4 28  1  0  0  0  0
  5 14  1  0  0  0  0
  5  6  1  0  0  0  0
  6  7  2  0  0  0  0
  6  8  1  0  0  0  0
  8 13  1  0  0  0  0
  8  9  1  0  0  0  0
  8 29  1  0  0  0  0
  9 10  1  0  0  0  0
  9 30  1  0  0  0  0
  9 31  1  0  0  0  0
 10 11  1  0  0  0  0
 10 32  1  0  0  0  0
 10 33  1  0  0  0  0
 11 12  1  0  0  0  0
 11 34  1  0  0  0  0
 11 35  1  0  0  0  0
 12 13  1  0  0  0  0
 12 36  1  0  0  0  0
 12 37  1  0  0  0  0
 13 14  1  0  0  0  0
 13 38  1  0  0  0  0
 14 15  2  0  0  0  0
 16 17  1  0  0  0  0
 16 39  1  0  0  0  0
 17 18  1  0  0  0  0
 17 40  1  0  0  0  0
 17 41  1  0  0  0  0
 18 19  1  0  0  0  0
 18 42  1  0  0  0  0
 18 43  1  0  0  0  0
 19 24  1  0  0  0  0
 19 20  2  0  0  0  0
 20 21  1  0  0  0  0
 20 44  1  0  0  0  0
 21 22  2  0  0  0  0
 21 45  1  0  0  0  0
 22 23  1  0  0  0  0
 22 46  1  0  0  0  0
 23 24  2  0  0  0  0
 23 47  1  0  0  0  0
M  END
> <s_m_source_file>
AV-unprocessed.smi

> <i_m_source_file_index>
2159

> <i_lp_mmshare_version>
43012

> <i_f3d_flags>
0

> <s_epik_input>
bjFbY0hdW2NIXVtjSF1bY0hdYzFbQ0gyXVtDSDJdW05IXUMoPU8pW0NIMl1bQ0gyXU4oQzI9TylDKD1PKVtDQEhdKFtDQEBIXTIzKVtDSDJdW0NIMl1bQ0gyXVtDSDJdMw==

> <s_epik_cmdline>
J2VwaWtfcHl0aG9uJywgJy1waCcsICc3LjAnLCAnLXRuJywgJzgnLCAnLW1hJywgJzIwMCcsICctbWV0YWxfYmluZGluZycsICctaW1hZScsICc8aW5maWxlLm1hZT4nLCAnLW9tYWUnLCAnPG91dGZpbGUubWFlPic=

> <r_lp_tautomer_probability>
1

> <r_epik_Ionization_Penalty>
0.026624

> <r_epik_Ionization_Penalty_Charging>
0

> <r_epik_Ionization_Penalty_Neutral>
0.026624

> <r_epik_State_Penalty>
0.0217444

> <r_epik_Charging_Adjusted_Penalty>
0.0217444

> <i_epik_Tot_Q>
0

> <i_epik_Tot_abs_Q>
0

> <r_epik_Metal_State_Penalty>
0.0208054

> <b_epik_Metal_Only>
0

> <s_lp_Force_Field>
OPLS_2005

> <r_lp_Energy>
25.0147

> <b_lp_Chiralities_Consistent>
1

> <s_lp_Variant>
AV-unprocessed.smi:2159-2

> <Gold.Version>
5.8.1

> <Gold.Id.Protein>
6NUR|6NUR_protein|mol2

> <Gold.PLP.Fitness>
52.3193

> <Gold.PLP.PLP>
-42.1942

> <Gold.PLP.part.hbond>
-4.0417

> <Gold.PLP.part.metal>
0.0000

> <Gold.PLP.part.buried>
-1.8298

> <Gold.PLP.part.nonpolar>
-36.8005

> <Gold.PLP.part.repulsive>
0.7258

> <Gold.PLP.ligand.clash>
0.0000

> <Gold.PLP.ligand.torsion>
0.4430

> <Gold.PLP.Chemscore.Hbond>
2.8636

> <Gold.PLP.Chemscore.CHOScore>
0.7891

> <Gold.PLP.Chemscore.Metal>
0.0000

> <Gold.Chemscore.Hbonds>
donor molecule, donor type, donor heavy atom, donor atom, acceptor molecule, acceptor atom, score
      L1  H    16    39       P1  7948  0.59
      P1  H  7989  7998       L1    15  0.98
      P1  H  7997  8010       L1     7  0.20
      L1  C    23    47       P1 10747  0.96

> <Gold.PLP.Chemscore.Internal.Correction>
0.0530

> <Gold.Rescore>
     Score         DG    S(hbond)    S(metal)    S(lipo)     H(rot)  DE(clash)    DE(int)     intcor
     15.87     -16.52       1.76        0.00      87.28       1.97       0.06       0.60       ----

> <Gold.Chemscore.Fitness>
15.8653

> <Gold.Chemscore.DG>
-16.5210

> <Gold.Chemscore.ZeroCoef>
-5.4800

> <Gold.Chemscore.Hbond>
1.7586

> <Gold.Chemscore.Metal>
0.0000

> <Gold.Chemscore.Lipo>
87.2772

> <Gold.Chemscore.Internal_Hbond>
0.0000

> <Gold.Chemscore.DEClash>
0.0573

> <Gold.Chemscore.DEInternal>
0.5984

> <Gold.Chemscore.Rot>
1.9704

> <Gold.Chemscore.Internal.Correction>
   9.000000E+99

> <Gold.Chemscore.Hbonds>
donor molecule, donor type, donor heavy atom, donor atom, acceptor molecule, acceptor atom, score
      L1  H    16    39       P1  7948  0.20
      P1  H  7989  7998       L1    15  0.87

> <Gold.Chemscore.Hbond.Weighted>
-5.8738

> <Gold.Chemscore.Metal.Weighted>
-0.0000

> <Gold.Chemscore.Lipo.Weighted>
-10.2114

> <Gold.Chemscore.Internal_Hbond.Weighted>
0.0000

> <Gold.Chemscore.DEClash.Weighted>
0.0573

> <Gold.Chemscore.DEInternal.Weighted>
0.5984

> <Gold.Chemscore.Rot.Weighted>
5.0443

> <Gold.Chemscore.Internal.Correction.Weighted>
   9.000000E+99

> <Gold.Protein.RotatedTorsions>
[ 6907 6896 6895 6894 ] final  -85.45 input  -60.11 | X-H torsion
[ 7974 7965 7964 7962 ] final  -27.24 input  175.53 | X-H torsion
[ 8008 7997 7996 7995 ] final   27.50 input   59.86 | X-H torsion
[ 10167 10162 10161 10158 ] final  151.72 input  -65.29 | X-H torsion
[ 10718 10713 10712 10709 ] final   85.73 input   66.30 | X-H torsion
[ 10763 10752 10751 10750 ] final   66.70 input  -60.55 | X-H torsion
[ 11005 11000 10999 10996 ] final  -15.77 input  -57.11 | X-H torsion

> <Gold.Protein.ActiveResidues>
 VAL166  LYS551  ARG553  GLY616  TRP617  ASP618  TYR619  PRO620  LYS621  CYS622 
 ASP623  PHE694  ASN695  SER759  ASP760  ASP761  ALA762  ILE779  LEU786  VAL792 
 PHE793  MET794  SER795  GLU796  ALA797  LYS798  CYS799  TRP800  GLU811  SER814 

> <Gold.Protein.RotatedAtoms>
  150.6870  134.3203  159.4783 H   0  0  0  0  0  0  0  0  0  0  0  0  # atno 6907 bound_to 6896
  152.1079  134.9292  160.0577 H   0  0  0  0  0  0  0  0  0  0  0  0  # atno 6908 bound_to 6896
  152.0546  133.4000  159.4428 H   0  0  0  0  0  0  0  0  0  0  0  0  # atno 6909 bound_to 6896
  146.1371  140.5125  142.8668 H   0  0  0  0  0  0  0  0  0  0  0  0  # atno 7974 bound_to 7965
  155.0438  140.3172  155.4715 H   0  0  0  0  0  0  0  0  0  0  0  0  # atno 8008 bound_to 7997
  156.2849  140.2158  156.5506 H   0  0  0  0  0  0  0  0  0  0  0  0  # atno 8009 bound_to 7997
  154.7267  140.0485  157.0677 H   0  0  0  0  0  0  0  0  0  0  0  0  # atno 8010 bound_to 7997
  139.4838  144.5418  151.7552 H   0  0  0  0  0  0  0  0  0  0  0  0  # atno 10167 bound_to 10162
  157.6919  131.0187  150.2866 H   0  0  0  0  0  0  0  0  0  0  0  0  # atno 10718 bound_to 10713
  153.0152  135.5311  154.6865 H   0  0  0  0  0  0  0  0  0  0  0  0  # atno 10763 bound_to 10752
  154.6011  135.2868  155.0537 H   0  0  0  0  0  0  0  0  0  0  0  0  # atno 10764 bound_to 10752
  154.1593  135.6550  153.5034 H   0  0  0  0  0  0  0  0  0  0  0  0  # atno 10765 bound_to 10752
  140.8000  133.8221  155.9461 H   0  0  0  0  0  0  0  0  0  0  0  0  # atno 11005 bound_to 11000
  144.7752  140.5724  143.6643 LP  0  0  0  0  0  0  0  0  0  0  0  0  # atno 17320 bound_to 7965
  145.5130  139.1479  143.3594 LP  0  0  0  0  0  0  0  0  0  0  0  0  # atno 17321 bound_to 7965
  140.4958  144.1242  150.5960 LP  0  0  0  0  0  0  0  0  0  0  0  0  # atno 17342 bound_to 10162
  140.4119  143.2653  151.9823 LP  0  0  0  0  0  0  0  0  0  0  0  0  # atno 17343 bound_to 10162
  156.3404  130.3814  149.7414 LP  0  0  0  0  0  0  0  0  0  0  0  0  # atno 17370 bound_to 10713
  156.4925  130.8091  151.3100 LP  0  0  0  0  0  0  0  0  0  0  0  0  # atno 17371 bound_to 10713
  140.9304  134.2029  157.4868 LP  0  0  0  0  0  0  0  0  0  0  0  0  # atno 17394 bound_to 11000
  139.8722  134.9830  156.5180 LP  0  0  0  0  0  0  0  0  0  0  0  0  # atno 17395 bound_to 11000

$$$$
