AV-unprocessed.smi:3204|AV-procd|sdf|12251|dock6
  -GOLD-   2272018 83D 1   1.00000     0.00000
 Structure written by MMmdl.
 30 31  0  0  0  0  0  0  0  0  1 V2000
  152.3396  142.3636  160.5157 C   0  0  0  0  0  0  0  0  0  0  0  0
  153.2544  141.8870  159.3816 C   0  0  0  0  0  0  0  0  0  0  0  0
  152.4764  141.2773  158.2299 C   0  0  0  0  0  0  0  0  0  0  0  0
  152.7864  140.0049  157.8940 N   0  0  0  0  0  0  0  0  0  0  0  0
  152.1062  139.4681  156.8781 C   0  0  0  0  0  0  0  0  0  0  0  0
  151.1502  140.0590  156.1565 N   0  0  0  0  0  0  0  0  0  0  0  0
  150.8308  141.3354  156.4777 C   0  0  0  0  0  0  0  0  0  0  0  0
  149.8359  142.0043  155.7506 N   0  0  0  0  0  0  0  0  0  0  0  0
  149.1683  141.3766  154.6139 C   0  0  1  0  0  0  0  0  0  0  0  0
  148.6709  139.9655  154.8981 C   0  0  0  0  0  0  0  0  0  0  0  0
  147.7855  139.7177  153.8154 O   0  0  0  0  0  0  0  0  0  0  0  0
  147.1395  140.9341  153.4394 C   0  0  0  0  0  0  0  0  0  0  0  0
  147.8917  142.0700  154.1484 C   0  0  1  0  0  0  0  0  0  0  0  0
  147.1065  142.5339  155.2333 O   0  0  0  0  0  0  0  0  0  0  0  0
  151.4851  142.0040  157.5346 C   0  0  0  0  0  0  0  0  0  0  0  0
  151.1770  143.2827  157.8627 F   0  0  0  0  0  0  0  0  0  0  0  0
  152.9228  142.7968  161.3284 H   0  0  0  0  0  0  0  0  0  0  0  0
  151.7592  141.5365  160.9257 H   0  0  0  0  0  0  0  0  0  0  0  0
  151.6406  143.1239  160.1661 H   0  0  0  0  0  0  0  0  0  0  0  0
  153.8443  142.7244  159.0069 H   0  0  0  0  0  0  0  0  0  0  0  0
  153.9698  141.1594  159.7662 H   0  0  0  0  0  0  0  0  0  0  0  0
  152.3549  138.4519  156.6112 H   0  0  0  0  0  0  0  0  0  0  0  0
  149.6074  142.9601  155.9827 H   0  0  0  0  0  0  0  0  0  0  0  0
  149.8669  141.3200  153.7777 H   0  0  0  0  0  0  0  0  0  0  0  0
  149.4760  139.2314  154.9356 H   0  0  0  0  0  0  0  0  0  0  0  0
  148.1157  139.9196  155.8366 H   0  0  0  0  0  0  0  0  0  0  0  0
  147.2091  141.0389  152.3564 H   0  0  0  0  0  0  0  0  0  0  0  0
  146.0803  140.9039  153.6996 H   0  0  0  0  0  0  0  0  0  0  0  0
  148.0969  142.9053  153.4784 H   0  0  0  0  0  0  0  0  0  0  0  0
  147.6204  143.1532  155.7284 H   0  0  0  0  0  0  0  0  0  0  0  0
  1  2  1  0  0  0  0
  1 17  1  0  0  0  0
  1 18  1  0  0  0  0
  1 19  1  0  0  0  0
  2  3  1  0  0  0  0
  2 20  1  0  0  0  0
  2 21  1  0  0  0  0
  3 15  1  0  0  0  0
  3  4  2  0  0  0  0
  4  5  1  0  0  0  0
  5  6  2  0  0  0  0
  5 22  1  0  0  0  0
  6  7  1  0  0  0  0
  7  8  1  0  0  0  0
  7 15  2  0  0  0  0
  8  9  1  0  0  0  0
  8 23  1  0  0  0  0
  9 13  1  0  0  0  0
  9 10  1  0  0  0  0
  9 24  1  0  0  0  0
 10 11  1  0  0  0  0
 10 25  1  0  0  0  0
 10 26  1  0  0  0  0
 11 12  1  0  0  0  0
 12 13  1  0  0  0  0
 12 27  1  0  0  0  0
 12 28  1  0  0  0  0
 13 14  1  0  0  0  0
 13 29  1  0  0  0  0
 14 30  1  0  0  0  0
 15 16  1  0  0  0  0
M  END
> <s_m_source_file>
AV-unprocessed.smi

> <i_m_source_file_index>
3204

> <i_lp_mmshare_version>
43012

> <i_f3d_flags>
0

> <s_epik_input>
W0NIM11bQ0gyXWMxbltjSF1uYyhjMUYpW05IXVtDQEBIXTJbQ0gyXU9bQ0gyXVtDQEhdMltPSF0=

> <s_epik_cmdline>
J2VwaWtfcHl0aG9uJywgJy1waCcsICc3LjAnLCAnLXRuJywgJzgnLCAnLW1hJywgJzIwMCcsICctbWV0YWxfYmluZGluZycsICctaW1hZScsICc8aW5maWxlLm1hZT4nLCAnLW9tYWUnLCAnPG91dGZpbGUubWFlPic=

> <r_lp_tautomer_probability>
1

> <r_epik_Ionization_Penalty>
0.000484964

> <r_epik_Ionization_Penalty_Charging>
0

> <r_epik_Ionization_Penalty_Neutral>
0.000484964

> <r_epik_State_Penalty>
-0

> <r_epik_Charging_Adjusted_Penalty>
0

> <i_epik_Tot_Q>
0

> <i_epik_Tot_abs_Q>
0

> <r_epik_Metal_State_Penalty>
-0

> <b_epik_Metal_Only>
0

> <s_lp_Force_Field>
OPLS_2005

> <r_lp_Energy>
19.2614

> <b_lp_Chiralities_Consistent>
1

> <s_lp_Variant>
AV-unprocessed.smi:3204-2

> <Gold.Version>
5.8.1

> <Gold.Id.Protein>
6NUR|6NUR_protein|mol2

> <Gold.PLP.Fitness>
38.4064

> <Gold.PLP.PLP>
-30.3290

> <Gold.PLP.part.hbond>
-3.0000

> <Gold.PLP.part.metal>
0.0000

> <Gold.PLP.part.buried>
-4.1325

> <Gold.PLP.part.nonpolar>
-21.9719

> <Gold.PLP.part.repulsive>
0.3106

> <Gold.PLP.ligand.clash>
0.0000

> <Gold.PLP.ligand.torsion>
0.1570

> <Gold.PLP.Chemscore.Hbond>
2.7954

> <Gold.PLP.Chemscore.CHOScore>
0.0000

> <Gold.PLP.Chemscore.Metal>
0.0000

> <Gold.Chemscore.Hbonds>
donor molecule, donor type, donor heavy atom, donor atom, acceptor molecule, acceptor atom, score
      L1  H     8    23       P1  8028  1.00
      L1  H    14    30       P1  8028  0.87
      P1  H  7997  8008       L1     4  0.89

> <Gold.PLP.Chemscore.Internal.Correction>
0.0052

> <Gold.Rescore>
     Score         DG    S(hbond)    S(metal)    S(lipo)     H(rot)  DE(clash)    DE(int)     intcor
     12.86     -14.40       1.71        0.00      67.44       1.83       0.04       1.50       ----

> <Gold.Chemscore.Fitness>
12.8604

> <Gold.Chemscore.DG>
-14.3979

> <Gold.Chemscore.ZeroCoef>
-5.4800

> <Gold.Chemscore.Hbond>
1.7130

> <Gold.Chemscore.Metal>
0.0000

> <Gold.Chemscore.Lipo>
67.4414

> <Gold.Chemscore.Internal_Hbond>
0.0000

> <Gold.Chemscore.DEClash>
0.0385

> <Gold.Chemscore.DEInternal>
1.4990

> <Gold.Chemscore.Rot>
1.8337

> <Gold.Chemscore.Internal.Correction>
   9.000000E+99

> <Gold.Chemscore.Hbonds>
donor molecule, donor type, donor heavy atom, donor atom, acceptor molecule, acceptor atom, score
      L1  H     8    23       P1  8028  0.97
      L1  H    14    30       P1  8028  0.19
      P1  H  7997  8008       L1     4  0.10

> <Gold.Chemscore.Hbond.Weighted>
-5.7215

> <Gold.Chemscore.Metal.Weighted>
-0.0000

> <Gold.Chemscore.Lipo.Weighted>
-7.8906

> <Gold.Chemscore.Internal_Hbond.Weighted>
0.0000

> <Gold.Chemscore.DEClash.Weighted>
0.0385

> <Gold.Chemscore.DEInternal.Weighted>
1.4990

> <Gold.Chemscore.Rot.Weighted>
4.6942

> <Gold.Chemscore.Internal.Correction.Weighted>
   9.000000E+99

> <Gold.Protein.RotatedTorsions>
[ 6907 6896 6895 6894 ] final   -1.59 input  -60.11 | X-H torsion
[ 7974 7965 7964 7962 ] final  -65.45 input  175.53 | X-H torsion
[ 8008 7997 7996 7995 ] final  -87.61 input   59.86 | X-H torsion
[ 10167 10162 10161 10158 ] final   87.25 input  -65.29 | X-H torsion
[ 10718 10713 10712 10709 ] final    9.71 input   66.30 | X-H torsion
[ 10763 10752 10751 10750 ] final  -84.56 input  -60.55 | X-H torsion
[ 11005 11000 10999 10996 ] final  157.13 input  -57.11 | X-H torsion

> <Gold.Protein.ActiveResidues>
 VAL166  LYS551  ARG553  GLY616  TRP617  ASP618  TYR619  PRO620  LYS621  CYS622 
 ASP623  PHE694  ASN695  SER759  ASP760  ASP761  ALA762  ILE779  LEU786  VAL792 
 PHE793  MET794  SER795  GLU796  ALA797  LYS798  CYS799  TRP800  GLU811  SER814 

> <Gold.Protein.RotatedAtoms>
  151.5437  135.1068  159.9932 H   0  0  0  0  0  0  0  0  0  0  0  0  # atno 6907 bound_to 6896
  152.4524  133.7651  159.6778 H   0  0  0  0  0  0  0  0  0  0  0  0  # atno 6908 bound_to 6896
  150.8456  133.7800  159.3069 H   0  0  0  0  0  0  0  0  0  0  0  0  # atno 6909 bound_to 6896
  145.7541  140.8894  143.0464 H   0  0  0  0  0  0  0  0  0  0  0  0  # atno 7974 bound_to 7965
  154.6653  140.0563  157.0106 H   0  0  0  0  0  0  0  0  0  0  0  0  # atno 8008 bound_to 7997
  155.1168  140.3243  155.4488 H   0  0  0  0  0  0  0  0  0  0  0  0  # atno 8009 bound_to 7997
  156.2635  140.2004  156.6292 H   0  0  0  0  0  0  0  0  0  0  0  0  # atno 8010 bound_to 7997
  139.8793  144.6449  150.8861 H   0  0  0  0  0  0  0  0  0  0  0  0  # atno 10167 bound_to 10162
  156.9703  130.5966  149.5668 H   0  0  0  0  0  0  0  0  0  0  0  0  # atno 10718 bound_to 10713
  154.6009  135.5516  153.7374 H   0  0  0  0  0  0  0  0  0  0  0  0  # atno 10763 bound_to 10752
  153.0154  135.6366  154.1715 H   0  0  0  0  0  0  0  0  0  0  0  0  # atno 10764 bound_to 10752
  154.1655  135.2895  155.3076 H   0  0  0  0  0  0  0  0  0  0  0  0  # atno 10765 bound_to 10752
  140.1740  134.8523  157.2724 H   0  0  0  0  0  0  0  0  0  0  0  0  # atno 11005 bound_to 11000
  144.6844  139.9631  143.7480 LP  0  0  0  0  0  0  0  0  0  0  0  0  # atno 17320 bound_to 7965
  146.0328  139.3350  143.0744 LP  0  0  0  0  0  0  0  0  0  0  0  0  # atno 17321 bound_to 7965
  140.7747  143.3599  151.1848 LP  0  0  0  0  0  0  0  0  0  0  0  0  # atno 17342 bound_to 10162
  139.7211  143.9222  152.2985 LP  0  0  0  0  0  0  0  0  0  0  0  0  # atno 17343 bound_to 10162
  156.0285  130.5378  150.8472 LP  0  0  0  0  0  0  0  0  0  0  0  0  # atno 17370 bound_to 10713
  157.5597  131.0945  150.9577 LP  0  0  0  0  0  0  0  0  0  0  0  0  # atno 17371 bound_to 10713
  140.2344  134.3870  155.7507 LP  0  0  0  0  0  0  0  0  0  0  0  0  # atno 17394 bound_to 11000
  141.2219  133.7232  156.8691 LP  0  0  0  0  0  0  0  0  0  0  0  0  # atno 17395 bound_to 11000

$$$$
