AV-unprocessed.smi:1485|AV-procd|sdf|6004|dock6
  -GOLD-   22720 6103D 1   1.00000     0.00000
 Structure written by MMmdl.
 44 45  0  0  0  0  0  0  0  0  1 V2000
  155.2996  139.8618  160.3771 C   0  0  0  0  0  0  0  0  0  0  0  0
  154.4901  139.8809  159.2147 O   0  0  0  0  0  0  0  0  0  0  0  0
  153.1264  140.1406  159.5067 C   0  0  0  0  0  0  0  0  0  0  0  0
  152.9539  141.6232  159.8963 C   0  0  0  0  0  0  0  0  0  0  0  0
  152.2258  142.4233  158.8947 N   0  0  0  0  0  0  0  0  0  0  0  0
  151.7302  141.6968  157.8238 N   0  0  0  0  0  0  0  0  0  0  0  0
  151.0356  142.2769  156.9004 C   0  0  0  0  0  0  0  0  0  0  0  0
  150.4387  141.5067  155.7758 C   0  0  0  0  0  0  0  0  0  0  0  0
  150.9340  140.4548  155.3682 O   0  0  0  0  0  0  0  0  0  0  0  0
  149.3418  142.0619  155.2306 N   0  0  0  0  0  0  0  0  0  0  0  0
  148.6314  141.5859  154.0471 C   0  0  1  0  0  0  0  0  0  0  0  0
  148.3082  140.0862  154.1892 C   0  0  0  0  0  0  0  0  0  0  0  0
  147.2463  139.8215  155.2709 C   0  0  0  0  0  0  0  0  0  0  0  0
  145.9733  140.6450  155.0195 C   0  0  0  0  0  0  0  0  0  0  0  0
  146.2834  142.1503  154.9148 C   0  0  2  0  0  0  0  0  0  0  0  0
  145.0096  142.9700  154.6665 C   0  0  0  0  0  0  0  0  0  0  0  0
  147.3440  142.4073  153.8224 C   0  0  0  0  0  0  0  0  0  0  0  0
  150.7965  143.7084  156.9399 C   0  0  0  0  0  0  0  0  0  0  0  0
  151.3134  144.4137  157.9697 C   0  0  0  0  0  0  0  0  0  0  0  0
  152.0920  143.7781  159.0351 C   0  0  0  0  0  0  0  0  0  0  0  0
  152.5843  144.4107  159.9688 O   0  0  0  0  0  0  0  0  0  0  0  0
  156.3328  139.6522  160.1010 H   0  0  0  0  0  0  0  0  0  0  0  0
  154.9730  139.0886  161.0735 H   0  0  0  0  0  0  0  0  0  0  0  0
  155.2777  140.8257  160.8875 H   0  0  0  0  0  0  0  0  0  0  0  0
  152.5199  139.9233  158.6262 H   0  0  0  0  0  0  0  0  0  0  0  0
  152.7700  139.4823  160.3012 H   0  0  0  0  0  0  0  0  0  0  0  0
  152.4592  141.6516  160.8683 H   0  0  0  0  0  0  0  0  0  0  0  0
  153.9349  142.0757  160.0442 H   0  0  0  0  0  0  0  0  0  0  0  0
  149.0071  142.9232  155.6383 H   0  0  0  0  0  0  0  0  0  0  0  0
  149.2797  141.7062  153.1775 H   0  0  0  0  0  0  0  0  0  0  0  0
  147.9434  139.7084  153.2330 H   0  0  0  0  0  0  0  0  0  0  0  0
  149.2161  139.5236  154.4104 H   0  0  0  0  0  0  0  0  0  0  0  0
  147.0010  138.7594  155.2946 H   0  0  0  0  0  0  0  0  0  0  0  0
  147.6502  140.0643  156.2545 H   0  0  0  0  0  0  0  0  0  0  0  0
  145.4954  140.3023  154.1009 H   0  0  0  0  0  0  0  0  0  0  0  0
  145.2594  140.4656  155.8239 H   0  0  0  0  0  0  0  0  0  0  0  0
  146.6932  142.4751  155.8723 H   0  0  0  0  0  0  0  0  0  0  0  0
  144.5489  142.7091  153.7132 H   0  0  0  0  0  0  0  0  0  0  0  0
  145.2281  144.0380  154.6504 H   0  0  0  0  0  0  0  0  0  0  0  0
  144.2727  142.7972  155.4515 H   0  0  0  0  0  0  0  0  0  0  0  0
  147.5841  143.4704  153.7757 H   0  0  0  0  0  0  0  0  0  0  0  0
  146.9266  142.1506  152.8479 H   0  0  0  0  0  0  0  0  0  0  0  0
  150.2254  144.2032  156.1675 H   0  0  0  0  0  0  0  0  0  0  0  0
  151.1463  145.4801  158.0115 H   0  0  0  0  0  0  0  0  0  0  0  0
  1  2  1  0  0  0  0
  1 22  1  0  0  0  0
  1 23  1  0  0  0  0
  1 24  1  0  0  0  0
  2  3  1  0  0  0  0
  3  4  1  0  0  0  0
  3 25  1  0  0  0  0
  3 26  1  0  0  0  0
  4  5  1  0  0  0  0
  4 27  1  0  0  0  0
  4 28  1  0  0  0  0
  5 20  1  0  0  0  0
  5  6  1  0  0  0  0
  6  7  2  0  0  0  0
  7  8  1  0  0  0  0
  7 18  1  0  0  0  0
  8  9  2  0  0  0  0
  8 10  1  0  0  0  0
 10 11  1  0  0  0  0
 10 29  1  0  0  0  0
 11 17  1  0  0  0  0
 11 12  1  0  0  0  0
 11 30  1  0  0  0  0
 12 13  1  0  0  0  0
 12 31  1  0  0  0  0
 12 32  1  0  0  0  0
 13 14  1  0  0  0  0
 13 33  1  0  0  0  0
 13 34  1  0  0  0  0
 14 15  1  0  0  0  0
 14 35  1  0  0  0  0
 14 36  1  0  0  0  0
 15 16  1  0  0  0  0
 15 17  1  0  0  0  0
 15 37  1  0  0  0  0
 16 38  1  0  0  0  0
 16 39  1  0  0  0  0
 16 40  1  0  0  0  0
 17 41  1  0  0  0  0
 17 42  1  0  0  0  0
 18 19  2  0  0  0  0
 18 43  1  0  0  0  0
 19 20  1  0  0  0  0
 19 44  1  0  0  0  0
 20 21  2  0  0  0  0
M  END
> <s_m_source_file>
AV-unprocessed.smi

> <i_m_source_file_index>
1485

> <i_lp_mmshare_version>
43012

> <i_f3d_flags>
0

> <s_epik_input>
W0NIM11PW0NIMl1bQ0gyXW4xbmMoW2NIXVtjSF1jMT1PKUMoPU8pW05IXVtDQEBIXTJbQ0gyXVtDSDJdW0NIMl1bQ0BASF0oW0NIM10pW0NIMl0y

> <s_epik_cmdline>
J2VwaWtfcHl0aG9uJywgJy1waCcsICc3LjAnLCAnLXRuJywgJzgnLCAnLW1hJywgJzIwMCcsICctbWV0YWxfYmluZGluZycsICctaW1hZScsICc8aW5maWxlLm1hZT4nLCAnLW9tYWUnLCAnPG91dGZpbGUubWFlPic=

> <r_lp_tautomer_probability>
1

> <r_epik_Ionization_Penalty>
6.4688e-07

> <r_epik_Ionization_Penalty_Charging>
6.63567e-09

> <r_epik_Ionization_Penalty_Neutral>
6.40245e-07

> <r_epik_State_Penalty>
-0

> <r_epik_Charging_Adjusted_Penalty>
6.63567e-09

> <i_epik_Tot_Q>
0

> <i_epik_Tot_abs_Q>
0

> <r_epik_Metal_State_Penalty>
-0

> <b_epik_Metal_Only>
0

> <s_lp_Force_Field>
OPLS_2005

> <r_lp_Energy>
30.8996

> <b_lp_Chiralities_Consistent>
1

> <s_lp_Variant>
AV-unprocessed.smi:1485-4

> <Gold.Version>
5.8.1

> <Gold.Id.Protein>
6NUR|6NUR_protein|mol2

> <Gold.PLP.Fitness>
45.5637

> <Gold.PLP.PLP>
-38.1423

> <Gold.PLP.part.hbond>
-3.0000

> <Gold.PLP.part.metal>
0.0000

> <Gold.PLP.part.buried>
1.0571

> <Gold.PLP.part.nonpolar>
-36.3802

> <Gold.PLP.part.repulsive>
0.2767

> <Gold.PLP.ligand.clash>
0.0000

> <Gold.PLP.ligand.torsion>
0.7692

> <Gold.PLP.Chemscore.Hbond>
2.9760

> <Gold.PLP.Chemscore.CHOScore>
0.0000

> <Gold.PLP.Chemscore.Metal>
0.0000

> <Gold.Chemscore.Hbonds>
donor molecule, donor type, donor heavy atom, donor atom, acceptor molecule, acceptor atom, score
      L1  H    10    29       P1  8028  1.00
      P1  H  7989  7998       L1     9  0.98
      P1  H  7997  8010       L1     2  1.00

> <Gold.PLP.Chemscore.Internal.Correction>
0.0318

> <Gold.Rescore>
     Score         DG    S(hbond)    S(metal)    S(lipo)     H(rot)  DE(clash)    DE(int)     intcor
     16.86     -20.57       2.53        0.00      90.73       1.55       1.79       1.92       ----

> <Gold.Chemscore.Fitness>
16.8583

> <Gold.Chemscore.DG>
-20.5722

> <Gold.Chemscore.ZeroCoef>
-5.4800

> <Gold.Chemscore.Hbond>
2.5266

> <Gold.Chemscore.Metal>
0.0000

> <Gold.Chemscore.Lipo>
90.7318

> <Gold.Chemscore.Internal_Hbond>
0.0000

> <Gold.Chemscore.DEClash>
1.7919

> <Gold.Chemscore.DEInternal>
1.9220

> <Gold.Chemscore.Rot>
1.5478

> <Gold.Chemscore.Internal.Correction>
   9.000000E+99

> <Gold.Chemscore.Hbonds>
donor molecule, donor type, donor heavy atom, donor atom, acceptor molecule, acceptor atom, score
      L1  H    10    29       P1  8028  0.95
      P1  H  7989  7998       L1     9  0.43
      P1  H  7997  8010       L1     2  0.89

> <Gold.Chemscore.Hbond.Weighted>
-8.4388

> <Gold.Chemscore.Metal.Weighted>
-0.0000

> <Gold.Chemscore.Lipo.Weighted>
-10.6156

> <Gold.Chemscore.Internal_Hbond.Weighted>
0.0000

> <Gold.Chemscore.DEClash.Weighted>
1.7919

> <Gold.Chemscore.DEInternal.Weighted>
1.9220

> <Gold.Chemscore.Rot.Weighted>
3.9623

> <Gold.Chemscore.Internal.Correction.Weighted>
   9.000000E+99

> <Gold.Protein.RotatedTorsions>
[ 6907 6896 6895 6894 ] final   79.11 input  -60.11 | X-H torsion
[ 7974 7965 7964 7962 ] final    6.15 input  175.53 | X-H torsion
[ 8008 7997 7996 7995 ] final   -8.61 input   59.86 | X-H torsion
[ 10167 10162 10161 10158 ] final  -90.28 input  -65.29 | X-H torsion
[ 10718 10713 10712 10709 ] final -132.89 input   66.30 | X-H torsion
[ 10763 10752 10751 10750 ] final   49.03 input  -60.55 | X-H torsion
[ 11005 11000 10999 10996 ] final  144.12 input  -57.11 | X-H torsion

> <Gold.Protein.ActiveResidues>
 VAL166  LYS551  ARG553  GLY616  TRP617  ASP618  TYR619  PRO620  LYS621  CYS622 
 ASP623  PHE694  ASN695  SER759  ASP760  ASP761  ALA762  ILE779  LEU786  VAL792 
 PHE793  MET794  SER795  GLU796  ALA797  LYS798  CYS799  TRP800  GLU811  SER814 

> <Gold.Protein.RotatedAtoms>
  152.5186  134.3561  159.9267 H   0  0  0  0  0  0  0  0  0  0  0  0  # atno 6907 bound_to 6896
  151.3512  133.3918  159.2688 H   0  0  0  0  0  0  0  0  0  0  0  0  # atno 6908 bound_to 6896
  150.9725  134.9114  159.7855 H   0  0  0  0  0  0  0  0  0  0  0  0  # atno 6909 bound_to 6896
  146.2436  140.0277  142.8392 H   0  0  0  0  0  0  0  0  0  0  0  0  # atno 7974 bound_to 7965
  154.5724  140.2376  155.8172 H   0  0  0  0  0  0  0  0  0  0  0  0  # atno 8008 bound_to 7997
  156.2117  140.3024  155.9705 H   0  0  0  0  0  0  0  0  0  0  0  0  # atno 8009 bound_to 7997
  155.2688  140.0417  157.2995 H   0  0  0  0  0  0  0  0  0  0  0  0  # atno 8010 bound_to 7997
  140.3564  143.2864  151.9665 H   0  0  0  0  0  0  0  0  0  0  0  0  # atno 10167 bound_to 10162
  156.2392  130.7085  151.0939 H   0  0  0  0  0  0  0  0  0  0  0  0  # atno 10718 bound_to 10713
  152.9788  135.5925  154.4023 H   0  0  0  0  0  0  0  0  0  0  0  0  # atno 10763 bound_to 10752
  154.3667  135.2767  155.2291 H   0  0  0  0  0  0  0  0  0  0  0  0  # atno 10764 bound_to 10752
  154.4264  135.6047  153.6096 H   0  0  0  0  0  0  0  0  0  0  0  0  # atno 10765 bound_to 10752
  140.0607  134.9206  157.1179 H   0  0  0  0  0  0  0  0  0  0  0  0  # atno 11005 bound_to 11000
  145.1183  140.9447  143.4615 LP  0  0  0  0  0  0  0  0  0  0  0  0  # atno 17320 bound_to 7965
  145.0506  139.3184  143.5930 LP  0  0  0  0  0  0  0  0  0  0  0  0  # atno 17321 bound_to 7965
  139.4819  144.6031  151.7570 LP  0  0  0  0  0  0  0  0  0  0  0  0  # atno 17342 bound_to 10162
  140.5169  144.0939  150.6011 LP  0  0  0  0  0  0  0  0  0  0  0  0  # atno 17343 bound_to 10162
  157.7168  131.0705  150.6296 LP  0  0  0  0  0  0  0  0  0  0  0  0  # atno 17370 bound_to 10713
  156.6368  130.4447  149.5766 LP  0  0  0  0  0  0  0  0  0  0  0  0  # atno 17371 bound_to 10713
  140.3774  134.2324  155.7173 LP  0  0  0  0  0  0  0  0  0  0  0  0  # atno 17394 bound_to 11000
  141.1972  133.8065  157.0639 LP  0  0  0  0  0  0  0  0  0  0  0  0  # atno 17395 bound_to 11000

$$$$
