AV-unprocessed.smi:1890|AV-procd|sdf|7664|dock10
  -GOLD-   22720 9403D 1   1.00000     0.00000
 Structure written by MMmdl.
 51 52  0  0  0  0  0  0  0  0  1 V2000
  143.9714  132.4138  149.4266 C   0  0  0  0  0  0  0  0  0  0  0  0
  145.4823  132.2762  149.6718 C   0  0  0  0  0  0  0  0  0  0  0  0
  145.9502  133.0478  150.8241 N   0  0  0  0  0  0  0  0  0  0  0  0
  146.7001  132.3225  151.8509 C   0  0  0  0  0  0  0  0  0  0  0  0
  147.7250  133.2106  152.5718 C   0  0  0  0  0  0  0  0  0  0  0  0
  145.1978  134.1568  151.2791 C   0  0  0  0  0  0  0  0  0  0  0  0
  144.0023  134.0062  152.0249 C   0  0  0  0  0  0  0  0  0  0  0  0
  143.3119  135.1549  152.4554 C   0  0  0  0  0  0  0  0  0  0  0  0
  143.8177  136.4278  152.1307 C   0  0  0  0  0  0  0  0  0  0  0  0
  143.1115  137.5671  152.6034 N   0  0  0  0  0  0  0  0  0  0  0  0
  142.0026  137.6132  153.3615 C   0  0  0  0  0  0  0  0  0  0  0  0
  141.4312  136.6386  153.8498 O   0  0  0  0  0  0  0  0  0  0  0  0
  141.5959  138.8773  153.5455 N   0  0  0  0  0  0  0  0  0  0  0  0
  140.4265  139.2827  154.3195 C   0  0  0  0  0  0  0  0  0  0  0  0
  139.1442  139.0000  153.5073 C   0  0  0  0  0  0  0  0  0  0  0  0
  137.9014  139.5887  154.1989 C   0  0  0  0  0  0  0  0  0  0  0  0
  138.1153  141.0249  154.4090 N   0  0  0  0  0  0  0  0  0  0  0  0
  137.4577  141.9744  153.7010 C   0  0  0  0  0  0  0  0  0  0  0  0
  137.8120  143.4475  153.9154 C   0  0  0  0  0  0  0  0  0  0  0  0
  136.5817  141.7043  152.8792 O   0  0  0  0  0  0  0  0  0  0  0  0
  139.2159  141.2742  155.3480 C   0  0  0  0  0  0  0  0  0  0  0  0
  140.5277  140.7736  154.7175 C   0  0  0  0  0  0  0  0  0  0  0  0
  145.0221  136.4826  151.3907 C   0  0  0  0  0  0  0  0  0  0  0  0
  145.6878  135.3835  150.9785 N   0  0  0  0  0  0  0  0  0  0  0  0
  143.6771  131.8602  148.5350 H   0  0  0  0  0  0  0  0  0  0  0  0
  143.6953  133.4572  149.2727 H   0  0  0  0  0  0  0  0  0  0  0  0
  143.3790  132.0321  150.2574 H   0  0  0  0  0  0  0  0  0  0  0  0
  145.7598  131.2282  149.7856 H   0  0  0  0  0  0  0  0  0  0  0  0
  146.0065  132.6226  148.7804 H   0  0  0  0  0  0  0  0  0  0  0  0
  145.9932  131.9253  152.5800 H   0  0  0  0  0  0  0  0  0  0  0  0
  147.1966  131.4494  151.4271 H   0  0  0  0  0  0  0  0  0  0  0  0
  148.2559  132.6429  153.3359 H   0  0  0  0  0  0  0  0  0  0  0  0
  147.2435  134.0563  153.0629 H   0  0  0  0  0  0  0  0  0  0  0  0
  148.4683  133.6035  151.8773 H   0  0  0  0  0  0  0  0  0  0  0  0
  143.6073  133.0365  152.2852 H   0  0  0  0  0  0  0  0  0  0  0  0
  142.4032  135.0549  153.0308 H   0  0  0  0  0  0  0  0  0  0  0  0
  143.5145  138.4582  152.3535 H   0  0  0  0  0  0  0  0  0  0  0  0
  142.1319  139.6158  153.1137 H   0  0  0  0  0  0  0  0  0  0  0  0
  140.3744  138.6858  155.2323 H   0  0  0  0  0  0  0  0  0  0  0  0
  139.2336  139.4336  152.5099 H   0  0  0  0  0  0  0  0  0  0  0  0
  139.0185  137.9259  153.3668 H   0  0  0  0  0  0  0  0  0  0  0  0
  137.0108  139.3760  153.6063 H   0  0  0  0  0  0  0  0  0  0  0  0
  137.7401  139.1012  155.1614 H   0  0  0  0  0  0  0  0  0  0  0  0
  138.8672  143.6263  153.7076 H   0  0  0  0  0  0  0  0  0  0  0  0
  137.5939  143.7521  154.9392 H   0  0  0  0  0  0  0  0  0  0  0  0
  137.2297  144.0835  153.2475 H   0  0  0  0  0  0  0  0  0  0  0  0
  139.3163  142.3195  155.6360 H   0  0  0  0  0  0  0  0  0  0  0  0
  139.0227  140.7359  156.2772 H   0  0  0  0  0  0  0  0  0  0  0  0
  141.3534  140.9219  155.4144 H   0  0  0  0  0  0  0  0  0  0  0  0
  140.7540  141.3778  153.8377 H   0  0  0  0  0  0  0  0  0  0  0  0
  145.4954  137.4164  151.1318 H   0  0  0  0  0  0  0  0  0  0  0  0
  1  2  1  0  0  0  0
  1 25  1  0  0  0  0
  1 26  1  0  0  0  0
  1 27  1  0  0  0  0
  2  3  1  0  0  0  0
  2 28  1  0  0  0  0
  2 29  1  0  0  0  0
  3  4  1  0  0  0  0
  3  6  1  0  0  0  0
  4  5  1  0  0  0  0
  4 30  1  0  0  0  0
  4 31  1  0  0  0  0
  5 32  1  0  0  0  0
  5 33  1  0  0  0  0
  5 34  1  0  0  0  0
  6 24  1  0  0  0  0
  6  7  2  0  0  0  0
  7  8  1  0  0  0  0
  7 35  1  0  0  0  0
  8  9  2  0  0  0  0
  8 36  1  0  0  0  0
  9 10  1  0  0  0  0
  9 23  1  0  0  0  0
 10 11  1  0  0  0  0
 10 37  1  0  0  0  0
 11 12  2  0  0  0  0
 11 13  1  0  0  0  0
 13 14  1  0  0  0  0
 13 38  1  0  0  0  0
 14 22  1  0  0  0  0
 14 15  1  0  0  0  0
 14 39  1  0  0  0  0
 15 16  1  0  0  0  0
 15 40  1  0  0  0  0
 15 41  1  0  0  0  0
 16 17  1  0  0  0  0
 16 42  1  0  0  0  0
 16 43  1  0  0  0  0
 17 18  1  0  0  0  0
 17 21  1  0  0  0  0
 18 19  1  0  0  0  0
 18 20  2  0  0  0  0
 19 44  1  0  0  0  0
 19 45  1  0  0  0  0
 19 46  1  0  0  0  0
 21 22  1  0  0  0  0
 21 47  1  0  0  0  0
 21 48  1  0  0  0  0
 22 49  1  0  0  0  0
 22 50  1  0  0  0  0
 23 24  2  0  0  0  0
 23 51  1  0  0  0  0
M  END
> <s_m_source_file>
AV-unprocessed.smi

> <i_m_source_file_index>
1890

> <i_lp_mmshare_version>
43012

> <i_f3d_flags>
0

> <s_epik_input>
W0NIM11bQ0gyXU4oW0NIMl1bQ0gzXSljMVtjSF1bY0hdYyhbY0hdbjEpW05IXUMoPU8pW05IXVtDSF0yW0NIMl1bQ0gyXU4oQyg9TylbQ0gzXSlbQ0gyXVtDSDJdMg==

> <s_epik_cmdline>
J2VwaWtfcHl0aG9uJywgJy1waCcsICc3LjAnLCAnLXRuJywgJzgnLCAnLW1hJywgJzIwMCcsICctbWV0YWxfYmluZGluZycsICctaW1hZScsICc8aW5maWxlLm1hZT4nLCAnLW9tYWUnLCAnPG91dGZpbGUubWFlPic=

> <r_lp_tautomer_probability>
1

> <r_epik_Ionization_Penalty>
0.700493

> <r_epik_Ionization_Penalty_Charging>
0

> <r_epik_Ionization_Penalty_Neutral>
0.700493

> <r_epik_State_Penalty>
2.19132

> <r_epik_Charging_Adjusted_Penalty>
2.19132

> <i_epik_Tot_Q>
0

> <i_epik_Tot_abs_Q>
0

> <r_epik_Metal_State_Penalty>
1.54624

> <b_epik_Metal_Only>
0

> <s_lp_Force_Field>
OPLS_2005

> <r_lp_Energy>
30.5228

> <b_lp_Chiralities_Consistent>
1

> <s_lp_Variant>
AV-unprocessed.smi:1890-2

> <Gold.Version>
5.8.1

> <Gold.Id.Protein>
6NUR|6NUR_protein|mol2

> <Gold.PLP.Fitness>
44.5710

> <Gold.PLP.PLP>
-40.0970

> <Gold.PLP.part.hbond>
-2.9452

> <Gold.PLP.part.metal>
0.0000

> <Gold.PLP.part.buried>
-3.6575

> <Gold.PLP.part.nonpolar>
-34.7173

> <Gold.PLP.part.repulsive>
0.3777

> <Gold.PLP.ligand.clash>
0.0000

> <Gold.PLP.ligand.torsion>
2.0059

> <Gold.PLP.Chemscore.Hbond>
2.0000

> <Gold.PLP.Chemscore.CHOScore>
0.5080

> <Gold.PLP.Chemscore.Metal>
0.0000

> <Gold.Chemscore.Hbonds>
donor molecule, donor type, donor heavy atom, donor atom, acceptor molecule, acceptor atom, score
      L1  H    10    37       P1 10175  1.00
      L1  H    13    38       P1 10175  1.00
      L1  C    23    51       P1 10171  0.50

> <Gold.PLP.Chemscore.Internal.Correction>
0.9619

> <Gold.Rescore>
     Score         DG    S(hbond)    S(metal)    S(lipo)     H(rot)  DE(clash)    DE(int)     intcor
     14.56     -17.90       1.88        0.00      81.73       1.33       0.09       3.25       ----

> <Gold.Chemscore.Fitness>
14.5593

> <Gold.Chemscore.DG>
-17.9048

> <Gold.Chemscore.ZeroCoef>
-5.4800

> <Gold.Chemscore.Hbond>
1.8758

> <Gold.Chemscore.Metal>
0.0000

> <Gold.Chemscore.Lipo>
81.7346

> <Gold.Chemscore.Internal_Hbond>
0.0000

> <Gold.Chemscore.DEClash>
0.0916

> <Gold.Chemscore.DEInternal>
3.2540

> <Gold.Chemscore.Rot>
1.3294

> <Gold.Chemscore.Internal.Correction>
   9.000000E+99

> <Gold.Chemscore.Hbonds>
donor molecule, donor type, donor heavy atom, donor atom, acceptor molecule, acceptor atom, score
      L1  H    10    37       P1 10175  0.95
      L1  H    13    38       P1 10175  0.85

> <Gold.Chemscore.Hbond.Weighted>
-6.2652

> <Gold.Chemscore.Metal.Weighted>
-0.0000

> <Gold.Chemscore.Lipo.Weighted>
-9.5629

> <Gold.Chemscore.Internal_Hbond.Weighted>
0.0000

> <Gold.Chemscore.DEClash.Weighted>
0.0916

> <Gold.Chemscore.DEInternal.Weighted>
3.2540

> <Gold.Chemscore.Rot.Weighted>
3.4034

> <Gold.Chemscore.Internal.Correction.Weighted>
   9.000000E+99

> <Gold.Protein.RotatedTorsions>
[ 6907 6896 6895 6894 ] final  126.59 input  -60.11 | X-H torsion
[ 7974 7965 7964 7962 ] final -125.78 input  175.53 | X-H torsion
[ 8008 7997 7996 7995 ] final   46.78 input   59.86 | X-H torsion
[ 10167 10162 10161 10158 ] final   48.01 input  -65.29 | X-H torsion
[ 10718 10713 10712 10709 ] final -100.09 input   66.30 | X-H torsion
[ 10763 10752 10751 10750 ] final  -93.95 input  -60.55 | X-H torsion
[ 11005 11000 10999 10996 ] final  -37.84 input  -57.11 | X-H torsion

> <Gold.Protein.ActiveResidues>
 VAL166  LYS551  ARG553  GLY616  TRP617  ASP618  TYR619  PRO620  LYS621  CYS622 
 ASP623  PHE694  ASN695  SER759  ASP760  ASP761  ALA762  ILE779  LEU786  VAL792 
 PHE793  MET794  SER795  GLU796  ALA797  LYS798  CYS799  TRP800  GLU811  SER814 

> <Gold.Protein.RotatedAtoms>
  152.3889  133.6651  159.6221 H   0  0  0  0  0  0  0  0  0  0  0  0  # atno 6907 bound_to 6896
  150.7802  133.8987  159.3343 H   0  0  0  0  0  0  0  0  0  0  0  0  # atno 6908 bound_to 6896
  151.6778  135.0968  160.0261 H   0  0  0  0  0  0  0  0  0  0  0  0  # atno 6909 bound_to 6896
  144.9940  140.7759  143.4537 H   0  0  0  0  0  0  0  0  0  0  0  0  # atno 7974 bound_to 7965
  155.3582  140.3417  155.4240 H   0  0  0  0  0  0  0  0  0  0  0  0  # atno 8008 bound_to 7997
  156.1728  140.1637  156.8452 H   0  0  0  0  0  0  0  0  0  0  0  0  # atno 8009 bound_to 7997
  154.5250  140.0758  156.8225 H   0  0  0  0  0  0  0  0  0  0  0  0  # atno 8010 bound_to 7997
  140.2978  144.2970  150.6226 H   0  0  0  0  0  0  0  0  0  0  0  0  # atno 10167 bound_to 10162
  156.0153  130.5312  150.6766 H   0  0  0  0  0  0  0  0  0  0  0  0  # atno 10718 bound_to 10713
  154.7008  135.5175  153.8524 H   0  0  0  0  0  0  0  0  0  0  0  0  # atno 10763 bound_to 10752
  153.0703  135.6599  154.0272 H   0  0  0  0  0  0  0  0  0  0  0  0  # atno 10764 bound_to 10752
  154.0131  135.3000  155.3369 H   0  0  0  0  0  0  0  0  0  0  0  0  # atno 10765 bound_to 10752
  140.9982  133.6969  156.1974 H   0  0  0  0  0  0  0  0  0  0  0  0  # atno 11005 bound_to 11000
  145.2245  139.2143  143.5075 LP  0  0  0  0  0  0  0  0  0  0  0  0  # atno 17320 bound_to 7965
  146.3438  140.2110  142.8590 LP  0  0  0  0  0  0  0  0  0  0  0  0  # atno 17321 bound_to 7965
  140.5677  143.2184  151.7654 LP  0  0  0  0  0  0  0  0  0  0  0  0  # atno 17342 bound_to 10162
  139.4922  144.4260  151.9925 LP  0  0  0  0  0  0  0  0  0  0  0  0  # atno 17343 bound_to 10162
  157.4477  131.0869  151.0878 LP  0  0  0  0  0  0  0  0  0  0  0  0  # atno 17370 bound_to 10713
  157.1403  130.6140  149.5553 LP  0  0  0  0  0  0  0  0  0  0  0  0  # atno 17371 bound_to 10713
  140.6931  134.4644  157.5588 LP  0  0  0  0  0  0  0  0  0  0  0  0  # atno 17394 bound_to 11000
  139.9025  134.8522  156.1836 LP  0  0  0  0  0  0  0  0  0  0  0  0  # atno 17395 bound_to 11000

$$$$
