AV-unprocessed.smi:861|AV-procd|sdf|3973|dock8
  -GOLD-   22720 1453D 1   1.00000     0.00000
 Structure written by MMmdl.
 45 46  0  0  0  0  0  0  0  0  3 V2000
  147.1812  142.5875  155.4251 C   0  0  0  0  0  0  0  0  0  0  0  0
  147.3891  142.2870  153.9310 C   0  0  0  0  0  0  0  0  0  0  0  0
  146.4702  143.1733  153.0763 C   0  0  0  0  0  0  0  0  0  0  0  0
  147.1804  140.7975  153.5873 C   0  0  0  0  0  0  0  0  0  0  0  0
  148.3430  139.8844  154.0220 C   0  0  0  0  0  0  0  0  0  0  0  0
  149.6616  140.3937  153.5585 N   0  3  2  0  0  0  0  0  0  0  0  0
  150.6572  139.3247  153.3009 C   0  0  0  0  0  0  0  0  0  0  0  0
  151.2641  138.8014  154.6146 C   0  0  0  0  0  0  0  0  0  0  0  0
  151.8419  139.8857  155.3318 O   0  0  0  0  0  0  0  0  0  0  0  0
  150.8821  140.8713  155.7003 C   0  0  1  0  0  0  0  0  0  0  0  0
  151.5998  141.9576  156.5212 C   0  0  0  0  0  0  0  0  0  0  0  0
  150.7077  143.0369  156.9250 N   0  0  0  0  0  0  0  0  0  0  0  0
  150.7815  143.6224  158.1974 C   0  0  0  0  0  0  0  0  0  0  0  0
  151.7029  143.2425  159.2017 C   0  0  0  0  0  0  0  0  0  0  0  0
  151.6657  143.9203  160.4322 C   0  0  0  0  0  0  0  0  0  0  0  0
  150.7074  144.9375  160.5871 C   0  0  0  0  0  0  0  0  0  0  0  0
  149.8342  145.2851  159.6159 N   0  0  0  0  0  0  0  0  0  0  0  0
  149.8951  144.6179  158.4499 N   0  3  0  0  0  0  0  0  0  0  0  0
  150.2540  141.4547  154.4143 C   0  0  0  0  0  0  0  0  0  0  0  0
  146.1840  142.2937  155.7542 H   0  0  0  0  0  0  0  0  0  0  0  0
  147.2949  143.6529  155.6279 H   0  0  0  0  0  0  0  0  0  0  0  0
  147.9074  142.0670  156.0485 H   0  0  0  0  0  0  0  0  0  0  0  0
  148.4167  142.5515  153.6778 H   0  0  0  0  0  0  0  0  0  0  0  0
  145.4188  142.9628  153.2759 H   0  0  0  0  0  0  0  0  0  0  0  0
  146.6449  143.0150  152.0117 H   0  0  0  0  0  0  0  0  0  0  0  0
  146.6416  144.2307  153.2805 H   0  0  0  0  0  0  0  0  0  0  0  0
  146.2512  140.4440  154.0365 H   0  0  0  0  0  0  0  0  0  0  0  0
  147.0404  140.7171  152.5099 H   0  0  0  0  0  0  0  0  0  0  0  0
  148.3393  139.7455  155.1027 H   0  0  0  0  0  0  0  0  0  0  0  0
  148.1808  138.8976  153.5888 H   0  0  0  0  0  0  0  0  0  0  0  0
  150.2143  138.5115  152.7245 H   0  0  0  0  0  0  0  0  0  0  0  0
  151.4520  139.7395  152.6793 H   0  0  0  0  0  0  0  0  0  0  0  0
  150.5136  138.2983  155.2261 H   0  0  0  0  0  0  0  0  0  0  0  0
  152.0420  138.0682  154.4010 H   0  0  0  0  0  0  0  0  0  0  0  0
  150.1074  140.4117  156.3150 H   0  0  0  0  0  0  0  0  0  0  0  0
  152.0292  141.5151  157.4205 H   0  0  0  0  0  0  0  0  0  0  0  0
  152.4390  142.3707  155.9613 H   0  0  0  0  0  0  0  0  0  0  0  0
  150.1248  143.4630  156.2182 H   0  0  0  0  0  0  0  0  0  0  0  0
  152.4258  142.4553  159.0496 H   0  0  0  0  0  0  0  0  0  0  0  0
  152.3464  143.6694  161.2323 H   0  0  0  0  0  0  0  0  0  0  0  0
  150.6377  145.4877  161.5141 H   0  0  0  0  0  0  0  0  0  0  0  0
  151.0268  141.9601  153.8332 H   0  0  0  0  0  0  0  0  0  0  0  0
  149.5159  142.2170  154.6606 H   0  0  0  0  0  0  0  0  0  0  0  0
  149.4763  140.8153  152.6591 H   0  0  0  0  0  0  0  0  0  0  0  0
  149.2376  144.8752  157.7132 H   0  0  0  0  0  0  0  0  0  0  0  0
  1  2  1  0  0  0  0
  1 20  1  0  0  0  0
  1 21  1  0  0  0  0
  1 22  1  0  0  0  0
  2  3  1  0  0  0  0
  2  4  1  0  0  0  0
  2 23  1  0  0  0  0
  3 24  1  0  0  0  0
  3 25  1  0  0  0  0
  3 26  1  0  0  0  0
  4  5  1  0  0  0  0
  4 27  1  0  0  0  0
  4 28  1  0  0  0  0
  5  6  1  0  0  0  0
  5 29  1  0  0  0  0
  5 30  1  0  0  0  0
  6 19  1  0  0  0  0
  6  7  1  0  0  0  0
  6 44  1  0  0  0  0
  7  8  1  0  0  0  0
  7 31  1  0  0  0  0
  7 32  1  0  0  0  0
  8  9  1  0  0  0  0
  8 33  1  0  0  0  0
  8 34  1  0  0  0  0
  9 10  1  0  0  0  0
 10 11  1  0  0  0  0
 10 19  1  0  0  0  0
 10 35  1  0  0  0  0
 11 12  1  0  0  0  0
 11 36  1  0  0  0  0
 11 37  1  0  0  0  0
 12 13  1  0  0  0  0
 12 38  1  0  0  0  0
 13 18  1  0  0  0  0
 13 14  2  0  0  0  0
 14 15  1  0  0  0  0
 14 39  1  0  0  0  0
 15 16  2  0  0  0  0
 15 40  1  0  0  0  0
 16 17  1  0  0  0  0
 16 41  1  0  0  0  0
 17 18  2  0  0  0  0
 18 45  1  0  0  0  0
 19 42  1  0  0  0  0
 19 43  1  0  0  0  0
M  CHG  1   6   1
M  CHG  1  18   1
M  END
> <s_m_source_file>
AV-unprocessed.smi

> <i_m_source_file_index>
861

> <i_lp_mmshare_version>
43012

> <i_f3d_flags>
0

> <s_epik_input>
W0NIM11bQ0hdKFtDSDNdKVtDSDJdW0NIMl1OMVtDSDJdW0NIMl1PW0NASF0oW0NIMl0xKVtDSDJdW05IXWMyW2NIXVtjSF1bY0hdbm4y

> <s_epik_cmdline>
J2VwaWtfcHl0aG9uJywgJy1waCcsICc3LjAnLCAnLXRuJywgJzgnLCAnLW1hJywgJzIwMCcsICctbWV0YWxfYmluZGluZycsICctaW1hZScsICc8aW5maWxlLm1hZT4nLCAnLW9tYWUnLCAnPG91dGZpbGUubWFlPic=

> <r_lp_tautomer_probability>
0.966961

> <r_epik_Ionization_Penalty>
2.478

> <r_epik_Ionization_Penalty_Charging>
2.47799

> <r_epik_Ionization_Penalty_Neutral>
3.15286e-06

> <r_epik_State_Penalty>
2.10794

> <r_epik_Charging_Adjusted_Penalty>
4.58594

> <i_epik_Tot_Q>
2

> <i_epik_Tot_abs_Q>
2

> <r_epik_Metal_State_Penalty>
2.11378

> <b_epik_Metal_Only>
0

> <s_lp_Force_Field>
OPLS_2005

> <r_lp_Energy>
36.5784

> <b_lp_Chiralities_Consistent>
1

> <s_lp_Variant>
AV-unprocessed.smi:861-8

> <Gold.Version>
5.8.1

> <Gold.Id.Protein>
6NUR|6NUR_protein|mol2

> <Gold.PLP.Fitness>
48.8233

> <Gold.PLP.PLP>
-35.0062

> <Gold.PLP.part.hbond>
-5.0640

> <Gold.PLP.part.metal>
0.0000

> <Gold.PLP.part.buried>
-2.4423

> <Gold.PLP.part.nonpolar>
-29.1736

> <Gold.PLP.part.repulsive>
0.5634

> <Gold.PLP.ligand.clash>
0.0000

> <Gold.PLP.ligand.torsion>
0.6083

> <Gold.PLP.Chemscore.Hbond>
5.0000

> <Gold.PLP.Chemscore.CHOScore>
0.0000

> <Gold.PLP.Chemscore.Metal>
0.0000

> <Gold.Chemscore.Hbonds>
donor molecule, donor type, donor heavy atom, donor atom, acceptor molecule, acceptor atom, score
      L1  H     6    44       P1  7957  0.53
      L1  H    12    38       P1  8028  2.00
      L1  H    18    45       P1  8029  0.82
      P1  H  7989  7998       L1     9  0.01

> <Gold.PLP.Chemscore.Internal.Correction>
0.0338

> <Gold.Rescore>
     Score         DG    S(hbond)    S(metal)    S(lipo)     H(rot)  DE(clash)    DE(int)     intcor
     15.41     -17.05       1.94        0.00      82.19       1.78       1.11       0.53       ----

> <Gold.Chemscore.Fitness>
15.4080

> <Gold.Chemscore.DG>
-17.0462

> <Gold.Chemscore.ZeroCoef>
-5.4800

> <Gold.Chemscore.Hbond>
1.9449

> <Gold.Chemscore.Metal>
0.0000

> <Gold.Chemscore.Lipo>
82.1928

> <Gold.Chemscore.Internal_Hbond>
0.0000

> <Gold.Chemscore.DEClash>
1.1110

> <Gold.Chemscore.DEInternal>
0.5272

> <Gold.Chemscore.Rot>
1.7759

> <Gold.Chemscore.Internal.Correction>
   9.000000E+99

> <Gold.Chemscore.Hbonds>
donor molecule, donor type, donor heavy atom, donor atom, acceptor molecule, acceptor atom, score
      L1  H     6    44       P1  7957  0.54
      L1  H    12    38       P1  8028  0.96
      L1  H    18    45       P1  8029  0.01

> <Gold.Chemscore.Hbond.Weighted>
-6.4958

> <Gold.Chemscore.Metal.Weighted>
-0.0000

> <Gold.Chemscore.Lipo.Weighted>
-9.6166

> <Gold.Chemscore.Internal_Hbond.Weighted>
0.0000

> <Gold.Chemscore.DEClash.Weighted>
1.1110

> <Gold.Chemscore.DEInternal.Weighted>
0.5272

> <Gold.Chemscore.Rot.Weighted>
4.5462

> <Gold.Chemscore.Internal.Correction.Weighted>
   9.000000E+99

> <Gold.Protein.RotatedTorsions>
[ 6907 6896 6895 6894 ] final  -59.99 input  -60.11 | X-H torsion
[ 7974 7965 7964 7962 ] final  -82.85 input  175.53 | X-H torsion
[ 8008 7997 7996 7995 ] final   98.60 input   59.86 | X-H torsion
[ 10167 10162 10161 10158 ] final -148.63 input  -65.29 | X-H torsion
[ 10718 10713 10712 10709 ] final   48.66 input   66.30 | X-H torsion
[ 10763 10752 10751 10750 ] final   85.96 input  -60.55 | X-H torsion
[ 11005 11000 10999 10996 ] final   42.68 input  -57.11 | X-H torsion

> <Gold.Protein.ActiveResidues>
 VAL166  LYS551  ARG553  GLY616  TRP617  ASP618  TYR619  PRO620  LYS621  CYS622 
 ASP623  PHE694  ASN695  SER759  ASP760  ASP761  ALA762  ILE779  LEU786  VAL792 
 PHE793  MET794  SER795  GLU796  ALA797  LYS798  CYS799  TRP800  GLU811  SER814 

> <Gold.Protein.RotatedAtoms>
  150.7889  134.6896  159.6489 H   0  0  0  0  0  0  0  0  0  0  0  0  # atno 6907 bound_to 6896
  152.3991  134.6313  160.0086 H   0  0  0  0  0  0  0  0  0  0  0  0  # atno 6908 bound_to 6896
  151.6590  133.3281  159.3206 H   0  0  0  0  0  0  0  0  0  0  0  0  # atno 6909 bound_to 6896
  145.5278  140.9524  143.1620 H   0  0  0  0  0  0  0  0  0  0  0  0  # atno 7974 bound_to 7965
  156.1021  140.3241  155.7956 H   0  0  0  0  0  0  0  0  0  0  0  0  # atno 8008 bound_to 7997
  155.4819  140.0554  157.2983 H   0  0  0  0  0  0  0  0  0  0  0  0  # atno 8009 bound_to 7997
  154.4704  140.2008  156.0025 H   0  0  0  0  0  0  0  0  0  0  0  0  # atno 8010 bound_to 7997
  139.7515  143.8512  152.2587 H   0  0  0  0  0  0  0  0  0  0  0  0  # atno 10167 bound_to 10162
  157.4709  130.8254  149.7986 H   0  0  0  0  0  0  0  0  0  0  0  0  # atno 10718 bound_to 10713
  153.1524  135.4598  154.9656 H   0  0  0  0  0  0  0  0  0  0  0  0  # atno 10763 bound_to 10752
  154.7835  135.3196  154.7940 H   0  0  0  0  0  0  0  0  0  0  0  0  # atno 10764 bound_to 10752
  153.8443  135.6927  153.4853 H   0  0  0  0  0  0  0  0  0  0  0  0  # atno 10765 bound_to 10752
  140.1716  134.4215  155.8254 H   0  0  0  0  0  0  0  0  0  0  0  0  # atno 11005 bound_to 11000
  144.7642  139.6885  143.7222 LP  0  0  0  0  0  0  0  0  0  0  0  0  # atno 17320 bound_to 7965
  146.2064  139.5391  142.9709 LP  0  0  0  0  0  0  0  0  0  0  0  0  # atno 17321 bound_to 7965
  139.8491  144.7173  150.9236 LP  0  0  0  0  0  0  0  0  0  0  0  0  # atno 17342 bound_to 10162
  140.7798  143.3915  151.1302 LP  0  0  0  0  0  0  0  0  0  0  0  0  # atno 17343 bound_to 10162
  156.0073  130.3850  150.2387 LP  0  0  0  0  0  0  0  0  0  0  0  0  # atno 17370 bound_to 10713
  157.0570  131.0079  151.3235 LP  0  0  0  0  0  0  0  0  0  0  0  0  # atno 17371 bound_to 10713
  141.2218  133.6959  156.7773 LP  0  0  0  0  0  0  0  0  0  0  0  0  # atno 17394 bound_to 11000
  140.2371  134.8642  157.3535 LP  0  0  0  0  0  0  0  0  0  0  0  0  # atno 17395 bound_to 11000

$$$$
