AV-unprocessed.smi:1406|AV-procd|sdf|5716|dock5
  -GOLD-   22720 5353D 1   1.00000     0.00000
 Structure written by MMmdl.
 41 43  0  0  0  0  0  0  0  0  2 V2000
  149.8047  141.2681  155.7796 C   0  0  0  0  0  0  0  0  0  0  0  0
  149.3461  139.8592  155.3521 C   0  0  1  0  0  0  0  0  0  0  0  0
  148.2827  139.8891  154.2426 C   0  0  0  0  0  0  0  0  0  0  0  0
  148.1897  140.8540  153.4832 O   0  0  0  0  0  0  0  0  0  0  0  0
  147.4750  138.8187  154.1650 N   0  0  0  0  0  0  0  0  0  0  0  0
  146.4238  138.6253  153.1681 C   0  0  1  0  0  0  0  0  0  0  0  0
  146.8608  139.0299  151.7473 C   0  0  0  0  0  0  0  0  0  0  0  0
  146.2479  137.9610  150.8366 C   0  0  0  0  0  0  0  0  0  0  0  0
  146.2954  136.7547  151.6709 N   0  3  2  0  0  0  0  0  0  0  0  0
  145.5657  135.5523  151.2203 C   0  0  0  0  0  0  0  0  0  0  0  0
  145.9302  134.3823  152.1596 C   0  0  0  0  0  0  0  0  0  0  0  0
  145.7209  134.7391  153.6492 C   0  0  0  0  0  0  0  0  0  0  0  0
  146.3990  136.0756  154.0224 C   0  0  0  0  0  0  0  0  0  0  0  0
  145.9320  137.1636  153.0388 C   0  0  1  0  0  0  0  0  0  0  0  0
  150.4665  139.0147  154.9565 N   0  0  0  0  0  0  0  0  0  0  0  0
  150.4733  137.7806  154.4478 C   0  0  0  0  0  0  0  0  0  0  0  0
  151.6833  137.3236  154.1579 N   0  0  0  0  0  0  0  0  0  0  0  0
  152.4307  138.4045  154.5311 C   0  0  0  0  0  0  0  0  0  0  0  0
  151.7510  139.4482  155.0056 N   0  0  0  0  0  0  0  0  0  0  0  0
  148.9619  141.8677  156.1257 H   0  0  0  0  0  0  0  0  0  0  0  0
  150.2824  141.8104  154.9623 H   0  0  0  0  0  0  0  0  0  0  0  0
  150.5214  141.2101  156.5993 H   0  0  0  0  0  0  0  0  0  0  0  0
  148.8868  139.3930  156.2253 H   0  0  0  0  0  0  0  0  0  0  0  0
  147.6177  138.0719  154.8295 H   0  0  0  0  0  0  0  0  0  0  0  0
  145.5684  139.2483  153.4381 H   0  0  0  0  0  0  0  0  0  0  0  0
  146.5429  140.0382  151.4802 H   0  0  0  0  0  0  0  0  0  0  0  0
  147.9482  138.9943  151.6607 H   0  0  0  0  0  0  0  0  0  0  0  0
  145.2112  138.2055  150.5992 H   0  0  0  0  0  0  0  0  0  0  0  0
  146.7984  137.8353  149.9039 H   0  0  0  0  0  0  0  0  0  0  0  0
  144.4908  135.7388  151.2274 H   0  0  0  0  0  0  0  0  0  0  0  0
  145.8473  135.3130  150.1942 H   0  0  0  0  0  0  0  0  0  0  0  0
  145.3454  133.4991  151.9009 H   0  0  0  0  0  0  0  0  0  0  0  0
  146.9756  134.1123  152.0041 H   0  0  0  0  0  0  0  0  0  0  0  0
  144.6516  134.8105  153.8524 H   0  0  0  0  0  0  0  0  0  0  0  0
  146.0994  133.9369  154.2834 H   0  0  0  0  0  0  0  0  0  0  0  0
  146.1386  136.3453  155.0461 H   0  0  0  0  0  0  0  0  0  0  0  0
  147.4841  135.9694  153.9859 H   0  0  0  0  0  0  0  0  0  0  0  0
  144.8416  137.2072  153.0875 H   0  0  0  0  0  0  0  0  0  0  0  0
  149.5741  137.2057  154.2818 H   0  0  0  0  0  0  0  0  0  0  0  0
  153.5070  138.4253  154.4439 H   0  0  0  0  0  0  0  0  0  0  0  0
  147.2712  136.4966  151.7090 H   0  0  0  0  0  0  0  0  0  0  0  0
  1  2  1  0  0  0  0
  1 20  1  0  0  0  0
  1 21  1  0  0  0  0
  1 22  1  0  0  0  0
  2  3  1  0  0  0  0
  2 15  1  0  0  0  0
  2 23  1  0  0  0  0
  3  4  2  0  0  0  0
  3  5  1  0  0  0  0
  5  6  1  0  0  0  0
  5 24  1  0  0  0  0
  6 14  1  0  0  0  0
  6  7  1  0  0  0  0
  6 25  1  0  0  0  0
  7  8  1  0  0  0  0
  7 26  1  0  0  0  0
  7 27  1  0  0  0  0
  8  9  1  0  0  0  0
  8 28  1  0  0  0  0
  8 29  1  0  0  0  0
  9 14  1  0  0  0  0
  9 10  1  0  0  0  0
  9 41  1  0  0  0  0
 10 11  1  0  0  0  0
 10 30  1  0  0  0  0
 10 31  1  0  0  0  0
 11 12  1  0  0  0  0
 11 32  1  0  0  0  0
 11 33  1  0  0  0  0
 12 13  1  0  0  0  0
 12 34  1  0  0  0  0
 12 35  1  0  0  0  0
 13 14  1  0  0  0  0
 13 36  1  0  0  0  0
 13 37  1  0  0  0  0
 14 38  1  0  0  0  0
 15 19  1  0  0  0  0
 15 16  1  0  0  0  0
 16 17  2  0  0  0  0
 16 39  1  0  0  0  0
 17 18  1  0  0  0  0
 18 19  2  0  0  0  0
 18 40  1  0  0  0  0
M  CHG  1   9   1
M  END
> <s_m_source_file>
AV-unprocessed.smi

> <i_m_source_file_index>
1406

> <i_lp_mmshare_version>
43012

> <i_f3d_flags>
0

> <s_epik_input>
bjFbY0hdbltjSF1uMVtDQEhdKFtDSDNdKUMoPU8pW05IXVtDQEhdKFtDSDJdW0NIMl0yKVtDQEBIXShOMjMpW0NIMl1bQ0gyXVtDSDJdW0NIMl0z

> <s_epik_cmdline>
J2VwaWtfcHl0aG9uJywgJy1waCcsICc3LjAnLCAnLXRuJywgJzgnLCAnLW1hJywgJzIwMCcsICctbWV0YWxfYmluZGluZycsICctaW1hZScsICc8aW5maWxlLm1hZT4nLCAnLW9tYWUnLCAnPG91dGZpbGUubWFlPic=

> <r_lp_tautomer_probability>
1

> <r_epik_Ionization_Penalty>
0.00197066

> <r_epik_Ionization_Penalty_Charging>
0.00196223

> <r_epik_Ionization_Penalty_Neutral>
8.43107e-06

> <r_epik_State_Penalty>
0.00133866

> <r_epik_Charging_Adjusted_Penalty>
0.00330089

> <i_epik_Tot_Q>
1

> <i_epik_Tot_abs_Q>
1

> <r_epik_Metal_State_Penalty>
-0

> <b_epik_Metal_Only>
0

> <s_lp_Force_Field>
OPLS_2005

> <r_lp_Energy>
47.4686

> <b_lp_Chiralities_Consistent>
1

> <s_lp_Variant>
AV-unprocessed.smi:1406-8

> <Gold.Version>
5.8.1

> <Gold.Id.Protein>
6NUR|6NUR_protein|mol2

> <Gold.PLP.Fitness>
40.0098

> <Gold.PLP.PLP>
-28.5847

> <Gold.PLP.part.hbond>
-2.8939

> <Gold.PLP.part.metal>
0.0000

> <Gold.PLP.part.buried>
-0.8672

> <Gold.PLP.part.nonpolar>
-28.9537

> <Gold.PLP.part.repulsive>
3.0923

> <Gold.PLP.ligand.clash>
0.0000

> <Gold.PLP.ligand.torsion>
0.9273

> <Gold.PLP.Chemscore.Hbond>
3.7800

> <Gold.PLP.Chemscore.CHOScore>
0.6146

> <Gold.PLP.Chemscore.Metal>
0.0000

> <Gold.Chemscore.Hbonds>
donor molecule, donor type, donor heavy atom, donor atom, acceptor molecule, acceptor atom, score
      L1  H     9    41       P1  7948  2.00
      P1  H  7989  7998       L1    19  0.86
      P1  H 10752 10765       L1    17  0.88
      L1  C    16    39       P1  7948  0.56

> <Gold.PLP.Chemscore.Internal.Correction>
0.0961

> <Gold.Rescore>
     Score         DG    S(hbond)    S(metal)    S(lipo)     H(rot)  DE(clash)    DE(int)     intcor
     10.83     -15.39       2.49        0.00      54.95       1.89       2.15       2.41       ----

> <Gold.Chemscore.Fitness>
10.8297

> <Gold.Chemscore.DG>
-15.3921

> <Gold.Chemscore.ZeroCoef>
-5.4800

> <Gold.Chemscore.Hbond>
2.4888

> <Gold.Chemscore.Metal>
0.0000

> <Gold.Chemscore.Lipo>
54.9480

> <Gold.Chemscore.Internal_Hbond>
0.0000

> <Gold.Chemscore.DEClash>
2.1474

> <Gold.Chemscore.DEInternal>
2.4150

> <Gold.Chemscore.Rot>
1.8865

> <Gold.Chemscore.Internal.Correction>
   9.000000E+99

> <Gold.Chemscore.Hbonds>
donor molecule, donor type, donor heavy atom, donor atom, acceptor molecule, acceptor atom, score
      L1  H     9    41       P1  7948  1.00
      P1  H  7989  7998       L1    19  0.11
      P1  H  8011  8017       L1     4  0.01
      P1  H 10752 10765       L1    17  0.47

> <Gold.Chemscore.Hbond.Weighted>
-8.3127

> <Gold.Chemscore.Metal.Weighted>
-0.0000

> <Gold.Chemscore.Lipo.Weighted>
-6.4289

> <Gold.Chemscore.Internal_Hbond.Weighted>
0.0000

> <Gold.Chemscore.DEClash.Weighted>
2.1474

> <Gold.Chemscore.DEInternal.Weighted>
2.4150

> <Gold.Chemscore.Rot.Weighted>
4.8295

> <Gold.Chemscore.Internal.Correction.Weighted>
   9.000000E+99

> <Gold.Protein.RotatedTorsions>
[ 6907 6896 6895 6894 ] final -131.71 input  -60.11 | X-H torsion
[ 7974 7965 7964 7962 ] final  -25.10 input  175.53 | X-H torsion
[ 8008 7997 7996 7995 ] final   22.26 input   59.86 | X-H torsion
[ 10167 10162 10161 10158 ] final -162.17 input  -65.29 | X-H torsion
[ 10718 10713 10712 10709 ] final  159.01 input   66.30 | X-H torsion
[ 10763 10752 10751 10750 ] final  157.04 input  -60.55 | X-H torsion
[ 11005 11000 10999 10996 ] final   75.52 input  -57.11 | X-H torsion

> <Gold.Protein.ActiveResidues>
 VAL166  LYS551  ARG553  GLY616  TRP617  ASP618  TYR619  PRO620  LYS621  CYS622 
 ASP623  PHE694  ASN695  SER759  ASP760  ASP761  ALA762  ILE779  LEU786  VAL792 
 PHE793  MET794  SER795  GLU796  ALA797  LYS798  CYS799  TRP800  GLU811  SER814 

> <Gold.Protein.RotatedAtoms>
  150.9541  133.6517  159.2766 H   0  0  0  0  0  0  0  0  0  0  0  0  # atno 6907 bound_to 6896
  151.3863  135.0947  159.9521 H   0  0  0  0  0  0  0  0  0  0  0  0  # atno 6908 bound_to 6896
  152.5122  133.9065  159.7521 H   0  0  0  0  0  0  0  0  0  0  0  0  # atno 6909 bound_to 6896
  146.1512  140.4841  142.8610 H   0  0  0  0  0  0  0  0  0  0  0  0  # atno 7974 bound_to 7965
  154.9630  140.3080  155.5022 H   0  0  0  0  0  0  0  0  0  0  0  0  # atno 8008 bound_to 7997
  156.2975  140.2298  156.4656 H   0  0  0  0  0  0  0  0  0  0  0  0  # atno 8009 bound_to 7997
  154.7947  140.0437  157.1216 H   0  0  0  0  0  0  0  0  0  0  0  0  # atno 8010 bound_to 7997
  139.6412  144.0257  152.2093 H   0  0  0  0  0  0  0  0  0  0  0  0  # atno 10167 bound_to 10162
  157.1700  131.0607  151.2188 H   0  0  0  0  0  0  0  0  0  0  0  0  # atno 10718 bound_to 10713
  154.1939  135.2793  155.3013 H   0  0  0  0  0  0  0  0  0  0  0  0  # atno 10763 bound_to 10752
  154.5907  135.5560  153.7279 H   0  0  0  0  0  0  0  0  0  0  0  0  # atno 10764 bound_to 10752
  153.0105  135.6367  154.2078 H   0  0  0  0  0  0  0  0  0  0  0  0  # atno 10765 bound_to 10752
  139.9340  134.7524  156.1281 H   0  0  0  0  0  0  0  0  0  0  0  0  # atno 11005 bound_to 11000
  144.7907  140.6026  143.6543 LP  0  0  0  0  0  0  0  0  0  0  0  0  # atno 17320 bound_to 7965
  145.4817  139.1495  143.3758 LP  0  0  0  0  0  0  0  0  0  0  0  0  # atno 17321 bound_to 7965
  139.9947  144.6336  150.7783 LP  0  0  0  0  0  0  0  0  0  0  0  0  # atno 17342 bound_to 10162
  140.7491  143.2934  151.3270 LP  0  0  0  0  0  0  0  0  0  0  0  0  # atno 17343 bound_to 10162
  157.4052  130.7355  149.6797 LP  0  0  0  0  0  0  0  0  0  0  0  0  # atno 17370 bound_to 10713
  155.9740  130.4110  150.3958 LP  0  0  0  0  0  0  0  0  0  0  0  0  # atno 17371 bound_to 10713
  141.0944  133.6701  156.2612 LP  0  0  0  0  0  0  0  0  0  0  0  0  # atno 17394 bound_to 11000
  140.6126  134.5443  157.5536 LP  0  0  0  0  0  0  0  0  0  0  0  0  # atno 17395 bound_to 11000

$$$$
