AV-unprocessed.smi:3331|AV-procd|sdf|12818|dock4
  -GOLD-   2272019193D 1   1.00000     0.00000
 Structure written by MMmdl.
 47 48  0  0  0  0  0  0  0  0  2 V2000
  153.0014  138.6857  154.5296 C   0  0  0  0  0  0  0  0  0  0  0  0
  151.5947  138.0750  154.4642 C   0  0  2  0  0  0  0  0  0  0  0  0
  150.5067  139.1673  154.3496 C   0  0  0  0  0  0  0  0  0  0  0  0
  149.0760  138.5866  154.4183 C   0  0  2  0  0  0  0  0  0  0  0  0
  148.0168  139.6971  154.4304 C   0  0  0  0  0  0  0  0  0  0  0  0
  148.9468  137.6612  155.6450 C   0  0  0  0  0  0  0  0  0  0  0  0
  149.9622  136.6061  155.5384 N   0  0  0  0  0  0  0  0  0  0  0  0
  149.7416  135.3128  155.1926 C   0  0  0  0  0  0  0  0  0  0  0  0
  150.6608  134.4971  155.0975 O   0  0  0  0  0  0  0  0  0  0  0  0
  148.3064  134.8223  154.9044 C   0  0  2  0  0  0  0  0  0  0  0  0
  147.8788  133.7889  155.9592 C   0  0  0  0  0  0  0  0  0  0  0  0
  148.1910  134.2249  153.5531 N   0  3  0  0  0  0  0  0  0  0  0  0
  146.8435  133.7247  153.2052 C   0  0  0  0  0  0  0  0  0  0  0  0
  146.9310  132.5182  152.2604 C   0  0  0  0  0  0  0  0  0  0  0  0
  145.8353  132.5000  151.3108 N   0  0  0  0  0  0  0  0  0  0  0  0
  145.8758  132.2347  149.9580 C   0  0  0  0  0  0  0  0  0  0  0  0
  144.5978  132.3328  149.4870 C   0  0  0  0  0  0  0  0  0  0  0  0
  143.8357  132.6629  150.6425 C   0  0  0  0  0  0  0  0  0  0  0  0
  144.5794  132.7612  151.7331 N   0  0  0  0  0  0  0  0  0  0  0  0
  151.3135  137.1629  155.6776 C   0  0  0  0  0  0  0  0  0  0  0  0
  153.1215  139.3123  155.4138 H   0  0  0  0  0  0  0  0  0  0  0  0
  153.2022  139.3033  153.6538 H   0  0  0  0  0  0  0  0  0  0  0  0
  153.7649  137.9082  154.5661 H   0  0  0  0  0  0  0  0  0  0  0  0
  151.5468  137.4593  153.5646 H   0  0  0  0  0  0  0  0  0  0  0  0
  150.6380  139.8859  155.1601 H   0  0  0  0  0  0  0  0  0  0  0  0
  150.6377  139.7260  153.4221 H   0  0  0  0  0  0  0  0  0  0  0  0
  148.9109  137.9857  153.5224 H   0  0  0  0  0  0  0  0  0  0  0  0
  148.1225  140.3364  155.3073 H   0  0  0  0  0  0  0  0  0  0  0  0
  147.0098  139.2790  154.4416 H   0  0  0  0  0  0  0  0  0  0  0  0
  148.1014  140.3287  153.5454 H   0  0  0  0  0  0  0  0  0  0  0  0
  149.1189  138.2319  156.5590 H   0  0  0  0  0  0  0  0  0  0  0  0
  147.9310  137.2836  155.7437 H   0  0  0  0  0  0  0  0  0  0  0  0
  147.6066  135.6570  154.9248 H   0  0  0  0  0  0  0  0  0  0  0  0
  147.9435  134.1940  156.9696 H   0  0  0  0  0  0  0  0  0  0  0  0
  148.5048  132.8962  155.9215 H   0  0  0  0  0  0  0  0  0  0  0  0
  146.8464  133.4755  155.8019 H   0  0  0  0  0  0  0  0  0  0  0  0
  148.4734  134.9166  152.8731 H   0  0  0  0  0  0  0  0  0  0  0  0
  146.3197  133.4464  154.1208 H   0  0  0  0  0  0  0  0  0  0  0  0
  146.2644  134.5192  152.7330 H   0  0  0  0  0  0  0  0  0  0  0  0
  147.8703  132.5383  151.7060 H   0  0  0  0  0  0  0  0  0  0  0  0
  146.9148  131.5849  152.8253 H   0  0  0  0  0  0  0  0  0  0  0  0
  146.7990  132.0019  149.4481 H   0  0  0  0  0  0  0  0  0  0  0  0
  144.2585  132.1894  148.4717 H   0  0  0  0  0  0  0  0  0  0  0  0
  142.7720  132.8328  150.7200 H   0  0  0  0  0  0  0  0  0  0  0  0
  152.0813  136.3915  155.7536 H   0  0  0  0  0  0  0  0  0  0  0  0
  151.3797  137.7332  156.6054 H   0  0  0  0  0  0  0  0  0  0  0  0
  148.8278  133.4427  153.5025 H   0  0  0  0  0  0  0  0  0  0  0  0
  1  2  1  0  0  0  0
  1 21  1  0  0  0  0
  1 22  1  0  0  0  0
  1 23  1  0  0  0  0
  2 20  1  0  0  0  0
  2  3  1  0  0  0  0
  2 24  1  0  0  0  0
  3  4  1  0  0  0  0
  3 25  1  0  0  0  0
  3 26  1  0  0  0  0
  4  5  1  0  0  0  0
  4  6  1  0  0  0  0
  4 27  1  0  0  0  0
  5 28  1  0  0  0  0
  5 29  1  0  0  0  0
  5 30  1  0  0  0  0
  6  7  1  0  0  0  0
  6 31  1  0  0  0  0
  6 32  1  0  0  0  0
  7  8  1  0  0  0  0
  7 20  1  0  0  0  0
  8  9  2  0  0  0  0
  8 10  1  0  0  0  0
 10 11  1  0  0  0  0
 10 12  1  0  0  0  0
 10 33  1  0  0  0  0
 11 34  1  0  0  0  0
 11 35  1  0  0  0  0
 11 36  1  0  0  0  0
 12 13  1  0  0  0  0
 12 37  1  0  0  0  0
 12 47  1  0  0  0  0
 13 14  1  0  0  0  0
 13 38  1  0  0  0  0
 13 39  1  0  0  0  0
 14 15  1  0  0  0  0
 14 40  1  0  0  0  0
 14 41  1  0  0  0  0
 15 19  1  0  0  0  0
 15 16  1  0  0  0  0
 16 17  2  0  0  0  0
 16 42  1  0  0  0  0
 17 18  1  0  0  0  0
 17 43  1  0  0  0  0
 18 19  2  0  0  0  0
 18 44  1  0  0  0  0
 20 45  1  0  0  0  0
 20 46  1  0  0  0  0
M  CHG  1  12   1
M  END
> <s_m_source_file>
AV-unprocessed.smi

> <i_m_source_file_index>
3331

> <i_lp_mmshare_version>
43012

> <i_f3d_flags>
0

> <s_epik_input>
W0NIM11bQ0BASF0xW0NIMl1bQ0BASF0oW0NIM10pW0NIMl1OKFtDSDJdMSlDKD1PKVtDQEhdKFtDSDNdKVtOSF1bQ0gyXVtDSDJdbjJbY0hdW2NIXVtjSF1uMg==

> <s_epik_cmdline>
J2VwaWtfcHl0aG9uJywgJy1waCcsICc3LjAnLCAnLXRuJywgJzgnLCAnLW1hJywgJzIwMCcsICctbWV0YWxfYmluZGluZycsICctaW1hZScsICc8aW5maWxlLm1hZT4nLCAnLW9tYWUnLCAnPG91dGZpbGUubWFlPic=

> <r_lp_tautomer_probability>
1

> <r_epik_Ionization_Penalty>
0.189706

> <r_epik_Ionization_Penalty_Charging>
0.189703

> <r_epik_Ionization_Penalty_Neutral>
2.45875e-06

> <r_epik_State_Penalty>
0.179341

> <r_epik_Charging_Adjusted_Penalty>
0.369044

> <i_epik_Tot_Q>
1

> <i_epik_Tot_abs_Q>
1

> <r_epik_Metal_State_Penalty>
0.179578

> <b_epik_Metal_Only>
0

> <s_lp_Force_Field>
OPLS_2005

> <r_lp_Energy>
26.1648

> <b_lp_Chiralities_Consistent>
1

> <s_lp_Variant>
AV-unprocessed.smi:3331-2

> <Gold.Version>
5.8.1

> <Gold.Id.Protein>
6NUR|6NUR_protein|mol2

> <Gold.PLP.Fitness>
45.8836

> <Gold.PLP.PLP>
-35.2019

> <Gold.PLP.part.hbond>
-1.0000

> <Gold.PLP.part.metal>
0.0000

> <Gold.PLP.part.buried>
-5.7137

> <Gold.PLP.part.nonpolar>
-29.6880

> <Gold.PLP.part.repulsive>
0.2155

> <Gold.PLP.ligand.clash>
0.0000

> <Gold.PLP.ligand.torsion>
0.6958

> <Gold.PLP.Chemscore.Hbond>
2.0000

> <Gold.PLP.Chemscore.CHOScore>
2.0000

> <Gold.PLP.Chemscore.Metal>
0.0000

> <Gold.Chemscore.Hbonds>
donor molecule, donor type, donor heavy atom, donor atom, acceptor molecule, acceptor atom, score
      L1  H    12    37       P1  7948  2.00
      L1  C    16    42       P1 10747  0.89
      L1  C    18    44       P1 10186  0.72

> <Gold.PLP.Chemscore.Internal.Correction>
0.0734

> <Gold.Rescore>
     Score         DG    S(hbond)    S(metal)    S(lipo)     H(rot)  DE(clash)    DE(int)     intcor
     13.76     -14.70       0.93        0.00      90.16       1.73       0.11       0.84       ----

> <Gold.Chemscore.Fitness>
13.7556

> <Gold.Chemscore.DG>
-14.7024

> <Gold.Chemscore.ZeroCoef>
-5.4800

> <Gold.Chemscore.Hbond>
0.9252

> <Gold.Chemscore.Metal>
0.0000

> <Gold.Chemscore.Lipo>
90.1647

> <Gold.Chemscore.Internal_Hbond>
0.0000

> <Gold.Chemscore.DEClash>
0.1053

> <Gold.Chemscore.DEInternal>
0.8414

> <Gold.Chemscore.Rot>
1.7254

> <Gold.Chemscore.Internal.Correction>
   9.000000E+99

> <Gold.Chemscore.Hbonds>
donor molecule, donor type, donor heavy atom, donor atom, acceptor molecule, acceptor atom, score
      L1  H    12    37       P1  7948  0.55

> <Gold.Chemscore.Hbond.Weighted>
-3.0901

> <Gold.Chemscore.Metal.Weighted>
-0.0000

> <Gold.Chemscore.Lipo.Weighted>
-10.5493

> <Gold.Chemscore.Internal_Hbond.Weighted>
0.0000

> <Gold.Chemscore.DEClash.Weighted>
0.1053

> <Gold.Chemscore.DEInternal.Weighted>
0.8414

> <Gold.Chemscore.Rot.Weighted>
4.4170

> <Gold.Chemscore.Internal.Correction.Weighted>
   9.000000E+99

> <Gold.Protein.RotatedTorsions>
[ 6907 6896 6895 6894 ] final  -54.35 input  -60.11 | X-H torsion
[ 7974 7965 7964 7962 ] final -158.46 input  175.53 | X-H torsion
[ 8008 7997 7996 7995 ] final  -94.52 input   59.86 | X-H torsion
[ 10167 10162 10161 10158 ] final  -44.89 input  -65.29 | X-H torsion
[ 10718 10713 10712 10709 ] final -160.93 input   66.30 | X-H torsion
[ 10763 10752 10751 10750 ] final   36.02 input  -60.55 | X-H torsion
[ 11005 11000 10999 10996 ] final -143.83 input  -57.11 | X-H torsion

> <Gold.Protein.ActiveResidues>
 VAL166  LYS551  ARG553  GLY616  TRP617  ASP618  TYR619  PRO620  LYS621  CYS622 
 ASP623  PHE694  ASN695  SER759  ASP760  ASP761  ALA762  ILE779  LEU786  VAL792 
 PHE793  MET794  SER795  GLU796  ALA797  LYS798  CYS799  TRP800  GLU811  SER814 

> <Gold.Protein.RotatedAtoms>
  150.8345  134.7613  159.6881 H   0  0  0  0  0  0  0  0  0  0  0  0  # atno 6907 bound_to 6896
  152.4444  134.5521  159.9879 H   0  0  0  0  0  0  0  0  0  0  0  0  # atno 6908 bound_to 6896
  151.5674  133.3357  159.3018 H   0  0  0  0  0  0  0  0  0  0  0  0  # atno 6909 bound_to 6896
  144.7504  140.3824  143.6052 H   0  0  0  0  0  0  0  0  0  0  0  0  # atno 7974 bound_to 7965
  154.7494  140.0488  157.0880 H   0  0  0  0  0  0  0  0  0  0  0  0  # atno 8008 bound_to 7997
  155.0076  140.3132  155.4823 H   0  0  0  0  0  0  0  0  0  0  0  0  # atno 8009 bound_to 7997
  156.2882  140.2190  156.5189 H   0  0  0  0  0  0  0  0  0  0  0  0  # atno 8010 bound_to 7997
  140.6879  143.2907  151.3560 H   0  0  0  0  0  0  0  0  0  0  0  0  # atno 10167 bound_to 10162
  156.5891  130.8762  151.2885 H   0  0  0  0  0  0  0  0  0  0  0  0  # atno 10718 bound_to 10713
  153.0094  135.6317  154.1919 H   0  0  0  0  0  0  0  0  0  0  0  0  # atno 10763 bound_to 10752
  154.1661  135.2821  155.3096 H   0  0  0  0  0  0  0  0  0  0  0  0  # atno 10764 bound_to 10752
  154.5944  135.5607  153.7371 H   0  0  0  0  0  0  0  0  0  0  0  0  # atno 10765 bound_to 10752
  140.8086  134.2772  157.4950 H   0  0  0  0  0  0  0  0  0  0  0  0  # atno 11005 bound_to 11000
  145.6964  139.1651  143.2618 LP  0  0  0  0  0  0  0  0  0  0  0  0  # atno 17320 bound_to 7965
  146.1447  140.7009  142.9350 LP  0  0  0  0  0  0  0  0  0  0  0  0  # atno 17321 bound_to 7965
  139.6254  144.0824  152.2430 LP  0  0  0  0  0  0  0  0  0  0  0  0  # atno 17342 bound_to 10162
  140.0281  144.6101  150.7510 LP  0  0  0  0  0  0  0  0  0  0  0  0  # atno 17343 bound_to 10162
  157.7308  130.9691  150.1850 LP  0  0  0  0  0  0  0  0  0  0  0  0  # atno 17370 bound_to 10713
  156.2565  130.3706  149.8176 LP  0  0  0  0  0  0  0  0  0  0  0  0  # atno 17371 bound_to 10713
  139.8716  134.9470  156.3955 LP  0  0  0  0  0  0  0  0  0  0  0  0  # atno 17394 bound_to 11000
  140.9221  133.7637  155.9919 LP  0  0  0  0  0  0  0  0  0  0  0  0  # atno 17395 bound_to 11000

$$$$
