AV-unprocessed.smi:3279|AV-procd|sdf|12548|dock3
  -GOLD-   2272018463D 1   1.00000     0.00000
 Structure written by MMmdl.
 35 35  0  0  0  0  0  0  0  0  2 V2000
  144.3300  146.7702  159.1678 C   0  0  0  0  0  0  0  0  0  0  0  0
  145.7742  147.2137  159.4472 C   0  0  2  0  0  0  0  0  0  0  0  0
  146.5149  146.2563  160.4078 C   0  0  0  0  0  0  0  0  0  0  0  0
  147.7136  145.6823  159.8047 N   0  0  0  0  0  0  0  0  0  0  0  0
  148.4454  144.6901  160.3335 C   0  0  0  0  0  0  0  0  0  0  0  0
  148.2150  144.1869  161.4330 O   0  0  0  0  0  0  0  0  0  0  0  0
  149.5948  144.1654  159.4767 C   0  0  0  0  0  0  0  0  0  0  0  0
  150.6532  143.7495  160.3359 O   0  0  0  0  0  0  0  0  0  0  0  0
  151.8985  143.3800  159.7384 C   0  0  0  0  0  0  0  0  0  0  0  0
  151.7490  142.1348  158.8413 C   0  0  0  0  0  0  0  0  0  0  0  0
  152.8113  143.0469  160.9293 C   0  0  0  0  0  0  0  0  0  0  0  0
  152.4908  144.5661  158.9520 C   0  0  0  0  0  0  0  0  0  0  0  0
  145.8373  148.6465  159.9006 C   0  0  0  0  0  0  0  0  0  0  0  0
  144.7465  149.4138  160.0494 N   0  0  0  0  0  0  0  0  0  0  0  0
  145.2447  150.5960  160.4357 N   0  0  0  0  0  0  0  0  0  0  0  0
  146.5788  150.5221  160.5109 N   0  0  0  0  0  0  0  0  0  0  0  0
  146.9836  149.2902  160.1747 N   0  5  0  0  0  0  0  0  0  0  0  0
  143.8625  147.4115  158.4200 H   0  0  0  0  0  0  0  0  0  0  0  0
  143.7195  146.8095  160.0704 H   0  0  0  0  0  0  0  0  0  0  0  0
  144.3000  145.7477  158.7910 H   0  0  0  0  0  0  0  0  0  0  0  0
  146.2876  147.1232  158.4884 H   0  0  0  0  0  0  0  0  0  0  0  0
  146.8275  146.8000  161.3000 H   0  0  0  0  0  0  0  0  0  0  0  0
  145.8480  145.4640  160.7514 H   0  0  0  0  0  0  0  0  0  0  0  0
  147.9733  146.0262  158.8911 H   0  0  0  0  0  0  0  0  0  0  0  0
  149.2354  143.3347  158.8689 H   0  0  0  0  0  0  0  0  0  0  0  0
  149.9056  144.9650  158.8054 H   0  0  0  0  0  0  0  0  0  0  0  0
  152.7221  141.7790  158.5015 H   0  0  0  0  0  0  0  0  0  0  0  0
  151.1577  142.3425  157.9494 H   0  0  0  0  0  0  0  0  0  0  0  0
  151.2680  141.3170  159.3789 H   0  0  0  0  0  0  0  0  0  0  0  0
  152.4049  142.2249  161.5198 H   0  0  0  0  0  0  0  0  0  0  0  0
  152.9233  143.9047  161.5934 H   0  0  0  0  0  0  0  0  0  0  0  0
  153.8080  142.7538  160.5972 H   0  0  0  0  0  0  0  0  0  0  0  0
  153.5070  144.3479  158.6220 H   0  0  0  0  0  0  0  0  0  0  0  0
  152.5302  145.4661  159.5669 H   0  0  0  0  0  0  0  0  0  0  0  0
  151.9117  144.7991  158.0589 H   0  0  0  0  0  0  0  0  0  0  0  0
  1  2  1  0  0  0  0
  1 18  1  0  0  0  0
  1 19  1  0  0  0  0
  1 20  1  0  0  0  0
  2  3  1  0  0  0  0
  2 13  1  0  0  0  0
  2 21  1  0  0  0  0
  3  4  1  0  0  0  0
  3 22  1  0  0  0  0
  3 23  1  0  0  0  0
  4  5  1  0  0  0  0
  4 24  1  0  0  0  0
  5  6  2  0  0  0  0
  5  7  1  0  0  0  0
  7  8  1  0  0  0  0
  7 25  1  0  0  0  0
  7 26  1  0  0  0  0
  8  9  1  0  0  0  0
  9 10  1  0  0  0  0
  9 11  1  0  0  0  0
  9 12  1  0  0  0  0
 10 27  1  0  0  0  0
 10 28  1  0  0  0  0
 10 29  1  0  0  0  0
 11 30  1  0  0  0  0
 11 31  1  0  0  0  0
 11 32  1  0  0  0  0
 12 33  1  0  0  0  0
 12 34  1  0  0  0  0
 12 35  1  0  0  0  0
 13 17  1  0  0  0  0
 13 14  2  0  0  0  0
 14 15  1  0  0  0  0
 15 16  2  0  0  0  0
 16 17  1  0  0  0  0
M  CHG  1  17  -1
M  END
> <s_m_source_file>
AV-unprocessed.smi

> <i_m_source_file_index>
3279

> <i_lp_mmshare_version>
43012

> <i_f3d_flags>
0

> <s_epik_input>
W25IXTFubm5jMVtDQEhdKFtDSDNdKVtDSDJdW05IXUMoPU8pW0NIMl1PQyhbQ0gzXSkoW0NIM10pW0NIM10=

> <s_epik_cmdline>
J2VwaWtfcHl0aG9uJywgJy1waCcsICc3LjAnLCAnLXRuJywgJzgnLCAnLW1hJywgJzIwMCcsICctbWV0YWxfYmluZGluZycsICctaW1hZScsICc8aW5maWxlLm1hZT4nLCAnLW9tYWUnLCAnPG91dGZpbGUubWFlPic=

> <r_epik_Ionization_Penalty>
0.054353

> <r_epik_Ionization_Penalty_Charging>
0.054353

> <r_epik_Ionization_Penalty_Neutral>
3.0997e-08

> <r_epik_State_Penalty>
0.0139445

> <r_epik_Charging_Adjusted_Penalty>
0.0682975

> <i_epik_Tot_Q>
-1

> <i_epik_Tot_abs_Q>
1

> <r_epik_Metal_State_Penalty>
0.0109703

> <b_epik_Metal_Only>
0

> <s_lp_Force_Field>
OPLS_2005

> <r_lp_Energy>
-0.4509

> <b_lp_Chiralities_Consistent>
1

> <s_lp_Variant>
AV-unprocessed.smi:3279-1

> <Gold.Version>
5.8.1

> <Gold.Id.Protein>
6NUR|6NUR_protein|mol2

> <Gold.PLP.Fitness>
42.1002

> <Gold.PLP.PLP>
-38.4499

> <Gold.PLP.part.hbond>
-8.1059

> <Gold.PLP.part.metal>
0.0000

> <Gold.PLP.part.buried>
-7.5728

> <Gold.PLP.part.nonpolar>
-23.7184

> <Gold.PLP.part.repulsive>
0.7587

> <Gold.PLP.ligand.clash>
0.0000

> <Gold.PLP.ligand.torsion>
1.2041

> <Gold.PLP.Chemscore.Hbond>
1.9760

> <Gold.PLP.Chemscore.CHOScore>
0.0000

> <Gold.PLP.Chemscore.Metal>
0.0000

> <Gold.Chemscore.Hbonds>
donor molecule, donor type, donor heavy atom, donor atom, acceptor molecule, acceptor atom, score
      L1  H     4    24       P1  8029  1.00
      P1  H  6933  6944       L1     6  0.98

> <Gold.PLP.Chemscore.Internal.Correction>
0.1304

> <Gold.Rescore>
     Score         DG    S(hbond)    S(metal)    S(lipo)     H(rot)  DE(clash)    DE(int)     intcor
      7.27     -12.88       1.80        0.00      69.74       2.64       4.32       1.29       ----

> <Gold.Chemscore.Fitness>
7.2699

> <Gold.Chemscore.DG>
-12.8758

> <Gold.Chemscore.ZeroCoef>
-5.4800

> <Gold.Chemscore.Hbond>
1.7957

> <Gold.Chemscore.Metal>
0.0000

> <Gold.Chemscore.Lipo>
69.7353

> <Gold.Chemscore.Internal_Hbond>
0.0000

> <Gold.Chemscore.DEClash>
4.3182

> <Gold.Chemscore.DEInternal>
1.2878

> <Gold.Chemscore.Rot>
2.6409

> <Gold.Chemscore.Internal.Correction>
   9.000000E+99

> <Gold.Chemscore.Hbonds>
donor molecule, donor type, donor heavy atom, donor atom, acceptor molecule, acceptor atom, score
      L1  H     4    24       P1  8029  0.95
      P1  H  6933  6944       L1     6  0.80

> <Gold.Chemscore.Hbond.Weighted>
-5.9975

> <Gold.Chemscore.Metal.Weighted>
-0.0000

> <Gold.Chemscore.Lipo.Weighted>
-8.1590

> <Gold.Chemscore.Internal_Hbond.Weighted>
0.0000

> <Gold.Chemscore.DEClash.Weighted>
4.3182

> <Gold.Chemscore.DEInternal.Weighted>
1.2878

> <Gold.Chemscore.Rot.Weighted>
6.7607

> <Gold.Chemscore.Internal.Correction.Weighted>
   9.000000E+99

> <Gold.Protein.RotatedTorsions>
[ 6907 6896 6895 6894 ] final -149.16 input  -60.11 | X-H torsion
[ 7974 7965 7964 7962 ] final   79.86 input  175.53 | X-H torsion
[ 8008 7997 7996 7995 ] final  -15.13 input   59.86 | X-H torsion
[ 10167 10162 10161 10158 ] final  109.64 input  -65.29 | X-H torsion
[ 10718 10713 10712 10709 ] final    3.83 input   66.30 | X-H torsion
[ 10763 10752 10751 10750 ] final  -52.35 input  -60.55 | X-H torsion
[ 11005 11000 10999 10996 ] final   75.66 input  -57.11 | X-H torsion

> <Gold.Protein.ActiveResidues>
 VAL166  LYS551  ARG553  GLY616  TRP617  ASP618  TYR619  PRO620  LYS621  CYS622 
 ASP623  PHE694  ASN695  SER759  ASP760  ASP761  ALA762  ILE779  LEU786  VAL792 
 PHE793  MET794  SER795  GLU796  ALA797  LYS798  CYS799  TRP800  GLU811  SER814 

> <Gold.Protein.RotatedAtoms>
  151.1801  133.4730  159.2593 H   0  0  0  0  0  0  0  0  0  0  0  0  # atno 6907 bound_to 6896
  151.1268  135.0109  159.8574 H   0  0  0  0  0  0  0  0  0  0  0  0  # atno 6908 bound_to 6896
  152.5458  134.1707  159.8649 H   0  0  0  0  0  0  0  0  0  0  0  0  # atno 6909 bound_to 6896
  145.6587  139.2466  143.1935 H   0  0  0  0  0  0  0  0  0  0  0  0  # atno 7974 bound_to 7965
  154.5154  140.2204  155.9075 H   0  0  0  0  0  0  0  0  0  0  0  0  # atno 8008 bound_to 7997
  156.1602  140.3144  155.8759 H   0  0  0  0  0  0  0  0  0  0  0  0  # atno 8009 bound_to 7997
  155.3767  140.0470  157.3035 H   0  0  0  0  0  0  0  0  0  0  0  0  # atno 8010 bound_to 7997
  139.6751  144.7123  151.1617 H   0  0  0  0  0  0  0  0  0  0  0  0  # atno 10167 bound_to 10162
  156.8836  130.5662  149.5652 H   0  0  0  0  0  0  0  0  0  0  0  0  # atno 10718 bound_to 10713
  154.1413  135.6504  153.4943 H   0  0  0  0  0  0  0  0  0  0  0  0  # atno 10763 bound_to 10752
  153.0165  135.5316  154.6902 H   0  0  0  0  0  0  0  0  0  0  0  0  # atno 10764 bound_to 10752
  154.6164  135.2959  155.0346 H   0  0  0  0  0  0  0  0  0  0  0  0  # atno 10765 bound_to 10752
  139.9333  134.7536  156.1299 H   0  0  0  0  0  0  0  0  0  0  0  0  # atno 11005 bound_to 11000
  146.1143  140.7389  142.9488 LP  0  0  0  0  0  0  0  0  0  0  0  0  # atno 17320 bound_to 7965
  144.7097  140.3990  143.7090 LP  0  0  0  0  0  0  0  0  0  0  0  0  # atno 17321 bound_to 7965
  140.7632  143.5784  150.8920 LP  0  0  0  0  0  0  0  0  0  0  0  0  # atno 17342 bound_to 10162
  139.9453  143.6335  152.3043 LP  0  0  0  0  0  0  0  0  0  0  0  0  # atno 17343 bound_to 10162
  156.0664  130.5707  150.9298 LP  0  0  0  0  0  0  0  0  0  0  0  0  # atno 17370 bound_to 10713
  157.6126  131.0935  150.8768 LP  0  0  0  0  0  0  0  0  0  0  0  0  # atno 17371 bound_to 10713
  141.0934  133.6705  156.2591 LP  0  0  0  0  0  0  0  0  0  0  0  0  # atno 17394 bound_to 11000
  140.6142  134.5427  157.5538 LP  0  0  0  0  0  0  0  0  0  0  0  0  # atno 17395 bound_to 11000

$$$$
