AV-unprocessed.smi:1901|AV-procd|sdf|7719|dock4
  -GOLD-   22720 9463D 1   1.00000     0.00000
 Structure written by MMmdl.
 27 28  0  0  0  0  0  0  0  0  2 V2000
  150.9961  140.4738  155.7281 O   0  0  0  0  0  0  0  0  0  0  0  0
  150.4472  141.5708  155.5991 C   0  0  0  0  0  0  0  0  0  0  0  0
  150.6726  142.5380  156.4981 N   0  0  0  0  0  0  0  0  0  0  0  0
  151.5387  142.4134  157.6640 C   0  0  0  0  0  0  0  0  0  0  0  0
  151.2274  143.5028  158.7033 C   0  0  1  0  0  0  0  0  0  0  0  0
  152.1142  143.4517  159.9300 C   0  0  0  0  0  0  0  0  0  0  0  0
  151.9190  144.8468  160.5146 C   0  0  0  0  0  0  0  0  0  0  0  0
  151.7119  145.7071  159.3982 O   0  0  0  0  0  0  0  0  0  0  0  0
  151.4679  144.9361  158.2242 C   0  0  0  0  0  0  0  0  0  0  0  0
  149.5999  141.9327  154.6087 N   0  5  0  0  0  0  0  0  0  0  0  0
  148.7233  141.0418  154.1169 C   0  0  0  0  0  0  0  0  0  0  0  0
  148.9097  139.7186  154.1858 N   0  0  0  0  0  0  0  0  0  0  0  0
  147.8754  138.9812  153.6067 C   0  0  0  0  0  0  0  0  0  0  0  0
  146.8831  139.7613  153.0748 C   0  0  0  0  0  0  0  0  0  0  0  0
  147.2197  141.4556  153.2886 S   0  0  0  0  0  0  0  0  0  0  0  0
  150.2062  143.4225  156.3604 H   0  0  0  0  0  0  0  0  0  0  0  0
  151.3997  141.4280  158.1111 H   0  0  0  0  0  0  0  0  0  0  0  0
  152.5808  142.4775  157.3467 H   0  0  0  0  0  0  0  0  0  0  0  0
  150.1886  143.4104  159.0256 H   0  0  0  0  0  0  0  0  0  0  0  0
  151.8393  142.6579  160.6252 H   0  0  0  0  0  0  0  0  0  0  0  0
  153.1570  143.3093  159.6420 H   0  0  0  0  0  0  0  0  0  0  0  0
  151.0281  144.8735  161.1433 H   0  0  0  0  0  0  0  0  0  0  0  0
  152.7686  145.1702  161.1165 H   0  0  0  0  0  0  0  0  0  0  0  0
  152.3538  144.9896  157.5897 H   0  0  0  0  0  0  0  0  0  0  0  0
  150.6245  145.3321  157.6581 H   0  0  0  0  0  0  0  0  0  0  0  0
  147.9288  137.9028  153.6160 H   0  0  0  0  0  0  0  0  0  0  0  0
  145.9809  139.4459  152.5731 H   0  0  0  0  0  0  0  0  0  0  0  0
  1  2  2  0  0  0  0
  2  3  1  0  0  0  0
  2 10  1  0  0  0  0
  3  4  1  0  0  0  0
  3 16  1  0  0  0  0
  4  5  1  0  0  0  0
  4 17  1  0  0  0  0
  4 18  1  0  0  0  0
  5  9  1  0  0  0  0
  5  6  1  0  0  0  0
  5 19  1  0  0  0  0
  6  7  1  0  0  0  0
  6 20  1  0  0  0  0
  6 21  1  0  0  0  0
  7  8  1  0  0  0  0
  7 22  1  0  0  0  0
  7 23  1  0  0  0  0
  8  9  1  0  0  0  0
  9 24  1  0  0  0  0
  9 25  1  0  0  0  0
 10 11  1  0  0  0  0
 11 15  1  0  0  0  0
 11 12  2  0  0  0  0
 12 13  1  0  0  0  0
 13 14  2  0  0  0  0
 13 26  1  0  0  0  0
 14 15  1  0  0  0  0
 14 27  1  0  0  0  0
M  CHG  1  10  -1
M  END
> <s_m_source_file>
AV-unprocessed.smi

> <i_m_source_file_index>
1901

> <i_lp_mmshare_version>
43012

> <i_f3d_flags>
0

> <s_epik_input>
czFbY0hdW2NIXW5jMVtOSF1DKD1PKVtOSF1bQ0gyXVtDQEBIXTJbQ0gyXVtDSDJdT1tDSDJdMg==

> <s_epik_cmdline>
J2VwaWtfcHl0aG9uJywgJy1waCcsICc3LjAnLCAnLXRuJywgJzgnLCAnLW1hJywgJzIwMCcsICctbWV0YWxfYmluZGluZycsICctaW1hZScsICc8aW5maWxlLm1hZT4nLCAnLW9tYWUnLCAnPG91dGZpbGUubWFlPic=

> <r_lp_tautomer_probability>
0.999

> <r_epik_Ionization_Penalty>
8.4411

> <r_epik_Ionization_Penalty_Charging>
6.72681

> <r_epik_Ionization_Penalty_Neutral>
1.71429

> <r_epik_State_Penalty>
6.72698

> <r_epik_Charging_Adjusted_Penalty>
13.4538

> <i_epik_Tot_Q>
-1

> <i_epik_Tot_abs_Q>
1

> <r_epik_Metal_State_Penalty>
2.64812

> <b_epik_Metal_Only>
1

> <s_lp_Force_Field>
OPLS_2005

> <r_lp_Energy>
14.3262

> <b_lp_Chiralities_Consistent>
1

> <s_lp_Variant>
AV-unprocessed.smi:1901-4

> <Gold.Version>
5.8.1

> <Gold.Id.Protein>
6NUR|6NUR_protein|mol2

> <Gold.PLP.Fitness>
40.1651

> <Gold.PLP.PLP>
-31.2628

> <Gold.PLP.part.hbond>
-3.9917

> <Gold.PLP.part.metal>
0.0000

> <Gold.PLP.part.buried>
-4.8339

> <Gold.PLP.part.nonpolar>
-23.2378

> <Gold.PLP.part.repulsive>
2.2012

> <Gold.PLP.ligand.clash>
0.0000

> <Gold.PLP.ligand.torsion>
0.5200

> <Gold.PLP.Chemscore.Hbond>
1.3132

> <Gold.PLP.Chemscore.CHOScore>
1.9988

> <Gold.PLP.Chemscore.Metal>
0.0000

> <Gold.Chemscore.Hbonds>
donor molecule, donor type, donor heavy atom, donor atom, acceptor molecule, acceptor atom, score
      L1  H     3    16       P1  8028  1.00
      P1  H  7989  7998       L1     1  0.02
      L1  C    13    26       P1  7948  0.77
      L1  C    14    27       P1 10175  1.00

> <Gold.PLP.Chemscore.Internal.Correction>
0.0063

> <Gold.Rescore>
     Score         DG    S(hbond)    S(metal)    S(lipo)     H(rot)  DE(clash)    DE(int)     intcor
     11.80     -14.17       0.97        0.00      75.10       1.30       0.34       2.02       ----

> <Gold.Chemscore.Fitness>
11.8042

> <Gold.Chemscore.DG>
-14.1722

> <Gold.Chemscore.ZeroCoef>
-5.4800

> <Gold.Chemscore.Hbond>
0.9680

> <Gold.Chemscore.Metal>
0.0000

> <Gold.Chemscore.Lipo>
75.1032

> <Gold.Chemscore.Internal_Hbond>
0.0000

> <Gold.Chemscore.DEClash>
0.3431

> <Gold.Chemscore.DEInternal>
2.0249

> <Gold.Chemscore.Rot>
1.3000

> <Gold.Chemscore.Internal.Correction>
   9.000000E+99

> <Gold.Chemscore.Hbonds>
donor molecule, donor type, donor heavy atom, donor atom, acceptor molecule, acceptor atom, score
      L1  H     3    16       P1  8028  0.97

> <Gold.Chemscore.Hbond.Weighted>
-3.2331

> <Gold.Chemscore.Metal.Weighted>
-0.0000

> <Gold.Chemscore.Lipo.Weighted>
-8.7871

> <Gold.Chemscore.Internal_Hbond.Weighted>
0.0000

> <Gold.Chemscore.DEClash.Weighted>
0.3431

> <Gold.Chemscore.DEInternal.Weighted>
2.0249

> <Gold.Chemscore.Rot.Weighted>
3.3280

> <Gold.Chemscore.Internal.Correction.Weighted>
   9.000000E+99

> <Gold.Protein.RotatedTorsions>
[ 6907 6896 6895 6894 ] final   39.21 input  -60.11 | X-H torsion
[ 7974 7965 7964 7962 ] final -158.74 input  175.53 | X-H torsion
[ 8008 7997 7996 7995 ] final   89.59 input   59.86 | X-H torsion
[ 10167 10162 10161 10158 ] final   94.55 input  -65.29 | X-H torsion
[ 10718 10713 10712 10709 ] final  -60.19 input   66.30 | X-H torsion
[ 10763 10752 10751 10750 ] final  -21.09 input  -60.55 | X-H torsion
[ 11005 11000 10999 10996 ] final    2.14 input  -57.11 | X-H torsion

> <Gold.Protein.ActiveResidues>
 VAL166  LYS551  ARG553  GLY616  TRP617  ASP618  TYR619  PRO620  LYS621  CYS622 
 ASP623  PHE694  ASN695  SER759  ASP760  ASP761  ALA762  ILE779  LEU786  VAL792 
 PHE793  MET794  SER795  GLU796  ALA797  LYS798  CYS799  TRP800  GLU811  SER814 

> <Gold.Protein.RotatedAtoms>
  152.1665  134.8869  160.0537 H   0  0  0  0  0  0  0  0  0  0  0  0  # atno 6907 bound_to 6896
  151.9845  133.3764  159.4128 H   0  0  0  0  0  0  0  0  0  0  0  0  # atno 6908 bound_to 6896
  150.6895  134.3926  159.5127 H   0  0  0  0  0  0  0  0  0  0  0  0  # atno 6909 bound_to 6896
  144.7493  140.3784  143.6060 H   0  0  0  0  0  0  0  0  0  0  0  0  # atno 7974 bound_to 7965
  156.0017  140.3359  155.6852 H   0  0  0  0  0  0  0  0  0  0  0  0  # atno 8008 bound_to 7997
  155.6280  140.0682  157.2675 H   0  0  0  0  0  0  0  0  0  0  0  0  # atno 8009 bound_to 7997
  154.4251  140.1764  156.1430 H   0  0  0  0  0  0  0  0  0  0  0  0  # atno 8010 bound_to 7997
  139.8073  144.6788  150.9686 H   0  0  0  0  0  0  0  0  0  0  0  0  # atno 10167 bound_to 10162
  156.1008  130.4186  150.0820 H   0  0  0  0  0  0  0  0  0  0  0  0  # atno 10718 bound_to 10713
  153.6306  135.6989  153.5277 H   0  0  0  0  0  0  0  0  0  0  0  0  # atno 10763 bound_to 10752
  153.2862  135.4170  155.1124 H   0  0  0  0  0  0  0  0  0  0  0  0  # atno 10764 bound_to 10752
  154.8523  135.3614  154.5849 H   0  0  0  0  0  0  0  0  0  0  0  0  # atno 10765 bound_to 10752
  140.6076  133.9778  155.8162 H   0  0  0  0  0  0  0  0  0  0  0  0  # atno 11005 bound_to 11000
  145.7004  139.1660  143.2596 LP  0  0  0  0  0  0  0  0  0  0  0  0  # atno 17320 bound_to 7965
  146.1420  140.7045  142.9362 LP  0  0  0  0  0  0  0  0  0  0  0  0  # atno 17321 bound_to 7965
  140.7819  143.4221  151.0826 LP  0  0  0  0  0  0  0  0  0  0  0  0  # atno 17342 bound_to 10162
  139.7889  143.8247  152.3149 LP  0  0  0  0  0  0  0  0  0  0  0  0  # atno 17343 bound_to 10162
  156.8808  130.9556  151.3599 LP  0  0  0  0  0  0  0  0  0  0  0  0  # atno 17370 bound_to 10713
  157.6177  130.8631  149.9056 LP  0  0  0  0  0  0  0  0  0  0  0  0  # atno 17371 bound_to 10713
  141.0830  134.0034  157.3357 LP  0  0  0  0  0  0  0  0  0  0  0  0  # atno 17394 bound_to 11000
  139.9205  135.0200  156.8047 LP  0  0  0  0  0  0  0  0  0  0  0  0  # atno 17395 bound_to 11000

$$$$
