AV-unprocessed.smi:35|AV-procd|sdf|274|dock6
  -GOLD-   2262016 43D 1   1.00000     0.00000
 Structure written by MMmdl.
 28 29  0  0  0  0  0  0  0  0  2 V2000
  153.0370  139.0845  156.9167 O   0  0  0  0  0  0  0  0  0  0  0  0
  152.0705  139.6285  156.3854 C   0  0  0  0  0  0  0  0  0  0  0  0
  151.3886  140.6580  156.9642 N   0  5  0  0  0  0  0  0  0  0  0  0
  150.3087  141.2511  156.3750 C   0  0  0  0  0  0  0  0  0  0  0  0
  149.7099  142.2015  156.8781 O   0  0  0  0  0  0  0  0  0  0  0  0
  149.8478  140.7614  155.1201 N   0  0  0  0  0  0  0  0  0  0  0  0
  148.6547  141.4403  154.4646 C   0  0  1  0  0  0  0  0  0  0  0  0
  148.3620  140.8258  153.2452 O   0  0  0  0  0  0  0  0  0  0  0  0
  147.3710  139.8259  153.4394 C   0  0  2  0  0  0  0  0  0  0  0  0
  146.6999  139.5099  152.0935 C   0  0  0  0  0  0  0  0  0  0  0  0
  147.4105  138.5008  151.4074 O   0  0  0  0  0  0  0  0  0  0  0  0
  146.4467  140.4505  154.4881 C   0  0  1  0  0  0  0  0  0  0  0  0
  145.8569  139.4375  155.2787 O   0  0  0  0  0  0  0  0  0  0  0  0
  147.3812  141.3175  155.3330 C   0  0  2  0  0  0  0  0  0  0  0  0
  146.7913  142.5813  155.5638 O   0  0  0  0  0  0  0  0  0  0  0  0
  150.5491  139.7433  154.4915 C   0  0  0  0  0  0  0  0  0  0  0  0
  151.6212  139.1699  155.0745 C   0  0  0  0  0  0  0  0  0  0  0  0
  152.5200  137.7253  154.0584 Br  0  0  0  0  0  0  0  0  0  0  0  0
  148.9863  142.4658  154.2906 H   0  0  0  0  0  0  0  0  0  0  0  0
  147.8524  138.9325  153.8406 H   0  0  0  0  0  0  0  0  0  0  0  0
  145.6651  139.1973  152.2356 H   0  0  0  0  0  0  0  0  0  0  0  0
  146.6833  140.4022  151.4672 H   0  0  0  0  0  0  0  0  0  0  0  0
  147.9066  138.0014  152.0381 H   0  0  0  0  0  0  0  0  0  0  0  0
  145.6753  141.0532  154.0057 H   0  0  0  0  0  0  0  0  0  0  0  0
  144.9442  139.6503  155.4021 H   0  0  0  0  0  0  0  0  0  0  0  0
  147.6171  140.8437  156.2874 H   0  0  0  0  0  0  0  0  0  0  0  0
  147.4630  143.2416  155.4946 H   0  0  0  0  0  0  0  0  0  0  0  0
  150.2555  139.3922  153.5149 H   0  0  0  0  0  0  0  0  0  0  0  0
  1  2  2  0  0  0  0
  2 17  1  0  0  0  0
  2  3  1  0  0  0  0
  3  4  1  0  0  0  0
  4  5  2  0  0  0  0
  4  6  1  0  0  0  0
  6  7  1  0  0  0  0
  6 16  1  0  0  0  0
  7 14  1  0  0  0  0
  7  8  1  0  0  0  0
  7 19  1  0  0  0  0
  8  9  1  0  0  0  0
  9 10  1  0  0  0  0
  9 12  1  0  0  0  0
  9 20  1  0  0  0  0
 10 11  1  0  0  0  0
 10 21  1  0  0  0  0
 10 22  1  0  0  0  0
 11 23  1  0  0  0  0
 12 13  1  0  0  0  0
 12 14  1  0  0  0  0
 12 24  1  0  0  0  0
 13 25  1  0  0  0  0
 14 15  1  0  0  0  0
 14 26  1  0  0  0  0
 15 27  1  0  0  0  0
 16 17  2  0  0  0  0
 16 28  1  0  0  0  0
 17 18  1  0  0  0  0
M  CHG  1   3  -1
M  END
> <s_m_source_file>
AV-unprocessed.smi

> <i_m_source_file_index>
35

> <i_lp_mmshare_version>
43012

> <i_f3d_flags>
0

> <s_epik_input>
Tz1jMVtuSF1jKD1PKW4oW2NIXWMxQnIpW0NAQEhdMk9bQ0BASF0oW0NIMl1bT0hdKVtDQEBIXShbT0hdKVtDQEhdMltPSF0=

> <s_epik_cmdline>
J2VwaWtfcHl0aG9uJywgJy1waCcsICc3LjAnLCAnLXRuJywgJzgnLCAnLW1hJywgJzIwMCcsICctbWV0YWxfYmluZGluZycsICctaW1hZScsICc8aW5maWxlLm1hZT4nLCAnLW9tYWUnLCAnPG91dGZpbGUubWFlPic=

> <r_epik_Ionization_Penalty>
1.06112

> <r_epik_Ionization_Penalty_Charging>
2.1796e-09

> <r_epik_Ionization_Penalty_Neutral>
1.06112

> <r_epik_State_Penalty>
1.11484

> <r_epik_Charging_Adjusted_Penalty>
1.11484

> <i_epik_Tot_Q>
-1

> <i_epik_Tot_abs_Q>
1

> <r_epik_Metal_State_Penalty>
0.0032876

> <b_epik_Metal_Only>
0

> <s_epik_Chemistry_Notes>
This compound contains an acetal/aminal-like group ( X-CH(R)-Y where X, Y are N, S, or O) that may be acid/base labile, releasing an aldehyde.

> <s_lp_Force_Field>
OPLS_2005

> <r_lp_Energy>
36.7062

> <b_lp_Chiralities_Consistent>
1

> <s_lp_Variant>
AV-unprocessed.smi:35-28

> <Gold.Version>
5.8.1

> <Gold.Id.Protein>
6NUR|6NUR_protein|mol2

> <Gold.PLP.Fitness>
37.6450

> <Gold.PLP.PLP>
-24.7869

> <Gold.PLP.part.hbond>
-5.2627

> <Gold.PLP.part.metal>
0.0000

> <Gold.PLP.part.buried>
3.6473

> <Gold.PLP.part.nonpolar>
-26.8022

> <Gold.PLP.part.repulsive>
5.7286

> <Gold.PLP.ligand.clash>
0.0000

> <Gold.PLP.ligand.torsion>
0.3026

> <Gold.PLP.Chemscore.Hbond>
3.4780

> <Gold.PLP.Chemscore.CHOScore>
1.0000

> <Gold.PLP.Chemscore.Metal>
0.0000

> <Gold.Chemscore.Hbonds>
donor molecule, donor type, donor heavy atom, donor atom, acceptor molecule, acceptor atom, score
      L1  H    11    23       P1  7948  0.60
      L1  H    15    27       P1  8028  0.80
      P1  H  7954  7966       L1    11  0.95
      P1  H  7997  8008       L1     1  1.00
      P1  H  8011  8017       L1     8  0.08
      L1  C    16    28       P1  7957  1.00

> <Gold.PLP.Chemscore.Internal.Correction>
0.0292

> <Gold.Rescore>
     Score         DG    S(hbond)    S(metal)    S(lipo)     H(rot)  DE(clash)    DE(int)     intcor
      3.61      -9.41       2.26        0.00      48.33       3.63       4.44       1.36       ----

> <Gold.Chemscore.Fitness>
3.6075

> <Gold.Chemscore.DG>
-9.4111

> <Gold.Chemscore.ZeroCoef>
-5.4800

> <Gold.Chemscore.Hbond>
2.2633

> <Gold.Chemscore.Metal>
0.0000

> <Gold.Chemscore.Lipo>
48.3300

> <Gold.Chemscore.Internal_Hbond>
0.0000

> <Gold.Chemscore.DEClash>
4.4439

> <Gold.Chemscore.DEInternal>
1.3597

> <Gold.Chemscore.Rot>
3.6261

> <Gold.Chemscore.Internal.Correction>
   9.000000E+99

> <Gold.Chemscore.Hbonds>
donor molecule, donor type, donor heavy atom, donor atom, acceptor molecule, acceptor atom, score
      L1  H    11    23       P1  7948  0.55
      L1  H    15    27       P1  8028  0.11
      P1  H  7954  7966       L1    11  0.21
      P1  H  7997  8008       L1     1  0.55

> <Gold.Chemscore.Hbond.Weighted>
-7.5593

> <Gold.Chemscore.Metal.Weighted>
-0.0000

> <Gold.Chemscore.Lipo.Weighted>
-5.6546

> <Gold.Chemscore.Internal_Hbond.Weighted>
0.0000

> <Gold.Chemscore.DEClash.Weighted>
4.4439

> <Gold.Chemscore.DEInternal.Weighted>
1.3597

> <Gold.Chemscore.Rot.Weighted>
9.2828

> <Gold.Chemscore.Internal.Correction.Weighted>
   9.000000E+99

> <Gold.Protein.RotatedTorsions>
[ 6907 6896 6895 6894 ] final  122.91 input  -60.11 | X-H torsion
[ 7974 7965 7964 7962 ] final  164.21 input  175.53 | X-H torsion
[ 8008 7997 7996 7995 ] final  -57.86 input   59.86 | X-H torsion
[ 10167 10162 10161 10158 ] final   12.97 input  -65.29 | X-H torsion
[ 10718 10713 10712 10709 ] final -174.34 input   66.30 | X-H torsion
[ 10763 10752 10751 10750 ] final  -58.90 input  -60.55 | X-H torsion
[ 11005 11000 10999 10996 ] final   22.89 input  -57.11 | X-H torsion

> <Gold.Protein.ActiveResidues>
 VAL166  LYS551  ARG553  GLY616  TRP617  ASP618  TYR619  PRO620  LYS621  CYS622 
 ASP623  PHE694  ASN695  SER759  ASP760  ASP761  ALA762  ILE779  LEU786  VAL792 
 PHE793  MET794  SER795  GLU796  ALA797  LYS798  CYS799  TRP800  GLU811  SER814 

> <Gold.Protein.RotatedAtoms>
  152.4205  133.7108  159.6477 H   0  0  0  0  0  0  0  0  0  0  0  0  # atno 6907 bound_to 6896
  150.8081  133.8462  159.3201 H   0  0  0  0  0  0  0  0  0  0  0  0  # atno 6908 bound_to 6896
  151.6180  135.1036  160.0147 H   0  0  0  0  0  0  0  0  0  0  0  0  # atno 6909 bound_to 6896
  144.7555  139.8292  143.6351 H   0  0  0  0  0  0  0  0  0  0  0  0  # atno 7974 bound_to 7965
  154.4285  140.1097  156.5864 H   0  0  0  0  0  0  0  0  0  0  0  0  # atno 8008 bound_to 7997
  155.6058  140.3494  155.4588 H   0  0  0  0  0  0  0  0  0  0  0  0  # atno 8009 bound_to 7997
  156.0138  140.1225  157.0417 H   0  0  0  0  0  0  0  0  0  0  0  0  # atno 8010 bound_to 7997
  140.6033  143.8559  150.6988 H   0  0  0  0  0  0  0  0  0  0  0  0  # atno 10167 bound_to 10162
  156.7836  130.9492  151.3120 H   0  0  0  0  0  0  0  0  0  0  0  0  # atno 10718 bound_to 10713
  154.2453  135.6336  153.5221 H   0  0  0  0  0  0  0  0  0  0  0  0  # atno 10763 bound_to 10752
  152.9922  135.5552  154.5866 H   0  0  0  0  0  0  0  0  0  0  0  0  # atno 10764 bound_to 10752
  154.5381  135.2893  155.1095 H   0  0  0  0  0  0  0  0  0  0  0  0  # atno 10765 bound_to 10752
  140.3756  134.1975  155.7665 H   0  0  0  0  0  0  0  0  0  0  0  0  # atno 11005 bound_to 11000
  146.1560  139.4658  143.0018 LP  0  0  0  0  0  0  0  0  0  0  0  0  # atno 17320 bound_to 7965
  145.6793  141.0195  143.1615 LP  0  0  0  0  0  0  0  0  0  0  0  0  # atno 17321 bound_to 7965
  140.2111  143.3883  152.1718 LP  0  0  0  0  0  0  0  0  0  0  0  0  # atno 17342 bound_to 10162
  139.5307  144.7155  151.5068 LP  0  0  0  0  0  0  0  0  0  0  0  0  # atno 17343 bound_to 10162
  157.6634  130.8986  149.9880 LP  0  0  0  0  0  0  0  0  0  0  0  0  # atno 17370 bound_to 10713
  156.1203  130.3646  149.9899 LP  0  0  0  0  0  0  0  0  0  0  0  0  # atno 17371 bound_to 10713
  141.1940  133.8138  157.0775 LP  0  0  0  0  0  0  0  0  0  0  0  0  # atno 17394 bound_to 11000
  140.0518  134.9802  157.1149 LP  0  0  0  0  0  0  0  0  0  0  0  0  # atno 17395 bound_to 11000

$$$$
