AV-unprocessed.smi:3319|AV-procd|sdf|12767|dock8
  -GOLD-   2272019103D 1   1.00000     0.00000
 Structure written by MMmdl.
 40 41  0  0  0  0  0  0  0  0  2 V2000
  152.3495  139.9797  156.2885 C   0  0  0  0  0  0  0  0  0  0  0  0
  151.4382  140.7103  155.9323 C   0  0  0  0  0  0  0  0  0  0  0  0
  150.3464  141.6053  155.5069 C   0  0  0  0  0  0  0  0  0  0  0  0
  149.4894  141.0181  154.4769 N   0  0  0  0  0  0  0  0  0  0  0  0
  148.2981  141.8549  154.3203 C   0  0  0  0  0  0  0  0  0  0  0  0
  147.4231  141.3262  153.1706 C   0  0  0  0  0  0  0  0  0  0  0  0
  146.9861  139.8761  153.4273 C   0  0  0  0  0  0  0  0  0  0  0  0
  146.2247  139.3624  152.2670 N   0  3  0  0  0  0  0  0  0  0  0  0
  146.3074  137.9025  152.0513 C   0  0  0  0  0  0  0  0  0  0  0  0
  145.2554  137.1643  152.8898 C   0  0  0  0  0  0  0  0  0  0  0  0
  144.8751  135.8268  152.2846 C   0  0  0  0  0  0  0  0  0  0  0  0
  145.3029  135.4748  150.9878 C   0  0  0  0  0  0  0  0  0  0  0  0
  144.9211  134.2195  150.4719 C   0  0  0  0  0  0  0  0  0  0  0  0
  144.1669  133.3344  151.1584 N   0  0  0  0  0  0  0  0  0  0  0  0
  143.7618  133.6780  152.3999 C   0  0  0  0  0  0  0  0  0  0  0  0
  144.0880  134.9072  153.0080 C   0  0  0  0  0  0  0  0  0  0  0  0
  148.2388  139.0297  153.7159 C   0  0  0  0  0  0  0  0  0  0  0  0
  149.0825  139.6554  154.8405 C   0  0  0  0  0  0  0  0  0  0  0  0
  153.1453  139.3426  156.6034 H   0  0  0  0  0  0  0  0  0  0  0  0
  149.7645  141.9027  156.3804 H   0  0  0  0  0  0  0  0  0  0  0  0
  150.8295  142.5029  155.1186 H   0  0  0  0  0  0  0  0  0  0  0  0
  147.7303  141.8835  155.2520 H   0  0  0  0  0  0  0  0  0  0  0  0
  148.5971  142.8798  154.0968 H   0  0  0  0  0  0  0  0  0  0  0  0
  146.5473  141.9655  153.0547 H   0  0  0  0  0  0  0  0  0  0  0  0
  147.9793  141.3909  152.2339 H   0  0  0  0  0  0  0  0  0  0  0  0
  146.3341  139.8659  154.3024 H   0  0  0  0  0  0  0  0  0  0  0  0
  145.2520  139.5902  152.4155 H   0  0  0  0  0  0  0  0  0  0  0  0
  146.1566  137.6763  150.9958 H   0  0  0  0  0  0  0  0  0  0  0  0
  147.3062  137.5548  152.3183 H   0  0  0  0  0  0  0  0  0  0  0  0
  145.6288  137.0007  153.9018 H   0  0  0  0  0  0  0  0  0  0  0  0
  144.3577  137.7762  152.9879 H   0  0  0  0  0  0  0  0  0  0  0  0
  145.9084  136.1473  150.3978 H   0  0  0  0  0  0  0  0  0  0  0  0
  145.2304  133.9188  149.4817 H   0  0  0  0  0  0  0  0  0  0  0  0
  143.1598  132.9516  152.9256 H   0  0  0  0  0  0  0  0  0  0  0  0
  143.7394  135.1344  154.0049 H   0  0  0  0  0  0  0  0  0  0  0  0
  147.9592  138.0171  154.0062 H   0  0  0  0  0  0  0  0  0  0  0  0
  148.8460  138.9379  152.8138 H   0  0  0  0  0  0  0  0  0  0  0  0
  149.9606  139.0312  155.0078 H   0  0  0  0  0  0  0  0  0  0  0  0
  148.5198  139.6679  155.7754 H   0  0  0  0  0  0  0  0  0  0  0  0
  146.5407  139.8394  151.4346 H   0  0  0  0  0  0  0  0  0  0  0  0
  1  2  3  0  0  0  0
  1 19  1  0  0  0  0
  2  3  1  0  0  0  0
  3  4  1  0  0  0  0
  3 20  1  0  0  0  0
  3 21  1  0  0  0  0
  4 18  1  0  0  0  0
  4  5  1  0  0  0  0
  5  6  1  0  0  0  0
  5 22  1  0  0  0  0
  5 23  1  0  0  0  0
  6  7  1  0  0  0  0
  6 24  1  0  0  0  0
  6 25  1  0  0  0  0
  7  8  1  0  0  0  0
  7 17  1  0  0  0  0
  7 26  1  0  0  0  0
  8  9  1  0  0  0  0
  8 27  1  0  0  0  0
  8 40  1  0  0  0  0
  9 10  1  0  0  0  0
  9 28  1  0  0  0  0
  9 29  1  0  0  0  0
 10 11  1  0  0  0  0
 10 30  1  0  0  0  0
 10 31  1  0  0  0  0
 11 16  1  0  0  0  0
 11 12  2  0  0  0  0
 12 13  1  0  0  0  0
 12 32  1  0  0  0  0
 13 14  2  0  0  0  0
 13 33  1  0  0  0  0
 14 15  1  0  0  0  0
 15 16  2  0  0  0  0
 15 34  1  0  0  0  0
 16 35  1  0  0  0  0
 17 18  1  0  0  0  0
 17 36  1  0  0  0  0
 17 37  1  0  0  0  0
 18 38  1  0  0  0  0
 18 39  1  0  0  0  0
M  CHG  1   8   1
M  END
> <s_m_source_file>
AV-unprocessed.smi

> <i_m_source_file_index>
3319

> <i_lp_mmshare_version>
43012

> <i_f3d_flags>
0

> <s_epik_input>
W0NIXSNDW0NIMl1OMVtDSDJdW0NIMl1bQ0hdKFtDSDJdW0NIMl0xKVtOSF1bQ0gyXVtDSDJdYzJbY0hdW2NIXW5bY0hdW2NIXTI=

> <s_epik_cmdline>
J2VwaWtfcHl0aG9uJywgJy1waCcsICc3LjAnLCAnLXRuJywgJzgnLCAnLW1hJywgJzIwMCcsICctbWV0YWxfYmluZGluZycsICctaW1hZScsICc8aW5maWxlLm1hZT4nLCAnLW9tYWUnLCAnPG91dGZpbGUubWFlPic=

> <r_epik_Ionization_Penalty>
0.00927662

> <r_epik_Ionization_Penalty_Charging>
0.000485704

> <r_epik_Ionization_Penalty_Neutral>
0.00879091

> <r_epik_State_Penalty>
0.00559669

> <r_epik_Charging_Adjusted_Penalty>
0.0060824

> <i_epik_Tot_Q>
1

> <i_epik_Tot_abs_Q>
1

> <r_epik_Metal_State_Penalty>
-0

> <b_epik_Metal_Only>
0

> <s_lp_Force_Field>
OPLS_2005

> <r_lp_Energy>
19.7292

> <b_lp_Chiralities_Consistent>
1

> <s_lp_Variant>
AV-unprocessed.smi:3319-1

> <Gold.Version>
5.8.1

> <Gold.Id.Protein>
6NUR|6NUR_protein|mol2

> <Gold.PLP.Fitness>
44.3268

> <Gold.PLP.PLP>
-33.9170

> <Gold.PLP.part.hbond>
-1.5982

> <Gold.PLP.part.metal>
0.0000

> <Gold.PLP.part.buried>
-1.2385

> <Gold.PLP.part.nonpolar>
-31.0206

> <Gold.PLP.part.repulsive>
0.3509

> <Gold.PLP.ligand.clash>
0.0000

> <Gold.PLP.ligand.torsion>
0.8110

> <Gold.PLP.Chemscore.Hbond>
2.0000

> <Gold.PLP.Chemscore.CHOScore>
2.0000

> <Gold.PLP.Chemscore.Metal>
0.0000

> <Gold.Chemscore.Hbonds>
donor molecule, donor type, donor heavy atom, donor atom, acceptor molecule, acceptor atom, score
      L1  H     8    27       P1 10175  2.00
      L1  C    13    33       P1  7921  1.00
      L1  C    15    34       P1 10957  1.00

> <Gold.PLP.Chemscore.Internal.Correction>
0.0319

> <Gold.Rescore>
     Score         DG    S(hbond)    S(metal)    S(lipo)     H(rot)  DE(clash)    DE(int)     intcor
     14.73     -15.60       0.98        0.00      89.90       1.44       0.26       0.60       ----

> <Gold.Chemscore.Fitness>
14.7340

> <Gold.Chemscore.DG>
-15.5990

> <Gold.Chemscore.ZeroCoef>
-5.4800

> <Gold.Chemscore.Hbond>
0.9819

> <Gold.Chemscore.Metal>
0.0000

> <Gold.Chemscore.Lipo>
89.9001

> <Gold.Chemscore.Internal_Hbond>
0.0000

> <Gold.Chemscore.DEClash>
0.2601

> <Gold.Chemscore.DEInternal>
0.6050

> <Gold.Chemscore.Rot>
1.4371

> <Gold.Chemscore.Internal.Correction>
   9.000000E+99

> <Gold.Chemscore.Hbonds>
donor molecule, donor type, donor heavy atom, donor atom, acceptor molecule, acceptor atom, score
      L1  H     8    27       P1 10175  1.00

> <Gold.Chemscore.Hbond.Weighted>
-3.2797

> <Gold.Chemscore.Metal.Weighted>
-0.0000

> <Gold.Chemscore.Lipo.Weighted>
-10.5183

> <Gold.Chemscore.Internal_Hbond.Weighted>
0.0000

> <Gold.Chemscore.DEClash.Weighted>
0.2601

> <Gold.Chemscore.DEInternal.Weighted>
0.6050

> <Gold.Chemscore.Rot.Weighted>
3.6790

> <Gold.Chemscore.Internal.Correction.Weighted>
   9.000000E+99

> <Gold.Protein.RotatedTorsions>
[ 6907 6896 6895 6894 ] final  169.35 input  -60.11 | X-H torsion
[ 7974 7965 7964 7962 ] final   82.32 input  175.53 | X-H torsion
[ 8008 7997 7996 7995 ] final  107.96 input   59.86 | X-H torsion
[ 10167 10162 10161 10158 ] final  -33.91 input  -65.29 | X-H torsion
[ 10718 10713 10712 10709 ] final  140.96 input   66.30 | X-H torsion
[ 10763 10752 10751 10750 ] final    8.36 input  -60.55 | X-H torsion
[ 11005 11000 10999 10996 ] final  -22.59 input  -57.11 | X-H torsion

> <Gold.Protein.ActiveResidues>
 VAL166  LYS551  ARG553  GLY616  TRP617  ASP618  TYR619  PRO620  LYS621  CYS622 
 ASP623  PHE694  ASN695  SER759  ASP760  ASP761  ALA762  ILE779  LEU786  VAL792 
 PHE793  MET794  SER795  GLU796  ALA797  LYS798  CYS799  TRP800  GLU811  SER814 

> <Gold.Protein.RotatedAtoms>
  151.8332  133.3412  159.3619 H   0  0  0  0  0  0  0  0  0  0  0  0  # atno 6907 bound_to 6896
  150.7257  134.5462  159.5781 H   0  0  0  0  0  0  0  0  0  0  0  0  # atno 6908 bound_to 6896
  152.2920  134.7711  160.0427 H   0  0  0  0  0  0  0  0  0  0  0  0  # atno 6909 bound_to 6896
  145.6266  139.2396  143.2108 H   0  0  0  0  0  0  0  0  0  0  0  0  # atno 7974 bound_to 7965
  156.1865  140.3085  155.9249 H   0  0  0  0  0  0  0  0  0  0  0  0  # atno 8008 bound_to 7997
  155.3268  140.0458  157.3058 H   0  0  0  0  0  0  0  0  0  0  0  0  # atno 8009 bound_to 7997
  154.5402  140.2259  155.8663 H   0  0  0  0  0  0  0  0  0  0  0  0  # atno 8010 bound_to 7997
  140.7196  143.3586  151.2008 H   0  0  0  0  0  0  0  0  0  0  0  0  # atno 10167 bound_to 10162
  157.3974  131.1012  151.0586 H   0  0  0  0  0  0  0  0  0  0  0  0  # atno 10718 bound_to 10713
  153.2259  135.6887  153.7946 H   0  0  0  0  0  0  0  0  0  0  0  0  # atno 10763 bound_to 10752
  153.7128  135.3279  155.3251 H   0  0  0  0  0  0  0  0  0  0  0  0  # atno 10764 bound_to 10752
  154.8291  135.4594  154.1125 H   0  0  0  0  0  0  0  0  0  0  0  0  # atno 10765 bound_to 10752
  140.8671  133.7746  156.0143 H   0  0  0  0  0  0  0  0  0  0  0  0  # atno 11005 bound_to 11000
  146.1389  140.7084  142.9376 LP  0  0  0  0  0  0  0  0  0  0  0  0  # atno 17320 bound_to 7965
  144.7210  140.4372  143.7008 LP  0  0  0  0  0  0  0  0  0  0  0  0  # atno 17321 bound_to 7965
  139.7133  143.9341  152.2956 LP  0  0  0  0  0  0  0  0  0  0  0  0  # atno 17342 bound_to 10162
  139.9073  144.6877  150.8600 LP  0  0  0  0  0  0  0  0  0  0  0  0  # atno 17343 bound_to 10162
  157.1597  130.6220  149.5607 LP  0  0  0  0  0  0  0  0  0  0  0  0  # atno 17370 bound_to 10713
  155.9814  130.4821  150.6826 LP  0  0  0  0  0  0  0  0  0  0  0  0  # atno 17371 bound_to 10713
  140.8616  134.2834  157.5232 LP  0  0  0  0  0  0  0  0  0  0  0  0  # atno 17394 bound_to 11000
  139.8710  134.9521  156.4104 LP  0  0  0  0  0  0  0  0  0  0  0  0  # atno 17395 bound_to 11000

$$$$
