AV-unprocessed.smi:2251|AV-procd|sdf|9101|dock8
  -GOLD-   2272012303D 1   1.00000     0.00000
 Structure written by MMmdl.
 44 45  0  0  0  0  0  0  0  0  1 V2000
  149.5639  133.3941  155.5549 C   0  0  0  0  0  0  0  0  0  0  0  0
  149.2370  133.9233  156.9470 C   0  0  0  0  0  0  0  0  0  0  0  0
  149.3410  133.1877  157.9282 O   0  0  0  0  0  0  0  0  0  0  0  0
  148.8442  135.2046  157.0183 N   0  0  0  0  0  0  0  0  0  0  0  0
  148.5016  135.9124  158.2497 C   0  0  0  0  0  0  0  0  0  0  0  0
  148.0116  137.3444  158.0017 C   0  0  0  0  0  0  0  0  0  0  0  0
  147.3265  137.9327  158.8396 O   0  0  0  0  0  0  0  0  0  0  0  0
  148.3919  137.9029  156.8448 N   0  0  0  0  0  0  0  0  0  0  0  0
  148.0372  139.2544  156.4229 C   0  0  0  0  0  0  0  0  0  0  0  0
  148.9756  139.7923  155.3048 C   0  0  0  0  0  0  0  0  0  0  0  0
  150.4396  139.5294  155.7244 C   0  0  0  0  0  0  0  0  0  0  0  0
  150.9181  140.0123  156.9663 C   0  0  0  0  0  0  0  0  0  0  0  0
  152.2506  139.7534  157.3422 C   0  0  0  0  0  0  0  0  0  0  0  0
  153.1144  139.0561  156.5773 N   0  0  0  0  0  0  0  0  0  0  0  0
  152.6640  138.5870  155.3960 C   0  0  0  0  0  0  0  0  0  0  0  0
  151.3505  138.7902  154.9281 C   0  0  0  0  0  0  0  0  0  0  0  0
  148.6350  139.1142  153.9402 C   0  0  0  0  0  0  0  0  0  0  0  0
  147.2588  139.4975  153.3664 C   0  0  0  0  0  0  0  0  0  0  0  0
  147.1234  141.0173  153.2214 C   0  0  0  0  0  0  0  0  0  0  0  0
  147.3983  141.7204  154.5553 C   0  0  0  0  0  0  0  0  0  0  0  0
  148.7715  141.3256  155.1304 C   0  0  0  0  0  0  0  0  0  0  0  0
  148.7299  133.5652  154.8737 H   0  0  0  0  0  0  0  0  0  0  0  0
  149.7654  132.3228  155.5845 H   0  0  0  0  0  0  0  0  0  0  0  0
  150.4457  133.8964  155.1560 H   0  0  0  0  0  0  0  0  0  0  0  0
  148.7951  135.7348  156.1604 H   0  0  0  0  0  0  0  0  0  0  0  0
  147.7092  135.3593  158.7538 H   0  0  0  0  0  0  0  0  0  0  0  0
  149.3573  135.9210  158.9273 H   0  0  0  0  0  0  0  0  0  0  0  0
  148.9613  137.3583  156.2130 H   0  0  0  0  0  0  0  0  0  0  0  0
  146.9948  139.2559  156.1067 H   0  0  0  0  0  0  0  0  0  0  0  0
  148.0829  139.9083  157.2950 H   0  0  0  0  0  0  0  0  0  0  0  0
  150.2796  140.5697  157.6349 H   0  0  0  0  0  0  0  0  0  0  0  0
  152.6311  140.1144  158.2863 H   0  0  0  0  0  0  0  0  0  0  0  0
  153.3721  138.0269  154.8036 H   0  0  0  0  0  0  0  0  0  0  0  0
  151.0774  138.3700  153.9730 H   0  0  0  0  0  0  0  0  0  0  0  0
  149.3794  139.4064  153.1981 H   0  0  0  0  0  0  0  0  0  0  0  0
  148.6933  138.0281  154.0196 H   0  0  0  0  0  0  0  0  0  0  0  0
  147.1259  139.0262  152.3922 H   0  0  0  0  0  0  0  0  0  0  0  0
  146.4595  139.1091  153.9974 H   0  0  0  0  0  0  0  0  0  0  0  0
  147.8256  141.3765  152.4678 H   0  0  0  0  0  0  0  0  0  0  0  0
  146.1258  141.2719  152.8625 H   0  0  0  0  0  0  0  0  0  0  0  0
  147.3585  142.8008  154.4128 H   0  0  0  0  0  0  0  0  0  0  0  0
  146.6086  141.4831  155.2680 H   0  0  0  0  0  0  0  0  0  0  0  0
  148.9096  141.8464  156.0777 H   0  0  0  0  0  0  0  0  0  0  0  0
  149.5433  141.7123  154.4628 H   0  0  0  0  0  0  0  0  0  0  0  0
  1  2  1  0  0  0  0
  1 22  1  0  0  0  0
  1 23  1  0  0  0  0
  1 24  1  0  0  0  0
  2  3  2  0  0  0  0
  2  4  1  0  0  0  0
  4  5  1  0  0  0  0
  4 25  1  0  0  0  0
  5  6  1  0  0  0  0
  5 26  1  0  0  0  0
  5 27  1  0  0  0  0
  6  7  2  0  0  0  0
  6  8  1  0  0  0  0
  8  9  1  0  0  0  0
  8 28  1  0  0  0  0
  9 10  1  0  0  0  0
  9 29  1  0  0  0  0
  9 30  1  0  0  0  0
 10 21  1  0  0  0  0
 10 11  1  0  0  0  0
 10 17  1  0  0  0  0
 11 16  1  0  0  0  0
 11 12  2  0  0  0  0
 12 13  1  0  0  0  0
 12 31  1  0  0  0  0
 13 14  2  0  0  0  0
 13 32  1  0  0  0  0
 14 15  1  0  0  0  0
 15 16  2  0  0  0  0
 15 33  1  0  0  0  0
 16 34  1  0  0  0  0
 17 18  1  0  0  0  0
 17 35  1  0  0  0  0
 17 36  1  0  0  0  0
 18 19  1  0  0  0  0
 18 37  1  0  0  0  0
 18 38  1  0  0  0  0
 19 20  1  0  0  0  0
 19 39  1  0  0  0  0
 19 40  1  0  0  0  0
 20 21  1  0  0  0  0
 20 41  1  0  0  0  0
 20 42  1  0  0  0  0
 21 43  1  0  0  0  0
 21 44  1  0  0  0  0
M  END
> <s_m_source_file>
AV-unprocessed.smi

> <i_m_source_file_index>
2251

> <i_lp_mmshare_version>
43012

> <i_f3d_flags>
0

> <s_epik_input>
W0NIM11DKD1PKVtOSF1bQ0gyXUMoPU8pW05IXVtDSDJdQzEoW0NIMl1bQ0gyXVtDSDJdW0NIMl1bQ0gyXTEpYzJbY0hdW2NIXW5bY0hdW2NIXTI=

> <s_epik_cmdline>
J2VwaWtfcHl0aG9uJywgJy1waCcsICc3LjAnLCAnLXRuJywgJzgnLCAnLW1hJywgJzIwMCcsICctbWV0YWxfYmluZGluZycsICctaW1hZScsICc8aW5maWxlLm1hZT4nLCAnLW9tYWUnLCAnPG91dGZpbGUubWFlPic=

> <r_epik_Ionization_Penalty>
0.0619926

> <r_epik_Ionization_Penalty_Charging>
0

> <r_epik_Ionization_Penalty_Neutral>
0.0619926

> <r_epik_State_Penalty>
0.0538453

> <r_epik_Charging_Adjusted_Penalty>
0.0538453

> <i_epik_Tot_Q>
0

> <i_epik_Tot_abs_Q>
0

> <r_epik_Metal_State_Penalty>
0.048714

> <b_epik_Metal_Only>
0

> <s_lp_Force_Field>
OPLS_2005

> <r_lp_Energy>
14.8117

> <b_lp_Chiralities_Consistent>
1

> <s_lp_Variant>
AV-unprocessed.smi:2251-1

> <Gold.Version>
5.8.1

> <Gold.Id.Protein>
6NUR|6NUR_protein|mol2

> <Gold.PLP.Fitness>
34.4416

> <Gold.PLP.PLP>
-28.9176

> <Gold.PLP.part.hbond>
-2.8136

> <Gold.PLP.part.metal>
0.0000

> <Gold.PLP.part.buried>
-2.7206

> <Gold.PLP.part.nonpolar>
-24.3192

> <Gold.PLP.part.repulsive>
0.0690

> <Gold.PLP.ligand.clash>
0.0000

> <Gold.PLP.ligand.torsion>
0.6217

> <Gold.PLP.Chemscore.Hbond>
2.2405

> <Gold.PLP.Chemscore.CHOScore>
0.0000

> <Gold.PLP.Chemscore.Metal>
0.0000

> <Gold.Chemscore.Hbonds>
donor molecule, donor type, donor heavy atom, donor atom, acceptor molecule, acceptor atom, score
      P1  H  6896  6907       L1     3  0.91
      P1  H  6934  6947       L1     7  0.12
      P1  H  7997  8008       L1    14  0.90

> <Gold.PLP.Chemscore.Internal.Correction>
0.0459

> <Gold.Rescore>
     Score         DG    S(hbond)    S(metal)    S(lipo)     H(rot)  DE(clash)    DE(int)     intcor
     15.84     -16.41       2.29        0.00      72.19       2.02       0.02       0.55       ----

> <Gold.Chemscore.Fitness>
15.8449

> <Gold.Chemscore.DG>
-16.4135

> <Gold.Chemscore.ZeroCoef>
-5.4800

> <Gold.Chemscore.Hbond>
2.2899

> <Gold.Chemscore.Metal>
0.0000

> <Gold.Chemscore.Lipo>
72.1891

> <Gold.Chemscore.Internal_Hbond>
0.0000

> <Gold.Chemscore.DEClash>
0.0186

> <Gold.Chemscore.DEInternal>
0.5500

> <Gold.Chemscore.Rot>
2.0160

> <Gold.Chemscore.Internal.Correction>
   9.000000E+99

> <Gold.Chemscore.Hbonds>
donor molecule, donor type, donor heavy atom, donor atom, acceptor molecule, acceptor atom, score
      P1  H  6896  6907       L1     3  0.72
      P1  H  6934  6947       L1     7  0.12
      P1  H  7997  8008       L1    14  0.17

> <Gold.Chemscore.Hbond.Weighted>
-7.6484

> <Gold.Chemscore.Metal.Weighted>
-0.0000

> <Gold.Chemscore.Lipo.Weighted>
-8.4461

> <Gold.Chemscore.Internal_Hbond.Weighted>
0.0000

> <Gold.Chemscore.DEClash.Weighted>
0.0186

> <Gold.Chemscore.DEInternal.Weighted>
0.5500

> <Gold.Chemscore.Rot.Weighted>
5.1610

> <Gold.Chemscore.Internal.Correction.Weighted>
   9.000000E+99

> <Gold.Protein.RotatedTorsions>
[ 6907 6896 6895 6894 ] final -112.80 input  -60.11 | X-H torsion
[ 7974 7965 7964 7962 ] final -134.93 input  175.53 | X-H torsion
[ 8008 7997 7996 7995 ] final  -69.73 input   59.86 | X-H torsion
[ 10167 10162 10161 10158 ] final  -15.39 input  -65.29 | X-H torsion
[ 10718 10713 10712 10709 ] final    6.25 input   66.30 | X-H torsion
[ 10763 10752 10751 10750 ] final -109.55 input  -60.55 | X-H torsion
[ 11005 11000 10999 10996 ] final   14.73 input  -57.11 | X-H torsion

> <Gold.Protein.ActiveResidues>
 VAL166  LYS551  ARG553  GLY616  TRP617  ASP618  TYR619  PRO620  LYS621  CYS622 
 ASP623  PHE694  ASN695  SER759  ASP760  ASP761  ALA762  ILE779  LEU786  VAL792 
 PHE793  MET794  SER795  GLU796  ALA797  LYS798  CYS799  TRP800  GLU811  SER814 

> <Gold.Protein.RotatedAtoms>
  150.7784  133.9037  159.3348 H   0  0  0  0  0  0  0  0  0  0  0  0  # atno 6907 bound_to 6896
  151.6906  135.0945  160.0242 H   0  0  0  0  0  0  0  0  0  0  0  0  # atno 6908 bound_to 6896
  152.3827  133.6530  159.6210 H   0  0  0  0  0  0  0  0  0  0  0  0  # atno 6909 bound_to 6896
  144.9059  140.6832  143.5056 H   0  0  0  0  0  0  0  0  0  0  0  0  # atno 7974 bound_to 7965
  154.4960  140.0848  156.7696 H   0  0  0  0  0  0  0  0  0  0  0  0  # atno 8008 bound_to 7997
  155.4117  140.3442  155.4246 H   0  0  0  0  0  0  0  0  0  0  0  0  # atno 8009 bound_to 7997
  156.1394  140.1525  156.8932 H   0  0  0  0  0  0  0  0  0  0  0  0  # atno 8010 bound_to 7997
  140.7217  143.5223  150.9618 H   0  0  0  0  0  0  0  0  0  0  0  0  # atno 10167 bound_to 10162
  156.9195  130.5785  149.5647 H   0  0  0  0  0  0  0  0  0  0  0  0  # atno 10718 bound_to 10713
  154.8199  135.4597  154.0750 H   0  0  0  0  0  0  0  0  0  0  0  0  # atno 10763 bound_to 10752
  153.2112  135.6882  153.8119 H   0  0  0  0  0  0  0  0  0  0  0  0  # atno 10764 bound_to 10752
  153.7569  135.3290  155.3307 H   0  0  0  0  0  0  0  0  0  0  0  0  # atno 10765 bound_to 10752
  140.4662  134.1077  155.7725 H   0  0  0  0  0  0  0  0  0  0  0  0  # atno 11005 bound_to 11000
  145.3537  139.1699  143.4421 LP  0  0  0  0  0  0  0  0  0  0  0  0  # atno 17320 bound_to 7965
  146.3133  140.3591  142.8663 LP  0  0  0  0  0  0  0  0  0  0  0  0  # atno 17321 bound_to 7965
  139.8941  143.6916  152.3141 LP  0  0  0  0  0  0  0  0  0  0  0  0  # atno 17342 bound_to 10162
  139.7243  144.7596  151.0905 LP  0  0  0  0  0  0  0  0  0  0  0  0  # atno 17343 bound_to 10162
  156.0498  130.5569  150.8963 LP  0  0  0  0  0  0  0  0  0  0  0  0  # atno 17370 bound_to 10713
  157.5917  131.0944  150.9108 LP  0  0  0  0  0  0  0  0  0  0  0  0  # atno 17371 bound_to 10713
  141.1598  133.8814  157.1879 LP  0  0  0  0  0  0  0  0  0  0  0  0  # atno 17394 bound_to 11000
  139.9914  135.0063  156.9982 LP  0  0  0  0  0  0  0  0  0  0  0  0  # atno 17395 bound_to 11000

$$$$
