AV-unprocessed.smi:2996|AV-procd|sdf|11410|dock6
  -GOLD-   2272016333D 1   1.00000     0.00000
 Structure written by MMmdl.
 46 47  0  0  0  0  0  0  0  0  1 V2000
  153.3708  138.6313  154.5290 C   0  0  0  0  0  0  0  0  0  0  0  0
  152.1317  138.3891  155.3979 C   0  0  0  0  0  0  0  0  0  0  0  0
  150.9425  139.1736  154.9158 C   0  0  0  0  0  0  0  0  0  0  0  0
  150.9324  140.4934  155.0137 N   0  0  0  0  0  0  0  0  0  0  0  0
  149.6950  140.9162  154.5051 O   0  0  0  0  0  0  0  0  0  0  0  0
  148.9756  139.8301  154.1124 C   0  0  0  0  0  0  0  0  0  0  0  0
  147.5995  140.1035  153.6013 C   0  0  0  0  0  0  0  0  0  0  0  0
  149.7342  138.7110  154.3317 C   0  0  0  0  0  0  0  0  0  0  0  0
  149.4166  137.3448  154.1222 N   0  0  0  0  0  0  0  0  0  0  0  0
  149.3211  136.3790  155.0484 C   0  0  0  0  0  0  0  0  0  0  0  0
  149.4805  136.5414  156.2574 O   0  0  0  0  0  0  0  0  0  0  0  0
  148.9978  135.2041  154.4922 N   0  0  0  0  0  0  0  0  0  0  0  0
  148.7761  133.9587  155.2240 C   0  0  2  0  0  0  0  0  0  0  0  0
  150.0853  133.3032  155.6168 C   0  0  0  0  0  0  0  0  0  0  0  0
  149.6994  131.8291  155.7908 C   0  0  0  0  0  0  0  0  0  0  0  0
  150.8095  130.8766  155.3206 C   0  0  0  0  0  0  0  0  0  0  0  0
  149.2779  131.5126  157.2358 C   0  0  0  0  0  0  0  0  0  0  0  0
  148.5538  131.6339  154.9624 O   0  0  0  0  0  0  0  0  0  0  0  0
  148.0903  132.8556  154.3893 C   0  0  0  0  0  0  0  0  0  0  0  0
  146.5595  132.8863  154.5231 C   0  0  0  0  0  0  0  0  0  0  0  0
  148.5071  132.8305  152.9036 C   0  0  0  0  0  0  0  0  0  0  0  0
  154.2204  138.0542  154.8943 H   0  0  0  0  0  0  0  0  0  0  0  0
  153.6550  139.6840  154.5357 H   0  0  0  0  0  0  0  0  0  0  0  0
  153.1904  138.3391  153.4941 H   0  0  0  0  0  0  0  0  0  0  0  0
  151.8975  137.3242  155.4046 H   0  0  0  0  0  0  0  0  0  0  0  0
  152.3582  138.6518  156.4315 H   0  0  0  0  0  0  0  0  0  0  0  0
  146.9067  139.3199  153.9083 H   0  0  0  0  0  0  0  0  0  0  0  0
  147.5948  140.1587  152.5128 H   0  0  0  0  0  0  0  0  0  0  0  0
  147.2211  141.0505  153.9869 H   0  0  0  0  0  0  0  0  0  0  0  0
  149.1487  137.0952  153.1816 H   0  0  0  0  0  0  0  0  0  0  0  0
  148.8807  135.1680  153.4903 H   0  0  0  0  0  0  0  0  0  0  0  0
  148.2069  134.1495  156.1361 H   0  0  0  0  0  0  0  0  0  0  0  0
  150.8130  133.4117  154.8107 H   0  0  0  0  0  0  0  0  0  0  0  0
  150.5260  133.7407  156.5134 H   0  0  0  0  0  0  0  0  0  0  0  0
  151.7155  131.0045  155.9134 H   0  0  0  0  0  0  0  0  0  0  0  0
  151.0673  131.0534  154.2760 H   0  0  0  0  0  0  0  0  0  0  0  0
  150.4979  129.8354  155.4085 H   0  0  0  0  0  0  0  0  0  0  0  0
  150.1080  131.6543  157.9284 H   0  0  0  0  0  0  0  0  0  0  0  0
  148.9412  130.4797  157.3293 H   0  0  0  0  0  0  0  0  0  0  0  0
  148.4591  132.1536  157.5635 H   0  0  0  0  0  0  0  0  0  0  0  0
  146.1420  133.7967  154.0928 H   0  0  0  0  0  0  0  0  0  0  0  0
  146.2531  132.8408  155.5683 H   0  0  0  0  0  0  0  0  0  0  0  0
  146.1027  132.0391  154.0109 H   0  0  0  0  0  0  0  0  0  0  0  0
  148.1522  133.7134  152.3714 H   0  0  0  0  0  0  0  0  0  0  0  0
  148.0907  131.9586  152.3980 H   0  0  0  0  0  0  0  0  0  0  0  0
  149.5902  132.7850  152.7890 H   0  0  0  0  0  0  0  0  0  0  0  0
  1  2  1  0  0  0  0
  1 22  1  0  0  0  0
  1 23  1  0  0  0  0
  1 24  1  0  0  0  0
  2  3  1  0  0  0  0
  2 25  1  0  0  0  0
  2 26  1  0  0  0  0
  3  8  1  0  0  0  0
  3  4  2  0  0  0  0
  4  5  1  0  0  0  0
  5  6  1  0  0  0  0
  6  7  1  0  0  0  0
  6  8  2  0  0  0  0
  7 27  1  0  0  0  0
  7 28  1  0  0  0  0
  7 29  1  0  0  0  0
  8  9  1  0  0  0  0
  9 10  1  0  0  0  0
  9 30  1  0  0  0  0
 10 11  2  0  0  0  0
 10 12  1  0  0  0  0
 12 13  1  0  0  0  0
 12 31  1  0  0  0  0
 13 19  1  0  0  0  0
 13 14  1  0  0  0  0
 13 32  1  0  0  0  0
 14 15  1  0  0  0  0
 14 33  1  0  0  0  0
 14 34  1  0  0  0  0
 15 16  1  0  0  0  0
 15 17  1  0  0  0  0
 15 18  1  0  0  0  0
 16 35  1  0  0  0  0
 16 36  1  0  0  0  0
 16 37  1  0  0  0  0
 17 38  1  0  0  0  0
 17 39  1  0  0  0  0
 17 40  1  0  0  0  0
 18 19  1  0  0  0  0
 19 20  1  0  0  0  0
 19 21  1  0  0  0  0
 20 41  1  0  0  0  0
 20 42  1  0  0  0  0
 20 43  1  0  0  0  0
 21 44  1  0  0  0  0
 21 45  1  0  0  0  0
 21 46  1  0  0  0  0
M  END
> <s_m_source_file>
AV-unprocessed.smi

> <i_m_source_file_index>
2996

> <i_lp_mmshare_version>
43012

> <i_f3d_flags>
0

> <s_epik_input>
W0NIM11bQ0gyXWMxbm9jKFtDSDNdKWMxW05IXUMoPU8pW05IXVtDQEBIXShDKE8yKShbQ0gzXSlbQ0gzXSlbQ0gyXUMyKFtDSDNdKVtDSDNd

> <s_epik_cmdline>
J2VwaWtfcHl0aG9uJywgJy1waCcsICc3LjAnLCAnLXRuJywgJzgnLCAnLW1hJywgJzIwMCcsICctbWV0YWxfYmluZGluZycsICctaW1hZScsICc8aW5maWxlLm1hZT4nLCAnLW9tYWUnLCAnPG91dGZpbGUubWFlPic=

> <r_lp_tautomer_probability>
1

> <r_epik_Ionization_Penalty>
3.17207e-05

> <r_epik_Ionization_Penalty_Charging>
0

> <r_epik_Ionization_Penalty_Neutral>
3.17207e-05

> <r_epik_State_Penalty>
-0

> <r_epik_Charging_Adjusted_Penalty>
0

> <i_epik_Tot_Q>
0

> <i_epik_Tot_abs_Q>
0

> <r_epik_Metal_State_Penalty>
-0

> <b_epik_Metal_Only>
0

> <s_lp_Force_Field>
OPLS_2005

> <r_lp_Energy>
17.7476

> <b_lp_Chiralities_Consistent>
1

> <s_lp_Variant>
AV-unprocessed.smi:2996-1

> <Gold.Version>
5.8.1

> <Gold.Id.Protein>
6NUR|6NUR_protein|mol2

> <Gold.PLP.Fitness>
37.8872

> <Gold.PLP.PLP>
-32.2699

> <Gold.PLP.part.hbond>
-4.0000

> <Gold.PLP.part.metal>
0.0000

> <Gold.PLP.part.buried>
-1.5439

> <Gold.PLP.part.nonpolar>
-25.9085

> <Gold.PLP.part.repulsive>
0.2518

> <Gold.PLP.ligand.clash>
0.0000

> <Gold.PLP.ligand.torsion>
0.8566

> <Gold.PLP.Chemscore.Hbond>
2.3910

> <Gold.PLP.Chemscore.CHOScore>
0.0000

> <Gold.PLP.Chemscore.Metal>
0.0000

> <Gold.Chemscore.Hbonds>
donor molecule, donor type, donor heavy atom, donor atom, acceptor molecule, acceptor atom, score
      L1  H     9    30       P1  7948  1.00
      L1  H    12    31       P1  7948  0.90
      P1  H  7989  7998       L1     4  0.43

> <Gold.PLP.Chemscore.Internal.Correction>
0.1574

> <Gold.Rescore>
     Score         DG    S(hbond)    S(metal)    S(lipo)     H(rot)  DE(clash)    DE(int)     intcor
     17.08     -17.98       1.79        0.00      81.20       1.16       0.07       0.83       ----

> <Gold.Chemscore.Fitness>
17.0825

> <Gold.Chemscore.DG>
-17.9765

> <Gold.Chemscore.ZeroCoef>
-5.4800

> <Gold.Chemscore.Hbond>
1.7853

> <Gold.Chemscore.Metal>
0.0000

> <Gold.Chemscore.Lipo>
81.2020

> <Gold.Chemscore.Internal_Hbond>
0.0000

> <Gold.Chemscore.DEClash>
0.0667

> <Gold.Chemscore.DEInternal>
0.8273

> <Gold.Chemscore.Rot>
1.1590

> <Gold.Chemscore.Internal.Correction>
   9.000000E+99

> <Gold.Chemscore.Hbonds>
donor molecule, donor type, donor heavy atom, donor atom, acceptor molecule, acceptor atom, score
      L1  H     9    30       P1  7948  0.96
      L1  H    12    31       P1  7948  0.53

> <Gold.Chemscore.Hbond.Weighted>
-5.9629

> <Gold.Chemscore.Metal.Weighted>
-0.0000

> <Gold.Chemscore.Lipo.Weighted>
-9.5006

> <Gold.Chemscore.Internal_Hbond.Weighted>
0.0000

> <Gold.Chemscore.DEClash.Weighted>
0.0667

> <Gold.Chemscore.DEInternal.Weighted>
0.8273

> <Gold.Chemscore.Rot.Weighted>
2.9671

> <Gold.Chemscore.Internal.Correction.Weighted>
   9.000000E+99

> <Gold.Protein.RotatedTorsions>
[ 6907 6896 6895 6894 ] final  147.30 input  -60.11 | X-H torsion
[ 7974 7965 7964 7962 ] final -165.00 input  175.53 | X-H torsion
[ 8008 7997 7996 7995 ] final  140.21 input   59.86 | X-H torsion
[ 10167 10162 10161 10158 ] final  -60.19 input  -65.29 | X-H torsion
[ 10718 10713 10712 10709 ] final -116.52 input   66.30 | X-H torsion
[ 10763 10752 10751 10750 ] final  162.61 input  -60.55 | X-H torsion
[ 11005 11000 10999 10996 ] final -121.24 input  -57.11 | X-H torsion

> <Gold.Protein.ActiveResidues>
 VAL166  LYS551  ARG553  GLY616  TRP617  ASP618  TYR619  PRO620  LYS621  CYS622 
 ASP623  PHE694  ASN695  SER759  ASP760  ASP761  ALA762  ILE779  LEU786  VAL792 
 PHE793  MET794  SER795  GLU796  ALA797  LYS798  CYS799  TRP800  GLU811  SER814 

> <Gold.Protein.RotatedAtoms>
  152.1566  133.4555  159.4839 H   0  0  0  0  0  0  0  0  0  0  0  0  # atno 6907 bound_to 6896
  150.6901  134.2124  159.4373 H   0  0  0  0  0  0  0  0  0  0  0  0  # atno 6908 bound_to 6896
  152.0023  134.9921  160.0616 H   0  0  0  0  0  0  0  0  0  0  0  0  # atno 6909 bound_to 6896
  144.7281  140.2879  143.6225 H   0  0  0  0  0  0  0  0  0  0  0  0  # atno 7974 bound_to 7965
  156.2981  140.2347  156.4364 H   0  0  0  0  0  0  0  0  0  0  0  0  # atno 8008 bound_to 7997
  154.8224  140.0437  157.1441 H   0  0  0  0  0  0  0  0  0  0  0  0  # atno 8009 bound_to 7997
  154.9299  140.3015  155.5176 H   0  0  0  0  0  0  0  0  0  0  0  0  # atno 8010 bound_to 7997
  140.6087  143.2381  151.5760 H   0  0  0  0  0  0  0  0  0  0  0  0  # atno 10167 bound_to 10162
  156.0969  130.6140  150.9046 H   0  0  0  0  0  0  0  0  0  0  0  0  # atno 10718 bound_to 10713
  154.2810  135.2763  155.2697 H   0  0  0  0  0  0  0  0  0  0  0  0  # atno 10763 bound_to 10752
  154.5218  135.5754  153.6690 H   0  0  0  0  0  0  0  0  0  0  0  0  # atno 10764 bound_to 10752
  152.9929  135.6206  154.2969 H   0  0  0  0  0  0  0  0  0  0  0  0  # atno 10765 bound_to 10752
  141.0085  134.0300  157.3446 H   0  0  0  0  0  0  0  0  0  0  0  0  # atno 11005 bound_to 11000
  145.7885  139.1918  143.2117 LP  0  0  0  0  0  0  0  0  0  0  0  0  # atno 17320 bound_to 7965
  146.0776  140.7800  142.9657 LP  0  0  0  0  0  0  0  0  0  0  0  0  # atno 17321 bound_to 7965
  139.5345  144.2822  152.1220 LP  0  0  0  0  0  0  0  0  0  0  0  0  # atno 17342 bound_to 10162
  140.2016  144.4652  150.6428 LP  0  0  0  0  0  0  0  0  0  0  0  0  # atno 17343 bound_to 10162
  157.6132  131.0935  150.8758 LP  0  0  0  0  0  0  0  0  0  0  0  0  # atno 17370 bound_to 10713
  156.8894  130.5207  149.5287 LP  0  0  0  0  0  0  0  0  0  0  0  0  # atno 17371 bound_to 10713
  139.9076  135.0183  156.7555 LP  0  0  0  0  0  0  0  0  0  0  0  0  # atno 17394 bound_to 11000
  140.6773  133.9506  155.7890 LP  0  0  0  0  0  0  0  0  0  0  0  0  # atno 17395 bound_to 11000

$$$$
