AV-unprocessed.smi:1381|AV-procd|sdf|5604|dock9
  -GOLD-   22720 5213D 1   1.00000     0.00000
 Structure written by MMmdl.
 42 43  0  0  0  0  0  0  0  0  1 V2000
  152.3676  140.4495  158.1793 C   0  0  0  0  0  0  0  0  0  0  0  0
  151.9227  139.9912  156.8329 C   0  0  0  0  0  0  0  0  0  0  0  0
  150.7150  140.0167  156.1940 C   0  0  0  0  0  0  0  0  0  0  0  0
  151.0029  139.4124  154.9415 C   0  0  0  0  0  0  0  0  0  0  0  0
  149.9876  139.2404  153.9663 N   0  0  0  0  0  0  0  0  0  0  0  0
  148.6844  138.9886  154.1769 C   0  0  0  0  0  0  0  0  0  0  0  0
  148.1584  138.8479  155.2814 O   0  0  0  0  0  0  0  0  0  0  0  0
  148.0113  138.9039  153.0205 N   0  0  0  0  0  0  0  0  0  0  0  0
  146.5857  138.6152  152.9015 C   0  0  0  0  0  0  0  0  0  0  0  0
  146.2696  137.7901  151.6386 C   0  0  0  0  0  0  0  0  0  0  0  0
  145.6383  136.4918  151.8790 N   0  0  0  0  0  0  0  0  0  0  0  0
  145.4982  135.7018  150.6579 C   0  0  0  0  0  0  0  0  0  0  0  0
  144.8031  134.3470  150.9011 C   0  0  1  0  0  0  0  0  0  0  0  0
  145.7020  133.3206  151.6121 C   0  0  0  0  0  0  0  0  0  0  0  0
  143.5686  134.5398  151.5934 O   0  0  0  0  0  0  0  0  0  0  0  0
  143.6582  135.3033  152.7950 C   0  0  2  0  0  0  0  0  0  0  0  0
  142.2424  135.4736  153.3563 C   0  0  0  0  0  0  0  0  0  0  0  0
  144.3263  136.6559  152.4914 C   0  0  0  0  0  0  0  0  0  0  0  0
  152.2724  139.0527  154.8251 N   0  0  0  0  0  0  0  0  0  0  0  0
  152.8683  139.4220  156.0368 O   0  0  0  0  0  0  0  0  0  0  0  0
  151.5863  141.0292  158.6711 H   0  0  0  0  0  0  0  0  0  0  0  0
  153.2557  141.0768  158.1018 H   0  0  0  0  0  0  0  0  0  0  0  0
  152.6084  139.5982  158.8165 H   0  0  0  0  0  0  0  0  0  0  0  0
  149.7780  140.4037  156.5665 H   0  0  0  0  0  0  0  0  0  0  0  0
  150.2841  139.3256  153.0055 H   0  0  0  0  0  0  0  0  0  0  0  0
  148.5226  139.0285  152.1591 H   0  0  0  0  0  0  0  0  0  0  0  0
  146.2450  138.0768  153.7873 H   0  0  0  0  0  0  0  0  0  0  0  0
  146.0386  139.5573  152.9000 H   0  0  0  0  0  0  0  0  0  0  0  0
  145.6150  138.3902  151.0049 H   0  0  0  0  0  0  0  0  0  0  0  0
  147.1859  137.6502  151.0635 H   0  0  0  0  0  0  0  0  0  0  0  0
  144.9197  136.2675  149.9259 H   0  0  0  0  0  0  0  0  0  0  0  0
  146.4727  135.5206  150.2055 H   0  0  0  0  0  0  0  0  0  0  0  0
  144.5455  133.9243  149.9296 H   0  0  0  0  0  0  0  0  0  0  0  0
  146.5824  133.0939  151.0105 H   0  0  0  0  0  0  0  0  0  0  0  0
  145.1670  132.3858  151.7790 H   0  0  0  0  0  0  0  0  0  0  0  0
  146.0531  133.6820  152.5783 H   0  0  0  0  0  0  0  0  0  0  0  0
  144.2547  134.7583  153.5274 H   0  0  0  0  0  0  0  0  0  0  0  0
  142.2544  136.0425  154.2864 H   0  0  0  0  0  0  0  0  0  0  0  0
  141.7873  134.5052  153.5650 H   0  0  0  0  0  0  0  0  0  0  0  0
  141.5987  135.9988  152.6501 H   0  0  0  0  0  0  0  0  0  0  0  0
  144.4217  137.2230  153.4182 H   0  0  0  0  0  0  0  0  0  0  0  0
  143.6830  137.2420  151.8330 H   0  0  0  0  0  0  0  0  0  0  0  0
  1  2  1  0  0  0  0
  1 21  1  0  0  0  0
  1 22  1  0  0  0  0
  1 23  1  0  0  0  0
  2 20  1  0  0  0  0
  2  3  2  0  0  0  0
  3  4  1  0  0  0  0
  3 24  1  0  0  0  0
  4  5  1  0  0  0  0
  4 19  2  0  0  0  0
  5  6  1  0  0  0  0
  5 25  1  0  0  0  0
  6  7  2  0  0  0  0
  6  8  1  0  0  0  0
  8  9  1  0  0  0  0
  8 26  1  0  0  0  0
  9 10  1  0  0  0  0
  9 27  1  0  0  0  0
  9 28  1  0  0  0  0
 10 11  1  0  0  0  0
 10 29  1  0  0  0  0
 10 30  1  0  0  0  0
 11 18  1  0  0  0  0
 11 12  1  0  0  0  0
 12 13  1  0  0  0  0
 12 31  1  0  0  0  0
 12 32  1  0  0  0  0
 13 14  1  0  0  0  0
 13 15  1  0  0  0  0
 13 33  1  0  0  0  0
 14 34  1  0  0  0  0
 14 35  1  0  0  0  0
 14 36  1  0  0  0  0
 15 16  1  0  0  0  0
 16 17  1  0  0  0  0
 16 18  1  0  0  0  0
 16 37  1  0  0  0  0
 17 38  1  0  0  0  0
 17 39  1  0  0  0  0
 17 40  1  0  0  0  0
 18 41  1  0  0  0  0
 18 42  1  0  0  0  0
 19 20  1  0  0  0  0
M  END
> <s_m_source_file>
AV-unprocessed.smi

> <i_m_source_file_index>
1381

> <i_lp_mmshare_version>
43012

> <i_f3d_flags>
0

> <s_epik_input>
W0NIM11jMVtjSF1jKG5vMSlbTkhdQyg9TylbTkhdW0NIMl1bQ0gyXU4yW0NIMl1bQ0BASF0oW0NIM10pT1tDQEBIXShbQ0gzXSlbQ0gyXTI=

> <s_epik_cmdline>
J2VwaWtfcHl0aG9uJywgJy1waCcsICc3LjAnLCAnLXRuJywgJzgnLCAnLW1hJywgJzIwMCcsICctbWV0YWxfYmluZGluZycsICctaW1hZScsICc8aW5maWxlLm1hZT4nLCAnLW9tYWUnLCAnPG91dGZpbGUubWFlPic=

> <r_epik_Ionization_Penalty>
0.214073

> <r_epik_Ionization_Penalty_Charging>
0

> <r_epik_Ionization_Penalty_Neutral>
0.214073

> <r_epik_State_Penalty>
0.204211

> <r_epik_Charging_Adjusted_Penalty>
0.204211

> <i_epik_Tot_Q>
0

> <i_epik_Tot_abs_Q>
0

> <r_epik_Metal_State_Penalty>
0.217067

> <b_epik_Metal_Only>
0

> <s_lp_Force_Field>
OPLS_2005

> <r_lp_Energy>
24.2919

> <b_lp_Chiralities_Consistent>
1

> <s_lp_Variant>
AV-unprocessed.smi:1381-3

> <Gold.Version>
5.8.1

> <Gold.Id.Protein>
6NUR|6NUR_protein|mol2

> <Gold.PLP.Fitness>
40.9767

> <Gold.PLP.PLP>
-33.8264

> <Gold.PLP.part.hbond>
-4.7405

> <Gold.PLP.part.metal>
0.0000

> <Gold.PLP.part.buried>
-2.0101

> <Gold.PLP.part.nonpolar>
-27.6081

> <Gold.PLP.part.repulsive>
0.7030

> <Gold.PLP.ligand.clash>
0.0000

> <Gold.PLP.ligand.torsion>
0.7969

> <Gold.PLP.Chemscore.Hbond>
2.9120

> <Gold.PLP.Chemscore.CHOScore>
0.0000

> <Gold.PLP.Chemscore.Metal>
0.0000

> <Gold.Chemscore.Hbonds>
donor molecule, donor type, donor heavy atom, donor atom, acceptor molecule, acceptor atom, score
      L1  H     5    25       P1  7957  0.73
      L1  H     8    26       P1  7957  1.00
      P1  H  7997  8009       L1    20  1.00

> <Gold.PLP.Chemscore.Internal.Correction>
0.0080

> <Gold.Rescore>
     Score         DG    S(hbond)    S(metal)    S(lipo)     H(rot)  DE(clash)    DE(int)     intcor
     16.54     -19.00       2.93        0.00      66.23       1.57       0.71       1.74       ----

> <Gold.Chemscore.Fitness>
16.5385

> <Gold.Chemscore.DG>
-18.9969

> <Gold.Chemscore.ZeroCoef>
-5.4800

> <Gold.Chemscore.Hbond>
2.9301

> <Gold.Chemscore.Metal>
0.0000

> <Gold.Chemscore.Lipo>
66.2304

> <Gold.Chemscore.Internal_Hbond>
0.0000

> <Gold.Chemscore.DEClash>
0.7146

> <Gold.Chemscore.DEInternal>
1.7438

> <Gold.Chemscore.Rot>
1.5697

> <Gold.Chemscore.Internal.Correction>
   9.000000E+99

> <Gold.Chemscore.Hbonds>
donor molecule, donor type, donor heavy atom, donor atom, acceptor molecule, acceptor atom, score
      L1  H     5    25       P1  7957  0.63
      L1  H     8    26       P1  7957  0.93
      P1  H  7997  8009       L1    20  0.78

> <Gold.Chemscore.Hbond.Weighted>
-9.7864

> <Gold.Chemscore.Metal.Weighted>
-0.0000

> <Gold.Chemscore.Lipo.Weighted>
-7.7490

> <Gold.Chemscore.Internal_Hbond.Weighted>
0.0000

> <Gold.Chemscore.DEClash.Weighted>
0.7146

> <Gold.Chemscore.DEInternal.Weighted>
1.7438

> <Gold.Chemscore.Rot.Weighted>
4.0185

> <Gold.Chemscore.Internal.Correction.Weighted>
   9.000000E+99

> <Gold.Protein.RotatedTorsions>
[ 6907 6896 6895 6894 ] final  -14.36 input  -60.11 | X-H torsion
[ 7974 7965 7964 7962 ] final   89.91 input  175.53 | X-H torsion
[ 8008 7997 7996 7995 ] final -159.33 input   59.86 | X-H torsion
[ 10167 10162 10161 10158 ] final  -42.86 input  -65.29 | X-H torsion
[ 10718 10713 10712 10709 ] final   90.47 input   66.30 | X-H torsion
[ 10763 10752 10751 10750 ] final  159.14 input  -60.55 | X-H torsion
[ 11005 11000 10999 10996 ] final -136.70 input  -57.11 | X-H torsion

> <Gold.Protein.ActiveResidues>
 VAL166  LYS551  ARG553  GLY616  TRP617  ASP618  TYR619  PRO620  LYS621  CYS622 
 ASP623  PHE694  ASN695  SER759  ASP760  ASP761  ALA762  ILE779  LEU786  VAL792 
 PHE793  MET794  SER795  GLU796  ALA797  LYS798  CYS799  TRP800  GLU811  SER814 

> <Gold.Protein.RotatedAtoms>
  151.3405  135.0862  159.9369 H   0  0  0  0  0  0  0  0  0  0  0  0  # atno 6907 bound_to 6896
  152.5212  133.9452  159.7656 H   0  0  0  0  0  0  0  0  0  0  0  0  # atno 6908 bound_to 6896
  150.9808  133.6194  159.2752 H   0  0  0  0  0  0  0  0  0  0  0  0  # atno 6909 bound_to 6896
  145.5260  139.2281  143.2645 H   0  0  0  0  0  0  0  0  0  0  0  0  # atno 7974 bound_to 7965
  155.7609  140.0839  157.2155 H   0  0  0  0  0  0  0  0  0  0  0  0  # atno 8008 bound_to 7997
  154.4003  140.1543  156.2888 H   0  0  0  0  0  0  0  0  0  0  0  0  # atno 8009 bound_to 7997
  155.8840  140.3419  155.5911 H   0  0  0  0  0  0  0  0  0  0  0  0  # atno 8010 bound_to 7997
  140.6954  143.3014  151.3270 H   0  0  0  0  0  0  0  0  0  0  0  0  # atno 10167 bound_to 10162
  157.6959  131.0372  150.3583 H   0  0  0  0  0  0  0  0  0  0  0  0  # atno 10718 bound_to 10713
  154.2271  135.2780  155.2903 H   0  0  0  0  0  0  0  0  0  0  0  0  # atno 10763 bound_to 10752
  154.5654  135.5634  153.7049 H   0  0  0  0  0  0  0  0  0  0  0  0  # atno 10764 bound_to 10752
  153.0028  135.6308  154.2412 H   0  0  0  0  0  0  0  0  0  0  0  0  # atno 10765 bound_to 10752
  140.8780  134.1967  157.4609 H   0  0  0  0  0  0  0  0  0  0  0  0  # atno 11005 bound_to 11000
  146.2075  140.6075  142.9074 LP  0  0  0  0  0  0  0  0  0  0  0  0  # atno 17320 bound_to 7965
  144.7650  140.5511  143.6709 LP  0  0  0  0  0  0  0  0  0  0  0  0  # atno 17321 bound_to 7965
  139.6403  144.0551  152.2549 LP  0  0  0  0  0  0  0  0  0  0  0  0  # atno 17342 bound_to 10162
  140.0055  144.6262  150.7693 LP  0  0  0  0  0  0  0  0  0  0  0  0  # atno 17343 bound_to 10162
  156.4023  130.3918  149.6951 LP  0  0  0  0  0  0  0  0  0  0  0  0  # atno 17370 bound_to 10713
  156.4264  130.7794  151.2812 LP  0  0  0  0  0  0  0  0  0  0  0  0  # atno 17371 bound_to 10713
  139.8717  134.9804  156.5076 LP  0  0  0  0  0  0  0  0  0  0  0  0  # atno 17394 bound_to 11000
  140.8495  133.8143  155.9154 LP  0  0  0  0  0  0  0  0  0  0  0  0  # atno 17395 bound_to 11000

$$$$
