AV-unprocessed.smi:1005|AV-procd|sdf|4366|dock5
  -GOLD-   22720 2273D 1   1.00000     0.00000
 Structure written by MMmdl.
 57 59  0  0  0  0  0  0  0  0  3 V2000
  153.0159  142.8164  161.7515 C   0  0  0  0  0  0  0  0  0  0  0  0
  152.4171  142.4820  160.3966 C   0  0  0  0  0  0  0  0  0  0  0  0
  152.4794  141.1505  159.9274 C   0  0  0  0  0  0  0  0  0  0  0  0
  151.9366  140.7988  158.6724 C   0  0  0  0  0  0  0  0  0  0  0  0
  151.8893  139.5766  158.0240 N   0  0  0  0  0  0  0  0  0  0  0  0
  151.2619  139.8953  156.8961 C   0  0  0  0  0  0  0  0  0  0  0  0
  150.9006  141.1827  156.7338 N   0  0  0  0  0  0  0  0  0  0  0  0
  150.2177  141.7599  155.5896 C   0  0  0  0  0  0  0  0  0  0  0  0
  149.4052  140.7139  154.8030 C   0  0  2  0  0  0  0  0  0  0  0  0
  150.2762  139.9675  153.9739 O   0  0  0  0  0  0  0  0  0  0  0  0
  148.3311  141.3716  153.9151 C   0  0  0  0  0  0  0  0  0  0  0  0
  147.1517  141.8232  154.6967 N   0  3  1  0  0  0  0  0  0  0  0  0
  146.4018  142.9308  154.0555 C   0  0  0  0  0  0  0  0  0  0  0  0
  145.2336  143.3716  154.9516 C   0  0  0  0  0  0  0  0  0  0  0  0
  144.3924  142.2562  155.2200 O   0  0  0  0  0  0  0  0  0  0  0  0
  145.0711  141.2184  155.9209 C   0  0  1  0  0  0  0  0  0  0  0  0
  144.0557  140.0985  156.2189 C   0  0  0  0  0  0  0  0  0  0  0  0
  143.0237  139.9530  155.1597 N   0  3  0  0  0  0  0  0  0  0  0  0
  141.9360  140.9546  155.2522 C   0  0  0  0  0  0  0  0  0  0  0  0
  142.4849  138.5760  155.0963 C   0  0  0  0  0  0  0  0  0  0  0  0
  146.2336  140.7121  155.0424 C   0  0  0  0  0  0  0  0  0  0  0  0
  151.3250  141.8239  157.8928 C   0  0  0  0  0  0  0  0  0  0  0  0
  151.2560  143.1519  158.3491 C   0  0  0  0  0  0  0  0  0  0  0  0
  151.8023  143.4860  159.6059 C   0  0  0  0  0  0  0  0  0  0  0  0
  151.7210  144.9224  160.0907 C   0  0  0  0  0  0  0  0  0  0  0  0
  153.4550  141.9359  162.2214 H   0  0  0  0  0  0  0  0  0  0  0  0
  152.2500  143.2066  162.4221 H   0  0  0  0  0  0  0  0  0  0  0  0
  153.8008  143.5658  161.6478 H   0  0  0  0  0  0  0  0  0  0  0  0
  152.9474  140.3855  160.5296 H   0  0  0  0  0  0  0  0  0  0  0  0
  151.0570  139.1505  156.1406 H   0  0  0  0  0  0  0  0  0  0  0  0
  149.5609  142.5526  155.9510 H   0  0  0  0  0  0  0  0  0  0  0  0
  150.9561  142.2387  154.9451 H   0  0  0  0  0  0  0  0  0  0  0  0
  148.9438  140.0299  155.5148 H   0  0  0  0  0  0  0  0  0  0  0  0
  149.8552  139.8362  153.1372 H   0  0  0  0  0  0  0  0  0  0  0  0
  148.7487  142.2190  153.3689 H   0  0  0  0  0  0  0  0  0  0  0  0
  148.0182  140.6491  153.1594 H   0  0  0  0  0  0  0  0  0  0  0  0
  147.0568  143.7815  153.8705 H   0  0  0  0  0  0  0  0  0  0  0  0
  146.0220  142.6039  153.0859 H   0  0  0  0  0  0  0  0  0  0  0  0
  145.5985  143.8032  155.8852 H   0  0  0  0  0  0  0  0  0  0  0  0
  144.6480  144.1431  154.4516 H   0  0  0  0  0  0  0  0  0  0  0  0
  145.4799  141.6122  156.8520 H   0  0  0  0  0  0  0  0  0  0  0  0
  144.6042  139.1605  156.3202 H   0  0  0  0  0  0  0  0  0  0  0  0
  143.5654  140.2707  157.1784 H   0  0  0  0  0  0  0  0  0  0  0  0
  141.4005  140.8652  156.1985 H   0  0  0  0  0  0  0  0  0  0  0  0
  141.2175  140.8142  154.4437 H   0  0  0  0  0  0  0  0  0  0  0  0
  142.3165  141.9717  155.1689 H   0  0  0  0  0  0  0  0  0  0  0  0
  141.9690  138.3150  156.0214 H   0  0  0  0  0  0  0  0  0  0  0  0
  143.2845  137.8525  154.9337 H   0  0  0  0  0  0  0  0  0  0  0  0
  141.7791  138.4749  154.2709 H   0  0  0  0  0  0  0  0  0  0  0  0
  145.8501  140.2599  154.1261 H   0  0  0  0  0  0  0  0  0  0  0  0
  146.7837  139.9368  155.5774 H   0  0  0  0  0  0  0  0  0  0  0  0
  150.7868  143.9079  157.7369 H   0  0  0  0  0  0  0  0  0  0  0  0
  151.2163  145.5597  159.3641 H   0  0  0  0  0  0  0  0  0  0  0  0
  152.7196  145.3279  160.2546 H   0  0  0  0  0  0  0  0  0  0  0  0
  151.1659  144.9785  161.0273 H   0  0  0  0  0  0  0  0  0  0  0  0
  143.4912  140.1070  154.2774 H   0  0  0  0  0  0  0  0  0  0  0  0
  147.5148  142.1747  155.5720 H   0  0  0  0  0  0  0  0  0  0  0  0
  1  2  1  0  0  0  0
  1 26  1  0  0  0  0
  1 27  1  0  0  0  0
  1 28  1  0  0  0  0
  2 24  1  0  0  0  0
  2  3  2  0  0  0  0
  3  4  1  0  0  0  0
  3 29  1  0  0  0  0
  4 22  2  0  0  0  0
  4  5  1  0  0  0  0
  5  6  2  0  0  0  0
  6  7  1  0  0  0  0
  6 30  1  0  0  0  0
  7  8  1  0  0  0  0
  7 22  1  0  0  0  0
  8  9  1  0  0  0  0
  8 31  1  0  0  0  0
  8 32  1  0  0  0  0
  9 10  1  0  0  0  0
  9 11  1  0  0  0  0
  9 33  1  0  0  0  0
 10 34  1  0  0  0  0
 11 12  1  0  0  0  0
 11 35  1  0  0  0  0
 11 36  1  0  0  0  0
 12 21  1  0  0  0  0
 12 13  1  0  0  0  0
 12 57  1  0  0  0  0
 13 14  1  0  0  0  0
 13 37  1  0  0  0  0
 13 38  1  0  0  0  0
 14 15  1  0  0  0  0
 14 39  1  0  0  0  0
 14 40  1  0  0  0  0
 15 16  1  0  0  0  0
 16 17  1  0  0  0  0
 16 21  1  0  0  0  0
 16 41  1  0  0  0  0
 17 18  1  0  0  0  0
 17 42  1  0  0  0  0
 17 43  1  0  0  0  0
 18 19  1  0  0  0  0
 18 20  1  0  0  0  0
 18 56  1  0  0  0  0
 19 44  1  0  0  0  0
 19 45  1  0  0  0  0
 19 46  1  0  0  0  0
 20 47  1  0  0  0  0
 20 48  1  0  0  0  0
 20 49  1  0  0  0  0
 21 50  1  0  0  0  0
 21 51  1  0  0  0  0
 22 23  1  0  0  0  0
 23 24  2  0  0  0  0
 23 52  1  0  0  0  0
 24 25  1  0  0  0  0
 25 53  1  0  0  0  0
 25 54  1  0  0  0  0
 25 55  1  0  0  0  0
M  CHG  1  12   1
M  CHG  1  18   1
M  END
> <s_m_source_file>
AV-unprocessed.smi

> <i_m_source_file_index>
1005

> <i_lp_mmshare_version>
43012

> <i_f3d_flags>
0

> <s_epik_input>
W0NIM11jKFtjSF0xKWMoW0NIM10pW2NIXWMoYzEyKW4oW2NIXW4yKVtDSDJdW0NASF0oW09IXSlbQ0gyXU4zW0NIMl1bQ0gyXU9bQ0BIXShbQ0gyXTMpW0NIMl1OKFtDSDNdKVtDSDNd

> <s_epik_cmdline>
J2VwaWtfcHl0aG9uJywgJy1waCcsICc3LjAnLCAnLXRuJywgJzgnLCAnLW1hJywgJzIwMCcsICctbWV0YWxfYmluZGluZycsICctaW1hZScsICc8aW5maWxlLm1hZT4nLCAnLW9tYWUnLCAnPG91dGZpbGUubWFlPic=

> <r_epik_Ionization_Penalty>
1.0968

> <r_epik_Ionization_Penalty_Charging>
1.0096

> <r_epik_Ionization_Penalty_Neutral>
0.0871956

> <r_epik_State_Penalty>
1.31185

> <r_epik_Charging_Adjusted_Penalty>
2.32145

> <i_epik_Tot_Q>
2

> <i_epik_Tot_abs_Q>
2

> <r_epik_Metal_State_Penalty>
1.22442

> <b_epik_Metal_Only>
0

> <s_lp_Force_Field>
OPLS_2005

> <r_lp_Energy>
32.7622

> <b_lp_Chiralities_Consistent>
1

> <s_lp_Variant>
AV-unprocessed.smi:1005-5

> <Gold.Version>
5.8.1

> <Gold.Id.Protein>
6NUR|6NUR_protein|mol2

> <Gold.PLP.Fitness>
58.4911

> <Gold.PLP.PLP>
-49.1409

> <Gold.PLP.part.hbond>
-3.0000

> <Gold.PLP.part.metal>
0.0000

> <Gold.PLP.part.buried>
-6.5947

> <Gold.PLP.part.nonpolar>
-39.4640

> <Gold.PLP.part.repulsive>
0.2450

> <Gold.PLP.ligand.clash>
0.0000

> <Gold.PLP.ligand.torsion>
1.4274

> <Gold.PLP.Chemscore.Hbond>
4.0000

> <Gold.PLP.Chemscore.CHOScore>
0.0000

> <Gold.PLP.Chemscore.Metal>
0.0000

> <Gold.Chemscore.Hbonds>
donor molecule, donor type, donor heavy atom, donor atom, acceptor molecule, acceptor atom, score
      L1  H    10    34       P1  7957  1.00
      L1  H    18    56       P1 10175  2.00
      P1  H  7989  7998       L1    10  0.94

> <Gold.PLP.Chemscore.Internal.Correction>
0.2050

> <Gold.Rescore>
     Score         DG    S(hbond)    S(metal)    S(lipo)     H(rot)  DE(clash)    DE(int)     intcor
     18.45     -21.30       2.44        0.00     120.00       2.48       0.04       2.82       ----

> <Gold.Chemscore.Fitness>
18.4467

> <Gold.Chemscore.DG>
-21.3046

> <Gold.Chemscore.ZeroCoef>
-5.4800

> <Gold.Chemscore.Hbond>
2.4361

> <Gold.Chemscore.Metal>
0.0000

> <Gold.Chemscore.Lipo>
120.0031

> <Gold.Chemscore.Internal_Hbond>
0.0000

> <Gold.Chemscore.DEClash>
0.0371

> <Gold.Chemscore.DEInternal>
2.8208

> <Gold.Chemscore.Rot>
2.4814

> <Gold.Chemscore.Internal.Correction>
   9.000000E+99

> <Gold.Chemscore.Hbonds>
donor molecule, donor type, donor heavy atom, donor atom, acceptor molecule, acceptor atom, score
      L1  H    10    34       P1  7957  0.95
      L1  H    18    56       P1 10175  0.99
      P1  H  7989  7998       L1    10  0.17

> <Gold.Chemscore.Hbond.Weighted>
-8.1366

> <Gold.Chemscore.Metal.Weighted>
-0.0000

> <Gold.Chemscore.Lipo.Weighted>
-14.0404

> <Gold.Chemscore.Internal_Hbond.Weighted>
0.0000

> <Gold.Chemscore.DEClash.Weighted>
0.0371

> <Gold.Chemscore.DEInternal.Weighted>
2.8208

> <Gold.Chemscore.Rot.Weighted>
6.3524

> <Gold.Chemscore.Internal.Correction.Weighted>
   9.000000E+99

> <Gold.Protein.RotatedTorsions>
[ 6907 6896 6895 6894 ] final -145.60 input  -60.11 | X-H torsion
[ 7974 7965 7964 7962 ] final  173.35 input  175.53 | X-H torsion
[ 8008 7997 7996 7995 ] final   52.88 input   59.86 | X-H torsion
[ 10167 10162 10161 10158 ] final  -43.44 input  -65.29 | X-H torsion
[ 10718 10713 10712 10709 ] final  -25.70 input   66.30 | X-H torsion
[ 10763 10752 10751 10750 ] final  -96.08 input  -60.55 | X-H torsion
[ 11005 11000 10999 10996 ] final -109.48 input  -57.11 | X-H torsion

> <Gold.Protein.ActiveResidues>
 VAL166  LYS551  ARG553  GLY616  TRP617  ASP618  TYR619  PRO620  LYS621  CYS622 
 ASP623  PHE694  ASN695  SER759  ASP760  ASP761  ALA762  ILE779  LEU786  VAL792 
 PHE793  MET794  SER795  GLU796  ALA797  LYS798  CYS799  TRP800  GLU811  SER814 

> <Gold.Protein.RotatedAtoms>
  151.1301  133.5043  159.2599 H   0  0  0  0  0  0  0  0  0  0  0  0  # atno 6907 bound_to 6896
  151.1767  135.0342  159.8785 H   0  0  0  0  0  0  0  0  0  0  0  0  # atno 6908 bound_to 6896
  152.5459  134.1158  159.8431 H   0  0  0  0  0  0  0  0  0  0  0  0  # atno 6909 bound_to 6896
  144.7246  139.9634  143.6435 H   0  0  0  0  0  0  0  0  0  0  0  0  # atno 7974 bound_to 7965
  155.4590  140.3461  155.4310 H   0  0  0  0  0  0  0  0  0  0  0  0  # atno 8008 bound_to 7997
  156.1172  140.1477  156.9285 H   0  0  0  0  0  0  0  0  0  0  0  0  # atno 8009 bound_to 7997
  154.4798  140.0873  156.7328 H   0  0  0  0  0  0  0  0  0  0  0  0  # atno 8010 bound_to 7997
  140.6934  143.2983  151.3352 H   0  0  0  0  0  0  0  0  0  0  0  0  # atno 10167 bound_to 10162
  156.4609  130.4504  149.6929 H   0  0  0  0  0  0  0  0  0  0  0  0  # atno 10718 bound_to 10713
  154.7207  135.5097  153.8807 H   0  0  0  0  0  0  0  0  0  0  0  0  # atno 10763 bound_to 10752
  153.0860  135.6645  153.9958 H   0  0  0  0  0  0  0  0  0  0  0  0  # atno 10764 bound_to 10752
  153.9781  135.3031  155.3402 H   0  0  0  0  0  0  0  0  0  0  0  0  # atno 10765 bound_to 10752
  141.0845  133.9162  157.2216 H   0  0  0  0  0  0  0  0  0  0  0  0  # atno 11005 bound_to 11000
  146.0619  139.3612  143.0576 LP  0  0  0  0  0  0  0  0  0  0  0  0  # atno 17320 bound_to 7965
  145.8081  140.9739  143.0963 LP  0  0  0  0  0  0  0  0  0  0  0  0  # atno 17321 bound_to 7965
  139.6361  144.0629  152.2516 LP  0  0  0  0  0  0  0  0  0  0  0  0  # atno 17342 bound_to 10162
  140.0119  144.6218  150.7640 LP  0  0  0  0  0  0  0  0  0  0  0  0  # atno 17343 bound_to 10162
  156.3717  130.7534  151.2518 LP  0  0  0  0  0  0  0  0  0  0  0  0  # atno 17370 bound_to 10713
  157.7498  131.0321  150.4211 LP  0  0  0  0  0  0  0  0  0  0  0  0  # atno 17371 bound_to 10713
  139.9662  135.0141  156.9393 LP  0  0  0  0  0  0  0  0  0  0  0  0  # atno 17394 bound_to 11000
  140.5394  134.0735  155.7337 LP  0  0  0  0  0  0  0  0  0  0  0  0  # atno 17395 bound_to 11000

$$$$
