AV-unprocessed.smi:1254|AV-procd|sdf|5269|dock2
  -GOLD-   22720 4383D 1   1.00000     0.00000
 Structure written by MMmdl.
 46 47  0  0  0  0  0  0  0  0  2 V2000
  153.0129  143.7774  160.5560 C   0  0  0  0  0  0  0  0  0  0  0  0
  152.2935  143.1647  159.4032 C   0  0  0  0  0  0  0  0  0  0  0  0
  151.4087  143.6629  158.4885 C   0  0  0  0  0  0  0  0  0  0  0  0
  151.1155  142.5331  157.6791 C   0  0  0  0  0  0  0  0  0  0  0  0
  150.2099  142.6306  156.5917 N   0  0  0  0  0  0  0  0  0  0  0  0
  149.7954  141.6417  155.7816 C   0  0  0  0  0  0  0  0  0  0  0  0
  150.1607  140.4679  155.8483 O   0  0  0  0  0  0  0  0  0  0  0  0
  148.9228  142.0916  154.8684 N   0  0  0  0  0  0  0  0  0  0  0  0
  148.2757  141.2686  153.8505 C   0  0  0  0  0  0  0  0  0  0  0  0
  146.7765  141.0379  154.1261 C   0  0  2  0  0  0  0  0  0  0  0  0
  146.0178  142.3311  154.4942 C   0  0  0  0  0  0  0  0  0  0  0  0
  144.6010  142.0286  154.8155 N   0  3  2  0  0  0  0  0  0  0  0  0
  143.7863  143.2301  155.1307 C   0  0  0  0  0  0  0  0  0  0  0  0
  144.5692  144.3193  155.8969 C   0  0  0  0  0  0  0  0  0  0  0  0
  145.1312  143.7537  157.2096 C   0  0  0  0  0  0  0  0  0  0  0  0
  143.7069  145.5625  156.1741 C   0  0  0  0  0  0  0  0  0  0  0  0
  144.5225  141.0001  155.8795 C   0  0  0  0  0  0  0  0  0  0  0  0
  145.3263  139.7525  155.4800 C   0  0  0  0  0  0  0  0  0  0  0  0
  146.6729  140.1209  155.2100 O   0  0  0  0  0  0  0  0  0  0  0  0
  151.7660  141.4449  158.0618 N   0  0  0  0  0  0  0  0  0  0  0  0
  152.5228  141.8437  159.1699 O   0  0  0  0  0  0  0  0  0  0  0  0
  153.1508  144.8480  160.4034 H   0  0  0  0  0  0  0  0  0  0  0  0
  153.9967  143.3257  160.6866 H   0  0  0  0  0  0  0  0  0  0  0  0
  152.4504  143.6369  161.4791 H   0  0  0  0  0  0  0  0  0  0  0  0
  151.0320  144.6724  158.4155 H   0  0  0  0  0  0  0  0  0  0  0  0
  149.8287  143.5493  156.4213 H   0  0  0  0  0  0  0  0  0  0  0  0
  148.6739  143.0698  154.8884 H   0  0  0  0  0  0  0  0  0  0  0  0
  148.4104  141.7308  152.8711 H   0  0  0  0  0  0  0  0  0  0  0  0
  148.7962  140.3112  153.8122 H   0  0  0  0  0  0  0  0  0  0  0  0
  146.3186  140.5867  153.2441 H   0  0  0  0  0  0  0  0  0  0  0  0
  146.4924  142.8165  155.3486 H   0  0  0  0  0  0  0  0  0  0  0  0
  146.0686  143.0300  153.6609 H   0  0  0  0  0  0  0  0  0  0  0  0
  143.4184  143.6658  154.2003 H   0  0  0  0  0  0  0  0  0  0  0  0
  142.9026  142.9252  155.6935 H   0  0  0  0  0  0  0  0  0  0  0  0
  145.4266  144.6314  155.3015 H   0  0  0  0  0  0  0  0  0  0  0  0
  144.3318  143.4266  157.8756 H   0  0  0  0  0  0  0  0  0  0  0  0
  145.7206  144.5017  157.7408 H   0  0  0  0  0  0  0  0  0  0  0  0
  145.7807  142.8974  157.0240 H   0  0  0  0  0  0  0  0  0  0  0  0
  142.8257  145.3109  156.7653 H   0  0  0  0  0  0  0  0  0  0  0  0
  143.3659  146.0276  155.2488 H   0  0  0  0  0  0  0  0  0  0  0  0
  144.2713  146.3158  156.7247 H   0  0  0  0  0  0  0  0  0  0  0  0
  144.9071  141.4107  156.8145 H   0  0  0  0  0  0  0  0  0  0  0  0
  143.4822  140.7232  156.0541 H   0  0  0  0  0  0  0  0  0  0  0  0
  145.3150  139.0233  156.2905 H   0  0  0  0  0  0  0  0  0  0  0  0
  144.8858  139.2662  154.6082 H   0  0  0  0  0  0  0  0  0  0  0  0
  144.1928  141.6130  153.9902 H   0  0  0  0  0  0  0  0  0  0  0  0
  1  2  1  0  0  0  0
  1 22  1  0  0  0  0
  1 23  1  0  0  0  0
  1 24  1  0  0  0  0
  2 21  1  0  0  0  0
  2  3  2  0  0  0  0
  3  4  1  0  0  0  0
  3 25  1  0  0  0  0
  4  5  1  0  0  0  0
  4 20  2  0  0  0  0
  5  6  1  0  0  0  0
  5 26  1  0  0  0  0
  6  7  2  0  0  0  0
  6  8  1  0  0  0  0
  8  9  1  0  0  0  0
  8 27  1  0  0  0  0
  9 10  1  0  0  0  0
  9 28  1  0  0  0  0
  9 29  1  0  0  0  0
 10 19  1  0  0  0  0
 10 11  1  0  0  0  0
 10 30  1  0  0  0  0
 11 12  1  0  0  0  0
 11 31  1  0  0  0  0
 11 32  1  0  0  0  0
 12 13  1  0  0  0  0
 12 17  1  0  0  0  0
 12 46  1  0  0  0  0
 13 14  1  0  0  0  0
 13 33  1  0  0  0  0
 13 34  1  0  0  0  0
 14 15  1  0  0  0  0
 14 16  1  0  0  0  0
 14 35  1  0  0  0  0
 15 36  1  0  0  0  0
 15 37  1  0  0  0  0
 15 38  1  0  0  0  0
 16 39  1  0  0  0  0
 16 40  1  0  0  0  0
 16 41  1  0  0  0  0
 17 18  1  0  0  0  0
 17 42  1  0  0  0  0
 17 43  1  0  0  0  0
 18 19  1  0  0  0  0
 18 44  1  0  0  0  0
 18 45  1  0  0  0  0
 20 21  1  0  0  0  0
M  CHG  1  12   1
M  END
> <s_m_source_file>
AV-unprocessed.smi

> <i_m_source_file_index>
1254

> <i_lp_mmshare_version>
43012

> <i_f3d_flags>
0

> <s_epik_input>
W0NIM11jMVtjSF1jKG5vMSlbTkhdQyg9TylbTkhdW0NIMl1bQ0BASF0yW0NIMl1OKFtDSDJdW0NIMl1PMilbQ0gyXVtDSF0oW0NIM10pW0NIM10=

> <s_epik_cmdline>
J2VwaWtfcHl0aG9uJywgJy1waCcsICc3LjAnLCAnLXRuJywgJzgnLCAnLW1hJywgJzIwMCcsICctbWV0YWxfYmluZGluZycsICctaW1hZScsICc8aW5maWxlLm1hZT4nLCAnLW9tYWUnLCAnPG91dGZpbGUubWFlPic=

> <r_epik_Ionization_Penalty>
0.0986825

> <r_epik_Ionization_Penalty_Charging>
0.0986478

> <r_epik_Ionization_Penalty_Neutral>
3.46838e-05

> <r_epik_State_Penalty>
0.0887259

> <r_epik_Charging_Adjusted_Penalty>
0.187374

> <i_epik_Tot_Q>
1

> <i_epik_Tot_abs_Q>
1

> <r_epik_Metal_State_Penalty>
0.103424

> <b_epik_Metal_Only>
0

> <s_lp_Force_Field>
OPLS_2005

> <r_lp_Energy>
15.3676

> <b_lp_Chiralities_Consistent>
1

> <s_lp_Variant>
AV-unprocessed.smi:1254-1

> <Gold.Version>
5.8.1

> <Gold.Id.Protein>
6NUR|6NUR_protein|mol2

> <Gold.PLP.Fitness>
42.2694

> <Gold.PLP.PLP>
-31.0675

> <Gold.PLP.part.hbond>
-3.0000

> <Gold.PLP.part.metal>
0.0000

> <Gold.PLP.part.buried>
-5.9744

> <Gold.PLP.part.nonpolar>
-23.4951

> <Gold.PLP.part.repulsive>
0.3336

> <Gold.PLP.ligand.clash>
0.0000

> <Gold.PLP.ligand.torsion>
0.4725

> <Gold.PLP.Chemscore.Hbond>
4.0000

> <Gold.PLP.Chemscore.CHOScore>
0.0000

> <Gold.PLP.Chemscore.Metal>
0.0000

> <Gold.Chemscore.Hbonds>
donor molecule, donor type, donor heavy atom, donor atom, acceptor molecule, acceptor atom, score
      L1  H     5    26       P1  8028  1.00
      L1  H     8    27       P1  8028  0.99
      L1  H    12    46       P1 10175  1.50

> <Gold.PLP.Chemscore.Internal.Correction>
0.1469

> <Gold.Rescore>
     Score         DG    S(hbond)    S(metal)    S(lipo)     H(rot)  DE(clash)    DE(int)     intcor
     16.29     -18.31       2.89        0.00      64.86       1.73       0.16       1.85       ----

> <Gold.Chemscore.Fitness>
16.2919

> <Gold.Chemscore.DG>
-18.3073

> <Gold.Chemscore.ZeroCoef>
-5.4800

> <Gold.Chemscore.Hbond>
2.8938

> <Gold.Chemscore.Metal>
0.0000

> <Gold.Chemscore.Lipo>
64.8578

> <Gold.Chemscore.Internal_Hbond>
0.0000

> <Gold.Chemscore.DEClash>
0.1611

> <Gold.Chemscore.DEInternal>
1.8543

> <Gold.Chemscore.Rot>
1.7291

> <Gold.Chemscore.Internal.Correction>
   9.000000E+99

> <Gold.Chemscore.Hbonds>
donor molecule, donor type, donor heavy atom, donor atom, acceptor molecule, acceptor atom, score
      L1  H     5    26       P1  8028  0.99
      L1  H     8    27       P1  8028  0.94
      L1  H    12    46       P1 10175  0.09

> <Gold.Chemscore.Hbond.Weighted>
-9.6654

> <Gold.Chemscore.Metal.Weighted>
-0.0000

> <Gold.Chemscore.Lipo.Weighted>
-7.5884

> <Gold.Chemscore.Internal_Hbond.Weighted>
0.0000

> <Gold.Chemscore.DEClash.Weighted>
0.1611

> <Gold.Chemscore.DEInternal.Weighted>
1.8543

> <Gold.Chemscore.Rot.Weighted>
4.4265

> <Gold.Chemscore.Internal.Correction.Weighted>
   9.000000E+99

> <Gold.Protein.RotatedTorsions>
[ 6907 6896 6895 6894 ] final   82.86 input  -60.11 | X-H torsion
[ 7974 7965 7964 7962 ] final  -53.57 input  175.53 | X-H torsion
[ 8008 7997 7996 7995 ] final  -90.30 input   59.86 | X-H torsion
[ 10167 10162 10161 10158 ] final  -57.84 input  -65.29 | X-H torsion
[ 10718 10713 10712 10709 ] final  -11.28 input   66.30 | X-H torsion
[ 10763 10752 10751 10750 ] final   -6.35 input  -60.55 | X-H torsion
[ 11005 11000 10999 10996 ] final  -98.36 input  -57.11 | X-H torsion

> <Gold.Protein.ActiveResidues>
 VAL166  LYS551  ARG553  GLY616  TRP617  ASP618  TYR619  PRO620  LYS621  CYS622 
 ASP623  PHE694  ASN695  SER759  ASP760  ASP761  ALA762  ILE779  LEU786  VAL792 
 PHE793  MET794  SER795  GLU796  ALA797  LYS798  CYS799  TRP800  GLU811  SER814 

> <Gold.Protein.RotatedAtoms>
  152.5311  134.2985  159.9069 H   0  0  0  0  0  0  0  0  0  0  0  0  # atno 6907 bound_to 6896
  151.2936  133.4148  159.2642 H   0  0  0  0  0  0  0  0  0  0  0  0  # atno 6908 bound_to 6896
  151.0180  134.9463  159.8101 H   0  0  0  0  0  0  0  0  0  0  0  0  # atno 6909 bound_to 6896
  145.8954  140.8037  142.9770 H   0  0  0  0  0  0  0  0  0  0  0  0  # atno 7974 bound_to 7965
  154.6969  140.0532  157.0419 H   0  0  0  0  0  0  0  0  0  0  0  0  # atno 8008 bound_to 7997
  155.0738  140.3202  155.4603 H   0  0  0  0  0  0  0  0  0  0  0  0  # atno 8009 bound_to 7997
  156.2747  140.2077  156.5866 H   0  0  0  0  0  0  0  0  0  0  0  0  # atno 8010 bound_to 7997
  140.6233  143.2428  151.5425 H   0  0  0  0  0  0  0  0  0  0  0  0  # atno 10167 bound_to 10162
  156.6613  130.4983  149.6029 H   0  0  0  0  0  0  0  0  0  0  0  0  # atno 10718 bound_to 10713
  153.4111  135.7007  153.6359 H   0  0  0  0  0  0  0  0  0  0  0  0  # atno 10763 bound_to 10752
  153.4852  135.3685  155.2463 H   0  0  0  0  0  0  0  0  0  0  0  0  # atno 10764 bound_to 10752
  154.8717  135.4075  154.3463 H   0  0  0  0  0  0  0  0  0  0  0  0  # atno 10765 bound_to 10752
  141.1347  133.8239  157.0829 H   0  0  0  0  0  0  0  0  0  0  0  0  # atno 11005 bound_to 11000
  144.6732  140.1594  143.7423 LP  0  0  0  0  0  0  0  0  0  0  0  0  # atno 17320 bound_to 7965
  145.8857  139.2348  143.1579 LP  0  0  0  0  0  0  0  0  0  0  0  0  # atno 17321 bound_to 7965
  139.5458  144.2525  152.1439 LP  0  0  0  0  0  0  0  0  0  0  0  0  # atno 17342 bound_to 10162
  140.1751  144.4899  150.6558 LP  0  0  0  0  0  0  0  0  0  0  0  0  # atno 17343 bound_to 10162
  156.2008  130.6619  151.1165 LP  0  0  0  0  0  0  0  0  0  0  0  0  # atno 17370 bound_to 10713
  157.7108  131.0735  150.6506 LP  0  0  0  0  0  0  0  0  0  0  0  0  # atno 17371 bound_to 10713
  140.0440  134.9840  157.1015 LP  0  0  0  0  0  0  0  0  0  0  0  0  # atno 17394 bound_to 11000
  140.4091  134.2001  155.7163 LP  0  0  0  0  0  0  0  0  0  0  0  0  # atno 17395 bound_to 11000

$$$$
