AV-unprocessed.smi:1327|AV-procd|sdf|5477|dock8
  -GOLD-   22720 5 53D 1   1.00000     0.00000
 Structure written by MMmdl.
 40 41  0  0  0  0  0  0  0  0  1 V2000
  151.8978  138.6633  157.1402 O   0  0  0  0  0  0  0  0  0  0  0  0
  150.7738  139.4901  157.6054 S   0  0  0  0  0  0  0  0  0  0  0  0
  149.6531  139.8182  156.7108 O   0  0  0  0  0  0  0  0  0  0  0  0
  150.1187  138.7760  159.0290 N   0  0  0  0  0  0  0  0  0  0  0  0
  149.6628  137.3881  158.9734 C   0  0  0  0  0  0  0  0  0  0  0  0
  148.1286  137.3103  158.9033 C   0  0  0  0  0  0  0  0  0  0  0  0
  147.4955  136.7487  160.1662 C   0  0  0  0  0  0  0  0  0  0  0  0
  147.3105  135.3575  160.3168 C   0  0  0  0  0  0  0  0  0  0  0  0
  146.7092  134.8835  161.4987 C   0  0  0  0  0  0  0  0  0  0  0  0
  146.3159  135.8138  162.4798 C   0  0  0  0  0  0  0  0  0  0  0  0
  146.5435  137.1826  162.2347 C   0  0  0  0  0  0  0  0  0  0  0  0
  147.1205  137.6474  161.1056 N   0  0  0  0  0  0  0  0  0  0  0  0
  151.4066  140.9517  158.2923 N   0  0  0  0  0  0  0  0  0  0  0  0
  152.0574  140.8701  159.6122 C   0  0  0  0  0  0  0  0  0  0  0  0
  153.1376  141.9485  159.8255 C   0  0  0  0  0  0  0  0  0  0  0  0
  152.5669  143.3568  160.0526 C   0  0  0  0  0  0  0  0  0  0  0  0
  152.2511  144.1416  158.7671 C   0  0  0  0  0  0  0  0  0  0  0  0
  151.6921  143.3157  157.5956 C   0  0  0  0  0  0  0  0  0  0  0  0
  150.7013  142.2149  158.0020 C   0  0  0  0  0  0  0  0  0  0  0  0
  149.4507  139.3912  159.4939 H   0  0  0  0  0  0  0  0  0  0  0  0
  150.1064  136.8946  158.1079 H   0  0  0  0  0  0  0  0  0  0  0  0
  150.0247  136.8677  159.8603 H   0  0  0  0  0  0  0  0  0  0  0  0
  147.7259  138.3080  158.7252 H   0  0  0  0  0  0  0  0  0  0  0  0
  147.8229  136.7072  158.0472 H   0  0  0  0  0  0  0  0  0  0  0  0
  147.6190  134.6683  159.5444 H   0  0  0  0  0  0  0  0  0  0  0  0
  146.5517  133.8258  161.6494 H   0  0  0  0  0  0  0  0  0  0  0  0
  145.8508  135.4868  163.3979 H   0  0  0  0  0  0  0  0  0  0  0  0
  146.2535  137.9233  162.9650 H   0  0  0  0  0  0  0  0  0  0  0  0
  151.2984  140.9149  160.3940 H   0  0  0  0  0  0  0  0  0  0  0  0
  152.5348  139.8955  159.7112 H   0  0  0  0  0  0  0  0  0  0  0  0
  153.7005  141.6719  160.7177 H   0  0  0  0  0  0  0  0  0  0  0  0
  153.8612  141.9458  159.0095 H   0  0  0  0  0  0  0  0  0  0  0  0
  151.6716  143.2869  160.6718 H   0  0  0  0  0  0  0  0  0  0  0  0
  153.2775  143.9406  160.6386 H   0  0  0  0  0  0  0  0  0  0  0  0
  151.5449  144.9341  159.0176 H   0  0  0  0  0  0  0  0  0  0  0  0
  153.1530  144.6503  158.4246 H   0  0  0  0  0  0  0  0  0  0  0  0
  151.1995  144.0013  156.9055 H   0  0  0  0  0  0  0  0  0  0  0  0
  152.5116  142.8749  157.0257 H   0  0  0  0  0  0  0  0  0  0  0  0
  150.0090  142.0547  157.1756 H   0  0  0  0  0  0  0  0  0  0  0  0
  150.0835  142.5117  158.8504 H   0  0  0  0  0  0  0  0  0  0  0  0
  1  2  2  0  0  0  0
  2  3  2  0  0  0  0
  2  4  1  0  0  0  0
  2 13  1  0  0  0  0
  4  5  1  0  0  0  0
  4 20  1  0  0  0  0
  5  6  1  0  0  0  0
  5 21  1  0  0  0  0
  5 22  1  0  0  0  0
  6  7  1  0  0  0  0
  6 23  1  0  0  0  0
  6 24  1  0  0  0  0
  7 12  1  0  0  0  0
  7  8  2  0  0  0  0
  8  9  1  0  0  0  0
  8 25  1  0  0  0  0
  9 10  2  0  0  0  0
  9 26  1  0  0  0  0
 10 11  1  0  0  0  0
 10 27  1  0  0  0  0
 11 12  2  0  0  0  0
 11 28  1  0  0  0  0
 13 19  1  0  0  0  0
 13 14  1  0  0  0  0
 14 15  1  0  0  0  0
 14 29  1  0  0  0  0
 14 30  1  0  0  0  0
 15 16  1  0  0  0  0
 15 31  1  0  0  0  0
 15 32  1  0  0  0  0
 16 17  1  0  0  0  0
 16 33  1  0  0  0  0
 16 34  1  0  0  0  0
 17 18  1  0  0  0  0
 17 35  1  0  0  0  0
 17 36  1  0  0  0  0
 18 19  1  0  0  0  0
 18 37  1  0  0  0  0
 18 38  1  0  0  0  0
 19 39  1  0  0  0  0
 19 40  1  0  0  0  0
M  END
> <s_m_source_file>
AV-unprocessed.smi

> <i_m_source_file_index>
1327

> <i_lp_mmshare_version>
43012

> <i_f3d_flags>
0

> <s_epik_input>
W0NIMl0xW0NIMl1bQ0gyXVtDSDJdW0NIMl1bQ0gyXU4xUyg9TykoPU8pW05IXVtDSDJdW0NIMl1jMltjSF1bY0hdW2NIXVtjSF1uMg==

> <s_epik_cmdline>
J2VwaWtfcHl0aG9uJywgJy1waCcsICc3LjAnLCAnLXRuJywgJzgnLCAnLW1hJywgJzIwMCcsICctbWV0YWxfYmluZGluZycsICctaW1hZScsICc8aW5maWxlLm1hZT4nLCAnLW9tYWUnLCAnPG91dGZpbGUubWFlPic=

> <r_lp_tautomer_probability>
1

> <r_epik_Ionization_Penalty>
0.00665037

> <r_epik_Ionization_Penalty_Charging>
0

> <r_epik_Ionization_Penalty_Neutral>
0.00665037

> <r_epik_State_Penalty>
-0

> <r_epik_Charging_Adjusted_Penalty>
0

> <i_epik_Tot_Q>
0

> <i_epik_Tot_abs_Q>
0

> <r_epik_Metal_State_Penalty>
0.361784

> <b_epik_Metal_Only>
0

> <s_lp_Force_Field>
OPLS_2005

> <r_lp_Energy>
15.8899

> <b_lp_Chiralities_Consistent>
1

> <s_lp_Variant>
AV-unprocessed.smi:1327-1

> <Gold.Version>
5.8.1

> <Gold.Id.Protein>
6NUR|6NUR_protein|mol2

> <Gold.PLP.Fitness>
47.2530

> <Gold.PLP.PLP>
-44.4310

> <Gold.PLP.part.hbond>
-2.7966

> <Gold.PLP.part.metal>
0.0000

> <Gold.PLP.part.buried>
-4.7853

> <Gold.PLP.part.nonpolar>
-36.7878

> <Gold.PLP.part.repulsive>
0.0000

> <Gold.PLP.ligand.clash>
0.0000

> <Gold.PLP.ligand.torsion>
2.2813

> <Gold.PLP.Chemscore.Hbond>
1.7520

> <Gold.PLP.Chemscore.CHOScore>
0.0000

> <Gold.PLP.Chemscore.Metal>
0.0000

> <Gold.Chemscore.Hbonds>
donor molecule, donor type, donor heavy atom, donor atom, acceptor molecule, acceptor atom, score
      P1  H  6931  6943       L1    12  0.41
      P1  H  6934  6947       L1    12  0.63

> <Gold.PLP.Chemscore.Internal.Correction>
2.1286

> <Gold.Rescore>
     Score         DG    S(hbond)    S(metal)    S(lipo)     H(rot)  DE(clash)    DE(int)     intcor
     16.50     -18.69       1.34        0.00     106.96       1.47       0.01       2.18       ----

> <Gold.Chemscore.Fitness>
16.5001

> <Gold.Chemscore.DG>
-18.6899

> <Gold.Chemscore.ZeroCoef>
-5.4800

> <Gold.Chemscore.Hbond>
1.3371

> <Gold.Chemscore.Metal>
0.0000

> <Gold.Chemscore.Lipo>
106.9557

> <Gold.Chemscore.Internal_Hbond>
0.0000

> <Gold.Chemscore.DEClash>
0.0121

> <Gold.Chemscore.DEInternal>
2.1776

> <Gold.Chemscore.Rot>
1.4725

> <Gold.Chemscore.Internal.Correction>
   9.000000E+99

> <Gold.Chemscore.Hbonds>
donor molecule, donor type, donor heavy atom, donor atom, acceptor molecule, acceptor atom, score
      P1  H  6931  6943       L1    12  0.04
      P1  H  6934  6947       L1    12  0.60

> <Gold.Chemscore.Hbond.Weighted>
-4.4658

> <Gold.Chemscore.Metal.Weighted>
-0.0000

> <Gold.Chemscore.Lipo.Weighted>
-12.5138

> <Gold.Chemscore.Internal_Hbond.Weighted>
0.0000

> <Gold.Chemscore.DEClash.Weighted>
0.0121

> <Gold.Chemscore.DEInternal.Weighted>
2.1776

> <Gold.Chemscore.Rot.Weighted>
3.7697

> <Gold.Chemscore.Internal.Correction.Weighted>
   9.000000E+99

> <Gold.Protein.RotatedTorsions>
[ 6907 6896 6895 6894 ] final  -75.15 input  -60.11 | X-H torsion
[ 7974 7965 7964 7962 ] final  -26.86 input  175.53 | X-H torsion
[ 8008 7997 7996 7995 ] final  137.30 input   59.86 | X-H torsion
[ 10167 10162 10161 10158 ] final  -32.31 input  -65.29 | X-H torsion
[ 10718 10713 10712 10709 ] final  -54.15 input   66.30 | X-H torsion
[ 10763 10752 10751 10750 ] final  -33.22 input  -60.55 | X-H torsion
[ 11005 11000 10999 10996 ] final   54.30 input  -57.11 | X-H torsion

> <Gold.Protein.ActiveResidues>
 VAL166  LYS551  ARG553  GLY616  TRP617  ASP618  TYR619  PRO620  LYS621  CYS622 
 ASP623  PHE694  ASN695  SER759  ASP760  ASP761  ALA762  ILE779  LEU786  VAL792 
 PHE793  MET794  SER795  GLU796  ALA797  LYS798  CYS799  TRP800  GLU811  SER814 

> <Gold.Protein.RotatedAtoms>
  150.7069  134.4764  159.5449 H   0  0  0  0  0  0  0  0  0  0  0  0  # atno 6907 bound_to 6896
  152.2410  134.8225  160.0469 H   0  0  0  0  0  0  0  0  0  0  0  0  # atno 6908 bound_to 6896
  151.9007  133.3502  159.3866 H   0  0  0  0  0  0  0  0  0  0  0  0  # atno 6909 bound_to 6896
  146.1397  140.5075  142.8657 H   0  0  0  0  0  0  0  0  0  0  0  0  # atno 7974 bound_to 7965
  156.3002  140.2423  156.3886 H   0  0  0  0  0  0  0  0  0  0  0  0  # atno 8008 bound_to 7997
  154.8634  140.0419  157.1699 H   0  0  0  0  0  0  0  0  0  0  0  0  # atno 8009 bound_to 7997
  154.8872  140.2958  155.5395 H   0  0  0  0  0  0  0  0  0  0  0  0  # atno 8010 bound_to 7997
  140.7223  143.3704  151.1789 H   0  0  0  0  0  0  0  0  0  0  0  0  # atno 10167 bound_to 10162
  156.1475  130.4152  150.0000 H   0  0  0  0  0  0  0  0  0  0  0  0  # atno 10718 bound_to 10713
  153.8266  135.6869  153.4820 H   0  0  0  0  0  0  0  0  0  0  0  0  # atno 10763 bound_to 10752
  153.1536  135.4608  154.9671 H   0  0  0  0  0  0  0  0  0  0  0  0  # atno 10764 bound_to 10752
  154.7905  135.3300  154.7733 H   0  0  0  0  0  0  0  0  0  0  0  0  # atno 10765 bound_to 10752
  140.0697  134.5486  155.9060 H   0  0  0  0  0  0  0  0  0  0  0  0  # atno 11005 bound_to 11000
  144.7779  140.5778  143.6626 LP  0  0  0  0  0  0  0  0  0  0  0  0  # atno 17320 bound_to 7965
  145.5075  139.1480  143.3623 LP  0  0  0  0  0  0  0  0  0  0  0  0  # atno 17321 bound_to 7965
  139.7274  143.9126  152.3007 LP  0  0  0  0  0  0  0  0  0  0  0  0  # atno 17342 bound_to 10162
  139.8904  144.6969  150.8777 LP  0  0  0  0  0  0  0  0  0  0  0  0  # atno 17343 bound_to 10162
  156.7867  130.9241  151.3646 LP  0  0  0  0  0  0  0  0  0  0  0  0  # atno 17370 bound_to 10713
  157.6629  130.8982  149.9868 LP  0  0  0  0  0  0  0  0  0  0  0  0  # atno 17371 bound_to 10713
  141.2007  133.6614  156.5911 LP  0  0  0  0  0  0  0  0  0  0  0  0  # atno 17394 bound_to 11000
  140.3645  134.7659  157.4557 LP  0  0  0  0  0  0  0  0  0  0  0  0  # atno 17395 bound_to 11000

$$$$
