AV-unprocessed.smi:2448|AV-procd|sdf|9651|dock2
  -GOLD-   2272013283D 1   1.00000     0.00000
 Structure written by MMmdl.
 37 38  0  0  0  0  0  0  0  0  1 V2000
  148.5205  138.7401  152.9445 O   0  0  0  0  0  0  0  0  0  0  0  0
  147.1549  139.0798  152.7791 C   0  0  1  0  0  0  0  0  0  0  0  0
  146.4907  137.9904  151.9126 C   0  0  0  0  0  0  0  0  0  0  0  0
  146.5723  136.6668  152.5329 N   0  0  0  0  0  0  0  0  0  0  0  0
  145.5220  135.7043  152.1661 C   0  0  2  0  0  0  0  0  0  0  0  0
  145.2213  135.6796  150.6437 C   0  0  0  0  0  0  0  0  0  0  0  0
  144.7954  134.3307  150.0852 C   0  0  0  0  0  0  0  0  0  0  0  0
  144.7645  133.1880  150.9124 C   0  0  0  0  0  0  0  0  0  0  0  0
  144.3637  131.9596  150.3502 C   0  0  0  0  0  0  0  0  0  0  0  0
  144.0119  131.8166  149.0546 N   0  0  0  0  0  0  0  0  0  0  0  0
  144.0550  132.9108  148.2648 C   0  0  0  0  0  0  0  0  0  0  0  0
  144.4405  134.1849  148.7273 C   0  0  0  0  0  0  0  0  0  0  0  0
  144.2450  136.0058  152.9791 C   0  0  0  0  0  0  0  0  0  0  0  0
  144.5468  136.1170  154.2735 F   0  0  0  0  0  0  0  0  0  0  0  0
  143.6812  137.1428  152.5689 F   0  0  0  0  0  0  0  0  0  0  0  0
  143.3653  135.0131  152.8446 F   0  0  0  0  0  0  0  0  0  0  0  0
  146.5251  139.1481  154.1803 C   0  0  0  0  0  0  0  0  0  0  0  0
  147.0119  140.4357  154.8515 C   0  0  0  0  0  0  0  0  0  0  0  0
  147.1783  141.6926  153.5602 S   0  0  0  0  0  0  0  0  0  0  0  0
  147.0313  140.5017  152.2003 C   0  0  0  0  0  0  0  0  0  0  0  0
  148.7435  138.0761  152.3102 H   0  0  0  0  0  0  0  0  0  0  0  0
  145.4546  138.2674  151.7282 H   0  0  0  0  0  0  0  0  0  0  0  0
  146.9850  137.9623  150.9407 H   0  0  0  0  0  0  0  0  0  0  0  0
  147.4820  136.2587  152.3419 H   0  0  0  0  0  0  0  0  0  0  0  0
  145.8392  134.7080  152.4750 H   0  0  0  0  0  0  0  0  0  0  0  0
  144.4048  136.3662  150.4206 H   0  0  0  0  0  0  0  0  0  0  0  0
  146.0819  136.0574  150.0900 H   0  0  0  0  0  0  0  0  0  0  0  0
  145.0351  133.2479  151.9564 H   0  0  0  0  0  0  0  0  0  0  0  0
  144.3239  131.0679  150.9583 H   0  0  0  0  0  0  0  0  0  0  0  0
  143.7744  132.7667  147.2319 H   0  0  0  0  0  0  0  0  0  0  0  0
  144.4612  135.0266  148.0508 H   0  0  0  0  0  0  0  0  0  0  0  0
  145.4392  139.1932  154.0870 H   0  0  0  0  0  0  0  0  0  0  0  0
  146.7526  138.2675  154.7824 H   0  0  0  0  0  0  0  0  0  0  0  0
  146.3371  140.7689  155.6403 H   0  0  0  0  0  0  0  0  0  0  0  0
  147.9933  140.2775  155.2996 H   0  0  0  0  0  0  0  0  0  0  0  0
  147.7686  140.7044  151.4225 H   0  0  0  0  0  0  0  0  0  0  0  0
  146.0445  140.6391  151.7569 H   0  0  0  0  0  0  0  0  0  0  0  0
  1  2  1  0  0  0  0
  1 21  1  0  0  0  0
  2 20  1  0  0  0  0
  2  3  1  0  0  0  0
  2 17  1  0  0  0  0
  3  4  1  0  0  0  0
  3 22  1  0  0  0  0
  3 23  1  0  0  0  0
  4  5  1  0  0  0  0
  4 24  1  0  0  0  0
  5  6  1  0  0  0  0
  5 13  1  0  0  0  0
  5 25  1  0  0  0  0
  6  7  1  0  0  0  0
  6 26  1  0  0  0  0
  6 27  1  0  0  0  0
  7 12  1  0  0  0  0
  7  8  2  0  0  0  0
  8  9  1  0  0  0  0
  8 28  1  0  0  0  0
  9 10  2  0  0  0  0
  9 29  1  0  0  0  0
 10 11  1  0  0  0  0
 11 12  2  0  0  0  0
 11 30  1  0  0  0  0
 12 31  1  0  0  0  0
 13 14  1  0  0  0  0
 13 15  1  0  0  0  0
 13 16  1  0  0  0  0
 17 18  1  0  0  0  0
 17 32  1  0  0  0  0
 17 33  1  0  0  0  0
 18 19  1  0  0  0  0
 18 34  1  0  0  0  0
 18 35  1  0  0  0  0
 19 20  1  0  0  0  0
 20 36  1  0  0  0  0
 20 37  1  0  0  0  0
M  END
> <s_m_source_file>
AV-unprocessed.smi

> <i_m_source_file_index>
2448

> <i_lp_mmshare_version>
43012

> <i_f3d_flags>
0

> <s_epik_input>
W0NIMl0xU1tDSDJdW0NIMl1bQ0BAXTEoW09IXSlbQ0gyXVtOSF1bQ0BASF0oQyhGKShGKUYpW0NIMl1jMltjSF1bY0hdbltjSF1bY0hdMg==

> <s_epik_cmdline>
J2VwaWtfcHl0aG9uJywgJy1waCcsICc3LjAnLCAnLXRuJywgJzgnLCAnLW1hJywgJzIwMCcsICctbWV0YWxfYmluZGluZycsICctaW1hZScsICc8aW5maWxlLm1hZT4nLCAnLW9tYWUnLCAnPG91dGZpbGUubWFlPic=

> <r_epik_Ionization_Penalty>
0.187708

> <r_epik_Ionization_Penalty_Charging>
0

> <r_epik_Ionization_Penalty_Neutral>
0.187708

> <r_epik_State_Penalty>
0.22769

> <r_epik_Charging_Adjusted_Penalty>
0.22769

> <i_epik_Tot_Q>
0

> <i_epik_Tot_abs_Q>
0

> <r_epik_Metal_State_Penalty>
0.176206

> <b_epik_Metal_Only>
0

> <s_lp_Force_Field>
OPLS_2005

> <r_lp_Energy>
32.3304

> <b_lp_Chiralities_Consistent>
1

> <s_lp_Variant>
AV-unprocessed.smi:2448-1

> <Gold.Version>
5.8.1

> <Gold.Id.Protein>
6NUR|6NUR_protein|mol2

> <Gold.PLP.Fitness>
46.0284

> <Gold.PLP.PLP>
-35.4916

> <Gold.PLP.part.hbond>
-4.0000

> <Gold.PLP.part.metal>
0.0000

> <Gold.PLP.part.buried>
3.9179

> <Gold.PLP.part.nonpolar>
-34.9776

> <Gold.PLP.part.repulsive>
0.2280

> <Gold.PLP.ligand.clash>
0.0000

> <Gold.PLP.ligand.torsion>
0.8055

> <Gold.PLP.Chemscore.Hbond>
2.8160

> <Gold.PLP.Chemscore.CHOScore>
1.0000

> <Gold.PLP.Chemscore.Metal>
0.0000

> <Gold.Chemscore.Hbonds>
donor molecule, donor type, donor heavy atom, donor atom, acceptor molecule, acceptor atom, score
      L1  H     1    21       P1  7948  1.00
      L1  H     4    24       P1  7948  1.00
      P1  H 10785 10796       L1    10  0.64
      L1  C    11    30       P1 10195  0.73

> <Gold.PLP.Chemscore.Internal.Correction>
0.6996

> <Gold.Rescore>
     Score         DG    S(hbond)    S(metal)    S(lipo)     H(rot)  DE(clash)    DE(int)     intcor
     15.77     -20.03       2.67        0.00      98.74       2.31       2.24       2.02       ----

> <Gold.Chemscore.Fitness>
15.7669

> <Gold.Chemscore.DG>
-20.0279

> <Gold.Chemscore.ZeroCoef>
-5.4800

> <Gold.Chemscore.Hbond>
2.6683

> <Gold.Chemscore.Metal>
0.0000

> <Gold.Chemscore.Lipo>
98.7371

> <Gold.Chemscore.Internal_Hbond>
0.0000

> <Gold.Chemscore.DEClash>
2.2448

> <Gold.Chemscore.DEInternal>
2.0163

> <Gold.Chemscore.Rot>
2.3111

> <Gold.Chemscore.Internal.Correction>
   9.000000E+99

> <Gold.Chemscore.Hbonds>
donor molecule, donor type, donor heavy atom, donor atom, acceptor molecule, acceptor atom, score
      L1  H     1    21       P1  7948  0.95
      L1  H     4    24       P1  7948  0.92
      P1  H 10785 10796       L1    10  0.53

> <Gold.Chemscore.Hbond.Weighted>
-8.9120

> <Gold.Chemscore.Metal.Weighted>
-0.0000

> <Gold.Chemscore.Lipo.Weighted>
-11.5522

> <Gold.Chemscore.Internal_Hbond.Weighted>
0.0000

> <Gold.Chemscore.DEClash.Weighted>
2.2448

> <Gold.Chemscore.DEInternal.Weighted>
2.0163

> <Gold.Chemscore.Rot.Weighted>
5.9164

> <Gold.Chemscore.Internal.Correction.Weighted>
   9.000000E+99

> <Gold.Protein.RotatedTorsions>
[ 6907 6896 6895 6894 ] final -163.26 input  -60.11 | X-H torsion
[ 7974 7965 7964 7962 ] final  -89.21 input  175.53 | X-H torsion
[ 8008 7997 7996 7995 ] final -176.56 input   59.86 | X-H torsion
[ 10167 10162 10161 10158 ] final  108.25 input  -65.29 | X-H torsion
[ 10718 10713 10712 10709 ] final  -44.82 input   66.30 | X-H torsion
[ 10763 10752 10751 10750 ] final  153.84 input  -60.55 | X-H torsion
[ 11005 11000 10999 10996 ] final -116.77 input  -57.11 | X-H torsion

> <Gold.Protein.ActiveResidues>
 VAL166  LYS551  ARG553  GLY616  TRP617  ASP618  TYR619  PRO620  LYS621  CYS622 
 ASP623  PHE694  ASN695  SER759  ASP760  ASP761  ALA762  ILE779  LEU786  VAL792 
 PHE793  MET794  SER795  GLU796  ALA797  LYS798  CYS799  TRP800  GLU811  SER814 

> <Gold.Protein.RotatedAtoms>
  151.3932  133.3782  159.2723 H   0  0  0  0  0  0  0  0  0  0  0  0  # atno 6907 bound_to 6896
  150.9489  134.8892  159.7670 H   0  0  0  0  0  0  0  0  0  0  0  0  # atno 6908 bound_to 6896
  152.5103  134.3886  159.9428 H   0  0  0  0  0  0  0  0  0  0  0  0  # atno 6909 bound_to 6896
  145.4429  140.9559  143.2065 H   0  0  0  0  0  0  0  0  0  0  0  0  # atno 7974 bound_to 7965
  155.9963  140.1211  157.0590 H   0  0  0  0  0  0  0  0  0  0  0  0  # atno 8008 bound_to 7997
  154.4228  140.1115  156.5704 H   0  0  0  0  0  0  0  0  0  0  0  0  # atno 8009 bound_to 7997
  155.6273  140.3472  155.4673 H   0  0  0  0  0  0  0  0  0  0  0  0  # atno 8010 bound_to 7997
  139.6861  144.7113  151.1429 H   0  0  0  0  0  0  0  0  0  0  0  0  # atno 10167 bound_to 10162
  156.2347  130.4175  149.8833 H   0  0  0  0  0  0  0  0  0  0  0  0  # atno 10718 bound_to 10713
  154.1427  135.2820  155.3156 H   0  0  0  0  0  0  0  0  0  0  0  0  # atno 10763 bound_to 10752
  154.6275  135.5446  153.7647 H   0  0  0  0  0  0  0  0  0  0  0  0  # atno 10764 bound_to 10752
  153.0245  135.6454  154.1573 H   0  0  0  0  0  0  0  0  0  0  0  0  # atno 10765 bound_to 10752
  141.0400  133.9851  157.3010 H   0  0  0  0  0  0  0  0  0  0  0  0  # atno 11005 bound_to 11000
  144.8110  139.5962  143.7029 LP  0  0  0  0  0  0  0  0  0  0  0  0  # atno 17320 bound_to 7965
  146.2547  139.6275  142.9403 LP  0  0  0  0  0  0  0  0  0  0  0  0  # atno 17321 bound_to 7965
  140.7668  143.5627  150.9082 LP  0  0  0  0  0  0  0  0  0  0  0  0  # atno 17342 bound_to 10162
  139.9302  143.6503  152.3078 LP  0  0  0  0  0  0  0  0  0  0  0  0  # atno 17343 bound_to 10162
  156.6435  130.8714  151.3518 LP  0  0  0  0  0  0  0  0  0  0  0  0  # atno 17370 bound_to 10713
  157.7149  130.9484  150.1218 LP  0  0  0  0  0  0  0  0  0  0  0  0  # atno 17371 bound_to 10713
  139.9268  135.0201  156.8263 LP  0  0  0  0  0  0  0  0  0  0  0  0  # atno 17394 bound_to 11000
  140.6252  133.9956  155.7636 LP  0  0  0  0  0  0  0  0  0  0  0  0  # atno 17395 bound_to 11000

$$$$
