AV-unprocessed.smi:3032|AV-procd|sdf|11562|dock4
  -GOLD-   2272016533D 1   1.00000     0.00000
 Structure written by MMmdl.
 37 38  0  0  0  0  0  0  0  0  1 V2000
  153.5595  141.6280  160.4770 C   0  0  0  0  0  0  0  0  0  0  0  0
  152.5058  142.3928  159.6636 C   0  0  1  0  0  0  0  0  0  0  0  0
  152.9975  143.8042  159.2900 C   0  0  0  0  0  0  0  0  0  0  0  0
  151.9476  144.5672  158.4671 C   0  0  0  0  0  0  0  0  0  0  0  0
  151.5472  143.7805  157.2092 C   0  0  0  0  0  0  0  0  0  0  0  0
  151.0387  142.3697  157.5711 C   0  0  1  0  0  0  0  0  0  0  0  0
  150.6707  141.5735  156.3127 C   0  0  0  0  0  0  0  0  0  0  0  0
  151.2757  140.5368  156.0371 O   0  0  0  0  0  0  0  0  0  0  0  0
  149.6576  142.0548  155.5742 N   0  0  0  0  0  0  0  0  0  0  0  0
  149.0744  141.3985  154.4057 C   0  0  0  0  0  0  0  0  0  0  0  0
  147.8709  140.5072  154.7730 C   0  0  0  0  0  0  0  0  0  0  0  0
  147.4201  139.6109  153.6628 C   0  0  0  0  0  0  0  0  0  0  0  0
  147.4521  138.2837  153.7931 N   0  0  0  0  0  0  0  0  0  0  0  0
  146.9089  137.8721  152.6272 N   0  0  0  0  0  0  0  0  0  0  0  0
  146.5944  138.9419  151.8988 C   0  0  0  0  0  0  0  0  0  0  0  0
  146.8908  140.0892  152.4940 N   0  0  0  0  0  0  0  0  0  0  0  0
  152.0994  141.6123  158.3988 C   0  0  0  0  0  0  0  0  0  0  0  0
  154.4734  141.4784  159.9009 H   0  0  0  0  0  0  0  0  0  0  0  0
  153.1894  140.6461  160.7735 H   0  0  0  0  0  0  0  0  0  0  0  0
  153.8235  142.1690  161.3859 H   0  0  0  0  0  0  0  0  0  0  0  0
  151.6203  142.5003  160.2918 H   0  0  0  0  0  0  0  0  0  0  0  0
  153.2352  144.3685  160.1923 H   0  0  0  0  0  0  0  0  0  0  0  0
  153.9236  143.7326  158.7179 H   0  0  0  0  0  0  0  0  0  0  0  0
  151.0648  144.7516  159.0805 H   0  0  0  0  0  0  0  0  0  0  0  0
  152.3373  145.5454  158.1845 H   0  0  0  0  0  0  0  0  0  0  0  0
  150.7770  144.3299  156.6661 H   0  0  0  0  0  0  0  0  0  0  0  0
  152.4072  143.7126  156.5407 H   0  0  0  0  0  0  0  0  0  0  0  0
  150.1424  142.4782  158.1846 H   0  0  0  0  0  0  0  0  0  0  0  0
  149.2211  142.9134  155.8772 H   0  0  0  0  0  0  0  0  0  0  0  0
  148.7566  142.1696  153.7039 H   0  0  0  0  0  0  0  0  0  0  0  0
  149.8253  140.8057  153.8810 H   0  0  0  0  0  0  0  0  0  0  0  0
  148.1259  139.8903  155.6357 H   0  0  0  0  0  0  0  0  0  0  0  0
  147.0344  141.1326  155.0866 H   0  0  0  0  0  0  0  0  0  0  0  0
  146.1385  138.8814  150.9216 H   0  0  0  0  0  0  0  0  0  0  0  0
  152.9857  141.4252  157.7897 H   0  0  0  0  0  0  0  0  0  0  0  0
  151.7128  140.6328  158.6841 H   0  0  0  0  0  0  0  0  0  0  0  0
  146.7761  136.8996  152.3893 H   0  0  0  0  0  0  0  0  0  0  0  0
  1  2  1  0  0  0  0
  1 18  1  0  0  0  0
  1 19  1  0  0  0  0
  1 20  1  0  0  0  0
  2 17  1  0  0  0  0
  2  3  1  0  0  0  0
  2 21  1  0  0  0  0
  3  4  1  0  0  0  0
  3 22  1  0  0  0  0
  3 23  1  0  0  0  0
  4  5  1  0  0  0  0
  4 24  1  0  0  0  0
  4 25  1  0  0  0  0
  5  6  1  0  0  0  0
  5 26  1  0  0  0  0
  5 27  1  0  0  0  0
  6  7  1  0  0  0  0
  6 17  1  0  0  0  0
  6 28  1  0  0  0  0
  7  8  2  0  0  0  0
  7  9  1  0  0  0  0
  9 10  1  0  0  0  0
  9 29  1  0  0  0  0
 10 11  1  0  0  0  0
 10 30  1  0  0  0  0
 10 31  1  0  0  0  0
 11 32  1  0  0  0  0
 11 33  1  0  0  0  0
 11 12  1  0  0  0  0
 12 16  1  0  0  0  0
 12 13  2  0  0  0  0
 13 14  1  0  0  0  0
 14 15  1  0  0  0  0
 14 37  1  0  0  0  0
 15 16  2  0  0  0  0
 15 34  1  0  0  0  0
 17 35  1  0  0  0  0
 17 36  1  0  0  0  0
M  END
> <s_m_source_file>
AV-unprocessed.smi

> <i_m_source_file_index>
3032

> <i_lp_mmshare_version>
43012

> <i_f3d_flags>
0

> <s_epik_input>
W0NIM11bQ0BASF0xW0NIMl1bQ0gyXVtDSDJdW0NASF0oW0NIMl0xKUMoPU8pW05IXVtDSDJdW0NIMl1jMm5uW2NIXVtuSF0y

> <s_epik_cmdline>
J2VwaWtfcHl0aG9uJywgJy1waCcsICc3LjAnLCAnLXRuJywgJzgnLCAnLW1hJywgJzIwMCcsICctbWV0YWxfYmluZGluZycsICctaW1hZScsICc8aW5maWxlLm1hZT4nLCAnLW9tYWUnLCAnPG91dGZpbGUubWFlPic=

> <r_epik_Ionization_Penalty>
0.000752022

> <r_epik_Ionization_Penalty_Charging>
0

> <r_epik_Ionization_Penalty_Neutral>
0.000752022

> <r_epik_State_Penalty>
0.639926

> <r_epik_Charging_Adjusted_Penalty>
0.639926

> <i_epik_Tot_Q>
0

> <i_epik_Tot_abs_Q>
0

> <r_epik_Metal_State_Penalty>
0.76532

> <b_epik_Metal_Only>
0

> <s_lp_Force_Field>
OPLS_2005

> <r_lp_Energy>
8.74502

> <b_lp_Chiralities_Consistent>
1

> <s_lp_Variant>
AV-unprocessed.smi:3032-6

> <Gold.Version>
5.8.1

> <Gold.Id.Protein>
6NUR|6NUR_protein|mol2

> <Gold.PLP.Fitness>
43.9491

> <Gold.PLP.PLP>
-38.4582

> <Gold.PLP.part.hbond>
-2.0000

> <Gold.PLP.part.metal>
0.0000

> <Gold.PLP.part.buried>
-4.8799

> <Gold.PLP.part.nonpolar>
-34.6099

> <Gold.PLP.part.repulsive>
1.5606

> <Gold.PLP.ligand.clash>
0.0000

> <Gold.PLP.ligand.torsion>
0.2778

> <Gold.PLP.Chemscore.Hbond>
1.0083

> <Gold.PLP.Chemscore.CHOScore>
1.0000

> <Gold.PLP.Chemscore.Metal>
0.0000

> <Gold.Chemscore.Hbonds>
donor molecule, donor type, donor heavy atom, donor atom, acceptor molecule, acceptor atom, score
      L1  H     9    29       P1  8028  1.00
      L1  H    14    37       P1  7948  0.01
      L1  C    15    34       P1 10171  1.00

> <Gold.PLP.Chemscore.Internal.Correction>
0.0215

> <Gold.Rescore>
     Score         DG    S(hbond)    S(metal)    S(lipo)     H(rot)  DE(clash)    DE(int)     intcor
     13.24     -13.70       0.98        0.00      91.51       2.25       0.22       0.24       ----

> <Gold.Chemscore.Fitness>
13.2364

> <Gold.Chemscore.DG>
-13.7013

> <Gold.Chemscore.ZeroCoef>
-5.4800

> <Gold.Chemscore.Hbond>
0.9807

> <Gold.Chemscore.Metal>
0.0000

> <Gold.Chemscore.Lipo>
91.5052

> <Gold.Chemscore.Internal_Hbond>
0.0000

> <Gold.Chemscore.DEClash>
0.2201

> <Gold.Chemscore.DEInternal>
0.2448

> <Gold.Chemscore.Rot>
2.2501

> <Gold.Chemscore.Internal.Correction>
   9.000000E+99

> <Gold.Chemscore.Hbonds>
donor molecule, donor type, donor heavy atom, donor atom, acceptor molecule, acceptor atom, score
      L1  H     9    29       P1  8028  0.95
      L1  H    14    37       P1  7948  0.02

> <Gold.Chemscore.Hbond.Weighted>
-3.2755

> <Gold.Chemscore.Metal.Weighted>
-0.0000

> <Gold.Chemscore.Lipo.Weighted>
-10.7061

> <Gold.Chemscore.Internal_Hbond.Weighted>
0.0000

> <Gold.Chemscore.DEClash.Weighted>
0.2201

> <Gold.Chemscore.DEInternal.Weighted>
0.2448

> <Gold.Chemscore.Rot.Weighted>
5.7603

> <Gold.Chemscore.Internal.Correction.Weighted>
   9.000000E+99

> <Gold.Protein.RotatedTorsions>
[ 6907 6896 6895 6894 ] final  -15.10 input  -60.11 | X-H torsion
[ 7974 7965 7964 7962 ] final   17.84 input  175.53 | X-H torsion
[ 8008 7997 7996 7995 ] final  -73.68 input   59.86 | X-H torsion
[ 10167 10162 10161 10158 ] final  -27.24 input  -65.29 | X-H torsion
[ 10718 10713 10712 10709 ] final -162.56 input   66.30 | X-H torsion
[ 10763 10752 10751 10750 ] final  168.54 input  -60.55 | X-H torsion
[ 11005 11000 10999 10996 ] final  138.87 input  -57.11 | X-H torsion

> <Gold.Protein.ActiveResidues>
 VAL166  LYS551  ARG553  GLY616  TRP617  ASP618  TYR619  PRO620  LYS621  CYS622 
 ASP623  PHE694  ASN695  SER759  ASP760  ASP761  ALA762  ILE779  LEU786  VAL792 
 PHE793  MET794  SER795  GLU796  ALA797  LYS798  CYS799  TRP800  GLU811  SER814 

> <Gold.Protein.RotatedAtoms>
  151.3291  135.0837  159.9332 H   0  0  0  0  0  0  0  0  0  0  0  0  # atno 6907 bound_to 6896
  152.5239  133.9561  159.7705 H   0  0  0  0  0  0  0  0  0  0  0  0  # atno 6908 bound_to 6896
  150.9896  133.6110  159.2740 H   0  0  0  0  0  0  0  0  0  0  0  0  # atno 6909 bound_to 6896
  146.2205  139.8544  142.8616 H   0  0  0  0  0  0  0  0  0  0  0  0  # atno 7974 bound_to 7965
  154.5267  140.0775  156.8271 H   0  0  0  0  0  0  0  0  0  0  0  0  # atno 8008 bound_to 7997
  155.3461  140.3410  155.4221 H   0  0  0  0  0  0  0  0  0  0  0  0  # atno 8009 bound_to 7997
  156.1739  140.1629  156.8385 H   0  0  0  0  0  0  0  0  0  0  0  0  # atno 8010 bound_to 7997
  140.7278  143.4110  151.1106 H   0  0  0  0  0  0  0  0  0  0  0  0  # atno 10167 bound_to 10162
  156.6121  130.8855  151.2939 H   0  0  0  0  0  0  0  0  0  0  0  0  # atno 10718 bound_to 10713
  154.3700  135.2753  155.2272 H   0  0  0  0  0  0  0  0  0  0  0  0  # atno 10763 bound_to 10752
  154.4423  135.5951  153.6141 H   0  0  0  0  0  0  0  0  0  0  0  0  # atno 10764 bound_to 10752
  152.9839  135.6022  154.3930 H   0  0  0  0  0  0  0  0  0  0  0  0  # atno 10765 bound_to 10752
  140.0214  134.9395  157.0482 H   0  0  0  0  0  0  0  0  0  0  0  0  # atno 11005 bound_to 11000
  145.2768  141.0126  143.3740 LP  0  0  0  0  0  0  0  0  0  0  0  0  # atno 17320 bound_to 7965
  144.9180  139.4446  143.6555 LP  0  0  0  0  0  0  0  0  0  0  0  0  # atno 17321 bound_to 7965
  139.7743  143.8448  152.3126 LP  0  0  0  0  0  0  0  0  0  0  0  0  # atno 17342 bound_to 10162
  139.8377  144.7224  150.9370 LP  0  0  0  0  0  0  0  0  0  0  0  0  # atno 17343 bound_to 10162
  157.7251  130.9611  150.1601 LP  0  0  0  0  0  0  0  0  0  0  0  0  # atno 17370 bound_to 10713
  156.2381  130.3688  149.8368 LP  0  0  0  0  0  0  0  0  0  0  0  0  # atno 17371 bound_to 10713
  140.4380  134.1711  155.7172 LP  0  0  0  0  0  0  0  0  0  0  0  0  # atno 17394 bound_to 11000
  141.1776  133.8481  157.1368 LP  0  0  0  0  0  0  0  0  0  0  0  0  # atno 17395 bound_to 11000

$$$$
