AV-unprocessed.smi:2902|AV-procd|sdf|11153|dock4
  -GOLD-   2272016 33D 1   1.00000     0.00000
 Structure written by MMmdl.
 47 48  0  0  0  0  0  0  0  0  1 V2000
  151.5932  139.1714  156.2046 C   0  0  0  0  0  0  0  0  0  0  0  0
  151.0588  140.4755  155.5998 C   0  0  0  0  0  0  0  0  0  0  0  0
  150.5694  141.4705  156.6687 C   0  0  2  0  0  0  0  0  0  0  0  0
  151.5770  141.5662  157.6759 O   0  0  0  0  0  0  0  0  0  0  0  0
  151.4533  142.6354  158.6114 C   0  0  0  0  0  0  0  0  0  0  0  0
  151.6356  144.0204  157.9830 C   0  0  0  0  0  0  0  0  0  0  0  0
  152.1243  144.9201  159.1251 C   0  0  0  0  0  0  0  0  0  0  0  0
  152.6646  143.9819  160.2156 C   0  0  0  0  0  0  0  0  0  0  0  0
  152.5834  142.5669  159.6364 C   0  0  0  0  0  0  0  0  0  0  0  0
  149.2404  141.0087  157.2853 C   0  0  0  0  0  0  0  0  0  0  0  0
  149.1489  139.8937  157.7991 O   0  0  0  0  0  0  0  0  0  0  0  0
  148.2231  141.8828  157.2205 N   0  0  0  0  0  0  0  0  0  0  0  0
  146.8603  141.6574  157.7035 C   0  0  1  0  0  0  0  0  0  0  0  0
  146.6349  142.5772  158.9149 C   0  0  0  0  0  0  0  0  0  0  0  0
  145.8352  141.8905  156.5590 C   0  0  2  0  0  0  0  0  0  0  0  0
  144.3703  141.8257  157.0333 C   0  0  0  0  0  0  0  0  0  0  0  0
  146.0464  140.9569  155.4577 N   0  0  0  0  0  0  0  0  0  0  0  0
  145.8493  139.6382  155.3967 C   0  0  0  0  0  0  0  0  0  0  0  0
  146.0999  139.1112  154.2066 N   0  0  0  0  0  0  0  0  0  0  0  0
  146.4697  140.2396  153.5312 C   0  0  0  0  0  0  0  0  0  0  0  0
  146.4526  141.3725  154.2329 N   0  0  0  0  0  0  0  0  0  0  0  0
  151.9392  138.4949  155.4230 H   0  0  0  0  0  0  0  0  0  0  0  0
  150.8206  138.6537  156.7736 H   0  0  0  0  0  0  0  0  0  0  0  0
  152.4318  139.3624  156.8743 H   0  0  0  0  0  0  0  0  0  0  0  0
  151.8514  140.9331  155.0052 H   0  0  0  0  0  0  0  0  0  0  0  0
  150.2497  140.2452  154.9052 H   0  0  0  0  0  0  0  0  0  0  0  0
  150.4258  142.4406  156.1903 H   0  0  0  0  0  0  0  0  0  0  0  0
  150.5038  142.5939  159.1469 H   0  0  0  0  0  0  0  0  0  0  0  0
  152.4016  143.9724  157.2076 H   0  0  0  0  0  0  0  0  0  0  0  0
  150.7214  144.3953  157.5219 H   0  0  0  0  0  0  0  0  0  0  0  0
  152.8889  145.6145  158.7752 H   0  0  0  0  0  0  0  0  0  0  0  0
  151.3008  145.5152  159.5220 H   0  0  0  0  0  0  0  0  0  0  0  0
  153.6822  144.2378  160.5123 H   0  0  0  0  0  0  0  0  0  0  0  0
  152.0369  144.0545  161.1047 H   0  0  0  0  0  0  0  0  0  0  0  0
  152.4128  141.8079  160.4003 H   0  0  0  0  0  0  0  0  0  0  0  0
  153.5218  142.3264  159.1344 H   0  0  0  0  0  0  0  0  0  0  0  0
  148.4042  142.7758  156.7857 H   0  0  0  0  0  0  0  0  0  0  0  0
  146.7604  140.6297  158.0573 H   0  0  0  0  0  0  0  0  0  0  0  0
  145.6822  142.3743  159.4034 H   0  0  0  0  0  0  0  0  0  0  0  0
  146.6467  143.6284  158.6248 H   0  0  0  0  0  0  0  0  0  0  0  0
  147.4132  142.4314  159.6650 H   0  0  0  0  0  0  0  0  0  0  0  0
  145.9997  142.8914  156.1566 H   0  0  0  0  0  0  0  0  0  0  0  0
  144.1349  142.6352  157.7239 H   0  0  0  0  0  0  0  0  0  0  0  0
  144.1531  140.8835  157.5377 H   0  0  0  0  0  0  0  0  0  0  0  0
  143.6834  141.9172  156.1913 H   0  0  0  0  0  0  0  0  0  0  0  0
  145.5032  139.0536  156.2362 H   0  0  0  0  0  0  0  0  0  0  0  0
  146.7580  140.2261  152.4903 H   0  0  0  0  0  0  0  0  0  0  0  0
  1  2  1  0  0  0  0
  1 22  1  0  0  0  0
  1 23  1  0  0  0  0
  1 24  1  0  0  0  0
  2  3  1  0  0  0  0
  2 25  1  0  0  0  0
  2 26  1  0  0  0  0
  3  4  1  0  0  0  0
  3 10  1  0  0  0  0
  3 27  1  0  0  0  0
  4  5  1  0  0  0  0
  5  9  1  0  0  0  0
  5  6  1  0  0  0  0
  5 28  1  0  0  0  0
  6  7  1  0  0  0  0
  6 29  1  0  0  0  0
  6 30  1  0  0  0  0
  7  8  1  0  0  0  0
  7 31  1  0  0  0  0
  7 32  1  0  0  0  0
  8  9  1  0  0  0  0
  8 33  1  0  0  0  0
  8 34  1  0  0  0  0
  9 35  1  0  0  0  0
  9 36  1  0  0  0  0
 10 11  2  0  0  0  0
 10 12  1  0  0  0  0
 12 13  1  0  0  0  0
 12 37  1  0  0  0  0
 13 14  1  0  0  0  0
 13 15  1  0  0  0  0
 13 38  1  0  0  0  0
 14 39  1  0  0  0  0
 14 40  1  0  0  0  0
 14 41  1  0  0  0  0
 15 16  1  0  0  0  0
 15 17  1  0  0  0  0
 15 42  1  0  0  0  0
 16 43  1  0  0  0  0
 16 44  1  0  0  0  0
 16 45  1  0  0  0  0
 17 21  1  0  0  0  0
 17 18  1  0  0  0  0
 18 19  2  0  0  0  0
 18 46  1  0  0  0  0
 19 20  1  0  0  0  0
 20 21  2  0  0  0  0
 20 47  1  0  0  0  0
M  END
> <s_m_source_file>
AV-unprocessed.smi

> <i_m_source_file_index>
2902

> <i_lp_mmshare_version>
43012

> <i_f3d_flags>
0

> <s_epik_input>
W0NIMl0xW0NIMl1bQ0gyXVtDSDJdW0NIXTFPW0NAQEhdKFtDSDJdW0NIM10pQyg9TylbTkhdW0NASF0oW0NIM10pW0NASF0oW0NIM10pbjJbY0hdbltjSF1uMg==

> <s_epik_cmdline>
J2VwaWtfcHl0aG9uJywgJy1waCcsICc3LjAnLCAnLXRuJywgJzgnLCAnLW1hJywgJzIwMCcsICctbWV0YWxfYmluZGluZycsICctaW1hZScsICc8aW5maWxlLm1hZT4nLCAnLW9tYWUnLCAnPG91dGZpbGUubWFlPic=

> <r_lp_tautomer_probability>
1

> <r_epik_Ionization_Penalty>
6.95617e-05

> <r_epik_Ionization_Penalty_Charging>
0

> <r_epik_Ionization_Penalty_Neutral>
6.95617e-05

> <r_epik_State_Penalty>
-0

> <r_epik_Charging_Adjusted_Penalty>
0

> <i_epik_Tot_Q>
0

> <i_epik_Tot_abs_Q>
0

> <r_epik_Metal_State_Penalty>
-0

> <b_epik_Metal_Only>
0

> <s_lp_Force_Field>
OPLS_2005

> <r_lp_Energy>
29.2018

> <b_lp_Chiralities_Consistent>
1

> <s_lp_Variant>
AV-unprocessed.smi:2902-3

> <Gold.Version>
5.8.1

> <Gold.Id.Protein>
6NUR|6NUR_protein|mol2

> <Gold.PLP.Fitness>
42.6536

> <Gold.PLP.PLP>
-37.1072

> <Gold.PLP.part.hbond>
-1.0000

> <Gold.PLP.part.metal>
0.0000

> <Gold.PLP.part.buried>
-3.1431

> <Gold.PLP.part.nonpolar>
-32.8419

> <Gold.PLP.part.repulsive>
0.4023

> <Gold.PLP.ligand.clash>
0.0000

> <Gold.PLP.ligand.torsion>
0.3255

> <Gold.PLP.Chemscore.Hbond>
1.0000

> <Gold.PLP.Chemscore.CHOScore>
1.0000

> <Gold.PLP.Chemscore.Metal>
0.0000

> <Gold.Chemscore.Hbonds>
donor molecule, donor type, donor heavy atom, donor atom, acceptor molecule, acceptor atom, score
      L1  H    12    37       P1  8028  0.36

> <Gold.PLP.Chemscore.Internal.Correction>
0.1973

> <Gold.Rescore>
     Score         DG    S(hbond)    S(metal)    S(lipo)     H(rot)  DE(clash)    DE(int)     intcor
     11.43     -12.06       0.98        0.00      87.19       2.69       0.22       0.41       ----

> <Gold.Chemscore.Fitness>
11.4308

> <Gold.Chemscore.DG>
-12.0618

> <Gold.Chemscore.ZeroCoef>
-5.4800

> <Gold.Chemscore.Hbond>
0.9808

> <Gold.Chemscore.Metal>
0.0000

> <Gold.Chemscore.Lipo>
87.1917

> <Gold.Chemscore.Internal_Hbond>
0.0000

> <Gold.Chemscore.DEClash>
0.2164

> <Gold.Chemscore.DEInternal>
0.4147

> <Gold.Chemscore.Rot>
2.6935

> <Gold.Chemscore.Internal.Correction>
   9.000000E+99

> <Gold.Chemscore.Hbonds>
donor molecule, donor type, donor heavy atom, donor atom, acceptor molecule, acceptor atom, score
      L1  H    12    37       P1  8028  0.26

> <Gold.Chemscore.Hbond.Weighted>
-3.2757

> <Gold.Chemscore.Metal.Weighted>
-0.0000

> <Gold.Chemscore.Lipo.Weighted>
-10.2014

> <Gold.Chemscore.Internal_Hbond.Weighted>
0.0000

> <Gold.Chemscore.DEClash.Weighted>
0.2164

> <Gold.Chemscore.DEInternal.Weighted>
0.4147

> <Gold.Chemscore.Rot.Weighted>
6.8954

> <Gold.Chemscore.Internal.Correction.Weighted>
   9.000000E+99

> <Gold.Protein.RotatedTorsions>
[ 6907 6896 6895 6894 ] final -174.77 input  -60.11 | X-H torsion
[ 7974 7965 7964 7962 ] final -131.63 input  175.53 | X-H torsion
[ 8008 7997 7996 7995 ] final   18.73 input   59.86 | X-H torsion
[ 10167 10162 10161 10158 ] final  -10.78 input  -65.29 | X-H torsion
[ 10718 10713 10712 10709 ] final   42.44 input   66.30 | X-H torsion
[ 10763 10752 10751 10750 ] final  -53.05 input  -60.55 | X-H torsion
[ 11005 11000 10999 10996 ] final -176.14 input  -57.11 | X-H torsion

> <Gold.Protein.ActiveResidues>
 VAL166  LYS551  ARG553  GLY616  TRP617  ASP618  TYR619  PRO620  LYS621  CYS622 
 ASP623  PHE694  ASN695  SER759  ASP760  ASP761  ALA762  ILE779  LEU786  VAL792 
 PHE793  MET794  SER795  GLU796  ALA797  LYS798  CYS799  TRP800  GLU811  SER814 

> <Gold.Protein.RotatedAtoms>
  151.5777  133.3381  159.3001 H   0  0  0  0  0  0  0  0  0  0  0  0  # atno 6907 bound_to 6896
  150.8331  134.7596  159.6881 H   0  0  0  0  0  0  0  0  0  0  0  0  # atno 6908 bound_to 6896
  152.4412  134.5594  159.9941 H   0  0  0  0  0  0  0  0  0  0  0  0  # atno 6909 bound_to 6896
  144.9361  140.7185  143.4875 H   0  0  0  0  0  0  0  0  0  0  0  0  # atno 7974 bound_to 7965
  154.9103  140.3013  155.5270 H   0  0  0  0  0  0  0  0  0  0  0  0  # atno 8008 bound_to 7997
  156.3015  140.2390  156.4077 H   0  0  0  0  0  0  0  0  0  0  0  0  # atno 8009 bound_to 7997
  154.8432  140.0413  157.1544 H   0  0  0  0  0  0  0  0  0  0  0  0  # atno 8010 bound_to 7997
  140.7122  143.5711  150.9092 H   0  0  0  0  0  0  0  0  0  0  0  0  # atno 10167 bound_to 10162
  157.4049  130.7881  149.7380 H   0  0  0  0  0  0  0  0  0  0  0  0  # atno 10718 bound_to 10713
  154.1526  135.6487  153.4967 H   0  0  0  0  0  0  0  0  0  0  0  0  # atno 10763 bound_to 10752
  153.0133  135.5342  154.6792 H   0  0  0  0  0  0  0  0  0  0  0  0  # atno 10764 bound_to 10752
  154.6084  135.2951  155.0430 H   0  0  0  0  0  0  0  0  0  0  0  0  # atno 10765 bound_to 10752
  140.4554  134.6304  157.4820 H   0  0  0  0  0  0  0  0  0  0  0  0  # atno 11005 bound_to 11000
  145.3064  139.1833  143.4662 LP  0  0  0  0  0  0  0  0  0  0  0  0  # atno 17320 bound_to 7965
  146.3267  140.3063  142.8624 LP  0  0  0  0  0  0  0  0  0  0  0  0  # atno 17321 bound_to 7965
  139.9437  143.6352  152.3047 LP  0  0  0  0  0  0  0  0  0  0  0  0  # atno 17342 bound_to 10162
  139.6846  144.7652  151.1547 LP  0  0  0  0  0  0  0  0  0  0  0  0  # atno 17343 bound_to 10162
  155.9833  130.4001  150.3368 LP  0  0  0  0  0  0  0  0  0  0  0  0  # atno 17370 bound_to 10713
  157.1499  131.0318  151.2889 LP  0  0  0  0  0  0  0  0  0  0  0  0  # atno 17371 bound_to 10713
  139.9979  134.6882  155.9578 LP  0  0  0  0  0  0  0  0  0  0  0  0  # atno 17394 bound_to 11000
  141.1645  133.6537  156.4432 LP  0  0  0  0  0  0  0  0  0  0  0  0  # atno 17395 bound_to 11000

$$$$
