AV-unprocessed.smi:2226|AV-procd|sdf|9009|dock9
  -GOLD-   2272012213D 1   1.00000     0.00000
 Structure written by MMmdl.
 40 42  0  0  0  0  0  0  0  0  2 V2000
  143.4717  132.4479  151.3668 C   0  0  0  0  0  0  0  0  0  0  0  0
  144.2015  133.3038  152.3323 N   0  3  2  0  0  0  0  0  0  0  0  0
  143.7389  134.7109  152.3908 C   0  0  2  0  0  0  0  0  0  0  0  0
  144.1209  135.4870  151.1053 C   0  0  0  0  0  0  0  0  0  0  0  0
  145.6061  135.3728  150.7166 C   0  0  0  0  0  0  0  0  0  0  0  0
  146.1655  133.9534  150.9182 C   0  0  0  0  0  0  0  0  0  0  0  0
  145.6785  133.2582  152.2142 C   0  0  1  0  0  0  0  0  0  0  0  0
  146.3063  133.7915  153.5231 C   0  0  0  0  0  0  0  0  0  0  0  0
  145.7194  135.1267  154.0589 C   0  0  1  0  0  0  0  0  0  0  0  0
  146.5270  136.2899  153.6998 N   0  0  0  0  0  0  0  0  0  0  0  0
  146.4315  137.5192  154.2296 C   0  0  0  0  0  0  0  0  0  0  0  0
  145.6079  137.7813  155.1119 O   0  0  0  0  0  0  0  0  0  0  0  0
  147.3765  138.3559  153.6551 N   0  0  0  0  0  0  0  0  0  0  0  0
  147.4026  139.6105  153.9834 C   0  0  0  0  0  0  0  0  0  0  0  0
  148.2577  140.5921  153.5086 N   0  0  0  0  0  0  0  0  0  0  0  0
  147.9381  141.7700  154.1262 C   0  0  0  0  0  0  0  0  0  0  0  0
  146.9254  141.5404  154.9570 C   0  0  0  0  0  0  0  0  0  0  0  0
  146.5743  140.2258  154.8939 O   0  0  0  0  0  0  0  0  0  0  0  0
  144.2237  135.3456  153.7152 C   0  0  0  0  0  0  0  0  0  0  0  0
  143.6189  132.7691  150.3360 H   0  0  0  0  0  0  0  0  0  0  0  0
  142.4020  132.4662  151.5764 H   0  0  0  0  0  0  0  0  0  0  0  0
  143.8049  131.4131  151.4490 H   0  0  0  0  0  0  0  0  0  0  0  0
  142.6490  134.6999  152.4414 H   0  0  0  0  0  0  0  0  0  0  0  0
  143.5214  135.1070  150.2776 H   0  0  0  0  0  0  0  0  0  0  0  0
  143.8442  136.5372  151.2034 H   0  0  0  0  0  0  0  0  0  0  0  0
  145.7311  135.6664  149.6740 H   0  0  0  0  0  0  0  0  0  0  0  0
  146.1990  136.0932  151.2700 H   0  0  0  0  0  0  0  0  0  0  0  0
  145.8715  133.3448  150.0627 H   0  0  0  0  0  0  0  0  0  0  0  0
  147.2555  133.9794  150.8928 H   0  0  0  0  0  0  0  0  0  0  0  0
  145.9730  132.2102  152.1411 H   0  0  0  0  0  0  0  0  0  0  0  0
  146.1276  133.0361  154.2896 H   0  0  0  0  0  0  0  0  0  0  0  0
  147.3918  133.8427  153.4301 H   0  0  0  0  0  0  0  0  0  0  0  0
  145.7686  135.0789  155.1488 H   0  0  0  0  0  0  0  0  0  0  0  0
  147.2260  136.1493  152.9846 H   0  0  0  0  0  0  0  0  0  0  0  0
  148.9999  140.5016  152.8300 H   0  0  0  0  0  0  0  0  0  0  0  0
  148.4854  142.6729  153.8988 H   0  0  0  0  0  0  0  0  0  0  0  0
  146.3694  142.1757  155.6304 H   0  0  0  0  0  0  0  0  0  0  0  0
  143.9662  136.4052  153.7495 H   0  0  0  0  0  0  0  0  0  0  0  0
  143.6407  134.8886  154.5161 H   0  0  0  0  0  0  0  0  0  0  0  0
  143.9881  132.9086  153.2370 H   0  0  0  0  0  0  0  0  0  0  0  0
  1  2  1  0  0  0  0
  1 20  1  0  0  0  0
  1 21  1  0  0  0  0
  1 22  1  0  0  0  0
  2  7  1  0  0  0  0
  2  3  1  0  0  0  0
  2 40  1  0  0  0  0
  3 19  1  0  0  0  0
  3  4  1  0  0  0  0
  3 23  1  0  0  0  0
  4  5  1  0  0  0  0
  4 24  1  0  0  0  0
  4 25  1  0  0  0  0
  5  6  1  0  0  0  0
  5 26  1  0  0  0  0
  5 27  1  0  0  0  0
  6  7  1  0  0  0  0
  6 28  1  0  0  0  0
  6 29  1  0  0  0  0
  7  8  1  0  0  0  0
  7 30  1  0  0  0  0
  8  9  1  0  0  0  0
  8 31  1  0  0  0  0
  8 32  1  0  0  0  0
  9 10  1  0  0  0  0
  9 19  1  0  0  0  0
  9 33  1  0  0  0  0
 10 34  1  0  0  0  0
 10 11  1  0  0  0  0
 11 13  1  0  0  0  0
 11 12  2  0  0  0  0
 13 14  2  0  0  0  0
 14 18  1  0  0  0  0
 14 15  1  0  0  0  0
 15 35  1  0  0  0  0
 15 16  1  0  0  0  0
 16 36  1  0  0  0  0
 16 17  2  0  0  0  0
 17 37  1  0  0  0  0
 17 18  1  0  0  0  0
 19 38  1  0  0  0  0
 19 39  1  0  0  0  0
M  CHG  1   2   1
M  END
> <s_m_source_file>
AV-unprocessed.smi

> <i_m_source_file_index>
2226

> <i_lp_mmshare_version>
43012

> <i_f3d_flags>
0

> <s_epik_input>
W0NIMl0xW0NIMl1bQ0gyXVtDQEhdKE4oW0NIM10pW0NIXTEyKVtDSDJdW0NASF0oW0NIMl0yKVtOSF1DKD1PKVtOSF1jM25bY0hdW2NIXW8z

> <s_epik_cmdline>
J2VwaWtfcHl0aG9uJywgJy1waCcsICc3LjAnLCAnLXRuJywgJzgnLCAnLW1hJywgJzIwMCcsICctbWV0YWxfYmluZGluZycsICctaW1hZScsICc8aW5maWxlLm1hZT4nLCAnLW9tYWUnLCAnPG91dGZpbGUubWFlPic=

> <r_lp_tautomer_probability>
0.107061

> <r_epik_Ionization_Penalty>
1.08307

> <r_epik_Ionization_Penalty_Charging>
1.08272

> <r_epik_Ionization_Penalty_Neutral>
0.000345913

> <r_epik_State_Penalty>
2.5744

> <r_epik_Charging_Adjusted_Penalty>
3.65713

> <i_epik_Tot_Q>
1

> <i_epik_Tot_abs_Q>
1

> <r_epik_Metal_State_Penalty>
3.72133

> <b_epik_Metal_Only>
0

> <s_lp_Force_Field>
OPLS_2005

> <r_lp_Energy>
58.5529

> <b_lp_Chiralities_Consistent>
1

> <s_lp_Variant>
AV-unprocessed.smi:2226-9

> <Gold.Version>
5.8.1

> <Gold.Id.Protein>
6NUR|6NUR_protein|mol2

> <Gold.PLP.Fitness>
33.4838

> <Gold.PLP.PLP>
-24.1990

> <Gold.PLP.part.hbond>
-2.2285

> <Gold.PLP.part.metal>
0.0000

> <Gold.PLP.part.buried>
-5.8332

> <Gold.PLP.part.nonpolar>
-18.4114

> <Gold.PLP.part.repulsive>
0.4213

> <Gold.PLP.ligand.clash>
0.0000

> <Gold.PLP.ligand.torsion>
0.0980

> <Gold.PLP.Chemscore.Hbond>
2.5113

> <Gold.PLP.Chemscore.CHOScore>
0.6316

> <Gold.PLP.Chemscore.Metal>
0.0000

> <Gold.Chemscore.Hbonds>
donor molecule, donor type, donor heavy atom, donor atom, acceptor molecule, acceptor atom, score
      L1  H     2    40       P1 10957  0.52
      L1  H    10    34       P1  7948  0.94
      L1  H    15    35       P1  7957  1.00
      L1  C    16    36       P1  8028  0.53

> <Gold.PLP.Chemscore.Internal.Correction>
0.0522

> <Gold.Rescore>
     Score         DG    S(hbond)    S(metal)    S(lipo)     H(rot)  DE(clash)    DE(int)     intcor
     14.88     -16.65       2.28        0.00      52.32       1.00       0.04       1.74       ----

> <Gold.Chemscore.Fitness>
14.8771

> <Gold.Chemscore.DG>
-16.6534

> <Gold.Chemscore.ZeroCoef>
-5.4800

> <Gold.Chemscore.Hbond>
2.2791

> <Gold.Chemscore.Metal>
0.0000

> <Gold.Chemscore.Lipo>
52.3193

> <Gold.Chemscore.Internal_Hbond>
0.0000

> <Gold.Chemscore.DEClash>
0.0410

> <Gold.Chemscore.DEInternal>
1.7352

> <Gold.Chemscore.Rot>
1.0000

> <Gold.Chemscore.Internal.Correction>
   9.000000E+99

> <Gold.Chemscore.Hbonds>
donor molecule, donor type, donor heavy atom, donor atom, acceptor molecule, acceptor atom, score
      L1  H     2    40       P1 10957  0.15
      L1  H    10    34       P1  7948  0.90
      L1  H    15    35       P1  7957  0.95

> <Gold.Chemscore.Hbond.Weighted>
-7.6120

> <Gold.Chemscore.Metal.Weighted>
-0.0000

> <Gold.Chemscore.Lipo.Weighted>
-6.1214

> <Gold.Chemscore.Internal_Hbond.Weighted>
0.0000

> <Gold.Chemscore.DEClash.Weighted>
0.0410

> <Gold.Chemscore.DEInternal.Weighted>
1.7352

> <Gold.Chemscore.Rot.Weighted>
2.5600

> <Gold.Chemscore.Internal.Correction.Weighted>
   9.000000E+99

> <Gold.Protein.RotatedTorsions>
[ 6907 6896 6895 6894 ] final -173.62 input  -60.11 | X-H torsion
[ 7974 7965 7964 7962 ] final -143.12 input  175.53 | X-H torsion
[ 8008 7997 7996 7995 ] final  -47.40 input   59.86 | X-H torsion
[ 10167 10162 10161 10158 ] final   55.58 input  -65.29 | X-H torsion
[ 10718 10713 10712 10709 ] final  107.89 input   66.30 | X-H torsion
[ 10763 10752 10751 10750 ] final  -57.15 input  -60.55 | X-H torsion
[ 11005 11000 10999 10996 ] final   64.26 input  -57.11 | X-H torsion

> <Gold.Protein.ActiveResidues>
 VAL166  LYS551  ARG553  GLY616  TRP617  ASP618  TYR619  PRO620  LYS621  CYS622 
 ASP623  PHE694  ASN695  SER759  ASP760  ASP761  ALA762  ILE779  LEU786  VAL792 
 PHE793  MET794  SER795  GLU796  ALA797  LYS798  CYS799  TRP800  GLU811  SER814 

> <Gold.Protein.RotatedAtoms>
  151.5592  133.3406  159.2967 H   0  0  0  0  0  0  0  0  0  0  0  0  # atno 6907 bound_to 6896
  150.8433  134.7735  159.6961 H   0  0  0  0  0  0  0  0  0  0  0  0  # atno 6908 bound_to 6896
  152.4496  134.5429  159.9896 H   0  0  0  0  0  0  0  0  0  0  0  0  # atno 6909 bound_to 6896
  144.8393  140.5874  143.5463 H   0  0  0  0  0  0  0  0  0  0  0  0  # atno 7974 bound_to 7965
  154.4016  140.1347  156.4169 H   0  0  0  0  0  0  0  0  0  0  0  0  # atno 8008 bound_to 7997
  155.7680  140.3484  155.5212 H   0  0  0  0  0  0  0  0  0  0  0  0  # atno 8009 bound_to 7997
  155.8795  140.0985  157.1486 H   0  0  0  0  0  0  0  0  0  0  0  0  # atno 8010 bound_to 7997
  140.2179  144.3819  150.6462 H   0  0  0  0  0  0  0  0  0  0  0  0  # atno 10167 bound_to 10162
  157.6609  131.0882  150.6224 H   0  0  0  0  0  0  0  0  0  0  0  0  # atno 10718 bound_to 10713
  154.2179  135.6383  153.5135 H   0  0  0  0  0  0  0  0  0  0  0  0  # atno 10763 bound_to 10752
  152.9975  135.5489  154.6146 H   0  0  0  0  0  0  0  0  0  0  0  0  # atno 10764 bound_to 10752
  154.5598  135.2908  155.0903 H   0  0  0  0  0  0  0  0  0  0  0  0  # atno 10765 bound_to 10752
  139.9970  134.6501  155.9993 H   0  0  0  0  0  0  0  0  0  0  0  0  # atno 11005 bound_to 11000
  145.4728  139.1502  143.3805 LP  0  0  0  0  0  0  0  0  0  0  0  0  # atno 17320 bound_to 7965
  146.2688  140.4862  142.8823 LP  0  0  0  0  0  0  0  0  0  0  0  0  # atno 17321 bound_to 7965
  140.6276  143.2183  151.6563 LP  0  0  0  0  0  0  0  0  0  0  0  0  # atno 17342 bound_to 10162
  139.5155  144.3377  152.0769 LP  0  0  0  0  0  0  0  0  0  0  0  0  # atno 17343 bound_to 10162
  156.6527  130.4489  149.5714 LP  0  0  0  0  0  0  0  0  0  0  0  0  # atno 17370 bound_to 10713
  156.2126  130.6688  151.1285 LP  0  0  0  0  0  0  0  0  0  0  0  0  # atno 17371 bound_to 10713
  141.1612  133.6539  156.4326 LP  0  0  0  0  0  0  0  0  0  0  0  0  # atno 17394 bound_to 11000
  140.4799  134.6675  157.5166 LP  0  0  0  0  0  0  0  0  0  0  0  0  # atno 17395 bound_to 11000

$$$$
