AV-unprocessed.smi:2359|AV-procd|sdf|9407|dock8
  -GOLD-   2272013 43D 1   1.00000     0.00000
 Structure written by MMmdl.
 40 41  0  0  0  0  0  0  0  0  1 V2000
  144.0841  131.8647  150.4365 C   0  0  0  0  0  0  0  0  0  0  0  0
  144.3150  133.2915  150.8877 C   0  0  0  0  0  0  0  0  0  0  0  0
  144.4475  134.3393  149.9569 C   0  0  0  0  0  0  0  0  0  0  0  0
  144.6636  135.6465  150.4334 C   0  0  0  0  0  0  0  0  0  0  0  0
  144.7429  135.8759  151.8255 C   0  0  0  0  0  0  0  0  0  0  0  0
  144.9704  137.2272  152.1987 N   0  0  0  0  0  0  0  0  0  0  0  0
  145.7573  137.6984  153.1820 C   0  0  0  0  0  0  0  0  0  0  0  0
  146.4117  137.0084  153.9645 O   0  0  0  0  0  0  0  0  0  0  0  0
  145.7432  139.0390  153.2125 N   0  0  0  0  0  0  0  0  0  0  0  0
  146.4903  139.8637  154.1548 C   0  0  0  0  0  0  0  0  0  0  0  0
  147.4995  140.7731  153.4334 C   0  0  0  0  0  0  0  0  0  0  0  0
  148.8400  140.8816  154.1768 C   0  0  2  0  0  0  0  0  0  0  0  0
  149.5088  139.5058  154.3651 C   0  0  0  0  0  0  0  0  0  0  0  0
  150.8011  139.6406  155.1786 C   0  0  0  0  0  0  0  0  0  0  0  0
  150.5148  140.3858  156.4864 C   0  0  0  0  0  0  0  0  0  0  0  0
  149.7920  141.7109  156.1987 C   0  0  0  0  0  0  0  0  0  0  0  0
  148.6012  141.4622  155.4581 O   0  0  0  0  0  0  0  0  0  0  0  0
  144.6126  134.8598  152.7145 N   0  0  0  0  0  0  0  0  0  0  0  0
  144.4055  133.6071  152.2572 C   0  0  0  0  0  0  0  0  0  0  0  0
  143.9677  131.8055  149.3540 H   0  0  0  0  0  0  0  0  0  0  0  0
  143.1822  131.4626  150.8986 H   0  0  0  0  0  0  0  0  0  0  0  0
  144.9276  131.2372  150.7246 H   0  0  0  0  0  0  0  0  0  0  0  0
  144.3869  134.1493  148.8954 H   0  0  0  0  0  0  0  0  0  0  0  0
  144.7689  136.4621  149.7326 H   0  0  0  0  0  0  0  0  0  0  0  0
  144.4865  137.9172  151.6435 H   0  0  0  0  0  0  0  0  0  0  0  0
  145.1774  139.5257  152.5329 H   0  0  0  0  0  0  0  0  0  0  0  0
  145.8051  140.4577  154.7619 H   0  0  0  0  0  0  0  0  0  0  0  0
  147.0122  139.1968  154.8415 H   0  0  0  0  0  0  0  0  0  0  0  0
  147.6707  140.4048  152.4210 H   0  0  0  0  0  0  0  0  0  0  0  0
  147.0701  141.7705  153.3288 H   0  0  0  0  0  0  0  0  0  0  0  0
  149.5064  141.5314  153.6062 H   0  0  0  0  0  0  0  0  0  0  0  0
  148.8236  138.8305  154.8793 H   0  0  0  0  0  0  0  0  0  0  0  0
  149.7250  139.0536  153.3966 H   0  0  0  0  0  0  0  0  0  0  0  0
  151.2256  138.6580  155.3856 H   0  0  0  0  0  0  0  0  0  0  0  0
  151.5445  140.1891  154.5986 H   0  0  0  0  0  0  0  0  0  0  0  0
  149.8928  139.7661  157.1334 H   0  0  0  0  0  0  0  0  0  0  0  0
  151.4431  140.5704  157.0273 H   0  0  0  0  0  0  0  0  0  0  0  0
  149.5276  142.2042  157.1344 H   0  0  0  0  0  0  0  0  0  0  0  0
  150.4383  142.3968  155.6489 H   0  0  0  0  0  0  0  0  0  0  0  0
  144.3110  132.8351  153.0069 H   0  0  0  0  0  0  0  0  0  0  0  0
  1  2  1  0  0  0  0
  1 20  1  0  0  0  0
  1 21  1  0  0  0  0
  1 22  1  0  0  0  0
  2 19  1  0  0  0  0
  2  3  2  0  0  0  0
  3  4  1  0  0  0  0
  3 23  1  0  0  0  0
  4  5  2  0  0  0  0
  4 24  1  0  0  0  0
  5  6  1  0  0  0  0
  5 18  1  0  0  0  0
  6  7  1  0  0  0  0
  6 25  1  0  0  0  0
  7  8  2  0  0  0  0
  7  9  1  0  0  0  0
  9 10  1  0  0  0  0
  9 26  1  0  0  0  0
 10 11  1  0  0  0  0
 10 27  1  0  0  0  0
 10 28  1  0  0  0  0
 11 12  1  0  0  0  0
 11 29  1  0  0  0  0
 11 30  1  0  0  0  0
 12 17  1  0  0  0  0
 12 13  1  0  0  0  0
 12 31  1  0  0  0  0
 13 14  1  0  0  0  0
 13 32  1  0  0  0  0
 13 33  1  0  0  0  0
 14 15  1  0  0  0  0
 14 34  1  0  0  0  0
 14 35  1  0  0  0  0
 15 16  1  0  0  0  0
 15 36  1  0  0  0  0
 15 37  1  0  0  0  0
 16 17  1  0  0  0  0
 16 38  1  0  0  0  0
 16 39  1  0  0  0  0
 18 19  2  0  0  0  0
 19 40  1  0  0  0  0
M  END
> <s_m_source_file>
AV-unprocessed.smi

> <i_m_source_file_index>
2359

> <i_lp_mmshare_version>
43012

> <i_f3d_flags>
0

> <s_epik_input>
W0NIM11jMVtjSF1bY0hdYyhuW2NIXTEpW05IXUMoPU8pW05IXVtDSDJdW0NIMl1bQ0BASF0yW0NIMl1bQ0gyXVtDSDJdW0NIMl1PMg==

> <s_epik_cmdline>
J2VwaWtfcHl0aG9uJywgJy1waCcsICc3LjAnLCAnLXRuJywgJzgnLCAnLW1hJywgJzIwMCcsICctbWV0YWxfYmluZGluZycsICctaW1hZScsICc8aW5maWxlLm1hZT4nLCAnLW9tYWUnLCAnPG91dGZpbGUubWFlPic=

> <r_lp_tautomer_probability>
1

> <r_epik_Ionization_Penalty>
5.73679e-05

> <r_epik_Ionization_Penalty_Charging>
0

> <r_epik_Ionization_Penalty_Neutral>
5.73679e-05

> <r_epik_State_Penalty>
-0

> <r_epik_Charging_Adjusted_Penalty>
0

> <i_epik_Tot_Q>
0

> <i_epik_Tot_abs_Q>
0

> <r_epik_Metal_State_Penalty>
-0

> <b_epik_Metal_Only>
0

> <s_lp_Force_Field>
OPLS_2005

> <r_lp_Energy>
10.9797

> <b_lp_Chiralities_Consistent>
1

> <s_lp_Variant>
AV-unprocessed.smi:2359-1

> <Gold.Version>
5.8.1

> <Gold.Id.Protein>
6NUR|6NUR_protein|mol2

> <Gold.PLP.Fitness>
38.6234

> <Gold.PLP.PLP>
-31.5714

> <Gold.PLP.part.hbond>
-2.0000

> <Gold.PLP.part.metal>
0.0000

> <Gold.PLP.part.buried>
0.2564

> <Gold.PLP.part.nonpolar>
-30.1452

> <Gold.PLP.part.repulsive>
0.2945

> <Gold.PLP.ligand.clash>
0.0000

> <Gold.PLP.ligand.torsion>
0.5864

> <Gold.PLP.Chemscore.Hbond>
1.7433

> <Gold.PLP.Chemscore.CHOScore>
0.9967

> <Gold.PLP.Chemscore.Metal>
0.0000

> <Gold.Chemscore.Hbonds>
donor molecule, donor type, donor heavy atom, donor atom, acceptor molecule, acceptor atom, score
      L1  H     6    25       P1 10171  0.97
      L1  H     9    26       P1 10175  0.80
      L1  C    19    40       P1 10957  0.74

> <Gold.PLP.Chemscore.Internal.Correction>
0.0050

> <Gold.Rescore>
     Score         DG    S(hbond)    S(metal)    S(lipo)     H(rot)  DE(clash)    DE(int)     intcor
     15.41     -16.70       1.62        0.00      80.93       1.42       0.03       1.26       ----

> <Gold.Chemscore.Fitness>
15.4052

> <Gold.Chemscore.DG>
-16.6976

> <Gold.Chemscore.ZeroCoef>
-5.4800

> <Gold.Chemscore.Hbond>
1.6157

> <Gold.Chemscore.Metal>
0.0000

> <Gold.Chemscore.Lipo>
80.9306

> <Gold.Chemscore.Internal_Hbond>
0.0000

> <Gold.Chemscore.DEClash>
0.0319

> <Gold.Chemscore.DEInternal>
1.2605

> <Gold.Chemscore.Rot>
1.4248

> <Gold.Chemscore.Internal.Correction>
   9.000000E+99

> <Gold.Chemscore.Hbonds>
donor molecule, donor type, donor heavy atom, donor atom, acceptor molecule, acceptor atom, score
      L1  H     6    25       P1 10171  0.86
      L1  H     9    26       P1 10175  0.80

> <Gold.Chemscore.Hbond.Weighted>
-5.3963

> <Gold.Chemscore.Metal.Weighted>
-0.0000

> <Gold.Chemscore.Lipo.Weighted>
-9.4689

> <Gold.Chemscore.Internal_Hbond.Weighted>
0.0000

> <Gold.Chemscore.DEClash.Weighted>
0.0319

> <Gold.Chemscore.DEInternal.Weighted>
1.2605

> <Gold.Chemscore.Rot.Weighted>
3.6476

> <Gold.Chemscore.Internal.Correction.Weighted>
   9.000000E+99

> <Gold.Protein.RotatedTorsions>
[ 6907 6896 6895 6894 ] final  128.63 input  -60.11 | X-H torsion
[ 7974 7965 7964 7962 ] final  -48.96 input  175.53 | X-H torsion
[ 8008 7997 7996 7995 ] final  -58.20 input   59.86 | X-H torsion
[ 10167 10162 10161 10158 ] final   60.51 input  -65.29 | X-H torsion
[ 10718 10713 10712 10709 ] final -139.21 input   66.30 | X-H torsion
[ 10763 10752 10751 10750 ] final -127.76 input  -60.55 | X-H torsion
[ 11005 11000 10999 10996 ] final  -84.95 input  -57.11 | X-H torsion

> <Gold.Protein.ActiveResidues>
 VAL166  LYS551  ARG553  GLY616  TRP617  ASP618  TYR619  PRO620  LYS621  CYS622 
 ASP623  PHE694  ASN695  SER759  ASP760  ASP761  ALA762  ILE779  LEU786  VAL792 
 PHE793  MET794  SER795  GLU796  ALA797  LYS798  CYS799  TRP800  GLU811  SER814 

> <Gold.Protein.RotatedAtoms>
  152.3701  133.6408  159.6080 H   0  0  0  0  0  0  0  0  0  0  0  0  # atno 6907 bound_to 6896
  150.7663  133.9283  159.3428 H   0  0  0  0  0  0  0  0  0  0  0  0  # atno 6908 bound_to 6896
  151.7107  135.0914  160.0318 H   0  0  0  0  0  0  0  0  0  0  0  0  # atno 6909 bound_to 6896
  145.9456  140.7621  142.9530 H   0  0  0  0  0  0  0  0  0  0  0  0  # atno 7974 bound_to 7965
  154.4299  140.1089  156.5919 H   0  0  0  0  0  0  0  0  0  0  0  0  # atno 8008 bound_to 7997
  155.6003  140.3493  155.4573 H   0  0  0  0  0  0  0  0  0  0  0  0  # atno 8009 bound_to 7997
  156.0179  140.1233  157.0377 H   0  0  0  0  0  0  0  0  0  0  0  0  # atno 8010 bound_to 7997
  140.1649  144.4334  150.6690 H   0  0  0  0  0  0  0  0  0  0  0  0  # atno 10167 bound_to 10162
  156.3081  130.7466  151.1535 H   0  0  0  0  0  0  0  0  0  0  0  0  # atno 10718 bound_to 10713
  154.8754  135.3951  154.3647 H   0  0  0  0  0  0  0  0  0  0  0  0  # atno 10763 bound_to 10752
  153.4415  135.7027  153.6171 H   0  0  0  0  0  0  0  0  0  0  0  0  # atno 10764 bound_to 10752
  153.4750  135.3782  155.2381 H   0  0  0  0  0  0  0  0  0  0  0  0  # atno 10765 bound_to 10752
  141.1646  133.7373  156.8944 H   0  0  0  0  0  0  0  0  0  0  0  0  # atno 11005 bound_to 11000
  144.6786  140.2351  143.7350 LP  0  0  0  0  0  0  0  0  0  0  0  0  # atno 17320 bound_to 7965
  145.8241  139.2056  143.1921 LP  0  0  0  0  0  0  0  0  0  0  0  0  # atno 17321 bound_to 7965
  140.6620  143.2255  151.5834 LP  0  0  0  0  0  0  0  0  0  0  0  0  # atno 17342 bound_to 10162
  139.5364  144.2769  152.1260 LP  0  0  0  0  0  0  0  0  0  0  0  0  # atno 17343 bound_to 10162
  157.7384  131.0541  150.5294 LP  0  0  0  0  0  0  0  0  0  0  0  0  # atno 17370 bound_to 10713
  156.5430  130.4213  149.6144 LP  0  0  0  0  0  0  0  0  0  0  0  0  # atno 17371 bound_to 10713
  140.1626  134.9155  157.2734 LP  0  0  0  0  0  0  0  0  0  0  0  0  # atno 17394 bound_to 11000
  140.2593  134.3590  155.7412 LP  0  0  0  0  0  0  0  0  0  0  0  0  # atno 17395 bound_to 11000

$$$$
