AV-unprocessed.smi:2198|AV-procd|sdf|8921|dock7
  -GOLD-   2272012133D 1   1.00000     0.00000
 Structure written by MMmdl.
 42 43  0  0  0  0  0  0  0  0  2 V2000
  149.6373  134.2438  154.7499 C   0  0  0  0  0  0  0  0  0  0  0  0
  149.8462  135.7392  154.8602 C   0  0  0  0  0  0  0  0  0  0  0  0
  148.8380  136.4981  155.0653 N   0  0  0  0  0  0  0  0  0  0  0  0
  149.0282  137.8861  155.1747 C   0  0  0  0  0  0  0  0  0  0  0  0
  147.7750  138.7075  155.4235 C   0  0  0  0  0  0  0  0  0  0  0  0
  150.2698  138.4399  155.0630 C   0  0  0  0  0  0  0  0  0  0  0  0
  150.5302  139.9409  155.1830 C   0  0  0  0  0  0  0  0  0  0  0  0
  151.4789  140.3534  156.3096 C   0  0  0  0  0  0  0  0  0  0  0  0
  152.5197  139.7251  156.5013 O   0  0  0  0  0  0  0  0  0  0  0  0
  151.1089  141.4127  157.0458 N   0  0  0  0  0  0  0  0  0  0  0  0
  151.8690  141.9788  158.1552 C   0  0  2  0  0  0  0  0  0  0  0  0
  151.8231  141.0425  159.3795 C   0  0  0  0  0  0  0  0  0  0  0  0
  152.5549  141.6594  160.5808 C   0  0  0  0  0  0  0  0  0  0  0  0
  151.9901  143.0462  160.9256 C   0  0  0  0  0  0  0  0  0  0  0  0
  152.0391  143.9942  159.7119 C   0  0  2  0  0  0  0  0  0  0  0  0
  151.4707  145.3776  160.0587 C   0  0  0  0  0  0  0  0  0  0  0  0
  151.3067  143.3689  158.5083 C   0  0  0  0  0  0  0  0  0  0  0  0
  151.4043  137.5307  154.8194 C   0  0  0  0  0  0  0  0  0  0  0  0
  152.5443  137.9773  154.6975 O   0  0  0  0  0  0  0  0  0  0  0  0
  151.1385  136.1960  154.7333 N   0  5  0  0  0  0  0  0  0  0  0  0
  148.5765  133.9990  154.6804 H   0  0  0  0  0  0  0  0  0  0  0  0
  150.0490  133.7413  155.6256 H   0  0  0  0  0  0  0  0  0  0  0  0
  150.1345  133.8543  153.8610 H   0  0  0  0  0  0  0  0  0  0  0  0
  147.8622  139.2740  156.3506 H   0  0  0  0  0  0  0  0  0  0  0  0
  146.8946  138.0689  155.5056 H   0  0  0  0  0  0  0  0  0  0  0  0
  147.6059  139.4042  154.6027 H   0  0  0  0  0  0  0  0  0  0  0  0
  150.9242  140.2995  154.2317 H   0  0  0  0  0  0  0  0  0  0  0  0
  149.5954  140.4874  155.3096 H   0  0  0  0  0  0  0  0  0  0  0  0
  150.2379  141.8667  156.8123 H   0  0  0  0  0  0  0  0  0  0  0  0
  152.9083  142.1040  157.8446 H   0  0  0  0  0  0  0  0  0  0  0  0
  150.7863  140.8406  159.6523 H   0  0  0  0  0  0  0  0  0  0  0  0
  152.2718  140.0789  159.1356 H   0  0  0  0  0  0  0  0  0  0  0  0
  152.4724  140.9993  161.4448 H   0  0  0  0  0  0  0  0  0  0  0  0
  153.6192  141.7428  160.3566 H   0  0  0  0  0  0  0  0  0  0  0  0
  150.9610  142.9426  161.2724 H   0  0  0  0  0  0  0  0  0  0  0  0
  152.5537  143.4728  161.7560 H   0  0  0  0  0  0  0  0  0  0  0  0
  153.0853  144.1302  159.4338 H   0  0  0  0  0  0  0  0  0  0  0  0
  150.4217  145.3137  160.3500 H   0  0  0  0  0  0  0  0  0  0  0  0
  151.5394  146.0558  159.2078 H   0  0  0  0  0  0  0  0  0  0  0  0
  152.0187  145.8308  160.8853 H   0  0  0  0  0  0  0  0  0  0  0  0
  151.3904  144.0282  157.6431 H   0  0  0  0  0  0  0  0  0  0  0  0
  150.2415  143.2885  158.7316 H   0  0  0  0  0  0  0  0  0  0  0  0
  1  2  1  0  0  0  0
  1 21  1  0  0  0  0
  1 22  1  0  0  0  0
  1 23  1  0  0  0  0
  2 20  1  0  0  0  0
  2  3  2  0  0  0  0
  3  4  1  0  0  0  0
  4  5  1  0  0  0  0
  4  6  2  0  0  0  0
  5 24  1  0  0  0  0
  5 25  1  0  0  0  0
  5 26  1  0  0  0  0
  6  7  1  0  0  0  0
  6 18  1  0  0  0  0
  7  8  1  0  0  0  0
  7 27  1  0  0  0  0
  7 28  1  0  0  0  0
  8  9  2  0  0  0  0
  8 10  1  0  0  0  0
 10 11  1  0  0  0  0
 10 29  1  0  0  0  0
 11 17  1  0  0  0  0
 11 12  1  0  0  0  0
 11 30  1  0  0  0  0
 12 13  1  0  0  0  0
 12 31  1  0  0  0  0
 12 32  1  0  0  0  0
 13 14  1  0  0  0  0
 13 33  1  0  0  0  0
 13 34  1  0  0  0  0
 14 15  1  0  0  0  0
 14 35  1  0  0  0  0
 14 36  1  0  0  0  0
 15 16  1  0  0  0  0
 15 17  1  0  0  0  0
 15 37  1  0  0  0  0
 16 38  1  0  0  0  0
 16 39  1  0  0  0  0
 16 40  1  0  0  0  0
 17 41  1  0  0  0  0
 17 42  1  0  0  0  0
 18 19  2  0  0  0  0
 18 20  1  0  0  0  0
M  CHG  1  20  -1
M  END
> <s_m_source_file>
AV-unprocessed.smi

> <i_m_source_file_index>
2198

> <i_lp_mmshare_version>
43012

> <i_f3d_flags>
0

> <s_epik_input>
W0NIM11jMW5jKFtDSDNdKWMoYyg9TylbbkhdMSlbQ0gyXUMoPU8pW05IXVtDQEBIXTJbQ0gyXVtDSDJdW0NIMl1bQ0BASF0oW0NIM10pW0NIMl0y

> <s_epik_cmdline>
J2VwaWtfcHl0aG9uJywgJy1waCcsICc3LjAnLCAnLXRuJywgJzgnLCAnLW1hJywgJzIwMCcsICctbWV0YWxfYmluZGluZycsICctaW1hZScsICc8aW5maWxlLm1hZT4nLCAnLW9tYWUnLCAnPG91dGZpbGUubWFlPic=

> <r_lp_tautomer_probability>
0.839158

> <r_epik_Ionization_Penalty>
6.67193

> <r_epik_Ionization_Penalty_Charging>
7.66837e-08

> <r_epik_Ionization_Penalty_Neutral>
6.67193

> <r_epik_State_Penalty>
4.51643

> <r_epik_Charging_Adjusted_Penalty>
4.51643

> <i_epik_Tot_Q>
-1

> <i_epik_Tot_abs_Q>
1

> <r_epik_Metal_State_Penalty>
0.851582

> <b_epik_Metal_Only>
1

> <s_lp_Force_Field>
OPLS_2005

> <r_lp_Energy>
13.6631

> <b_lp_Chiralities_Consistent>
1

> <s_lp_Variant>
AV-unprocessed.smi:2198-11

> <Gold.Version>
5.8.1

> <Gold.Id.Protein>
6NUR|6NUR_protein|mol2

> <Gold.PLP.Fitness>
45.6308

> <Gold.PLP.PLP>
-40.2593

> <Gold.PLP.part.hbond>
-2.4788

> <Gold.PLP.part.metal>
0.0000

> <Gold.PLP.part.buried>
-5.5946

> <Gold.PLP.part.nonpolar>
-32.5379

> <Gold.PLP.part.repulsive>
0.4349

> <Gold.PLP.ligand.clash>
0.0000

> <Gold.PLP.ligand.torsion>
0.3488

> <Gold.PLP.Chemscore.Hbond>
2.0218

> <Gold.PLP.Chemscore.CHOScore>
0.0000

> <Gold.PLP.Chemscore.Metal>
0.0000

> <Gold.Chemscore.Hbonds>
donor molecule, donor type, donor heavy atom, donor atom, acceptor molecule, acceptor atom, score
      P1  H  7997  8009       L1     9  0.06
      P1  H 10752 10763       L1    20  1.80

> <Gold.PLP.Chemscore.Internal.Correction>
0.0036

> <Gold.Rescore>
     Score         DG    S(hbond)    S(metal)    S(lipo)     H(rot)  DE(clash)    DE(int)     intcor
     11.71     -15.89       1.11        0.00      88.88       1.45       0.13       4.06       ----

> <Gold.Chemscore.Fitness>
11.7065

> <Gold.Chemscore.DG>
-15.8949

> <Gold.Chemscore.ZeroCoef>
-5.4800

> <Gold.Chemscore.Hbond>
1.1122

> <Gold.Chemscore.Metal>
0.0000

> <Gold.Chemscore.Lipo>
88.8821

> <Gold.Chemscore.Internal_Hbond>
0.0000

> <Gold.Chemscore.DEClash>
0.1313

> <Gold.Chemscore.DEInternal>
4.0571

> <Gold.Chemscore.Rot>
1.4450

> <Gold.Chemscore.Internal.Correction>
   9.000000E+99

> <Gold.Chemscore.Hbonds>
donor molecule, donor type, donor heavy atom, donor atom, acceptor molecule, acceptor atom, score
      P1  H  7997  8009       L1     9  0.07
      P1  H 10752 10763       L1    20  0.18

> <Gold.Chemscore.Hbond.Weighted>
-3.7149

> <Gold.Chemscore.Metal.Weighted>
-0.0000

> <Gold.Chemscore.Lipo.Weighted>
-10.3992

> <Gold.Chemscore.Internal_Hbond.Weighted>
0.0000

> <Gold.Chemscore.DEClash.Weighted>
0.1313

> <Gold.Chemscore.DEInternal.Weighted>
4.0571

> <Gold.Chemscore.Rot.Weighted>
3.6992

> <Gold.Chemscore.Internal.Correction.Weighted>
   9.000000E+99

> <Gold.Protein.RotatedTorsions>
[ 6907 6896 6895 6894 ] final  -60.26 input  -60.11 | X-H torsion
[ 7974 7965 7964 7962 ] final -130.76 input  175.53 | X-H torsion
[ 8008 7997 7996 7995 ] final  141.40 input   59.86 | X-H torsion
[ 10167 10162 10161 10158 ] final   91.54 input  -65.29 | X-H torsion
[ 10718 10713 10712 10709 ] final   61.82 input   66.30 | X-H torsion
[ 10763 10752 10751 10750 ] final   60.03 input  -60.55 | X-H torsion
[ 11005 11000 10999 10996 ] final  -47.90 input  -57.11 | X-H torsion

> <Gold.Protein.ActiveResidues>
 VAL166  LYS551  ARG553  GLY616  TRP617  ASP618  TYR619  PRO620  LYS621  CYS622 
 ASP623  PHE694  ASN695  SER759  ASP760  ASP761  ALA762  ILE779  LEU786  VAL792 
 PHE793  MET794  SER795  GLU796  ALA797  LYS798  CYS799  TRP800  GLU811  SER814 

> <Gold.Protein.RotatedAtoms>
  150.7869  134.6861  159.6470 H   0  0  0  0  0  0  0  0  0  0  0  0  # atno 6907 bound_to 6896
  152.3967  134.6350  160.0095 H   0  0  0  0  0  0  0  0  0  0  0  0  # atno 6908 bound_to 6896
  151.6633  133.3279  159.3215 H   0  0  0  0  0  0  0  0  0  0  0  0  # atno 6909 bound_to 6896
  144.9444  140.7274  143.4827 H   0  0  0  0  0  0  0  0  0  0  0  0  # atno 7974 bound_to 7965
  156.2966  140.2316  156.4559 H   0  0  0  0  0  0  0  0  0  0  0  0  # atno 8008 bound_to 7997
  154.8061  140.0445  157.1329 H   0  0  0  0  0  0  0  0  0  0  0  0  # atno 8009 bound_to 7997
  154.9477  140.3038  155.5093 H   0  0  0  0  0  0  0  0  0  0  0  0  # atno 8010 bound_to 7997
  139.8365  144.6662  150.9336 H   0  0  0  0  0  0  0  0  0  0  0  0  # atno 10167 bound_to 10162
  157.5856  130.9016  149.9509 H   0  0  0  0  0  0  0  0  0  0  0  0  # atno 10718 bound_to 10713
  152.9910  135.5550  154.5809 H   0  0  0  0  0  0  0  0  0  0  0  0  # atno 10763 bound_to 10752
  154.5190  135.2806  155.1280 H   0  0  0  0  0  0  0  0  0  0  0  0  # atno 10764 bound_to 10752
  154.2641  135.6375  153.5338 H   0  0  0  0  0  0  0  0  0  0  0  0  # atno 10765 bound_to 10752
  141.0669  133.6691  156.3364 H   0  0  0  0  0  0  0  0  0  0  0  0  # atno 11005 bound_to 11000
  145.2941  139.1873  143.4724 LP  0  0  0  0  0  0  0  0  0  0  0  0  # atno 17320 bound_to 7965
  146.3298  140.2923  142.8616 LP  0  0  0  0  0  0  0  0  0  0  0  0  # atno 17321 bound_to 7965
  140.7802  143.3952  151.1241 LP  0  0  0  0  0  0  0  0  0  0  0  0  # atno 17342 bound_to 10162
  139.7602  143.8647  152.3098 LP  0  0  0  0  0  0  0  0  0  0  0  0  # atno 17343 bound_to 10162
  156.0904  130.3664  150.0405 LP  0  0  0  0  0  0  0  0  0  0  0  0  # atno 17370 bound_to 10713
  156.8537  130.9468  151.3623 LP  0  0  0  0  0  0  0  0  0  0  0  0  # atno 17371 bound_to 10713
  140.5755  134.5797  157.5467 LP  0  0  0  0  0  0  0  0  0  0  0  0  # atno 17394 bound_to 11000
  139.9485  134.7659  156.0505 LP  0  0  0  0  0  0  0  0  0  0  0  0  # atno 17395 bound_to 11000

$$$$
