AV-unprocessed.smi:2532|AV-procd|sdf|9970|dock10
  -GOLD-   2272014 13D 1   1.00000     0.00000
 Structure written by MMmdl.
 37 39  0  0  0  0  0  0  0  0  2 V2000
  152.4096  138.2506  158.5498 O   0  0  0  0  0  0  0  0  0  0  0  0
  151.7451  139.4181  158.1091 C   0  0  2  0  0  0  0  0  0  0  0  0
  151.5634  139.3243  156.5863 C   0  0  0  0  0  0  0  0  0  0  0  0
  150.2148  138.9908  156.3039 O   0  0  0  0  0  0  0  0  0  0  0  0
  149.9177  139.0299  154.9171 C   0  0  0  0  0  0  0  0  0  0  0  0
  148.7387  139.9303  154.7184 C   0  0  0  0  0  0  0  0  0  0  0  0
  148.7134  141.2930  154.8752 C   0  0  0  0  0  0  0  0  0  0  0  0
  147.4396  141.8705  154.5971 C   0  0  0  0  0  0  0  0  0  0  0  0
  146.5053  140.9415  154.2244 C   0  0  0  0  0  0  0  0  0  0  0  0
  147.1755  139.3335  154.2055 S   0  0  0  0  0  0  0  0  0  0  0  0
  152.5687  140.6569  158.5135 C   0  0  0  0  0  0  0  0  0  0  0  0
  151.8936  141.9232  158.1930 N   0  0  0  0  0  0  0  0  0  0  0  0
  151.1078  142.2406  157.1284 C   0  0  0  0  0  0  0  0  0  0  0  0
  150.7189  143.5373  157.2751 N   0  3  0  0  0  0  0  0  0  0  0  0
  151.2622  144.0569  158.4517 C   0  0  0  0  0  0  0  0  0  0  0  0
  151.1518  145.3201  159.0250 C   0  0  0  0  0  0  0  0  0  0  0  0
  151.8336  145.5244  160.2426 C   0  0  0  0  0  0  0  0  0  0  0  0
  152.5866  144.4953  160.8441 C   0  0  0  0  0  0  0  0  0  0  0  0
  152.6926  143.2189  160.2533 C   0  0  0  0  0  0  0  0  0  0  0  0
  152.0175  143.0248  159.0484 C   0  0  0  0  0  0  0  0  0  0  0  0
  151.8136  137.7569  159.0930 H   0  0  0  0  0  0  0  0  0  0  0  0
  150.7679  139.4710  158.5909 H   0  0  0  0  0  0  0  0  0  0  0  0
  151.7787  140.2919  156.1300 H   0  0  0  0  0  0  0  0  0  0  0  0
  152.2538  138.6003  156.1496 H   0  0  0  0  0  0  0  0  0  0  0  0
  150.7753  139.4037  154.3561 H   0  0  0  0  0  0  0  0  0  0  0  0
  149.6866  138.0293  154.5493 H   0  0  0  0  0  0  0  0  0  0  0  0
  149.5599  141.8912  155.1786 H   0  0  0  0  0  0  0  0  0  0  0  0
  147.2564  142.9318  154.6774 H   0  0  0  0  0  0  0  0  0  0  0  0
  145.4709  141.1021  153.9585 H   0  0  0  0  0  0  0  0  0  0  0  0
  152.8203  140.6382  159.5741 H   0  0  0  0  0  0  0  0  0  0  0  0
  153.5180  140.6605  157.9764 H   0  0  0  0  0  0  0  0  0  0  0  0
  150.8415  141.5828  156.3136 H   0  0  0  0  0  0  0  0  0  0  0  0
  150.5736  146.1096  158.5676 H   0  0  0  0  0  0  0  0  0  0  0  0
  151.7764  146.4891  160.7255 H   0  0  0  0  0  0  0  0  0  0  0  0
  153.0925  144.6876  161.7793 H   0  0  0  0  0  0  0  0  0  0  0  0
  153.2668  142.4365  160.7268 H   0  0  0  0  0  0  0  0  0  0  0  0
  150.1254  144.0287  156.6190 H   0  0  0  0  0  0  0  0  0  0  0  0
  1  2  1  0  0  0  0
  1 21  1  0  0  0  0
  2  3  1  0  0  0  0
  2 11  1  0  0  0  0
  2 22  1  0  0  0  0
  3  4  1  0  0  0  0
  3 23  1  0  0  0  0
  3 24  1  0  0  0  0
  4  5  1  0  0  0  0
  5  6  1  0  0  0  0
  5 25  1  0  0  0  0
  5 26  1  0  0  0  0
  6 10  1  0  0  0  0
  6  7  2  0  0  0  0
  7  8  1  0  0  0  0
  7 27  1  0  0  0  0
  8  9  2  0  0  0  0
  8 28  1  0  0  0  0
  9 10  1  0  0  0  0
  9 29  1  0  0  0  0
 11 12  1  0  0  0  0
 11 30  1  0  0  0  0
 11 31  1  0  0  0  0
 12 20  1  0  0  0  0
 12 13  1  0  0  0  0
 13 14  2  0  0  0  0
 13 32  1  0  0  0  0
 14 15  1  0  0  0  0
 14 37  1  0  0  0  0
 15 20  2  0  0  0  0
 15 16  1  0  0  0  0
 16 17  2  0  0  0  0
 16 33  1  0  0  0  0
 17 18  1  0  0  0  0
 17 34  1  0  0  0  0
 18 19  2  0  0  0  0
 18 35  1  0  0  0  0
 19 20  1  0  0  0  0
 19 36  1  0  0  0  0
M  CHG  1  14   1
M  END
> <s_m_source_file>
AV-unprocessed.smi

> <i_m_source_file_index>
2532

> <i_lp_mmshare_version>
43012

> <i_f3d_flags>
0

> <s_epik_input>
W2NIXTFbY0hdW2NIXVtjSF1jKGMxMiluKFtjSF1uMilbQ0gyXVtDQEhdKFtPSF0pW0NIMl1PW0NIMl1jM1tjSF1bY0hdW2NIXXMz

> <s_epik_cmdline>
J2VwaWtfcHl0aG9uJywgJy1waCcsICc3LjAnLCAnLXRuJywgJzgnLCAnLW1hJywgJzIwMCcsICctbWV0YWxfYmluZGluZycsICctaW1hZScsICc8aW5maWxlLm1hZT4nLCAnLW9tYWUnLCAnPG91dGZpbGUubWFlPic=

> <r_epik_Ionization_Penalty>
1.31758

> <r_epik_Ionization_Penalty_Charging>
1.31758

> <r_epik_Ionization_Penalty_Neutral>
1.26231e-06

> <r_epik_State_Penalty>
1.39289

> <r_epik_Charging_Adjusted_Penalty>
2.71047

> <i_epik_Tot_Q>
1

> <i_epik_Tot_abs_Q>
1

> <r_epik_Metal_State_Penalty>
5.42637

> <b_epik_Metal_Only>
0

> <s_lp_Force_Field>
OPLS_2005

> <r_lp_Energy>
15.3098

> <b_lp_Chiralities_Consistent>
1

> <s_lp_Variant>
AV-unprocessed.smi:2532-3

> <Gold.Version>
5.8.1

> <Gold.Id.Protein>
6NUR|6NUR_protein|mol2

> <Gold.PLP.Fitness>
53.6386

> <Gold.PLP.PLP>
-47.4408

> <Gold.PLP.part.hbond>
-1.0000

> <Gold.PLP.part.metal>
0.0000

> <Gold.PLP.part.buried>
-3.4124

> <Gold.PLP.part.nonpolar>
-41.9836

> <Gold.PLP.part.repulsive>
0.0004

> <Gold.PLP.ligand.clash>
0.0000

> <Gold.PLP.ligand.torsion>
1.4271

> <Gold.PLP.Chemscore.Hbond>
2.0000

> <Gold.PLP.Chemscore.CHOScore>
0.9941

> <Gold.PLP.Chemscore.Metal>
0.0000

> <Gold.Chemscore.Hbonds>
donor molecule, donor type, donor heavy atom, donor atom, acceptor molecule, acceptor atom, score
      L1  H    14    37       P1  8028  2.00
      L1  C     9    29       P1 10175  1.00

> <Gold.PLP.Chemscore.Internal.Correction>
0.0695

> <Gold.Rescore>
     Score         DG    S(hbond)    S(metal)    S(lipo)     H(rot)  DE(clash)    DE(int)     intcor
     14.96     -17.65       0.99        0.00     129.50       2.46       0.08       2.62       ----

> <Gold.Chemscore.Fitness>
14.9584

> <Gold.Chemscore.DG>
-17.6547

> <Gold.Chemscore.ZeroCoef>
-5.4800

> <Gold.Chemscore.Hbond>
0.9948

> <Gold.Chemscore.Metal>
0.0000

> <Gold.Chemscore.Lipo>
129.5022

> <Gold.Chemscore.Internal_Hbond>
0.0000

> <Gold.Chemscore.DEClash>
0.0785

> <Gold.Chemscore.DEInternal>
2.6177

> <Gold.Chemscore.Rot>
2.4608

> <Gold.Chemscore.Internal.Correction>
   9.000000E+99

> <Gold.Chemscore.Hbonds>
donor molecule, donor type, donor heavy atom, donor atom, acceptor molecule, acceptor atom, score
      L1  H    14    37       P1  8028  1.00

> <Gold.Chemscore.Hbond.Weighted>
-3.3226

> <Gold.Chemscore.Metal.Weighted>
-0.0000

> <Gold.Chemscore.Lipo.Weighted>
-15.1518

> <Gold.Chemscore.Internal_Hbond.Weighted>
0.0000

> <Gold.Chemscore.DEClash.Weighted>
0.0785

> <Gold.Chemscore.DEInternal.Weighted>
2.6177

> <Gold.Chemscore.Rot.Weighted>
6.2996

> <Gold.Chemscore.Internal.Correction.Weighted>
   9.000000E+99

> <Gold.Protein.RotatedTorsions>
[ 6907 6896 6895 6894 ] final  -72.30 input  -60.11 | X-H torsion
[ 7974 7965 7964 7962 ] final  136.97 input  175.53 | X-H torsion
[ 8008 7997 7996 7995 ] final   55.25 input   59.86 | X-H torsion
[ 10167 10162 10161 10158 ] final  132.42 input  -65.29 | X-H torsion
[ 10718 10713 10712 10709 ] final    3.09 input   66.30 | X-H torsion
[ 10763 10752 10751 10750 ] final   55.53 input  -60.55 | X-H torsion
[ 11005 11000 10999 10996 ] final -140.71 input  -57.11 | X-H torsion

> <Gold.Protein.ActiveResidues>
 VAL166  LYS551  ARG553  GLY616  TRP617  ASP618  TYR619  PRO620  LYS621  CYS622 
 ASP623  PHE694  ASN695  SER759  ASP760  ASP761  ALA762  ILE779  LEU786  VAL792 
 PHE793  MET794  SER795  GLU796  ALA797  LYS798  CYS799  TRP800  GLU811  SER814 

> <Gold.Protein.RotatedAtoms>
  150.7176  134.5183  159.5640 H   0  0  0  0  0  0  0  0  0  0  0  0  # atno 6907 bound_to 6896
  152.2744  134.7894  160.0417 H   0  0  0  0  0  0  0  0  0  0  0  0  # atno 6908 bound_to 6896
  151.8563  133.3413  159.3726 H   0  0  0  0  0  0  0  0  0  0  0  0  # atno 6909 bound_to 6896
  144.9513  139.4815  143.5524 H   0  0  0  0  0  0  0  0  0  0  0  0  # atno 7974 bound_to 7965
  155.4980  140.3473  155.4366 H   0  0  0  0  0  0  0  0  0  0  0  0  # atno 8008 bound_to 7997
  156.0933  140.1416  156.9592 H   0  0  0  0  0  0  0  0  0  0  0  0  # atno 8009 bound_to 7997
  154.4648  140.0921  156.6968 H   0  0  0  0  0  0  0  0  0  0  0  0  # atno 8010 bound_to 7997
  139.5340  144.6662  151.4850 H   0  0  0  0  0  0  0  0  0  0  0  0  # atno 10167 bound_to 10162
  156.8727  130.5626  149.5656 H   0  0  0  0  0  0  0  0  0  0  0  0  # atno 10718 bound_to 10713
  152.9818  135.5707  154.5082 H   0  0  0  0  0  0  0  0  0  0  0  0  # atno 10763 bound_to 10752
  154.4591  135.2781  155.1728 H   0  0  0  0  0  0  0  0  0  0  0  0  # atno 10764 bound_to 10752
  154.3324  135.6246  153.5611 H   0  0  0  0  0  0  0  0  0  0  0  0  # atno 10765 bound_to 10752
  140.8396  134.2418  157.4817 H   0  0  0  0  0  0  0  0  0  0  0  0  # atno 11005 bound_to 11000
  146.3322  139.8601  142.8858 LP  0  0  0  0  0  0  0  0  0  0  0  0  # atno 17320 bound_to 7965
  145.2839  141.0147  143.3701 LP  0  0  0  0  0  0  0  0  0  0  0  0  # atno 17321 bound_to 7965
  140.6536  143.8646  150.6811 LP  0  0  0  0  0  0  0  0  0  0  0  0  # atno 17342 bound_to 10162
  140.2018  143.3953  152.1786 LP  0  0  0  0  0  0  0  0  0  0  0  0  # atno 17343 bound_to 10162
  156.0718  130.5749  150.9397 LP  0  0  0  0  0  0  0  0  0  0  0  0  # atno 17370 bound_to 10713
  157.6186  131.0931  150.8664 LP  0  0  0  0  0  0  0  0  0  0  0  0  # atno 17371 bound_to 10713
  139.8703  134.9628  156.4442 LP  0  0  0  0  0  0  0  0  0  0  0  0  # atno 17394 bound_to 11000
  140.8910  133.7848  155.9571 LP  0  0  0  0  0  0  0  0  0  0  0  0  # atno 17395 bound_to 11000

$$$$
