AV-unprocessed.smi:2597|AV-procd|sdf|10171|dock3
  -GOLD-   2272014183D 1   1.00000     0.00000
 Structure written by MMmdl.
 31 32  0  0  0  0  0  0  0  0  2 V2000
  151.2768  144.3898  157.2830 N   0  3  0  0  0  0  0  0  0  0  0  0
  151.3443  143.4569  158.4236 C   0  0  2  0  0  0  0  0  0  0  0  0
  152.1019  144.1096  159.5956 C   0  0  0  0  0  0  0  0  0  0  0  0
  152.2183  143.1551  160.7944 C   0  0  0  0  0  0  0  0  0  0  0  0
  152.8852  141.8330  160.3873 C   0  0  0  0  0  0  0  0  0  0  0  0
  152.1327  141.1685  159.2246 C   0  0  0  0  0  0  0  0  0  0  0  0
  152.0091  142.1168  158.0138 C   0  0  1  0  0  0  0  0  0  0  0  0
  151.3101  141.4563  156.9183 N   0  0  0  0  0  0  0  0  0  0  0  0
  150.0726  141.7634  156.3912 C   0  0  0  0  0  0  0  0  0  0  0  0
  149.9218  140.8588  155.3784 C   0  0  0  0  0  0  0  0  0  0  0  0
  148.7803  140.6836  154.4242 C   0  0  0  0  0  0  0  0  0  0  0  0
  149.2019  141.2149  153.1867 O   0  0  0  0  0  0  0  0  0  0  0  0
  151.0567  140.0513  155.3293 N   0  0  0  0  0  0  0  0  0  0  0  0
  151.8881  140.4281  156.2479 N   0  0  0  0  0  0  0  0  0  0  0  0
  150.3192  143.2691  158.7464 H   0  0  0  0  0  0  0  0  0  0  0  0
  153.0183  142.3351  157.6598 H   0  0  0  0  0  0  0  0  0  0  0  0
  152.0834  144.2584  156.6894 H   0  0  0  0  0  0  0  0  0  0  0  0
  151.2615  145.3402  157.6244 H   0  0  0  0  0  0  0  0  0  0  0  0
  153.1014  144.4047  159.2728 H   0  0  0  0  0  0  0  0  0  0  0  0
  151.5951  145.0240  159.9065 H   0  0  0  0  0  0  0  0  0  0  0  0
  152.7905  143.6283  161.5929 H   0  0  0  0  0  0  0  0  0  0  0  0
  151.2265  142.9546  161.2018 H   0  0  0  0  0  0  0  0  0  0  0  0
  153.9198  142.0183  160.0959 H   0  0  0  0  0  0  0  0  0  0  0  0
  152.9209  141.1562  161.2415 H   0  0  0  0  0  0  0  0  0  0  0  0
  152.6487  140.2535  158.9310 H   0  0  0  0  0  0  0  0  0  0  0  0
  151.1415  140.8659  159.5655 H   0  0  0  0  0  0  0  0  0  0  0  0
  149.4416  142.5605  156.7556 H   0  0  0  0  0  0  0  0  0  0  0  0
  148.5152  139.6333  154.2995 H   0  0  0  0  0  0  0  0  0  0  0  0
  147.8922  141.2142  154.7675 H   0  0  0  0  0  0  0  0  0  0  0  0
  149.2328  140.5138  152.5539 H   0  0  0  0  0  0  0  0  0  0  0  0
  150.4361  144.2100  156.7521 H   0  0  0  0  0  0  0  0  0  0  0  0
  1  2  1  0  0  0  0
  1 17  1  0  0  0  0
  1 18  1  0  0  0  0
  1 31  1  0  0  0  0
  2 15  1  0  0  0  0
  2  7  1  0  0  0  0
  2  3  1  0  0  0  0
  3  4  1  0  0  0  0
  3 19  1  0  0  0  0
  3 20  1  0  0  0  0
  4  5  1  0  0  0  0
  4 21  1  0  0  0  0
  4 22  1  0  0  0  0
  5  6  1  0  0  0  0
  5 23  1  0  0  0  0
  5 24  1  0  0  0  0
  6  7  1  0  0  0  0
  6 25  1  0  0  0  0
  6 26  1  0  0  0  0
  7 16  1  0  0  0  0
  7  8  1  0  0  0  0
  8 14  1  0  0  0  0
  8  9  1  0  0  0  0
  9 10  2  0  0  0  0
  9 27  1  0  0  0  0
 10 11  1  0  0  0  0
 10 13  1  0  0  0  0
 11 12  1  0  0  0  0
 11 28  1  0  0  0  0
 11 29  1  0  0  0  0
 12 30  1  0  0  0  0
 13 14  2  0  0  0  0
M  CHG  1   1   1
M  END
> <s_m_source_file>
AV-unprocessed.smi

> <i_m_source_file_index>
2597

> <i_lp_mmshare_version>
43012

> <i_f3d_flags>
0

> <s_epik_input>
W05IMl1bQ0BIXTFbQ0gyXVtDSDJdW0NIMl1bQ0gyXVtDQEhdMW4yW2NIXWMobm4yKVtDSDJdW09IXQ==

> <s_epik_cmdline>
J2VwaWtfcHl0aG9uJywgJy1waCcsICc3LjAnLCAnLXRuJywgJzgnLCAnLW1hJywgJzIwMCcsICctbWV0YWxfYmluZGluZycsICctaW1hZScsICc8aW5maWxlLm1hZT4nLCAnLW9tYWUnLCAnPG91dGZpbGUubWFlPic=

> <r_lp_tautomer_probability>
1

> <r_epik_Ionization_Penalty>
0.014346

> <r_epik_Ionization_Penalty_Charging>
0.014316

> <r_epik_Ionization_Penalty_Neutral>
3.00097e-05

> <r_epik_State_Penalty>
0.0111909

> <r_epik_Charging_Adjusted_Penalty>
0.0255069

> <i_epik_Tot_Q>
1

> <i_epik_Tot_abs_Q>
1

> <r_epik_Metal_State_Penalty>
0.011192

> <b_epik_Metal_Only>
0

> <s_lp_Force_Field>
OPLS_2005

> <r_lp_Energy>
13.7949

> <b_lp_Chiralities_Consistent>
1

> <s_lp_Variant>
AV-unprocessed.smi:2597-2

> <Gold.Version>
5.8.1

> <Gold.Id.Protein>
6NUR|6NUR_protein|mol2

> <Gold.PLP.Fitness>
48.3711

> <Gold.PLP.PLP>
-32.5643

> <Gold.PLP.part.hbond>
-4.5047

> <Gold.PLP.part.metal>
0.0000

> <Gold.PLP.part.buried>
-3.7879

> <Gold.PLP.part.nonpolar>
-23.3447

> <Gold.PLP.part.repulsive>
0.0722

> <Gold.PLP.ligand.clash>
0.0000

> <Gold.PLP.ligand.torsion>
0.3932

> <Gold.PLP.Chemscore.Hbond>
4.5569

> <Gold.PLP.Chemscore.CHOScore>
0.9649

> <Gold.PLP.Chemscore.Metal>
0.0000

> <Gold.Chemscore.Hbonds>
donor molecule, donor type, donor heavy atom, donor atom, acceptor molecule, acceptor atom, score
      L1  H     1    31       P1  8028  2.00
      L1  H    12    30       P1  7957  0.92
      P1  H  7989  7998       L1    13  0.52
      P1  H  8011  8017       L1    12  1.00
      L1  C     9    27       P1  8028  0.98

> <Gold.PLP.Chemscore.Internal.Correction>
0.0278

> <Gold.Rescore>
     Score         DG    S(hbond)    S(metal)    S(lipo)     H(rot)  DE(clash)    DE(int)     intcor
     17.13     -18.60       2.44        0.00      83.15       1.86       0.19       1.27       ----

> <Gold.Chemscore.Fitness>
17.1341

> <Gold.Chemscore.DG>
-18.5962

> <Gold.Chemscore.ZeroCoef>
-5.4800

> <Gold.Chemscore.Hbond>
2.4361

> <Gold.Chemscore.Metal>
0.0000

> <Gold.Chemscore.Lipo>
83.1505

> <Gold.Chemscore.Internal_Hbond>
0.0000

> <Gold.Chemscore.DEClash>
0.1946

> <Gold.Chemscore.DEInternal>
1.2675

> <Gold.Chemscore.Rot>
1.8551

> <Gold.Chemscore.Internal.Correction>
   9.000000E+99

> <Gold.Chemscore.Hbonds>
donor molecule, donor type, donor heavy atom, donor atom, acceptor molecule, acceptor atom, score
      L1  H     1    31       P1  8028  0.95
      L1  H    12    30       P1  7957  0.84
      P1  H  7989  7998       L1    13  0.02
      P1  H  7997  8008       L1    14  0.01
      P1  H  8011  8017       L1    12  0.25

> <Gold.Chemscore.Hbond.Weighted>
-8.1365

> <Gold.Chemscore.Metal.Weighted>
-0.0000

> <Gold.Chemscore.Lipo.Weighted>
-9.7286

> <Gold.Chemscore.Internal_Hbond.Weighted>
0.0000

> <Gold.Chemscore.DEClash.Weighted>
0.1946

> <Gold.Chemscore.DEInternal.Weighted>
1.2675

> <Gold.Chemscore.Rot.Weighted>
4.7489

> <Gold.Chemscore.Internal.Correction.Weighted>
   9.000000E+99

> <Gold.Protein.RotatedTorsions>
[ 6907 6896 6895 6894 ] final  -60.06 input  -60.11 | X-H torsion
[ 7974 7965 7964 7962 ] final -159.01 input  175.53 | X-H torsion
[ 8008 7997 7996 7995 ] final  -54.86 input   59.86 | X-H torsion
[ 10167 10162 10161 10158 ] final  121.57 input  -65.29 | X-H torsion
[ 10718 10713 10712 10709 ] final -123.07 input   66.30 | X-H torsion
[ 10763 10752 10751 10750 ] final  -85.94 input  -60.55 | X-H torsion
[ 11005 11000 10999 10996 ] final  -44.28 input  -57.11 | X-H torsion

> <Gold.Protein.ActiveResidues>
 VAL166  LYS551  ARG553  GLY616  TRP617  ASP618  TYR619  PRO620  LYS621  CYS622 
 ASP623  PHE694  ASN695  SER759  ASP760  ASP761  ALA762  ILE779  LEU786  VAL792 
 PHE793  MET794  SER795  GLU796  ALA797  LYS798  CYS799  TRP800  GLU811  SER814 

> <Gold.Protein.RotatedAtoms>
  150.7884  134.6887  159.6484 H   0  0  0  0  0  0  0  0  0  0  0  0  # atno 6907 bound_to 6896
  152.3985  134.6322  160.0088 H   0  0  0  0  0  0  0  0  0  0  0  0  # atno 6908 bound_to 6896
  151.6601  133.3280  159.3208 H   0  0  0  0  0  0  0  0  0  0  0  0  # atno 6909 bound_to 6896
  144.7482  140.3746  143.6068 H   0  0  0  0  0  0  0  0  0  0  0  0  # atno 7974 bound_to 7965
  154.4176  140.1166  156.5384 H   0  0  0  0  0  0  0  0  0  0  0  0  # atno 8008 bound_to 7997
  155.6533  140.3496  155.4737 H   0  0  0  0  0  0  0  0  0  0  0  0  # atno 8009 bound_to 7997
  155.9774  140.1153  157.0747 H   0  0  0  0  0  0  0  0  0  0  0  0  # atno 8010 bound_to 7997
  139.5911  144.7025  151.3287 H   0  0  0  0  0  0  0  0  0  0  0  0  # atno 10167 bound_to 10162
  156.1471  130.6508  150.9859 H   0  0  0  0  0  0  0  0  0  0  0  0  # atno 10718 bound_to 10713
  154.6168  135.5467  153.7532 H   0  0  0  0  0  0  0  0  0  0  0  0  # atno 10763 bound_to 10752
  153.0220  135.6403  154.1498 H   0  0  0  0  0  0  0  0  0  0  0  0  # atno 10764 bound_to 10752
  154.1434  135.2907  155.3135 H   0  0  0  0  0  0  0  0  0  0  0  0  # atno 10765 bound_to 10752
  141.0440  133.6769  156.2850 H   0  0  0  0  0  0  0  0  0  0  0  0  # atno 11005 bound_to 11000
  145.7042  139.1668  143.2575 LP  0  0  0  0  0  0  0  0  0  0  0  0  # atno 17320 bound_to 7965
  146.1394  140.7079  142.9374 LP  0  0  0  0  0  0  0  0  0  0  0  0  # atno 17321 bound_to 7965
  140.7174  143.7229  150.7682 LP  0  0  0  0  0  0  0  0  0  0  0  0  # atno 17342 bound_to 10162
  140.0785  143.4991  152.2542 LP  0  0  0  0  0  0  0  0  0  0  0  0  # atno 17343 bound_to 10162
  157.6626  131.0878  150.7803 LP  0  0  0  0  0  0  0  0  0  0  0  0  # atno 17370 bound_to 10713
  156.7874  130.4879  149.5390 LP  0  0  0  0  0  0  0  0  0  0  0  0  # atno 17371 bound_to 10713
  140.6182  134.5389  157.5544 LP  0  0  0  0  0  0  0  0  0  0  0  0  # atno 17394 bound_to 11000
  139.9297  134.7987  156.0966 LP  0  0  0  0  0  0  0  0  0  0  0  0  # atno 17395 bound_to 11000

$$$$
