AV-unprocessed.smi:2664|AV-procd|sdf|10328|dock9
  -GOLD-   2272014343D 1   1.00000     0.00000
 Structure written by MMmdl.
 44 45  0  0  0  0  0  0  0  0  2 V2000
  145.1712  138.6828  152.7651 O   0  0  0  0  0  0  0  0  0  0  0  0
  146.1802  138.0114  152.5529 C   0  0  0  0  0  0  0  0  0  0  0  0
  147.4400  138.4043  152.8091 N   0  0  0  0  0  0  0  0  0  0  0  0
  147.8879  139.6129  153.4091 C   0  0  0  0  0  0  0  0  0  0  0  0
  147.0655  140.7533  153.2722 C   0  0  0  0  0  0  0  0  0  0  0  0
  147.4760  141.9792  153.8348 C   0  0  0  0  0  0  0  0  0  0  0  0
  148.6533  142.0570  154.4912 N   0  3  0  0  0  0  0  0  0  0  0  0
  149.4792  140.9987  154.6366 C   0  0  0  0  0  0  0  0  0  0  0  0
  149.1226  139.7471  154.0945 C   0  0  0  0  0  0  0  0  0  0  0  0
  146.1587  136.7843  152.0102 N   0  0  0  0  0  0  0  0  0  0  0  0
  144.9616  136.0380  151.6113 C   0  0  2  0  0  0  0  0  0  0  0  0
  144.1923  135.6049  152.8854 C   0  0  0  0  0  0  0  0  0  0  0  0
  142.7603  135.0906  152.6433 C   0  0  0  0  0  0  0  0  0  0  0  0
  142.1242  134.7967  153.8691 O   0  0  0  0  0  0  0  0  0  0  0  0
  145.3570  134.8478  150.6894 C   0  0  0  0  0  0  0  0  0  0  0  0
  144.1193  134.0780  150.1588 C   0  0  0  0  0  0  0  0  0  0  0  0
  144.5057  132.8989  149.2517 C   0  0  0  0  0  0  0  0  0  0  0  0
  145.4518  131.9299  149.9707 C   0  0  0  0  0  0  0  0  0  0  0  0
  146.6949  132.6687  150.4803 C   0  0  0  0  0  0  0  0  0  0  0  0
  146.3146  133.8501  151.3874 C   0  0  0  0  0  0  0  0  0  0  0  0
  148.1690  137.7796  152.4969 H   0  0  0  0  0  0  0  0  0  0  0  0
  146.1240  140.6920  152.7457 H   0  0  0  0  0  0  0  0  0  0  0  0
  146.9028  142.8931  153.7780 H   0  0  0  0  0  0  0  0  0  0  0  0
  150.3984  141.1844  155.1730 H   0  0  0  0  0  0  0  0  0  0  0  0
  149.8085  138.9214  154.2054 H   0  0  0  0  0  0  0  0  0  0  0  0
  147.0422  136.3175  151.8669 H   0  0  0  0  0  0  0  0  0  0  0  0
  144.3006  136.6868  151.0342 H   0  0  0  0  0  0  0  0  0  0  0  0
  144.7358  134.8186  153.4071 H   0  0  0  0  0  0  0  0  0  0  0  0
  144.1475  136.4472  153.5768 H   0  0  0  0  0  0  0  0  0  0  0  0
  142.1756  135.8546  152.1303 H   0  0  0  0  0  0  0  0  0  0  0  0
  142.7500  134.2073  152.0050 H   0  0  0  0  0  0  0  0  0  0  0  0
  142.4723  133.9838  154.2027 H   0  0  0  0  0  0  0  0  0  0  0  0
  145.8813  135.2586  149.8249 H   0  0  0  0  0  0  0  0  0  0  0  0
  143.5291  133.7106  150.9996 H   0  0  0  0  0  0  0  0  0  0  0  0
  143.4642  134.7388  149.5916 H   0  0  0  0  0  0  0  0  0  0  0  0
  143.6089  132.3697  148.9284 H   0  0  0  0  0  0  0  0  0  0  0  0
  144.9854  133.2755  148.3474 H   0  0  0  0  0  0  0  0  0  0  0  0
  144.9330  131.4599  150.8072 H   0  0  0  0  0  0  0  0  0  0  0  0
  145.7463  131.1260  149.2955 H   0  0  0  0  0  0  0  0  0  0  0  0
  147.3402  131.9774  151.0231 H   0  0  0  0  0  0  0  0  0  0  0  0
  147.2767  133.0327  149.6327 H   0  0  0  0  0  0  0  0  0  0  0  0
  147.2369  134.3431  151.6896 H   0  0  0  0  0  0  0  0  0  0  0  0
  145.8513  133.4732  152.3003 H   0  0  0  0  0  0  0  0  0  0  0  0
  148.9328  142.9538  154.8899 H   0  0  0  0  0  0  0  0  0  0  0  0
  1  2  2  0  0  0  0
  2  3  1  0  0  0  0
  2 10  1  0  0  0  0
  3  4  1  0  0  0  0
  3 21  1  0  0  0  0
  4  9  1  0  0  0  0
  4  5  2  0  0  0  0
  5  6  1  0  0  0  0
  5 22  1  0  0  0  0
  6  7  2  0  0  0  0
  6 23  1  0  0  0  0
  7  8  1  0  0  0  0
  7 44  1  0  0  0  0
  8  9  2  0  0  0  0
  8 24  1  0  0  0  0
  9 25  1  0  0  0  0
 10 11  1  0  0  0  0
 10 26  1  0  0  0  0
 11 12  1  0  0  0  0
 11 15  1  0  0  0  0
 11 27  1  0  0  0  0
 12 13  1  0  0  0  0
 12 28  1  0  0  0  0
 12 29  1  0  0  0  0
 13 14  1  0  0  0  0
 13 30  1  0  0  0  0
 13 31  1  0  0  0  0
 14 32  1  0  0  0  0
 15 20  1  0  0  0  0
 15 16  1  0  0  0  0
 15 33  1  0  0  0  0
 16 17  1  0  0  0  0
 16 34  1  0  0  0  0
 16 35  1  0  0  0  0
 17 18  1  0  0  0  0
 17 36  1  0  0  0  0
 17 37  1  0  0  0  0
 18 19  1  0  0  0  0
 18 38  1  0  0  0  0
 18 39  1  0  0  0  0
 19 20  1  0  0  0  0
 19 40  1  0  0  0  0
 19 41  1  0  0  0  0
 20 42  1  0  0  0  0
 20 43  1  0  0  0  0
M  CHG  1   7   1
M  END
> <s_m_source_file>
AV-unprocessed.smi

> <i_m_source_file_index>
2664

> <i_lp_mmshare_version>
43012

> <i_f3d_flags>
0

> <s_epik_input>
W2NIXTFbY0hdbltjSF1bY0hdYzFbTkhdQyg9TylbTkhdW0NASF0oW0NIMl1bQ0gyXVtPSF0pW0NIXTJbQ0gyXVtDSDJdW0NIMl1bQ0gyXVtDSDJdMg==

> <s_epik_cmdline>
J2VwaWtfcHl0aG9uJywgJy1waCcsICc3LjAnLCAnLXRuJywgJzgnLCAnLW1hJywgJzIwMCcsICctbWV0YWxfYmluZGluZycsICctaW1hZScsICc8aW5maWxlLm1hZT4nLCAnLW9tYWUnLCAnPG91dGZpbGUubWFlPic=

> <r_epik_Ionization_Penalty>
1.0085

> <r_epik_Ionization_Penalty_Charging>
1.00848

> <r_epik_Ionization_Penalty_Neutral>
2.14516e-05

> <r_epik_State_Penalty>
1.05769

> <r_epik_Charging_Adjusted_Penalty>
2.06617

> <i_epik_Tot_Q>
1

> <i_epik_Tot_abs_Q>
1

> <r_epik_Metal_State_Penalty>
1.15842

> <b_epik_Metal_Only>
0

> <s_lp_Force_Field>
OPLS_2005

> <r_lp_Energy>
27.8621

> <b_lp_Chiralities_Consistent>
1

> <s_lp_Variant>
AV-unprocessed.smi:2664-3

> <Gold.Version>
5.8.1

> <Gold.Id.Protein>
6NUR|6NUR_protein|mol2

> <Gold.PLP.Fitness>
49.9486

> <Gold.PLP.PLP>
-35.6278

> <Gold.PLP.part.hbond>
-4.8187

> <Gold.PLP.part.metal>
0.0000

> <Gold.PLP.part.buried>
-0.2060

> <Gold.PLP.part.nonpolar>
-34.6758

> <Gold.PLP.part.repulsive>
4.4270

> <Gold.PLP.ligand.clash>
0.0000

> <Gold.PLP.ligand.torsion>
0.3668

> <Gold.PLP.Chemscore.Hbond>
5.0000

> <Gold.PLP.Chemscore.CHOScore>
0.0000

> <Gold.PLP.Chemscore.Metal>
0.0000

> <Gold.Chemscore.Hbonds>
donor molecule, donor type, donor heavy atom, donor atom, acceptor molecule, acceptor atom, score
      L1  H     3    21       P1  7948  1.00
      L1  H     7    44       P1  8028  2.00
      L1  H    10    26       P1  7948  1.00
      L1  H    14    32       P1 10957  0.34

> <Gold.PLP.Chemscore.Internal.Correction>
0.0544

> <Gold.Rescore>
     Score         DG    S(hbond)    S(metal)    S(lipo)     H(rot)  DE(clash)    DE(int)     intcor
     18.56     -24.30       3.90        0.00      99.14       2.27       3.21       2.52       ----

> <Gold.Chemscore.Fitness>
18.5643

> <Gold.Chemscore.DG>
-24.3005

> <Gold.Chemscore.ZeroCoef>
-5.4800

> <Gold.Chemscore.Hbond>
3.9043

> <Gold.Chemscore.Metal>
0.0000

> <Gold.Chemscore.Lipo>
99.1411

> <Gold.Chemscore.Internal_Hbond>
0.0000

> <Gold.Chemscore.DEClash>
3.2129

> <Gold.Chemscore.DEInternal>
2.5233

> <Gold.Chemscore.Rot>
2.2731

> <Gold.Chemscore.Internal.Correction>
   9.000000E+99

> <Gold.Chemscore.Hbonds>
donor molecule, donor type, donor heavy atom, donor atom, acceptor molecule, acceptor atom, score
      L1  H     3    21       P1  7948  0.99
      L1  H     7    44       P1  8028  1.00
      L1  H    10    26       P1  7948  0.97
      L1  H    14    32       P1 10957  0.35

> <Gold.Chemscore.Hbond.Weighted>
-13.0402

> <Gold.Chemscore.Metal.Weighted>
-0.0000

> <Gold.Chemscore.Lipo.Weighted>
-11.5995

> <Gold.Chemscore.Internal_Hbond.Weighted>
0.0000

> <Gold.Chemscore.DEClash.Weighted>
3.2129

> <Gold.Chemscore.DEInternal.Weighted>
2.5233

> <Gold.Chemscore.Rot.Weighted>
5.8192

> <Gold.Chemscore.Internal.Correction.Weighted>
   9.000000E+99

> <Gold.Protein.RotatedTorsions>
[ 6907 6896 6895 6894 ] final -115.51 input  -60.11 | X-H torsion
[ 7974 7965 7964 7962 ] final  161.83 input  175.53 | X-H torsion
[ 8008 7997 7996 7995 ] final  158.93 input   59.86 | X-H torsion
[ 10167 10162 10161 10158 ] final  -72.31 input  -65.29 | X-H torsion
[ 10718 10713 10712 10709 ] final -140.33 input   66.30 | X-H torsion
[ 10763 10752 10751 10750 ] final   31.71 input  -60.55 | X-H torsion
[ 11005 11000 10999 10996 ] final  -20.75 input  -57.11 | X-H torsion

> <Gold.Protein.ActiveResidues>
 VAL166  LYS551  ARG553  GLY616  TRP617  ASP618  TYR619  PRO620  LYS621  CYS622 
 ASP623  PHE694  ASN695  SER759  ASP760  ASP761  ALA762  ILE779  LEU786  VAL792 
 PHE793  MET794  SER795  GLU796  ALA797  LYS798  CYS799  TRP800  GLU811  SER814 

> <Gold.Protein.RotatedAtoms>
  150.7984  133.8648  159.3241 H   0  0  0  0  0  0  0  0  0  0  0  0  # atno 6907 bound_to 6896
  151.6467  135.1004  160.0162 H   0  0  0  0  0  0  0  0  0  0  0  0  # atno 6908 bound_to 6896
  152.4068  133.6862  159.6398 H   0  0  0  0  0  0  0  0  0  0  0  0  # atno 6909 bound_to 6896
  144.7666  139.7953  143.6313 H   0  0  0  0  0  0  0  0  0  0  0  0  # atno 7974 bound_to 7965
  156.2271  140.1845  156.7335 H   0  0  0  0  0  0  0  0  0  0  0  0  # atno 8008 bound_to 7997
  154.5960  140.0643  156.9332 H   0  0  0  0  0  0  0  0  0  0  0  0  # atno 8009 bound_to 7997
  155.2255  140.3310  155.4312 H   0  0  0  0  0  0  0  0  0  0  0  0  # atno 8010 bound_to 7997
  140.5203  143.2332  151.7442 H   0  0  0  0  0  0  0  0  0  0  0  0  # atno 10167 bound_to 10162
  156.3211  130.7534  151.1632 H   0  0  0  0  0  0  0  0  0  0  0  0  # atno 10718 bound_to 10713
  153.0301  135.6432  154.1241 H   0  0  0  0  0  0  0  0  0  0  0  0  # atno 10763 bound_to 10752
  154.0964  135.2862  155.3262 H   0  0  0  0  0  0  0  0  0  0  0  0  # atno 10764 bound_to 10752
  154.6429  135.5453  153.7873 H   0  0  0  0  0  0  0  0  0  0  0  0  # atno 10765 bound_to 10752
  140.8495  133.7867  155.9950 H   0  0  0  0  0  0  0  0  0  0  0  0  # atno 11005 bound_to 11000
  146.1779  139.4958  142.9885 LP  0  0  0  0  0  0  0  0  0  0  0  0  # atno 17320 bound_to 7965
  145.6451  141.0276  143.1791 LP  0  0  0  0  0  0  0  0  0  0  0  0  # atno 17321 bound_to 7965
  139.4921  144.4265  151.9920 LP  0  0  0  0  0  0  0  0  0  0  0  0  # atno 17342 bound_to 10162
  140.3361  144.3259  150.5977 LP  0  0  0  0  0  0  0  0  0  0  0  0  # atno 17343 bound_to 10162
  157.7412  131.0507  150.5115 LP  0  0  0  0  0  0  0  0  0  0  0  0  # atno 17370 bound_to 10713
  156.5267  130.4175  149.6222 LP  0  0  0  0  0  0  0  0  0  0  0  0  # atno 17371 bound_to 10713
  140.8806  134.2615  157.5146 LP  0  0  0  0  0  0  0  0  0  0  0  0  # atno 17394 bound_to 11000
  139.8704  134.9613  156.4392 LP  0  0  0  0  0  0  0  0  0  0  0  0  # atno 17395 bound_to 11000

$$$$
