AV-unprocessed.smi:1978|AV-procd|sdf|8001|dock5
  -GOLD-   2272010183D 1   1.00000     0.00000
 Structure written by MMmdl.
 44 45  0  0  0  0  0  0  0  0  3 V2000
  146.7813  136.3268  162.8616 C   0  0  0  0  0  0  0  0  0  0  0  0
  147.3687  136.0663  161.5165 C   0  0  0  0  0  0  0  0  0  0  0  0
  147.7280  134.9188  160.8684 C   0  0  0  0  0  0  0  0  0  0  0  0
  148.2258  135.3915  159.6233 C   0  0  0  0  0  0  0  0  0  0  0  0
  148.6942  134.6313  158.6215 N   0  5  0  0  0  0  0  0  0  0  0  0
  148.8449  135.1539  157.3836 C   0  0  0  0  0  0  0  0  0  0  0  0
  149.4883  136.1634  157.0872 O   0  0  0  0  0  0  0  0  0  0  0  0
  148.2168  134.4576  156.4253 N   0  0  0  0  0  0  0  0  0  0  0  0
  148.2293  134.7693  154.9988 C   0  0  0  0  0  0  0  0  0  0  0  0
  146.8730  135.3334  154.4837 C   0  0  1  0  0  0  0  0  0  0  0  0
  146.8250  136.8617  154.7440 C   0  0  0  0  0  0  0  0  0  0  0  0
  146.6391  134.9823  153.0394 N   0  3  1  0  0  0  0  0  0  0  0  0
  146.7968  133.5267  152.7352 C   0  0  0  0  0  0  0  0  0  0  0  0
  146.7916  133.2572  151.2214 C   0  0  0  0  0  0  0  0  0  0  0  0
  145.5221  133.7971  150.5600 C   0  0  0  0  0  0  0  0  0  0  0  0
  145.3562  135.2812  150.9048 C   0  0  0  0  0  0  0  0  0  0  0  0
  145.3831  135.5337  152.4272 C   0  0  1  0  0  0  0  0  0  0  0  0
  144.0915  135.0368  153.1171 C   0  0  0  0  0  0  0  0  0  0  0  0
  148.1583  136.7079  159.5184 N   0  0  0  0  0  0  0  0  0  0  0  0
  147.6151  137.1491  160.7310 O   0  0  0  0  0  0  0  0  0  0  0  0
  145.7417  136.0009  162.8975 H   0  0  0  0  0  0  0  0  0  0  0  0
  146.8114  137.3891  163.1050 H   0  0  0  0  0  0  0  0  0  0  0  0
  147.3319  135.7885  163.6328 H   0  0  0  0  0  0  0  0  0  0  0  0
  147.6507  133.9039  161.2278 H   0  0  0  0  0  0  0  0  0  0  0  0
  147.6958  133.6417  156.7125 H   0  0  0  0  0  0  0  0  0  0  0  0
  149.0234  135.4950  154.8214 H   0  0  0  0  0  0  0  0  0  0  0  0
  148.5302  133.8570  154.4882 H   0  0  0  0  0  0  0  0  0  0  0  0
  146.0696  134.8752  155.0618 H   0  0  0  0  0  0  0  0  0  0  0  0
  147.0404  137.1066  155.7836 H   0  0  0  0  0  0  0  0  0  0  0  0
  145.8434  137.2919  154.5522 H   0  0  0  0  0  0  0  0  0  0  0  0
  147.5533  137.3906  154.1285 H   0  0  0  0  0  0  0  0  0  0  0  0
  147.7377  133.1349  153.1101 H   0  0  0  0  0  0  0  0  0  0  0  0
  146.0128  132.9528  153.2297 H   0  0  0  0  0  0  0  0  0  0  0  0
  147.6670  133.7232  150.7666 H   0  0  0  0  0  0  0  0  0  0  0  0
  146.8808  132.1867  151.0338 H   0  0  0  0  0  0  0  0  0  0  0  0
  145.5769  133.6659  149.4790 H   0  0  0  0  0  0  0  0  0  0  0  0
  144.6543  133.2293  150.8968 H   0  0  0  0  0  0  0  0  0  0  0  0
  146.1614  135.8472  150.4344 H   0  0  0  0  0  0  0  0  0  0  0  0
  144.4295  135.6621  150.4738 H   0  0  0  0  0  0  0  0  0  0  0  0
  145.4032  136.6186  152.5173 H   0  0  0  0  0  0  0  0  0  0  0  0
  143.2135  135.4945  152.6610 H   0  0  0  0  0  0  0  0  0  0  0  0
  144.0658  135.2917  154.1759 H   0  0  0  0  0  0  0  0  0  0  0  0
  143.9662  133.9574  153.0399 H   0  0  0  0  0  0  0  0  0  0  0  0
  147.3891  135.4405  152.5421 H   0  0  0  0  0  0  0  0  0  0  0  0
  1  2  1  0  0  0  0
  1 21  1  0  0  0  0
  1 22  1  0  0  0  0
  1 23  1  0  0  0  0
  2 20  1  0  0  0  0
  2  3  2  0  0  0  0
  3  4  1  0  0  0  0
  3 24  1  0  0  0  0
  4  5  1  0  0  0  0
  4 19  2  0  0  0  0
  5  6  1  0  0  0  0
  6  7  2  0  0  0  0
  6  8  1  0  0  0  0
  8  9  1  0  0  0  0
  8 25  1  0  0  0  0
  9 10  1  0  0  0  0
  9 26  1  0  0  0  0
  9 27  1  0  0  0  0
 10 11  1  0  0  0  0
 10 12  1  0  0  0  0
 10 28  1  0  0  0  0
 11 29  1  0  0  0  0
 11 30  1  0  0  0  0
 11 31  1  0  0  0  0
 12 17  1  0  0  0  0
 12 13  1  0  0  0  0
 12 44  1  0  0  0  0
 13 14  1  0  0  0  0
 13 32  1  0  0  0  0
 13 33  1  0  0  0  0
 14 15  1  0  0  0  0
 14 34  1  0  0  0  0
 14 35  1  0  0  0  0
 15 16  1  0  0  0  0
 15 36  1  0  0  0  0
 15 37  1  0  0  0  0
 16 17  1  0  0  0  0
 16 38  1  0  0  0  0
 16 39  1  0  0  0  0
 17 18  1  0  0  0  0
 17 40  1  0  0  0  0
 18 41  1  0  0  0  0
 18 42  1  0  0  0  0
 18 43  1  0  0  0  0
 19 20  1  0  0  0  0
M  CHG  1   5  -1
M  CHG  1  12   1
M  END
> <s_m_source_file>
AV-unprocessed.smi

> <i_m_source_file_index>
1978

> <i_lp_mmshare_version>
43012

> <i_f3d_flags>
0

> <s_epik_input>
W0NIM11jMVtjSF1jKG5vMSlbTkhdQyg9TylbTkhdW0NIMl1bQ0BIXShbQ0gzXSlOMltDSDJdW0NIMl1bQ0gyXVtDSDJdW0NASF0yW0NIM10=

> <s_epik_cmdline>
J2VwaWtfcHl0aG9uJywgJy1waCcsICc3LjAnLCAnLXRuJywgJzgnLCAnLW1hJywgJzIwMCcsICctbWV0YWxfYmluZGluZycsICctaW1hZScsICc8aW5maWxlLm1hZT4nLCAnLW9tYWUnLCAnPG91dGZpbGUubWFlPic=

> <r_epik_Ionization_Penalty>
6.22372

> <r_epik_Ionization_Penalty_Charging>
6.22362

> <r_epik_Ionization_Penalty_Neutral>
9.65074e-05

> <r_epik_State_Penalty>
6.22363

> <r_epik_Charging_Adjusted_Penalty>
12.4472

> <i_epik_Tot_Q>
0

> <i_epik_Tot_abs_Q>
2

> <r_epik_Metal_State_Penalty>
2.16675

> <b_epik_Metal_Only>
1

> <s_lp_Force_Field>
OPLS_2005

> <r_lp_Energy>
13.574

> <b_lp_Chiralities_Consistent>
1

> <s_lp_Variant>
AV-unprocessed.smi:1978-10

> <Gold.Version>
5.8.1

> <Gold.Id.Protein>
6NUR|6NUR_protein|mol2

> <Gold.PLP.Fitness>
42.3717

> <Gold.PLP.PLP>
-27.1791

> <Gold.PLP.part.hbond>
-4.0000

> <Gold.PLP.part.metal>
0.0000

> <Gold.PLP.part.buried>
-3.9100

> <Gold.PLP.part.nonpolar>
-20.0256

> <Gold.PLP.part.repulsive>
0.0121

> <Gold.PLP.ligand.clash>
0.0000

> <Gold.PLP.ligand.torsion>
0.9691

> <Gold.PLP.Chemscore.Hbond>
5.6640

> <Gold.PLP.Chemscore.CHOScore>
0.0000

> <Gold.PLP.Chemscore.Metal>
0.0000

> <Gold.Chemscore.Hbonds>
donor molecule, donor type, donor heavy atom, donor atom, acceptor molecule, acceptor atom, score
      L1  H    12    44       P1  7948  2.00
      P1  H  6896  6909       L1     5  1.37
      P1  H  6931  6943       L1    20  0.59
      P1  H  6934  6947       L1    20  0.98

> <Gold.PLP.Chemscore.Internal.Correction>
0.1389

> <Gold.Rescore>
     Score         DG    S(hbond)    S(metal)    S(lipo)     H(rot)  DE(clash)    DE(int)     intcor
     15.40     -17.86       2.77        0.00      59.96       1.52       0.01       2.45       ----

> <Gold.Chemscore.Fitness>
15.3973

> <Gold.Chemscore.DG>
-17.8603

> <Gold.Chemscore.ZeroCoef>
-5.4800

> <Gold.Chemscore.Hbond>
2.7705

> <Gold.Chemscore.Metal>
0.0000

> <Gold.Chemscore.Lipo>
59.9610

> <Gold.Chemscore.Internal_Hbond>
0.0000

> <Gold.Chemscore.DEClash>
0.0089

> <Gold.Chemscore.DEInternal>
2.4541

> <Gold.Chemscore.Rot>
1.5190

> <Gold.Chemscore.Internal.Correction>
   9.000000E+99

> <Gold.Chemscore.Hbonds>
donor molecule, donor type, donor heavy atom, donor atom, acceptor molecule, acceptor atom, score
      L1  H    12    44       P1  7948  1.00
      P1  H  6896  6909       L1     5  0.13
      P1  H  6931  6943       L1    20  0.19
      P1  H  6934  6947       L1    20  0.90

> <Gold.Chemscore.Hbond.Weighted>
-9.2535

> <Gold.Chemscore.Metal.Weighted>
-0.0000

> <Gold.Chemscore.Lipo.Weighted>
-7.0154

> <Gold.Chemscore.Internal_Hbond.Weighted>
0.0000

> <Gold.Chemscore.DEClash.Weighted>
0.0089

> <Gold.Chemscore.DEInternal.Weighted>
2.4541

> <Gold.Chemscore.Rot.Weighted>
3.8886

> <Gold.Chemscore.Internal.Correction.Weighted>
   9.000000E+99

> <Gold.Protein.RotatedTorsions>
[ 6907 6896 6895 6894 ] final   18.90 input  -60.11 | X-H torsion
[ 7974 7965 7964 7962 ] final  -48.37 input  175.53 | X-H torsion
[ 8008 7997 7996 7995 ] final   63.84 input   59.86 | X-H torsion
[ 10167 10162 10161 10158 ] final   47.92 input  -65.29 | X-H torsion
[ 10718 10713 10712 10709 ] final  -46.18 input   66.30 | X-H torsion
[ 10763 10752 10751 10750 ] final   44.88 input  -60.55 | X-H torsion
[ 11005 11000 10999 10996 ] final  -71.63 input  -57.11 | X-H torsion

> <Gold.Protein.ActiveResidues>
 VAL166  LYS551  ARG553  GLY616  TRP617  ASP618  TYR619  PRO620  LYS621  CYS622 
 ASP623  PHE694  ASN695  SER759  ASP760  ASP761  ALA762  ILE779  LEU786  VAL792 
 PHE793  MET794  SER795  GLU796  ALA797  LYS798  CYS799  TRP800  GLU811  SER814 

> <Gold.Protein.RotatedAtoms>
  151.8725  135.0484  160.0480 H   0  0  0  0  0  0  0  0  0  0  0  0  # atno 6907 bound_to 6896
  152.2577  133.5265  159.5371 H   0  0  0  0  0  0  0  0  0  0  0  0  # atno 6908 bound_to 6896
  150.7105  134.0790  159.3933 H   0  0  0  0  0  0  0  0  0  0  0  0  # atno 6909 bound_to 6896
  145.9518  140.7564  142.9501 H   0  0  0  0  0  0  0  0  0  0  0  0  # atno 7974 bound_to 7965
  155.6366  140.3496  155.4701 H   0  0  0  0  0  0  0  0  0  0  0  0  # atno 8008 bound_to 7997
  155.9960  140.1203  157.0617 H   0  0  0  0  0  0  0  0  0  0  0  0  # atno 8009 bound_to 7997
  154.4233  140.1110  156.5617 H   0  0  0  0  0  0  0  0  0  0  0  0  # atno 8010 bound_to 7997
  140.2986  144.2960  150.6224 H   0  0  0  0  0  0  0  0  0  0  0  0  # atno 10167 bound_to 10162
  156.2208  130.4166  149.8995 H   0  0  0  0  0  0  0  0  0  0  0  0  # atno 10718 bound_to 10713
  152.9833  135.6057  154.3345 H   0  0  0  0  0  0  0  0  0  0  0  0  # atno 10763 bound_to 10752
  154.3046  135.2772  155.2596 H   0  0  0  0  0  0  0  0  0  0  0  0  # atno 10764 bound_to 10752
  154.4833  135.5911  153.6461 H   0  0  0  0  0  0  0  0  0  0  0  0  # atno 10765 bound_to 10752
  141.1595  133.6823  156.6936 H   0  0  0  0  0  0  0  0  0  0  0  0  # atno 11005 bound_to 11000
  144.6797  140.2448  143.7339 LP  0  0  0  0  0  0  0  0  0  0  0  0  # atno 17320 bound_to 7965
  145.8160  139.2023  143.1965 LP  0  0  0  0  0  0  0  0  0  0  0  0  # atno 17321 bound_to 7965
  140.5670  143.2185  151.7666 LP  0  0  0  0  0  0  0  0  0  0  0  0  # atno 17342 bound_to 10162
  139.4920  144.4269  151.9915 LP  0  0  0  0  0  0  0  0  0  0  0  0  # atno 17343 bound_to 10162
  156.6642  130.8794  151.3552 LP  0  0  0  0  0  0  0  0  0  0  0  0  # atno 17370 bound_to 10713
  157.7086  130.9414  150.1014 LP  0  0  0  0  0  0  0  0  0  0  0  0  # atno 17371 bound_to 10713
  140.3012  134.8162  157.4099 LP  0  0  0  0  0  0  0  0  0  0  0  0  # atno 17394 bound_to 11000
  140.1260  134.5157  155.8144 LP  0  0  0  0  0  0  0  0  0  0  0  0  # atno 17395 bound_to 11000

$$$$
