AV-unprocessed.smi:1409|AV-procd|sdf|5728|dock4
  -GOLD-   22720 5363D 1   1.00000     0.00000
 Structure written by MMmdl.
 37 38  0  0  0  0  0  0  0  0  1 V2000
  148.2795  132.0618  153.1120 C   0  0  0  0  0  0  0  0  0  0  0  0
  147.8185  133.1134  152.2707 O   0  0  0  0  0  0  0  0  0  0  0  0
  146.5823  132.9822  151.6666 C   0  0  0  0  0  0  0  0  0  0  0  0
  146.1425  131.7346  151.3653 N   0  0  0  0  0  0  0  0  0  0  0  0
  144.9360  131.6030  150.7777 C   0  0  0  0  0  0  0  0  0  0  0  0
  144.1089  132.6968  150.4659 C   0  0  0  0  0  0  0  0  0  0  0  0
  144.5614  133.9918  150.7787 C   0  0  0  0  0  0  0  0  0  0  0  0
  145.8311  134.1489  151.3884 C   0  0  0  0  0  0  0  0  0  0  0  0
  146.3951  135.4025  151.7613 N   0  0  0  0  0  0  0  0  0  0  0  0
  145.7965  136.5053  152.2433 C   0  0  0  0  0  0  0  0  0  0  0  0
  144.5908  136.6365  152.4493 O   0  0  0  0  0  0  0  0  0  0  0  0
  146.6940  137.4743  152.4740 N   0  0  0  0  0  0  0  0  0  0  0  0
  146.3956  138.8035  152.9992 C   0  0  0  0  0  0  0  0  0  0  0  0
  147.6761  139.5704  153.3797 C   0  0  1  0  0  0  0  0  0  0  0  0
  147.3761  140.9930  153.8906 C   0  0  0  0  0  0  0  0  0  0  0  0
  148.6625  141.5844  154.4747 C   0  0  0  0  0  0  0  0  0  0  0  0
  149.5542  140.1729  155.2273 S   0  0  0  0  0  0  0  0  0  0  0  0
  150.9186  140.1230  154.6807 O   0  0  0  0  0  0  0  0  0  0  0  0
  149.3189  140.1623  156.6790 O   0  0  0  0  0  0  0  0  0  0  0  0
  148.5323  138.8662  154.4471 C   0  0  0  0  0  0  0  0  0  0  0  0
  149.2646  132.3179  153.5014 H   0  0  0  0  0  0  0  0  0  0  0  0
  148.3743  131.1228  152.5648 H   0  0  0  0  0  0  0  0  0  0  0  0
  147.6151  131.9146  153.9647 H   0  0  0  0  0  0  0  0  0  0  0  0
  144.6193  130.5953  150.5525 H   0  0  0  0  0  0  0  0  0  0  0  0
  143.1466  132.5458  149.9994 H   0  0  0  0  0  0  0  0  0  0  0  0
  143.9179  134.8256  150.5498 H   0  0  0  0  0  0  0  0  0  0  0  0
  147.3911  135.4765  151.6129 H   0  0  0  0  0  0  0  0  0  0  0  0
  147.6634  137.2763  152.2728 H   0  0  0  0  0  0  0  0  0  0  0  0
  145.8617  139.3508  152.2221 H   0  0  0  0  0  0  0  0  0  0  0  0
  145.7153  138.7470  153.8507 H   0  0  0  0  0  0  0  0  0  0  0  0
  148.2915  139.6762  152.4848 H   0  0  0  0  0  0  0  0  0  0  0  0
  146.9686  141.6283  153.1038 H   0  0  0  0  0  0  0  0  0  0  0  0
  146.6236  140.9402  154.6786 H   0  0  0  0  0  0  0  0  0  0  0  0
  149.2910  141.9991  153.6863 H   0  0  0  0  0  0  0  0  0  0  0  0
  148.4790  142.3584  155.2202 H   0  0  0  0  0  0  0  0  0  0  0  0
  147.9067  138.4260  155.2243 H   0  0  0  0  0  0  0  0  0  0  0  0
  149.1718  138.0854  154.0351 H   0  0  0  0  0  0  0  0  0  0  0  0
  1  2  1  0  0  0  0
  1 21  1  0  0  0  0
  1 22  1  0  0  0  0
  1 23  1  0  0  0  0
  2  3  1  0  0  0  0
  3  8  1  0  0  0  0
  3  4  2  0  0  0  0
  4  5  1  0  0  0  0
  5  6  2  0  0  0  0
  5 24  1  0  0  0  0
  6  7  1  0  0  0  0
  6 25  1  0  0  0  0
  7  8  2  0  0  0  0
  7 26  1  0  0  0  0
  8  9  1  0  0  0  0
  9 10  1  0  0  0  0
  9 27  1  0  0  0  0
 10 11  2  0  0  0  0
 10 12  1  0  0  0  0
 12 13  1  0  0  0  0
 12 28  1  0  0  0  0
 13 14  1  0  0  0  0
 13 29  1  0  0  0  0
 13 30  1  0  0  0  0
 14 20  1  0  0  0  0
 14 15  1  0  0  0  0
 14 31  1  0  0  0  0
 15 16  1  0  0  0  0
 15 32  1  0  0  0  0
 15 33  1  0  0  0  0
 16 17  1  0  0  0  0
 16 34  1  0  0  0  0
 16 35  1  0  0  0  0
 17 18  2  0  0  0  0
 17 19  2  0  0  0  0
 17 20  1  0  0  0  0
 20 36  1  0  0  0  0
 20 37  1  0  0  0  0
M  END
> <s_m_source_file>
AV-unprocessed.smi

> <i_m_source_file_index>
1409

> <i_lp_mmshare_version>
43012

> <i_f3d_flags>
0

> <s_epik_input>
W0NIM11PYzFuW2NIXVtjSF1bY0hdYzFbTkhdQyg9TylbTkhdW0NIMl1bQ0BASF0oW0NIMl0yKVtDSDJdW0NIMl1TMig9Tyk9Tw==

> <s_epik_cmdline>
J2VwaWtfcHl0aG9uJywgJy1waCcsICc3LjAnLCAnLXRuJywgJzgnLCAnLW1hJywgJzIwMCcsICctbWV0YWxfYmluZGluZycsICctaW1hZScsICc8aW5maWxlLm1hZT4nLCAnLW9tYWUnLCAnPG91dGZpbGUubWFlPic=

> <r_lp_tautomer_probability>
1

> <r_epik_Ionization_Penalty>
9.0549e-05

> <r_epik_Ionization_Penalty_Charging>
0

> <r_epik_Ionization_Penalty_Neutral>
9.0549e-05

> <r_epik_State_Penalty>
-0

> <r_epik_Charging_Adjusted_Penalty>
0

> <i_epik_Tot_Q>
0

> <i_epik_Tot_abs_Q>
0

> <r_epik_Metal_State_Penalty>
-0

> <b_epik_Metal_Only>
0

> <s_lp_Force_Field>
OPLS_2005

> <r_lp_Energy>
6.49732

> <b_lp_Chiralities_Consistent>
1

> <s_lp_Variant>
AV-unprocessed.smi:1409-2

> <Gold.Version>
5.8.1

> <Gold.Id.Protein>
6NUR|6NUR_protein|mol2

> <Gold.PLP.Fitness>
41.1023

> <Gold.PLP.PLP>
-33.4635

> <Gold.PLP.part.hbond>
-2.9802

> <Gold.PLP.part.metal>
0.0000

> <Gold.PLP.part.buried>
-2.6705

> <Gold.PLP.part.nonpolar>
-28.5023

> <Gold.PLP.part.repulsive>
0.7390

> <Gold.PLP.ligand.clash>
0.0000

> <Gold.PLP.ligand.torsion>
0.6891

> <Gold.PLP.Chemscore.Hbond>
3.0000

> <Gold.PLP.Chemscore.CHOScore>
0.0000

> <Gold.PLP.Chemscore.Metal>
0.0000

> <Gold.Chemscore.Hbonds>
donor molecule, donor type, donor heavy atom, donor atom, acceptor molecule, acceptor atom, score
      L1  H     9    27       P1  7948  1.00
      L1  H    12    28       P1  7948  1.00
      P1  H  7989  7998       L1    18  1.00

> <Gold.PLP.Chemscore.Internal.Correction>
0.0171

> <Gold.Rescore>
     Score         DG    S(hbond)    S(metal)    S(lipo)     H(rot)  DE(clash)    DE(int)     intcor
     18.19     -18.85       2.96        0.00      64.72       1.59       0.04       0.62       ----

> <Gold.Chemscore.Fitness>
18.1921

> <Gold.Chemscore.DG>
-18.8534

> <Gold.Chemscore.ZeroCoef>
-5.4800

> <Gold.Chemscore.Hbond>
2.9570

> <Gold.Chemscore.Metal>
0.0000

> <Gold.Chemscore.Lipo>
64.7211

> <Gold.Chemscore.Internal_Hbond>
0.0000

> <Gold.Chemscore.DEClash>
0.0367

> <Gold.Chemscore.DEInternal>
0.6245

> <Gold.Chemscore.Rot>
1.5919

> <Gold.Chemscore.Internal.Correction>
   9.000000E+99

> <Gold.Chemscore.Hbonds>
donor molecule, donor type, donor heavy atom, donor atom, acceptor molecule, acceptor atom, score
      L1  H     9    27       P1  7948  0.95
      L1  H    12    28       P1  7948  0.98
      P1  H  7989  7998       L1    18  0.97

> <Gold.Chemscore.Hbond.Weighted>
-9.8764

> <Gold.Chemscore.Metal.Weighted>
-0.0000

> <Gold.Chemscore.Lipo.Weighted>
-7.5724

> <Gold.Chemscore.Internal_Hbond.Weighted>
0.0000

> <Gold.Chemscore.DEClash.Weighted>
0.0367

> <Gold.Chemscore.DEInternal.Weighted>
0.6245

> <Gold.Chemscore.Rot.Weighted>
4.0754

> <Gold.Chemscore.Internal.Correction.Weighted>
   9.000000E+99

> <Gold.Protein.RotatedTorsions>
[ 6907 6896 6895 6894 ] final  -32.14 input  -60.11 | X-H torsion
[ 7974 7965 7964 7962 ] final  -10.83 input  175.53 | X-H torsion
[ 8008 7997 7996 7995 ] final   89.49 input   59.86 | X-H torsion
[ 10167 10162 10161 10158 ] final  -31.69 input  -65.29 | X-H torsion
[ 10718 10713 10712 10709 ] final  167.33 input   66.30 | X-H torsion
[ 10763 10752 10751 10750 ] final  -37.14 input  -60.55 | X-H torsion
[ 11005 11000 10999 10996 ] final   38.77 input  -57.11 | X-H torsion

> <Gold.Protein.ActiveResidues>
 VAL166  LYS551  ARG553  GLY616  TRP617  ASP618  TYR619  PRO620  LYS621  CYS622 
 ASP623  PHE694  ASN695  SER759  ASP760  ASP761  ALA762  ILE779  LEU786  VAL792 
 PHE793  MET794  SER795  GLU796  ALA797  LYS798  CYS799  TRP800  GLU811  SER814 

> <Gold.Protein.RotatedAtoms>
  151.0827  134.9868  159.8363 H   0  0  0  0  0  0  0  0  0  0  0  0  # atno 6907 bound_to 6896
  152.5421  134.2162  159.8779 H   0  0  0  0  0  0  0  0  0  0  0  0  # atno 6908 bound_to 6896
  151.2193  133.4468  159.2634 H   0  0  0  0  0  0  0  0  0  0  0  0  # atno 6909 bound_to 6896
  146.2208  140.2822  142.8363 H   0  0  0  0  0  0  0  0  0  0  0  0  # atno 7974 bound_to 7965
  156.0006  140.3360  155.6841 H   0  0  0  0  0  0  0  0  0  0  0  0  # atno 8008 bound_to 7997
  155.6296  140.0683  157.2671 H   0  0  0  0  0  0  0  0  0  0  0  0  # atno 8009 bound_to 7997
  154.4248  140.1762  156.1445 H   0  0  0  0  0  0  0  0  0  0  0  0  # atno 8010 bound_to 7997
  140.7232  143.3752  151.1704 H   0  0  0  0  0  0  0  0  0  0  0  0  # atno 10167 bound_to 10162
  157.0531  131.0319  151.2674 H   0  0  0  0  0  0  0  0  0  0  0  0  # atno 10718 bound_to 10713
  153.8914  135.6811  153.4760 H   0  0  0  0  0  0  0  0  0  0  0  0  # atno 10763 bound_to 10752
  153.1179  135.4753  154.9144 H   0  0  0  0  0  0  0  0  0  0  0  0  # atno 10764 bound_to 10752
  154.7620  135.3213  154.8312 H   0  0  0  0  0  0  0  0  0  0  0  0  # atno 10765 bound_to 10752
  140.2093  134.3774  155.8057 H   0  0  0  0  0  0  0  0  0  0  0  0  # atno 11005 bound_to 11000
  144.9189  140.7845  143.5761 LP  0  0  0  0  0  0  0  0  0  0  0  0  # atno 17320 bound_to 7965
  145.2757  139.1937  143.4818 LP  0  0  0  0  0  0  0  0  0  0  0  0  # atno 17321 bound_to 7965
  139.7330  143.9042  152.3026 LP  0  0  0  0  0  0  0  0  0  0  0  0  # atno 17342 bound_to 10162
  139.8838  144.7003  150.8848 LP  0  0  0  0  0  0  0  0  0  0  0  0  # atno 17343 bound_to 10162
  157.5014  130.7882  149.7609 LP  0  0  0  0  0  0  0  0  0  0  0  0  # atno 17370 bound_to 10713
  156.0001  130.3885  150.2638 LP  0  0  0  0  0  0  0  0  0  0  0  0  # atno 17371 bound_to 10713
  141.2226  133.7135  156.8391 LP  0  0  0  0  0  0  0  0  0  0  0  0  # atno 17394 bound_to 11000
  140.1968  134.8926  157.3124 LP  0  0  0  0  0  0  0  0  0  0  0  0  # atno 17395 bound_to 11000

$$$$
