AV-unprocessed.smi:2374|AV-procd|sdf|9441|dock9
  -GOLD-   2272013 73D 1   1.00000     0.00000
 Structure written by MMmdl.
 38 39  0  0  0  0  0  0  0  0  1 V2000
  153.7649  142.0837  159.4656 C   0  0  0  0  0  0  0  0  0  0  0  0
  152.6613  142.9829  159.9449 C   0  0  0  0  0  0  0  0  0  0  0  0
  152.5239  143.2103  161.2402 N   0  0  0  0  0  0  0  0  0  0  0  0
  151.4216  144.0614  161.3653 O   0  0  0  0  0  0  0  0  0  0  0  0
  150.9308  144.3132  160.1252 C   0  0  0  0  0  0  0  0  0  0  0  0
  149.7372  145.2034  160.0418 C   0  0  0  0  0  0  0  0  0  0  0  0
  151.6705  143.6616  159.1774 C   0  0  0  0  0  0  0  0  0  0  0  0
  151.4795  143.6543  157.6828 C   0  0  0  0  0  0  0  0  0  0  0  0
  150.9611  142.2856  157.2449 C   0  0  0  0  0  0  0  0  0  0  0  0
  151.5469  141.2639  157.6006 O   0  0  0  0  0  0  0  0  0  0  0  0
  149.8721  142.2871  156.4583 N   0  0  0  0  0  0  0  0  0  0  0  0
  149.2143  141.1249  155.8591 C   0  0  0  0  0  0  0  0  0  0  0  0
  150.1830  140.2885  155.1220 C   0  0  0  0  0  0  0  0  0  0  0  0
  150.9428  139.6341  154.5442 N   0  0  0  0  0  0  0  0  0  0  0  0
  148.6027  140.3029  157.0164 C   0  0  0  0  0  0  0  0  0  0  0  0
  147.7563  139.1206  156.5141 C   0  0  0  0  0  0  0  0  0  0  0  0
  146.6447  139.6017  155.5709 C   0  0  0  0  0  0  0  0  0  0  0  0
  147.2197  140.4219  154.4075 C   0  0  0  0  0  0  0  0  0  0  0  0
  148.0727  141.5941  154.9220 C   0  0  0  0  0  0  0  0  0  0  0  0
  153.3935  141.0744  159.2871 H   0  0  0  0  0  0  0  0  0  0  0  0
  154.5737  142.0163  160.1941 H   0  0  0  0  0  0  0  0  0  0  0  0
  154.1932  142.4501  158.5325 H   0  0  0  0  0  0  0  0  0  0  0  0
  149.3214  145.3992  161.0305 H   0  0  0  0  0  0  0  0  0  0  0  0
  148.9575  144.7455  159.4329 H   0  0  0  0  0  0  0  0  0  0  0  0
  150.0014  146.1595  159.5898 H   0  0  0  0  0  0  0  0  0  0  0  0
  150.7663  144.4178  157.3694 H   0  0  0  0  0  0  0  0  0  0  0  0
  152.4092  143.8786  157.1587 H   0  0  0  0  0  0  0  0  0  0  0  0
  149.4704  143.1855  156.2335 H   0  0  0  0  0  0  0  0  0  0  0  0
  149.3939  139.9308  157.6689 H   0  0  0  0  0  0  0  0  0  0  0  0
  147.9757  140.9468  157.6359 H   0  0  0  0  0  0  0  0  0  0  0  0
  148.3916  138.4006  155.9972 H   0  0  0  0  0  0  0  0  0  0  0  0
  147.3195  138.5913  157.3614 H   0  0  0  0  0  0  0  0  0  0  0  0
  146.0877  138.7475  155.1850 H   0  0  0  0  0  0  0  0  0  0  0  0
  145.9313  140.2103  156.1280 H   0  0  0  0  0  0  0  0  0  0  0  0
  147.8236  139.7777  153.7672 H   0  0  0  0  0  0  0  0  0  0  0  0
  146.4086  140.7998  153.7847 H   0  0  0  0  0  0  0  0  0  0  0  0
  147.4276  142.2972  155.4512 H   0  0  0  0  0  0  0  0  0  0  0  0
  148.4782  142.1384  154.0686 H   0  0  0  0  0  0  0  0  0  0  0  0
  1  2  1  0  0  0  0
  1 20  1  0  0  0  0
  1 21  1  0  0  0  0
  1 22  1  0  0  0  0
  2  7  1  0  0  0  0
  2  3  2  0  0  0  0
  3  4  1  0  0  0  0
  4  5  1  0  0  0  0
  5  6  1  0  0  0  0
  5  7  2  0  0  0  0
  6 23  1  0  0  0  0
  6 24  1  0  0  0  0
  6 25  1  0  0  0  0
  7  8  1  0  0  0  0
  8  9  1  0  0  0  0
  8 26  1  0  0  0  0
  8 27  1  0  0  0  0
  9 10  2  0  0  0  0
  9 11  1  0  0  0  0
 11 12  1  0  0  0  0
 11 28  1  0  0  0  0
 12 19  1  0  0  0  0
 12 13  1  0  0  0  0
 12 15  1  0  0  0  0
 13 14  3  0  0  0  0
 15 16  1  0  0  0  0
 15 29  1  0  0  0  0
 15 30  1  0  0  0  0
 16 17  1  0  0  0  0
 16 31  1  0  0  0  0
 16 32  1  0  0  0  0
 17 18  1  0  0  0  0
 17 33  1  0  0  0  0
 17 34  1  0  0  0  0
 18 19  1  0  0  0  0
 18 35  1  0  0  0  0
 18 36  1  0  0  0  0
 19 37  1  0  0  0  0
 19 38  1  0  0  0  0
M  END
> <s_m_source_file>
AV-unprocessed.smi

> <i_m_source_file_index>
2374

> <i_lp_mmshare_version>
43012

> <i_f3d_flags>
0

> <s_epik_input>
W0NIM11jMW5vYyhbQ0gzXSljMVtDSDJdQyg9TylbTkhdQzIoQyNOKVtDSDJdW0NIMl1bQ0gyXVtDSDJdW0NIMl0y

> <s_epik_cmdline>
J2VwaWtfcHl0aG9uJywgJy1waCcsICc3LjAnLCAnLXRuJywgJzgnLCAnLW1hJywgJzIwMCcsICctbWV0YWxfYmluZGluZycsICctaW1hZScsICc8aW5maWxlLm1hZT4nLCAnLW9tYWUnLCAnPG91dGZpbGUubWFlPic=

> <r_lp_tautomer_probability>
1

> <r_epik_Ionization_Penalty>
5.32351e-07

> <r_epik_Ionization_Penalty_Charging>
0

> <r_epik_Ionization_Penalty_Neutral>
5.32351e-07

> <r_epik_State_Penalty>
-0

> <r_epik_Charging_Adjusted_Penalty>
0

> <i_epik_Tot_Q>
0

> <i_epik_Tot_abs_Q>
0

> <r_epik_Metal_State_Penalty>
-0

> <b_epik_Metal_Only>
0

> <s_lp_Force_Field>
OPLS_2005

> <r_lp_Energy>
1.24433

> <b_lp_Chiralities_Consistent>
1

> <s_lp_Variant>
AV-unprocessed.smi:2374-1

> <Gold.Version>
5.8.1

> <Gold.Id.Protein>
6NUR|6NUR_protein|mol2

> <Gold.PLP.Fitness>
39.6180

> <Gold.PLP.PLP>
-34.1308

> <Gold.PLP.part.hbond>
-2.0564

> <Gold.PLP.part.metal>
0.0000

> <Gold.PLP.part.buried>
-4.0035

> <Gold.PLP.part.nonpolar>
-28.1105

> <Gold.PLP.part.repulsive>
0.4813

> <Gold.PLP.ligand.clash>
0.0000

> <Gold.PLP.ligand.torsion>
0.2590

> <Gold.PLP.Chemscore.Hbond>
2.0000

> <Gold.PLP.Chemscore.CHOScore>
0.0000

> <Gold.PLP.Chemscore.Metal>
0.0000

> <Gold.Chemscore.Hbonds>
donor molecule, donor type, donor heavy atom, donor atom, acceptor molecule, acceptor atom, score
      L1  H    11    28       P1  8028  1.00
      P1  H  7989  7998       L1    14  1.00

> <Gold.PLP.Chemscore.Internal.Correction>
0.0053

> <Gold.Rescore>
     Score         DG    S(hbond)    S(metal)    S(lipo)     H(rot)  DE(clash)    DE(int)     intcor
     15.69     -17.13       1.83        0.00      77.97       1.40       0.01       1.43       ----

> <Gold.Chemscore.Fitness>
15.6855

> <Gold.Chemscore.DG>
-17.1283

> <Gold.Chemscore.ZeroCoef>
-5.4800

> <Gold.Chemscore.Hbond>
1.8298

> <Gold.Chemscore.Metal>
0.0000

> <Gold.Chemscore.Lipo>
77.9738

> <Gold.Chemscore.Internal_Hbond>
0.0000

> <Gold.Chemscore.DEClash>
0.0107

> <Gold.Chemscore.DEInternal>
1.4321

> <Gold.Chemscore.Rot>
1.4009

> <Gold.Chemscore.Internal.Correction>
   9.000000E+99

> <Gold.Chemscore.Hbonds>
donor molecule, donor type, donor heavy atom, donor atom, acceptor molecule, acceptor atom, score
      L1  H    11    28       P1  8028  1.00
      P1  H  7989  7998       L1    14  0.26

> <Gold.Chemscore.Hbond.Weighted>
-6.1116

> <Gold.Chemscore.Metal.Weighted>
-0.0000

> <Gold.Chemscore.Lipo.Weighted>
-9.1229

> <Gold.Chemscore.Internal_Hbond.Weighted>
0.0000

> <Gold.Chemscore.DEClash.Weighted>
0.0107

> <Gold.Chemscore.DEInternal.Weighted>
1.4321

> <Gold.Chemscore.Rot.Weighted>
3.5863

> <Gold.Chemscore.Internal.Correction.Weighted>
   9.000000E+99

> <Gold.Protein.RotatedTorsions>
[ 6907 6896 6895 6894 ] final  -99.15 input  -60.11 | X-H torsion
[ 7974 7965 7964 7962 ] final  -43.57 input  175.53 | X-H torsion
[ 8008 7997 7996 7995 ] final   99.19 input   59.86 | X-H torsion
[ 10167 10162 10161 10158 ] final -113.03 input  -65.29 | X-H torsion
[ 10718 10713 10712 10709 ] final  -91.94 input   66.30 | X-H torsion
[ 10763 10752 10751 10750 ] final   87.55 input  -60.55 | X-H torsion
[ 11005 11000 10999 10996 ] final -122.59 input  -57.11 | X-H torsion

> <Gold.Protein.ActiveResidues>
 VAL166  LYS551  ARG553  GLY616  TRP617  ASP618  TYR619  PRO620  LYS621  CYS622 
 ASP623  PHE694  ASN695  SER759  ASP760  ASP761  ALA762  ILE779  LEU786  VAL792 
 PHE793  MET794  SER795  GLU796  ALA797  LYS798  CYS799  TRP800  GLU811  SER814 

> <Gold.Protein.RotatedAtoms>
  150.7070  134.1084  159.3990 H   0  0  0  0  0  0  0  0  0  0  0  0  # atno 6907 bound_to 6896
  151.9071  135.0352  160.0520 H   0  0  0  0  0  0  0  0  0  0  0  0  # atno 6908 bound_to 6896
  152.2366  133.5066  159.5283 H   0  0  0  0  0  0  0  0  0  0  0  0  # atno 6909 bound_to 6896
  146.0006  140.7079  142.9272 H   0  0  0  0  0  0  0  0  0  0  0  0  # atno 7974 bound_to 7965
  156.1080  140.3232  155.8033 H   0  0  0  0  0  0  0  0  0  0  0  0  # atno 8008 bound_to 7997
  155.4722  140.0547  157.2995 H   0  0  0  0  0  0  0  0  0  0  0  0  # atno 8009 bound_to 7997
  154.4741  140.2024  155.9937 H   0  0  0  0  0  0  0  0  0  0  0  0  # atno 8010 bound_to 7997
  140.1162  143.4483  152.1720 H   0  0  0  0  0  0  0  0  0  0  0  0  # atno 10167 bound_to 10162
  155.9998  130.4968  150.5551 H   0  0  0  0  0  0  0  0  0  0  0  0  # atno 10718 bound_to 10713
  153.1680  135.4539  154.9863 H   0  0  0  0  0  0  0  0  0  0  0  0  # atno 10763 bound_to 10752
  154.7945  135.3232  154.7701 H   0  0  0  0  0  0  0  0  0  0  0  0  # atno 10764 bound_to 10752
  153.8181  135.6949  153.4886 H   0  0  0  0  0  0  0  0  0  0  0  0  # atno 10765 bound_to 10752
  140.9983  134.0439  157.3569 H   0  0  0  0  0  0  0  0  0  0  0  0  # atno 11005 bound_to 11000
  144.6918  140.3226  143.7229 LP  0  0  0  0  0  0  0  0  0  0  0  0  # atno 17320 bound_to 7965
  145.7493  139.1789  143.2330 LP  0  0  0  0  0  0  0  0  0  0  0  0  # atno 17321 bound_to 7965
  139.5592  144.7394  151.4203 LP  0  0  0  0  0  0  0  0  0  0  0  0  # atno 17342 bound_to 10162
  140.6898  143.7889  150.7238 LP  0  0  0  0  0  0  0  0  0  0  0  0  # atno 17343 bound_to 10162
  157.3468  131.0726  151.1745 LP  0  0  0  0  0  0  0  0  0  0  0  0  # atno 17370 bound_to 10713
  157.2574  130.6643  149.5959 LP  0  0  0  0  0  0  0  0  0  0  0  0  # atno 17371 bound_to 10713
  139.9026  135.0169  156.7339 LP  0  0  0  0  0  0  0  0  0  0  0  0  # atno 17394 bound_to 11000
  140.6930  133.9374  155.7977 LP  0  0  0  0  0  0  0  0  0  0  0  0  # atno 17395 bound_to 11000

$$$$
