AV-unprocessed.smi:2944|AV-procd|sdf|11275|dock7
  -GOLD-   2272016163D 1   1.00000     0.00000
 Structure written by MMmdl.
 45 47  0  0  0  0  0  0  0  0  2 V2000
  153.3353  138.4454  154.4277 C   0  0  0  0  0  0  0  0  0  0  0  0
  153.1792  138.8010  155.7898 O   0  0  0  0  0  0  0  0  0  0  0  0
  151.8735  139.2718  156.0811 C   0  0  0  0  0  0  0  0  0  0  0  0
  151.8437  139.9338  157.4662 C   0  0  0  0  0  0  0  0  0  0  0  0
  151.4371  141.3457  157.4024 N   0  0  0  0  0  0  0  0  0  0  0  0
  150.6798  142.0045  156.4818 C   0  0  0  0  0  0  0  0  0  0  0  0
  149.9354  141.3165  155.0412 S   0  0  0  0  0  0  0  0  0  0  0  0
  148.2205  141.9188  155.0885 C   0  0  1  0  0  0  0  0  0  0  0  0
  147.3888  141.2317  153.9959 C   0  0  0  0  0  0  0  0  0  0  0  0
  147.5825  141.7019  156.4780 C   0  0  0  0  0  0  0  0  0  0  0  0
  148.2300  141.0470  157.2977 O   0  0  0  0  0  0  0  0  0  0  0  0
  146.3813  142.2427  156.8210 N   0  0  0  0  0  0  0  0  0  0  0  0
  145.5352  142.8760  155.8080 C   0  0  0  0  0  0  0  0  0  0  0  0
  144.2838  143.2988  156.5669 C   0  0  0  0  0  0  0  0  0  0  0  0
  144.6066  142.9042  157.9151 N   0  0  0  0  0  0  0  0  0  0  0  0
  145.8070  142.3342  158.0450 C   0  0  0  0  0  0  0  0  0  0  0  0
  146.2655  141.9825  159.1311 O   0  0  0  0  0  0  0  0  0  0  0  0
  150.5790  143.3027  156.8770 N   0  3  0  0  0  0  0  0  0  0  0  0
  151.2831  143.4817  158.0685 C   0  0  0  0  0  0  0  0  0  0  0  0
  151.4733  144.6166  158.8508 C   0  0  0  0  0  0  0  0  0  0  0  0
  152.2464  144.4576  160.0195 C   0  0  0  0  0  0  0  0  0  0  0  0
  152.7934  143.2070  160.3733 C   0  0  0  0  0  0  0  0  0  0  0  0
  152.5942  142.0633  159.5724 C   0  0  0  0  0  0  0  0  0  0  0  0
  151.8331  142.2289  158.4151 C   0  0  0  0  0  0  0  0  0  0  0  0
  154.3566  138.1076  154.2518 H   0  0  0  0  0  0  0  0  0  0  0  0
  153.1431  139.2955  153.7720 H   0  0  0  0  0  0  0  0  0  0  0  0
  152.6621  137.6324  154.1547 H   0  0  0  0  0  0  0  0  0  0  0  0
  151.5546  139.9854  155.3204 H   0  0  0  0  0  0  0  0  0  0  0  0
  151.1696  138.4416  156.0583 H   0  0  0  0  0  0  0  0  0  0  0  0
  151.1764  139.3979  158.1410 H   0  0  0  0  0  0  0  0  0  0  0  0
  152.8342  139.8930  157.9204 H   0  0  0  0  0  0  0  0  0  0  0  0
  148.3081  142.9764  154.8553 H   0  0  0  0  0  0  0  0  0  0  0  0
  146.3660  141.6103  153.9789 H   0  0  0  0  0  0  0  0  0  0  0  0
  147.3422  140.1526  154.1481 H   0  0  0  0  0  0  0  0  0  0  0  0
  147.8185  141.4090  153.0097 H   0  0  0  0  0  0  0  0  0  0  0  0
  146.0373  143.7408  155.3702 H   0  0  0  0  0  0  0  0  0  0  0  0
  145.2907  142.1765  155.0067 H   0  0  0  0  0  0  0  0  0  0  0  0
  144.1089  144.3736  156.5078 H   0  0  0  0  0  0  0  0  0  0  0  0
  143.3948  142.7728  156.2173 H   0  0  0  0  0  0  0  0  0  0  0  0
  143.9872  143.0872  158.6915 H   0  0  0  0  0  0  0  0  0  0  0  0
  151.0527  145.5752  158.5838 H   0  0  0  0  0  0  0  0  0  0  0  0
  152.4217  145.3110  160.6585 H   0  0  0  0  0  0  0  0  0  0  0  0
  153.3776  143.1229  161.2783 H   0  0  0  0  0  0  0  0  0  0  0  0
  153.0134  141.1098  159.8576 H   0  0  0  0  0  0  0  0  0  0  0  0
  150.0655  144.0104  156.3678 H   0  0  0  0  0  0  0  0  0  0  0  0
  1  2  1  0  0  0  0
  1 25  1  0  0  0  0
  1 26  1  0  0  0  0
  1 27  1  0  0  0  0
  2  3  1  0  0  0  0
  3  4  1  0  0  0  0
  3 28  1  0  0  0  0
  3 29  1  0  0  0  0
  4  5  1  0  0  0  0
  4 30  1  0  0  0  0
  4 31  1  0  0  0  0
  5 24  1  0  0  0  0
  5  6  1  0  0  0  0
  6  7  1  0  0  0  0
  6 18  2  0  0  0  0
  7  8  1  0  0  0  0
  8  9  1  0  0  0  0
  8 10  1  0  0  0  0
  8 32  1  0  0  0  0
  9 33  1  0  0  0  0
  9 34  1  0  0  0  0
  9 35  1  0  0  0  0
 10 11  2  0  0  0  0
 10 12  1  0  0  0  0
 12 16  1  0  0  0  0
 12 13  1  0  0  0  0
 13 14  1  0  0  0  0
 13 36  1  0  0  0  0
 13 37  1  0  0  0  0
 14 15  1  0  0  0  0
 14 38  1  0  0  0  0
 14 39  1  0  0  0  0
 15 16  1  0  0  0  0
 15 40  1  0  0  0  0
 16 17  2  0  0  0  0
 18 19  1  0  0  0  0
 18 45  1  0  0  0  0
 19 24  2  0  0  0  0
 19 20  1  0  0  0  0
 20 21  2  0  0  0  0
 20 41  1  0  0  0  0
 21 22  1  0  0  0  0
 21 42  1  0  0  0  0
 22 23  2  0  0  0  0
 22 43  1  0  0  0  0
 23 24  1  0  0  0  0
 23 44  1  0  0  0  0
M  CHG  1  18   1
M  END
> <s_m_source_file>
AV-unprocessed.smi

> <i_m_source_file_index>
2944

> <i_lp_mmshare_version>
43012

> <i_f3d_flags>
0

> <s_epik_input>
W2NIXTFbY0hdW2NIXVtjSF1jKGMxMiluKFtDSDJdW0NIMl1PW0NIM10pYyhuMilTW0NASF0oW0NIM10pQyg9TylOM1tDSDJdW0NIMl1bTkhdQzM9Tw==

> <s_epik_cmdline>
J2VwaWtfcHl0aG9uJywgJy1waCcsICc3LjAnLCAnLXRuJywgJzgnLCAnLW1hJywgJzIwMCcsICctbWV0YWxfYmluZGluZycsICctaW1hZScsICc8aW5maWxlLm1hZT4nLCAnLW9tYWUnLCAnPG91dGZpbGUubWFlPic=

> <r_lp_tautomer_probability>
0.9999

> <r_epik_Ionization_Penalty>
1.88808

> <r_epik_Ionization_Penalty_Charging>
1.88806

> <r_epik_Ionization_Penalty_Neutral>
2.68145e-05

> <r_epik_State_Penalty>
2.00836

> <r_epik_Charging_Adjusted_Penalty>
3.89641

> <i_epik_Tot_Q>
1

> <i_epik_Tot_abs_Q>
1

> <r_epik_Metal_State_Penalty>
2.03272

> <b_epik_Metal_Only>
0

> <s_lp_Force_Field>
OPLS_2005

> <r_lp_Energy>
44.4651

> <b_lp_Chiralities_Consistent>
1

> <s_lp_Variant>
AV-unprocessed.smi:2944-4

> <Gold.Version>
5.8.1

> <Gold.Id.Protein>
6NUR|6NUR_protein|mol2

> <Gold.PLP.Fitness>
55.8464

> <Gold.PLP.PLP>
-45.9739

> <Gold.PLP.part.hbond>
-2.9376

> <Gold.PLP.part.metal>
0.0000

> <Gold.PLP.part.buried>
-4.0390

> <Gold.PLP.part.nonpolar>
-40.0378

> <Gold.PLP.part.repulsive>
0.0924

> <Gold.PLP.ligand.clash>
0.0000

> <Gold.PLP.ligand.torsion>
1.1053

> <Gold.PLP.Chemscore.Hbond>
3.9675

> <Gold.PLP.Chemscore.CHOScore>
0.0000

> <Gold.PLP.Chemscore.Metal>
0.0000

> <Gold.Chemscore.Hbonds>
donor molecule, donor type, donor heavy atom, donor atom, acceptor molecule, acceptor atom, score
      L1  H    18    45       P1  8028  2.00
      P1  H  6934  6946       L1    17  0.97
      P1  H  7997  8010       L1     2  1.00

> <Gold.PLP.Chemscore.Internal.Correction>
0.1807

> <Gold.Rescore>
     Score         DG    S(hbond)    S(metal)    S(lipo)     H(rot)  DE(clash)    DE(int)     intcor
     16.00     -21.44       2.67        0.00     110.40       2.30       0.42       5.02       ----

> <Gold.Chemscore.Fitness>
15.9979

> <Gold.Chemscore.DG>
-21.4404

> <Gold.Chemscore.ZeroCoef>
-5.4800

> <Gold.Chemscore.Hbond>
2.6734

> <Gold.Chemscore.Metal>
0.0000

> <Gold.Chemscore.Lipo>
110.3962

> <Gold.Chemscore.Internal_Hbond>
0.0000

> <Gold.Chemscore.DEClash>
0.4190

> <Gold.Chemscore.DEInternal>
5.0235

> <Gold.Chemscore.Rot>
2.2988

> <Gold.Chemscore.Internal.Correction>
   9.000000E+99

> <Gold.Chemscore.Hbonds>
donor molecule, donor type, donor heavy atom, donor atom, acceptor molecule, acceptor atom, score
      L1  H    18    45       P1  8028  0.93
      P1  H  6934  6946       L1    17  0.85
      P1  H  7997  8010       L1     2  0.51

> <Gold.Chemscore.Hbond.Weighted>
-8.9291

> <Gold.Chemscore.Metal.Weighted>
-0.0000

> <Gold.Chemscore.Lipo.Weighted>
-12.9164

> <Gold.Chemscore.Internal_Hbond.Weighted>
0.0000

> <Gold.Chemscore.DEClash.Weighted>
0.4190

> <Gold.Chemscore.DEInternal.Weighted>
5.0235

> <Gold.Chemscore.Rot.Weighted>
5.8850

> <Gold.Chemscore.Internal.Correction.Weighted>
   9.000000E+99

> <Gold.Protein.RotatedTorsions>
[ 6907 6896 6895 6894 ] final -103.10 input  -60.11 | X-H torsion
[ 7974 7965 7964 7962 ] final  -97.40 input  175.53 | X-H torsion
[ 8008 7997 7996 7995 ] final   75.25 input   59.86 | X-H torsion
[ 10167 10162 10161 10158 ] final  152.97 input  -65.29 | X-H torsion
[ 10718 10713 10712 10709 ] final -139.31 input   66.30 | X-H torsion
[ 10763 10752 10751 10750 ] final -142.44 input  -60.55 | X-H torsion
[ 11005 11000 10999 10996 ] final   91.85 input  -57.11 | X-H torsion

> <Gold.Protein.ActiveResidues>
 VAL166  LYS551  ARG553  GLY616  TRP617  ASP618  TYR619  PRO620  LYS621  CYS622 
 ASP623  PHE694  ASN695  SER759  ASP760  ASP761  ALA762  ILE779  LEU786  VAL792 
 PHE793  MET794  SER795  GLU796  ALA797  LYS798  CYS799  TRP800  GLU811  SER814 

> <Gold.Protein.RotatedAtoms>
  150.7225  134.0481  159.3788 H   0  0  0  0  0  0  0  0  0  0  0  0  # atno 6907 bound_to 6896
  151.8456  135.0573  160.0462 H   0  0  0  0  0  0  0  0  0  0  0  0  # atno 6908 bound_to 6896
  152.2829  133.5451  159.5545 H   0  0  0  0  0  0  0  0  0  0  0  0  # atno 6909 bound_to 6896
  145.3342  140.9447  143.2644 H   0  0  0  0  0  0  0  0  0  0  0  0  # atno 7974 bound_to 7965
  155.8102  140.3473  155.5453 H   0  0  0  0  0  0  0  0  0  0  0  0  # atno 8008 bound_to 7997
  155.8449  140.0947  157.1732 H   0  0  0  0  0  0  0  0  0  0  0  0  # atno 8009 bound_to 7997
  154.4006  140.1387  156.3761 H   0  0  0  0  0  0  0  0  0  0  0  0  # atno 8010 bound_to 7997
  139.4829  144.5312  151.7719 H   0  0  0  0  0  0  0  0  0  0  0  0  # atno 10167 bound_to 10162
  156.3092  130.7472  151.1544 H   0  0  0  0  0  0  0  0  0  0  0  0  # atno 10718 bound_to 10713
  154.8509  135.3496  154.6028 H   0  0  0  0  0  0  0  0  0  0  0  0  # atno 10763 bound_to 10752
  153.6637  135.6988  153.5174 H   0  0  0  0  0  0  0  0  0  0  0  0  # atno 10764 bound_to 10752
  153.2797  135.4267  155.1024 H   0  0  0  0  0  0  0  0  0  0  0  0  # atno 10765 bound_to 10752
  139.8832  134.8698  156.3488 H   0  0  0  0  0  0  0  0  0  0  0  0  # atno 11005 bound_to 11000
  144.8840  139.4864  143.6709 LP  0  0  0  0  0  0  0  0  0  0  0  0  # atno 17320 bound_to 7965
  146.3033  139.7498  142.9075 LP  0  0  0  0  0  0  0  0  0  0  0  0  # atno 17321 bound_to 7965
  140.4839  144.1410  150.5937 LP  0  0  0  0  0  0  0  0  0  0  0  0  # atno 17342 bound_to 10162
  140.4247  143.2595  151.9671 LP  0  0  0  0  0  0  0  0  0  0  0  0  # atno 17343 bound_to 10162
  157.7387  131.0538  150.5279 LP  0  0  0  0  0  0  0  0  0  0  0  0  # atno 17370 bound_to 10713
  156.5416  130.4209  149.6151 LP  0  0  0  0  0  0  0  0  0  0  0  0  # atno 17371 bound_to 10713
  140.9608  133.7389  156.0399 LP  0  0  0  0  0  0  0  0  0  0  0  0  # atno 17394 bound_to 11000
  140.7991  134.3529  157.5444 LP  0  0  0  0  0  0  0  0  0  0  0  0  # atno 17395 bound_to 11000

$$$$
