AV-unprocessed.smi:2154|AV-procd|sdf|8777|dock10
  -GOLD-   2272011553D 1   1.00000     0.00000
 Structure written by MMmdl.
 31 32  0  0  0  0  0  0  0  0  2 V2000
  151.3932  145.3337  159.6892 C   0  0  0  0  0  0  0  0  0  0  0  0
  152.0260  144.3996  158.6803 C   0  0  1  0  0  0  0  0  0  0  0  0
  152.3127  142.9593  159.0399 C   0  0  0  0  0  0  0  0  0  0  0  0
  151.2224  143.2858  158.0471 C   0  0  2  0  0  0  0  0  0  0  0  0
  151.3827  142.9582  156.5776 C   0  0  0  0  0  0  0  0  0  0  0  0
  150.1873  142.3871  155.9727 N   0  0  0  0  0  0  0  0  0  0  0  0
  150.1021  141.1895  155.3699 C   0  0  0  0  0  0  0  0  0  0  0  0
  151.0563  140.4174  155.2785 O   0  0  0  0  0  0  0  0  0  0  0  0
  148.7446  140.7691  154.7790 C   0  0  0  0  0  0  0  0  0  0  0  0
  147.6373  141.7111  155.0272 N   0  0  0  0  0  0  0  0  0  0  0  0
  147.0382  142.3176  153.9090 C   0  0  0  0  0  0  0  0  0  0  0  0
  146.0175  143.1871  154.0335 C   0  0  0  0  0  0  0  0  0  0  0  0
  145.5336  143.4960  155.3731 C   0  0  0  0  0  0  0  0  0  0  0  0
  144.6033  144.2886  155.5059 O   0  0  0  0  0  0  0  0  0  0  0  0
  146.1454  142.8798  156.4265 N   0  5  0  0  0  0  0  0  0  0  0  0
  147.1821  141.9970  156.2849 C   0  0  0  0  0  0  0  0  0  0  0  0
  147.7145  141.4458  157.2484 O   0  0  0  0  0  0  0  0  0  0  0  0
  150.6486  144.8100  160.2896 H   0  0  0  0  0  0  0  0  0  0  0  0
  150.9049  146.1623  159.1759 H   0  0  0  0  0  0  0  0  0  0  0  0
  152.1556  145.7374  160.3556 H   0  0  0  0  0  0  0  0  0  0  0  0
  152.7652  144.8832  158.0444 H   0  0  0  0  0  0  0  0  0  0  0  0
  153.2319  142.5196  158.6579 H   0  0  0  0  0  0  0  0  0  0  0  0
  152.0034  142.6085  160.0226 H   0  0  0  0  0  0  0  0  0  0  0  0
  150.2009  143.1738  158.4070 H   0  0  0  0  0  0  0  0  0  0  0  0
  151.6777  143.8746  156.0645 H   0  0  0  0  0  0  0  0  0  0  0  0
  152.2041  142.2523  156.4504 H   0  0  0  0  0  0  0  0  0  0  0  0
  149.3522  142.9552  155.9959 H   0  0  0  0  0  0  0  0  0  0  0  0
  148.8704  140.6088  153.7070 H   0  0  0  0  0  0  0  0  0  0  0  0
  148.4933  139.7867  155.1812 H   0  0  0  0  0  0  0  0  0  0  0  0
  147.4523  142.0307  152.9535 H   0  0  0  0  0  0  0  0  0  0  0  0
  145.5671  143.6427  153.1639 H   0  0  0  0  0  0  0  0  0  0  0  0
  1  2  1  0  0  0  0
  1 18  1  0  0  0  0
  1 19  1  0  0  0  0
  1 20  1  0  0  0  0
  2  4  1  0  0  0  0
  2  3  1  0  0  0  0
  2 21  1  0  0  0  0
  3  4  1  0  0  0  0
  3 22  1  0  0  0  0
  3 23  1  0  0  0  0
  4  5  1  0  0  0  0
  4 24  1  0  0  0  0
  5  6  1  0  0  0  0
  5 25  1  0  0  0  0
  5 26  1  0  0  0  0
  6  7  1  0  0  0  0
  6 27  1  0  0  0  0
  7  8  2  0  0  0  0
  7  9  1  0  0  0  0
  9 10  1  0  0  0  0
  9 28  1  0  0  0  0
  9 29  1  0  0  0  0
 10 16  1  0  0  0  0
 10 11  1  0  0  0  0
 11 12  2  0  0  0  0
 11 30  1  0  0  0  0
 12 13  1  0  0  0  0
 12 31  1  0  0  0  0
 13 14  2  0  0  0  0
 13 15  1  0  0  0  0
 15 16  1  0  0  0  0
 16 17  2  0  0  0  0
M  CHG  1  15  -1
M  END
> <s_m_source_file>
AV-unprocessed.smi

> <i_m_source_file_index>
2154

> <i_lp_mmshare_version>
43012

> <i_f3d_flags>
0

> <s_epik_input>
W0NIM11bQ0BASF0xW0NIMl1bQ0BIXTFbQ0gyXVtOSF1DKD1PKVtDSDJdbjJbY0hdW2NIXWMoPU8pW25IXWMyPU8=

> <s_epik_cmdline>
J2VwaWtfcHl0aG9uJywgJy1waCcsICc3LjAnLCAnLXRuJywgJzgnLCAnLW1hJywgJzIwMCcsICctbWV0YWxfYmluZGluZycsICctaW1hZScsICc8aW5maWxlLm1hZT4nLCAnLW9tYWUnLCAnPG91dGZpbGUubWFlPic=

> <r_lp_tautomer_probability>
0.999537

> <r_epik_Ionization_Penalty>
3.12283

> <r_epik_Ionization_Penalty_Charging>
2.83566e-08

> <r_epik_Ionization_Penalty_Neutral>
3.12283

> <r_epik_State_Penalty>
3.12192

> <r_epik_Charging_Adjusted_Penalty>
3.12192

> <i_epik_Tot_Q>
-1

> <i_epik_Tot_abs_Q>
1

> <r_epik_Metal_State_Penalty>
0.463748

> <b_epik_Metal_Only>
1

> <s_lp_Force_Field>
OPLS_2005

> <r_lp_Energy>
24.2191

> <b_lp_Chiralities_Consistent>
1

> <s_lp_Variant>
AV-unprocessed.smi:2154-8

> <Gold.Version>
5.8.1

> <Gold.Id.Protein>
6NUR|6NUR_protein|mol2

> <Gold.PLP.Fitness>
40.0815

> <Gold.PLP.PLP>
-35.3455

> <Gold.PLP.part.hbond>
-2.0000

> <Gold.PLP.part.metal>
0.0000

> <Gold.PLP.part.buried>
-5.1805

> <Gold.PLP.part.nonpolar>
-28.0933

> <Gold.PLP.part.repulsive>
0.5376

> <Gold.PLP.ligand.clash>
0.0000

> <Gold.PLP.ligand.torsion>
0.5050

> <Gold.PLP.Chemscore.Hbond>
1.7360

> <Gold.PLP.Chemscore.CHOScore>
0.0000

> <Gold.PLP.Chemscore.Metal>
0.0000

> <Gold.Chemscore.Hbonds>
donor molecule, donor type, donor heavy atom, donor atom, acceptor molecule, acceptor atom, score
      L1  H     6    27       P1  8028  0.75
      P1  H  7989  7998       L1     8  0.95

> <Gold.PLP.Chemscore.Internal.Correction>
0.5381

> <Gold.Rescore>
     Score         DG    S(hbond)    S(metal)    S(lipo)     H(rot)  DE(clash)    DE(int)     intcor
     12.88     -13.99       1.48        0.00      73.53       1.96       0.46       0.65       ----

> <Gold.Chemscore.Fitness>
12.8848

> <Gold.Chemscore.DG>
-13.9906

> <Gold.Chemscore.ZeroCoef>
-5.4800

> <Gold.Chemscore.Hbond>
1.4752

> <Gold.Chemscore.Metal>
0.0000

> <Gold.Chemscore.Lipo>
73.5338

> <Gold.Chemscore.Internal_Hbond>
0.0000

> <Gold.Chemscore.DEClash>
0.4554

> <Gold.Chemscore.DEInternal>
0.6503

> <Gold.Chemscore.Rot>
1.9609

> <Gold.Chemscore.Internal.Correction>
   9.000000E+99

> <Gold.Chemscore.Hbonds>
donor molecule, donor type, donor heavy atom, donor atom, acceptor molecule, acceptor atom, score
      L1  H     6    27       P1  8028  0.76
      P1  H  7989  7998       L1     8  0.20

> <Gold.Chemscore.Hbond.Weighted>
-4.9271

> <Gold.Chemscore.Metal.Weighted>
-0.0000

> <Gold.Chemscore.Lipo.Weighted>
-8.6035

> <Gold.Chemscore.Internal_Hbond.Weighted>
0.0000

> <Gold.Chemscore.DEClash.Weighted>
0.4554

> <Gold.Chemscore.DEInternal.Weighted>
0.6503

> <Gold.Chemscore.Rot.Weighted>
5.0200

> <Gold.Chemscore.Internal.Correction.Weighted>
   9.000000E+99

> <Gold.Protein.RotatedTorsions>
[ 6907 6896 6895 6894 ] final   34.49 input  -60.11 | X-H torsion
[ 7974 7965 7964 7962 ] final  104.20 input  175.53 | X-H torsion
[ 8008 7997 7996 7995 ] final  -58.50 input   59.86 | X-H torsion
[ 10167 10162 10161 10158 ] final -164.86 input  -65.29 | X-H torsion
[ 10718 10713 10712 10709 ] final  -91.98 input   66.30 | X-H torsion
[ 10763 10752 10751 10750 ] final   55.29 input  -60.55 | X-H torsion
[ 11005 11000 10999 10996 ] final    1.65 input  -57.11 | X-H torsion

> <Gold.Protein.ActiveResidues>
 VAL166  LYS551  ARG553  GLY616  TRP617  ASP618  TYR619  PRO620  LYS621  CYS622 
 ASP623  PHE694  ASN695  SER759  ASP760  ASP761  ALA762  ILE779  LEU786  VAL792 
 PHE793  MET794  SER795  GLU796  ALA797  LYS798  CYS799  TRP800  GLU811  SER814 

> <Gold.Protein.RotatedAtoms>
  152.1031  134.9327  160.0568 H   0  0  0  0  0  0  0  0  0  0  0  0  # atno 6907 bound_to 6896
  152.0534  133.4024  159.4395 H   0  0  0  0  0  0  0  0  0  0  0  0  # atno 6908 bound_to 6896
  150.6840  134.3202  159.4827 H   0  0  0  0  0  0  0  0  0  0  0  0  # atno 6909 bound_to 6896
  145.3359  139.2474  143.3636 H   0  0  0  0  0  0  0  0  0  0  0  0  # atno 7974 bound_to 7965
  154.4311  140.1082  156.5967 H   0  0  0  0  0  0  0  0  0  0  0  0  # atno 8008 bound_to 7997
  155.5954  140.3492  155.4560 H   0  0  0  0  0  0  0  0  0  0  0  0  # atno 8009 bound_to 7997
  156.0214  140.1240  157.0343 H   0  0  0  0  0  0  0  0  0  0  0  0  # atno 8010 bound_to 7997
  139.6221  144.0604  152.1942 H   0  0  0  0  0  0  0  0  0  0  0  0  # atno 10167 bound_to 10162
  155.9998  130.4969  150.5556 H   0  0  0  0  0  0  0  0  0  0  0  0  # atno 10718 bound_to 10713
  152.9815  135.5716  154.5042 H   0  0  0  0  0  0  0  0  0  0  0  0  # atno 10763 bound_to 10752
  154.4556  135.2780  155.1751 H   0  0  0  0  0  0  0  0  0  0  0  0  # atno 10764 bound_to 10752
  154.3361  135.6239  153.5627 H   0  0  0  0  0  0  0  0  0  0  0  0  # atno 10765 bound_to 10752
  140.6130  133.9730  155.8187 H   0  0  0  0  0  0  0  0  0  0  0  0  # atno 11005 bound_to 11000
  146.3027  140.3946  142.8698 LP  0  0  0  0  0  0  0  0  0  0  0  0  # atno 17320 bound_to 7965
  144.8828  140.7422  143.5976 LP  0  0  0  0  0  0  0  0  0  0  0  0  # atno 17321 bound_to 7965
  140.0248  144.6126  150.7536 LP  0  0  0  0  0  0  0  0  0  0  0  0  # atno 17342 bound_to 10162
  140.7388  143.2783  151.3674 LP  0  0  0  0  0  0  0  0  0  0  0  0  # atno 17343 bound_to 10162
  157.3472  131.0727  151.1741 LP  0  0  0  0  0  0  0  0  0  0  0  0  # atno 17370 bound_to 10713
  157.2570  130.6641  149.5957 LP  0  0  0  0  0  0  0  0  0  0  0  0  # atno 17371 bound_to 10713
  141.0795  134.0084  157.3408 LP  0  0  0  0  0  0  0  0  0  0  0  0  # atno 17394 bound_to 11000
  139.9184  135.0199  156.7971 LP  0  0  0  0  0  0  0  0  0  0  0  0  # atno 17395 bound_to 11000

$$$$
