AV-unprocessed.smi:283|AV-procd|sdf|2140|dock5
  -GOLD-   2262021463D 1   1.00000     0.00000
 Structure written by MMmdl.
 48 51  0  0  0  0  0  0  0  0  1 V2000
  144.8899  139.7700  157.3372 C   0  0  0  0  0  0  0  0  0  0  0  0
  144.9704  139.4385  155.8410 C   0  0  1  0  0  0  0  0  0  0  0  0
  143.6233  139.3649  155.2789 N   0  0  0  0  0  0  0  0  0  0  0  0
  143.2294  138.2969  154.5500 C   0  0  0  0  0  0  0  0  0  0  0  0
  141.9589  137.8798  154.7640 N   0  0  0  0  0  0  0  0  0  0  0  0
  141.4644  136.8522  154.0688 C   0  0  0  0  0  0  0  0  0  0  0  0
  142.0622  136.1161  153.1311 N   0  0  0  0  0  0  0  0  0  0  0  0
  143.3502  136.5165  152.9217 C   0  0  0  0  0  0  0  0  0  0  0  0
  144.0099  137.5880  153.5893 C   0  0  0  0  0  0  0  0  0  0  0  0
  145.3151  137.6848  153.1200 N   0  0  0  0  0  0  0  0  0  0  0  0
  145.4082  136.7470  152.2181 C   0  0  0  0  0  0  0  0  0  0  0  0
  144.2691  136.0001  152.0289 N   0  0  0  0  0  0  0  0  0  0  0  0
  144.0700  134.8775  151.0594 C   0  0  1  0  0  0  0  0  0  0  0  0
  145.3020  134.4814  150.5515 O   0  0  0  0  0  0  0  0  0  0  0  0
  145.2477  133.1030  150.1987 C   0  0  1  0  0  0  0  0  0  0  0  0
  146.5605  132.4248  150.6320 C   0  0  0  0  0  0  0  0  0  0  0  0
  146.4939  131.0188  150.5135 O   0  0  0  0  0  0  0  0  0  0  0  0
  143.9550  132.5199  150.8089 C   0  0  2  0  0  0  0  0  0  0  0  0
  143.0268  132.2530  149.7745 O   0  0  0  0  0  0  0  0  0  0  0  0
  143.4254  133.6386  151.6974 C   0  0  1  0  0  0  0  0  0  0  0  0
  143.7998  133.4382  153.0482 O   0  0  0  0  0  0  0  0  0  0  0  0
  145.9119  140.4158  155.1301 C   0  0  0  0  0  0  0  0  0  0  0  0
  147.0932  139.9385  154.5151 C   0  0  0  0  0  0  0  0  0  0  0  0
  147.9731  140.8237  153.8649 C   0  0  0  0  0  0  0  0  0  0  0  0
  147.6763  142.1973  153.8124 C   0  0  0  0  0  0  0  0  0  0  0  0
  146.4960  142.6815  154.4054 C   0  0  0  0  0  0  0  0  0  0  0  0
  145.6121  141.7999  155.0594 C   0  0  0  0  0  0  0  0  0  0  0  0
  144.1709  142.4507  155.7588 Cl  0  0  0  0  0  0  0  0  0  0  0  0
  143.4654  135.2968  150.2539 H   0  0  0  0  0  0  0  0  0  0  0  0
  145.1985  133.0638  149.1091 H   0  0  0  0  0  0  0  0  0  0  0  0
  144.1190  131.5923  151.3590 H   0  0  0  0  0  0  0  0  0  0  0  0
  142.3391  133.7327  151.6619 H   0  0  0  0  0  0  0  0  0  0  0  0
  145.8778  139.7452  157.7982 H   0  0  0  0  0  0  0  0  0  0  0  0
  144.2635  139.0515  157.8669 H   0  0  0  0  0  0  0  0  0  0  0  0
  144.4717  140.7637  157.5020 H   0  0  0  0  0  0  0  0  0  0  0  0
  145.3802  138.4329  155.7652 H   0  0  0  0  0  0  0  0  0  0  0  0
  143.1437  140.2514  155.2211 H   0  0  0  0  0  0  0  0  0  0  0  0
  140.4424  136.5838  154.2920 H   0  0  0  0  0  0  0  0  0  0  0  0
  146.3159  136.5782  151.6570 H   0  0  0  0  0  0  0  0  0  0  0  0
  147.3796  132.7726  150.0020 H   0  0  0  0  0  0  0  0  0  0  0  0
  146.8106  132.6929  151.6587 H   0  0  0  0  0  0  0  0  0  0  0  0
  147.3753  130.6756  150.5279 H   0  0  0  0  0  0  0  0  0  0  0  0
  142.3838  132.9456  149.7629 H   0  0  0  0  0  0  0  0  0  0  0  0
  143.1738  132.8539  153.4481 H   0  0  0  0  0  0  0  0  0  0  0  0
  147.3358  138.8864  154.5421 H   0  0  0  0  0  0  0  0  0  0  0  0
  148.8755  140.4475  153.4059 H   0  0  0  0  0  0  0  0  0  0  0  0
  148.3500  142.8780  153.3135 H   0  0  0  0  0  0  0  0  0  0  0  0
  146.2672  143.7359  154.3562 H   0  0  0  0  0  0  0  0  0  0  0  0
  1  2  1  0  0  0  0
  1 33  1  0  0  0  0
  1 34  1  0  0  0  0
  1 35  1  0  0  0  0
  2  3  1  0  0  0  0
  2 22  1  0  0  0  0
  2 36  1  0  0  0  0
  3  4  1  0  0  0  0
  3 37  1  0  0  0  0
  4  9  1  0  0  0  0
  4  5  2  0  0  0  0
  5  6  1  0  0  0  0
  6  7  2  0  0  0  0
  6 38  1  0  0  0  0
  7  8  1  0  0  0  0
  8 12  1  0  0  0  0
  8  9  2  0  0  0  0
  9 10  1  0  0  0  0
 10 11  2  0  0  0  0
 11 12  1  0  0  0  0
 11 39  1  0  0  0  0
 12 13  1  0  0  0  0
 13 29  1  0  0  0  0
 13 20  1  0  0  0  0
 13 14  1  0  0  0  0
 14 15  1  0  0  0  0
 15 30  1  0  0  0  0
 15 16  1  0  0  0  0
 15 18  1  0  0  0  0
 16 17  1  0  0  0  0
 16 40  1  0  0  0  0
 16 41  1  0  0  0  0
 17 42  1  0  0  0  0
 18 31  1  0  0  0  0
 18 19  1  0  0  0  0
 18 20  1  0  0  0  0
 19 43  1  0  0  0  0
 20 32  1  0  0  0  0
 20 21  1  0  0  0  0
 21 44  1  0  0  0  0
 22 27  1  0  0  0  0
 22 23  2  0  0  0  0
 23 24  1  0  0  0  0
 23 45  1  0  0  0  0
 24 25  2  0  0  0  0
 24 46  1  0  0  0  0
 25 26  1  0  0  0  0
 25 47  1  0  0  0  0
 26 27  2  0  0  0  0
 26 48  1  0  0  0  0
 27 28  1  0  0  0  0
M  END
> <s_m_source_file>
AV-unprocessed.smi

> <i_m_source_file_index>
283

> <i_lp_mmshare_version>
43012

> <i_f3d_flags>
0

> <s_epik_input>
Q2xjMVtjSF1bY0hdW2NIXVtjSF1jMVtDQEhdKFtDSDNdKVtOSF1jKG5bY0hdbjIpYyhjMjMpbltjSF1uM1tDQEBIXTRPW0NASF0oW0NIMl1bT0hdKVtDQEBIXShbT0hdKVtDQEhdNFtPSF0=

> <s_epik_cmdline>
J2VwaWtfcHl0aG9uJywgJy1waCcsICc3LjAnLCAnLXRuJywgJzgnLCAnLW1hJywgJzIwMCcsICctbWV0YWxfYmluZGluZycsICctaW1hZScsICc8aW5maWxlLm1hZT4nLCAnLW9tYWUnLCAnPG91dGZpbGUubWFlPic=

> <r_lp_tautomer_probability>
1

> <r_epik_Ionization_Penalty>
0.000266407

> <r_epik_Ionization_Penalty_Charging>
0

> <r_epik_Ionization_Penalty_Neutral>
0.000266407

> <r_epik_State_Penalty>
-0

> <r_epik_Charging_Adjusted_Penalty>
0

> <i_epik_Tot_Q>
0

> <i_epik_Tot_abs_Q>
0

> <r_epik_Metal_State_Penalty>
-0

> <b_epik_Metal_Only>
0

> <s_epik_Chemistry_Notes>
This compound contains an acetal/aminal-like group ( X-CH(R)-Y where X, Y are N, S, or O) that may be acid/base labile, releasing an aldehyde.

> <s_lp_Force_Field>
OPLS_2005

> <r_lp_Energy>
47.3301

> <b_lp_Chiralities_Consistent>
1

> <s_lp_Variant>
AV-unprocessed.smi:283-16

> <Gold.Version>
5.8.1

> <Gold.Id.Protein>
6NUR|6NUR_protein|mol2

> <Gold.PLP.Fitness>
46.8864

> <Gold.PLP.PLP>
-36.5896

> <Gold.PLP.part.hbond>
-4.8475

> <Gold.PLP.part.metal>
0.0000

> <Gold.PLP.part.buried>
-2.0333

> <Gold.PLP.part.nonpolar>
-30.1364

> <Gold.PLP.part.repulsive>
1.1512

> <Gold.PLP.ligand.clash>
0.0000

> <Gold.PLP.ligand.torsion>
0.7625

> <Gold.PLP.Chemscore.Hbond>
3.1950

> <Gold.PLP.Chemscore.CHOScore>
0.7225

> <Gold.PLP.Chemscore.Metal>
0.0000

> <Gold.Chemscore.Hbonds>
donor molecule, donor type, donor heavy atom, donor atom, acceptor molecule, acceptor atom, score
      L1  H    17    42       P1 10747  1.00
      L1  H    19    43       P1 10186  1.00
      L1  H    21    44       P1 10957  1.00
      P1  H 10785 10796       L1    19  0.18
      L1  C    11    39       P1  7948  0.73

> <Gold.PLP.Chemscore.Internal.Correction>
0.0694

> <Gold.Rescore>
     Score         DG    S(hbond)    S(metal)    S(lipo)     H(rot)  DE(clash)    DE(int)     intcor
     11.32     -12.33       2.91        0.00      65.15       4.10       0.28       0.73       ----

> <Gold.Chemscore.Fitness>
11.3151

> <Gold.Chemscore.DG>
-12.3311

> <Gold.Chemscore.ZeroCoef>
-5.4800

> <Gold.Chemscore.Hbond>
2.9091

> <Gold.Chemscore.Metal>
0.0000

> <Gold.Chemscore.Lipo>
65.1500

> <Gold.Chemscore.Internal_Hbond>
0.0000

> <Gold.Chemscore.DEClash>
0.2846

> <Gold.Chemscore.DEInternal>
0.7314

> <Gold.Chemscore.Rot>
4.0968

> <Gold.Chemscore.Internal.Correction>
   9.000000E+99

> <Gold.Chemscore.Hbonds>
donor molecule, donor type, donor heavy atom, donor atom, acceptor molecule, acceptor atom, score
      L1  H    17    42       P1 10747  0.95
      L1  H    19    43       P1 10186  0.93
      L1  H    21    44       P1 10957  0.72
      P1  H 10785 10796       L1    19  0.18

> <Gold.Chemscore.Hbond.Weighted>
-9.7165

> <Gold.Chemscore.Metal.Weighted>
-0.0000

> <Gold.Chemscore.Lipo.Weighted>
-7.6226

> <Gold.Chemscore.Internal_Hbond.Weighted>
0.0000

> <Gold.Chemscore.DEClash.Weighted>
0.2846

> <Gold.Chemscore.DEInternal.Weighted>
0.7314

> <Gold.Chemscore.Rot.Weighted>
10.4879

> <Gold.Chemscore.Internal.Correction.Weighted>
   9.000000E+99

> <Gold.Protein.RotatedTorsions>
[ 6907 6896 6895 6894 ] final   72.49 input  -60.11 | X-H torsion
[ 7974 7965 7964 7962 ] final  -66.47 input  175.53 | X-H torsion
[ 8008 7997 7996 7995 ] final  142.67 input   59.86 | X-H torsion
[ 10167 10162 10161 10158 ] final  -13.47 input  -65.29 | X-H torsion
[ 10718 10713 10712 10709 ] final   -6.97 input   66.30 | X-H torsion
[ 10763 10752 10751 10750 ] final   -8.86 input  -60.55 | X-H torsion
[ 11005 11000 10999 10996 ] final  -23.39 input  -57.11 | X-H torsion

> <Gold.Protein.ActiveResidues>
 VAL166  LYS551  ARG553  GLY616  TRP617  ASP618  TYR619  PRO620  LYS621  CYS622 
 ASP623  PHE694  ASN695  SER759  ASP760  ASP761  ALA762  ILE779  LEU786  VAL792 
 PHE793  MET794  SER795  GLU796  ALA797  LYS798  CYS799  TRP800  GLU811  SER814 

> <Gold.Protein.RotatedAtoms>
  152.4871  134.4564  159.9590 H   0  0  0  0  0  0  0  0  0  0  0  0  # atno 6907 bound_to 6896
  151.4558  133.3599  159.2809 H   0  0  0  0  0  0  0  0  0  0  0  0  # atno 6908 bound_to 6896
  150.8990  134.8426  159.7407 H   0  0  0  0  0  0  0  0  0  0  0  0  # atno 6909 bound_to 6896
  145.7414  140.8952  143.0528 H   0  0  0  0  0  0  0  0  0  0  0  0  # atno 7974 bound_to 7965
  156.2945  140.2282  156.4766 H   0  0  0  0  0  0  0  0  0  0  0  0  # atno 8008 bound_to 7997
  154.7889  140.0455  157.1206 H   0  0  0  0  0  0  0  0  0  0  0  0  # atno 8009 bound_to 7997
  154.9669  140.3061  155.5009 H   0  0  0  0  0  0  0  0  0  0  0  0  # atno 8010 bound_to 7997
  140.7183  143.5423  150.9395 H   0  0  0  0  0  0  0  0  0  0  0  0  # atno 10167 bound_to 10162
  156.7240  130.5159  149.5861 H   0  0  0  0  0  0  0  0  0  0  0  0  # atno 10718 bound_to 10713
  153.4465  135.7014  153.6135 H   0  0  0  0  0  0  0  0  0  0  0  0  # atno 10763 bound_to 10752
  153.4488  135.3763  155.2272 H   0  0  0  0  0  0  0  0  0  0  0  0  # atno 10764 bound_to 10752
  154.8728  135.3992  154.3872 H   0  0  0  0  0  0  0  0  0  0  0  0  # atno 10765 bound_to 10752
  140.8747  133.7695  156.0229 H   0  0  0  0  0  0  0  0  0  0  0  0  # atno 11005 bound_to 11000
  144.6870  139.9465  143.7476 LP  0  0  0  0  0  0  0  0  0  0  0  0  # atno 17320 bound_to 7965
  146.0444  139.3452  143.0677 LP  0  0  0  0  0  0  0  0  0  0  0  0  # atno 17321 bound_to 7965
  139.9146  143.6679  152.3109 LP  0  0  0  0  0  0  0  0  0  0  0  0  # atno 17342 bound_to 10162
  139.7074  144.7626  151.1169 LP  0  0  0  0  0  0  0  0  0  0  0  0  # atno 17343 bound_to 10162
  156.1575  130.6351  151.0675 LP  0  0  0  0  0  0  0  0  0  0  0  0  # atno 17370 bound_to 10713
  157.6886  131.0817  150.7172 LP  0  0  0  0  0  0  0  0  0  0  0  0  # atno 17371 bound_to 10713
  140.8531  134.2930  157.5267 LP  0  0  0  0  0  0  0  0  0  0  0  0  # atno 17394 bound_to 11000
  139.8715  134.9478  156.3979 LP  0  0  0  0  0  0  0  0  0  0  0  0  # atno 17395 bound_to 11000

$$$$
