AV-unprocessed.smi:1627|AV-procd|sdf|6518|dock3
  -GOLD-   22720 7193D 1   1.00000     0.00000
 Structure written by MMmdl.
 44 45  0  0  0  0  0  0  0  0  2 V2000
  156.3010  134.3053  161.4698 C   0  0  0  0  0  0  0  0  0  0  0  0
  155.5138  135.3313  162.2984 C   0  0  2  0  0  0  0  0  0  0  0  0
  154.6384  134.6066  163.1583 O   0  0  0  0  0  0  0  0  0  0  0  0
  155.2588  133.9715  164.2720 C   0  0  0  0  0  0  0  0  0  0  0  0
  154.3294  132.8801  164.8164 C   0  0  0  0  0  0  0  0  0  0  0  0
  153.4401  133.4321  165.6410 F   0  0  0  0  0  0  0  0  0  0  0  0
  153.6768  132.2907  163.8151 F   0  0  0  0  0  0  0  0  0  0  0  0
  155.0316  131.9706  165.4917 F   0  0  0  0  0  0  0  0  0  0  0  0
  154.7099  136.2795  161.3936 C   0  0  0  0  0  0  0  0  0  0  0  0
  153.8920  135.8124  160.6024 O   0  0  0  0  0  0  0  0  0  0  0  0
  154.9680  137.5919  161.5498 N   0  0  0  0  0  0  0  0  0  0  0  0
  154.4001  138.7126  160.8817 C   0  0  0  0  0  0  0  0  0  0  0  0
  154.7616  139.9959  161.3477 C   0  0  0  0  0  0  0  0  0  0  0  0
  154.2249  141.1449  160.7315 C   0  0  0  0  0  0  0  0  0  0  0  0
  153.3254  140.9940  159.6522 C   0  0  0  0  0  0  0  0  0  0  0  0
  152.7369  142.0734  158.9804 N   0  0  0  0  0  0  0  0  0  0  0  0
  153.2730  143.3657  159.4003 C   0  0  0  0  0  0  0  0  0  0  0  0
  152.7363  144.4979  158.5071 C   0  0  0  0  0  0  0  0  0  0  0  0
  151.1998  144.4845  158.4650 C   0  0  0  0  0  0  0  0  0  0  0  0
  150.6933  143.0957  158.0441 C   0  0  0  0  0  0  0  0  0  0  0  0
  151.2782  142.0006  158.9525 C   0  0  0  0  0  0  0  0  0  0  0  0
  153.0007  139.7517  159.2348 N   0  3  0  0  0  0  0  0  0  0  0  0
  153.4917  138.6257  159.7970 C   0  0  0  0  0  0  0  0  0  0  0  0
  156.9836  134.7965  160.7754 H   0  0  0  0  0  0  0  0  0  0  0  0
  155.6384  133.6616  160.8898 H   0  0  0  0  0  0  0  0  0  0  0  0
  156.8975  133.6626  162.1175 H   0  0  0  0  0  0  0  0  0  0  0  0
  156.2244  135.9014  162.9003 H   0  0  0  0  0  0  0  0  0  0  0  0
  156.2068  133.5270  163.9651 H   0  0  0  0  0  0  0  0  0  0  0  0
  155.4761  134.6908  165.0624 H   0  0  0  0  0  0  0  0  0  0  0  0
  155.6840  137.8132  162.2266 H   0  0  0  0  0  0  0  0  0  0  0  0
  155.4480  140.1041  162.1749 H   0  0  0  0  0  0  0  0  0  0  0  0
  154.5019  142.1269  161.0868 H   0  0  0  0  0  0  0  0  0  0  0  0
  152.9996  143.5541  160.4395 H   0  0  0  0  0  0  0  0  0  0  0  0
  154.3626  143.3444  159.3549 H   0  0  0  0  0  0  0  0  0  0  0  0
  153.0936  145.4623  158.8695 H   0  0  0  0  0  0  0  0  0  0  0  0
  153.1292  144.3823  157.4959 H   0  0  0  0  0  0  0  0  0  0  0  0
  150.8026  144.7383  159.4485 H   0  0  0  0  0  0  0  0  0  0  0  0
  150.8338  145.2452  157.7745 H   0  0  0  0  0  0  0  0  0  0  0  0
  149.6038  143.0669  158.0771 H   0  0  0  0  0  0  0  0  0  0  0  0
  150.9774  142.9017  157.0090 H   0  0  0  0  0  0  0  0  0  0  0  0
  150.9661  141.0180  158.5958 H   0  0  0  0  0  0  0  0  0  0  0  0
  150.8868  142.1133  159.9644 H   0  0  0  0  0  0  0  0  0  0  0  0
  153.1265  137.7129  159.3530 H   0  0  0  0  0  0  0  0  0  0  0  0
  152.3484  139.6581  158.4557 H   0  0  0  0  0  0  0  0  0  0  0  0
  1  2  1  0  0  0  0
  1 24  1  0  0  0  0
  1 25  1  0  0  0  0
  1 26  1  0  0  0  0
  2  3  1  0  0  0  0
  2  9  1  0  0  0  0
  2 27  1  0  0  0  0
  3  4  1  0  0  0  0
  4  5  1  0  0  0  0
  4 28  1  0  0  0  0
  4 29  1  0  0  0  0
  5  6  1  0  0  0  0
  5  7  1  0  0  0  0
  5  8  1  0  0  0  0
  9 10  2  0  0  0  0
  9 11  1  0  0  0  0
 11 12  1  0  0  0  0
 11 30  1  0  0  0  0
 12 23  1  0  0  0  0
 12 13  2  0  0  0  0
 13 14  1  0  0  0  0
 13 31  1  0  0  0  0
 14 15  2  0  0  0  0
 14 32  1  0  0  0  0
 15 16  1  0  0  0  0
 15 22  1  0  0  0  0
 16 21  1  0  0  0  0
 16 17  1  0  0  0  0
 17 18  1  0  0  0  0
 17 33  1  0  0  0  0
 17 34  1  0  0  0  0
 18 19  1  0  0  0  0
 18 35  1  0  0  0  0
 18 36  1  0  0  0  0
 19 20  1  0  0  0  0
 19 37  1  0  0  0  0
 19 38  1  0  0  0  0
 20 21  1  0  0  0  0
 20 39  1  0  0  0  0
 20 40  1  0  0  0  0
 21 41  1  0  0  0  0
 21 42  1  0  0  0  0
 22 23  2  0  0  0  0
 22 44  1  0  0  0  0
 23 43  1  0  0  0  0
M  CHG  1  22   1
M  END
> <s_m_source_file>
AV-unprocessed.smi

> <i_m_source_file_index>
1627

> <i_lp_mmshare_version>
43012

> <i_f3d_flags>
0

> <s_epik_input>
RkMoRikoRilbQ0gyXU9bQ0BASF0oW0NIM10pQyg9TylbTkhdYzFbY0hdW2NIXWMobltjSF0xKU4yW0NIMl1bQ0gyXVtDSDJdW0NIMl1bQ0gyXTI=

> <s_epik_cmdline>
J2VwaWtfcHl0aG9uJywgJy1waCcsICc3LjAnLCAnLXRuJywgJzgnLCAnLW1hJywgJzIwMCcsICctbWV0YWxfYmluZGluZycsICctaW1hZScsICc8aW5maWxlLm1hZT4nLCAnLW9tYWUnLCAnPG91dGZpbGUubWFlPic=

> <r_lp_tautomer_probability>
0.999994

> <r_epik_Ionization_Penalty>
1.93197

> <r_epik_Ionization_Penalty_Charging>
1.93197

> <r_epik_Ionization_Penalty_Neutral>
3.16684e-06

> <r_epik_State_Penalty>
2.05557

> <r_epik_Charging_Adjusted_Penalty>
3.98754

> <i_epik_Tot_Q>
1

> <i_epik_Tot_abs_Q>
1

> <r_epik_Metal_State_Penalty>
2.08108

> <b_epik_Metal_Only>
0

> <s_lp_Force_Field>
OPLS_2005

> <r_lp_Energy>
33.3851

> <b_lp_Chiralities_Consistent>
1

> <s_lp_Variant>
AV-unprocessed.smi:1627-3

> <Gold.Version>
5.8.1

> <Gold.Id.Protein>
6NUR|6NUR_protein|mol2

> <Gold.PLP.Fitness>
44.4291

> <Gold.PLP.PLP>
-42.5684

> <Gold.PLP.part.hbond>
-1.0000

> <Gold.PLP.part.metal>
0.0000

> <Gold.PLP.part.buried>
-5.5841

> <Gold.PLP.part.nonpolar>
-36.6484

> <Gold.PLP.part.repulsive>
0.1057

> <Gold.PLP.ligand.clash>
0.0000

> <Gold.PLP.ligand.torsion>
0.6691

> <Gold.PLP.Chemscore.Hbond>
1.0000

> <Gold.PLP.Chemscore.CHOScore>
0.0000

> <Gold.PLP.Chemscore.Metal>
0.0000

> <Gold.Chemscore.Hbonds>
donor molecule, donor type, donor heavy atom, donor atom, acceptor molecule, acceptor atom, score
      P1  H  6896  6908       L1    10  1.00

> <Gold.PLP.Chemscore.Internal.Correction>
0.1988

> <Gold.Rescore>
     Score         DG    S(hbond)    S(metal)    S(lipo)     H(rot)  DE(clash)    DE(int)     intcor
     14.24     -16.32       0.99        0.00     105.89       1.90       0.04       2.04       ----

> <Gold.Chemscore.Fitness>
14.2417

> <Gold.Chemscore.DG>
-16.3200

> <Gold.Chemscore.ZeroCoef>
-5.4800

> <Gold.Chemscore.Hbond>
0.9930

> <Gold.Chemscore.Metal>
0.0000

> <Gold.Chemscore.Lipo>
105.8905

> <Gold.Chemscore.Internal_Hbond>
0.0000

> <Gold.Chemscore.DEClash>
0.0421

> <Gold.Chemscore.DEInternal>
2.0362

> <Gold.Chemscore.Rot>
1.9007

> <Gold.Chemscore.Internal.Correction>
   9.000000E+99

> <Gold.Chemscore.Hbonds>
donor molecule, donor type, donor heavy atom, donor atom, acceptor molecule, acceptor atom, score
      P1  H  6896  6908       L1    10  0.98

> <Gold.Chemscore.Hbond.Weighted>
-3.3165

> <Gold.Chemscore.Metal.Weighted>
-0.0000

> <Gold.Chemscore.Lipo.Weighted>
-12.3892

> <Gold.Chemscore.Internal_Hbond.Weighted>
0.0000

> <Gold.Chemscore.DEClash.Weighted>
0.0421

> <Gold.Chemscore.DEInternal.Weighted>
2.0362

> <Gold.Chemscore.Rot.Weighted>
4.8657

> <Gold.Chemscore.Internal.Correction.Weighted>
   9.000000E+99

> <Gold.Protein.RotatedTorsions>
[ 6907 6896 6895 6894 ] final  -79.43 input  -60.11 | X-H torsion
[ 7974 7965 7964 7962 ] final  117.37 input  175.53 | X-H torsion
[ 8008 7997 7996 7995 ] final  145.49 input   59.86 | X-H torsion
[ 10167 10162 10161 10158 ] final  150.51 input  -65.29 | X-H torsion
[ 10718 10713 10712 10709 ] final -113.95 input   66.30 | X-H torsion
[ 10763 10752 10751 10750 ] final   69.25 input  -60.55 | X-H torsion
[ 11005 11000 10999 10996 ] final  -49.73 input  -57.11 | X-H torsion

> <Gold.Protein.ActiveResidues>
 VAL166  LYS551  ARG553  GLY616  TRP617  ASP618  TYR619  PRO620  LYS621  CYS622 
 ASP623  PHE694  ASN695  SER759  ASP760  ASP761  ALA762  ILE779  LEU786  VAL792 
 PHE793  MET794  SER795  GLU796  ALA797  LYS798  CYS799  TRP800  GLU811  SER814 

> <Gold.Protein.RotatedAtoms>
  150.6950  134.4122  159.5166 H   0  0  0  0  0  0  0  0  0  0  0  0  # atno 6907 bound_to 6896
  152.1878  134.8695  160.0529 H   0  0  0  0  0  0  0  0  0  0  0  0  # atno 6908 bound_to 6896
  151.9662  133.3676  159.4091 H   0  0  0  0  0  0  0  0  0  0  0  0  # atno 6909 bound_to 6896
  145.1682  139.3116  143.4482 H   0  0  0  0  0  0  0  0  0  0  0  0  # atno 7974 bound_to 7965
  156.2882  140.2208  156.5223 H   0  0  0  0  0  0  0  0  0  0  0  0  # atno 8008 bound_to 7997
  154.7518  140.0480  157.0922 H   0  0  0  0  0  0  0  0  0  0  0  0  # atno 8009 bound_to 7997
  155.0100  140.3112  155.4836 H   0  0  0  0  0  0  0  0  0  0  0  0  # atno 8010 bound_to 7997
  139.4849  144.5517  151.7390 H   0  0  0  0  0  0  0  0  0  0  0  0  # atno 10167 bound_to 10162
  156.0799  130.6000  150.8710 H   0  0  0  0  0  0  0  0  0  0  0  0  # atno 10718 bound_to 10713
  153.0277  135.5217  154.7259 H   0  0  0  0  0  0  0  0  0  0  0  0  # atno 10763 bound_to 10752
  154.6301  135.2899  155.0229 H   0  0  0  0  0  0  0  0  0  0  0  0  # atno 10764 bound_to 10752
  154.1184  135.6611  153.4951 H   0  0  0  0  0  0  0  0  0  0  0  0  # atno 10765 bound_to 10752
  141.0776  133.6662  156.3627 H   0  0  0  0  0  0  0  0  0  0  0  0  # atno 11005 bound_to 11000
  146.3472  140.1817  142.8589 LP  0  0  0  0  0  0  0  0  0  0  0  0  # atno 17320 bound_to 7965
  145.0260  140.8833  143.5138 LP  0  0  0  0  0  0  0  0  0  0  0  0  # atno 17321 bound_to 7965
  140.5071  144.1081  150.5985 LP  0  0  0  0  0  0  0  0  0  0  0  0  # atno 17342 bound_to 10162
  140.3994  143.2711  151.9966 LP  0  0  0  0  0  0  0  0  0  0  0  0  # atno 17343 bound_to 10162
  157.5911  131.0944  150.9117 LP  0  0  0  0  0  0  0  0  0  0  0  0  # atno 17370 bound_to 10713
  156.9293  130.5344  149.5279 LP  0  0  0  0  0  0  0  0  0  0  0  0  # atno 17371 bound_to 10713
  140.5540  134.5999  157.5415 LP  0  0  0  0  0  0  0  0  0  0  0  0  # atno 17394 bound_to 11000
  139.9588  134.7488  156.0282 LP  0  0  0  0  0  0  0  0  0  0  0  0  # atno 17395 bound_to 11000

$$$$
