AV-unprocessed.smi:264|AV-procd|sdf|2008|dock9
  -GOLD-   2262021203D 1   1.00000     0.00000
 Structure written by MMmdl.
 52 56  0  0  0  0  0  0  0  0  1 V2000
  152.6611  138.7963  154.6883 C   0  0  0  0  0  0  0  0  0  0  0  0
  151.7069  139.0640  155.8635 C   0  0  1  0  0  0  0  0  0  0  0  0
  152.3725  139.7747  156.8974 O   0  0  0  0  0  0  0  0  0  0  0  0
  151.3706  140.3160  157.7387 C   0  0  0  0  0  0  0  0  0  0  0  0
  150.3555  140.8650  156.7437 C   0  0  0  0  0  0  0  0  0  0  0  0
  150.4289  139.8916  155.5628 C   0  0  1  0  0  0  0  0  0  0  0  0
  150.5627  140.6519  154.3731 O   0  0  0  0  0  0  0  0  0  0  0  0
  149.1519  139.0236  155.4428 C   0  0  0  0  0  0  0  0  0  0  0  0
  148.7346  138.4243  156.7019 N   0  0  0  0  0  0  0  0  0  0  0  0
  148.0412  139.0412  157.7188 C   0  0  0  0  0  0  0  0  0  0  0  0
  147.7754  138.2870  158.7496 N   0  0  0  0  0  0  0  0  0  0  0  0
  148.3407  137.0589  158.4277 C   0  0  0  0  0  0  0  0  0  0  0  0
  148.4196  135.8002  159.0886 C   0  0  0  0  0  0  0  0  0  0  0  0
  147.8915  135.5847  160.3202 N   0  0  0  0  0  0  0  0  0  0  0  0
  148.4935  136.3654  161.3936 C   0  0  0  0  0  0  0  0  0  0  0  0
  147.5987  136.3152  162.6396 C   0  0  0  0  0  0  0  0  0  0  0  0
  147.3481  134.9607  163.0124 O   0  0  0  0  0  0  0  0  0  0  0  0
  146.7325  134.1695  161.9911 C   0  0  1  0  0  0  0  0  0  0  0  0
  146.6011  132.7451  162.5214 C   0  0  0  0  0  0  0  0  0  0  0  0
  145.2827  132.2718  161.9286 C   0  0  0  0  0  0  0  0  0  0  0  0
  144.4678  133.4222  162.0513 O   0  0  0  0  0  0  0  0  0  0  0  0
  145.2583  134.5612  161.7314 C   0  0  0  0  0  0  0  0  0  0  0  0
  147.6041  134.2081  160.7136 C   0  0  0  0  0  0  0  0  0  0  0  0
  149.0543  134.7907  158.4342 N   0  0  0  0  0  0  0  0  0  0  0  0
  149.5864  134.9972  157.2263 C   0  0  0  0  0  0  0  0  0  0  0  0
  149.5948  136.1154  156.4987 N   0  0  0  0  0  0  0  0  0  0  0  0
  148.9488  137.1293  157.1422 C   0  0  0  0  0  0  0  0  0  0  0  0
  152.1523  138.2708  153.8799 H   0  0  0  0  0  0  0  0  0  0  0  0
  153.4998  138.1775  155.0073 H   0  0  0  0  0  0  0  0  0  0  0  0
  153.0711  139.7226  154.2853 H   0  0  0  0  0  0  0  0  0  0  0  0
  151.4210  138.1065  156.2997 H   0  0  0  0  0  0  0  0  0  0  0  0
  150.9330  139.5248  158.3497 H   0  0  0  0  0  0  0  0  0  0  0  0
  151.7709  141.0840  158.4009 H   0  0  0  0  0  0  0  0  0  0  0  0
  149.3584  140.9490  157.1776 H   0  0  0  0  0  0  0  0  0  0  0  0
  150.6653  141.8682  156.4454 H   0  0  0  0  0  0  0  0  0  0  0  0
  149.8392  141.2573  154.3208 H   0  0  0  0  0  0  0  0  0  0  0  0
  148.3263  139.6251  155.0599 H   0  0  0  0  0  0  0  0  0  0  0  0
  149.3033  138.2223  154.7180 H   0  0  0  0  0  0  0  0  0  0  0  0
  147.7284  140.0741  157.6680 H   0  0  0  0  0  0  0  0  0  0  0  0
  149.4763  135.9516  161.6236 H   0  0  0  0  0  0  0  0  0  0  0  0
  148.6487  137.4028  161.0998 H   0  0  0  0  0  0  0  0  0  0  0  0
  148.0895  136.8215  163.4707 H   0  0  0  0  0  0  0  0  0  0  0  0
  146.6647  136.8476  162.4597 H   0  0  0  0  0  0  0  0  0  0  0  0
  147.4408  132.0997  162.2623 H   0  0  0  0  0  0  0  0  0  0  0  0
  146.5161  132.7549  163.6093 H   0  0  0  0  0  0  0  0  0  0  0  0
  145.3948  132.0059  160.8763 H   0  0  0  0  0  0  0  0  0  0  0  0
  144.8606  131.4194  162.4610 H   0  0  0  0  0  0  0  0  0  0  0  0
  144.9254  135.3999  162.3421 H   0  0  0  0  0  0  0  0  0  0  0  0
  145.0946  134.8281  160.6867 H   0  0  0  0  0  0  0  0  0  0  0  0
  147.1027  133.6784  159.9022 H   0  0  0  0  0  0  0  0  0  0  0  0
  148.5499  133.6949  160.8951 H   0  0  0  0  0  0  0  0  0  0  0  0
  150.0754  134.1445  156.7790 H   0  0  0  0  0  0  0  0  0  0  0  0
  1  2  1  0  0  0  0
  1 28  1  0  0  0  0
  1 29  1  0  0  0  0
  1 30  1  0  0  0  0
  2  6  1  0  0  0  0
  2  3  1  0  0  0  0
  2 31  1  0  0  0  0
  3  4  1  0  0  0  0
  4  5  1  0  0  0  0
  4 32  1  0  0  0  0
  4 33  1  0  0  0  0
  5  6  1  0  0  0  0
  5 34  1  0  0  0  0
  5 35  1  0  0  0  0
  6  7  1  0  0  0  0
  6  8  1  0  0  0  0
  7 36  1  0  0  0  0
  8  9  1  0  0  0  0
  8 37  1  0  0  0  0
  8 38  1  0  0  0  0
  9 27  1  0  0  0  0
  9 10  1  0  0  0  0
 10 11  2  0  0  0  0
 10 39  1  0  0  0  0
 11 12  1  0  0  0  0
 12 27  2  0  0  0  0
 12 13  1  0  0  0  0
 13 14  1  0  0  0  0
 13 24  2  0  0  0  0
 14 23  1  0  0  0  0
 14 15  1  0  0  0  0
 15 16  1  0  0  0  0
 15 40  1  0  0  0  0
 15 41  1  0  0  0  0
 16 17  1  0  0  0  0
 16 42  1  0  0  0  0
 16 43  1  0  0  0  0
 17 18  1  0  0  0  0
 18 22  1  0  0  0  0
 18 19  1  0  0  0  0
 18 23  1  0  0  0  0
 19 20  1  0  0  0  0
 19 44  1  0  0  0  0
 19 45  1  0  0  0  0
 20 21  1  0  0  0  0
 20 46  1  0  0  0  0
 20 47  1  0  0  0  0
 21 22  1  0  0  0  0
 22 48  1  0  0  0  0
 22 49  1  0  0  0  0
 23 50  1  0  0  0  0
 23 51  1  0  0  0  0
 24 25  1  0  0  0  0
 25 26  2  0  0  0  0
 25 52  1  0  0  0  0
 26 27  1  0  0  0  0
M  END
> <s_m_source_file>
AV-unprocessed.smi

> <i_m_source_file_index>
264

> <i_lp_mmshare_version>
43012

> <i_f3d_flags>
0

> <s_epik_input>
W0NIMl0xW0NIMl1PW0NAQEhdKFtDSDNdKVtDQEBdMShbT0hdKVtDSDJdbihbY0hdbjIpYyhjMjMpbltjSF1uYzNOKFtDSDJdNClbQ0gyXVtDSDJdT1tDQF00NVtDSDJdW0NIMl1PW0NIMl01

> <s_epik_cmdline>
J2VwaWtfcHl0aG9uJywgJy1waCcsICc3LjAnLCAnLXRuJywgJzgnLCAnLW1hJywgJzIwMCcsICctbWV0YWxfYmluZGluZycsICctaW1hZScsICc8aW5maWxlLm1hZT4nLCAnLW9tYWUnLCAnPG91dGZpbGUubWFlPic=

> <r_lp_tautomer_probability>
1

> <r_epik_Ionization_Penalty>
0.00539389

> <r_epik_Ionization_Penalty_Charging>
0

> <r_epik_Ionization_Penalty_Neutral>
0.00539389

> <r_epik_State_Penalty>
0.00375441

> <r_epik_Charging_Adjusted_Penalty>
0.00375441

> <i_epik_Tot_Q>
0

> <i_epik_Tot_abs_Q>
0

> <r_epik_Metal_State_Penalty>
-0

> <b_epik_Metal_Only>
0

> <s_lp_Force_Field>
OPLS_2005

> <r_lp_Energy>
54.8303

> <b_lp_Chiralities_Consistent>
1

> <s_lp_Variant>
AV-unprocessed.smi:264-2

> <Gold.Version>
5.8.1

> <Gold.Id.Protein>
6NUR|6NUR_protein|mol2

> <Gold.PLP.Fitness>
39.2739

> <Gold.PLP.PLP>
-32.5312

> <Gold.PLP.part.hbond>
-3.1697

> <Gold.PLP.part.metal>
0.0000

> <Gold.PLP.part.buried>
-4.1814

> <Gold.PLP.part.nonpolar>
-25.5289

> <Gold.PLP.part.repulsive>
0.0933

> <Gold.PLP.ligand.clash>
0.0000

> <Gold.PLP.ligand.torsion>
0.6868

> <Gold.PLP.Chemscore.Hbond>
2.6080

> <Gold.PLP.Chemscore.CHOScore>
0.0000

> <Gold.PLP.Chemscore.Metal>
0.0000

> <Gold.Chemscore.Hbonds>
donor molecule, donor type, donor heavy atom, donor atom, acceptor molecule, acceptor atom, score
      P1  H  6896  6908       L1    24  0.95
      P1  H  6934  6947       L1    11  0.05
      P1  H  7989  7998       L1     7  0.59
      P1  H  7997  8009       L1     3  0.96

> <Gold.PLP.Chemscore.Internal.Correction>
0.2924

> <Gold.Rescore>
     Score         DG    S(hbond)    S(metal)    S(lipo)     H(rot)  DE(clash)    DE(int)     intcor
     13.69     -15.38       1.46        0.00      89.07       2.11       1.05       0.63       ----

> <Gold.Chemscore.Fitness>
13.6922

> <Gold.Chemscore.DG>
-15.3772

> <Gold.Chemscore.ZeroCoef>
-5.4800

> <Gold.Chemscore.Hbond>
1.4575

> <Gold.Chemscore.Metal>
0.0000

> <Gold.Chemscore.Lipo>
89.0702

> <Gold.Chemscore.Internal_Hbond>
0.0000

> <Gold.Chemscore.DEClash>
1.0512

> <Gold.Chemscore.DEInternal>
0.6337

> <Gold.Chemscore.Rot>
2.1063

> <Gold.Chemscore.Internal.Correction>
   9.000000E+99

> <Gold.Chemscore.Hbonds>
donor molecule, donor type, donor heavy atom, donor atom, acceptor molecule, acceptor atom, score
      P1  H  6896  6908       L1    24  0.18
      P1  H  6934  6947       L1    11  0.06
      P1  H  7989  7998       L1     7  0.53
      P1  H  7997  8009       L1     3  0.86

> <Gold.Chemscore.Hbond.Weighted>
-4.8681

> <Gold.Chemscore.Metal.Weighted>
-0.0000

> <Gold.Chemscore.Lipo.Weighted>
-10.4212

> <Gold.Chemscore.Internal_Hbond.Weighted>
0.0000

> <Gold.Chemscore.DEClash.Weighted>
1.0512

> <Gold.Chemscore.DEInternal.Weighted>
0.6337

> <Gold.Chemscore.Rot.Weighted>
5.3921

> <Gold.Chemscore.Internal.Correction.Weighted>
   9.000000E+99

> <Gold.Protein.RotatedTorsions>
[ 6907 6896 6895 6894 ] final  140.83 input  -60.11 | X-H torsion
[ 7974 7965 7964 7962 ] final -159.38 input  175.53 | X-H torsion
[ 8008 7997 7996 7995 ] final  177.94 input   59.86 | X-H torsion
[ 10167 10162 10161 10158 ] final   15.28 input  -65.29 | X-H torsion
[ 10718 10713 10712 10709 ] final  109.07 input   66.30 | X-H torsion
[ 10763 10752 10751 10750 ] final  -43.42 input  -60.55 | X-H torsion
[ 11005 11000 10999 10996 ] final   44.74 input  -57.11 | X-H torsion

> <Gold.Protein.ActiveResidues>
 VAL166  LYS551  ARG553  GLY616  TRP617  ASP618  TYR619  PRO620  LYS621  CYS622 
 ASP623  PHE694  ASN695  SER759  ASP760  ASP761  ALA762  ILE779  LEU786  VAL792 
 PHE793  MET794  SER795  GLU796  ALA797  LYS798  CYS799  TRP800  GLU811  SER814 

> <Gold.Protein.RotatedAtoms>
  152.2383  133.5114  159.5254 H   0  0  0  0  0  0  0  0  0  0  0  0  # atno 6907 bound_to 6896
  150.7057  134.1124  159.4014 H   0  0  0  0  0  0  0  0  0  0  0  0  # atno 6908 bound_to 6896
  151.9045  135.0364  160.0560 H   0  0  0  0  0  0  0  0  0  0  0  0  # atno 6909 bound_to 6896
  144.7467  140.3693  143.6079 H   0  0  0  0  0  0  0  0  0  0  0  0  # atno 7974 bound_to 7965
  156.0602  140.1346  156.9950 H   0  0  0  0  0  0  0  0  0  0  0  0  # atno 8008 bound_to 7997
  154.4478  140.0993  156.6576 H   0  0  0  0  0  0  0  0  0  0  0  0  # atno 8009 bound_to 7997
  155.5390  140.3460  155.4445 H   0  0  0  0  0  0  0  0  0  0  0  0  # atno 8010 bound_to 7997
  140.5878  143.8855  150.6846 H   0  0  0  0  0  0  0  0  0  0  0  0  # atno 10167 bound_to 10162
  157.6558  131.0906  150.6399 H   0  0  0  0  0  0  0  0  0  0  0  0  # atno 10718 bound_to 10713
  153.9953  135.6700  153.4756 H   0  0  0  0  0  0  0  0  0  0  0  0  # atno 10763 bound_to 10752
  153.0686  135.4987  154.8252 H   0  0  0  0  0  0  0  0  0  0  0  0  # atno 10764 bound_to 10752
  154.7085  135.3092  154.9197 H   0  0  0  0  0  0  0  0  0  0  0  0  # atno 10765 bound_to 10752
  140.1524  134.4445  155.8373 H   0  0  0  0  0  0  0  0  0  0  0  0  # atno 11005 bound_to 11000
  145.7095  139.1681  143.2547 LP  0  0  0  0  0  0  0  0  0  0  0  0  # atno 17320 bound_to 7965
  146.1357  140.7125  142.9391 LP  0  0  0  0  0  0  0  0  0  0  0  0  # atno 17321 bound_to 7965
  140.2370  143.3692  152.1518 LP  0  0  0  0  0  0  0  0  0  0  0  0  # atno 17342 bound_to 10162
  139.5208  144.7038  151.5415 LP  0  0  0  0  0  0  0  0  0  0  0  0  # atno 17343 bound_to 10162
  156.6706  130.4538  149.5658 LP  0  0  0  0  0  0  0  0  0  0  0  0  # atno 17370 bound_to 10713
  156.2000  130.6614  151.1157 LP  0  0  0  0  0  0  0  0  0  0  0  0  # atno 17371 bound_to 10713
  141.2200  133.6878  156.7446 LP  0  0  0  0  0  0  0  0  0  0  0  0  # atno 17394 bound_to 11000
  140.2588  134.8483  157.3739 LP  0  0  0  0  0  0  0  0  0  0  0  0  # atno 17395 bound_to 11000

$$$$
