AV-unprocessed.smi:2573|AV-procd|sdf|10112|dock6
  -GOLD-   2272014133D 1   1.00000     0.00000
 Structure written by MMmdl.
 38 39  0  0  0  0  0  0  0  0  1 V2000
  150.1131  136.8744  156.8272 C   0  0  0  0  0  0  0  0  0  0  0  0
  151.3277  136.8160  155.8907 C   0  0  0  0  0  0  0  0  0  0  0  0
  151.1738  137.6632  154.6141 C   0  0  0  0  0  0  0  0  0  0  0  0
  150.7211  139.0245  154.8986 N   0  0  0  0  0  0  0  0  0  0  0  0
  151.3767  139.9641  155.6208 C   0  0  0  0  0  0  0  0  0  0  0  0
  152.4761  139.8280  156.1572 O   0  0  0  0  0  0  0  0  0  0  0  0
  150.6155  141.0831  155.6455 N   0  0  0  0  0  0  0  0  0  0  0  0
  150.9493  142.3471  156.2999 C   0  0  0  0  0  0  0  0  0  0  0  0
  151.1282  142.1677  157.8216 C   0  0  2  0  0  0  0  0  0  0  0  0
  150.2074  141.1865  158.2567 O   0  0  0  0  0  0  0  0  0  0  0  0
  150.8419  143.4741  158.5916 C   0  0  0  0  0  0  0  0  0  0  0  0
  152.0966  144.2282  159.0699 C   0  0  0  0  0  0  0  0  0  0  0  0
  152.8681  143.3893  159.7608 F   0  0  0  0  0  0  0  0  0  0  0  0
  152.8026  144.6984  158.0420 F   0  0  0  0  0  0  0  0  0  0  0  0
  151.7529  145.2402  159.8666 F   0  0  0  0  0  0  0  0  0  0  0  0
  149.4451  140.8586  154.9057 C   0  0  0  0  0  0  0  0  0  0  0  0
  148.3552  141.6989  154.6179 C   0  0  0  0  0  0  0  0  0  0  0  0
  147.3132  141.1586  153.8281 C   0  0  0  0  0  0  0  0  0  0  0  0
  147.3792  139.8231  153.3520 C   0  0  0  0  0  0  0  0  0  0  0  0
  148.4894  139.0004  153.6538 C   0  0  0  0  0  0  0  0  0  0  0  0
  149.5105  139.5622  154.4396 C   0  0  0  0  0  0  0  0  0  0  0  0
  150.3048  136.3172  157.7443 H   0  0  0  0  0  0  0  0  0  0  0  0
  149.2275  136.4427  156.3610 H   0  0  0  0  0  0  0  0  0  0  0  0
  149.8800  137.9028  157.1048 H   0  0  0  0  0  0  0  0  0  0  0  0
  152.2060  137.1630  156.4353 H   0  0  0  0  0  0  0  0  0  0  0  0
  151.5298  135.7778  155.6253 H   0  0  0  0  0  0  0  0  0  0  0  0
  152.1182  137.6857  154.0680 H   0  0  0  0  0  0  0  0  0  0  0  0
  150.4558  137.1890  153.9442 H   0  0  0  0  0  0  0  0  0  0  0  0
  151.8764  142.7097  155.8549 H   0  0  0  0  0  0  0  0  0  0  0  0
  150.2032  143.1123  156.0771 H   0  0  0  0  0  0  0  0  0  0  0  0
  152.1432  141.8346  158.0417 H   0  0  0  0  0  0  0  0  0  0  0  0
  150.3775  140.3831  157.7885 H   0  0  0  0  0  0  0  0  0  0  0  0
  150.2818  144.1475  157.9417 H   0  0  0  0  0  0  0  0  0  0  0  0
  150.1887  143.2679  159.4408 H   0  0  0  0  0  0  0  0  0  0  0  0
  148.3106  142.7150  154.9807 H   0  0  0  0  0  0  0  0  0  0  0  0
  146.4570  141.7700  153.5841 H   0  0  0  0  0  0  0  0  0  0  0  0
  146.5726  139.4299  152.7508 H   0  0  0  0  0  0  0  0  0  0  0  0
  148.5466  137.9840  153.2934 H   0  0  0  0  0  0  0  0  0  0  0  0
  1  2  1  0  0  0  0
  1 22  1  0  0  0  0
  1 23  1  0  0  0  0
  1 24  1  0  0  0  0
  2  3  1  0  0  0  0
  2 25  1  0  0  0  0
  2 26  1  0  0  0  0
  3  4  1  0  0  0  0
  3 27  1  0  0  0  0
  3 28  1  0  0  0  0
  4 21  1  0  0  0  0
  4  5  1  0  0  0  0
  5  6  2  0  0  0  0
  5  7  1  0  0  0  0
  7  8  1  0  0  0  0
  7 16  1  0  0  0  0
  8  9  1  0  0  0  0
  8 29  1  0  0  0  0
  8 30  1  0  0  0  0
  9 10  1  0  0  0  0
  9 11  1  0  0  0  0
  9 31  1  0  0  0  0
 10 32  1  0  0  0  0
 11 12  1  0  0  0  0
 11 33  1  0  0  0  0
 11 34  1  0  0  0  0
 12 13  1  0  0  0  0
 12 14  1  0  0  0  0
 12 15  1  0  0  0  0
 16 21  2  0  0  0  0
 16 17  1  0  0  0  0
 17 18  2  0  0  0  0
 17 35  1  0  0  0  0
 18 19  1  0  0  0  0
 18 36  1  0  0  0  0
 19 20  2  0  0  0  0
 19 37  1  0  0  0  0
 20 21  1  0  0  0  0
 20 38  1  0  0  0  0
M  END
> <s_m_source_file>
AV-unprocessed.smi

> <i_m_source_file_index>
2573

> <i_lp_mmshare_version>
43012

> <i_f3d_flags>
0

> <s_epik_input>
W2NIXTFbY0hdW2NIXVtjSF1jKGMxMiluKFtDSDJdW0NIMl1bQ0gzXSljKD1PKW4yW0NIMl1bQ0BIXShbT0hdKVtDSDJdQyhGKShGKUY=

> <s_epik_cmdline>
J2VwaWtfcHl0aG9uJywgJy1waCcsICc3LjAnLCAnLXRuJywgJzgnLCAnLW1hJywgJzIwMCcsICctbWV0YWxfYmluZGluZycsICctaW1hZScsICc8aW5maWxlLm1hZT4nLCAnLW9tYWUnLCAnPG91dGZpbGUubWFlPic=

> <r_lp_tautomer_probability>
1

> <r_epik_Ionization_Penalty>
2.4024e-06

> <r_epik_Ionization_Penalty_Charging>
3.10219e-09

> <r_epik_Ionization_Penalty_Neutral>
2.3993e-06

> <r_epik_State_Penalty>
-0

> <r_epik_Charging_Adjusted_Penalty>
3.10219e-09

> <i_epik_Tot_Q>
0

> <i_epik_Tot_abs_Q>
0

> <r_epik_Metal_State_Penalty>
-0

> <b_epik_Metal_Only>
0

> <s_lp_Force_Field>
OPLS_2005

> <r_lp_Energy>
43.3878

> <b_lp_Chiralities_Consistent>
1

> <s_lp_Variant>
AV-unprocessed.smi:2573-1

> <Gold.Version>
5.8.1

> <Gold.Id.Protein>
6NUR|6NUR_protein|mol2

> <Gold.PLP.Fitness>
52.7008

> <Gold.PLP.PLP>
-51.5338

> <Gold.PLP.part.hbond>
-1.0000

> <Gold.PLP.part.metal>
0.0000

> <Gold.PLP.part.buried>
-0.3556

> <Gold.PLP.part.nonpolar>
-48.2130

> <Gold.PLP.part.repulsive>
0.0000

> <Gold.PLP.ligand.clash>
0.0000

> <Gold.PLP.ligand.torsion>
0.9638

> <Gold.PLP.Chemscore.Hbond>
1.0000

> <Gold.PLP.Chemscore.CHOScore>
0.0000

> <Gold.PLP.Chemscore.Metal>
0.0000

> <Gold.Chemscore.Hbonds>
donor molecule, donor type, donor heavy atom, donor atom, acceptor molecule, acceptor atom, score
      P1  H  7997  8010       L1     6  1.00

> <Gold.PLP.Chemscore.Internal.Correction>
0.0946

> <Gold.Rescore>
     Score         DG    S(hbond)    S(metal)    S(lipo)     H(rot)  DE(clash)    DE(int)     intcor
     12.46     -13.40       1.00        0.00      93.47       2.48       0.12       0.83       ----

> <Gold.Chemscore.Fitness>
12.4589

> <Gold.Chemscore.DG>
-13.4042

> <Gold.Chemscore.ZeroCoef>
-5.4800

> <Gold.Chemscore.Hbond>
1.0000

> <Gold.Chemscore.Metal>
0.0000

> <Gold.Chemscore.Lipo>
93.4705

> <Gold.Chemscore.Internal_Hbond>
0.0000

> <Gold.Chemscore.DEClash>
0.1155

> <Gold.Chemscore.DEInternal>
0.8298

> <Gold.Chemscore.Rot>
2.4812

> <Gold.Chemscore.Internal.Correction>
   9.000000E+99

> <Gold.Chemscore.Hbonds>
donor molecule, donor type, donor heavy atom, donor atom, acceptor molecule, acceptor atom, score
      P1  H  7997  8010       L1     6  1.00

> <Gold.Chemscore.Hbond.Weighted>
-3.3399

> <Gold.Chemscore.Metal.Weighted>
-0.0000

> <Gold.Chemscore.Lipo.Weighted>
-10.9361

> <Gold.Chemscore.Internal_Hbond.Weighted>
0.0000

> <Gold.Chemscore.DEClash.Weighted>
0.1155

> <Gold.Chemscore.DEInternal.Weighted>
0.8298

> <Gold.Chemscore.Rot.Weighted>
6.3518

> <Gold.Chemscore.Internal.Correction.Weighted>
   9.000000E+99

> <Gold.Protein.RotatedTorsions>
[ 6907 6896 6895 6894 ] final  136.82 input  -60.11 | X-H torsion
[ 7974 7965 7964 7962 ] final    8.88 input  175.53 | X-H torsion
[ 8008 7997 7996 7995 ] final   76.18 input   59.86 | X-H torsion
[ 10167 10162 10161 10158 ] final  -14.78 input  -65.29 | X-H torsion
[ 10718 10713 10712 10709 ] final  155.99 input   66.30 | X-H torsion
[ 10763 10752 10751 10750 ] final  -93.13 input  -60.55 | X-H torsion
[ 11005 11000 10999 10996 ] final   22.39 input  -57.11 | X-H torsion

> <Gold.Protein.ActiveResidues>
 VAL166  LYS551  ARG553  GLY616  TRP617  ASP618  TYR619  PRO620  LYS621  CYS622 
 ASP623  PHE694  ASN695  SER759  ASP760  ASP761  ALA762  ILE779  LEU786  VAL792 
 PHE793  MET794  SER795  GLU796  ALA797  LYS798  CYS799  TRP800  GLU811  SER814 

> <Gold.Protein.RotatedAtoms>
  152.2850  133.5506  159.5521 H   0  0  0  0  0  0  0  0  0  0  0  0  # atno 6907 bound_to 6896
  150.7211  134.0510  159.3807 H   0  0  0  0  0  0  0  0  0  0  0  0  # atno 6908 bound_to 6896
  151.8418  135.0587  160.0500 H   0  0  0  0  0  0  0  0  0  0  0  0  # atno 6909 bound_to 6896
  146.2411  139.9867  142.8430 H   0  0  0  0  0  0  0  0  0  0  0  0  # atno 7974 bound_to 7965
  155.8237  140.3469  155.5529 H   0  0  0  0  0  0  0  0  0  0  0  0  # atno 8008 bound_to 7997
  155.8315  140.0928  157.1809 H   0  0  0  0  0  0  0  0  0  0  0  0  # atno 8009 bound_to 7997
  154.4004  140.1411  156.3607 H   0  0  0  0  0  0  0  0  0  0  0  0  # atno 8010 bound_to 7997
  140.7207  143.5286  150.9547 H   0  0  0  0  0  0  0  0  0  0  0  0  # atno 10167 bound_to 10162
  157.2110  131.0697  151.1969 H   0  0  0  0  0  0  0  0  0  0  0  0  # atno 10718 bound_to 10713
  154.6929  135.5206  153.8417 H   0  0  0  0  0  0  0  0  0  0  0  0  # atno 10763 bound_to 10752
  153.0645  135.6580  154.0395 H   0  0  0  0  0  0  0  0  0  0  0  0  # atno 10764 bound_to 10752
  154.0266  135.2989  155.3354 H   0  0  0  0  0  0  0  0  0  0  0  0  # atno 10765 bound_to 10752
  140.3811  134.1920  155.7663 H   0  0  0  0  0  0  0  0  0  0  0  0  # atno 11005 bound_to 11000
  145.1541  140.9638  143.4415 LP  0  0  0  0  0  0  0  0  0  0  0  0  # atno 17320 bound_to 7965
  145.0177  139.3452  143.6088 LP  0  0  0  0  0  0  0  0  0  0  0  0  # atno 17321 bound_to 7965
  139.9005  143.6841  152.3132 LP  0  0  0  0  0  0  0  0  0  0  0  0  # atno 17342 bound_to 10162
  139.7189  144.7606  151.0987 LP  0  0  0  0  0  0  0  0  0  0  0  0  # atno 17343 bound_to 10162
  157.3672  130.7162  149.6540 LP  0  0  0  0  0  0  0  0  0  0  0  0  # atno 17370 bound_to 10713
  155.9690  130.4209  150.4444 LP  0  0  0  0  0  0  0  0  0  0  0  0  # atno 17371 bound_to 10713
  141.1923  133.8176  157.0844 LP  0  0  0  0  0  0  0  0  0  0  0  0  # atno 17394 bound_to 11000
  140.0478  134.9821  157.1081 LP  0  0  0  0  0  0  0  0  0  0  0  0  # atno 17395 bound_to 11000

$$$$
