AV-unprocessed.smi:3354|AV-procd|sdf|12955|dock3
  -GOLD-   2272019393D 1   1.00000     0.00000
 Structure written by MMmdl.
 38 40  0  0  0  0  0  0  0  0  1 V2000
  149.4279  142.2088  158.0236 C   0  0  0  0  0  0  0  0  0  0  0  0
  150.3895  141.3184  157.2670 C   0  0  2  0  0  0  0  0  0  0  0  0
  151.1741  141.8724  156.1014 C   0  0  0  0  0  0  0  0  0  0  0  0
  150.0771  140.8534  155.8609 C   0  0  1  0  0  0  0  0  0  0  0  0
  150.4012  139.5044  155.5002 N   0  0  0  0  0  0  0  0  0  0  0  0
  149.4329  138.4193  155.5805 C   0  0  0  0  0  0  0  0  0  0  0  0
  150.2592  137.1217  155.4934 C   0  0  1  0  0  0  0  0  0  0  0  0
  149.6664  136.1526  154.5755 N   0  0  0  0  0  0  0  0  0  0  0  0
  149.3688  134.8831  154.8860 C   0  0  0  0  0  0  0  0  0  0  0  0
  149.5462  134.4017  156.0047 O   0  0  0  0  0  0  0  0  0  0  0  0
  148.8485  134.2360  153.8288 N   0  0  0  0  0  0  0  0  0  0  0  0
  148.4334  132.8799  153.7224 C   0  0  0  0  0  0  0  0  0  0  0  0
  149.0622  131.7911  154.3752 C   0  0  0  0  0  0  0  0  0  0  0  0
  148.5583  130.4922  154.1694 C   0  0  0  0  0  0  0  0  0  0  0  0
  147.4504  130.3268  153.3160 C   0  0  0  0  0  0  0  0  0  0  0  0
  146.8477  131.3527  152.6795 N   0  0  0  0  0  0  0  0  0  0  0  0
  147.3363  132.5950  152.8813 C   0  0  0  0  0  0  0  0  0  0  0  0
  151.6555  137.5592  155.0323 C   0  0  0  0  0  0  0  0  0  0  0  0
  151.6343  139.0661  155.2228 C   0  0  0  0  0  0  0  0  0  0  0  0
  152.6469  139.7599  155.1375 O   0  0  0  0  0  0  0  0  0  0  0  0
  148.9241  142.8997  157.3470 H   0  0  0  0  0  0  0  0  0  0  0  0
  149.9651  142.7871  158.7752 H   0  0  0  0  0  0  0  0  0  0  0  0
  148.6736  141.6019  158.5244 H   0  0  0  0  0  0  0  0  0  0  0  0
  150.9186  140.6096  157.9017 H   0  0  0  0  0  0  0  0  0  0  0  0
  150.9728  142.8980  155.7986 H   0  0  0  0  0  0  0  0  0  0  0  0
  152.2160  141.5694  156.0248 H   0  0  0  0  0  0  0  0  0  0  0  0
  149.1683  141.2518  155.4117 H   0  0  0  0  0  0  0  0  0  0  0  0
  148.8629  138.4601  156.5097 H   0  0  0  0  0  0  0  0  0  0  0  0
  148.7329  138.5110  154.7481 H   0  0  0  0  0  0  0  0  0  0  0  0
  150.3467  136.6799  156.4883 H   0  0  0  0  0  0  0  0  0  0  0  0
  149.4808  136.4696  153.6351 H   0  0  0  0  0  0  0  0  0  0  0  0
  148.7050  134.7933  152.9996 H   0  0  0  0  0  0  0  0  0  0  0  0
  149.9214  131.9170  155.0145 H   0  0  0  0  0  0  0  0  0  0  0  0
  149.0146  129.6408  154.6523 H   0  0  0  0  0  0  0  0  0  0  0  0
  147.0409  129.3437  153.1360 H   0  0  0  0  0  0  0  0  0  0  0  0
  146.8309  133.3903  152.3527 H   0  0  0  0  0  0  0  0  0  0  0  0
  152.4463  137.0955  155.6232 H   0  0  0  0  0  0  0  0  0  0  0  0
  151.8338  137.3384  153.9789 H   0  0  0  0  0  0  0  0  0  0  0  0
  1  2  1  0  0  0  0
  1 21  1  0  0  0  0
  1 22  1  0  0  0  0
  1 23  1  0  0  0  0
  2  4  1  0  0  0  0
  2  3  1  0  0  0  0
  2 24  1  0  0  0  0
  3  4  1  0  0  0  0
  3 25  1  0  0  0  0
  3 26  1  0  0  0  0
  4  5  1  0  0  0  0
  4 27  1  0  0  0  0
  5 19  1  0  0  0  0
  5  6  1  0  0  0  0
  6  7  1  0  0  0  0
  6 28  1  0  0  0  0
  6 29  1  0  0  0  0
  7  8  1  0  0  0  0
  7 18  1  0  0  0  0
  7 30  1  0  0  0  0
  8  9  1  0  0  0  0
  8 31  1  0  0  0  0
  9 10  2  0  0  0  0
  9 11  1  0  0  0  0
 11 12  1  0  0  0  0
 11 32  1  0  0  0  0
 12 17  1  0  0  0  0
 12 13  2  0  0  0  0
 13 14  1  0  0  0  0
 13 33  1  0  0  0  0
 14 15  2  0  0  0  0
 14 34  1  0  0  0  0
 15 16  1  0  0  0  0
 15 35  1  0  0  0  0
 16 17  2  0  0  0  0
 17 36  1  0  0  0  0
 18 19  1  0  0  0  0
 18 37  1  0  0  0  0
 18 38  1  0  0  0  0
 19 20  2  0  0  0  0
M  END
> <s_m_source_file>
AV-unprocessed.smi

> <i_m_source_file_index>
3354

> <i_lp_mmshare_version>
43012

> <i_f3d_flags>
0

> <s_epik_input>
W0NIM11bQ0BASF0xW0NIMl1bQ0BIXTFOMltDSDJdW0NASF0oW0NIMl1DMj1PKVtOSF1DKD1PKVtOSF1jM1tjSF1bY0hdW2NIXW5bY0hdMw==

> <s_epik_cmdline>
J2VwaWtfcHl0aG9uJywgJy1waCcsICc3LjAnLCAnLXRuJywgJzgnLCAnLW1hJywgJzIwMCcsICctbWV0YWxfYmluZGluZycsICctaW1hZScsICc8aW5maWxlLm1hZT4nLCAnLW9tYWUnLCAnPG91dGZpbGUubWFlPic=

> <r_epik_Ionization_Penalty>
0.00456191

> <r_epik_Ionization_Penalty_Charging>
0

> <r_epik_Ionization_Penalty_Neutral>
0.00456191

> <r_epik_State_Penalty>
0.00327094

> <r_epik_Charging_Adjusted_Penalty>
0.00327094

> <i_epik_Tot_Q>
0

> <i_epik_Tot_abs_Q>
0

> <r_epik_Metal_State_Penalty>
-0

> <b_epik_Metal_Only>
0

> <s_lp_Force_Field>
OPLS_2005

> <r_lp_Energy>
43.1486

> <b_lp_Chiralities_Consistent>
1

> <s_lp_Variant>
AV-unprocessed.smi:3354-1

> <Gold.Version>
5.8.1

> <Gold.Id.Protein>
6NUR|6NUR_protein|mol2

> <Gold.PLP.Fitness>
41.7810

> <Gold.PLP.PLP>
-33.5301

> <Gold.PLP.part.hbond>
-3.6600

> <Gold.PLP.part.metal>
0.0000

> <Gold.PLP.part.buried>
-4.2671

> <Gold.PLP.part.nonpolar>
-25.7713

> <Gold.PLP.part.repulsive>
0.3780

> <Gold.PLP.ligand.clash>
0.0107

> <Gold.PLP.ligand.torsion>
0.6728

> <Gold.PLP.Chemscore.Hbond>
3.1457

> <Gold.PLP.Chemscore.CHOScore>
0.0000

> <Gold.PLP.Chemscore.Metal>
0.0000

> <Gold.Chemscore.Hbonds>
donor molecule, donor type, donor heavy atom, donor atom, acceptor molecule, acceptor atom, score
      L1  H     8    31       P1  7948  1.00
      L1  H    11    32       P1  7948  1.00
      P1  H  7989  7998       L1    20  0.15
      P1  H  7997  8009       L1    20  1.00

> <Gold.PLP.Chemscore.Internal.Correction>
0.1702

> <Gold.Rescore>
     Score         DG    S(hbond)    S(metal)    S(lipo)     H(rot)  DE(clash)    DE(int)     intcor
     16.07     -18.18       2.67        0.00      59.30       1.24       0.13       1.98       ----

> <Gold.Chemscore.Fitness>
16.0744

> <Gold.Chemscore.DG>
-18.1832

> <Gold.Chemscore.ZeroCoef>
-5.4800

> <Gold.Chemscore.Hbond>
2.6735

> <Gold.Chemscore.Metal>
0.0000

> <Gold.Chemscore.Lipo>
59.2989

> <Gold.Chemscore.Internal_Hbond>
0.0000

> <Gold.Chemscore.DEClash>
0.1334

> <Gold.Chemscore.DEInternal>
1.9754

> <Gold.Chemscore.Rot>
1.2361

> <Gold.Chemscore.Internal.Correction>
   9.000000E+99

> <Gold.Chemscore.Hbonds>
donor molecule, donor type, donor heavy atom, donor atom, acceptor molecule, acceptor atom, score
      L1  H     8    31       P1  7948  0.73
      L1  H    11    32       P1  7948  0.25
      P1  H  7989  7998       L1    20  0.01
      P1  H  7997  8009       L1    20  0.96

> <Gold.Chemscore.Hbond.Weighted>
-8.9295

> <Gold.Chemscore.Metal.Weighted>
-0.0000

> <Gold.Chemscore.Lipo.Weighted>
-6.9380

> <Gold.Chemscore.Internal_Hbond.Weighted>
0.0000

> <Gold.Chemscore.DEClash.Weighted>
0.1334

> <Gold.Chemscore.DEInternal.Weighted>
1.9754

> <Gold.Chemscore.Rot.Weighted>
3.1643

> <Gold.Chemscore.Internal.Correction.Weighted>
   9.000000E+99

> <Gold.Protein.RotatedTorsions>
[ 6907 6896 6895 6894 ] final   64.63 input  -60.11 | X-H torsion
[ 7974 7965 7964 7962 ] final   56.15 input  175.53 | X-H torsion
[ 8008 7997 7996 7995 ] final -145.48 input   59.86 | X-H torsion
[ 10167 10162 10161 10158 ] final  -93.91 input  -65.29 | X-H torsion
[ 10718 10713 10712 10709 ] final   74.18 input   66.30 | X-H torsion
[ 10763 10752 10751 10750 ] final  -86.63 input  -60.55 | X-H torsion
[ 11005 11000 10999 10996 ] final   14.84 input  -57.11 | X-H torsion

> <Gold.Protein.ActiveResidues>
 VAL166  LYS551  ARG553  GLY616  TRP617  ASP618  TYR619  PRO620  LYS621  CYS622 
 ASP623  PHE694  ASN695  SER759  ASP760  ASP761  ALA762  ILE779  LEU786  VAL792 
 PHE793  MET794  SER795  GLU796  ALA797  LYS798  CYS799  TRP800  GLU811  SER814 

> <Gold.Protein.RotatedAtoms>
  152.4346  134.5711  159.9921 H   0  0  0  0  0  0  0  0  0  0  0  0  # atno 6907 bound_to 6896
  151.5825  133.3370  159.3019 H   0  0  0  0  0  0  0  0  0  0  0  0  # atno 6908 bound_to 6896
  150.8243  134.7501  159.6863 H   0  0  0  0  0  0  0  0  0  0  0  0  # atno 6909 bound_to 6896
  145.9428  139.3903  143.0353 H   0  0  0  0  0  0  0  0  0  0  0  0  # atno 7974 bound_to 7965
  155.5439  140.0610  157.2864 H   0  0  0  0  0  0  0  0  0  0  0  0  # atno 8008 bound_to 7997
  154.4443  140.1914  156.0662 H   0  0  0  0  0  0  0  0  0  0  0  0  # atno 8009 bound_to 7997
  156.0565  140.3278  155.7415 H   0  0  0  0  0  0  0  0  0  0  0  0  # atno 8010 bound_to 7997
  140.3198  143.3055  152.0058 H   0  0  0  0  0  0  0  0  0  0  0  0  # atno 10167 bound_to 10162
  157.6581  130.9665  150.1174 H   0  0  0  0  0  0  0  0  0  0  0  0  # atno 10718 bound_to 10713
  154.6246  135.5442  153.7613 H   0  0  0  0  0  0  0  0  0  0  0  0  # atno 10763 bound_to 10752
  153.0254  135.6421  154.1390 H   0  0  0  0  0  0  0  0  0  0  0  0  # atno 10764 bound_to 10752
  154.1323  135.2913  155.3162 H   0  0  0  0  0  0  0  0  0  0  0  0  # atno 10765 bound_to 10752
  140.4650  134.1088  155.7723 H   0  0  0  0  0  0  0  0  0  0  0  0  # atno 11005 bound_to 11000
  145.8277  140.9647  143.0865 LP  0  0  0  0  0  0  0  0  0  0  0  0  # atno 17320 bound_to 7965
  144.6782  140.0122  143.7484 LP  0  0  0  0  0  0  0  0  0  0  0  0  # atno 17321 bound_to 7965
  139.4876  144.6319  151.7052 LP  0  0  0  0  0  0  0  0  0  0  0  0  # atno 17342 bound_to 10162
  140.5493  144.0451  150.6120 LP  0  0  0  0  0  0  0  0  0  0  0  0  # atno 17343 bound_to 10162
  156.2054  130.3663  149.8735 LP  0  0  0  0  0  0  0  0  0  0  0  0  # atno 17370 bound_to 10713
  156.6628  130.8789  151.3550 LP  0  0  0  0  0  0  0  0  0  0  0  0  # atno 17371 bound_to 10713
  141.1603  133.8805  157.1865 LP  0  0  0  0  0  0  0  0  0  0  0  0  # atno 17394 bound_to 11000
  139.9921  135.0061  156.9998 LP  0  0  0  0  0  0  0  0  0  0  0  0  # atno 17395 bound_to 11000

$$$$
