AV-unprocessed.smi:414|AV-procd|sdf|2514|dock8
  -GOLD-   2262022463D 1   1.00000     0.00000
 Structure written by MMmdl.
 38 39  0  0  0  0  0  0  0  0  1 V2000
  153.1544  142.7595  160.5336 C   0  0  0  0  0  0  0  0  0  0  0  0
  152.0310  142.6640  159.4915 C   0  0  2  0  0  0  0  0  0  0  0  0
  151.9936  141.2738  158.8286 C   0  0  0  0  0  0  0  0  0  0  0  0
  150.8714  141.1758  157.7826 C   0  0  0  0  0  0  0  0  0  0  0  0
  150.9992  142.2768  156.7143 C   0  0  1  0  0  0  0  0  0  0  0  0
  149.8847  142.1807  155.7766 N   0  0  0  0  0  0  0  0  0  0  0  0
  149.6925  141.1843  154.8983 C   0  0  0  0  0  0  0  0  0  0  0  0
  150.4659  140.2331  154.7777 O   0  0  0  0  0  0  0  0  0  0  0  0
  148.4461  141.3012  154.0092 C   0  0  0  0  0  0  0  0  0  0  0  0
  147.2982  141.9025  154.7037 N   0  0  0  0  0  0  0  0  0  0  0  0
  146.5375  142.8820  154.0812 C   0  0  0  0  0  0  0  0  0  0  0  0
  145.4617  143.4690  154.6573 C   0  0  0  0  0  0  0  0  0  0  0  0
  145.0418  143.0848  156.0007 C   0  0  0  0  0  0  0  0  0  0  0  0
  144.0835  143.5586  156.6069 O   0  0  0  0  0  0  0  0  0  0  0  0
  145.8308  142.0950  156.5928 N   0  0  0  0  0  0  0  0  0  0  0  0
  146.9396  141.4848  156.0040 C   0  0  0  0  0  0  0  0  0  0  0  0
  147.5645  140.6176  156.6137 O   0  0  0  0  0  0  0  0  0  0  0  0
  151.0393  143.6704  157.3730 C   0  0  0  0  0  0  0  0  0  0  0  0
  152.1599  143.7645  158.4211 C   0  0  0  0  0  0  0  0  0  0  0  0
  145.5761  141.7944  157.5224 H   0  0  0  0  0  0  0  0  0  0  0  0
  154.1337  142.6178  160.0754 H   0  0  0  0  0  0  0  0  0  0  0  0
  153.0364  142.0017  161.3089 H   0  0  0  0  0  0  0  0  0  0  0  0
  153.1537  143.7337  161.0235 H   0  0  0  0  0  0  0  0  0  0  0  0
  151.0850  142.8131  160.0143 H   0  0  0  0  0  0  0  0  0  0  0  0
  152.9526  141.0661  158.3517 H   0  0  0  0  0  0  0  0  0  0  0  0
  151.8532  140.5023  159.5866 H   0  0  0  0  0  0  0  0  0  0  0  0
  150.8960  140.1926  157.3106 H   0  0  0  0  0  0  0  0  0  0  0  0
  149.9047  141.2541  158.2826 H   0  0  0  0  0  0  0  0  0  0  0  0
  151.9335  142.1148  156.1726 H   0  0  0  0  0  0  0  0  0  0  0  0
  149.2031  142.9251  155.8032 H   0  0  0  0  0  0  0  0  0  0  0  0
  148.6844  141.8753  153.1113 H   0  0  0  0  0  0  0  0  0  0  0  0
  148.1909  140.3023  153.6521 H   0  0  0  0  0  0  0  0  0  0  0  0
  146.8090  143.1949  153.0829 H   0  0  0  0  0  0  0  0  0  0  0  0
  144.9082  144.2259  154.1207 H   0  0  0  0  0  0  0  0  0  0  0  0
  151.1851  144.4418  156.6158 H   0  0  0  0  0  0  0  0  0  0  0  0
  150.0806  143.8825  157.8486 H   0  0  0  0  0  0  0  0  0  0  0  0
  152.1366  144.7479  158.8917 H   0  0  0  0  0  0  0  0  0  0  0  0
  153.1275  143.6840  157.9237 H   0  0  0  0  0  0  0  0  0  0  0  0
  1  2  1  0  0  0  0
  1 21  1  0  0  0  0
  1 22  1  0  0  0  0
  1 23  1  0  0  0  0
  2 19  1  0  0  0  0
  2  3  1  0  0  0  0
  2 24  1  0  0  0  0
  3  4  1  0  0  0  0
  3 25  1  0  0  0  0
  3 26  1  0  0  0  0
  4  5  1  0  0  0  0
  4 27  1  0  0  0  0
  4 28  1  0  0  0  0
  5  6  1  0  0  0  0
  5 18  1  0  0  0  0
  5 29  1  0  0  0  0
  6  7  1  0  0  0  0
  6 30  1  0  0  0  0
  7  8  2  0  0  0  0
  7  9  1  0  0  0  0
  9 10  1  0  0  0  0
  9 31  1  0  0  0  0
  9 32  1  0  0  0  0
 10 16  1  0  0  0  0
 10 11  1  0  0  0  0
 11 12  2  0  0  0  0
 11 33  1  0  0  0  0
 12 13  1  0  0  0  0
 12 34  1  0  0  0  0
 13 14  2  0  0  0  0
 13 15  1  0  0  0  0
 15 20  1  0  0  0  0
 15 16  1  0  0  0  0
 16 17  2  0  0  0  0
 18 19  1  0  0  0  0
 18 35  1  0  0  0  0
 18 36  1  0  0  0  0
 19 37  1  0  0  0  0
 19 38  1  0  0  0  0
M  END
> <s_m_source_file>
AV-unprocessed.smi

> <i_m_source_file_index>
414

> <i_lp_mmshare_version>
43012

> <i_f3d_flags>
0

> <s_epik_input>
W0NIM11bQ0BASF0xW0NIMl1bQ0gyXVtDQEhdKFtDSDJdW0NIMl0xKVtOSF1DKD1PKVtDSDJdbjJbY0hdW2NIXWMoPU8pW25IXWMyPU8=

> <s_epik_cmdline>
J2VwaWtfcHl0aG9uJywgJy1waCcsICc3LjAnLCAnLXRuJywgJzgnLCAnLW1hJywgJzIwMCcsICctbWV0YWxfYmluZGluZycsICctaW1hZScsICc8aW5maWxlLm1hZT4nLCAnLW9tYWUnLCAnPG91dGZpbGUubWFlPic=

> <r_lp_tautomer_probability>
0.999537

> <r_epik_Ionization_Penalty>
0.00309124

> <r_epik_Ionization_Penalty_Charging>
0.00309122

> <r_epik_Ionization_Penalty_Neutral>
1.90469e-08

> <r_epik_State_Penalty>
0.00217484

> <r_epik_Charging_Adjusted_Penalty>
0.00526606

> <i_epik_Tot_Q>
0

> <i_epik_Tot_abs_Q>
0

> <r_epik_Metal_State_Penalty>
0.362537

> <b_epik_Metal_Only>
0

> <s_lp_Force_Field>
OPLS_2005

> <r_lp_Energy>
8.30971

> <b_lp_Chiralities_Consistent>
1

> <s_lp_Variant>
AV-unprocessed.smi:414-1

> <Gold.Version>
5.8.1

> <Gold.Id.Protein>
6NUR|6NUR_protein|mol2

> <Gold.PLP.Fitness>
44.1948

> <Gold.PLP.PLP>
-39.5333

> <Gold.PLP.part.hbond>
-2.0000

> <Gold.PLP.part.metal>
0.0000

> <Gold.PLP.part.buried>
-2.7532

> <Gold.PLP.part.nonpolar>
-35.4150

> <Gold.PLP.part.repulsive>
0.2856

> <Gold.PLP.ligand.clash>
0.0000

> <Gold.PLP.ligand.torsion>
0.6115

> <Gold.PLP.Chemscore.Hbond>
1.9600

> <Gold.PLP.Chemscore.CHOScore>
0.0000

> <Gold.PLP.Chemscore.Metal>
0.0000

> <Gold.Chemscore.Hbonds>
donor molecule, donor type, donor heavy atom, donor atom, acceptor molecule, acceptor atom, score
      L1  H     6    30       P1  8028  0.94
      P1  H  7989  7998       L1     8  1.00

> <Gold.PLP.Chemscore.Internal.Correction>
0.0045

> <Gold.Rescore>
     Score         DG    S(hbond)    S(metal)    S(lipo)     H(rot)  DE(clash)    DE(int)     intcor
     14.31     -17.41       1.65        0.00      91.82       1.69       1.37       1.73       ----

> <Gold.Chemscore.Fitness>
14.3112

> <Gold.Chemscore.DG>
-17.4093

> <Gold.Chemscore.ZeroCoef>
-5.4800

> <Gold.Chemscore.Hbond>
1.6484

> <Gold.Chemscore.Metal>
0.0000

> <Gold.Chemscore.Lipo>
91.8238

> <Gold.Chemscore.Internal_Hbond>
0.0000

> <Gold.Chemscore.DEClash>
1.3701

> <Gold.Chemscore.DEInternal>
1.7280

> <Gold.Chemscore.Rot>
1.6874

> <Gold.Chemscore.Internal.Correction>
   9.000000E+99

> <Gold.Chemscore.Hbonds>
donor molecule, donor type, donor heavy atom, donor atom, acceptor molecule, acceptor atom, score
      L1  H     6    30       P1  8028  0.91
      P1  H  7989  7998       L1     8  0.30

> <Gold.Chemscore.Hbond.Weighted>
-5.5057

> <Gold.Chemscore.Metal.Weighted>
-0.0000

> <Gold.Chemscore.Lipo.Weighted>
-10.7434

> <Gold.Chemscore.Internal_Hbond.Weighted>
0.0000

> <Gold.Chemscore.DEClash.Weighted>
1.3701

> <Gold.Chemscore.DEInternal.Weighted>
1.7280

> <Gold.Chemscore.Rot.Weighted>
4.3198

> <Gold.Chemscore.Internal.Correction.Weighted>
   9.000000E+99

> <Gold.Protein.RotatedTorsions>
[ 6907 6896 6895 6894 ] final  102.88 input  -60.11 | X-H torsion
[ 7974 7965 7964 7962 ] final   97.61 input  175.53 | X-H torsion
[ 8008 7997 7996 7995 ] final  170.55 input   59.86 | X-H torsion
[ 10167 10162 10161 10158 ] final   -7.87 input  -65.29 | X-H torsion
[ 10718 10713 10712 10709 ] final  168.02 input   66.30 | X-H torsion
[ 10763 10752 10751 10750 ] final  -34.99 input  -60.55 | X-H torsion
[ 11005 11000 10999 10996 ] final -115.40 input  -57.11 | X-H torsion

> <Gold.Protein.ActiveResidues>
 VAL166  LYS551  ARG553  GLY616  TRP617  ASP618  TYR619  PRO620  LYS621  CYS622 
 ASP623  PHE694  ASN695  SER759  ASP760  ASP761  ALA762  ILE779  LEU786  VAL792 
 PHE793  MET794  SER795  GLU796  ALA797  LYS798  CYS799  TRP800  GLU811  SER814 

> <Gold.Protein.RotatedAtoms>
  152.5311  133.9908  159.7849 H   0  0  0  0  0  0  0  0  0  0  0  0  # atno 6907 bound_to 6896
  151.0145  133.5926  159.2686 H   0  0  0  0  0  0  0  0  0  0  0  0  # atno 6908 bound_to 6896
  151.2989  135.0769  159.9284 H   0  0  0  0  0  0  0  0  0  0  0  0  # atno 6909 bound_to 6896
  145.4232  139.2319  143.3185 H   0  0  0  0  0  0  0  0  0  0  0  0  # atno 7974 bound_to 7965
  156.1355  140.1535  156.9001 H   0  0  0  0  0  0  0  0  0  0  0  0  # atno 8008 bound_to 7997
  154.4944  140.0842  156.7703 H   0  0  0  0  0  0  0  0  0  0  0  0  # atno 8009 bound_to 7997
  155.4176  140.3421  155.4271 H   0  0  0  0  0  0  0  0  0  0  0  0  # atno 8010 bound_to 7997
  140.7042  143.6032  150.8777 H   0  0  0  0  0  0  0  0  0  0  0  0  # atno 10167 bound_to 10162
  157.0431  131.0292  151.2706 H   0  0  0  0  0  0  0  0  0  0  0  0  # atno 10718 bound_to 10713
  153.8558  135.6844  153.4787 H   0  0  0  0  0  0  0  0  0  0  0  0  # atno 10763 bound_to 10752
  153.1370  135.4673  154.9436 H   0  0  0  0  0  0  0  0  0  0  0  0  # atno 10764 bound_to 10752
  154.7781  135.3260  154.7997 H   0  0  0  0  0  0  0  0  0  0  0  0  # atno 10765 bound_to 10752
  141.0490  133.9718  157.2869 H   0  0  0  0  0  0  0  0  0  0  0  0  # atno 11005 bound_to 11000
  146.2646  140.4959  142.8839 LP  0  0  0  0  0  0  0  0  0  0  0  0  # atno 17320 bound_to 7965
  144.8231  140.6584  143.6339 LP  0  0  0  0  0  0  0  0  0  0  0  0  # atno 17321 bound_to 7965
  139.9756  143.6008  152.2959 LP  0  0  0  0  0  0  0  0  0  0  0  0  # atno 17342 bound_to 10162
  139.6610  144.7662  151.1962 LP  0  0  0  0  0  0  0  0  0  0  0  0  # atno 17343 bound_to 10162
  157.5089  130.7926  149.7683 LP  0  0  0  0  0  0  0  0  0  0  0  0  # atno 17370 bound_to 10713
  156.0031  130.3869  150.2529 LP  0  0  0  0  0  0  0  0  0  0  0  0  # atno 17371 bound_to 10713
  139.9335  135.0198  156.8478 LP  0  0  0  0  0  0  0  0  0  0  0  0  # atno 17394 bound_to 11000
  140.6092  134.0098  155.7569 LP  0  0  0  0  0  0  0  0  0  0  0  0  # atno 17395 bound_to 11000

$$$$
