AV-unprocessed.smi:203|AV-procd|sdf|1591|dock9
  -GOLD-   2262019493D 1   1.00000     0.00000
 Structure written by MMmdl.
 57 61  0  0  0  0  0  0  0  0  1 V2000
  148.1590  141.4094  156.8088 O   0  0  0  0  0  0  0  0  0  0  0  0
  149.3194  141.7284  157.0559 C   0  0  0  0  0  0  0  0  0  0  0  0
  150.4882  140.7612  156.9815 C   0  0  0  0  0  0  0  0  0  0  0  0
  151.6622  141.5607  157.5795 C   0  0  2  0  0  0  0  0  0  0  0  0
  152.1886  140.9998  158.9399 C   0  0  2  0  0  0  0  0  0  0  0  0
  152.9264  142.0676  159.7894 C   0  0  0  0  0  0  0  0  0  0  0  0
  153.4129  141.4899  161.1258 C   0  0  0  0  0  0  0  0  0  0  0  0
  154.2921  140.2592  160.8765 C   0  0  0  0  0  0  0  0  0  0  0  0
  153.5370  139.2226  160.0334 C   0  0  0  0  0  0  0  0  0  0  0  0
  153.0469  139.8104  158.7879 N   0  0  0  0  0  0  0  0  0  0  0  0
  152.5947  138.8526  157.9496 C   0  0  0  0  0  0  0  0  0  0  0  0
  153.2740  138.6741  156.7903 N   0  0  0  0  0  0  0  0  0  0  0  0
  152.8351  137.7884  155.8910 C   0  0  0  0  0  0  0  0  0  0  0  0
  151.7568  137.0038  155.9496 N   0  0  0  0  0  0  0  0  0  0  0  0
  151.0826  137.1735  157.1235 C   0  0  0  0  0  0  0  0  0  0  0  0
  151.4366  138.0587  158.1784 C   0  0  0  0  0  0  0  0  0  0  0  0
  150.5157  137.9578  159.2144 N   0  0  0  0  0  0  0  0  0  0  0  0
  149.6470  137.0850  158.7824 C   0  0  0  0  0  0  0  0  0  0  0  0
  149.8989  136.5822  157.5266 N   0  0  0  0  0  0  0  0  0  0  0  0
  149.0651  135.6620  156.7773 C   0  0  0  0  0  0  0  0  0  0  0  0
  149.5129  135.5245  155.3050 C   0  0  2  0  0  0  0  0  0  0  0  0
  148.9625  136.6147  154.5933 O   0  0  0  0  0  0  0  0  0  0  0  0
  149.0868  134.2016  154.6251 C   0  0  1  0  0  0  0  0  0  0  0  0
  149.4851  132.9314  155.3810 C   0  0  0  0  0  0  0  0  0  0  0  0
  148.4696  131.8962  154.9180 C   0  0  0  0  0  0  0  0  0  0  0  0
  147.3757  132.7250  154.2420 C   0  0  0  0  0  0  0  0  0  0  0  0
  147.6723  134.0646  154.6016 O   0  0  0  0  0  0  0  0  0  0  0  0
  151.1605  143.0203  157.6513 C   0  0  0  0  0  0  0  0  0  0  0  0
  149.7327  142.9421  157.4135 N   0  0  0  0  0  0  0  0  0  0  0  0
  150.2779  139.8338  157.5139 H   0  0  0  0  0  0  0  0  0  0  0  0
  150.6758  140.5115  155.9368 H   0  0  0  0  0  0  0  0  0  0  0  0
  152.4645  141.5142  156.8426 H   0  0  0  0  0  0  0  0  0  0  0  0
  151.3168  140.6868  159.5156 H   0  0  0  0  0  0  0  0  0  0  0  0
  153.7845  142.4598  159.2434 H   0  0  0  0  0  0  0  0  0  0  0  0
  152.2795  142.9202  159.9918 H   0  0  0  0  0  0  0  0  0  0  0  0
  153.9697  142.2449  161.6818 H   0  0  0  0  0  0  0  0  0  0  0  0
  152.5564  141.2146  161.7423 H   0  0  0  0  0  0  0  0  0  0  0  0
  155.2051  140.5577  160.3598 H   0  0  0  0  0  0  0  0  0  0  0  0
  154.5999  139.8183  161.8249 H   0  0  0  0  0  0  0  0  0  0  0  0
  154.1958  138.3807  159.8146 H   0  0  0  0  0  0  0  0  0  0  0  0
  152.6943  138.8275  160.6027 H   0  0  0  0  0  0  0  0  0  0  0  0
  153.4252  137.7052  154.9904 H   0  0  0  0  0  0  0  0  0  0  0  0
  148.7784  136.8031  159.3592 H   0  0  0  0  0  0  0  0  0  0  0  0
  149.0926  134.6911  157.2742 H   0  0  0  0  0  0  0  0  0  0  0  0
  148.0330  136.0106  156.8314 H   0  0  0  0  0  0  0  0  0  0  0  0
  150.5985  135.6143  155.2504 H   0  0  0  0  0  0  0  0  0  0  0  0
  148.5916  136.2909  153.7868 H   0  0  0  0  0  0  0  0  0  0  0  0
  149.4704  134.1583  153.6035 H   0  0  0  0  0  0  0  0  0  0  0  0
  150.5140  132.6304  155.1818 H   0  0  0  0  0  0  0  0  0  0  0  0
  149.3831  133.0859  156.4562 H   0  0  0  0  0  0  0  0  0  0  0  0
  148.9082  131.1887  154.2137 H   0  0  0  0  0  0  0  0  0  0  0  0
  148.0799  131.3308  155.7651 H   0  0  0  0  0  0  0  0  0  0  0  0
  147.4276  132.6253  153.1567 H   0  0  0  0  0  0  0  0  0  0  0  0
  146.3729  132.4421  154.5622 H   0  0  0  0  0  0  0  0  0  0  0  0
  151.3705  143.5025  158.6061 H   0  0  0  0  0  0  0  0  0  0  0  0
  151.6192  143.6262  156.8687 H   0  0  0  0  0  0  0  0  0  0  0  0
  149.1201  143.7375  157.5230 H   0  0  0  0  0  0  0  0  0  0  0  0
  1  2  2  0  0  0  0
  2 29  1  0  0  0  0
  2  3  1  0  0  0  0
  3  4  1  0  0  0  0
  3 30  1  0  0  0  0
  3 31  1  0  0  0  0
  4  5  1  0  0  0  0
  4 28  1  0  0  0  0
  4 32  1  0  0  0  0
  5 10  1  0  0  0  0
  5  6  1  0  0  0  0
  5 33  1  0  0  0  0
  6  7  1  0  0  0  0
  6 34  1  0  0  0  0
  6 35  1  0  0  0  0
  7  8  1  0  0  0  0
  7 36  1  0  0  0  0
  7 37  1  0  0  0  0
  8  9  1  0  0  0  0
  8 38  1  0  0  0  0
  8 39  1  0  0  0  0
  9 10  1  0  0  0  0
  9 40  1  0  0  0  0
  9 41  1  0  0  0  0
 10 11  1  0  0  0  0
 11 16  1  0  0  0  0
 11 12  2  0  0  0  0
 12 13  1  0  0  0  0
 13 14  2  0  0  0  0
 13 42  1  0  0  0  0
 14 15  1  0  0  0  0
 15 19  1  0  0  0  0
 15 16  2  0  0  0  0
 16 17  1  0  0  0  0
 17 18  2  0  0  0  0
 18 19  1  0  0  0  0
 18 43  1  0  0  0  0
 19 20  1  0  0  0  0
 20 21  1  0  0  0  0
 20 44  1  0  0  0  0
 20 45  1  0  0  0  0
 21 22  1  0  0  0  0
 21 23  1  0  0  0  0
 21 46  1  0  0  0  0
 22 47  1  0  0  0  0
 23 27  1  0  0  0  0
 23 24  1  0  0  0  0
 23 48  1  0  0  0  0
 24 25  1  0  0  0  0
 24 49  1  0  0  0  0
 24 50  1  0  0  0  0
 25 26  1  0  0  0  0
 25 51  1  0  0  0  0
 25 52  1  0  0  0  0
 26 27  1  0  0  0  0
 26 53  1  0  0  0  0
 26 54  1  0  0  0  0
 28 29  1  0  0  0  0
 28 55  1  0  0  0  0
 28 56  1  0  0  0  0
 29 57  1  0  0  0  0
M  END
> <s_m_source_file>
AV-unprocessed.smi

> <i_m_source_file_index>
203

> <i_lp_mmshare_version>
43012

> <i_f3d_flags>
0

> <s_epik_input>
Tz1DMVtDSDJdW0NASF0oW0NIMl1bTkhdMSlbQ0BASF0yW0NIMl1bQ0gyXVtDSDJdW0NIMl1OMmMobltjSF1uMyljKGMzNCluW2NIXW40W0NIMl1bQ0BIXShbT0hdKVtDQEBIXTVbQ0gyXVtDSDJdW0NIMl1PNQ==

> <s_epik_cmdline>
J2VwaWtfcHl0aG9uJywgJy1waCcsICc3LjAnLCAnLXRuJywgJzgnLCAnLW1hJywgJzIwMCcsICctbWV0YWxfYmluZGluZycsICctaW1hZScsICc8aW5maWxlLm1hZT4nLCAnLW9tYWUnLCAnPG91dGZpbGUubWFlPic=

> <r_lp_tautomer_probability>
1

> <r_epik_Ionization_Penalty>
0.00175146

> <r_epik_Ionization_Penalty_Charging>
0

> <r_epik_Ionization_Penalty_Neutral>
0.00175146

> <r_epik_State_Penalty>
0.00109045

> <r_epik_Charging_Adjusted_Penalty>
0.00109045

> <i_epik_Tot_Q>
0

> <i_epik_Tot_abs_Q>
0

> <r_epik_Metal_State_Penalty>
-0

> <b_epik_Metal_Only>
0

> <s_lp_Force_Field>
OPLS_2005

> <r_lp_Energy>
54.7877

> <b_lp_Chiralities_Consistent>
1

> <s_lp_Variant>
AV-unprocessed.smi:203-10

> <Gold.Version>
5.8.1

> <Gold.Id.Protein>
6NUR|6NUR_protein|mol2

> <Gold.PLP.Fitness>
50.8546

> <Gold.PLP.PLP>
-42.0988

> <Gold.PLP.part.hbond>
-3.9213

> <Gold.PLP.part.metal>
0.0000

> <Gold.PLP.part.buried>
-6.3915

> <Gold.PLP.part.nonpolar>
-32.6492

> <Gold.PLP.part.repulsive>
0.1906

> <Gold.PLP.ligand.clash>
0.0000

> <Gold.PLP.ligand.torsion>
0.8750

> <Gold.PLP.Chemscore.Hbond>
3.4000

> <Gold.PLP.Chemscore.CHOScore>
0.0000

> <Gold.PLP.Chemscore.Metal>
0.0000

> <Gold.Chemscore.Hbonds>
donor molecule, donor type, donor heavy atom, donor atom, acceptor molecule, acceptor atom, score
      L1  H    22    47       P1  7948  0.80
      L1  H    29    57       P1  8028  0.17
      P1  H  7997  8009       L1    12  0.99
      P1  H 10752 10765       L1    14  0.10

> <Gold.PLP.Chemscore.Internal.Correction>
0.3057

> <Gold.Rescore>
     Score         DG    S(hbond)    S(metal)    S(lipo)     H(rot)  DE(clash)    DE(int)     intcor
     14.09     -16.69       2.04        0.00      97.05       2.72       0.04       2.56       ----

> <Gold.Chemscore.Fitness>
14.0857

> <Gold.Chemscore.DG>
-16.6889

> <Gold.Chemscore.ZeroCoef>
-5.4800

> <Gold.Chemscore.Hbond>
2.0387

> <Gold.Chemscore.Metal>
0.0000

> <Gold.Chemscore.Lipo>
97.0533

> <Gold.Chemscore.Internal_Hbond>
0.0000

> <Gold.Chemscore.DEClash>
0.0441

> <Gold.Chemscore.DEInternal>
2.5590

> <Gold.Chemscore.Rot>
2.7171

> <Gold.Chemscore.Internal.Correction>
   9.000000E+99

> <Gold.Chemscore.Hbonds>
donor molecule, donor type, donor heavy atom, donor atom, acceptor molecule, acceptor atom, score
      L1  H    22    47       P1  7948  0.79
      L1  H    29    57       P1  8028  0.03
      P1  H  7997  8009       L1    12  0.37

> <Gold.Chemscore.Hbond.Weighted>
-6.8093

> <Gold.Chemscore.Metal.Weighted>
-0.0000

> <Gold.Chemscore.Lipo.Weighted>
-11.3552

> <Gold.Chemscore.Internal_Hbond.Weighted>
0.0000

> <Gold.Chemscore.DEClash.Weighted>
0.0441

> <Gold.Chemscore.DEInternal.Weighted>
2.5590

> <Gold.Chemscore.Rot.Weighted>
6.9557

> <Gold.Chemscore.Internal.Correction.Weighted>
   9.000000E+99

> <Gold.Protein.RotatedTorsions>
[ 6907 6896 6895 6894 ] final   99.74 input  -60.11 | X-H torsion
[ 7974 7965 7964 7962 ] final  -72.05 input  175.53 | X-H torsion
[ 8008 7997 7996 7995 ] final  168.31 input   59.86 | X-H torsion
[ 10167 10162 10161 10158 ] final   -0.25 input  -65.29 | X-H torsion
[ 10718 10713 10712 10709 ] final  122.71 input   66.30 | X-H torsion
[ 10763 10752 10751 10750 ] final -166.26 input  -60.55 | X-H torsion
[ 11005 11000 10999 10996 ] final   58.64 input  -57.11 | X-H torsion

> <Gold.Protein.ActiveResidues>
 VAL166  LYS551  ARG553  GLY616  TRP617  ASP618  TYR619  PRO620  LYS621  CYS622 
 ASP623  PHE694  ASN695  SER759  ASP760  ASP761  ALA762  ILE779  LEU786  VAL792 
 PHE793  MET794  SER795  GLU796  ALA797  LYS798  CYS799  TRP800  GLU811  SER814 

> <Gold.Protein.RotatedAtoms>
  152.5386  134.0382  159.8055 H   0  0  0  0  0  0  0  0  0  0  0  0  # atno 6907 bound_to 6896
  151.0542  133.5590  159.2647 H   0  0  0  0  0  0  0  0  0  0  0  0  # atno 6908 bound_to 6896
  151.2513  135.0631  159.9117 H   0  0  0  0  0  0  0  0  0  0  0  0  # atno 6909 bound_to 6896
  145.6701  140.9224  143.0887 H   0  0  0  0  0  0  0  0  0  0  0  0  # atno 7974 bound_to 7965
  156.1557  140.1594  156.8696 H   0  0  0  0  0  0  0  0  0  0  0  0  # atno 8008 bound_to 7997
  154.5113  140.0800  156.8031 H   0  0  0  0  0  0  0  0  0  0  0  0  # atno 8009 bound_to 7997
  155.3807  140.3405  155.4249 H   0  0  0  0  0  0  0  0  0  0  0  0  # atno 8010 bound_to 7997
  140.6759  143.6917  150.8022 H   0  0  0  0  0  0  0  0  0  0  0  0  # atno 10167 bound_to 10162
  157.5721  131.1082  150.8347 H   0  0  0  0  0  0  0  0  0  0  0  0  # atno 10718 bound_to 10713
  154.6850  135.2961  154.9560 H   0  0  0  0  0  0  0  0  0  0  0  0  # atno 10763 bound_to 10752
  154.0542  135.6640  153.4808 H   0  0  0  0  0  0  0  0  0  0  0  0  # atno 10764 bound_to 10752
  153.0573  135.5137  154.7913 H   0  0  0  0  0  0  0  0  0  0  0  0  # atno 10765 bound_to 10752
  140.0362  134.5939  155.9441 H   0  0  0  0  0  0  0  0  0  0  0  0  # atno 11005 bound_to 11000
  144.7060  139.8561  143.7430 LP  0  0  0  0  0  0  0  0  0  0  0  0  # atno 17320 bound_to 7965
  146.1053  139.4052  143.0322 LP  0  0  0  0  0  0  0  0  0  0  0  0  # atno 17321 bound_to 7965
  140.0610  143.5155  152.2628 LP  0  0  0  0  0  0  0  0  0  0  0  0  # atno 17342 bound_to 10162
  139.6051  144.7594  151.3080 LP  0  0  0  0  0  0  0  0  0  0  0  0  # atno 17343 bound_to 10162
  156.8816  130.5181  149.5290 LP  0  0  0  0  0  0  0  0  0  0  0  0  # atno 17370 bound_to 10713
  156.0766  130.5787  150.9485 LP  0  0  0  0  0  0  0  0  0  0  0  0  # atno 17371 bound_to 10713
  141.1859  133.6556  156.5215 LP  0  0  0  0  0  0  0  0  0  0  0  0  # atno 17394 bound_to 11000
  140.4143  134.7244  157.4854 LP  0  0  0  0  0  0  0  0  0  0  0  0  # atno 17395 bound_to 11000

$$$$
