AV-unprocessed.smi:73|AV-procd|sdf|759|dock10
  -GOLD-   2262017 93D 1   1.00000     0.00000
 Structure written by MMmdl.
 35 36  0  0  0  0  0  0  0  0  2 V2000
  146.3862  138.3828  155.2562 C   0  0  0  0  0  0  0  0  0  0  0  0
  147.0848  138.7330  156.5782 C   0  0  0  0  0  0  0  0  0  0  0  0
  148.5601  138.8652  156.5796 N   0  0  0  0  0  0  0  0  0  0  0  0
  149.0312  138.7306  157.9709 C   0  0  0  0  0  0  0  0  0  0  0  0
  148.8288  137.3700  158.5606 C   0  0  0  0  0  0  0  0  0  0  0  0
  149.3110  136.2104  158.1071 N   0  0  0  0  0  0  0  0  0  0  0  0
  148.8454  135.2474  158.9748 N   0  0  0  0  0  0  0  0  0  0  0  0
  148.1190  135.8995  159.8858 C   0  0  0  0  0  0  0  0  0  0  0  0
  147.3931  135.3189  161.0506 C   0  0  0  0  0  0  0  0  0  0  0  0
  148.0728  137.2413  159.6815 O   0  0  0  0  0  0  0  0  0  0  0  0
  149.0083  140.1479  155.9800 C   0  0  2  0  0  0  0  0  0  0  0  0
  148.2079  141.3893  156.4626 C   0  0  0  0  0  0  0  0  0  0  0  0
  147.7000  142.1111  155.2848 N   0  3  0  0  0  0  0  0  0  0  0  0
  148.5246  141.7085  154.1482 C   0  0  0  0  0  0  0  0  0  0  0  0
  148.8664  140.2514  154.4377 C   0  0  1  0  0  0  0  0  0  0  0  0
  150.0711  139.9242  153.7734 O   0  0  0  0  0  0  0  0  0  0  0  0
  148.0482  139.6263  154.0763 H   0  0  0  0  0  0  0  0  0  0  0  0
  145.3590  138.0723  155.4479 H   0  0  0  0  0  0  0  0  0  0  0  0
  146.8842  137.5563  154.7482 H   0  0  0  0  0  0  0  0  0  0  0  0
  146.3272  139.2334  154.5793 H   0  0  0  0  0  0  0  0  0  0  0  0
  146.6334  139.6351  156.9941 H   0  0  0  0  0  0  0  0  0  0  0  0
  146.7932  137.9331  157.2578 H   0  0  0  0  0  0  0  0  0  0  0  0
  150.1007  138.9136  158.0446 H   0  0  0  0  0  0  0  0  0  0  0  0
  148.5472  139.4726  158.6078 H   0  0  0  0  0  0  0  0  0  0  0  0
  147.1691  134.2674  160.8700 H   0  0  0  0  0  0  0  0  0  0  0  0
  146.4566  135.8523  161.2151 H   0  0  0  0  0  0  0  0  0  0  0  0
  148.0059  135.3990  161.9483 H   0  0  0  0  0  0  0  0  0  0  0  0
  150.0578  140.3115  156.2319 H   0  0  0  0  0  0  0  0  0  0  0  0
  147.3337  141.1331  157.0582 H   0  0  0  0  0  0  0  0  0  0  0  0
  148.8440  142.0519  157.0502 H   0  0  0  0  0  0  0  0  0  0  0  0
  146.7533  141.8043  155.1111 H   0  0  0  0  0  0  0  0  0  0  0  0
  148.0074  141.8463  153.1982 H   0  0  0  0  0  0  0  0  0  0  0  0
  149.4231  142.3283  154.1427 H   0  0  0  0  0  0  0  0  0  0  0  0
  149.8999  139.8677  152.8456 H   0  0  0  0  0  0  0  0  0  0  0  0
  147.7165  143.1114  155.4237 H   0  0  0  0  0  0  0  0  0  0  0  0
  1  2  1  0  0  0  0
  1 18  1  0  0  0  0
  1 19  1  0  0  0  0
  1 20  1  0  0  0  0
  2  3  1  0  0  0  0
  2 21  1  0  0  0  0
  2 22  1  0  0  0  0
  3  4  1  0  0  0  0
  3 11  1  0  0  0  0
  4  5  1  0  0  0  0
  4 23  1  0  0  0  0
  4 24  1  0  0  0  0
  5 10  1  0  0  0  0
  5  6  2  0  0  0  0
  6  7  1  0  0  0  0
  7  8  2  0  0  0  0
  8  9  1  0  0  0  0
  8 10  1  0  0  0  0
  9 25  1  0  0  0  0
  9 26  1  0  0  0  0
  9 27  1  0  0  0  0
 11 15  1  0  0  0  0
 11 12  1  0  0  0  0
 11 28  1  0  0  0  0
 12 13  1  0  0  0  0
 12 29  1  0  0  0  0
 12 30  1  0  0  0  0
 13 14  1  0  0  0  0
 13 31  1  0  0  0  0
 13 35  1  0  0  0  0
 14 15  1  0  0  0  0
 14 32  1  0  0  0  0
 14 33  1  0  0  0  0
 15 17  1  0  0  0  0
 15 16  1  0  0  0  0
 16 34  1  0  0  0  0
M  CHG  1  13   1
M  END
> <s_m_source_file>
AV-unprocessed.smi

> <i_m_source_file_index>
73

> <i_lp_mmshare_version>
43012

> <i_f3d_flags>
0

> <s_epik_input>
W09IXVtDQEBIXTFbQ0gyXVtOSF1bQ0gyXVtDQEhdMU4oW0NIMl1bQ0gzXSlbQ0gyXWMybm5jKG8yKVtDSDNd

> <s_epik_cmdline>
J2VwaWtfcHl0aG9uJywgJy1waCcsICc3LjAnLCAnLXRuJywgJzgnLCAnLW1hJywgJzIwMCcsICctbWV0YWxfYmluZGluZycsICctaW1hZScsICc8aW5maWxlLm1hZT4nLCAnLW9tYWUnLCAnPG91dGZpbGUubWFlPic=

> <r_lp_tautomer_probability>
1

> <r_epik_Ionization_Penalty>
0.00160433

> <r_epik_Ionization_Penalty_Charging>
0.000122314

> <r_epik_Ionization_Penalty_Neutral>
0.00148202

> <r_epik_State_Penalty>
-0

> <r_epik_Charging_Adjusted_Penalty>
0.000122314

> <i_epik_Tot_Q>
1

> <i_epik_Tot_abs_Q>
1

> <r_epik_Metal_State_Penalty>
-0

> <b_epik_Metal_Only>
0

> <s_lp_Force_Field>
OPLS_2005

> <r_lp_Energy>
42.0904

> <b_lp_Chiralities_Consistent>
1

> <s_lp_Variant>
AV-unprocessed.smi:73-1

> <Gold.Version>
5.8.1

> <Gold.Id.Protein>
6NUR|6NUR_protein|mol2

> <Gold.PLP.Fitness>
36.4861

> <Gold.PLP.PLP>
-21.2257

> <Gold.PLP.part.hbond>
-6.0000

> <Gold.PLP.part.metal>
0.0000

> <Gold.PLP.part.buried>
-2.9163

> <Gold.PLP.part.nonpolar>
-12.6501

> <Gold.PLP.part.repulsive>
0.0872

> <Gold.PLP.ligand.clash>
0.0000

> <Gold.PLP.ligand.torsion>
0.3990

> <Gold.PLP.Chemscore.Hbond>
5.3477

> <Gold.PLP.Chemscore.CHOScore>
0.0000

> <Gold.PLP.Chemscore.Metal>
0.0000

> <Gold.Chemscore.Hbonds>
donor molecule, donor type, donor heavy atom, donor atom, acceptor molecule, acceptor atom, score
      L1  H    13    35       P1  8028  1.86
      L1  H    16    34       P1  7957  1.00
      P1  H  6896  6907       L1     7  0.85
      P1  H  6934  6947       L1    10  0.16
      P1  H  7989  7998       L1    16  0.47

> <Gold.PLP.Chemscore.Internal.Correction>
0.0152

> <Gold.Rescore>
     Score         DG    S(hbond)    S(metal)    S(lipo)     H(rot)  DE(clash)    DE(int)     intcor
     12.19     -12.72       2.96        0.00      32.35       2.51       0.02       0.51       ----

> <Gold.Chemscore.Fitness>
12.1910

> <Gold.Chemscore.DG>
-12.7242

> <Gold.Chemscore.ZeroCoef>
-5.4800

> <Gold.Chemscore.Hbond>
2.9559

> <Gold.Chemscore.Metal>
0.0000

> <Gold.Chemscore.Lipo>
32.3465

> <Gold.Chemscore.Internal_Hbond>
0.0000

> <Gold.Chemscore.DEClash>
0.0222

> <Gold.Chemscore.DEInternal>
0.5110

> <Gold.Chemscore.Rot>
2.5051

> <Gold.Chemscore.Internal.Correction>
   9.000000E+99

> <Gold.Chemscore.Hbonds>
donor molecule, donor type, donor heavy atom, donor atom, acceptor molecule, acceptor atom, score
      L1  H    13    35       P1  8028  0.40
      L1  H    16    34       P1  7957  1.00
      P1  H  6896  6907       L1     7  0.13
      P1  H  6934  6947       L1    10  0.16
      P1  H  7989  7998       L1    16  0.03

> <Gold.Chemscore.Hbond.Weighted>
-9.8727

> <Gold.Chemscore.Metal.Weighted>
-0.0000

> <Gold.Chemscore.Lipo.Weighted>
-3.7845

> <Gold.Chemscore.Internal_Hbond.Weighted>
0.0000

> <Gold.Chemscore.DEClash.Weighted>
0.0222

> <Gold.Chemscore.DEInternal.Weighted>
0.5110

> <Gold.Chemscore.Rot.Weighted>
6.4131

> <Gold.Chemscore.Internal.Correction.Weighted>
   9.000000E+99

> <Gold.Protein.RotatedTorsions>
[ 6907 6896 6895 6894 ] final  -74.66 input  -60.11 | X-H torsion
[ 7974 7965 7964 7962 ] final  -32.81 input  175.53 | X-H torsion
[ 8008 7997 7996 7995 ] final  123.78 input   59.86 | X-H torsion
[ 10167 10162 10161 10158 ] final   41.90 input  -65.29 | X-H torsion
[ 10718 10713 10712 10709 ] final  168.03 input   66.30 | X-H torsion
[ 10763 10752 10751 10750 ] final -178.00 input  -60.55 | X-H torsion
[ 11005 11000 10999 10996 ] final -103.77 input  -57.11 | X-H torsion

> <Gold.Protein.ActiveResidues>
 VAL166  LYS551  ARG553  GLY616  TRP617  ASP618  TYR619  PRO620  LYS621  CYS622 
 ASP623  PHE694  ASN695  SER759  ASP760  ASP761  ALA762  ILE779  LEU786  VAL792 
 PHE793  MET794  SER795  GLU796  ALA797  LYS798  CYS799  TRP800  GLU811  SER814 

> <Gold.Protein.RotatedAtoms>
  150.7085  134.4837  159.5482 H   0  0  0  0  0  0  0  0  0  0  0  0  # atno 6907 bound_to 6896
  152.2469  134.8170  160.0461 H   0  0  0  0  0  0  0  0  0  0  0  0  # atno 6908 bound_to 6896
  151.8931  133.3485  159.3842 H   0  0  0  0  0  0  0  0  0  0  0  0  # atno 6909 bound_to 6896
  146.0960  140.5839  142.8842 H   0  0  0  0  0  0  0  0  0  0  0  0  # atno 7974 bound_to 7965
  156.2778  140.2755  156.1683 H   0  0  0  0  0  0  0  0  0  0  0  0  # atno 8008 bound_to 7997
  155.0682  140.0387  157.2617 H   0  0  0  0  0  0  0  0  0  0  0  0  # atno 8009 bound_to 7997
  154.7062  140.2659  155.6678 H   0  0  0  0  0  0  0  0  0  0  0  0  # atno 8010 bound_to 7997
  140.3598  144.2244  150.6139 H   0  0  0  0  0  0  0  0  0  0  0  0  # atno 10167 bound_to 10162
  157.0430  131.0292  151.2707 H   0  0  0  0  0  0  0  0  0  0  0  0  # atno 10718 bound_to 10713
  154.5531  135.2814  155.0990 H   0  0  0  0  0  0  0  0  0  0  0  0  # atno 10763 bound_to 10752
  154.2427  135.6354  153.5216 H   0  0  0  0  0  0  0  0  0  0  0  0  # atno 10764 bound_to 10752
  153.0008  135.5564  154.6103 H   0  0  0  0  0  0  0  0  0  0  0  0  # atno 10765 bound_to 10752
  141.1131  133.8668  157.1528 H   0  0  0  0  0  0  0  0  0  0  0  0  # atno 11005 bound_to 11000
  144.7396  140.4905  143.6879 LP  0  0  0  0  0  0  0  0  0  0  0  0  # atno 17320 bound_to 7965
  145.5947  139.1498  143.3162 LP  0  0  0  0  0  0  0  0  0  0  0  0  # atno 17321 bound_to 7965
  140.5138  143.2283  151.8494 LP  0  0  0  0  0  0  0  0  0  0  0  0  # atno 17342 bound_to 10162
  139.4815  144.4918  151.9175 LP  0  0  0  0  0  0  0  0  0  0  0  0  # atno 17343 bound_to 10162
  157.5090  130.7927  149.7685 LP  0  0  0  0  0  0  0  0  0  0  0  0  # atno 17370 bound_to 10713
  156.0032  130.3869  150.2527 LP  0  0  0  0  0  0  0  0  0  0  0  0  # atno 17371 bound_to 10713
  140.0036  135.0018  157.0244 LP  0  0  0  0  0  0  0  0  0  0  0  0  # atno 17394 bound_to 11000
  140.4721  134.1375  155.7204 LP  0  0  0  0  0  0  0  0  0  0  0  0  # atno 17395 bound_to 11000

$$$$
