AV-unprocessed.smi:3348|AV-procd|sdf|12924|dock8
  -GOLD-   2272019353D 1   1.00000     0.00000
 Structure written by MMmdl.
 46 47  0  0  0  0  0  0  0  0  1 V2000
  144.2136  136.1393  153.3514 C   0  0  0  0  0  0  0  0  0  0  0  0
  145.6081  135.8763  152.7571 C   0  0  1  0  0  0  0  0  0  0  0  0
  145.5789  135.7619  151.2125 C   0  0  0  0  0  0  0  0  0  0  0  0
  145.5652  134.3897  150.7371 N   0  0  0  0  0  0  0  0  0  0  0  0
  144.6157  133.7608  149.9593 C   0  0  0  0  0  0  0  0  0  0  0  0
  145.0404  132.4791  149.7568 C   0  0  0  0  0  0  0  0  0  0  0  0
  146.2786  132.4193  150.4548 C   0  0  0  0  0  0  0  0  0  0  0  0
  146.5924  133.5654  151.0369 N   0  0  0  0  0  0  0  0  0  0  0  0
  146.5232  136.9302  153.2069 N   0  0  0  0  0  0  0  0  0  0  0  0
  146.7115  137.0292  154.6536 C   0  0  0  0  0  0  0  0  0  0  0  0
  148.0387  137.7291  154.9901 C   0  0  0  0  0  0  0  0  0  0  0  0
  148.4264  138.6606  153.9868 O   0  0  0  0  0  0  0  0  0  0  0  0
  149.6627  139.3282  154.2171 C   0  0  2  0  0  0  0  0  0  0  0  0
  150.7320  138.2469  154.4611 C   0  0  0  0  0  0  0  0  0  0  0  0
  152.0852  138.8693  154.8336 C   0  0  0  0  0  0  0  0  0  0  0  0
  151.9479  139.7859  156.0578 C   0  0  0  0  0  0  0  0  0  0  0  0
  150.8809  140.8671  155.8241 C   0  0  0  0  0  0  0  0  0  0  0  0
  149.5163  140.2564  155.4444 C   0  0  1  0  0  0  0  0  0  0  0  0
  148.4765  141.3629  155.2061 C   0  0  0  0  0  0  0  0  0  0  0  0
  143.5247  135.3204  153.1428 H   0  0  0  0  0  0  0  0  0  0  0  0
  143.7768  137.0539  152.9493 H   0  0  0  0  0  0  0  0  0  0  0  0
  144.2646  136.2435  154.4357 H   0  0  0  0  0  0  0  0  0  0  0  0
  145.9541  134.9232  153.1593 H   0  0  0  0  0  0  0  0  0  0  0  0
  144.6965  136.2673  150.8168 H   0  0  0  0  0  0  0  0  0  0  0  0
  146.4452  136.2515  150.7671 H   0  0  0  0  0  0  0  0  0  0  0  0
  143.7266  134.2714  149.6197 H   0  0  0  0  0  0  0  0  0  0  0  0
  144.5431  131.7029  149.1944 H   0  0  0  0  0  0  0  0  0  0  0  0
  146.9553  131.5832  150.5533 H   0  0  0  0  0  0  0  0  0  0  0  0
  147.4246  136.8219  152.7529 H   0  0  0  0  0  0  0  0  0  0  0  0
  145.8690  137.5431  155.1163 H   0  0  0  0  0  0  0  0  0  0  0  0
  146.7430  136.0328  155.0921 H   0  0  0  0  0  0  0  0  0  0  0  0
  147.9667  138.2372  155.9527 H   0  0  0  0  0  0  0  0  0  0  0  0
  148.8311  136.9876  155.0974 H   0  0  0  0  0  0  0  0  0  0  0  0
  149.9616  139.9312  153.3573 H   0  0  0  0  0  0  0  0  0  0  0  0
  150.4056  137.5840  155.2635 H   0  0  0  0  0  0  0  0  0  0  0  0
  150.8444  137.6229  153.5741 H   0  0  0  0  0  0  0  0  0  0  0  0
  152.8131  138.0833  155.0369 H   0  0  0  0  0  0  0  0  0  0  0  0
  152.4716  139.4397  153.9883 H   0  0  0  0  0  0  0  0  0  0  0  0
  151.6807  139.1916  156.9323 H   0  0  0  0  0  0  0  0  0  0  0  0
  152.9074  140.2524  156.2821 H   0  0  0  0  0  0  0  0  0  0  0  0
  150.7796  141.4767  156.7227 H   0  0  0  0  0  0  0  0  0  0  0  0
  151.2159  141.5395  155.0330 H   0  0  0  0  0  0  0  0  0  0  0  0
  149.1729  139.6540  156.2868 H   0  0  0  0  0  0  0  0  0  0  0  0
  148.7530  141.9905  154.3583 H   0  0  0  0  0  0  0  0  0  0  0  0
  148.3817  142.0069  156.0807 H   0  0  0  0  0  0  0  0  0  0  0  0
  147.4908  140.9442  155.0026 H   0  0  0  0  0  0  0  0  0  0  0  0
  1  2  1  0  0  0  0
  1 20  1  0  0  0  0
  1 21  1  0  0  0  0
  1 22  1  0  0  0  0
  2  3  1  0  0  0  0
  2  9  1  0  0  0  0
  2 23  1  0  0  0  0
  3  4  1  0  0  0  0
  3 24  1  0  0  0  0
  3 25  1  0  0  0  0
  4  8  1  0  0  0  0
  4  5  1  0  0  0  0
  5  6  2  0  0  0  0
  5 26  1  0  0  0  0
  6  7  1  0  0  0  0
  6 27  1  0  0  0  0
  7  8  2  0  0  0  0
  7 28  1  0  0  0  0
  9 10  1  0  0  0  0
  9 29  1  0  0  0  0
 10 11  1  0  0  0  0
 10 30  1  0  0  0  0
 10 31  1  0  0  0  0
 11 12  1  0  0  0  0
 11 32  1  0  0  0  0
 11 33  1  0  0  0  0
 12 13  1  0  0  0  0
 13 18  1  0  0  0  0
 13 14  1  0  0  0  0
 13 34  1  0  0  0  0
 14 15  1  0  0  0  0
 14 35  1  0  0  0  0
 14 36  1  0  0  0  0
 15 16  1  0  0  0  0
 15 37  1  0  0  0  0
 15 38  1  0  0  0  0
 16 17  1  0  0  0  0
 16 39  1  0  0  0  0
 16 40  1  0  0  0  0
 17 18  1  0  0  0  0
 17 41  1  0  0  0  0
 17 42  1  0  0  0  0
 18 19  1  0  0  0  0
 18 43  1  0  0  0  0
 19 44  1  0  0  0  0
 19 45  1  0  0  0  0
 19 46  1  0  0  0  0
M  END
> <s_m_source_file>
AV-unprocessed.smi

> <i_m_source_file_index>
3348

> <i_lp_mmshare_version>
43012

> <i_f3d_flags>
0

> <s_epik_input>
bjFbY0hdW2NIXVtjSF1uMVtDSDJdW0NAQEhdKFtDSDNdKVtOSF1bQ0gyXVtDSDJdT1tDQEBIXTJbQ0gyXVtDSDJdW0NIMl1bQ0gyXVtDQEhdMltDSDNd

> <s_epik_cmdline>
J2VwaWtfcHl0aG9uJywgJy1waCcsICc3LjAnLCAnLXRuJywgJzgnLCAnLW1hJywgJzIwMCcsICctbWV0YWxfYmluZGluZycsICctaW1hZScsICc8aW5maWxlLm1hZT4nLCAnLW9tYWUnLCAnPG91dGZpbGUubWFlPic=

> <r_lp_tautomer_probability>
1

> <r_epik_Ionization_Penalty>
2.46945

> <r_epik_Ionization_Penalty_Charging>
0

> <r_epik_Ionization_Penalty_Neutral>
2.46945

> <r_epik_State_Penalty>
2.6322

> <r_epik_Charging_Adjusted_Penalty>
2.6322

> <i_epik_Tot_Q>
0

> <i_epik_Tot_abs_Q>
0

> <r_epik_Metal_State_Penalty>
2.63217

> <b_epik_Metal_Only>
0

> <s_lp_Force_Field>
OPLS_2005

> <r_lp_Energy>
18.9542

> <b_lp_Chiralities_Consistent>
1

> <s_lp_Variant>
AV-unprocessed.smi:3348-10

> <Gold.Version>
5.8.1

> <Gold.Id.Protein>
6NUR|6NUR_protein|mol2

> <Gold.PLP.Fitness>
42.8418

> <Gold.PLP.PLP>
-35.5966

> <Gold.PLP.part.hbond>
-1.0000

> <Gold.PLP.part.metal>
0.0000

> <Gold.PLP.part.buried>
-2.2686

> <Gold.PLP.part.nonpolar>
-32.4518

> <Gold.PLP.part.repulsive>
0.4161

> <Gold.PLP.ligand.clash>
0.0000

> <Gold.PLP.ligand.torsion>
0.9066

> <Gold.PLP.Chemscore.Hbond>
1.0000

> <Gold.PLP.Chemscore.CHOScore>
1.9959

> <Gold.PLP.Chemscore.Metal>
0.0000

> <Gold.Chemscore.Hbonds>
donor molecule, donor type, donor heavy atom, donor atom, acceptor molecule, acceptor atom, score
      L1  H     9    29       P1  7948  1.00
      L1  C     5    26       P1 10186  0.53
      L1  C     7    28       P1 10747  1.00

> <Gold.PLP.Chemscore.Internal.Correction>
0.0708

> <Gold.Rescore>
     Score         DG    S(hbond)    S(metal)    S(lipo)     H(rot)  DE(clash)    DE(int)     intcor
     14.05     -15.24       1.00        0.00      92.60       1.72       0.23       0.96       ----

> <Gold.Chemscore.Fitness>
14.0523

> <Gold.Chemscore.DG>
-15.2362

> <Gold.Chemscore.ZeroCoef>
-5.4800

> <Gold.Chemscore.Hbond>
0.9983

> <Gold.Chemscore.Metal>
0.0000

> <Gold.Chemscore.Lipo>
92.6026

> <Gold.Chemscore.Internal_Hbond>
0.0000

> <Gold.Chemscore.DEClash>
0.2258

> <Gold.Chemscore.DEInternal>
0.9581

> <Gold.Chemscore.Rot>
1.7237

> <Gold.Chemscore.Internal.Correction>
   9.000000E+99

> <Gold.Chemscore.Hbonds>
donor molecule, donor type, donor heavy atom, donor atom, acceptor molecule, acceptor atom, score
      L1  H     9    29       P1  7948  1.00

> <Gold.Chemscore.Hbond.Weighted>
-3.3342

> <Gold.Chemscore.Metal.Weighted>
-0.0000

> <Gold.Chemscore.Lipo.Weighted>
-10.8345

> <Gold.Chemscore.Internal_Hbond.Weighted>
0.0000

> <Gold.Chemscore.DEClash.Weighted>
0.2258

> <Gold.Chemscore.DEInternal.Weighted>
0.9581

> <Gold.Chemscore.Rot.Weighted>
4.4126

> <Gold.Chemscore.Internal.Correction.Weighted>
   9.000000E+99

> <Gold.Protein.RotatedTorsions>
[ 6907 6896 6895 6894 ] final -107.49 input  -60.11 | X-H torsion
[ 7974 7965 7964 7962 ] final  -88.46 input  175.53 | X-H torsion
[ 8008 7997 7996 7995 ] final   95.92 input   59.86 | X-H torsion
[ 10167 10162 10161 10158 ] final  164.58 input  -65.29 | X-H torsion
[ 10718 10713 10712 10709 ] final  -25.28 input   66.30 | X-H torsion
[ 10763 10752 10751 10750 ] final -129.62 input  -60.55 | X-H torsion
[ 11005 11000 10999 10996 ] final  177.90 input  -57.11 | X-H torsion

> <Gold.Protein.ActiveResidues>
 VAL166  LYS551  ARG553  GLY616  TRP617  ASP618  TYR619  PRO620  LYS621  CYS622 
 ASP623  PHE694  ASN695  SER759  ASP760  ASP761  ALA762  ILE779  LEU786  VAL792 
 PHE793  MET794  SER795  GLU796  ALA797  LYS798  CYS799  TRP800  GLU811  SER814 

> <Gold.Protein.RotatedAtoms>
  150.7447  133.9819  159.3578 H   0  0  0  0  0  0  0  0  0  0  0  0  # atno 6907 bound_to 6896
  151.7761  135.0772  160.0376 H   0  0  0  0  0  0  0  0  0  0  0  0  # atno 6908 bound_to 6896
  152.3306  133.5917  159.5843 H   0  0  0  0  0  0  0  0  0  0  0  0  # atno 6909 bound_to 6896
  145.4529  140.9561  143.2012 H   0  0  0  0  0  0  0  0  0  0  0  0  # atno 7974 bound_to 7965
  156.0741  140.3280  155.7612 H   0  0  0  0  0  0  0  0  0  0  0  0  # atno 8008 bound_to 7997
  155.5259  140.0589  157.2915 H   0  0  0  0  0  0  0  0  0  0  0  0  # atno 8009 bound_to 7997
  154.4546  140.1936  156.0436 H   0  0  0  0  0  0  0  0  0  0  0  0  # atno 8010 bound_to 7997
  139.4891  144.4220  151.9174 H   0  0  0  0  0  0  0  0  0  0  0  0  # atno 10167 bound_to 10162
  156.4665  130.4515  149.6896 H   0  0  0  0  0  0  0  0  0  0  0  0  # atno 10718 bound_to 10713
  154.8757  135.3889  154.3949 H   0  0  0  0  0  0  0  0  0  0  0  0  # atno 10763 bound_to 10752
  153.4681  135.7029  153.6015 H   0  0  0  0  0  0  0  0  0  0  0  0  # atno 10764 bound_to 10752
  153.4485  135.3839  155.2238 H   0  0  0  0  0  0  0  0  0  0  0  0  # atno 10765 bound_to 10752
  140.3892  134.6877  157.4497 H   0  0  0  0  0  0  0  0  0  0  0  0  # atno 11005 bound_to 11000
  144.8050  139.6068  143.7055 LP  0  0  0  0  0  0  0  0  0  0  0  0  # atno 17320 bound_to 7965
  146.2494  139.6167  142.9437 LP  0  0  0  0  0  0  0  0  0  0  0  0  # atno 17321 bound_to 7965
  140.3665  144.2909  150.5926 LP  0  0  0  0  0  0  0  0  0  0  0  0  # atno 17342 bound_to 10162
  140.5357  143.2234  151.8167 LP  0  0  0  0  0  0  0  0  0  0  0  0  # atno 17343 bound_to 10162
  156.3662  130.7507  151.2485 LP  0  0  0  0  0  0  0  0  0  0  0  0  # atno 17370 bound_to 10713
  157.7494  131.0336  150.4279 LP  0  0  0  0  0  0  0  0  0  0  0  0  # atno 17371 bound_to 10713
  140.0419  134.6255  155.8970 LP  0  0  0  0  0  0  0  0  0  0  0  0  # atno 17394 bound_to 11000
  141.1896  133.6566  156.5377 LP  0  0  0  0  0  0  0  0  0  0  0  0  # atno 17395 bound_to 11000

$$$$
