AV-unprocessed.smi:56|AV-procd|sdf|578|dock1
  -GOLD-   2262016483D 1   1.00000     0.00000
 Structure written by MMmdl.
 23 24  0  0  0  0  0  0  0  0  2 V2000
  150.1544  138.5596  153.1684 O   0  0  0  0  0  0  0  0  0  0  0  0
  150.1273  138.5325  154.5867 C   0  0  2  0  0  0  0  0  0  0  0  0
  150.2346  139.9333  155.1510 C   0  0  0  0  0  0  0  0  0  0  0  0
  151.2544  140.4955  155.9794 C   0  0  0  0  0  0  0  0  0  0  0  0
  150.8481  141.7818  156.1921 C   0  0  0  0  0  0  0  0  0  0  0  0
  149.6606  141.9329  155.5187 N   0  0  0  0  0  0  0  0  0  0  0  0
  149.2757  140.8121  154.8817 N   0  0  0  0  0  0  0  0  0  0  0  0
  151.2224  137.5845  155.0873 C   0  0  0  0  0  0  0  0  0  0  0  0
  150.6212  136.1791  154.9354 C   0  0  0  0  0  0  0  0  0  0  0  0
  149.1577  136.3538  154.8285 N   0  3  0  0  0  0  0  0  0  0  0  0
  148.8568  137.7847  155.0167 C   0  0  0  0  0  0  0  0  0  0  0  0
  149.1094  142.7791  155.4867 H   0  0  0  0  0  0  0  0  0  0  0  0
  149.7320  137.7828  152.8369 H   0  0  0  0  0  0  0  0  0  0  0  0
  152.1491  140.0294  156.3646 H   0  0  0  0  0  0  0  0  0  0  0  0
  151.2958  142.5864  156.7569 H   0  0  0  0  0  0  0  0  0  0  0  0
  152.1750  137.7083  154.5703 H   0  0  0  0  0  0  0  0  0  0  0  0
  151.4044  137.7695  156.1474 H   0  0  0  0  0  0  0  0  0  0  0  0
  150.9832  135.6967  154.0270 H   0  0  0  0  0  0  0  0  0  0  0  0
  150.8768  135.5397  155.7809 H   0  0  0  0  0  0  0  0  0  0  0  0
  148.8716  136.0813  153.8991 H   0  0  0  0  0  0  0  0  0  0  0  0
  148.6726  137.9250  156.0827 H   0  0  0  0  0  0  0  0  0  0  0  0
  147.9606  138.0978  154.4794 H   0  0  0  0  0  0  0  0  0  0  0  0
  148.6704  135.7921  155.5125 H   0  0  0  0  0  0  0  0  0  0  0  0
  1  2  1  0  0  0  0
  1 13  1  0  0  0  0
  2 11  1  0  0  0  0
  2  8  1  0  0  0  0
  2  3  1  0  0  0  0
  3  7  2  0  0  0  0
  3  4  1  0  0  0  0
  4  5  2  0  0  0  0
  4 14  1  0  0  0  0
  5  6  1  0  0  0  0
  5 15  1  0  0  0  0
  6  7  1  0  0  0  0
  6 12  1  0  0  0  0
  8  9  1  0  0  0  0
  8 16  1  0  0  0  0
  8 17  1  0  0  0  0
  9 10  1  0  0  0  0
  9 18  1  0  0  0  0
  9 19  1  0  0  0  0
 10 11  1  0  0  0  0
 10 20  1  0  0  0  0
 10 23  1  0  0  0  0
 11 21  1  0  0  0  0
 11 22  1  0  0  0  0
M  CHG  1  10   1
M  END
> <s_m_source_file>
AV-unprocessed.smi

> <i_m_source_file_index>
56

> <i_lp_mmshare_version>
43012

> <i_f3d_flags>
0

> <s_epik_input>
W0NIMl0xW05IXVtDSDJdW0NIMl1bQ0BAXTEoW09IXSljMltjSF1bY0hdbltuSF0y

> <s_epik_cmdline>
J2VwaWtfcHl0aG9uJywgJy1waCcsICc3LjAnLCAnLXRuJywgJzgnLCAnLW1hJywgJzIwMCcsICctbWV0YWxfYmluZGluZycsICctaW1hZScsICc8aW5maWxlLm1hZT4nLCAnLW9tYWUnLCAnPG91dGZpbGUubWFlPic=

> <r_lp_tautomer_probability>
0.5

> <r_epik_Ionization_Penalty>
0.000592189

> <r_epik_Ionization_Penalty_Charging>
0.00059155

> <r_epik_Ionization_Penalty_Neutral>
6.39784e-07

> <r_epik_State_Penalty>
0.41068

> <r_epik_Charging_Adjusted_Penalty>
0.411271

> <i_epik_Tot_Q>
1

> <i_epik_Tot_abs_Q>
1

> <r_epik_Metal_State_Penalty>
0.410682

> <b_epik_Metal_Only>
0

> <s_lp_Force_Field>
OPLS_2005

> <r_lp_Energy>
24.7565

> <b_lp_Chiralities_Consistent>
1

> <s_lp_Variant>
AV-unprocessed.smi:56-2

> <Gold.Version>
5.8.1

> <Gold.Id.Protein>
6NUR|6NUR_protein|mol2

> <Gold.PLP.Fitness>
30.4247

> <Gold.PLP.PLP>
-18.4793

> <Gold.PLP.part.hbond>
-4.5421

> <Gold.PLP.part.metal>
0.0000

> <Gold.PLP.part.buried>
-0.4873

> <Gold.PLP.part.nonpolar>
-13.7212

> <Gold.PLP.part.repulsive>
0.2852

> <Gold.PLP.ligand.clash>
0.0000

> <Gold.PLP.ligand.torsion>
0.0382

> <Gold.PLP.Chemscore.Hbond>
4.0000

> <Gold.PLP.Chemscore.CHOScore>
0.0000

> <Gold.PLP.Chemscore.Metal>
0.0000

> <Gold.Chemscore.Hbonds>
donor molecule, donor type, donor heavy atom, donor atom, acceptor molecule, acceptor atom, score
      L1  H     1    13       P1  7948  1.00
      L1  H     6    12       P1  8028  1.00
      L1  H    10    20       P1  7948  2.00

> <Gold.PLP.Chemscore.Internal.Correction>
0.0218

> <Gold.Rescore>
     Score         DG    S(hbond)    S(metal)    S(lipo)     H(rot)  DE(clash)    DE(int)     intcor
     15.14     -15.67       2.69        0.00      43.10       1.50       0.44       0.09       ----

> <Gold.Chemscore.Fitness>
15.1411

> <Gold.Chemscore.DG>
-15.6657

> <Gold.Chemscore.ZeroCoef>
-5.4800

> <Gold.Chemscore.Hbond>
2.6884

> <Gold.Chemscore.Metal>
0.0000

> <Gold.Chemscore.Lipo>
43.0997

> <Gold.Chemscore.Internal_Hbond>
0.0000

> <Gold.Chemscore.DEClash>
0.4393

> <Gold.Chemscore.DEInternal>
0.0853

> <Gold.Chemscore.Rot>
1.4985

> <Gold.Chemscore.Internal.Correction>
   9.000000E+99

> <Gold.Chemscore.Hbonds>
donor molecule, donor type, donor heavy atom, donor atom, acceptor molecule, acceptor atom, score
      L1  H     1    13       P1  7948  0.50
      L1  H     6    12       P1  8028  0.96
      L1  H    10    20       P1  7948  0.89

> <Gold.Chemscore.Hbond.Weighted>
-8.9792

> <Gold.Chemscore.Metal.Weighted>
-0.0000

> <Gold.Chemscore.Lipo.Weighted>
-5.0427

> <Gold.Chemscore.Internal_Hbond.Weighted>
0.0000

> <Gold.Chemscore.DEClash.Weighted>
0.4393

> <Gold.Chemscore.DEInternal.Weighted>
0.0853

> <Gold.Chemscore.Rot.Weighted>
3.8362

> <Gold.Chemscore.Internal.Correction.Weighted>
   9.000000E+99

> <Gold.Protein.RotatedTorsions>
[ 6907 6896 6895 6894 ] final  159.99 input  -60.11 | X-H torsion
[ 7974 7965 7964 7962 ] final  -27.34 input  175.53 | X-H torsion
[ 8008 7997 7996 7995 ] final -143.56 input   59.86 | X-H torsion
[ 10167 10162 10161 10158 ] final  125.80 input  -65.29 | X-H torsion
[ 10718 10713 10712 10709 ] final -103.84 input   66.30 | X-H torsion
[ 10763 10752 10751 10750 ] final    0.33 input  -60.55 | X-H torsion
[ 11005 11000 10999 10996 ] final -120.27 input  -57.11 | X-H torsion

> <Gold.Protein.ActiveResidues>
 VAL166  LYS551  ARG553  GLY616  TRP617  ASP618  TYR619  PRO620  LYS621  CYS622 
 ASP623  PHE694  ASN695  SER759  ASP760  ASP761  ALA762  ILE779  LEU786  VAL792 
 PHE793  MET794  SER795  GLU796  ALA797  LYS798  CYS799  TRP800  GLU811  SER814 

> <Gold.Protein.RotatedAtoms>
  151.9773  133.3746  159.4093 H   0  0  0  0  0  0  0  0  0  0  0  0  # atno 6907 bound_to 6896
  150.6940  134.4076  159.5156 H   0  0  0  0  0  0  0  0  0  0  0  0  # atno 6908 bound_to 6896
  152.1789  134.8770  160.0579 H   0  0  0  0  0  0  0  0  0  0  0  0  # atno 6909 bound_to 6896
  146.1364  140.5139  142.8671 H   0  0  0  0  0  0  0  0  0  0  0  0  # atno 7974 bound_to 7965
  155.5126  140.0584  157.2921 H   0  0  0  0  0  0  0  0  0  0  0  0  # atno 8008 bound_to 7997
  154.4546  140.1966  156.0364 H   0  0  0  0  0  0  0  0  0  0  0  0  # atno 8009 bound_to 7997
  156.0774  140.3252  155.7655 H   0  0  0  0  0  0  0  0  0  0  0  0  # atno 8010 bound_to 7997
  139.5666  144.6914  151.3894 H   0  0  0  0  0  0  0  0  0  0  0  0  # atno 10167 bound_to 10162
  156.0281  130.5487  150.7311 H   0  0  0  0  0  0  0  0  0  0  0  0  # atno 10718 bound_to 10713
  153.3220  135.6970  153.7022 H   0  0  0  0  0  0  0  0  0  0  0  0  # atno 10763 bound_to 10752
  153.5858  135.3489  155.2893 H   0  0  0  0  0  0  0  0  0  0  0  0  # atno 10764 bound_to 10752
  154.8600  135.4306  154.2387 H   0  0  0  0  0  0  0  0  0  0  0  0  # atno 10765 bound_to 10752
  141.0156  134.0200  157.3354 H   0  0  0  0  0  0  0  0  0  0  0  0  # atno 11005 bound_to 11000
  144.7744  140.5708  143.6648 LP  0  0  0  0  0  0  0  0  0  0  0  0  # atno 17320 bound_to 7965
  145.5146  139.1478  143.3586 LP  0  0  0  0  0  0  0  0  0  0  0  0  # atno 17321 bound_to 7965
  140.6949  143.7772  150.7312 LP  0  0  0  0  0  0  0  0  0  0  0  0  # atno 17342 bound_to 10162
  140.1266  143.4564  152.2280 LP  0  0  0  0  0  0  0  0  0  0  0  0  # atno 17343 bound_to 10162
  157.4903  131.0910  151.0434 LP  0  0  0  0  0  0  0  0  0  0  0  0  # atno 17370 bound_to 10713
  157.0843  130.5916  149.5426 LP  0  0  0  0  0  0  0  0  0  0  0  0  # atno 17371 bound_to 10713
  139.9115  135.0191  156.7710 LP  0  0  0  0  0  0  0  0  0  0  0  0  # atno 17394 bound_to 11000
  140.6660  133.9602  155.7831 LP  0  0  0  0  0  0  0  0  0  0  0  0  # atno 17395 bound_to 11000

$$$$
