AV-unprocessed.smi:1611|AV-procd|sdf|6475|dock3
  -GOLD-   22720 7133D 1   1.00000     0.00000
 Structure written by MMmdl.
 48 49  0  0  0  0  0  0  0  0  1 V2000
  154.1906  142.2384  163.4430 C   0  0  0  0  0  0  0  0  0  0  0  0
  153.5763  142.2121  162.0540 C   0  0  0  0  0  0  0  0  0  0  0  0
  152.6081  143.1801  161.7178 C   0  0  0  0  0  0  0  0  0  0  0  0
  152.0213  143.1869  160.4405 C   0  0  0  0  0  0  0  0  0  0  0  0
  152.3900  142.2191  159.4863 C   0  0  0  0  0  0  0  0  0  0  0  0
  151.7509  142.2444  158.1105 C   0  0  0  0  0  0  0  0  0  0  0  0
  153.3476  141.2335  159.8189 C   0  0  0  0  0  0  0  0  0  0  0  0
  153.6942  140.2888  158.8871 O   0  0  0  0  0  0  0  0  0  0  0  0
  152.7310  139.2549  158.7401 C   0  0  0  0  0  0  0  0  0  0  0  0
  153.3676  138.0808  157.9776 C   0  0  1  0  0  0  0  0  0  0  0  0
  153.1922  136.9263  158.7756 O   0  0  0  0  0  0  0  0  0  0  0  0
  152.6804  137.8396  156.6153 C   0  0  0  0  0  0  0  0  0  0  0  0
  151.3328  138.4215  156.5698 N   0  0  0  0  0  0  0  0  0  0  0  0
  150.4763  137.9322  157.5373 N   0  0  0  0  0  0  0  0  0  0  0  0
  149.2606  138.3594  157.6386 C   0  0  0  0  0  0  0  0  0  0  0  0
  148.4193  137.7534  158.7295 C   0  0  0  0  0  0  0  0  0  0  0  0
  148.7733  139.3797  156.7162 C   0  0  0  0  0  0  0  0  0  0  0  0
  147.3332  139.8449  156.8838 C   0  0  0  0  0  0  0  0  0  0  0  0
  149.6228  139.8500  155.7690 C   0  0  0  0  0  0  0  0  0  0  0  0
  149.2353  140.8465  154.8232 C   0  0  0  0  0  0  0  0  0  0  0  0
  148.9055  141.6601  154.0686 N   0  0  0  0  0  0  0  0  0  0  0  0
  151.0013  139.3699  155.6476 C   0  0  0  0  0  0  0  0  0  0  0  0
  151.7953  139.7773  154.7983 O   0  0  0  0  0  0  0  0  0  0  0  0
  153.9592  141.2378  161.0982 C   0  0  0  0  0  0  0  0  0  0  0  0
  155.0180  140.1985  161.4417 C   0  0  0  0  0  0  0  0  0  0  0  0
  153.6804  142.9533  164.0892 H   0  0  0  0  0  0  0  0  0  0  0  0
  155.2408  142.5258  163.3886 H   0  0  0  0  0  0  0  0  0  0  0  0
  154.1219  141.2575  163.9141 H   0  0  0  0  0  0  0  0  0  0  0  0
  152.3125  143.9280  162.4392 H   0  0  0  0  0  0  0  0  0  0  0  0
  151.2853  143.9391  160.1970 H   0  0  0  0  0  0  0  0  0  0  0  0
  152.4931  142.0550  157.3343 H   0  0  0  0  0  0  0  0  0  0  0  0
  151.2953  143.2139  157.9064 H   0  0  0  0  0  0  0  0  0  0  0  0
  150.9751  141.4820  158.0399 H   0  0  0  0  0  0  0  0  0  0  0  0
  152.3256  138.9288  159.7001 H   0  0  0  0  0  0  0  0  0  0  0  0
  151.8964  139.6612  158.1676 H   0  0  0  0  0  0  0  0  0  0  0  0
  154.4312  138.2754  157.8320 H   0  0  0  0  0  0  0  0  0  0  0  0
  153.6843  137.0344  159.5751 H   0  0  0  0  0  0  0  0  0  0  0  0
  153.3084  138.1861  155.7922 H   0  0  0  0  0  0  0  0  0  0  0  0
  152.5775  136.7657  156.4492 H   0  0  0  0  0  0  0  0  0  0  0  0
  147.5484  137.2490  158.3108 H   0  0  0  0  0  0  0  0  0  0  0  0
  148.0670  138.5209  159.4189 H   0  0  0  0  0  0  0  0  0  0  0  0
  148.9760  137.0186  159.3128 H   0  0  0  0  0  0  0  0  0  0  0  0
  147.0639  140.6216  156.1687 H   0  0  0  0  0  0  0  0  0  0  0  0
  147.1757  140.2532  157.8826 H   0  0  0  0  0  0  0  0  0  0  0  0
  146.6435  139.0127  156.7389 H   0  0  0  0  0  0  0  0  0  0  0  0
  155.4420  139.7364  160.5505 H   0  0  0  0  0  0  0  0  0  0  0  0
  154.5844  139.4110  162.0581 H   0  0  0  0  0  0  0  0  0  0  0  0
  155.8475  140.6464  161.9885 H   0  0  0  0  0  0  0  0  0  0  0  0
  1  2  1  0  0  0  0
  1 26  1  0  0  0  0
  1 27  1  0  0  0  0
  1 28  1  0  0  0  0
  2 24  1  0  0  0  0
  2  3  2  0  0  0  0
  3  4  1  0  0  0  0
  3 29  1  0  0  0  0
  4  5  2  0  0  0  0
  4 30  1  0  0  0  0
  5  6  1  0  0  0  0
  5  7  1  0  0  0  0
  6 31  1  0  0  0  0
  6 32  1  0  0  0  0
  6 33  1  0  0  0  0
  7  8  1  0  0  0  0
  7 24  2  0  0  0  0
  8  9  1  0  0  0  0
  9 10  1  0  0  0  0
  9 34  1  0  0  0  0
  9 35  1  0  0  0  0
 10 11  1  0  0  0  0
 10 12  1  0  0  0  0
 10 36  1  0  0  0  0
 11 37  1  0  0  0  0
 12 13  1  0  0  0  0
 12 38  1  0  0  0  0
 12 39  1  0  0  0  0
 13 22  1  0  0  0  0
 13 14  1  0  0  0  0
 14 15  2  0  0  0  0
 15 16  1  0  0  0  0
 15 17  1  0  0  0  0
 16 40  1  0  0  0  0
 16 41  1  0  0  0  0
 16 42  1  0  0  0  0
 17 18  1  0  0  0  0
 17 19  2  0  0  0  0
 18 43  1  0  0  0  0
 18 44  1  0  0  0  0
 18 45  1  0  0  0  0
 19 20  1  0  0  0  0
 19 22  1  0  0  0  0
 20 21  3  0  0  0  0
 22 23  2  0  0  0  0
 24 25  1  0  0  0  0
 25 46  1  0  0  0  0
 25 47  1  0  0  0  0
 25 48  1  0  0  0  0
M  END
> <s_m_source_file>
AV-unprocessed.smi

> <i_m_source_file_index>
1611

> <i_lp_mmshare_version>
43012

> <i_f3d_flags>
0

> <s_epik_input>
W0NIM11jMVtjSF1bY0hdYyhbQ0gzXSljKGMxW0NIM10pT1tDSDJdW0NASF0oW09IXSlbQ0gyXW4ybmMoW0NIM10pYyhbQ0gzXSljKEMjTiljMj1P

> <s_epik_cmdline>
J2VwaWtfcHl0aG9uJywgJy1waCcsICc3LjAnLCAnLXRuJywgJzgnLCAnLW1hJywgJzIwMCcsICctbWV0YWxfYmluZGluZycsICctaW1hZScsICc8aW5maWxlLm1hZT4nLCAnLW9tYWUnLCAnPG91dGZpbGUubWFlPic=

> <r_lp_tautomer_probability>
1

> <r_epik_Ionization_Penalty>
1.17331e-07

> <r_epik_Ionization_Penalty_Charging>
1.57223e-10

> <r_epik_Ionization_Penalty_Neutral>
1.17174e-07

> <r_epik_State_Penalty>
-0

> <r_epik_Charging_Adjusted_Penalty>
1.57223e-10

> <i_epik_Tot_Q>
0

> <i_epik_Tot_abs_Q>
0

> <r_epik_Metal_State_Penalty>
-0

> <b_epik_Metal_Only>
0

> <s_lp_Force_Field>
OPLS_2005

> <r_lp_Energy>
37.4128

> <b_lp_Chiralities_Consistent>
1

> <s_lp_Variant>
AV-unprocessed.smi:1611-2

> <Gold.Version>
5.8.1

> <Gold.Id.Protein>
6NUR|6NUR_protein|mol2

> <Gold.PLP.Fitness>
49.9924

> <Gold.PLP.PLP>
-45.4253

> <Gold.PLP.part.hbond>
-4.0000

> <Gold.PLP.part.metal>
0.0000

> <Gold.PLP.part.buried>
-3.8212

> <Gold.PLP.part.nonpolar>
-35.9542

> <Gold.PLP.part.repulsive>
0.6467

> <Gold.PLP.ligand.clash>
0.0000

> <Gold.PLP.ligand.torsion>
1.5492

> <Gold.PLP.Chemscore.Hbond>
2.5202

> <Gold.PLP.Chemscore.CHOScore>
0.0000

> <Gold.PLP.Chemscore.Metal>
0.0000

> <Gold.Chemscore.Hbonds>
donor molecule, donor type, donor heavy atom, donor atom, acceptor molecule, acceptor atom, score
      P1  H  7989  7998       L1    23  1.00
      P1  H  7997  8008       L1     8  0.88
      P1  H  8011  8017       L1    21  0.51

> <Gold.PLP.Chemscore.Internal.Correction>
0.1049

> <Gold.Rescore>
     Score         DG    S(hbond)    S(metal)    S(lipo)     H(rot)  DE(clash)    DE(int)     intcor
     18.22     -21.46       2.67        0.00     109.96       2.27       0.37       2.87       ----

> <Gold.Chemscore.Fitness>
18.2227

> <Gold.Chemscore.DG>
-21.4585

> <Gold.Chemscore.ZeroCoef>
-5.4800

> <Gold.Chemscore.Hbond>
2.6723

> <Gold.Chemscore.Metal>
0.0000

> <Gold.Chemscore.Lipo>
109.9629

> <Gold.Chemscore.Internal_Hbond>
0.0000

> <Gold.Chemscore.DEClash>
0.3694

> <Gold.Chemscore.DEInternal>
2.8664

> <Gold.Chemscore.Rot>
2.2706

> <Gold.Chemscore.Internal.Correction>
   9.000000E+99

> <Gold.Chemscore.Hbonds>
donor molecule, donor type, donor heavy atom, donor atom, acceptor molecule, acceptor atom, score
      P1  H  7989  7998       L1    23  0.95
      P1  H  7997  8008       L1     8  0.21
      P1  H  8011  8017       L1    21  0.49

> <Gold.Chemscore.Hbond.Weighted>
-8.9255

> <Gold.Chemscore.Metal.Weighted>
-0.0000

> <Gold.Chemscore.Lipo.Weighted>
-12.8657

> <Gold.Chemscore.Internal_Hbond.Weighted>
0.0000

> <Gold.Chemscore.DEClash.Weighted>
0.3694

> <Gold.Chemscore.DEInternal.Weighted>
2.8664

> <Gold.Chemscore.Rot.Weighted>
5.8127

> <Gold.Chemscore.Internal.Correction.Weighted>
   9.000000E+99

> <Gold.Protein.RotatedTorsions>
[ 6907 6896 6895 6894 ] final  140.13 input  -60.11 | X-H torsion
[ 7974 7965 7964 7962 ] final   26.21 input  175.53 | X-H torsion
[ 8008 7997 7996 7995 ] final  -96.59 input   59.86 | X-H torsion
[ 10167 10162 10161 10158 ] final  -59.06 input  -65.29 | X-H torsion
[ 10718 10713 10712 10709 ] final -147.02 input   66.30 | X-H torsion
[ 10763 10752 10751 10750 ] final  -63.20 input  -60.55 | X-H torsion
[ 11005 11000 10999 10996 ] final  -14.11 input  -57.11 | X-H torsion

> <Gold.Protein.ActiveResidues>
 VAL166  LYS551  ARG553  GLY616  TRP617  ASP618  TYR619  PRO620  LYS621  CYS622 
 ASP623  PHE694  ASN695  SER759  ASP760  ASP761  ALA762  ILE779  LEU786  VAL792 
 PHE793  MET794  SER795  GLU796  ALA797  LYS798  CYS799  TRP800  GLU811  SER814 

> <Gold.Protein.RotatedAtoms>
  152.2467  133.5180  159.5301 H   0  0  0  0  0  0  0  0  0  0  0  0  # atno 6907 bound_to 6896
  150.7080  134.1016  159.3977 H   0  0  0  0  0  0  0  0  0  0  0  0  # atno 6908 bound_to 6896
  151.8936  135.0406  160.0551 H   0  0  0  0  0  0  0  0  0  0  0  0  # atno 6909 bound_to 6896
  146.1849  139.7360  142.8874 H   0  0  0  0  0  0  0  0  0  0  0  0  # atno 7974 bound_to 7965
  154.7764  140.0470  157.1093 H   0  0  0  0  0  0  0  0  0  0  0  0  # atno 8008 bound_to 7997
  154.9757  140.3095  155.4948 H   0  0  0  0  0  0  0  0  0  0  0  0  # atno 8009 bound_to 7997
  156.2929  140.2245  156.4853 H   0  0  0  0  0  0  0  0  0  0  0  0  # atno 8010 bound_to 7997
  140.6158  143.2402  151.5599 H   0  0  0  0  0  0  0  0  0  0  0  0  # atno 10167 bound_to 10162
  156.4023  130.7940  151.2151 H   0  0  0  0  0  0  0  0  0  0  0  0  # atno 10718 bound_to 10713
  154.3114  135.6215  153.5467 H   0  0  0  0  0  0  0  0  0  0  0  0  # atno 10763 bound_to 10752
  152.9829  135.5702  154.5173 H   0  0  0  0  0  0  0  0  0  0  0  0  # atno 10764 bound_to 10752
  154.4823  135.2863  155.1537 H   0  0  0  0  0  0  0  0  0  0  0  0  # atno 10765 bound_to 10752
  140.7831  133.8347  155.9310 H   0  0  0  0  0  0  0  0  0  0  0  0  # atno 11005 bound_to 11000
  145.3967  141.0380  143.3093 LP  0  0  0  0  0  0  0  0  0  0  0  0  # atno 17320 bound_to 7965
  144.8380  139.5519  143.6913 LP  0  0  0  0  0  0  0  0  0  0  0  0  # atno 17321 bound_to 7965
  139.5398  144.2680  152.1327 LP  0  0  0  0  0  0  0  0  0  0  0  0  # atno 17342 bound_to 10162
  140.1889  144.4771  150.6489 LP  0  0  0  0  0  0  0  0  0  0  0  0  # atno 17343 bound_to 10162
  157.7504  131.0283  150.4043 LP  0  0  0  0  0  0  0  0  0  0  0  0  # atno 17370 bound_to 10713
  156.4324  130.3975  149.6751 LP  0  0  0  0  0  0  0  0  0  0  0  0  # atno 17371 bound_to 10713
  140.9463  134.1836  157.4761 LP  0  0  0  0  0  0  0  0  0  0  0  0  # atno 17394 bound_to 11000
  139.8740  134.9892  156.5445 LP  0  0  0  0  0  0  0  0  0  0  0  0  # atno 17395 bound_to 11000

$$$$
