AV-unprocessed.smi:805|AV-procd|sdf|3799|dock1
  -GOLD-   22720 1233D 1   1.00000     0.00000
 Structure written by MMmdl.
 40 41  0  0  0  0  0  0  0  0  1 V2000
  150.8423  141.0704  156.0180 C   0  0  0  0  0  0  0  0  0  0  0  0
  150.4229  139.8122  155.2548 C   0  0  0  0  0  0  0  0  0  0  0  0
  149.2681  140.1067  154.4872 O   0  0  0  0  0  0  0  0  0  0  0  0
  148.6254  138.9453  153.9855 C   0  0  1  0  0  0  0  0  0  0  0  0
  148.1602  137.9600  155.0618 C   0  0  0  0  0  0  0  0  0  0  0  0
  146.8647  137.8015  154.2586 C   0  0  2  0  0  0  0  0  0  0  0  0
  146.9574  136.6692  153.3356 N   0  0  0  0  0  0  0  0  0  0  0  0
  145.9551  135.8212  153.0687 C   0  0  0  0  0  0  0  0  0  0  0  0
  144.8385  135.9104  153.5784 O   0  0  0  0  0  0  0  0  0  0  0  0
  146.3292  134.8985  152.1659 N   0  0  0  0  0  0  0  0  0  0  0  0
  145.5538  133.8526  151.5971 C   0  0  0  0  0  0  0  0  0  0  0  0
  144.1504  133.9874  151.6145 C   0  0  0  0  0  0  0  0  0  0  0  0
  143.3561  132.9738  151.0458 C   0  0  0  0  0  0  0  0  0  0  0  0
  144.0010  131.8622  150.4695 C   0  0  0  0  0  0  0  0  0  0  0  0
  145.3429  131.7243  150.4299 N   0  0  0  0  0  0  0  0  0  0  0  0
  146.0989  132.6995  150.9792 C   0  0  0  0  0  0  0  0  0  0  0  0
  147.1452  139.1854  153.6030 C   0  0  0  0  0  0  0  0  0  0  0  0
  146.4562  140.3606  154.3102 C   0  0  0  0  0  0  0  0  0  0  0  0
  146.8608  139.3542  152.1057 C   0  0  0  0  0  0  0  0  0  0  0  0
  151.7325  140.8831  156.6186 H   0  0  0  0  0  0  0  0  0  0  0  0
  150.0499  141.4026  156.6892 H   0  0  0  0  0  0  0  0  0  0  0  0
  151.0661  141.8877  155.3322 H   0  0  0  0  0  0  0  0  0  0  0  0
  151.2331  139.4843  154.6019 H   0  0  0  0  0  0  0  0  0  0  0  0
  150.2174  139.0044  155.9584 H   0  0  0  0  0  0  0  0  0  0  0  0
  149.1841  138.4579  153.1834 H   0  0  0  0  0  0  0  0  0  0  0  0
  148.7708  137.0607  155.1508 H   0  0  0  0  0  0  0  0  0  0  0  0
  148.0009  138.4318  156.0327 H   0  0  0  0  0  0  0  0  0  0  0  0
  145.9766  137.7849  154.8927 H   0  0  0  0  0  0  0  0  0  0  0  0
  147.8420  136.5280  152.8702 H   0  0  0  0  0  0  0  0  0  0  0  0
  147.2593  135.0016  151.7878 H   0  0  0  0  0  0  0  0  0  0  0  0
  143.6852  134.8535  152.0623 H   0  0  0  0  0  0  0  0  0  0  0  0
  142.2788  133.0468  151.0502 H   0  0  0  0  0  0  0  0  0  0  0  0
  143.4238  131.0656  150.0237 H   0  0  0  0  0  0  0  0  0  0  0  0
  147.1630  132.5443  150.8940 H   0  0  0  0  0  0  0  0  0  0  0  0
  145.3808  140.3583  154.1296 H   0  0  0  0  0  0  0  0  0  0  0  0
  146.8445  141.3199  153.9665 H   0  0  0  0  0  0  0  0  0  0  0  0
  146.5986  140.3269  155.3906 H   0  0  0  0  0  0  0  0  0  0  0  0
  145.7978  139.2464  151.8875 H   0  0  0  0  0  0  0  0  0  0  0  0
  147.3927  138.6182  151.5026 H   0  0  0  0  0  0  0  0  0  0  0  0
  147.1724  140.3359  151.7476 H   0  0  0  0  0  0  0  0  0  0  0  0
  1  2  1  0  0  0  0
  1 20  1  0  0  0  0
  1 21  1  0  0  0  0
  1 22  1  0  0  0  0
  2  3  1  0  0  0  0
  2 23  1  0  0  0  0
  2 24  1  0  0  0  0
  3  4  1  0  0  0  0
  4 17  1  0  0  0  0
  4  5  1  0  0  0  0
  4 25  1  0  0  0  0
  5  6  1  0  0  0  0
  5 26  1  0  0  0  0
  5 27  1  0  0  0  0
  6  7  1  0  0  0  0
  6 17  1  0  0  0  0
  6 28  1  0  0  0  0
  7  8  1  0  0  0  0
  7 29  1  0  0  0  0
  8  9  2  0  0  0  0
  8 10  1  0  0  0  0
 10 11  1  0  0  0  0
 10 30  1  0  0  0  0
 11 16  1  0  0  0  0
 11 12  2  0  0  0  0
 12 13  1  0  0  0  0
 12 31  1  0  0  0  0
 13 14  2  0  0  0  0
 13 32  1  0  0  0  0
 14 15  1  0  0  0  0
 14 33  1  0  0  0  0
 15 16  2  0  0  0  0
 16 34  1  0  0  0  0
 17 18  1  0  0  0  0
 17 19  1  0  0  0  0
 18 35  1  0  0  0  0
 18 36  1  0  0  0  0
 18 37  1  0  0  0  0
 19 38  1  0  0  0  0
 19 39  1  0  0  0  0
 19 40  1  0  0  0  0
M  END
> <s_m_source_file>
AV-unprocessed.smi

> <i_m_source_file_index>
805

> <i_lp_mmshare_version>
43012

> <i_f3d_flags>
0

> <s_epik_input>
W0NIM11bQ0gyXU9bQ0BASF0oQzEoW0NIM10pW0NIM10pW0NIMl1bQ0BIXTFbTkhdQyg9TylbTkhdYzJbY0hdW2NIXVtjSF1uW2NIXTI=

> <s_epik_cmdline>
J2VwaWtfcHl0aG9uJywgJy1waCcsICc3LjAnLCAnLXRuJywgJzgnLCAnLW1hJywgJzIwMCcsICctbWV0YWxfYmluZGluZycsICctaW1hZScsICc8aW5maWxlLm1hZT4nLCAnLW9tYWUnLCAnPG91dGZpbGUubWFlPic=

> <r_epik_Ionization_Penalty>
0.00485231

> <r_epik_Ionization_Penalty_Charging>
0

> <r_epik_Ionization_Penalty_Neutral>
0.00485231

> <r_epik_State_Penalty>
0.00349213

> <r_epik_Charging_Adjusted_Penalty>
0.00349213

> <i_epik_Tot_Q>
0

> <i_epik_Tot_abs_Q>
0

> <r_epik_Metal_State_Penalty>
-0

> <b_epik_Metal_Only>
0

> <s_lp_Force_Field>
OPLS_2005

> <r_lp_Energy>
23.2573

> <b_lp_Chiralities_Consistent>
1

> <s_lp_Variant>
AV-unprocessed.smi:805-4

> <Gold.Version>
5.8.1

> <Gold.Id.Protein>
6NUR|6NUR_protein|mol2

> <Gold.PLP.Fitness>
38.4836

> <Gold.PLP.PLP>
-29.3139

> <Gold.PLP.part.hbond>
-1.8890

> <Gold.PLP.part.metal>
0.0000

> <Gold.PLP.part.buried>
-1.7924

> <Gold.PLP.part.nonpolar>
-26.3044

> <Gold.PLP.part.repulsive>
0.2925

> <Gold.PLP.ligand.clash>
0.0000

> <Gold.PLP.ligand.torsion>
0.3896

> <Gold.PLP.Chemscore.Hbond>
1.8005

> <Gold.PLP.Chemscore.CHOScore>
1.4081

> <Gold.PLP.Chemscore.Metal>
0.0000

> <Gold.Chemscore.Hbonds>
donor molecule, donor type, donor heavy atom, donor atom, acceptor molecule, acceptor atom, score
      L1  H     7    29       P1  7948  0.99
      L1  H    10    30       P1  7948  0.84
      L1  C    14    33       P1 10952  0.48
      L1  C    16    34       P1 10747  0.95

> <Gold.PLP.Chemscore.Internal.Correction>
0.3231

> <Gold.Rescore>
     Score         DG    S(hbond)    S(metal)    S(lipo)     H(rot)  DE(clash)    DE(int)     intcor
     15.66     -17.55       1.89        0.00      78.81       1.36       0.15       1.74       ----

> <Gold.Chemscore.Fitness>
15.6585

> <Gold.Chemscore.DG>
-17.5537

> <Gold.Chemscore.ZeroCoef>
-5.4800

> <Gold.Chemscore.Hbond>
1.8929

> <Gold.Chemscore.Metal>
0.0000

> <Gold.Chemscore.Lipo>
78.8070

> <Gold.Chemscore.Internal_Hbond>
0.0000

> <Gold.Chemscore.DEClash>
0.1543

> <Gold.Chemscore.DEInternal>
1.7408

> <Gold.Chemscore.Rot>
1.3551

> <Gold.Chemscore.Internal.Correction>
   9.000000E+99

> <Gold.Chemscore.Hbonds>
donor molecule, donor type, donor heavy atom, donor atom, acceptor molecule, acceptor atom, score
      L1  H     7    29       P1  7948  0.92
      L1  H    10    30       P1  7948  0.71

> <Gold.Chemscore.Hbond.Weighted>
-6.3223

> <Gold.Chemscore.Metal.Weighted>
-0.0000

> <Gold.Chemscore.Lipo.Weighted>
-9.2204

> <Gold.Chemscore.Internal_Hbond.Weighted>
0.0000

> <Gold.Chemscore.DEClash.Weighted>
0.1543

> <Gold.Chemscore.DEInternal.Weighted>
1.7408

> <Gold.Chemscore.Rot.Weighted>
3.4691

> <Gold.Chemscore.Internal.Correction.Weighted>
   9.000000E+99

> <Gold.Protein.RotatedTorsions>
[ 6907 6896 6895 6894 ] final  -54.03 input  -60.11 | X-H torsion
[ 7974 7965 7964 7962 ] final   51.06 input  175.53 | X-H torsion
[ 8008 7997 7996 7995 ] final -105.26 input   59.86 | X-H torsion
[ 10167 10162 10161 10158 ] final   -7.02 input  -65.29 | X-H torsion
[ 10718 10713 10712 10709 ] final -178.85 input   66.30 | X-H torsion
[ 10763 10752 10751 10750 ] final  -39.71 input  -60.55 | X-H torsion
[ 11005 11000 10999 10996 ] final  -28.25 input  -57.11 | X-H torsion

> <Gold.Protein.ActiveResidues>
 VAL166  LYS551  ARG553  GLY616  TRP617  ASP618  TYR619  PRO620  LYS621  CYS622 
 ASP623  PHE694  ASN695  SER759  ASP760  ASP761  ALA762  ILE779  LEU786  VAL792 
 PHE793  MET794  SER795  GLU796  ALA797  LYS798  CYS799  TRP800  GLU811  SER814 

> <Gold.Protein.RotatedAtoms>
  150.8374  134.7653  159.6903 H   0  0  0  0  0  0  0  0  0  0  0  0  # atno 6907 bound_to 6896
  152.4468  134.5474  159.9866 H   0  0  0  0  0  0  0  0  0  0  0  0  # atno 6908 bound_to 6896
  151.5622  133.3364  159.3009 H   0  0  0  0  0  0  0  0  0  0  0  0  # atno 6909 bound_to 6896
  145.9951  139.4379  143.0050 H   0  0  0  0  0  0  0  0  0  0  0  0  # atno 7974 bound_to 7965
  154.8972  140.0414  157.1872 H   0  0  0  0  0  0  0  0  0  0  0  0  # atno 8008 bound_to 7997
  154.8480  140.2925  155.5595 H   0  0  0  0  0  0  0  0  0  0  0  0  # atno 8009 bound_to 7997
  156.2995  140.2470  156.3434 H   0  0  0  0  0  0  0  0  0  0  0  0  # atno 8010 bound_to 7997
  140.7016  143.6127  150.8688 H   0  0  0  0  0  0  0  0  0  0  0  0  # atno 10167 bound_to 10162
  156.8504  130.9717  151.3093 H   0  0  0  0  0  0  0  0  0  0  0  0  # atno 10718 bound_to 10713
  153.9338  135.6769  153.4745 H   0  0  0  0  0  0  0  0  0  0  0  0  # atno 10763 bound_to 10752
  153.0966  135.4848  154.8786 H   0  0  0  0  0  0  0  0  0  0  0  0  # atno 10764 bound_to 10752
  154.7413  135.3161  154.8680 H   0  0  0  0  0  0  0  0  0  0  0  0  # atno 10765 bound_to 10752
  140.9192  133.7410  156.0777 H   0  0  0  0  0  0  0  0  0  0  0  0  # atno 11005 bound_to 11000
  145.7572  140.9949  143.1219 LP  0  0  0  0  0  0  0  0  0  0  0  0  # atno 17320 bound_to 7965
  144.6901  139.9286  143.7471 LP  0  0  0  0  0  0  0  0  0  0  0  0  # atno 17321 bound_to 7965
  139.9850  143.5909  152.2930 LP  0  0  0  0  0  0  0  0  0  0  0  0  # atno 17342 bound_to 10162
  139.6544  144.7662  151.2085 LP  0  0  0  0  0  0  0  0  0  0  0  0  # atno 17343 bound_to 10162
  157.6306  130.8726  149.9268 LP  0  0  0  0  0  0  0  0  0  0  0  0  # atno 17370 bound_to 10713
  156.0831  130.3671  150.0541 LP  0  0  0  0  0  0  0  0  0  0  0  0  # atno 17371 bound_to 10713
  140.8010  134.3509  157.5439 LP  0  0  0  0  0  0  0  0  0  0  0  0  # atno 17394 bound_to 11000
  139.8772  134.9198  156.3235 LP  0  0  0  0  0  0  0  0  0  0  0  0  # atno 17395 bound_to 11000

$$$$
