AV-unprocessed.smi:196|AV-procd|sdf|1534|dock5
  -GOLD-   2262019383D 1   1.00000     0.00000
 Structure written by MMmdl.
 47 50  0  0  0  0  0  0  0  0  1 V2000
  149.3503  141.3158  154.2824 C   0  0  0  0  0  0  0  0  0  0  0  0
  149.7120  140.1076  155.1632 C   0  0  2  0  0  0  0  0  0  0  0  0
  151.1090  140.2047  155.4463 O   0  0  0  0  0  0  0  0  0  0  0  0
  151.7471  138.9583  155.2133 C   0  0  0  0  0  0  0  0  0  0  0  0
  150.9142  138.3380  154.1035 C   0  0  0  0  0  0  0  0  0  0  0  0
  149.4958  138.7130  154.5194 C   0  0  2  0  0  0  0  0  0  0  0  0
  148.6798  138.7577  153.3610 O   0  0  0  0  0  0  0  0  0  0  0  0
  148.8520  137.7275  155.5311 C   0  0  0  0  0  0  0  0  0  0  0  0
  147.9532  136.7558  154.9277 N   0  0  0  0  0  0  0  0  0  0  0  0
  146.6302  136.9459  154.5974 C   0  0  0  0  0  0  0  0  0  0  0  0
  146.0360  135.9135  154.0641 N   0  0  0  0  0  0  0  0  0  0  0  0
  147.0204  134.9341  154.0337 C   0  0  0  0  0  0  0  0  0  0  0  0
  147.0609  133.5851  153.5899 C   0  0  0  0  0  0  0  0  0  0  0  0
  145.9909  132.9800  153.0171 N   0  0  0  0  0  0  0  0  0  0  0  0
  145.8078  131.5588  153.3037 C   0  0  0  0  0  0  0  0  0  0  0  0
  146.1564  130.8382  152.0081 C   0  0  1  0  0  0  0  0  0  0  0  0
  145.5975  129.6314  151.9235 F   0  0  0  0  0  0  0  0  0  0  0  0
  145.6265  131.8045  150.9580 C   0  0  0  0  0  0  0  0  0  0  0  0
  145.8977  133.1972  151.5633 C   0  0  1  0  0  0  0  0  0  0  0  0
  144.8133  134.2080  151.1487 C   0  0  0  0  0  0  0  0  0  0  0  0
  144.7319  134.5761  149.8662 N   0  0  0  0  0  0  0  0  0  0  0  0
  144.0426  134.6537  151.9957 O   0  0  0  0  0  0  0  0  0  0  0  0
  148.2354  132.9121  153.7210 N   0  0  0  0  0  0  0  0  0  0  0  0
  149.2981  133.5158  154.2614 C   0  0  0  0  0  0  0  0  0  0  0  0
  149.4048  134.7649  154.7194 N   0  0  0  0  0  0  0  0  0  0  0  0
  148.2301  135.4445  154.5822 C   0  0  0  0  0  0  0  0  0  0  0  0
  147.2364  130.7179  151.9102 H   0  0  0  0  0  0  0  0  0  0  0  0
  146.8538  133.5590  151.1773 H   0  0  0  0  0  0  0  0  0  0  0  0
  148.2841  141.3365  154.0558 H   0  0  0  0  0  0  0  0  0  0  0  0
  149.8968  141.2980  153.3389 H   0  0  0  0  0  0  0  0  0  0  0  0
  149.5952  142.2500  154.7879 H   0  0  0  0  0  0  0  0  0  0  0  0
  149.1615  140.1851  156.1018 H   0  0  0  0  0  0  0  0  0  0  0  0
  152.7927  139.0892  154.9337 H   0  0  0  0  0  0  0  0  0  0  0  0
  151.7079  138.3513  156.1186 H   0  0  0  0  0  0  0  0  0  0  0  0
  151.1733  138.8204  153.1594 H   0  0  0  0  0  0  0  0  0  0  0  0
  151.0884  137.2700  153.9803 H   0  0  0  0  0  0  0  0  0  0  0  0
  149.0715  139.3546  152.7423 H   0  0  0  0  0  0  0  0  0  0  0  0
  149.6247  137.1811  156.0732 H   0  0  0  0  0  0  0  0  0  0  0  0
  148.2937  138.2808  156.2876 H   0  0  0  0  0  0  0  0  0  0  0  0
  146.1170  137.8823  154.7625 H   0  0  0  0  0  0  0  0  0  0  0  0
  146.3932  131.1919  154.1485 H   0  0  0  0  0  0  0  0  0  0  0  0
  144.7575  131.4031  153.5535 H   0  0  0  0  0  0  0  0  0  0  0  0
  146.1074  131.6674  149.9889 H   0  0  0  0  0  0  0  0  0  0  0  0
  144.5558  131.6388  150.8219 H   0  0  0  0  0  0  0  0  0  0  0  0
  144.0309  135.2438  149.5786 H   0  0  0  0  0  0  0  0  0  0  0  0
  145.3763  134.1907  149.1915 H   0  0  0  0  0  0  0  0  0  0  0  0
  150.1912  132.9128  154.3344 H   0  0  0  0  0  0  0  0  0  0  0  0
  1  2  1  0  0  0  0
  1 29  1  0  0  0  0
  1 30  1  0  0  0  0
  1 31  1  0  0  0  0
  2  6  1  0  0  0  0
  2  3  1  0  0  0  0
  2 32  1  0  0  0  0
  3  4  1  0  0  0  0
  4  5  1  0  0  0  0
  4 33  1  0  0  0  0
  4 34  1  0  0  0  0
  5  6  1  0  0  0  0
  5 35  1  0  0  0  0
  5 36  1  0  0  0  0
  6  7  1  0  0  0  0
  6  8  1  0  0  0  0
  7 37  1  0  0  0  0
  8  9  1  0  0  0  0
  8 38  1  0  0  0  0
  8 39  1  0  0  0  0
  9 26  1  0  0  0  0
  9 10  1  0  0  0  0
 10 11  2  0  0  0  0
 10 40  1  0  0  0  0
 11 12  1  0  0  0  0
 12 26  2  0  0  0  0
 12 13  1  0  0  0  0
 13 14  1  0  0  0  0
 13 23  2  0  0  0  0
 14 19  1  0  0  0  0
 14 15  1  0  0  0  0
 15 16  1  0  0  0  0
 15 41  1  0  0  0  0
 15 42  1  0  0  0  0
 16 27  1  0  0  0  0
 16 17  1  0  0  0  0
 16 18  1  0  0  0  0
 18 19  1  0  0  0  0
 18 43  1  0  0  0  0
 18 44  1  0  0  0  0
 19 28  1  0  0  0  0
 19 20  1  0  0  0  0
 20 21  1  0  0  0  0
 20 22  2  0  0  0  0
 21 45  1  0  0  0  0
 21 46  1  0  0  0  0
 23 24  1  0  0  0  0
 24 25  2  0  0  0  0
 24 47  1  0  0  0  0
 25 26  1  0  0  0  0
M  END
> <s_m_source_file>
AV-unprocessed.smi

> <i_m_source_file_index>
196

> <i_lp_mmshare_version>
43012

> <i_f3d_flags>
0

> <s_epik_input>
W0NIMl0xW0NIMl1PW0NAQEhdKFtDSDNdKVtDQEBdMShbT0hdKVtDSDJdbihbY0hdbjIpYyhjMjMpbltjSF1uYzNONFtDSDJdW0NASF0oRilbQ0gyXVtDQEhdNEMoPU8pW05IMl0=

> <s_epik_cmdline>
J2VwaWtfcHl0aG9uJywgJy1waCcsICc3LjAnLCAnLXRuJywgJzgnLCAnLW1hJywgJzIwMCcsICctbWV0YWxfYmluZGluZycsICctaW1hZScsICc8aW5maWxlLm1hZT4nLCAnLW9tYWUnLCAnPG91dGZpbGUubWFlPic=

> <r_lp_tautomer_probability>
1

> <r_epik_Ionization_Penalty>
0.000857933

> <r_epik_Ionization_Penalty_Charging>
0

> <r_epik_Ionization_Penalty_Neutral>
0.000857933

> <r_epik_State_Penalty>
0.000462053

> <r_epik_Charging_Adjusted_Penalty>
0.000462053

> <i_epik_Tot_Q>
0

> <i_epik_Tot_abs_Q>
0

> <r_epik_Metal_State_Penalty>
-0

> <b_epik_Metal_Only>
0

> <s_lp_Force_Field>
OPLS_2005

> <r_lp_Energy>
47.3735

> <b_lp_Chiralities_Consistent>
1

> <s_lp_Variant>
AV-unprocessed.smi:196-7

> <Gold.Version>
5.8.1

> <Gold.Id.Protein>
6NUR|6NUR_protein|mol2

> <Gold.PLP.Fitness>
39.9733

> <Gold.PLP.PLP>
-36.9848

> <Gold.PLP.part.hbond>
-3.9975

> <Gold.PLP.part.metal>
0.0000

> <Gold.PLP.part.buried>
-3.3506

> <Gold.PLP.part.nonpolar>
-29.1328

> <Gold.PLP.part.repulsive>
0.6663

> <Gold.PLP.ligand.clash>
0.0000

> <Gold.PLP.ligand.torsion>
1.8736

> <Gold.PLP.Chemscore.Hbond>
2.2071

> <Gold.PLP.Chemscore.CHOScore>
0.0000

> <Gold.PLP.Chemscore.Metal>
0.0000

> <Gold.Chemscore.Hbonds>
donor molecule, donor type, donor heavy atom, donor atom, acceptor molecule, acceptor atom, score
      L1  H     7    37       P1  7957  1.00
      L1  H    21    46       P1  7921  0.69
      P1  H  7989  7998       L1     3  0.32

> <Gold.PLP.Chemscore.Internal.Correction>
0.1143

> <Gold.Rescore>
     Score         DG    S(hbond)    S(metal)    S(lipo)     H(rot)  DE(clash)    DE(int)     intcor
      9.09     -12.09       1.93        0.00      67.87       3.04       0.70       2.30       ----

> <Gold.Chemscore.Fitness>
9.0906

> <Gold.Chemscore.DG>
-12.0913

> <Gold.Chemscore.ZeroCoef>
-5.4800

> <Gold.Chemscore.Hbond>
1.9331

> <Gold.Chemscore.Metal>
0.0000

> <Gold.Chemscore.Lipo>
67.8661

> <Gold.Chemscore.Internal_Hbond>
0.0000

> <Gold.Chemscore.DEClash>
0.7035

> <Gold.Chemscore.DEInternal>
2.2973

> <Gold.Chemscore.Rot>
3.0413

> <Gold.Chemscore.Internal.Correction>
   9.000000E+99

> <Gold.Chemscore.Hbonds>
donor molecule, donor type, donor heavy atom, donor atom, acceptor molecule, acceptor atom, score
      L1  H     7    37       P1  7957  0.99
      L1  H    21    46       P1  7921  0.65

> <Gold.Chemscore.Hbond.Weighted>
-6.4567

> <Gold.Chemscore.Metal.Weighted>
-0.0000

> <Gold.Chemscore.Lipo.Weighted>
-7.9403

> <Gold.Chemscore.Internal_Hbond.Weighted>
0.0000

> <Gold.Chemscore.DEClash.Weighted>
0.7035

> <Gold.Chemscore.DEInternal.Weighted>
2.2973

> <Gold.Chemscore.Rot.Weighted>
7.7856

> <Gold.Chemscore.Internal.Correction.Weighted>
   9.000000E+99

> <Gold.Protein.RotatedTorsions>
[ 6907 6896 6895 6894 ] final -120.01 input  -60.11 | X-H torsion
[ 7974 7965 7964 7962 ] final -162.48 input  175.53 | X-H torsion
[ 8008 7997 7996 7995 ] final  108.39 input   59.86 | X-H torsion
[ 10167 10162 10161 10158 ] final   -5.12 input  -65.29 | X-H torsion
[ 10718 10713 10712 10709 ] final -145.05 input   66.30 | X-H torsion
[ 10763 10752 10751 10750 ] final -106.12 input  -60.55 | X-H torsion
[ 11005 11000 10999 10996 ] final  171.06 input  -57.11 | X-H torsion

> <Gold.Protein.ActiveResidues>
 VAL166  LYS551  ARG553  GLY616  TRP617  ASP618  TYR619  PRO620  LYS621  CYS622 
 ASP623  PHE694  ASN695  SER759  ASP760  ASP761  ALA762  ILE779  LEU786  VAL792 
 PHE793  MET794  SER795  GLU796  ALA797  LYS798  CYS799  TRP800  GLU811  SER814 

> <Gold.Protein.RotatedAtoms>
  150.8355  133.8020  159.3081 H   0  0  0  0  0  0  0  0  0  0  0  0  # atno 6907 bound_to 6896
  151.5737  135.1060  160.0010 H   0  0  0  0  0  0  0  0  0  0  0  0  # atno 6908 bound_to 6896
  152.4428  133.7438  159.6712 H   0  0  0  0  0  0  0  0  0  0  0  0  # atno 6909 bound_to 6896
  144.7356  140.3247  143.6164 H   0  0  0  0  0  0  0  0  0  0  0  0  # atno 7974 bound_to 7965
  156.1899  140.3077  155.9311 H   0  0  0  0  0  0  0  0  0  0  0  0  # atno 8008 bound_to 7997
  155.3197  140.0455  157.3056 H   0  0  0  0  0  0  0  0  0  0  0  0  # atno 8009 bound_to 7997
  154.5440  140.2270  155.8604 H   0  0  0  0  0  0  0  0  0  0  0  0  # atno 8010 bound_to 7997
  140.6952  143.6344  150.8493 H   0  0  0  0  0  0  0  0  0  0  0  0  # atno 10167 bound_to 10162
  156.3776  130.7820  151.2009 H   0  0  0  0  0  0  0  0  0  0  0  0  # atno 10718 bound_to 10713
  154.7991  135.4724  154.0232 H   0  0  0  0  0  0  0  0  0  0  0  0  # atno 10763 bound_to 10752
  153.1752  135.6831  153.8560 H   0  0  0  0  0  0  0  0  0  0  0  0  # atno 10764 bound_to 10752
  153.8129  135.3214  155.3380 H   0  0  0  0  0  0  0  0  0  0  0  0  # atno 10765 bound_to 10752
  140.3150  134.7485  157.4020 H   0  0  0  0  0  0  0  0  0  0  0  0  # atno 11005 bound_to 11000
  145.7533  139.1801  143.2309 LP  0  0  0  0  0  0  0  0  0  0  0  0  # atno 17320 bound_to 7965
  146.1043  140.7505  142.9534 LP  0  0  0  0  0  0  0  0  0  0  0  0  # atno 17321 bound_to 7965
  140.0061  143.5692  152.2857 LP  0  0  0  0  0  0  0  0  0  0  0  0  # atno 17342 bound_to 10162
  139.6399  144.7653  151.2361 LP  0  0  0  0  0  0  0  0  0  0  0  0  # atno 17343 bound_to 10162
  157.7489  131.0353  150.4359 LP  0  0  0  0  0  0  0  0  0  0  0  0  # atno 17370 bound_to 10713
  156.4598  130.4029  149.6583 LP  0  0  0  0  0  0  0  0  0  0  0  0  # atno 17371 bound_to 10713
  140.0992  134.5496  155.8369 LP  0  0  0  0  0  0  0  0  0  0  0  0  # atno 17394 bound_to 11000
  141.2100  133.6689  156.6476 LP  0  0  0  0  0  0  0  0  0  0  0  0  # atno 17395 bound_to 11000

$$$$
