AV-unprocessed.smi:618|AV-procd|sdf|3081|dock7
  -GOLD-   22720 0 03D 1   1.00000     0.00000
 Structure written by MMmdl.
 41 43  0  0  0  0  0  0  0  0  2 V2000
  151.0053  135.2119  155.9661 O   0  0  0  0  0  0  0  0  0  0  0  0
  150.5581  135.4653  154.8478 C   0  0  0  0  0  0  0  0  0  0  0  0
  149.9680  134.5515  154.0643 N   0  0  0  0  0  0  0  0  0  0  0  0
  149.7728  133.1472  154.4117 C   0  0  0  0  0  0  0  0  0  0  0  0
  148.9612  132.3979  153.3398 C   0  0  1  0  0  0  0  0  0  0  0  0
  148.9091  130.8771  153.6220 C   0  0  0  0  0  0  0  0  0  0  0  0
  148.0282  130.2478  152.6209 N   0  3  1  0  0  0  0  0  0  0  0  0
  147.8363  128.7883  152.6749 C   0  0  0  0  0  0  0  0  0  0  0  0
  146.4858  128.5426  151.9719 C   0  0  0  0  0  0  0  0  0  0  0  0
  145.8917  129.9385  151.7070 C   0  0  0  0  0  0  0  0  0  0  0  0
  146.6873  130.8354  152.6496 C   0  0  2  0  0  0  0  0  0  0  0  0
  146.7900  132.3294  152.3190 C   0  0  0  0  0  0  0  0  0  0  0  0
  147.6305  132.9280  153.3065 O   0  0  0  0  0  0  0  0  0  0  0  0
  150.5700  136.6745  154.2614 N   0  0  0  0  0  0  0  0  0  0  0  0
  151.1030  137.8925  154.7630 C   0  0  0  0  0  0  0  0  0  0  0  0
  152.0713  137.9725  155.7933 C   0  0  0  0  0  0  0  0  0  0  0  0
  152.5355  139.2406  156.1923 C   0  0  0  0  0  0  0  0  0  0  0  0
  152.0226  140.3801  155.5430 C   0  0  0  0  0  0  0  0  0  0  0  0
  151.1108  140.3179  154.5497 N   0  0  0  0  0  0  0  0  0  0  0  0
  150.6709  139.0988  154.1717 C   0  0  0  0  0  0  0  0  0  0  0  0
  149.6313  134.8480  153.1598 H   0  0  0  0  0  0  0  0  0  0  0  0
  150.7609  132.6960  154.5041 H   0  0  0  0  0  0  0  0  0  0  0  0
  149.2995  133.0505  155.3906 H   0  0  0  0  0  0  0  0  0  0  0  0
  149.4268  132.5623  152.3661 H   0  0  0  0  0  0  0  0  0  0  0  0
  149.9058  130.4389  153.5607 H   0  0  0  0  0  0  0  0  0  0  0  0
  148.5283  130.6836  154.6262 H   0  0  0  0  0  0  0  0  0  0  0  0
  148.6621  128.2663  152.1906 H   0  0  0  0  0  0  0  0  0  0  0  0
  147.7850  128.4561  153.7129 H   0  0  0  0  0  0  0  0  0  0  0  0
  146.6106  127.9900  151.0399 H   0  0  0  0  0  0  0  0  0  0  0  0
  145.8285  127.9561  152.6155 H   0  0  0  0  0  0  0  0  0  0  0  0
  146.0706  130.2280  150.6704 H   0  0  0  0  0  0  0  0  0  0  0  0
  144.8174  129.9836  151.8893 H   0  0  0  0  0  0  0  0  0  0  0  0
  146.2776  130.7225  153.6561 H   0  0  0  0  0  0  0  0  0  0  0  0
  147.1987  132.4938  151.3208 H   0  0  0  0  0  0  0  0  0  0  0  0
  145.8065  132.7985  152.3520 H   0  0  0  0  0  0  0  0  0  0  0  0
  150.0884  136.7455  153.3770 H   0  0  0  0  0  0  0  0  0  0  0  0
  152.4745  137.0939  156.2721 H   0  0  0  0  0  0  0  0  0  0  0  0
  153.2727  139.3367  156.9754 H   0  0  0  0  0  0  0  0  0  0  0  0
  152.3582  141.3670  155.8251 H   0  0  0  0  0  0  0  0  0  0  0  0
  149.9438  139.0877  153.3728 H   0  0  0  0  0  0  0  0  0  0  0  0
  148.4114  130.4523  151.7089 H   0  0  0  0  0  0  0  0  0  0  0  0
  1  2  2  0  0  0  0
  2  3  1  0  0  0  0
  2 14  1  0  0  0  0
  3  4  1  0  0  0  0
  3 21  1  0  0  0  0
  4  5  1  0  0  0  0
  4 22  1  0  0  0  0
  4 23  1  0  0  0  0
  5 13  1  0  0  0  0
  5  6  1  0  0  0  0
  5 24  1  0  0  0  0
  6  7  1  0  0  0  0
  6 25  1  0  0  0  0
  6 26  1  0  0  0  0
  7 11  1  0  0  0  0
  7  8  1  0  0  0  0
  7 41  1  0  0  0  0
  8  9  1  0  0  0  0
  8 27  1  0  0  0  0
  8 28  1  0  0  0  0
  9 10  1  0  0  0  0
  9 29  1  0  0  0  0
  9 30  1  0  0  0  0
 10 11  1  0  0  0  0
 10 31  1  0  0  0  0
 10 32  1  0  0  0  0
 11 12  1  0  0  0  0
 11 33  1  0  0  0  0
 12 13  1  0  0  0  0
 12 34  1  0  0  0  0
 12 35  1  0  0  0  0
 14 15  1  0  0  0  0
 14 36  1  0  0  0  0
 15 20  1  0  0  0  0
 15 16  2  0  0  0  0
 16 17  1  0  0  0  0
 16 37  1  0  0  0  0
 17 18  2  0  0  0  0
 17 38  1  0  0  0  0
 18 19  1  0  0  0  0
 18 39  1  0  0  0  0
 19 20  2  0  0  0  0
 20 40  1  0  0  0  0
M  CHG  1   7   1
M  END
> <s_m_source_file>
AV-unprocessed.smi

> <i_m_source_file_index>
618

> <i_lp_mmshare_version>
43012

> <i_f3d_flags>
0

> <s_epik_input>
W2NIXTFuW2NIXVtjSF1bY0hdYzFbTkhdQyg9TylbTkhdW0NIMl1bQ0BIXShbQ0gyXTIpT1tDSDJdW0NAQEhdKE4yMylbQ0gyXVtDSDJdW0NIMl0z

> <s_epik_cmdline>
J2VwaWtfcHl0aG9uJywgJy1waCcsICc3LjAnLCAnLXRuJywgJzgnLCAnLW1hJywgJzIwMCcsICctbWV0YWxfYmluZGluZycsICctaW1hZScsICc8aW5maWxlLm1hZT4nLCAnLW9tYWUnLCAnPG91dGZpbGUubWFlPic=

> <r_epik_Ionization_Penalty>
0.111044

> <r_epik_Ionization_Penalty_Charging>
0.10673

> <r_epik_Ionization_Penalty_Neutral>
0.00431361

> <r_epik_State_Penalty>
0.0978747

> <r_epik_Charging_Adjusted_Penalty>
0.204605

> <i_epik_Tot_Q>
1

> <i_epik_Tot_abs_Q>
1

> <r_epik_Metal_State_Penalty>
0.0947591

> <b_epik_Metal_Only>
0

> <s_lp_Force_Field>
OPLS_2005

> <r_lp_Energy>
39.3215

> <b_lp_Chiralities_Consistent>
1

> <s_lp_Variant>
AV-unprocessed.smi:618-8

> <Gold.Version>
5.8.1

> <Gold.Id.Protein>
6NUR|6NUR_protein|mol2

> <Gold.PLP.Fitness>
50.9759

> <Gold.PLP.PLP>
-37.8881

> <Gold.PLP.part.hbond>
-4.7238

> <Gold.PLP.part.metal>
0.0000

> <Gold.PLP.part.buried>
-4.0204

> <Gold.PLP.part.nonpolar>
-29.6079

> <Gold.PLP.part.repulsive>
0.3520

> <Gold.PLP.ligand.clash>
0.0000

> <Gold.PLP.ligand.torsion>
0.1134

> <Gold.PLP.Chemscore.Hbond>
3.4500

> <Gold.PLP.Chemscore.CHOScore>
0.9879

> <Gold.PLP.Chemscore.Metal>
0.0000

> <Gold.Chemscore.Hbonds>
donor molecule, donor type, donor heavy atom, donor atom, acceptor molecule, acceptor atom, score
      L1  H     3    21       P1  7948  0.10
      L1  H     7    41       P1 10747  1.00
      L1  H    14    36       P1  7948  0.75
      P1  H  7989  7998       L1    19  0.42
      P1  H 10752 10765       L1     1  0.03
      L1  C    20    40       P1  7957  1.00

> <Gold.PLP.Chemscore.Internal.Correction>
0.0010

> <Gold.Rescore>
     Score         DG    S(hbond)    S(metal)    S(lipo)     H(rot)  DE(clash)    DE(int)     intcor
     19.51     -20.87       2.39        0.00      91.08       1.27       0.10       1.25       ----

> <Gold.Chemscore.Fitness>
19.5140

> <Gold.Chemscore.DG>
-20.8661

> <Gold.Chemscore.ZeroCoef>
-5.4800

> <Gold.Chemscore.Hbond>
2.3860

> <Gold.Chemscore.Metal>
0.0000

> <Gold.Chemscore.Lipo>
91.0828

> <Gold.Chemscore.Internal_Hbond>
0.0000

> <Gold.Chemscore.DEClash>
0.1013

> <Gold.Chemscore.DEInternal>
1.2509

> <Gold.Chemscore.Rot>
1.2656

> <Gold.Chemscore.Internal.Correction>
   9.000000E+99

> <Gold.Chemscore.Hbonds>
donor molecule, donor type, donor heavy atom, donor atom, acceptor molecule, acceptor atom, score
      L1  H     7    41       P1 10747  0.90
      L1  H    14    36       P1  7948  0.09
      P1  H  7989  7998       L1    19  0.16

> <Gold.Chemscore.Hbond.Weighted>
-7.9693

> <Gold.Chemscore.Metal.Weighted>
-0.0000

> <Gold.Chemscore.Lipo.Weighted>
-10.6567

> <Gold.Chemscore.Internal_Hbond.Weighted>
0.0000

> <Gold.Chemscore.DEClash.Weighted>
0.1013

> <Gold.Chemscore.DEInternal.Weighted>
1.2509

> <Gold.Chemscore.Rot.Weighted>
3.2399

> <Gold.Chemscore.Internal.Correction.Weighted>
   9.000000E+99

> <Gold.Protein.RotatedTorsions>
[ 6907 6896 6895 6894 ] final  138.98 input  -60.11 | X-H torsion
[ 7974 7965 7964 7962 ] final  178.56 input  175.53 | X-H torsion
[ 8008 7997 7996 7995 ] final -144.73 input   59.86 | X-H torsion
[ 10167 10162 10161 10158 ] final   55.97 input  -65.29 | X-H torsion
[ 10718 10713 10712 10709 ] final -125.37 input   66.30 | X-H torsion
[ 10763 10752 10751 10750 ] final -163.60 input  -60.55 | X-H torsion
[ 11005 11000 10999 10996 ] final -172.93 input  -57.11 | X-H torsion

> <Gold.Protein.ActiveResidues>
 VAL166  LYS551  ARG553  GLY616  TRP617  ASP618  TYR619  PRO620  LYS621  CYS622 
 ASP623  PHE694  ASN695  SER759  ASP760  ASP761  ALA762  ILE779  LEU786  VAL792 
 PHE793  MET794  SER795  GLU796  ALA797  LYS798  CYS799  TRP800  GLU811  SER814 

> <Gold.Protein.RotatedAtoms>
  152.2603  133.5292  159.5377 H   0  0  0  0  0  0  0  0  0  0  0  0  # atno 6907 bound_to 6896
  150.7123  134.0838  159.3916 H   0  0  0  0  0  0  0  0  0  0  0  0  # atno 6908 bound_to 6896
  151.8756  135.0473  160.0534 H   0  0  0  0  0  0  0  0  0  0  0  0  # atno 6909 bound_to 6896
  144.7155  140.0416  143.6437 H   0  0  0  0  0  0  0  0  0  0  0  0  # atno 7974 bound_to 7965
  155.5316  140.0600  157.2888 H   0  0  0  0  0  0  0  0  0  0  0  0  # atno 8008 bound_to 7997
  154.4482  140.1935  156.0545 H   0  0  0  0  0  0  0  0  0  0  0  0  # atno 8009 bound_to 7997
  156.0648  140.3268  155.7508 H   0  0  0  0  0  0  0  0  0  0  0  0  # atno 8010 bound_to 7997
  140.2138  144.3861  150.6478 H   0  0  0  0  0  0  0  0  0  0  0  0  # atno 10167 bound_to 10162
  156.1670  130.6641  151.0128 H   0  0  0  0  0  0  0  0  0  0  0  0  # atno 10718 bound_to 10713
  154.7107  135.3006  154.9201 H   0  0  0  0  0  0  0  0  0  0  0  0  # atno 10763 bound_to 10752
  154.0104  135.6695  153.4769 H   0  0  0  0  0  0  0  0  0  0  0  0  # atno 10764 bound_to 10752
  153.0753  135.5038  154.8304 H   0  0  0  0  0  0  0  0  0  0  0  0  # atno 10765 bound_to 10752
  140.4914  134.5981  157.4956 H   0  0  0  0  0  0  0  0  0  0  0  0  # atno 11005 bound_to 11000
  146.0019  139.3098  143.0922 LP  0  0  0  0  0  0  0  0  0  0  0  0  # atno 17320 bound_to 7965
  145.8783  140.9378  143.0614 LP  0  0  0  0  0  0  0  0  0  0  0  0  # atno 17321 bound_to 7965
  140.6304  143.2187  151.6507 LP  0  0  0  0  0  0  0  0  0  0  0  0  # atno 17342 bound_to 10162
  139.5170  144.3330  152.0809 LP  0  0  0  0  0  0  0  0  0  0  0  0  # atno 17343 bound_to 10162
  157.6775  131.0846  150.7457 LP  0  0  0  0  0  0  0  0  0  0  0  0  # atno 17370 bound_to 10713
  156.7517  130.4771  149.5455 LP  0  0  0  0  0  0  0  0  0  0  0  0  # atno 17371 bound_to 10713
  139.9767  134.7204  155.9936 LP  0  0  0  0  0  0  0  0  0  0  0  0  # atno 17394 bound_to 11000
  141.1482  133.6552  156.3932 LP  0  0  0  0  0  0  0  0  0  0  0  0  # atno 17395 bound_to 11000

$$$$
