AV-unprocessed.smi:59|AV-procd|sdf|588|dock1
  -GOLD-   2262016483D 1   1.00000     0.00000
 Structure written by MMmdl.
 29 30  0  0  0  0  0  0  0  0  2 V2000
  150.3781  141.0756  156.6667 C   0  0  0  0  0  0  0  0  0  0  0  0
  150.8524  139.7485  156.2827 N   0  0  0  0  0  0  0  0  0  0  0  0
  150.7782  139.2443  155.0444 C   0  0  0  0  0  0  0  0  0  0  0  0
  150.4015  139.8460  154.0380 O   0  0  0  0  0  0  0  0  0  0  0  0
  151.1878  137.7768  155.0349 C   0  0  1  0  0  0  0  0  0  0  0  0
  151.9411  137.4654  153.8737 O   0  0  0  0  0  0  0  0  0  0  0  0
  151.8913  137.6026  156.4067 C   0  0  1  0  0  0  0  0  0  0  0  0
  153.4360  137.6463  156.2931 C   0  0  0  0  0  0  0  0  0  0  0  0
  154.0924  136.6882  156.7609 O   0  0  0  0  0  0  0  0  0  0  0  0
  153.9292  138.6439  155.7224 O   0  5  0  0  0  0  0  0  0  0  0  0
  151.2839  138.7540  157.2667 C   0  0  1  0  0  0  0  0  0  0  0  0
  152.1858  139.2910  158.3663 C   0  0  0  0  0  0  0  0  0  0  0  0
  152.8215  138.5350  159.3927 C   0  0  0  0  0  0  0  0  0  0  0  0
  153.5547  139.2766  160.2071 N   0  0  0  0  0  0  0  0  0  0  0  0
  153.4274  140.5284  159.7233 N   0  0  0  0  0  0  0  0  0  0  0  0
  154.1201  141.6196  160.3739 C   0  0  0  0  0  0  0  0  0  0  0  0
  152.6089  140.5685  158.6163 C   0  0  0  0  0  0  0  0  0  0  0  0
  150.2779  137.1762  155.0147 H   0  0  0  0  0  0  0  0  0  0  0  0
  151.6250  136.6408  156.8479 H   0  0  0  0  0  0  0  0  0  0  0  0
  150.3672  138.3739  157.7207 H   0  0  0  0  0  0  0  0  0  0  0  0
  151.1257  141.8293  156.4191 H   0  0  0  0  0  0  0  0  0  0  0  0
  150.1776  141.1300  157.7369 H   0  0  0  0  0  0  0  0  0  0  0  0
  149.4527  141.3288  156.1474 H   0  0  0  0  0  0  0  0  0  0  0  0
  151.3416  137.2097  153.1898 H   0  0  0  0  0  0  0  0  0  0  0  0
  152.7687  137.4709  159.5692 H   0  0  0  0  0  0  0  0  0  0  0  0
  153.9599  142.5459  159.8216 H   0  0  0  0  0  0  0  0  0  0  0  0
  155.1896  141.4098  160.4093 H   0  0  0  0  0  0  0  0  0  0  0  0
  153.7431  141.7415  161.3896 H   0  0  0  0  0  0  0  0  0  0  0  0
  152.4023  141.4915  158.0952 H   0  0  0  0  0  0  0  0  0  0  0  0
  1  2  1  0  0  0  0
  1 21  1  0  0  0  0
  1 22  1  0  0  0  0
  1 23  1  0  0  0  0
  2 11  1  0  0  0  0
  2  3  1  0  0  0  0
  3  4  2  0  0  0  0
  3  5  1  0  0  0  0
  5 18  1  0  0  0  0
  5  6  1  0  0  0  0
  5  7  1  0  0  0  0
  6 24  1  0  0  0  0
  7 19  1  0  0  0  0
  7  8  1  0  0  0  0
  7 11  1  0  0  0  0
  8  9  2  0  0  0  0
  8 10  1  0  0  0  0
 11 20  1  0  0  0  0
 11 12  1  0  0  0  0
 12 17  2  0  0  0  0
 12 13  1  0  0  0  0
 13 14  2  0  0  0  0
 13 25  1  0  0  0  0
 14 15  1  0  0  0  0
 15 16  1  0  0  0  0
 15 17  1  0  0  0  0
 16 26  1  0  0  0  0
 16 27  1  0  0  0  0
 16 28  1  0  0  0  0
 17 29  1  0  0  0  0
M  CHG  1  10  -1
M  END
> <s_m_source_file>
AV-unprocessed.smi

> <i_m_source_file_index>
59

> <i_lp_mmshare_version>
43012

> <i_f3d_flags>
0

> <s_epik_input>
W0NIM11OMUMoPU8pW0NASF0oW09IXSlbQ0BIXShDKD1PKVtPSF0pW0NASF0xYzJbY0hdbm4oW0NIM10pW2NIXTI=

> <s_epik_cmdline>
J2VwaWtfcHl0aG9uJywgJy1waCcsICc3LjAnLCAnLXRuJywgJzgnLCAnLW1hJywgJzIwMCcsICctbWV0YWxfYmluZGluZycsICctaW1hZScsICc8aW5maWxlLm1hZT4nLCAnLW9tYWUnLCAnPG91dGZpbGUubWFlPic=

> <r_lp_tautomer_probability>
1

> <r_epik_Ionization_Penalty>
0.00173515

> <r_epik_Ionization_Penalty_Charging>
0.00120567

> <r_epik_Ionization_Penalty_Neutral>
0.000529476

> <r_epik_State_Penalty>
-0

> <r_epik_Charging_Adjusted_Penalty>
0.00120567

> <i_epik_Tot_Q>
-1

> <i_epik_Tot_abs_Q>
1

> <r_epik_Metal_State_Penalty>
-0

> <b_epik_Metal_Only>
0

> <s_lp_Force_Field>
OPLS_2005

> <r_lp_Energy>
6.9214

> <b_lp_Chiralities_Consistent>
1

> <s_lp_Variant>
AV-unprocessed.smi:59-4

> <Gold.Version>
5.8.1

> <Gold.Id.Protein>
6NUR|6NUR_protein|mol2

> <Gold.PLP.Fitness>
42.6218

> <Gold.PLP.PLP>
-25.9387

> <Gold.PLP.part.hbond>
-4.5620

> <Gold.PLP.part.metal>
0.0000

> <Gold.PLP.part.buried>
-3.9389

> <Gold.PLP.part.nonpolar>
-18.4258

> <Gold.PLP.part.repulsive>
0.9649

> <Gold.PLP.ligand.clash>
0.0000

> <Gold.PLP.ligand.torsion>
0.0865

> <Gold.PLP.Chemscore.Hbond>
5.6139

> <Gold.PLP.Chemscore.CHOScore>
0.0000

> <Gold.PLP.Chemscore.Metal>
0.0000

> <Gold.Chemscore.Hbonds>
donor molecule, donor type, donor heavy atom, donor atom, acceptor molecule, acceptor atom, score
      L1  H     6    24       P1  7949  0.70
      P1  H  7989  7998       L1     4  1.00
      P1  H  7997  8010       L1    10  1.25
      P1  H 10752 10763       L1     6  0.86
      P1  H 10752 10764       L1     9  1.73

> <Gold.PLP.Chemscore.Internal.Correction>
0.0144

> <Gold.Rescore>
     Score         DG    S(hbond)    S(metal)    S(lipo)     H(rot)  DE(clash)    DE(int)     intcor
     14.50     -16.21       3.09        0.00      48.60       2.06       0.09       1.63       ----

> <Gold.Chemscore.Fitness>
14.4972

> <Gold.Chemscore.DG>
-16.2125

> <Gold.Chemscore.ZeroCoef>
-5.4800

> <Gold.Chemscore.Hbond>
3.0927

> <Gold.Chemscore.Metal>
0.0000

> <Gold.Chemscore.Lipo>
48.6040

> <Gold.Chemscore.Internal_Hbond>
0.0000

> <Gold.Chemscore.DEClash>
0.0869

> <Gold.Chemscore.DEInternal>
1.6284

> <Gold.Chemscore.Rot>
2.0639

> <Gold.Chemscore.Internal.Correction>
   9.000000E+99

> <Gold.Chemscore.Hbonds>
donor molecule, donor type, donor heavy atom, donor atom, acceptor molecule, acceptor atom, score
      L1  H     6    24       P1  7949  0.52
      P1  H  7989  7998       L1     4  0.77
      P1  H  7997  8010       L1    10  0.61
      P1  H 10752 10763       L1     6  0.16
      P1  H 10752 10764       L1     9  0.38

> <Gold.Chemscore.Hbond.Weighted>
-10.3295

> <Gold.Chemscore.Metal.Weighted>
-0.0000

> <Gold.Chemscore.Lipo.Weighted>
-5.6867

> <Gold.Chemscore.Internal_Hbond.Weighted>
0.0000

> <Gold.Chemscore.DEClash.Weighted>
0.0869

> <Gold.Chemscore.DEInternal.Weighted>
1.6284

> <Gold.Chemscore.Rot.Weighted>
5.2837

> <Gold.Chemscore.Internal.Correction.Weighted>
   9.000000E+99

> <Gold.Protein.RotatedTorsions>
[ 6907 6896 6895 6894 ] final   80.01 input  -60.11 | X-H torsion
[ 7974 7965 7964 7962 ] final   77.47 input  175.53 | X-H torsion
[ 8008 7997 7996 7995 ] final   90.98 input   59.86 | X-H torsion
[ 10167 10162 10161 10158 ] final  123.93 input  -65.29 | X-H torsion
[ 10718 10713 10712 10709 ] final   44.20 input   66.30 | X-H torsion
[ 10763 10752 10751 10750 ] final   26.23 input  -60.55 | X-H torsion
[ 11005 11000 10999 10996 ] final  142.72 input  -57.11 | X-H torsion

> <Gold.Protein.ActiveResidues>
 VAL166  LYS551  ARG553  GLY616  TRP617  ASP618  TYR619  PRO620  LYS621  CYS622 
 ASP623  PHE694  ASN695  SER759  ASP760  ASP761  ALA762  ILE779  LEU786  VAL792 
 PHE793  MET794  SER795  GLU796  ALA797  LYS798  CYS799  TRP800  GLU811  SER814 

> <Gold.Protein.RotatedAtoms>
  152.5219  134.3424  159.9221 H   0  0  0  0  0  0  0  0  0  0  0  0  # atno 6907 bound_to 6896
  151.3373  133.3970  159.2675 H   0  0  0  0  0  0  0  0  0  0  0  0  # atno 6908 bound_to 6896
  150.9831  134.9200  159.7914 H   0  0  0  0  0  0  0  0  0  0  0  0  # atno 6909 bound_to 6896
  145.6896  139.2548  143.1767 H   0  0  0  0  0  0  0  0  0  0  0  0  # atno 7974 bound_to 7965
  156.0184  140.3343  155.7013 H   0  0  0  0  0  0  0  0  0  0  0  0  # atno 8008 bound_to 7997
  155.6057  140.0660  157.2738 H   0  0  0  0  0  0  0  0  0  0  0  0  # atno 8009 bound_to 7997
  154.4307  140.1802  156.1208 H   0  0  0  0  0  0  0  0  0  0  0  0  # atno 8010 bound_to 7997
  139.5771  144.6968  151.3625 H   0  0  0  0  0  0  0  0  0  0  0  0  # atno 10167 bound_to 10162
  157.4242  130.7987  149.7543 H   0  0  0  0  0  0  0  0  0  0  0  0  # atno 10718 bound_to 10713
  153.0637  135.6565  154.0404 H   0  0  0  0  0  0  0  0  0  0  0  0  # atno 10763 bound_to 10752
  154.0066  135.2932  155.3398 H   0  0  0  0  0  0  0  0  0  0  0  0  # atno 10764 bound_to 10752
  154.6986  135.5254  153.8562 H   0  0  0  0  0  0  0  0  0  0  0  0  # atno 10765 bound_to 10752
  140.0499  134.9261  157.0997 H   0  0  0  0  0  0  0  0  0  0  0  0  # atno 11005 bound_to 11000
  146.0893  140.7674  142.9603 LP  0  0  0  0  0  0  0  0  0  0  0  0  # atno 17320 bound_to 7965
  144.7001  140.3612  143.7163 LP  0  0  0  0  0  0  0  0  0  0  0  0  # atno 17321 bound_to 7965
  140.7053  143.7530  150.7471 LP  0  0  0  0  0  0  0  0  0  0  0  0  # atno 17342 bound_to 10162
  140.1053  143.4750  152.2402 LP  0  0  0  0  0  0  0  0  0  0  0  0  # atno 17343 bound_to 10162
  155.9891  130.3954  150.3089 LP  0  0  0  0  0  0  0  0  0  0  0  0  # atno 17370 bound_to 10713
  157.1240  131.0254  151.2997 LP  0  0  0  0  0  0  0  0  0  0  0  0  # atno 17371 bound_to 10713
  140.3934  134.2160  155.7165 LP  0  0  0  0  0  0  0  0  0  0  0  0  # atno 17394 bound_to 11000
  141.1925  133.8171  157.0837 LP  0  0  0  0  0  0  0  0  0  0  0  0  # atno 17395 bound_to 11000

$$$$
