AV-unprocessed.smi:3290|AV-procd|sdf|12617|dock2
  -GOLD-   2272018553D 1   1.00000     0.00000
 Structure written by MMmdl.
 43 44  0  0  0  0  0  0  0  0  2 V2000
  143.2614  134.9248  151.7988 C   0  0  0  0  0  0  0  0  0  0  0  0
  144.3212  134.8714  150.6795 C   0  0  2  0  0  0  0  0  0  0  0  0
  144.1298  133.6367  149.7731 C   0  0  0  0  0  0  0  0  0  0  0  0
  144.5494  132.3300  150.4676 C   0  0  0  0  0  0  0  0  0  0  0  0
  145.9942  132.4126  150.9815 C   0  0  0  0  0  0  0  0  0  0  0  0
  146.1987  133.6325  151.8936 C   0  0  0  0  0  0  0  0  0  0  0  0
  145.7866  134.9444  151.1868 C   0  0  2  0  0  0  0  0  0  0  0  0
  146.0531  136.1891  152.0570 C   0  0  0  0  0  0  0  0  0  0  0  0
  146.8184  137.2127  151.3187 N   0  3  0  0  0  0  0  0  0  0  0  0
  146.6592  138.5830  151.8458 C   0  0  0  0  0  0  0  0  0  0  0  0
  147.1214  138.6814  153.3108 C   0  0  1  0  0  0  0  0  0  0  0  0
  148.4856  138.3209  153.3691 O   0  0  0  0  0  0  0  0  0  0  0  0
  146.8696  140.0626  153.8979 C   0  0  0  0  0  0  0  0  0  0  0  0
  147.6331  141.1771  153.4886 C   0  0  0  0  0  0  0  0  0  0  0  0
  147.3449  142.4356  154.0532 C   0  0  0  0  0  0  0  0  0  0  0  0
  146.3705  142.6317  154.9668 N   0  0  0  0  0  0  0  0  0  0  0  0
  145.6437  141.5625  155.3553 C   0  0  0  0  0  0  0  0  0  0  0  0
  145.8505  140.2622  154.8528 C   0  0  0  0  0  0  0  0  0  0  0  0
  143.3804  134.1157  152.5185 H   0  0  0  0  0  0  0  0  0  0  0  0
  142.2557  134.8474  151.3848 H   0  0  0  0  0  0  0  0  0  0  0  0
  143.3052  135.8652  152.3477 H   0  0  0  0  0  0  0  0  0  0  0  0
  144.1479  135.7489  150.0549 H   0  0  0  0  0  0  0  0  0  0  0  0
  143.0926  133.5660  149.4427 H   0  0  0  0  0  0  0  0  0  0  0  0
  144.7241  133.7621  148.8671 H   0  0  0  0  0  0  0  0  0  0  0  0
  143.8756  132.1155  151.2974 H   0  0  0  0  0  0  0  0  0  0  0  0
  144.4519  131.4951  149.7730 H   0  0  0  0  0  0  0  0  0  0  0  0
  146.2503  131.4989  151.5187 H   0  0  0  0  0  0  0  0  0  0  0  0
  146.6783  132.4731  150.1342 H   0  0  0  0  0  0  0  0  0  0  0  0
  145.6283  133.5031  152.8137 H   0  0  0  0  0  0  0  0  0  0  0  0
  147.2463  133.6761  152.1926 H   0  0  0  0  0  0  0  0  0  0  0  0
  146.4134  135.0411  150.2983 H   0  0  0  0  0  0  0  0  0  0  0  0
  145.1072  136.6293  152.3762 H   0  0  0  0  0  0  0  0  0  0  0  0
  146.6018  135.9151  152.9590 H   0  0  0  0  0  0  0  0  0  0  0  0
  147.7975  136.9678  151.3645 H   0  0  0  0  0  0  0  0  0  0  0  0
  147.2394  139.2645  151.2219 H   0  0  0  0  0  0  0  0  0  0  0  0
  145.6138  138.8840  151.7609 H   0  0  0  0  0  0  0  0  0  0  0  0
  146.5780  137.9442  153.9039 H   0  0  0  0  0  0  0  0  0  0  0  0
  148.9491  138.7863  152.6891 H   0  0  0  0  0  0  0  0  0  0  0  0
  148.4222  141.0750  152.7579 H   0  0  0  0  0  0  0  0  0  0  0  0
  147.9102  143.3080  153.7603 H   0  0  0  0  0  0  0  0  0  0  0  0
  144.8712  141.7491  156.0867 H   0  0  0  0  0  0  0  0  0  0  0  0
  145.2378  139.4416  155.1965 H   0  0  0  0  0  0  0  0  0  0  0  0
  146.5277  137.2016  150.3514 H   0  0  0  0  0  0  0  0  0  0  0  0
  1  2  1  0  0  0  0
  1 19  1  0  0  0  0
  1 20  1  0  0  0  0
  1 21  1  0  0  0  0
  2  7  1  0  0  0  0
  2  3  1  0  0  0  0
  2 22  1  0  0  0  0
  3  4  1  0  0  0  0
  3 23  1  0  0  0  0
  3 24  1  0  0  0  0
  4  5  1  0  0  0  0
  4 25  1  0  0  0  0
  4 26  1  0  0  0  0
  5  6  1  0  0  0  0
  5 27  1  0  0  0  0
  5 28  1  0  0  0  0
  6  7  1  0  0  0  0
  6 29  1  0  0  0  0
  6 30  1  0  0  0  0
  7  8  1  0  0  0  0
  7 31  1  0  0  0  0
  8  9  1  0  0  0  0
  8 32  1  0  0  0  0
  8 33  1  0  0  0  0
  9 10  1  0  0  0  0
  9 34  1  0  0  0  0
  9 43  1  0  0  0  0
 10 11  1  0  0  0  0
 10 35  1  0  0  0  0
 10 36  1  0  0  0  0
 11 12  1  0  0  0  0
 11 13  1  0  0  0  0
 11 37  1  0  0  0  0
 12 38  1  0  0  0  0
 13 18  1  0  0  0  0
 13 14  2  0  0  0  0
 14 15  1  0  0  0  0
 14 39  1  0  0  0  0
 15 16  2  0  0  0  0
 15 40  1  0  0  0  0
 16 17  1  0  0  0  0
 17 18  2  0  0  0  0
 17 41  1  0  0  0  0
 18 42  1  0  0  0  0
M  CHG  1   9   1
M  END
> <s_m_source_file>
AV-unprocessed.smi

> <i_m_source_file_index>
3290

> <i_lp_mmshare_version>
43012

> <i_f3d_flags>
0

> <s_epik_input>
W0NIM11bQ0BASF0xW0NIMl1bQ0gyXVtDSDJdW0NIMl1bQ0BIXTFbQ0gyXVtOSF1bQ0gyXVtDQEhdKFtPSF0pYzJbY0hdW2NIXW5bY0hdW2NIXTI=

> <s_epik_cmdline>
J2VwaWtfcHl0aG9uJywgJy1waCcsICc3LjAnLCAnLXRuJywgJzgnLCAnLW1hJywgJzIwMCcsICctbWV0YWxfYmluZGluZycsICctaW1hZScsICc8aW5maWxlLm1hZT4nLCAnLW9tYWUnLCAnPG91dGZpbGUubWFlPic=

> <r_lp_tautomer_probability>
1

> <r_epik_Ionization_Penalty>
0.00420552

> <r_epik_Ionization_Penalty_Charging>
0.00207255

> <r_epik_Ionization_Penalty_Neutral>
0.00213297

> <r_epik_State_Penalty>
-0

> <r_epik_Charging_Adjusted_Penalty>
0.00207255

> <i_epik_Tot_Q>
1

> <i_epik_Tot_abs_Q>
1

> <r_epik_Metal_State_Penalty>
-0

> <b_epik_Metal_Only>
0

> <s_lp_Force_Field>
OPLS_2005

> <r_lp_Energy>
19.3175

> <b_lp_Chiralities_Consistent>
1

> <s_lp_Variant>
AV-unprocessed.smi:3290-7

> <Gold.Version>
5.8.1

> <Gold.Id.Protein>
6NUR|6NUR_protein|mol2

> <Gold.PLP.Fitness>
43.9148

> <Gold.PLP.PLP>
-34.9515

> <Gold.PLP.part.hbond>
-2.9366

> <Gold.PLP.part.metal>
0.0000

> <Gold.PLP.part.buried>
-3.9800

> <Gold.PLP.part.nonpolar>
-29.7451

> <Gold.PLP.part.repulsive>
0.4015

> <Gold.PLP.ligand.clash>
0.0000

> <Gold.PLP.ligand.torsion>
1.0092

> <Gold.PLP.Chemscore.Hbond>
2.9200

> <Gold.PLP.Chemscore.CHOScore>
0.7222

> <Gold.PLP.Chemscore.Metal>
0.0000

> <Gold.Chemscore.Hbonds>
donor molecule, donor type, donor heavy atom, donor atom, acceptor molecule, acceptor atom, score
      L1  H     9    34       P1  7948  1.43
      L1  H    12    38       P1  7957  0.89
      L1  C    15    40       P1  8028  0.75

> <Gold.PLP.Chemscore.Internal.Correction>
0.0552

> <Gold.Rescore>
     Score         DG    S(hbond)    S(metal)    S(lipo)     H(rot)  DE(clash)    DE(int)     intcor
     15.72     -17.46       1.93        0.00      92.10       2.05       0.96       0.78       ----

> <Gold.Chemscore.Fitness>
15.7155

> <Gold.Chemscore.DG>
-17.4574

> <Gold.Chemscore.ZeroCoef>
-5.4800

> <Gold.Chemscore.Hbond>
1.9310

> <Gold.Chemscore.Metal>
0.0000

> <Gold.Chemscore.Lipo>
92.0975

> <Gold.Chemscore.Internal_Hbond>
0.0000

> <Gold.Chemscore.DEClash>
0.9632

> <Gold.Chemscore.DEInternal>
0.7787

> <Gold.Chemscore.Rot>
2.0498

> <Gold.Chemscore.Internal.Correction>
   9.000000E+99

> <Gold.Chemscore.Hbonds>
donor molecule, donor type, donor heavy atom, donor atom, acceptor molecule, acceptor atom, score
      L1  H     9    34       P1  7948  0.70
      L1  H    12    38       P1  7957  0.85

> <Gold.Chemscore.Hbond.Weighted>
-6.4495

> <Gold.Chemscore.Metal.Weighted>
-0.0000

> <Gold.Chemscore.Lipo.Weighted>
-10.7754

> <Gold.Chemscore.Internal_Hbond.Weighted>
0.0000

> <Gold.Chemscore.DEClash.Weighted>
0.9632

> <Gold.Chemscore.DEInternal.Weighted>
0.7787

> <Gold.Chemscore.Rot.Weighted>
5.2475

> <Gold.Chemscore.Internal.Correction.Weighted>
   9.000000E+99

> <Gold.Protein.RotatedTorsions>
[ 6907 6896 6895 6894 ] final  -70.62 input  -60.11 | X-H torsion
[ 7974 7965 7964 7962 ] final -114.64 input  175.53 | X-H torsion
[ 8008 7997 7996 7995 ] final   20.76 input   59.86 | X-H torsion
[ 10167 10162 10161 10158 ] final -164.41 input  -65.29 | X-H torsion
[ 10718 10713 10712 10709 ] final  -89.04 input   66.30 | X-H torsion
[ 10763 10752 10751 10750 ] final  -92.67 input  -60.55 | X-H torsion
[ 11005 11000 10999 10996 ] final    6.31 input  -57.11 | X-H torsion

> <Gold.Protein.ActiveResidues>
 VAL166  LYS551  ARG553  GLY616  TRP617  ASP618  TYR619  PRO620  LYS621  CYS622 
 ASP623  PHE694  ASN695  SER759  ASP760  ASP761  ALA762  ILE779  LEU786  VAL792 
 PHE793  MET794  SER795  GLU796  ALA797  LYS798  CYS799  TRP800  GLU811  SER814 

> <Gold.Protein.RotatedAtoms>
  150.7249  134.5426  159.5754 H   0  0  0  0  0  0  0  0  0  0  0  0  # atno 6907 bound_to 6896
  152.2933  134.7693  160.0382 H   0  0  0  0  0  0  0  0  0  0  0  0  # atno 6908 bound_to 6896
  151.8299  133.3371  159.3647 H   0  0  0  0  0  0  0  0  0  0  0  0  # atno 6909 bound_to 6896
  145.1178  140.8651  143.3832 H   0  0  0  0  0  0  0  0  0  0  0  0  # atno 7974 bound_to 7965
  154.9405  140.3052  155.5123 H   0  0  0  0  0  0  0  0  0  0  0  0  # atno 8008 bound_to 7997
  156.2996  140.2337  156.4411 H   0  0  0  0  0  0  0  0  0  0  0  0  # atno 8009 bound_to 7997
  154.8150  140.0426  157.1358 H   0  0  0  0  0  0  0  0  0  0  0  0  # atno 8010 bound_to 7997
  139.6253  144.0545  152.1969 H   0  0  0  0  0  0  0  0  0  0  0  0  # atno 10167 bound_to 10162
  155.9984  130.4858  150.5111 H   0  0  0  0  0  0  0  0  0  0  0  0  # atno 10718 bound_to 10713
  154.6884  135.5222  153.8359 H   0  0  0  0  0  0  0  0  0  0  0  0  # atno 10763 bound_to 10752
  153.0614  135.6570  154.0463 H   0  0  0  0  0  0  0  0  0  0  0  0  # atno 10764 bound_to 10752
  154.0340  135.2983  155.3344 H   0  0  0  0  0  0  0  0  0  0  0  0  # atno 10765 bound_to 10752
  140.5609  134.0193  155.7971 H   0  0  0  0  0  0  0  0  0  0  0  0  # atno 11005 bound_to 11000
  145.0774  139.2985  143.5801 LP  0  0  0  0  0  0  0  0  0  0  0  0  # atno 17320 bound_to 7965
  146.3523  140.0269  142.8654 LP  0  0  0  0  0  0  0  0  0  0  0  0  # atno 17321 bound_to 7965
  140.0197  144.6162  150.7577 LP  0  0  0  0  0  0  0  0  0  0  0  0  # atno 17342 bound_to 10162
  140.7407  143.2808  151.3605 LP  0  0  0  0  0  0  0  0  0  0  0  0  # atno 17343 bound_to 10162
  157.3084  131.0659  151.2019 LP  0  0  0  0  0  0  0  0  0  0  0  0  # atno 17370 bound_to 10713
  157.2973  130.6826  149.6145 LP  0  0  0  0  0  0  0  0  0  0  0  0  # atno 17371 bound_to 10713
  141.1115  133.9609  157.2901 LP  0  0  0  0  0  0  0  0  0  0  0  0  # atno 17394 bound_to 11000
  139.9408  135.0191  156.8702 LP  0  0  0  0  0  0  0  0  0  0  0  0  # atno 17395 bound_to 11000

$$$$
