AV-unprocessed.smi:1194|AV-procd|sdf|4991|dock5
  -GOLD-   22720 3593D 1   1.00000     0.00000
 Structure written by MMmdl.
 47 48  0  0  0  0  0  0  0  0  1 V2000
  139.1833  136.5236  154.1421 C   0  0  0  0  0  0  0  0  0  0  0  0
  140.2431  137.6139  154.3344 C   0  0  0  0  0  0  0  0  0  0  0  0
  141.5150  137.3498  153.5054 C   0  0  0  0  0  0  0  0  0  0  0  0
  142.3245  136.1243  153.9692 C   0  0  0  0  0  0  0  0  0  0  0  0
  141.8183  135.3659  154.7980 O   0  0  0  0  0  0  0  0  0  0  0  0
  143.5595  135.9042  153.4449 N   0  0  0  0  0  0  0  0  0  0  0  0
  144.3889  134.7198  153.7517 C   0  0  0  0  0  0  0  0  0  0  0  0
  144.5395  133.8531  152.4894 C   0  0  0  0  0  0  0  0  0  0  0  0
  145.1018  134.6746  151.3173 C   0  0  0  0  0  0  0  0  0  0  0  0
  144.2690  135.9502  151.0984 C   0  0  0  0  0  0  0  0  0  0  0  0
  144.1281  136.7849  152.3956 C   0  0  2  0  0  0  0  0  0  0  0  0
  145.4160  137.5213  152.8249 C   0  0  0  0  0  0  0  0  0  0  0  0
  146.0001  137.2006  153.8601 O   0  0  0  0  0  0  0  0  0  0  0  0
  145.8581  138.5012  152.0212 N   0  0  0  0  0  0  0  0  0  0  0  0
  147.0481  139.3007  152.2699 C   0  0  0  0  0  0  0  0  0  0  0  0
  146.8329  140.2221  153.4772 C   0  0  0  0  0  0  0  0  0  0  0  0
  148.1255  140.5020  154.2174 C   0  0  0  0  0  0  0  0  0  0  0  0
  148.1455  141.3566  155.3387 C   0  0  0  0  0  0  0  0  0  0  0  0
  149.3714  141.5919  155.9902 C   0  0  0  0  0  0  0  0  0  0  0  0
  150.5280  140.9607  155.4908 C   0  0  0  0  0  0  0  0  0  0  0  0
  150.5208  140.1409  154.4174 N   0  0  0  0  0  0  0  0  0  0  0  0
  149.3411  139.9209  153.7982 C   0  0  0  0  0  0  0  0  0  0  0  0
  138.2931  136.7392  154.7333 H   0  0  0  0  0  0  0  0  0  0  0  0
  139.5604  135.5488  154.4526 H   0  0  0  0  0  0  0  0  0  0  0  0
  138.8790  136.4492  153.0978 H   0  0  0  0  0  0  0  0  0  0  0  0
  139.8133  138.5780  154.0588 H   0  0  0  0  0  0  0  0  0  0  0  0
  140.4957  137.6774  155.3939 H   0  0  0  0  0  0  0  0  0  0  0  0
  141.2303  137.2059  152.4624 H   0  0  0  0  0  0  0  0  0  0  0  0
  142.1561  138.2311  153.5519 H   0  0  0  0  0  0  0  0  0  0  0  0
  145.3737  135.0399  154.0919 H   0  0  0  0  0  0  0  0  0  0  0  0
  144.0070  134.1015  154.5610 H   0  0  0  0  0  0  0  0  0  0  0  0
  145.1900  133.0023  152.6938 H   0  0  0  0  0  0  0  0  0  0  0  0
  143.5678  133.4413  152.2136 H   0  0  0  0  0  0  0  0  0  0  0  0
  146.1397  134.9404  151.5215 H   0  0  0  0  0  0  0  0  0  0  0  0
  145.1117  134.0731  150.4082 H   0  0  0  0  0  0  0  0  0  0  0  0
  144.7045  136.5469  150.2960 H   0  0  0  0  0  0  0  0  0  0  0  0
  143.2748  135.6684  150.7490 H   0  0  0  0  0  0  0  0  0  0  0  0
  143.4430  137.5966  152.1493 H   0  0  0  0  0  0  0  0  0  0  0  0
  145.3326  138.7045  151.1831 H   0  0  0  0  0  0  0  0  0  0  0  0
  147.8956  138.6371  152.4485 H   0  0  0  0  0  0  0  0  0  0  0  0
  147.2803  139.8935  151.3836 H   0  0  0  0  0  0  0  0  0  0  0  0
  146.3995  141.1692  153.1526 H   0  0  0  0  0  0  0  0  0  0  0  0
  146.1161  139.7755  154.1676 H   0  0  0  0  0  0  0  0  0  0  0  0
  147.2391  141.8257  155.6924 H   0  0  0  0  0  0  0  0  0  0  0  0
  149.4244  142.2413  156.8514 H   0  0  0  0  0  0  0  0  0  0  0  0
  151.4847  141.1190  155.9662 H   0  0  0  0  0  0  0  0  0  0  0  0
  149.3693  139.2630  152.9420 H   0  0  0  0  0  0  0  0  0  0  0  0
  1  2  1  0  0  0  0
  1 23  1  0  0  0  0
  1 24  1  0  0  0  0
  1 25  1  0  0  0  0
  2  3  1  0  0  0  0
  2 26  1  0  0  0  0
  2 27  1  0  0  0  0
  3  4  1  0  0  0  0
  3 28  1  0  0  0  0
  3 29  1  0  0  0  0
  4  5  2  0  0  0  0
  4  6  1  0  0  0  0
  6 11  1  0  0  0  0
  6  7  1  0  0  0  0
  7  8  1  0  0  0  0
  7 30  1  0  0  0  0
  7 31  1  0  0  0  0
  8  9  1  0  0  0  0
  8 32  1  0  0  0  0
  8 33  1  0  0  0  0
  9 10  1  0  0  0  0
  9 34  1  0  0  0  0
  9 35  1  0  0  0  0
 10 11  1  0  0  0  0
 10 36  1  0  0  0  0
 10 37  1  0  0  0  0
 11 12  1  0  0  0  0
 11 38  1  0  0  0  0
 12 13  2  0  0  0  0
 12 14  1  0  0  0  0
 14 15  1  0  0  0  0
 14 39  1  0  0  0  0
 15 16  1  0  0  0  0
 15 40  1  0  0  0  0
 15 41  1  0  0  0  0
 16 17  1  0  0  0  0
 16 42  1  0  0  0  0
 16 43  1  0  0  0  0
 17 22  1  0  0  0  0
 17 18  2  0  0  0  0
 18 19  1  0  0  0  0
 18 44  1  0  0  0  0
 19 20  2  0  0  0  0
 19 45  1  0  0  0  0
 20 21  1  0  0  0  0
 20 46  1  0  0  0  0
 21 22  2  0  0  0  0
 22 47  1  0  0  0  0
M  END
> <s_m_source_file>
AV-unprocessed.smi

> <i_m_source_file_index>
1194

> <i_lp_mmshare_version>
43012

> <i_f3d_flags>
0

> <s_epik_input>
W0NIM11bQ0gyXVtDSDJdQyg9TylOMVtDSDJdW0NIMl1bQ0gyXVtDSDJdW0NASF0xQyg9TylbTkhdW0NIMl1bQ0gyXWMyW2NIXVtjSF1bY0hdbltjSF0y

> <s_epik_cmdline>
J2VwaWtfcHl0aG9uJywgJy1waCcsICc3LjAnLCAnLXRuJywgJzgnLCAnLW1hJywgJzIwMCcsICctbWV0YWxfYmluZGluZycsICctaW1hZScsICc8aW5maWxlLm1hZT4nLCAnLW9tYWUnLCAnPG91dGZpbGUubWFlPic=

> <r_epik_Ionization_Penalty>
0.0130932

> <r_epik_Ionization_Penalty_Charging>
0

> <r_epik_Ionization_Penalty_Neutral>
0.0130932

> <r_epik_State_Penalty>
0.0101714

> <r_epik_Charging_Adjusted_Penalty>
0.0101714

> <i_epik_Tot_Q>
0

> <i_epik_Tot_abs_Q>
0

> <r_epik_Metal_State_Penalty>
0.00995056

> <b_epik_Metal_Only>
0

> <s_lp_Force_Field>
OPLS_2005

> <r_lp_Energy>
25.0478

> <b_lp_Chiralities_Consistent>
1

> <s_lp_Variant>
AV-unprocessed.smi:1194-2

> <Gold.Version>
5.8.1

> <Gold.Id.Protein>
6NUR|6NUR_protein|mol2

> <Gold.PLP.Fitness>
44.1377

> <Gold.PLP.PLP>
-35.1151

> <Gold.PLP.part.hbond>
-4.0000

> <Gold.PLP.part.metal>
0.0000

> <Gold.PLP.part.buried>
1.3728

> <Gold.PLP.part.nonpolar>
-33.0990

> <Gold.PLP.part.repulsive>
0.3387

> <Gold.PLP.ligand.clash>
0.0000

> <Gold.PLP.ligand.torsion>
0.4974

> <Gold.PLP.Chemscore.Hbond>
2.5429

> <Gold.PLP.Chemscore.CHOScore>
0.7664

> <Gold.PLP.Chemscore.Metal>
0.0000

> <Gold.Chemscore.Hbonds>
donor molecule, donor type, donor heavy atom, donor atom, acceptor molecule, acceptor atom, score
      L1  H    14    39       P1 10171  1.00
      P1  H  7989  7998       L1    21  1.00
      P1  H 11000 11005       L1     5  0.50
      L1  C    22    47       P1  7957  0.64

> <Gold.PLP.Chemscore.Internal.Correction>
0.0897

> <Gold.Rescore>
     Score         DG    S(hbond)    S(metal)    S(lipo)     H(rot)  DE(clash)    DE(int)     intcor
     12.86     -17.59       1.70        0.00      91.67       1.68       1.87       2.86       ----

> <Gold.Chemscore.Fitness>
12.8572

> <Gold.Chemscore.DG>
-17.5924

> <Gold.Chemscore.ZeroCoef>
-5.4800

> <Gold.Chemscore.Hbond>
1.7046

> <Gold.Chemscore.Metal>
0.0000

> <Gold.Chemscore.Lipo>
91.6741

> <Gold.Chemscore.Internal_Hbond>
0.0000

> <Gold.Chemscore.DEClash>
1.8709

> <Gold.Chemscore.DEInternal>
2.8643

> <Gold.Chemscore.Rot>
1.6823

> <Gold.Chemscore.Internal.Correction>
   9.000000E+99

> <Gold.Chemscore.Hbonds>
donor molecule, donor type, donor heavy atom, donor atom, acceptor molecule, acceptor atom, score
      L1  H    14    39       P1 10171  0.96
      P1  H  7989  7998       L1    21  0.22
      P1  H 11000 11005       L1     5  0.47

> <Gold.Chemscore.Hbond.Weighted>
-5.6933

> <Gold.Chemscore.Metal.Weighted>
-0.0000

> <Gold.Chemscore.Lipo.Weighted>
-10.7259

> <Gold.Chemscore.Internal_Hbond.Weighted>
0.0000

> <Gold.Chemscore.DEClash.Weighted>
1.8709

> <Gold.Chemscore.DEInternal.Weighted>
2.8643

> <Gold.Chemscore.Rot.Weighted>
4.3068

> <Gold.Chemscore.Internal.Correction.Weighted>
   9.000000E+99

> <Gold.Protein.RotatedTorsions>
[ 6907 6896 6895 6894 ] final   55.55 input  -60.11 | X-H torsion
[ 7974 7965 7964 7962 ] final   30.42 input  175.53 | X-H torsion
[ 8008 7997 7996 7995 ] final  -27.49 input   59.86 | X-H torsion
[ 10167 10162 10161 10158 ] final   99.62 input  -65.29 | X-H torsion
[ 10718 10713 10712 10709 ] final  111.48 input   66.30 | X-H torsion
[ 10763 10752 10751 10750 ] final  138.80 input  -60.55 | X-H torsion
[ 11005 11000 10999 10996 ] final   17.70 input  -57.11 | X-H torsion

> <Gold.Protein.ActiveResidues>
 VAL166  LYS551  ARG553  GLY616  TRP617  ASP618  TYR619  PRO620  LYS621  CYS622 
 ASP623  PHE694  ASN695  SER759  ASP760  ASP761  ALA762  ILE779  LEU786  VAL792 
 PHE793  MET794  SER795  GLU796  ALA797  LYS798  CYS799  TRP800  GLU811  SER814 

> <Gold.Protein.RotatedAtoms>
  152.3549  134.6953  160.0224 H   0  0  0  0  0  0  0  0  0  0  0  0  # atno 6907 bound_to 6896
  151.7295  133.3312  159.3344 H   0  0  0  0  0  0  0  0  0  0  0  0  # atno 6908 bound_to 6896
  150.7565  134.6310  159.6231 H   0  0  0  0  0  0  0  0  0  0  0  0  # atno 6909 bound_to 6896
  146.1613  139.6791  142.9032 H   0  0  0  0  0  0  0  0  0  0  0  0  # atno 7974 bound_to 7965
  154.4375  140.1871  156.0940 H   0  0  0  0  0  0  0  0  0  0  0  0  # atno 8008 bound_to 7997
  156.0344  140.3327  155.7148 H   0  0  0  0  0  0  0  0  0  0  0  0  # atno 8009 bound_to 7997
  155.5792  140.0620  157.2778 H   0  0  0  0  0  0  0  0  0  0  0  0  # atno 8010 bound_to 7997
  139.7601  144.6957  151.0305 H   0  0  0  0  0  0  0  0  0  0  0  0  # atno 10167 bound_to 10162
  157.6442  131.0951  150.6755 H   0  0  0  0  0  0  0  0  0  0  0  0  # atno 10718 bound_to 10713
  153.8956  135.3028  155.3448 H   0  0  0  0  0  0  0  0  0  0  0  0  # atno 10763 bound_to 10752
  154.7695  135.4893  153.9624 H   0  0  0  0  0  0  0  0  0  0  0  0  # atno 10764 bound_to 10752
  153.1273  135.6796  153.9335 H   0  0  0  0  0  0  0  0  0  0  0  0  # atno 10765 bound_to 10752
  140.4331  134.1399  155.7682 H   0  0  0  0  0  0  0  0  0  0  0  0  # atno 11005 bound_to 11000
  145.4581  141.0431  143.2767 LP  0  0  0  0  0  0  0  0  0  0  0  0  # atno 17320 bound_to 7965
  144.8031  139.6103  143.7063 LP  0  0  0  0  0  0  0  0  0  0  0  0  # atno 17321 bound_to 7965
  140.7806  143.4707  151.0150 LP  0  0  0  0  0  0  0  0  0  0  0  0  # atno 17342 bound_to 10162
  139.8394  143.7584  152.3180 LP  0  0  0  0  0  0  0  0  0  0  0  0  # atno 17343 bound_to 10162
  156.7074  130.4641  149.5556 LP  0  0  0  0  0  0  0  0  0  0  0  0  # atno 17370 bound_to 10713
  156.1753  130.6464  151.0887 LP  0  0  0  0  0  0  0  0  0  0  0  0  # atno 17371 bound_to 10713
  141.1737  133.8557  157.1489 LP  0  0  0  0  0  0  0  0  0  0  0  0  # atno 17394 bound_to 11000
  140.0121  134.9983  157.0416 LP  0  0  0  0  0  0  0  0  0  0  0  0  # atno 17395 bound_to 11000

$$$$
