AV-unprocessed.smi:1194|AV-procd|sdf|4990|dock9
  -GOLD-   22720 3593D 1   1.00000     0.00000
 Structure written by MMmdl.
 47 48  0  0  0  0  0  0  0  0  1 V2000
  152.2156  143.8406  161.6616 C   0  0  0  0  0  0  0  0  0  0  0  0
  153.2451  142.8732  161.0682 C   0  0  0  0  0  0  0  0  0  0  0  0
  152.5862  141.7370  160.2628 C   0  0  0  0  0  0  0  0  0  0  0  0
  151.7456  142.2224  159.0672 C   0  0  0  0  0  0  0  0  0  0  0  0
  151.6014  143.4359  158.9084 O   0  0  0  0  0  0  0  0  0  0  0  0
  151.1727  141.3103  158.2369 N   0  0  0  0  0  0  0  0  0  0  0  0
  151.3471  139.8467  158.3700 C   0  0  0  0  0  0  0  0  0  0  0  0
  151.9390  139.2557  157.0795 C   0  0  0  0  0  0  0  0  0  0  0  0
  151.0919  139.6324  155.8566 C   0  0  0  0  0  0  0  0  0  0  0  0
  150.8999  141.1552  155.7927 C   0  0  0  0  0  0  0  0  0  0  0  0
  150.3097  141.7331  157.1032 C   0  0  1  0  0  0  0  0  0  0  0  0
  148.8160  141.3933  157.3108 C   0  0  0  0  0  0  0  0  0  0  0  0
  148.4826  140.3251  157.8235 O   0  0  0  0  0  0  0  0  0  0  0  0
  147.9262  142.3042  156.8900 N   0  0  0  0  0  0  0  0  0  0  0  0
  146.4760  142.1928  156.9656 C   0  0  0  0  0  0  0  0  0  0  0  0
  145.8688  143.4030  157.6979 C   0  0  0  0  0  0  0  0  0  0  0  0
  145.9526  143.2984  159.2126 C   0  0  0  0  0  0  0  0  0  0  0  0
  144.9144  142.6996  159.9556 C   0  0  0  0  0  0  0  0  0  0  0  0
  145.0257  142.6499  161.3586 C   0  0  0  0  0  0  0  0  0  0  0  0
  146.1755  143.1988  161.9602 C   0  0  0  0  0  0  0  0  0  0  0  0
  147.1782  143.7692  161.2587 N   0  0  0  0  0  0  0  0  0  0  0  0
  147.0626  143.8157  159.9146 C   0  0  0  0  0  0  0  0  0  0  0  0
  152.7072  144.6318  162.2281 H   0  0  0  0  0  0  0  0  0  0  0  0
  151.5315  143.3235  162.3350 H   0  0  0  0  0  0  0  0  0  0  0  0
  151.6227  144.3127  160.8773 H   0  0  0  0  0  0  0  0  0  0  0  0
  153.9269  143.4358  160.4286 H   0  0  0  0  0  0  0  0  0  0  0  0
  153.8484  142.4555  161.8753 H   0  0  0  0  0  0  0  0  0  0  0  0
  153.3559  141.0554  159.8987 H   0  0  0  0  0  0  0  0  0  0  0  0
  151.9436  141.1720  160.9374 H   0  0  0  0  0  0  0  0  0  0  0  0
  151.9868  139.5444  159.1960 H   0  0  0  0  0  0  0  0  0  0  0  0
  150.3814  139.3843  158.5759 H   0  0  0  0  0  0  0  0  0  0  0  0
  152.9575  139.6233  156.9461 H   0  0  0  0  0  0  0  0  0  0  0  0
  152.0097  138.1708  157.1632 H   0  0  0  0  0  0  0  0  0  0  0  0
  151.5710  139.2763  154.9443 H   0  0  0  0  0  0  0  0  0  0  0  0
  150.1228  139.1350  155.9115 H   0  0  0  0  0  0  0  0  0  0  0  0
  151.8662  141.6256  155.6048 H   0  0  0  0  0  0  0  0  0  0  0  0
  150.2768  141.4159  154.9365 H   0  0  0  0  0  0  0  0  0  0  0  0
  150.3210  142.8163  156.9774 H   0  0  0  0  0  0  0  0  0  0  0  0
  148.2877  143.1481  156.4694 H   0  0  0  0  0  0  0  0  0  0  0  0
  146.0932  142.1490  155.9454 H   0  0  0  0  0  0  0  0  0  0  0  0
  146.1727  141.2683  157.4597 H   0  0  0  0  0  0  0  0  0  0  0  0
  146.3646  144.3193  157.3759 H   0  0  0  0  0  0  0  0  0  0  0  0
  144.8215  143.5081  157.4111 H   0  0  0  0  0  0  0  0  0  0  0  0
  144.0443  142.2935  159.4609 H   0  0  0  0  0  0  0  0  0  0  0  0
  144.2472  142.2040  161.9598 H   0  0  0  0  0  0  0  0  0  0  0  0
  146.2929  143.1810  163.0335 H   0  0  0  0  0  0  0  0  0  0  0  0
  147.8762  144.2911  159.3866 H   0  0  0  0  0  0  0  0  0  0  0  0
  1  2  1  0  0  0  0
  1 23  1  0  0  0  0
  1 24  1  0  0  0  0
  1 25  1  0  0  0  0
  2  3  1  0  0  0  0
  2 26  1  0  0  0  0
  2 27  1  0  0  0  0
  3  4  1  0  0  0  0
  3 28  1  0  0  0  0
  3 29  1  0  0  0  0
  4  5  2  0  0  0  0
  4  6  1  0  0  0  0
  6 11  1  0  0  0  0
  6  7  1  0  0  0  0
  7  8  1  0  0  0  0
  7 30  1  0  0  0  0
  7 31  1  0  0  0  0
  8  9  1  0  0  0  0
  8 32  1  0  0  0  0
  8 33  1  0  0  0  0
  9 10  1  0  0  0  0
  9 34  1  0  0  0  0
  9 35  1  0  0  0  0
 10 11  1  0  0  0  0
 10 36  1  0  0  0  0
 10 37  1  0  0  0  0
 11 12  1  0  0  0  0
 11 38  1  0  0  0  0
 12 13  2  0  0  0  0
 12 14  1  0  0  0  0
 14 15  1  0  0  0  0
 14 39  1  0  0  0  0
 15 16  1  0  0  0  0
 15 40  1  0  0  0  0
 15 41  1  0  0  0  0
 16 17  1  0  0  0  0
 16 42  1  0  0  0  0
 16 43  1  0  0  0  0
 17 22  1  0  0  0  0
 17 18  2  0  0  0  0
 18 19  1  0  0  0  0
 18 44  1  0  0  0  0
 19 20  2  0  0  0  0
 19 45  1  0  0  0  0
 20 21  1  0  0  0  0
 20 46  1  0  0  0  0
 21 22  2  0  0  0  0
 22 47  1  0  0  0  0
M  END
> <s_m_source_file>
AV-unprocessed.smi

> <i_m_source_file_index>
1194

> <i_lp_mmshare_version>
43012

> <i_f3d_flags>
0

> <s_epik_input>
W0NIM11bQ0gyXVtDSDJdQyg9TylOMVtDSDJdW0NIMl1bQ0gyXVtDSDJdW0NASF0xQyg9TylbTkhdW0NIMl1bQ0gyXWMyW2NIXVtjSF1bY0hdbltjSF0y

> <s_epik_cmdline>
J2VwaWtfcHl0aG9uJywgJy1waCcsICc3LjAnLCAnLXRuJywgJzgnLCAnLW1hJywgJzIwMCcsICctbWV0YWxfYmluZGluZycsICctaW1hZScsICc8aW5maWxlLm1hZT4nLCAnLW9tYWUnLCAnPG91dGZpbGUubWFlPic=

> <r_epik_Ionization_Penalty>
0.0130932

> <r_epik_Ionization_Penalty_Charging>
0

> <r_epik_Ionization_Penalty_Neutral>
0.0130932

> <r_epik_State_Penalty>
0.0101714

> <r_epik_Charging_Adjusted_Penalty>
0.0101714

> <i_epik_Tot_Q>
0

> <i_epik_Tot_abs_Q>
0

> <r_epik_Metal_State_Penalty>
0.00995056

> <b_epik_Metal_Only>
0

> <s_lp_Force_Field>
OPLS_2005

> <r_lp_Energy>
24.5515

> <b_lp_Chiralities_Consistent>
1

> <s_lp_Variant>
AV-unprocessed.smi:1194-1

> <Gold.Version>
5.8.1

> <Gold.Id.Protein>
6NUR|6NUR_protein|mol2

> <Gold.PLP.Fitness>
45.0636

> <Gold.PLP.PLP>
-38.9681

> <Gold.PLP.part.hbond>
-1.9889

> <Gold.PLP.part.metal>
0.0000

> <Gold.PLP.part.buried>
-6.1502

> <Gold.PLP.part.nonpolar>
-30.0312

> <Gold.PLP.part.repulsive>
0.1375

> <Gold.PLP.ligand.clash>
0.0000

> <Gold.PLP.ligand.torsion>
1.1504

> <Gold.PLP.Chemscore.Hbond>
1.8426

> <Gold.PLP.Chemscore.CHOScore>
0.9249

> <Gold.PLP.Chemscore.Metal>
0.0000

> <Gold.Chemscore.Hbonds>
donor molecule, donor type, donor heavy atom, donor atom, acceptor molecule, acceptor atom, score
      L1  H    14    39       P1  8028  1.00
      P1  H  6933  6944       L1    21  0.90
      L1  C    22    47       P1  8029  0.63

> <Gold.PLP.Chemscore.Internal.Correction>
0.0938

> <Gold.Rescore>
     Score         DG    S(hbond)    S(metal)    S(lipo)     H(rot)  DE(clash)    DE(int)     intcor
     13.00     -15.52       1.42        0.00      82.18       1.68       0.13       2.39       ----

> <Gold.Chemscore.Fitness>
12.9990

> <Gold.Chemscore.DG>
-15.5197

> <Gold.Chemscore.ZeroCoef>
-5.4800

> <Gold.Chemscore.Hbond>
1.4166

> <Gold.Chemscore.Metal>
0.0000

> <Gold.Chemscore.Lipo>
82.1798

> <Gold.Chemscore.Internal_Hbond>
0.0000

> <Gold.Chemscore.DEClash>
0.1267

> <Gold.Chemscore.DEInternal>
2.3939

> <Gold.Chemscore.Rot>
1.6823

> <Gold.Chemscore.Internal.Correction>
   9.000000E+99

> <Gold.Chemscore.Hbonds>
donor molecule, donor type, donor heavy atom, donor atom, acceptor molecule, acceptor atom, score
      L1  H    14    39       P1  8028  0.55
      P1  H  6933  6944       L1    21  0.05

> <Gold.Chemscore.Hbond.Weighted>
-4.7314

> <Gold.Chemscore.Metal.Weighted>
-0.0000

> <Gold.Chemscore.Lipo.Weighted>
-9.6150

> <Gold.Chemscore.Internal_Hbond.Weighted>
0.0000

> <Gold.Chemscore.DEClash.Weighted>
0.1267

> <Gold.Chemscore.DEInternal.Weighted>
2.3939

> <Gold.Chemscore.Rot.Weighted>
4.3068

> <Gold.Chemscore.Internal.Correction.Weighted>
   9.000000E+99

> <Gold.Protein.RotatedTorsions>
[ 6907 6896 6895 6894 ] final -135.80 input  -60.11 | X-H torsion
[ 7974 7965 7964 7962 ] final -102.32 input  175.53 | X-H torsion
[ 8008 7997 7996 7995 ] final  -92.96 input   59.86 | X-H torsion
[ 10167 10162 10161 10158 ] final   60.04 input  -65.29 | X-H torsion
[ 10718 10713 10712 10709 ] final   73.74 input   66.30 | X-H torsion
[ 10763 10752 10751 10750 ] final  -87.10 input  -60.55 | X-H torsion
[ 11005 11000 10999 10996 ] final   19.36 input  -57.11 | X-H torsion

> <Gold.Protein.ActiveResidues>
 VAL166  LYS551  ARG553  GLY616  TRP617  ASP618  TYR619  PRO620  LYS621  CYS622 
 ASP623  PHE694  ASN695  SER759  ASP760  ASP761  ALA762  ILE779  LEU786  VAL792 
 PHE793  MET794  SER795  GLU796  ALA797  LYS798  CYS799  TRP800  GLU811  SER814 

> <Gold.Protein.RotatedAtoms>
  151.0022  133.6045  159.2693 H   0  0  0  0  0  0  0  0  0  0  0  0  # atno 6907 bound_to 6896
  151.3227  135.0821  159.9321 H   0  0  0  0  0  0  0  0  0  0  0  0  # atno 6908 bound_to 6896
  152.5277  133.9667  159.7797 H   0  0  0  0  0  0  0  0  0  0  0  0  # atno 6909 bound_to 6896
  145.2703  140.9296  143.2990 H   0  0  0  0  0  0  0  0  0  0  0  0  # atno 7974 bound_to 7965
  154.7296  140.0503  157.0714 H   0  0  0  0  0  0  0  0  0  0  0  0  # atno 8008 bound_to 7997
  155.0319  140.3159  155.4736 H   0  0  0  0  0  0  0  0  0  0  0  0  # atno 8009 bound_to 7997
  156.2838  140.2148  156.5440 H   0  0  0  0  0  0  0  0  0  0  0  0  # atno 8010 bound_to 7997
  140.1699  144.4287  150.6666 H   0  0  0  0  0  0  0  0  0  0  0  0  # atno 10167 bound_to 10162
  157.6561  130.9643  150.1112 H   0  0  0  0  0  0  0  0  0  0  0  0  # atno 10718 bound_to 10713
  154.6299  135.5425  153.7669 H   0  0  0  0  0  0  0  0  0  0  0  0  # atno 10763 bound_to 10752
  153.0279  135.6433  154.1316 H   0  0  0  0  0  0  0  0  0  0  0  0  # atno 10764 bound_to 10752
  154.1247  135.2918  155.3180 H   0  0  0  0  0  0  0  0  0  0  0  0  # atno 10765 bound_to 10752
  140.4145  134.1583  155.7669 H   0  0  0  0  0  0  0  0  0  0  0  0  # atno 11005 bound_to 11000
  144.9341  139.4264  143.6481 LP  0  0  0  0  0  0  0  0  0  0  0  0  # atno 17320 bound_to 7965
  146.3248  139.8267  142.8916 LP  0  0  0  0  0  0  0  0  0  0  0  0  # atno 17321 bound_to 7965
  140.6589  143.2246  151.5904 LP  0  0  0  0  0  0  0  0  0  0  0  0  # atno 17342 bound_to 10162
  139.5342  144.2827  152.1216 LP  0  0  0  0  0  0  0  0  0  0  0  0  # atno 17343 bound_to 10162
  156.2008  130.3660  149.8791 LP  0  0  0  0  0  0  0  0  0  0  0  0  # atno 17370 bound_to 10713
  156.6695  130.8814  151.3560 LP  0  0  0  0  0  0  0  0  0  0  0  0  # atno 17371 bound_to 10713
  141.1808  133.8418  157.1264 LP  0  0  0  0  0  0  0  0  0  0  0  0  # atno 17394 bound_to 11000
  140.0244  134.9931  157.0656 LP  0  0  0  0  0  0  0  0  0  0  0  0  # atno 17395 bound_to 11000

$$$$
