AV-unprocessed.smi:111|AV-procd|sdf|1081|dock4
  -GOLD-   2262018173D 1   1.00000     0.00000
 Structure written by MMmdl.
 46 48  0  0  0  0  0  0  0  0  1 V2000
  148.8954  135.4696  156.8745 O   0  0  0  0  0  0  0  0  0  0  0  0
  148.5585  135.3135  158.0494 C   0  0  0  0  0  0  0  0  0  0  0  0
  148.2706  134.0059  158.6288 C   0  0  0  0  0  0  0  0  0  0  0  0
  148.4006  132.9017  157.8739 F   0  0  0  0  0  0  0  0  0  0  0  0
  147.8689  133.8835  159.9121 C   0  0  0  0  0  0  0  0  0  0  0  0
  147.7070  134.9668  160.7595 N   0  0  0  0  0  0  0  0  0  0  0  0
  147.2428  134.7919  162.1893 C   0  0  2  0  0  0  0  0  0  0  0  0
  146.9990  133.3100  162.4909 C   0  0  0  0  0  0  0  0  0  0  0  0
  145.5331  133.1638  162.1459 C   0  0  0  0  0  0  0  0  0  0  0  0
  144.9765  134.5142  162.5847 C   0  0  0  0  0  0  0  0  0  0  0  0
  146.0242  135.4565  162.3624 O   0  0  0  0  0  0  0  0  0  0  0  0
  147.9894  136.2683  160.2923 C   0  0  0  0  0  0  0  0  0  0  0  0
  147.8764  137.2445  161.0375 O   0  0  0  0  0  0  0  0  0  0  0  0
  148.4017  136.4018  158.9450 N   0  0  0  0  0  0  0  0  0  0  0  0
  148.6216  137.7526  158.4464 C   0  0  0  0  0  0  0  0  0  0  0  0
  150.1053  138.1874  158.4499 C   0  0  1  0  0  0  0  0  0  0  0  0
  150.7020  137.7311  157.2536 O   0  0  0  0  0  0  0  0  0  0  0  0
  150.3215  139.7124  158.5690 C   0  0  0  0  0  0  0  0  0  0  0  0
  151.8018  140.1324  158.6267 C   0  0  0  0  0  0  0  0  0  0  0  0
  151.9825  141.6373  158.7437 C   0  0  0  0  0  0  0  0  0  0  0  0
  151.4513  142.4929  157.7549 C   0  0  0  0  0  0  0  0  0  0  0  0
  151.5902  143.8890  157.8763 C   0  0  0  0  0  0  0  0  0  0  0  0
  152.2660  144.4356  158.9841 C   0  0  0  0  0  0  0  0  0  0  0  0
  152.8024  143.5857  159.9704 C   0  0  0  0  0  0  0  0  0  0  0  0
  152.6609  142.1893  159.8511 C   0  0  0  0  0  0  0  0  0  0  0  0
  147.6732  132.8875  160.2799 H   0  0  0  0  0  0  0  0  0  0  0  0
  148.0086  135.2552  162.8137 H   0  0  0  0  0  0  0  0  0  0  0  0
  147.6594  132.6530  161.9237 H   0  0  0  0  0  0  0  0  0  0  0  0
  147.1605  133.1404  163.5560 H   0  0  0  0  0  0  0  0  0  0  0  0
  145.4106  133.0332  161.0701 H   0  0  0  0  0  0  0  0  0  0  0  0
  145.0559  132.3222  162.6484 H   0  0  0  0  0  0  0  0  0  0  0  0
  144.0709  134.7891  162.0439 H   0  0  0  0  0  0  0  0  0  0  0  0
  144.7445  134.4991  163.6501 H   0  0  0  0  0  0  0  0  0  0  0  0
  148.2082  137.7711  157.4358 H   0  0  0  0  0  0  0  0  0  0  0  0
  148.0014  138.4477  159.0127 H   0  0  0  0  0  0  0  0  0  0  0  0
  150.6136  137.6787  159.2677 H   0  0  0  0  0  0  0  0  0  0  0  0
  150.0748  137.8198  156.5524 H   0  0  0  0  0  0  0  0  0  0  0  0
  149.8235  140.2197  157.7422 H   0  0  0  0  0  0  0  0  0  0  0  0
  149.8425  140.0871  159.4719 H   0  0  0  0  0  0  0  0  0  0  0  0
  152.2998  139.6326  159.4584 H   0  0  0  0  0  0  0  0  0  0  0  0
  152.3109  139.7971  157.7226 H   0  0  0  0  0  0  0  0  0  0  0  0
  150.9282  142.0808  156.9046 H   0  0  0  0  0  0  0  0  0  0  0  0
  151.1772  144.5403  157.1204 H   0  0  0  0  0  0  0  0  0  0  0  0
  152.3728  145.5063  159.0777 H   0  0  0  0  0  0  0  0  0  0  0  0
  153.3196  144.0051  160.8207 H   0  0  0  0  0  0  0  0  0  0  0  0
  153.0669  141.5449  160.6171 H   0  0  0  0  0  0  0  0  0  0  0  0
  1  2  2  0  0  0  0
  2 14  1  0  0  0  0
  2  3  1  0  0  0  0
  3  4  1  0  0  0  0
  3  5  2  0  0  0  0
  5  6  1  0  0  0  0
  5 26  1  0  0  0  0
  6  7  1  0  0  0  0
  6 12  1  0  0  0  0
  7 11  1  0  0  0  0
  7  8  1  0  0  0  0
  7 27  1  0  0  0  0
  8  9  1  0  0  0  0
  8 28  1  0  0  0  0
  8 29  1  0  0  0  0
  9 10  1  0  0  0  0
  9 30  1  0  0  0  0
  9 31  1  0  0  0  0
 10 11  1  0  0  0  0
 10 32  1  0  0  0  0
 10 33  1  0  0  0  0
 12 13  2  0  0  0  0
 12 14  1  0  0  0  0
 14 15  1  0  0  0  0
 15 16  1  0  0  0  0
 15 34  1  0  0  0  0
 15 35  1  0  0  0  0
 16 17  1  0  0  0  0
 16 18  1  0  0  0  0
 16 36  1  0  0  0  0
 17 37  1  0  0  0  0
 18 19  1  0  0  0  0
 18 38  1  0  0  0  0
 18 39  1  0  0  0  0
 19 20  1  0  0  0  0
 19 40  1  0  0  0  0
 19 41  1  0  0  0  0
 20 25  1  0  0  0  0
 20 21  2  0  0  0  0
 21 22  1  0  0  0  0
 21 42  1  0  0  0  0
 22 23  2  0  0  0  0
 22 43  1  0  0  0  0
 23 24  1  0  0  0  0
 23 44  1  0  0  0  0
 24 25  2  0  0  0  0
 24 45  1  0  0  0  0
 25 46  1  0  0  0  0
M  END
> <s_m_source_file>
AV-unprocessed.smi

> <i_m_source_file_index>
111

> <i_lp_mmshare_version>
43012

> <i_f3d_flags>
0

> <s_epik_input>
TzFbQ0gyXVtDSDJdW0NIMl1bQ0BIXTFuKFtjSF1jKEYpYzI9TyljKD1PKW4yW0NIMl1bQ0BIXShbT0hdKVtDSDJdW0NIMl1jM1tjSF1bY0hdW2NIXVtjSF1bY0hdMw==

> <s_epik_cmdline>
J2VwaWtfcHl0aG9uJywgJy1waCcsICc3LjAnLCAnLXRuJywgJzgnLCAnLW1hJywgJzIwMCcsICctbWV0YWxfYmluZGluZycsICctaW1hZScsICc8aW5maWxlLm1hZT4nLCAnLW9tYWUnLCAnPG91dGZpbGUubWFlPic=

> <r_lp_tautomer_probability>
1

> <r_epik_Ionization_Penalty>
1.88248e-07

> <r_epik_Ionization_Penalty_Charging>
4.03974e-08

> <r_epik_Ionization_Penalty_Neutral>
1.47851e-07

> <r_epik_State_Penalty>
-0

> <r_epik_Charging_Adjusted_Penalty>
4.03974e-08

> <i_epik_Tot_Q>
0

> <i_epik_Tot_abs_Q>
0

> <r_epik_Metal_State_Penalty>
-0

> <b_epik_Metal_Only>
0

> <s_epik_Chemistry_Notes>
This compound contains an acetal/aminal-like group ( X-CH(R)-Y where X, Y are N, S, or O) that may be acid/base labile, releasing an aldehyde.

> <s_lp_Force_Field>
OPLS_2005

> <r_lp_Energy>
35.2037

> <b_lp_Chiralities_Consistent>
1

> <s_lp_Variant>
AV-unprocessed.smi:111-3

> <Gold.Version>
5.8.1

> <Gold.Id.Protein>
6NUR|6NUR_protein|mol2

> <Gold.PLP.Fitness>
50.9728

> <Gold.PLP.PLP>
-47.0997

> <Gold.PLP.part.hbond>
-2.0000

> <Gold.PLP.part.metal>
0.0000

> <Gold.PLP.part.buried>
-5.2562

> <Gold.PLP.part.nonpolar>
-40.2775

> <Gold.PLP.part.repulsive>
0.0000

> <Gold.PLP.ligand.clash>
0.0000

> <Gold.PLP.ligand.torsion>
0.6296

> <Gold.PLP.Chemscore.Hbond>
1.6800

> <Gold.PLP.Chemscore.CHOScore>
0.0000

> <Gold.PLP.Chemscore.Metal>
0.0000

> <Gold.Chemscore.Hbonds>
donor molecule, donor type, donor heavy atom, donor atom, acceptor molecule, acceptor atom, score
      P1  H  6931  6943       L1    13  0.91
      P1  H  6934  6947       L1    13  0.78

> <Gold.PLP.Chemscore.Internal.Correction>
0.0923

> <Gold.Rescore>
     Score         DG    S(hbond)    S(metal)    S(lipo)     H(rot)  DE(clash)    DE(int)     intcor
     16.46     -17.28       1.64        0.00     112.45       2.67       0.01       0.81       ----

> <Gold.Chemscore.Fitness>
16.4598

> <Gold.Chemscore.DG>
-17.2801

> <Gold.Chemscore.ZeroCoef>
-5.4800

> <Gold.Chemscore.Hbond>
1.6435

> <Gold.Chemscore.Metal>
0.0000

> <Gold.Chemscore.Lipo>
112.4543

> <Gold.Chemscore.Internal_Hbond>
0.0000

> <Gold.Chemscore.DEClash>
0.0149

> <Gold.Chemscore.DEInternal>
0.8054

> <Gold.Chemscore.Rot>
2.6743

> <Gold.Chemscore.Internal.Correction>
   9.000000E+99

> <Gold.Chemscore.Hbonds>
donor molecule, donor type, donor heavy atom, donor atom, acceptor molecule, acceptor atom, score
      P1  H  6931  6943       L1    13  0.90
      P1  H  6934  6947       L1    13  0.77

> <Gold.Chemscore.Hbond.Weighted>
-5.4892

> <Gold.Chemscore.Metal.Weighted>
-0.0000

> <Gold.Chemscore.Lipo.Weighted>
-13.1571

> <Gold.Chemscore.Internal_Hbond.Weighted>
0.0000

> <Gold.Chemscore.DEClash.Weighted>
0.0149

> <Gold.Chemscore.DEInternal.Weighted>
0.8054

> <Gold.Chemscore.Rot.Weighted>
6.8463

> <Gold.Chemscore.Internal.Correction.Weighted>
   9.000000E+99

> <Gold.Protein.RotatedTorsions>
[ 6907 6896 6895 6894 ] final  -83.97 input  -60.11 | X-H torsion
[ 7974 7965 7964 7962 ] final  -91.63 input  175.53 | X-H torsion
[ 8008 7997 7996 7995 ] final  143.78 input   59.86 | X-H torsion
[ 10167 10162 10161 10158 ] final  176.88 input  -65.29 | X-H torsion
[ 10718 10713 10712 10709 ] final  133.81 input   66.30 | X-H torsion
[ 10763 10752 10751 10750 ] final  -73.89 input  -60.55 | X-H torsion
[ 11005 11000 10999 10996 ] final -172.28 input  -57.11 | X-H torsion

> <Gold.Protein.ActiveResidues>
 VAL166  LYS551  ARG553  GLY616  TRP617  ASP618  TYR619  PRO620  LYS621  CYS622 
 ASP623  PHE694  ASN695  SER759  ASP760  ASP761  ALA762  ILE779  LEU786  VAL792 
 PHE793  MET794  SER795  GLU796  ALA797  LYS798  CYS799  TRP800  GLU811  SER814 

> <Gold.Protein.RotatedAtoms>
  150.6880  134.3430  159.4875 H   0  0  0  0  0  0  0  0  0  0  0  0  # atno 6907 bound_to 6896
  152.1281  134.9153  160.0569 H   0  0  0  0  0  0  0  0  0  0  0  0  # atno 6908 bound_to 6896
  152.0333  133.3912  159.4343 H   0  0  0  0  0  0  0  0  0  0  0  0  # atno 6909 bound_to 6896
  145.4105  140.9544  143.2236 H   0  0  0  0  0  0  0  0  0  0  0  0  # atno 7974 bound_to 7965
  156.2923  140.2253  156.4946 H   0  0  0  0  0  0  0  0  0  0  0  0  # atno 8008 bound_to 7997
  154.7741  140.0464  157.1096 H   0  0  0  0  0  0  0  0  0  0  0  0  # atno 8009 bound_to 7997
  154.9838  140.3081  155.4938 H   0  0  0  0  0  0  0  0  0  0  0  0  # atno 8010 bound_to 7997
  139.5231  144.2863  152.0502 H   0  0  0  0  0  0  0  0  0  0  0  0  # atno 10167 bound_to 10162
  157.4735  131.1081  150.9772 H   0  0  0  0  0  0  0  0  0  0  0  0  # atno 10718 bound_to 10713
  154.4657  135.5882  153.6286 H   0  0  0  0  0  0  0  0  0  0  0  0  # atno 10763 bound_to 10752
  152.9828  135.6054  154.3430 H   0  0  0  0  0  0  0  0  0  0  0  0  # atno 10764 bound_to 10752
  154.3307  135.2842  155.2452 H   0  0  0  0  0  0  0  0  0  0  0  0  # atno 10765 bound_to 10752
  140.4988  134.5914  157.4980 H   0  0  0  0  0  0  0  0  0  0  0  0  # atno 11005 bound_to 11000
  144.8312  139.5625  143.6943 LP  0  0  0  0  0  0  0  0  0  0  0  0  # atno 17320 bound_to 7965
  146.2707  139.6628  142.9298 LP  0  0  0  0  0  0  0  0  0  0  0  0  # atno 17321 bound_to 7965
  140.2316  144.4362  150.6297 LP  0  0  0  0  0  0  0  0  0  0  0  0  # atno 17342 bound_to 10162
  140.6351  143.2193  151.6412 LP  0  0  0  0  0  0  0  0  0  0  0  0  # atno 17343 bound_to 10162
  157.0529  130.5794  149.5373 LP  0  0  0  0  0  0  0  0  0  0  0  0  # atno 17370 bound_to 10713
  156.0085  130.5174  150.7911 LP  0  0  0  0  0  0  0  0  0  0  0  0  # atno 17371 bound_to 10713
  139.9726  134.7268  156.0012 LP  0  0  0  0  0  0  0  0  0  0  0  0  # atno 17394 bound_to 11000
  141.1446  133.6558  156.3830 LP  0  0  0  0  0  0  0  0  0  0  0  0  # atno 17395 bound_to 11000

$$$$
