AV-unprocessed.smi:2833|AV-procd|sdf|10915|dock1
  -GOLD-   2272015363D 1   1.00000     0.00000
 Structure written by MMmdl.
 28 29  0  0  0  0  0  0  0  0  1 V2000
  151.6399  136.9286  154.0133 O   0  0  0  0  0  0  0  0  0  0  0  0
  151.5103  138.2883  154.3707 C   0  0  0  0  0  0  0  0  0  0  0  0
  152.1980  138.5510  155.7193 C   0  0  1  0  0  0  0  0  0  0  0  0
  151.8194  139.9332  156.2888 C   0  0  0  0  0  0  0  0  0  0  0  0
  152.4115  140.1122  157.6087 N   0  0  0  0  0  0  0  0  0  0  0  0
  152.2284  141.3967  158.1411 C   0  0  0  0  0  0  0  0  0  0  0  0
  151.2756  142.1887  157.5910 N   0  0  0  0  0  0  0  0  0  0  0  0
  151.0952  143.4247  158.1044 C   0  0  0  0  0  0  0  0  0  0  0  0
  151.8486  143.9300  159.1823 C   0  0  0  0  0  0  0  0  0  0  0  0
  151.5653  145.5200  159.7888 Cl  0  0  0  0  0  0  0  0  0  0  0  0
  152.8380  143.1072  159.7531 C   0  0  0  0  0  0  0  0  0  0  0  0
  153.0321  141.8163  159.2245 C   0  0  0  0  0  0  0  0  0  0  0  0
  153.9749  140.9975  159.7506 F   0  0  0  0  0  0  0  0  0  0  0  0
  152.0498  139.0445  158.5317 C   0  0  0  0  0  0  0  0  0  0  0  0
  152.3970  137.6798  157.9148 C   0  0  0  0  0  0  0  0  0  0  0  0
  151.7606  137.5577  156.6460 O   0  0  0  0  0  0  0  0  0  0  0  0
  151.2409  136.8008  153.1662 H   0  0  0  0  0  0  0  0  0  0  0  0
  151.9861  138.8752  153.5844 H   0  0  0  0  0  0  0  0  0  0  0  0
  150.4590  138.5772  154.3977 H   0  0  0  0  0  0  0  0  0  0  0  0
  153.2819  138.4999  155.5952 H   0  0  0  0  0  0  0  0  0  0  0  0
  152.1704  140.7225  155.6227 H   0  0  0  0  0  0  0  0  0  0  0  0
  150.7341  140.0243  156.3549 H   0  0  0  0  0  0  0  0  0  0  0  0
  150.3268  144.0265  157.6419 H   0  0  0  0  0  0  0  0  0  0  0  0
  153.4370  143.4572  160.5810 H   0  0  0  0  0  0  0  0  0  0  0  0
  152.5796  139.1754  159.4761 H   0  0  0  0  0  0  0  0  0  0  0  0
  150.9817  139.0905  158.7498 H   0  0  0  0  0  0  0  0  0  0  0  0
  153.4766  137.5641  157.8060 H   0  0  0  0  0  0  0  0  0  0  0  0
  152.0537  136.8749  158.5643 H   0  0  0  0  0  0  0  0  0  0  0  0
  1  2  1  0  0  0  0
  1 17  1  0  0  0  0
  2  3  1  0  0  0  0
  2 18  1  0  0  0  0
  2 19  1  0  0  0  0
  3 16  1  0  0  0  0
  3  4  1  0  0  0  0
  3 20  1  0  0  0  0
  4  5  1  0  0  0  0
  4 21  1  0  0  0  0
  4 22  1  0  0  0  0
  5  6  1  0  0  0  0
  5 14  1  0  0  0  0
  6 12  1  0  0  0  0
  6  7  2  0  0  0  0
  7  8  1  0  0  0  0
  8  9  2  0  0  0  0
  8 23  1  0  0  0  0
  9 10  1  0  0  0  0
  9 11  1  0  0  0  0
 11 12  2  0  0  0  0
 11 24  1  0  0  0  0
 12 13  1  0  0  0  0
 14 15  1  0  0  0  0
 14 25  1  0  0  0  0
 14 26  1  0  0  0  0
 15 16  1  0  0  0  0
 15 27  1  0  0  0  0
 15 28  1  0  0  0  0
M  END
> <s_m_source_file>
AV-unprocessed.smi

> <i_m_source_file_index>
2833

> <i_lp_mmshare_version>
43012

> <i_f3d_flags>
0

> <s_epik_input>
W09IXVtDSDJdW0NAQEhdMVtDSDJdTihbQ0gyXVtDSDJdTzEpYzJuW2NIXWMoQ2wpW2NIXWMyRg==

> <s_epik_cmdline>
J2VwaWtfcHl0aG9uJywgJy1waCcsICc3LjAnLCAnLXRuJywgJzgnLCAnLW1hJywgJzIwMCcsICctbWV0YWxfYmluZGluZycsICctaW1hZScsICc8aW5maWxlLm1hZT4nLCAnLW9tYWUnLCAnPG91dGZpbGUubWFlPic=

> <r_lp_tautomer_probability>
1

> <r_epik_Ionization_Penalty>
1.06846e-07

> <r_epik_Ionization_Penalty_Charging>
0

> <r_epik_Ionization_Penalty_Neutral>
1.06846e-07

> <r_epik_State_Penalty>
-0

> <r_epik_Charging_Adjusted_Penalty>
0

> <i_epik_Tot_Q>
0

> <i_epik_Tot_abs_Q>
0

> <r_epik_Metal_State_Penalty>
-0

> <b_epik_Metal_Only>
0

> <s_lp_Force_Field>
OPLS_2005

> <r_lp_Energy>
22.731

> <b_lp_Chiralities_Consistent>
1

> <s_lp_Variant>
AV-unprocessed.smi:2833-2

> <Gold.Version>
5.8.1

> <Gold.Id.Protein>
6NUR|6NUR_protein|mol2

> <Gold.PLP.Fitness>
45.7670

> <Gold.PLP.PLP>
-35.2867

> <Gold.PLP.part.hbond>
-3.0000

> <Gold.PLP.part.metal>
0.0000

> <Gold.PLP.part.buried>
-5.5848

> <Gold.PLP.part.nonpolar>
-26.1500

> <Gold.PLP.part.repulsive>
0.0517

> <Gold.PLP.ligand.clash>
0.0000

> <Gold.PLP.ligand.torsion>
0.3294

> <Gold.PLP.Chemscore.Hbond>
2.6770

> <Gold.PLP.Chemscore.CHOScore>
0.9999

> <Gold.PLP.Chemscore.Metal>
0.0000

> <Gold.Chemscore.Hbonds>
donor molecule, donor type, donor heavy atom, donor atom, acceptor molecule, acceptor atom, score
      L1  H     1    17       P1  7949  1.00
      P1  H  7997  8010       L1     5  0.44
      P1  H 10752 10763       L1     1  1.00
      L1  C     8    23       P1  8028  1.00

> <Gold.PLP.Chemscore.Internal.Correction>
0.1082

> <Gold.Rescore>
     Score         DG    S(hbond)    S(metal)    S(lipo)     H(rot)  DE(clash)    DE(int)     intcor
     15.15     -16.15       1.51        0.00      86.97       1.78       0.40       0.60       ----

> <Gold.Chemscore.Fitness>
15.1488

> <Gold.Chemscore.DG>
-16.1488

> <Gold.Chemscore.ZeroCoef>
-5.4800

> <Gold.Chemscore.Hbond>
1.5099

> <Gold.Chemscore.Metal>
0.0000

> <Gold.Chemscore.Lipo>
86.9727

> <Gold.Chemscore.Internal_Hbond>
0.0000

> <Gold.Chemscore.DEClash>
0.3976

> <Gold.Chemscore.DEInternal>
0.6024

> <Gold.Chemscore.Rot>
1.7773

> <Gold.Chemscore.Internal.Correction>
   9.000000E+99

> <Gold.Chemscore.Hbonds>
donor molecule, donor type, donor heavy atom, donor atom, acceptor molecule, acceptor atom, score
      L1  H     1    17       P1  7949  0.58
      P1  H  7997  8010       L1     5  0.02
      P1  H 10752 10763       L1     1  0.28

> <Gold.Chemscore.Hbond.Weighted>
-5.0429

> <Gold.Chemscore.Metal.Weighted>
-0.0000

> <Gold.Chemscore.Lipo.Weighted>
-10.1758

> <Gold.Chemscore.Internal_Hbond.Weighted>
0.0000

> <Gold.Chemscore.DEClash.Weighted>
0.3976

> <Gold.Chemscore.DEInternal.Weighted>
0.6024

> <Gold.Chemscore.Rot.Weighted>
4.5499

> <Gold.Chemscore.Internal.Correction.Weighted>
   9.000000E+99

> <Gold.Protein.RotatedTorsions>
[ 6907 6896 6895 6894 ] final  -26.53 input  -60.11 | X-H torsion
[ 7974 7965 7964 7962 ] final  -11.84 input  175.53 | X-H torsion
[ 8008 7997 7996 7995 ] final   43.64 input   59.86 | X-H torsion
[ 10167 10162 10161 10158 ] final -124.70 input  -65.29 | X-H torsion
[ 10718 10713 10712 10709 ] final  -14.89 input   66.30 | X-H torsion
[ 10763 10752 10751 10750 ] final   16.62 input  -60.55 | X-H torsion
[ 11005 11000 10999 10996 ] final -127.05 input  -57.11 | X-H torsion

> <Gold.Protein.ActiveResidues>
 VAL166  LYS551  ARG553  GLY616  TRP617  ASP618  TYR619  PRO620  LYS621  CYS622 
 ASP623  PHE694  ASN695  SER759  ASP760  ASP761  ALA762  ILE779  LEU786  VAL792 
 PHE793  MET794  SER795  GLU796  ALA797  LYS798  CYS799  TRP800  GLU811  SER814 

> <Gold.Protein.RotatedAtoms>
  151.1596  135.0267  159.8704 H   0  0  0  0  0  0  0  0  0  0  0  0  # atno 6907 bound_to 6896
  152.5451  134.1294  159.8443 H   0  0  0  0  0  0  0  0  0  0  0  0  # atno 6908 bound_to 6896
  151.1388  133.4939  159.2630 H   0  0  0  0  0  0  0  0  0  0  0  0  # atno 6909 bound_to 6896
  146.2173  140.2970  142.8372 H   0  0  0  0  0  0  0  0  0  0  0  0  # atno 7974 bound_to 7965
  155.3061  140.3388  155.4245 H   0  0  0  0  0  0  0  0  0  0  0  0  # atno 8008 bound_to 7997
  156.1978  140.1721  156.8001 H   0  0  0  0  0  0  0  0  0  0  0  0  # atno 8009 bound_to 7997
  154.5521  140.0703  156.8668 H   0  0  0  0  0  0  0  0  0  0  0  0  # atno 8010 bound_to 7997
  139.9900  143.5651  152.2345 H   0  0  0  0  0  0  0  0  0  0  0  0  # atno 10167 bound_to 10162
  156.6095  130.4846  149.6207 H   0  0  0  0  0  0  0  0  0  0  0  0  # atno 10718 bound_to 10713
  153.1414  135.6760  153.9022 H   0  0  0  0  0  0  0  0  0  0  0  0  # atno 10763 bound_to 10752
  153.8478  135.3097  155.3431 H   0  0  0  0  0  0  0  0  0  0  0  0  # atno 10764 bound_to 10752
  154.7790  135.4899  153.9888 H   0  0  0  0  0  0  0  0  0  0  0  0  # atno 10765 bound_to 10752
  140.9632  134.0908  157.3947 H   0  0  0  0  0  0  0  0  0  0  0  0  # atno 11005 bound_to 11000
  144.9085  140.7729  143.5822 LP  0  0  0  0  0  0  0  0  0  0  0  0  # atno 17320 bound_to 7965
  145.2899  139.1887  143.4746 LP  0  0  0  0  0  0  0  0  0  0  0  0  # atno 17321 bound_to 7965
  139.6347  144.7648  151.2463 LP  0  0  0  0  0  0  0  0  0  0  0  0  # atno 17342 bound_to 10162
  140.7458  143.6419  150.8327 LP  0  0  0  0  0  0  0  0  0  0  0  0  # atno 17343 bound_to 10162
  156.2401  130.6846  151.1548 LP  0  0  0  0  0  0  0  0  0  0  0  0  # atno 17370 bound_to 10713
  157.7258  131.0651  150.5937 LP  0  0  0  0  0  0  0  0  0  0  0  0  # atno 17371 bound_to 10713
  139.8885  135.0098  156.6625 LP  0  0  0  0  0  0  0  0  0  0  0  0  # atno 17394 bound_to 11000
  140.7438  133.8955  155.8297 LP  0  0  0  0  0  0  0  0  0  0  0  0  # atno 17395 bound_to 11000

$$$$
