AV-unprocessed.smi:2064|AV-procd|sdf|8416|dock9
  -GOLD-   2272011103D 1   1.00000     0.00000
 Structure written by MMmdl.
 46 48  0  0  0  0  0  0  0  0  1 V2000
  153.8436  138.6131  154.7569 N   0  0  0  0  0  0  0  0  0  0  0  0
  152.6941  138.4861  154.8030 C   0  0  0  0  0  0  0  0  0  0  0  0
  151.2808  138.3213  154.8897 C   0  0  0  0  0  0  0  0  0  0  0  0
  150.4269  139.2909  154.5015 C   0  0  0  0  0  0  0  0  0  0  0  0
  149.0588  139.1509  154.5846 N   0  0  0  0  0  0  0  0  0  0  0  0
  148.1714  140.1292  154.0215 C   0  0  0  0  0  0  0  0  0  0  0  0
  148.3578  141.5853  154.3878 C   0  0  0  0  0  0  0  0  0  0  0  0
  147.1517  140.8336  154.8955 C   0  0  0  0  0  0  0  0  0  0  0  0
  148.4955  137.9299  155.0157 C   0  0  0  0  0  0  0  0  0  0  0  0
  147.2752  137.7488  155.0015 O   0  0  0  0  0  0  0  0  0  0  0  0
  149.3767  136.9123  155.4551 N   0  0  0  0  0  0  0  0  0  0  0  0
  148.7999  135.6381  155.9374 C   0  0  0  0  0  0  0  0  0  0  0  0
  149.1523  135.3160  157.3977 C   0  0  0  0  0  0  0  0  0  0  0  0
  150.3197  135.1294  157.7443 O   0  0  0  0  0  0  0  0  0  0  0  0
  148.1147  135.2562  158.2465 N   0  0  0  0  0  0  0  0  0  0  0  0
  148.1991  134.9681  159.6765 C   0  0  0  0  0  0  0  0  0  0  0  0
  147.5751  133.5842  159.9525 C   0  0  0  0  0  0  0  0  0  0  0  0
  147.5467  133.1599  161.4310 C   0  0  0  0  0  0  0  0  0  0  0  0
  146.4756  133.9046  162.2439 C   0  0  0  0  0  0  0  0  0  0  0  0
  146.9136  135.2588  162.8279 C   0  0  0  0  0  0  0  0  0  0  0  0
  147.8561  136.1090  161.9581 C   0  0  0  0  0  0  0  0  0  0  0  0
  147.5370  136.1255  160.4535 C   0  0  0  0  0  0  0  0  0  0  0  0
  150.7879  137.0496  155.4137 C   0  0  0  0  0  0  0  0  0  0  0  0
  151.5265  136.1375  155.7891 O   0  0  0  0  0  0  0  0  0  0  0  0
  150.8286  140.2162  154.1143 H   0  0  0  0  0  0  0  0  0  0  0  0
  147.8610  139.9362  152.9960 H   0  0  0  0  0  0  0  0  0  0  0  0
  149.1279  141.8379  155.1143 H   0  0  0  0  0  0  0  0  0  0  0  0
  148.1976  142.3233  153.6044 H   0  0  0  0  0  0  0  0  0  0  0  0
  146.1875  141.0692  154.4498 H   0  0  0  0  0  0  0  0  0  0  0  0
  147.1275  140.5927  155.9566 H   0  0  0  0  0  0  0  0  0  0  0  0
  147.7134  135.6346  155.8382 H   0  0  0  0  0  0  0  0  0  0  0  0
  149.1238  134.8070  155.3084 H   0  0  0  0  0  0  0  0  0  0  0  0
  147.1913  135.4222  157.8733 H   0  0  0  0  0  0  0  0  0  0  0  0
  149.2538  134.9369  159.9570 H   0  0  0  0  0  0  0  0  0  0  0  0
  146.5644  133.5443  159.5435 H   0  0  0  0  0  0  0  0  0  0  0  0
  148.1420  132.8340  159.3995 H   0  0  0  0  0  0  0  0  0  0  0  0
  147.3088  132.0962  161.4617 H   0  0  0  0  0  0  0  0  0  0  0  0
  148.5311  133.2575  161.8899 H   0  0  0  0  0  0  0  0  0  0  0  0
  145.5858  134.0433  161.6287 H   0  0  0  0  0  0  0  0  0  0  0  0
  146.1543  133.2716  163.0719 H   0  0  0  0  0  0  0  0  0  0  0  0
  146.0171  135.8366  163.0559 H   0  0  0  0  0  0  0  0  0  0  0  0
  147.4024  135.0904  163.7881 H   0  0  0  0  0  0  0  0  0  0  0  0
  147.8238  137.1313  162.3365 H   0  0  0  0  0  0  0  0  0  0  0  0
  148.8864  135.7838  162.1078 H   0  0  0  0  0  0  0  0  0  0  0  0
  147.9195  137.0649  160.0515 H   0  0  0  0  0  0  0  0  0  0  0  0
  146.4595  136.1477  160.2853 H   0  0  0  0  0  0  0  0  0  0  0  0
  1  2  3  0  0  0  0
  2  3  1  0  0  0  0
  3 23  1  0  0  0  0
  3  4  2  0  0  0  0
  4  5  1  0  0  0  0
  4 25  1  0  0  0  0
  5  6  1  0  0  0  0
  5  9  1  0  0  0  0
  6  8  1  0  0  0  0
  6  7  1  0  0  0  0
  6 26  1  0  0  0  0
  7  8  1  0  0  0  0
  7 27  1  0  0  0  0
  7 28  1  0  0  0  0
  8 29  1  0  0  0  0
  8 30  1  0  0  0  0
  9 10  2  0  0  0  0
  9 11  1  0  0  0  0
 11 12  1  0  0  0  0
 11 23  1  0  0  0  0
 12 13  1  0  0  0  0
 12 31  1  0  0  0  0
 12 32  1  0  0  0  0
 13 14  2  0  0  0  0
 13 15  1  0  0  0  0
 15 16  1  0  0  0  0
 15 33  1  0  0  0  0
 16 22  1  0  0  0  0
 16 17  1  0  0  0  0
 16 34  1  0  0  0  0
 17 18  1  0  0  0  0
 17 35  1  0  0  0  0
 17 36  1  0  0  0  0
 18 19  1  0  0  0  0
 18 37  1  0  0  0  0
 18 38  1  0  0  0  0
 19 20  1  0  0  0  0
 19 39  1  0  0  0  0
 19 40  1  0  0  0  0
 20 21  1  0  0  0  0
 20 41  1  0  0  0  0
 20 42  1  0  0  0  0
 21 22  1  0  0  0  0
 21 43  1  0  0  0  0
 21 44  1  0  0  0  0
 22 45  1  0  0  0  0
 22 46  1  0  0  0  0
 23 24  2  0  0  0  0
M  END
> <s_m_source_file>
AV-unprocessed.smi

> <i_m_source_file_index>
2064

> <i_lp_mmshare_version>
43012

> <i_f3d_flags>
0

> <s_epik_input>
TiNDYzFbY0hdbihbQ0hdMltDSDJdW0NIMl0yKWMoPU8pbihjMT1PKVtDSDJdQyg9TylbTkhdW0NIXTNbQ0gyXVtDSDJdW0NIMl1bQ0gyXVtDSDJdW0NIMl0z

> <s_epik_cmdline>
J2VwaWtfcHl0aG9uJywgJy1waCcsICc3LjAnLCAnLXRuJywgJzgnLCAnLW1hJywgJzIwMCcsICctbWV0YWxfYmluZGluZycsICctaW1hZScsICc8aW5maWxlLm1hZT4nLCAnLW9tYWUnLCAnPG91dGZpbGUubWFlPic=

> <r_lp_tautomer_probability>
1

> <r_epik_Ionization_Penalty>
2.03018e-08

> <r_epik_Ionization_Penalty_Charging>
8.701e-11

> <r_epik_Ionization_Penalty_Neutral>
2.02148e-08

> <r_epik_State_Penalty>
-0

> <r_epik_Charging_Adjusted_Penalty>
8.701e-11

> <i_epik_Tot_Q>
0

> <i_epik_Tot_abs_Q>
0

> <r_epik_Metal_State_Penalty>
-0

> <b_epik_Metal_Only>
0

> <s_lp_Force_Field>
OPLS_2005

> <r_lp_Energy>
40.6124

> <b_lp_Chiralities_Consistent>
1

> <s_lp_Variant>
AV-unprocessed.smi:2064-1

> <Gold.Version>
5.8.1

> <Gold.Id.Protein>
6NUR|6NUR_protein|mol2

> <Gold.PLP.Fitness>
50.8906

> <Gold.PLP.PLP>
-43.7700

> <Gold.PLP.part.hbond>
-3.0000

> <Gold.PLP.part.metal>
0.0000

> <Gold.PLP.part.buried>
-4.5799

> <Gold.PLP.part.nonpolar>
-36.3557

> <Gold.PLP.part.repulsive>
0.1760

> <Gold.PLP.ligand.clash>
0.0000

> <Gold.PLP.ligand.torsion>
0.2586

> <Gold.PLP.Chemscore.Hbond>
2.4720

> <Gold.PLP.Chemscore.CHOScore>
0.0000

> <Gold.PLP.Chemscore.Metal>
0.0000

> <Gold.Chemscore.Hbonds>
donor molecule, donor type, donor heavy atom, donor atom, acceptor molecule, acceptor atom, score
      P1  H  6896  6908       L1    14  0.66
      P1  H  7997  8010       L1     1  0.85
      P1  H 10752 10765       L1    24  1.00

> <Gold.PLP.Chemscore.Internal.Correction>
0.2217

> <Gold.Rescore>
     Score         DG    S(hbond)    S(metal)    S(lipo)     H(rot)  DE(clash)    DE(int)     intcor
     16.63     -19.78       2.55        0.00      86.61       1.70       0.11       3.04       ----

> <Gold.Chemscore.Fitness>
16.6331

> <Gold.Chemscore.DG>
-19.7829

> <Gold.Chemscore.ZeroCoef>
-5.4800

> <Gold.Chemscore.Hbond>
2.5541

> <Gold.Chemscore.Metal>
0.0000

> <Gold.Chemscore.Lipo>
86.6146

> <Gold.Chemscore.Internal_Hbond>
0.0000

> <Gold.Chemscore.DEClash>
0.1132

> <Gold.Chemscore.DEInternal>
3.0366

> <Gold.Chemscore.Rot>
1.7038

> <Gold.Chemscore.Internal.Correction>
   9.000000E+99

> <Gold.Chemscore.Hbonds>
donor molecule, donor type, donor heavy atom, donor atom, acceptor molecule, acceptor atom, score
      P1  H  6896  6908       L1    14  0.64
      P1  H  7997  8010       L1     1  0.77
      P1  H 10752 10765       L1    24  0.99

> <Gold.Chemscore.Hbond.Weighted>
-8.5307

> <Gold.Chemscore.Metal.Weighted>
-0.0000

> <Gold.Chemscore.Lipo.Weighted>
-10.1339

> <Gold.Chemscore.Internal_Hbond.Weighted>
0.0000

> <Gold.Chemscore.DEClash.Weighted>
0.1132

> <Gold.Chemscore.DEInternal.Weighted>
3.0366

> <Gold.Chemscore.Rot.Weighted>
4.3618

> <Gold.Chemscore.Internal.Correction.Weighted>
   9.000000E+99

> <Gold.Protein.RotatedTorsions>
[ 6907 6896 6895 6894 ] final  159.42 input  -60.11 | X-H torsion
[ 7974 7965 7964 7962 ] final  -46.74 input  175.53 | X-H torsion
[ 8008 7997 7996 7995 ] final  123.40 input   59.86 | X-H torsion
[ 10167 10162 10161 10158 ] final   98.19 input  -65.29 | X-H torsion
[ 10718 10713 10712 10709 ] final  -57.27 input   66.30 | X-H torsion
[ 10763 10752 10751 10750 ] final -167.10 input  -60.55 | X-H torsion
[ 11005 11000 10999 10996 ] final   18.53 input  -57.11 | X-H torsion

> <Gold.Protein.ActiveResidues>
 VAL166  LYS551  ARG553  GLY616  TRP617  ASP618  TYR619  PRO620  LYS621  CYS622 
 ASP623  PHE694  ASN695  SER759  ASP760  ASP761  ALA762  ILE779  LEU786  VAL792 
 PHE793  MET794  SER795  GLU796  ALA797  LYS798  CYS799  TRP800  GLU811  SER814 

> <Gold.Protein.RotatedAtoms>
  151.9859  133.3774  159.4125 H   0  0  0  0  0  0  0  0  0  0  0  0  # atno 6907 bound_to 6896
  150.6928  134.3989  159.5119 H   0  0  0  0  0  0  0  0  0  0  0  0  # atno 6908 bound_to 6896
  152.1715  134.8830  160.0584 H   0  0  0  0  0  0  0  0  0  0  0  0  # atno 6909 bound_to 6896
  145.9688  140.7405  142.9421 H   0  0  0  0  0  0  0  0  0  0  0  0  # atno 7974 bound_to 7965
  156.2764  140.2763  156.1622 H   0  0  0  0  0  0  0  0  0  0  0  0  # atno 8008 bound_to 7997
  155.0742  140.0387  157.2636 H   0  0  0  0  0  0  0  0  0  0  0  0  # atno 8009 bound_to 7997
  154.7016  140.2650  155.6720 H   0  0  0  0  0  0  0  0  0  0  0  0  # atno 8010 bound_to 7997
  139.7732  144.6915  151.0127 H   0  0  0  0  0  0  0  0  0  0  0  0  # atno 10167 bound_to 10162
  156.1224  130.4165  150.0417 H   0  0  0  0  0  0  0  0  0  0  0  0  # atno 10718 bound_to 10713
  154.6766  135.2948  154.9670 H   0  0  0  0  0  0  0  0  0  0  0  0  # atno 10763 bound_to 10752
  154.0679  135.6622  153.4824 H   0  0  0  0  0  0  0  0  0  0  0  0  # atno 10764 bound_to 10752
  153.0520  135.5168  154.7788 H   0  0  0  0  0  0  0  0  0  0  0  0  # atno 10765 bound_to 10752
  140.4237  134.1492  155.7675 H   0  0  0  0  0  0  0  0  0  0  0  0  # atno 11005 bound_to 11000
  144.6832  140.2713  143.7305 LP  0  0  0  0  0  0  0  0  0  0  0  0  # atno 17320 bound_to 7965
  145.7936  139.1936  143.2088 LP  0  0  0  0  0  0  0  0  0  0  0  0  # atno 17321 bound_to 7965
  140.7815  143.4565  151.0338 LP  0  0  0  0  0  0  0  0  0  0  0  0  # atno 17342 bound_to 10162
  139.8248  143.7770  152.3178 LP  0  0  0  0  0  0  0  0  0  0  0  0  # atno 17343 bound_to 10162
  156.8352  130.9406  151.3635 LP  0  0  0  0  0  0  0  0  0  0  0  0  # atno 17370 bound_to 10713
  157.6407  130.8803  149.9442 LP  0  0  0  0  0  0  0  0  0  0  0  0  # atno 17371 bound_to 10713
  141.1773  133.8486  157.1376 LP  0  0  0  0  0  0  0  0  0  0  0  0  # atno 17394 bound_to 11000
  140.0182  134.9958  157.0537 LP  0  0  0  0  0  0  0  0  0  0  0  0  # atno 17395 bound_to 11000

$$$$
