AV-unprocessed.smi:1133|AV-procd|sdf|4855|dock5
  -GOLD-   22720 3423D 1   1.00000     0.00000
 Structure written by MMmdl.
 42 43  0  0  0  0  0  0  0  0  2 V2000
  145.1546  143.5748  154.7076 C   0  0  0  0  0  0  0  0  0  0  0  0
  145.7965  142.5988  155.6961 C   0  0  0  0  0  0  0  0  0  0  0  0
  145.2389  142.4230  156.7796 O   0  0  0  0  0  0  0  0  0  0  0  0
  146.9410  141.9618  155.3499 N   0  0  0  0  0  0  0  0  0  0  0  0
  147.5706  140.9438  156.1984 C   0  0  0  0  0  0  0  0  0  0  0  0
  147.3819  139.5650  155.5402 C   0  0  0  0  0  0  0  0  0  0  0  0
  147.9404  139.5470  154.1008 C   0  0  0  0  0  0  0  0  0  0  0  0
  147.5738  138.2943  153.4474 N   0  0  0  0  0  0  0  0  0  0  0  0
  146.3442  137.7612  153.4384 C   0  0  0  0  0  0  0  0  0  0  0  0
  145.3622  138.2779  153.9724 O   0  0  0  0  0  0  0  0  0  0  0  0
  146.3116  136.5902  152.7869 N   0  0  0  0  0  0  0  0  0  0  0  0
  145.1194  135.7683  152.6186 C   0  0  0  0  0  0  0  0  0  0  0  0
  144.7964  135.5348  151.1330 C   0  0  0  0  0  0  0  0  0  0  0  0
  145.1481  134.1793  150.7087 N   0  0  0  0  0  0  0  0  0  0  0  0
  144.3100  133.2221  150.1975 C   0  0  0  0  0  0  0  0  0  0  0  0
  145.0849  132.1187  149.9479 C   0  0  0  0  0  0  0  0  0  0  0  0
  146.3613  132.4487  150.3190 N   0  3  0  0  0  0  0  0  0  0  0  0
  146.3974  133.7026  150.7817 C   0  0  0  0  0  0  0  0  0  0  0  0
  147.4298  140.7551  153.2810 C   0  0  0  0  0  0  0  0  0  0  0  0
  147.6168  142.0737  154.0516 C   0  0  0  0  0  0  0  0  0  0  0  0
  144.9208  143.0758  153.7667 H   0  0  0  0  0  0  0  0  0  0  0  0
  145.8188  144.4160  154.5086 H   0  0  0  0  0  0  0  0  0  0  0  0
  144.2239  143.9745  155.1118 H   0  0  0  0  0  0  0  0  0  0  0  0
  148.6331  141.1670  156.3055 H   0  0  0  0  0  0  0  0  0  0  0  0
  147.1674  140.9296  157.2118 H   0  0  0  0  0  0  0  0  0  0  0  0
  147.8700  138.7967  156.1410 H   0  0  0  0  0  0  0  0  0  0  0  0
  146.3186  139.3199  155.5287 H   0  0  0  0  0  0  0  0  0  0  0  0
  149.0281  139.6117  154.1689 H   0  0  0  0  0  0  0  0  0  0  0  0
  148.3146  137.7928  152.9790 H   0  0  0  0  0  0  0  0  0  0  0  0
  147.1686  136.2450  152.3794 H   0  0  0  0  0  0  0  0  0  0  0  0
  145.2519  134.8178  153.1383 H   0  0  0  0  0  0  0  0  0  0  0  0
  144.2853  136.2745  153.1055 H   0  0  0  0  0  0  0  0  0  0  0  0
  143.7331  135.6829  150.9407 H   0  0  0  0  0  0  0  0  0  0  0  0
  145.3381  136.2355  150.4956 H   0  0  0  0  0  0  0  0  0  0  0  0
  143.2529  133.3926  150.0528 H   0  0  0  0  0  0  0  0  0  0  0  0
  144.8303  131.1491  149.5451 H   0  0  0  0  0  0  0  0  0  0  0  0
  147.2642  134.2267  151.1439 H   0  0  0  0  0  0  0  0  0  0  0  0
  147.9510  140.8095  152.3246 H   0  0  0  0  0  0  0  0  0  0  0  0
  146.3715  140.6245  153.0488 H   0  0  0  0  0  0  0  0  0  0  0  0
  147.2671  142.9099  153.4477 H   0  0  0  0  0  0  0  0  0  0  0  0
  148.6790  142.2602  154.2156 H   0  0  0  0  0  0  0  0  0  0  0  0
  147.1635  131.8347  150.2538 H   0  0  0  0  0  0  0  0  0  0  0  0
  1  2  1  0  0  0  0
  1 21  1  0  0  0  0
  1 22  1  0  0  0  0
  1 23  1  0  0  0  0
  2  3  2  0  0  0  0
  2  4  1  0  0  0  0
  4 20  1  0  0  0  0
  4  5  1  0  0  0  0
  5  6  1  0  0  0  0
  5 24  1  0  0  0  0
  5 25  1  0  0  0  0
  6  7  1  0  0  0  0
  6 26  1  0  0  0  0
  6 27  1  0  0  0  0
  7  8  1  0  0  0  0
  7 19  1  0  0  0  0
  7 28  1  0  0  0  0
  8  9  1  0  0  0  0
  8 29  1  0  0  0  0
  9 10  2  0  0  0  0
  9 11  1  0  0  0  0
 11 12  1  0  0  0  0
 11 30  1  0  0  0  0
 12 13  1  0  0  0  0
 12 31  1  0  0  0  0
 12 32  1  0  0  0  0
 13 14  1  0  0  0  0
 13 33  1  0  0  0  0
 13 34  1  0  0  0  0
 14 18  1  0  0  0  0
 14 15  1  0  0  0  0
 15 16  2  0  0  0  0
 15 35  1  0  0  0  0
 16 17  1  0  0  0  0
 16 36  1  0  0  0  0
 17 18  2  0  0  0  0
 17 42  1  0  0  0  0
 18 37  1  0  0  0  0
 19 20  1  0  0  0  0
 19 38  1  0  0  0  0
 19 39  1  0  0  0  0
 20 40  1  0  0  0  0
 20 41  1  0  0  0  0
M  CHG  1  17   1
M  END
> <s_m_source_file>
AV-unprocessed.smi

> <i_m_source_file_index>
1133

> <i_lp_mmshare_version>
43012

> <i_f3d_flags>
0

> <s_epik_input>
W0NIM11DKD1PKU4xW0NIMl1bQ0gyXVtDSF0oW0NIMl1bQ0gyXTEpW05IXUMoPU8pW05IXVtDSDJdW0NIMl1uMltjSF1bY0hdbltjSF0y

> <s_epik_cmdline>
J2VwaWtfcHl0aG9uJywgJy1waCcsICc3LjAnLCAnLXRuJywgJzgnLCAnLW1hJywgJzIwMCcsICctbWV0YWxfYmluZGluZycsICctaW1hZScsICc8aW5maWxlLm1hZT4nLCAnLW9tYWUnLCAnPG91dGZpbGUubWFlPic=

> <r_lp_tautomer_probability>
1

> <r_epik_Ionization_Penalty>
0.255167

> <r_epik_Ionization_Penalty_Charging>
0

> <r_epik_Ionization_Penalty_Neutral>
0.255167

> <r_epik_State_Penalty>
0.246616

> <r_epik_Charging_Adjusted_Penalty>
0.246616

> <i_epik_Tot_Q>
1

> <i_epik_Tot_abs_Q>
1

> <r_epik_Metal_State_Penalty>
0.536415

> <b_epik_Metal_Only>
0

> <s_lp_Force_Field>
OPLS_2005

> <r_lp_Energy>
22.8295

> <b_lp_Chiralities_Consistent>
1

> <s_lp_Variant>
AV-unprocessed.smi:1133-1

> <Gold.Version>
5.8.1

> <Gold.Id.Protein>
6NUR|6NUR_protein|mol2

> <Gold.PLP.Fitness>
45.2373

> <Gold.PLP.PLP>
-32.4763

> <Gold.PLP.part.hbond>
-3.0000

> <Gold.PLP.part.metal>
0.0000

> <Gold.PLP.part.buried>
-5.4807

> <Gold.PLP.part.nonpolar>
-25.0588

> <Gold.PLP.part.repulsive>
0.8975

> <Gold.PLP.ligand.clash>
0.0000

> <Gold.PLP.ligand.torsion>
0.4863

> <Gold.PLP.Chemscore.Hbond>
3.0000

> <Gold.PLP.Chemscore.CHOScore>
1.5696

> <Gold.PLP.Chemscore.Metal>
0.0000

> <Gold.Chemscore.Hbonds>
donor molecule, donor type, donor heavy atom, donor atom, acceptor molecule, acceptor atom, score
      L1  H     8    29       P1  7948  1.00
      L1  H    11    30       P1  7948  1.00
      L1  H    17    42       P1 10747  0.94
      L1  C    15    35       P1 10186  1.00
      L1  C    18    37       P1  7948  0.55

> <Gold.PLP.Chemscore.Internal.Correction>
0.0246

> <Gold.Rescore>
     Score         DG    S(hbond)    S(metal)    S(lipo)     H(rot)  DE(clash)    DE(int)     intcor
     14.94     -17.04       2.93        0.00      60.78       2.08       0.29       1.82       ----

> <Gold.Chemscore.Fitness>
14.9359

> <Gold.Chemscore.DG>
-17.0389

> <Gold.Chemscore.ZeroCoef>
-5.4800

> <Gold.Chemscore.Hbond>
2.9253

> <Gold.Chemscore.Metal>
0.0000

> <Gold.Chemscore.Lipo>
60.7832

> <Gold.Chemscore.Internal_Hbond>
0.0000

> <Gold.Chemscore.DEClash>
0.2862

> <Gold.Chemscore.DEInternal>
1.8169

> <Gold.Chemscore.Rot>
2.0794

> <Gold.Chemscore.Internal.Correction>
   9.000000E+99

> <Gold.Chemscore.Hbonds>
donor molecule, donor type, donor heavy atom, donor atom, acceptor molecule, acceptor atom, score
      L1  H     8    29       P1  7948  0.91
      L1  H    11    30       P1  7948  0.99
      L1  H    17    42       P1 10747  0.90

> <Gold.Chemscore.Hbond.Weighted>
-9.7705

> <Gold.Chemscore.Metal.Weighted>
-0.0000

> <Gold.Chemscore.Lipo.Weighted>
-7.1116

> <Gold.Chemscore.Internal_Hbond.Weighted>
0.0000

> <Gold.Chemscore.DEClash.Weighted>
0.2862

> <Gold.Chemscore.DEInternal.Weighted>
1.8169

> <Gold.Chemscore.Rot.Weighted>
5.3232

> <Gold.Chemscore.Internal.Correction.Weighted>
   9.000000E+99

> <Gold.Protein.RotatedTorsions>
[ 6907 6896 6895 6894 ] final  104.82 input  -60.11 | X-H torsion
[ 7974 7965 7964 7962 ] final  137.87 input  175.53 | X-H torsion
[ 8008 7997 7996 7995 ] final  166.17 input   59.86 | X-H torsion
[ 10167 10162 10161 10158 ] final   28.50 input  -65.29 | X-H torsion
[ 10718 10713 10712 10709 ] final -112.64 input   66.30 | X-H torsion
[ 10763 10752 10751 10750 ] final  -61.68 input  -60.55 | X-H torsion
[ 11005 11000 10999 10996 ] final   77.22 input  -57.11 | X-H torsion

> <Gold.Protein.ActiveResidues>
 VAL166  LYS551  ARG553  GLY616  TRP617  ASP618  TYR619  PRO620  LYS621  CYS622 
 ASP623  PHE694  ASN695  SER759  ASP760  ASP761  ALA762  ILE779  LEU786  VAL792 
 PHE793  MET794  SER795  GLU796  ALA797  LYS798  CYS799  TRP800  GLU811  SER814 

> <Gold.Protein.RotatedAtoms>
  152.5252  133.9621  159.7721 H   0  0  0  0  0  0  0  0  0  0  0  0  # atno 6907 bound_to 6896
  150.9909  133.6142  159.2715 H   0  0  0  0  0  0  0  0  0  0  0  0  # atno 6908 bound_to 6896
  151.3286  135.0842  159.9384 H   0  0  0  0  0  0  0  0  0  0  0  0  # atno 6909 bound_to 6896
  144.9426  139.4912  143.5564 H   0  0  0  0  0  0  0  0  0  0  0  0  # atno 7974 bound_to 7965
  156.1740  140.1650  156.8395 H   0  0  0  0  0  0  0  0  0  0  0  0  # atno 8008 bound_to 7997
  154.5287  140.0761  156.8340 H   0  0  0  0  0  0  0  0  0  0  0  0  # atno 8009 bound_to 7997
  155.3452  140.3387  155.4241 H   0  0  0  0  0  0  0  0  0  0  0  0  # atno 8010 bound_to 7997
  140.4847  144.0561  150.6277 H   0  0  0  0  0  0  0  0  0  0  0  0  # atno 10167 bound_to 10162
  156.0717  130.5930  150.8535 H   0  0  0  0  0  0  0  0  0  0  0  0  # atno 10718 bound_to 10713
  154.2883  135.6258  153.5375 H   0  0  0  0  0  0  0  0  0  0  0  0  # atno 10763 bound_to 10752
  152.9856  135.5649  154.5418 H   0  0  0  0  0  0  0  0  0  0  0  0  # atno 10764 bound_to 10752
  154.5024  135.2872  155.1386 H   0  0  0  0  0  0  0  0  0  0  0  0  # atno 10765 bound_to 10752
  139.9264  134.7665  156.1495 H   0  0  0  0  0  0  0  0  0  0  0  0  # atno 11005 bound_to 11000
  146.3291  139.8456  142.8882 LP  0  0  0  0  0  0  0  0  0  0  0  0  # atno 17320 bound_to 7965
  145.2967  141.0182  143.3632 LP  0  0  0  0  0  0  0  0  0  0  0  0  # atno 17321 bound_to 7965
  140.3813  143.2801  152.0167 LP  0  0  0  0  0  0  0  0  0  0  0  0  # atno 17342 bound_to 10162
  139.4840  144.6152  151.7359 LP  0  0  0  0  0  0  0  0  0  0  0  0  # atno 17343 bound_to 10162
  157.5792  131.0946  150.9298 LP  0  0  0  0  0  0  0  0  0  0  0  0  # atno 17370 bound_to 10713
  156.9497  130.5415  149.5282 LP  0  0  0  0  0  0  0  0  0  0  0  0  # atno 17371 bound_to 10713
  141.0824  133.6749  156.2363 LP  0  0  0  0  0  0  0  0  0  0  0  0  # atno 17394 bound_to 11000
  140.6325  134.5249  157.5561 LP  0  0  0  0  0  0  0  0  0  0  0  0  # atno 17395 bound_to 11000

$$$$
