AV-unprocessed.smi:2990|AV-procd|sdf|11394|dock9
  -GOLD-   2272016313D 1   1.00000     0.00000
 Structure written by MMmdl.
 39 41  0  0  0  0  0  0  0  0  1 V2000
  153.5653  139.1315  160.6758 C   0  0  0  0  0  0  0  0  0  0  0  0
  152.9681  140.4855  160.4581 C   0  0  0  0  0  0  0  0  0  0  0  0
  153.2015  141.5055  161.2847 N   0  0  0  0  0  0  0  0  0  0  0  0
  152.4679  142.5293  160.7169 C   0  0  0  0  0  0  0  0  0  0  0  0
  152.3011  143.8736  161.1202 C   0  0  0  0  0  0  0  0  0  0  0  0
  151.4893  144.7488  160.3692 C   0  0  0  0  0  0  0  0  0  0  0  0
  150.8333  144.2937  159.2071 C   0  0  0  0  0  0  0  0  0  0  0  0
  150.9859  142.9581  158.7875 C   0  0  0  0  0  0  0  0  0  0  0  0
  151.7979  142.0890  159.5404 C   0  0  0  0  0  0  0  0  0  0  0  0
  152.1528  140.7507  159.4075 N   0  0  0  0  0  0  0  0  0  0  0  0
  151.7188  139.8481  158.3502 C   0  0  0  0  0  0  0  0  0  0  0  0
  152.0902  140.3645  156.9452 C   0  0  1  0  0  0  0  0  0  0  0  0
  152.7514  139.3741  156.1832 O   0  0  0  0  0  0  0  0  0  0  0  0
  150.8895  140.9031  156.1497 C   0  0  0  0  0  0  0  0  0  0  0  0
  150.5233  139.9750  155.1359 O   0  0  0  0  0  0  0  0  0  0  0  0
  149.3253  140.1594  154.4803 C   0  0  0  0  0  0  0  0  0  0  0  0
  148.8254  141.4770  154.4222 C   0  0  0  0  0  0  0  0  0  0  0  0
  147.6099  141.7592  153.7698 C   0  0  0  0  0  0  0  0  0  0  0  0
  146.8776  140.7199  153.1673 C   0  0  0  0  0  0  0  0  0  0  0  0
  147.3633  139.4000  153.2192 C   0  0  0  0  0  0  0  0  0  0  0  0
  148.5801  139.1180  153.8708 C   0  0  0  0  0  0  0  0  0  0  0  0
  154.2597  139.1501  161.5163 H   0  0  0  0  0  0  0  0  0  0  0  0
  154.1109  138.8082  159.7891 H   0  0  0  0  0  0  0  0  0  0  0  0
  152.7816  138.4058  160.8936 H   0  0  0  0  0  0  0  0  0  0  0  0
  152.7988  144.2316  162.0092 H   0  0  0  0  0  0  0  0  0  0  0  0
  151.3695  145.7743  160.6862 H   0  0  0  0  0  0  0  0  0  0  0  0
  150.2132  144.9707  158.6380 H   0  0  0  0  0  0  0  0  0  0  0  0
  150.4859  142.6056  157.8976 H   0  0  0  0  0  0  0  0  0  0  0  0
  152.1400  138.8579  158.5235 H   0  0  0  0  0  0  0  0  0  0  0  0
  150.6369  139.7335  158.4278 H   0  0  0  0  0  0  0  0  0  0  0  0
  152.8034  141.1822  157.0548 H   0  0  0  0  0  0  0  0  0  0  0  0
  152.2372  139.1961  155.4106 H   0  0  0  0  0  0  0  0  0  0  0  0
  150.0492  141.0325  156.8339 H   0  0  0  0  0  0  0  0  0  0  0  0
  151.1232  141.8801  155.7226 H   0  0  0  0  0  0  0  0  0  0  0  0
  149.3809  142.2811  154.8827 H   0  0  0  0  0  0  0  0  0  0  0  0
  147.2400  142.7735  153.7321 H   0  0  0  0  0  0  0  0  0  0  0  0
  145.9449  140.9346  152.6667 H   0  0  0  0  0  0  0  0  0  0  0  0
  146.8017  138.6014  152.7574 H   0  0  0  0  0  0  0  0  0  0  0  0
  148.9199  138.0937  153.8894 H   0  0  0  0  0  0  0  0  0  0  0  0
  1  2  1  0  0  0  0
  1 22  1  0  0  0  0
  1 23  1  0  0  0  0
  1 24  1  0  0  0  0
  2 10  1  0  0  0  0
  2  3  2  0  0  0  0
  3  4  1  0  0  0  0
  4  9  2  0  0  0  0
  4  5  1  0  0  0  0
  5  6  2  0  0  0  0
  5 25  1  0  0  0  0
  6  7  1  0  0  0  0
  6 26  1  0  0  0  0
  7  8  2  0  0  0  0
  7 27  1  0  0  0  0
  8  9  1  0  0  0  0
  8 28  1  0  0  0  0
  9 10  1  0  0  0  0
 10 11  1  0  0  0  0
 11 12  1  0  0  0  0
 11 29  1  0  0  0  0
 11 30  1  0  0  0  0
 12 13  1  0  0  0  0
 12 14  1  0  0  0  0
 12 31  1  0  0  0  0
 13 32  1  0  0  0  0
 14 15  1  0  0  0  0
 14 33  1  0  0  0  0
 14 34  1  0  0  0  0
 15 16  1  0  0  0  0
 16 21  1  0  0  0  0
 16 17  2  0  0  0  0
 17 18  1  0  0  0  0
 17 35  1  0  0  0  0
 18 19  2  0  0  0  0
 18 36  1  0  0  0  0
 19 20  1  0  0  0  0
 19 37  1  0  0  0  0
 20 21  2  0  0  0  0
 20 38  1  0  0  0  0
 21 39  1  0  0  0  0
M  END
> <s_m_source_file>
AV-unprocessed.smi

> <i_m_source_file_index>
2990

> <i_lp_mmshare_version>
43012

> <i_f3d_flags>
0

> <s_epik_input>
W2NIXTFbY0hdW2NIXVtjSF1jKGMxMiluKGMobjIpW0NIM10pW0NIMl1bQ0BIXShbT0hdKVtDSDJdT2MzW2NIXVtjSF1bY0hdW2NIXVtjSF0z

> <s_epik_cmdline>
J2VwaWtfcHl0aG9uJywgJy1waCcsICc3LjAnLCAnLXRuJywgJzgnLCAnLW1hJywgJzIwMCcsICctbWV0YWxfYmluZGluZycsICctaW1hZScsICc8aW5maWxlLm1hZT4nLCAnLW9tYWUnLCAnPG91dGZpbGUubWFlPic=

> <r_lp_tautomer_probability>
1

> <r_epik_Ionization_Penalty>
0.119634

> <r_epik_Ionization_Penalty_Charging>
0

> <r_epik_Ionization_Penalty_Neutral>
0.119634

> <r_epik_State_Penalty>
0.10919

> <r_epik_Charging_Adjusted_Penalty>
0.10919

> <i_epik_Tot_Q>
0

> <i_epik_Tot_abs_Q>
0

> <r_epik_Metal_State_Penalty>
0.000119887

> <b_epik_Metal_Only>
0

> <s_lp_Force_Field>
OPLS_2005

> <r_lp_Energy>
16.8637

> <b_lp_Chiralities_Consistent>
1

> <s_lp_Variant>
AV-unprocessed.smi:2990-2

> <Gold.Version>
5.8.1

> <Gold.Id.Protein>
6NUR|6NUR_protein|mol2

> <Gold.PLP.Fitness>
47.8852

> <Gold.PLP.PLP>
-46.1859

> <Gold.PLP.part.hbond>
-2.0000

> <Gold.PLP.part.metal>
0.0000

> <Gold.PLP.part.buried>
-2.8281

> <Gold.PLP.part.nonpolar>
-39.7400

> <Gold.PLP.part.repulsive>
0.0537

> <Gold.PLP.ligand.clash>
0.0000

> <Gold.PLP.ligand.torsion>
1.6884

> <Gold.PLP.Chemscore.Hbond>
1.6720

> <Gold.PLP.Chemscore.CHOScore>
0.0000

> <Gold.PLP.Chemscore.Metal>
0.0000

> <Gold.Chemscore.Hbonds>
donor molecule, donor type, donor heavy atom, donor atom, acceptor molecule, acceptor atom, score
      P1  H  7989  7998       L1    15  0.35
      P1  H  7997  8010       L1    13  0.85

> <Gold.PLP.Chemscore.Internal.Correction>
0.0600

> <Gold.Rescore>
     Score         DG    S(hbond)    S(metal)    S(lipo)     H(rot)  DE(clash)    DE(int)     intcor
     15.55     -17.44       0.50        0.00     132.42       2.04       0.19       1.70       ----

> <Gold.Chemscore.Fitness>
15.5452

> <Gold.Chemscore.DG>
-17.4397

> <Gold.Chemscore.ZeroCoef>
-5.4800

> <Gold.Chemscore.Hbond>
0.5027

> <Gold.Chemscore.Metal>
0.0000

> <Gold.Chemscore.Lipo>
132.4196

> <Gold.Chemscore.Internal_Hbond>
0.0000

> <Gold.Chemscore.DEClash>
0.1944

> <Gold.Chemscore.DEInternal>
1.7001

> <Gold.Chemscore.Rot>
2.0361

> <Gold.Chemscore.Internal.Correction>
   9.000000E+99

> <Gold.Chemscore.Hbonds>
donor molecule, donor type, donor heavy atom, donor atom, acceptor molecule, acceptor atom, score
      P1  H  7997  8010       L1    13  0.23

> <Gold.Chemscore.Hbond.Weighted>
-1.6790

> <Gold.Chemscore.Metal.Weighted>
-0.0000

> <Gold.Chemscore.Lipo.Weighted>
-15.4931

> <Gold.Chemscore.Internal_Hbond.Weighted>
0.0000

> <Gold.Chemscore.DEClash.Weighted>
0.1944

> <Gold.Chemscore.DEInternal.Weighted>
1.7001

> <Gold.Chemscore.Rot.Weighted>
5.2124

> <Gold.Chemscore.Internal.Correction.Weighted>
   9.000000E+99

> <Gold.Protein.RotatedTorsions>
[ 6907 6896 6895 6894 ] final  168.42 input  -60.11 | X-H torsion
[ 7974 7965 7964 7962 ] final -167.28 input  175.53 | X-H torsion
[ 8008 7997 7996 7995 ] final  104.26 input   59.86 | X-H torsion
[ 10167 10162 10161 10158 ] final -150.03 input  -65.29 | X-H torsion
[ 10718 10713 10712 10709 ] final -151.27 input   66.30 | X-H torsion
[ 10763 10752 10751 10750 ] final   92.09 input  -60.55 | X-H torsion
[ 11005 11000 10999 10996 ] final  166.74 input  -57.11 | X-H torsion

> <Gold.Protein.ActiveResidues>
 VAL166  LYS551  ARG553  GLY616  TRP617  ASP618  TYR619  PRO620  LYS621  CYS622 
 ASP623  PHE694  ASN695  SER759  ASP760  ASP761  ALA762  ILE779  LEU786  VAL792 
 PHE793  MET794  SER795  GLU796  ALA797  LYS798  CYS799  TRP800  GLU811  SER814 

> <Gold.Protein.RotatedAtoms>
  151.8479  133.3435  159.3663 H   0  0  0  0  0  0  0  0  0  0  0  0  # atno 6907 bound_to 6896
  150.7215  134.5328  159.5718 H   0  0  0  0  0  0  0  0  0  0  0  0  # atno 6908 bound_to 6896
  152.2815  134.7824  160.0446 H   0  0  0  0  0  0  0  0  0  0  0  0  # atno 6909 bound_to 6896
  144.7226  140.2542  143.6274 H   0  0  0  0  0  0  0  0  0  0  0  0  # atno 7974 bound_to 7965
  156.1557  140.3151  155.8722 H   0  0  0  0  0  0  0  0  0  0  0  0  # atno 8008 bound_to 7997
  155.3883  140.0492  157.3058 H   0  0  0  0  0  0  0  0  0  0  0  0  # atno 8009 bound_to 7997
  154.5099  140.2160  155.9188 H   0  0  0  0  0  0  0  0  0  0  0  0  # atno 8010 bound_to 7997
  139.7390  143.8691  152.2557 H   0  0  0  0  0  0  0  0  0  0  0  0  # atno 10167 bound_to 10162
  156.4571  130.8195  151.2426 H   0  0  0  0  0  0  0  0  0  0  0  0  # atno 10718 bound_to 10713
  153.2154  135.4374  155.0428 H   0  0  0  0  0  0  0  0  0  0  0  0  # atno 10763 bound_to 10752
  154.8222  135.3343  154.7006 H   0  0  0  0  0  0  0  0  0  0  0  0  # atno 10764 bound_to 10752
  153.7441  135.7002  153.5016 H   0  0  0  0  0  0  0  0  0  0  0  0  # atno 10765 bound_to 10752
  140.2695  134.7838  157.3663 H   0  0  0  0  0  0  0  0  0  0  0  0  # atno 11005 bound_to 11000
  145.8199  139.2039  143.1944 LP  0  0  0  0  0  0  0  0  0  0  0  0  # atno 17320 bound_to 7965
  146.0523  140.8056  142.9775 LP  0  0  0  0  0  0  0  0  0  0  0  0  # atno 17321 bound_to 7965
  139.8636  144.7104  150.9070 LP  0  0  0  0  0  0  0  0  0  0  0  0  # atno 17342 bound_to 10162
  140.7783  143.3797  151.1499 LP  0  0  0  0  0  0  0  0  0  0  0  0  # atno 17343 bound_to 10162
  157.7500  131.0119  150.3364 LP  0  0  0  0  0  0  0  0  0  0  0  0  # atno 17370 bound_to 10713
  156.3755  130.3871  149.7142 LP  0  0  0  0  0  0  0  0  0  0  0  0  # atno 17371 bound_to 10713
  140.1386  134.5001  155.8049 LP  0  0  0  0  0  0  0  0  0  0  0  0  # atno 17394 bound_to 11000
  141.2179  133.6817  156.7170 LP  0  0  0  0  0  0  0  0  0  0  0  0  # atno 17395 bound_to 11000

$$$$
