AV-unprocessed.smi:3115|AV-procd|sdf|11860|dock5
  -GOLD-   2272017243D 1   1.00000     0.00000
 Structure written by MMmdl.
 32 33  0  0  0  0  0  0  0  0  1 V2000
  154.1491  141.4027  161.4905 C   0  0  0  0  0  0  0  0  0  0  0  0
  152.9362  141.8617  160.6744 C   0  0  2  0  0  0  0  0  0  0  0  0
  152.8454  141.1399  159.3155 C   0  0  0  0  0  0  0  0  0  0  0  0
  151.7362  141.6758  158.5360 N   0  0  0  0  0  0  0  0  0  0  0  0
  151.5131  140.9900  157.3336 C   0  0  0  0  0  0  0  0  0  0  0  0
  150.3656  141.2990  156.5727 C   0  0  0  0  0  0  0  0  0  0  0  0
  150.1476  140.6088  155.3631 C   0  0  0  0  0  0  0  0  0  0  0  0
  148.9263  140.9000  154.5163 C   0  0  0  0  0  0  0  0  0  0  0  0
  148.8645  142.2867  154.1019 N   0  0  0  0  0  0  0  0  0  0  0  0
  151.0814  139.6321  154.9638 C   0  0  0  0  0  0  0  0  0  0  0  0
  152.1961  139.3942  155.7911 C   0  0  0  0  0  0  0  0  0  0  0  0
  152.4138  140.0536  156.9489 N   0  0  0  0  0  0  0  0  0  0  0  0
  151.8203  143.1215  158.3725 C   0  0  0  0  0  0  0  0  0  0  0  0
  151.9332  143.7984  159.7487 C   0  0  0  0  0  0  0  0  0  0  0  0
  153.0524  143.2657  160.4515 O   0  0  0  0  0  0  0  0  0  0  0  0
  154.1011  140.3333  161.6975 H   0  0  0  0  0  0  0  0  0  0  0  0
  154.1958  141.9246  162.4465 H   0  0  0  0  0  0  0  0  0  0  0  0
  155.0800  141.5993  160.9578 H   0  0  0  0  0  0  0  0  0  0  0  0
  152.0322  141.6666  161.2545 H   0  0  0  0  0  0  0  0  0  0  0  0
  153.7780  141.2659  158.7635 H   0  0  0  0  0  0  0  0  0  0  0  0
  152.7022  140.0692  159.4671 H   0  0  0  0  0  0  0  0  0  0  0  0
  149.6661  142.0499  156.9107 H   0  0  0  0  0  0  0  0  0  0  0  0
  148.9204  140.2603  153.6334 H   0  0  0  0  0  0  0  0  0  0  0  0
  148.0288  140.6619  155.0878 H   0  0  0  0  0  0  0  0  0  0  0  0
  147.9214  142.5178  153.8245 H   0  0  0  0  0  0  0  0  0  0  0  0
  149.0916  142.8826  154.8854 H   0  0  0  0  0  0  0  0  0  0  0  0
  150.9490  139.0777  154.0463 H   0  0  0  0  0  0  0  0  0  0  0  0
  152.9325  138.6538  155.5161 H   0  0  0  0  0  0  0  0  0  0  0  0
  152.6896  143.3749  157.7640 H   0  0  0  0  0  0  0  0  0  0  0  0
  150.9383  143.4869  157.8452 H   0  0  0  0  0  0  0  0  0  0  0  0
  152.0676  144.8735  159.6289 H   0  0  0  0  0  0  0  0  0  0  0  0
  151.0217  143.6531  160.3306 H   0  0  0  0  0  0  0  0  0  0  0  0
  1  2  1  0  0  0  0
  1 16  1  0  0  0  0
  1 17  1  0  0  0  0
  1 18  1  0  0  0  0
  2 15  1  0  0  0  0
  2  3  1  0  0  0  0
  2 19  1  0  0  0  0
  3  4  1  0  0  0  0
  3 20  1  0  0  0  0
  3 21  1  0  0  0  0
  4  5  1  0  0  0  0
  4 13  1  0  0  0  0
  5 12  1  0  0  0  0
  5  6  2  0  0  0  0
  6  7  1  0  0  0  0
  6 22  1  0  0  0  0
  7  8  1  0  0  0  0
  7 10  2  0  0  0  0
  8  9  1  0  0  0  0
  8 23  1  0  0  0  0
  8 24  1  0  0  0  0
  9 25  1  0  0  0  0
  9 26  1  0  0  0  0
 10 11  1  0  0  0  0
 10 27  1  0  0  0  0
 11 12  2  0  0  0  0
 11 28  1  0  0  0  0
 13 14  1  0  0  0  0
 13 29  1  0  0  0  0
 13 30  1  0  0  0  0
 14 15  1  0  0  0  0
 14 31  1  0  0  0  0
 14 32  1  0  0  0  0
M  END
> <s_m_source_file>
AV-unprocessed.smi

> <i_m_source_file_index>
3115

> <i_lp_mmshare_version>
43012

> <i_f3d_flags>
0

> <s_epik_input>
W0NIM11bQ0BASF0xW0NIMl1OKFtDSDJdW0NIMl1PMSljMltjSF1jKFtDSDJdW05IMl0pW2NIXVtjSF1uMg==

> <s_epik_cmdline>
J2VwaWtfcHl0aG9uJywgJy1waCcsICc3LjAnLCAnLXRuJywgJzgnLCAnLW1hJywgJzIwMCcsICctbWV0YWxfYmluZGluZycsICctaW1hZScsICc8aW5maWxlLm1hZT4nLCAnLW9tYWUnLCAnPG91dGZpbGUubWFlPic=

> <r_lp_tautomer_probability>
1

> <r_epik_Ionization_Penalty>
1.27341

> <r_epik_Ionization_Penalty_Charging>
0

> <r_epik_Ionization_Penalty_Neutral>
1.27341

> <r_epik_State_Penalty>
2.46834

> <r_epik_Charging_Adjusted_Penalty>
2.46834

> <i_epik_Tot_Q>
0

> <i_epik_Tot_abs_Q>
0

> <r_epik_Metal_State_Penalty>
2.44319

> <b_epik_Metal_Only>
0

> <s_lp_Force_Field>
OPLS_2005

> <r_lp_Energy>
17.2418

> <b_lp_Chiralities_Consistent>
1

> <s_lp_Variant>
AV-unprocessed.smi:3115-3

> <Gold.Version>
5.8.1

> <Gold.Id.Protein>
6NUR|6NUR_protein|mol2

> <Gold.PLP.Fitness>
40.0247

> <Gold.PLP.PLP>
-34.3127

> <Gold.PLP.part.hbond>
-3.0000

> <Gold.PLP.part.metal>
0.0000

> <Gold.PLP.part.buried>
-0.8797

> <Gold.PLP.part.nonpolar>
-29.7648

> <Gold.PLP.part.repulsive>
0.0011

> <Gold.PLP.ligand.clash>
0.0000

> <Gold.PLP.ligand.torsion>
0.0692

> <Gold.PLP.Chemscore.Hbond>
1.9168

> <Gold.PLP.Chemscore.CHOScore>
0.0000

> <Gold.PLP.Chemscore.Metal>
0.0000

> <Gold.Chemscore.Hbonds>
donor molecule, donor type, donor heavy atom, donor atom, acceptor molecule, acceptor atom, score
      L1  H     9    26       P1  8028  0.88
      P1  H  7997  8008       L1    12  0.78
      P1  H  8011  8017       L1     9  0.26

> <Gold.PLP.Chemscore.Internal.Correction>
0.1000

> <Gold.Rescore>
     Score         DG    S(hbond)    S(metal)    S(lipo)     H(rot)  DE(clash)    DE(int)     intcor
     16.79     -16.98       1.39        0.00      86.64       1.28       0.09       0.09       ----

> <Gold.Chemscore.Fitness>
16.7933

> <Gold.Chemscore.DG>
-16.9786

> <Gold.Chemscore.ZeroCoef>
-5.4800

> <Gold.Chemscore.Hbond>
1.3858

> <Gold.Chemscore.Metal>
0.0000

> <Gold.Chemscore.Lipo>
86.6421

> <Gold.Chemscore.Internal_Hbond>
0.0000

> <Gold.Chemscore.DEClash>
0.0911

> <Gold.Chemscore.DEInternal>
0.0942

> <Gold.Chemscore.Rot>
1.2762

> <Gold.Chemscore.Internal.Correction>
   9.000000E+99

> <Gold.Chemscore.Hbonds>
donor molecule, donor type, donor heavy atom, donor atom, acceptor molecule, acceptor atom, score
      L1  H     9    26       P1  8028  0.84
      P1  H  7997  8008       L1    12  0.10
      P1  H  8011  8017       L1     9  0.04

> <Gold.Chemscore.Hbond.Weighted>
-4.6285

> <Gold.Chemscore.Metal.Weighted>
-0.0000

> <Gold.Chemscore.Lipo.Weighted>
-10.1371

> <Gold.Chemscore.Internal_Hbond.Weighted>
0.0000

> <Gold.Chemscore.DEClash.Weighted>
0.0911

> <Gold.Chemscore.DEInternal.Weighted>
0.0942

> <Gold.Chemscore.Rot.Weighted>
3.2671

> <Gold.Chemscore.Internal.Correction.Weighted>
   9.000000E+99

> <Gold.Protein.RotatedTorsions>
[ 6907 6896 6895 6894 ] final   42.26 input  -60.11 | X-H torsion
[ 7974 7965 7964 7962 ] final   95.13 input  175.53 | X-H torsion
[ 8008 7997 7996 7995 ] final  -70.80 input   59.86 | X-H torsion
[ 10167 10162 10161 10158 ] final  -22.57 input  -65.29 | X-H torsion
[ 10718 10713 10712 10709 ] final  153.10 input   66.30 | X-H torsion
[ 10763 10752 10751 10750 ] final    2.13 input  -60.55 | X-H torsion
[ 11005 11000 10999 10996 ] final   18.37 input  -57.11 | X-H torsion

> <Gold.Protein.ActiveResidues>
 VAL166  LYS551  ARG553  GLY616  TRP617  ASP618  TYR619  PRO620  LYS621  CYS622 
 ASP623  PHE694  ASN695  SER759  ASP760  ASP761  ALA762  ILE779  LEU786  VAL792 
 PHE793  MET794  SER795  GLU796  ALA797  LYS798  CYS799  TRP800  GLU811  SER814 

> <Gold.Protein.RotatedAtoms>
  152.2056  134.8548  160.0502 H   0  0  0  0  0  0  0  0  0  0  0  0  # atno 6907 bound_to 6896
  151.9386  133.3626  159.3965 H   0  0  0  0  0  0  0  0  0  0  0  0  # atno 6908 bound_to 6896
  150.6964  134.4387  159.5326 H   0  0  0  0  0  0  0  0  0  0  0  0  # atno 6909 bound_to 6896
  145.4562  139.2290  143.3012 H   0  0  0  0  0  0  0  0  0  0  0  0  # atno 7974 bound_to 7965
  154.5039  140.0827  156.7855 H   0  0  0  0  0  0  0  0  0  0  0  0  # atno 8008 bound_to 7997
  155.3938  140.3434  155.4234 H   0  0  0  0  0  0  0  0  0  0  0  0  # atno 8009 bound_to 7997
  156.1491  140.1553  156.8786 H   0  0  0  0  0  0  0  0  0  0  0  0  # atno 8010 bound_to 7997
  140.7286  143.4523  151.0499 H   0  0  0  0  0  0  0  0  0  0  0  0  # atno 10167 bound_to 10162
  157.2492  131.0775  151.1741 H   0  0  0  0  0  0  0  0  0  0  0  0  # atno 10718 bound_to 10713
  153.2994  135.6954  153.7217 H   0  0  0  0  0  0  0  0  0  0  0  0  # atno 10763 bound_to 10752
  153.6137  135.3440  155.2988 H   0  0  0  0  0  0  0  0  0  0  0  0  # atno 10764 bound_to 10752
  154.8546  135.4369  154.2101 H   0  0  0  0  0  0  0  0  0  0  0  0  # atno 10765 bound_to 10752
  140.4256  134.1474  155.7676 H   0  0  0  0  0  0  0  0  0  0  0  0  # atno 11005 bound_to 11000
  146.2476  140.5327  142.8907 LP  0  0  0  0  0  0  0  0  0  0  0  0  # atno 17320 bound_to 7965
  144.8031  140.6249  143.6465 LP  0  0  0  0  0  0  0  0  0  0  0  0  # atno 17321 bound_to 7965
  139.8200  143.7833  152.3176 LP  0  0  0  0  0  0  0  0  0  0  0  0  # atno 17342 bound_to 10162
  139.7912  144.7409  150.9952 LP  0  0  0  0  0  0  0  0  0  0  0  0  # atno 17343 bound_to 10162
  157.3296  130.6978  149.6317 LP  0  0  0  0  0  0  0  0  0  0  0  0  # atno 17370 bound_to 10713
  155.9667  130.4311  150.4906 LP  0  0  0  0  0  0  0  0  0  0  0  0  # atno 17371 bound_to 10713
  141.1766  133.8500  157.1398 LP  0  0  0  0  0  0  0  0  0  0  0  0  # atno 17394 bound_to 11000
  140.0170  134.9963  157.0513 LP  0  0  0  0  0  0  0  0  0  0  0  0  # atno 17395 bound_to 11000

$$$$
