AV-unprocessed.smi:37|AV-procd|sdf|315|dock2
  -GOLD-   2262016133D 1   1.00000     0.00000
 Structure written by MMmdl.
 44 45  0  0  0  0  0  0  0  0  1 V2000
  142.3503  135.0199  153.6842 C   0  0  0  0  0  0  0  0  0  0  0  0
  142.7186  136.0499  154.7605 C   0  0  0  0  0  0  0  0  0  0  0  0
  143.5455  135.4345  155.8872 C   0  0  0  0  0  0  0  0  0  0  0  0
  143.1311  134.4736  156.5360 O   0  0  0  0  0  0  0  0  0  0  0  0
  144.7217  136.0564  156.0655 O   0  0  0  0  0  0  0  0  0  0  0  0
  145.6671  135.5189  156.9747 C   0  0  0  0  0  0  0  0  0  0  0  0
  146.9648  136.3399  156.8984 C   0  0  2  0  0  0  0  0  0  0  0  0
  147.5925  136.0320  155.6481 O   0  0  0  0  0  0  0  0  0  0  0  0
  148.9210  135.6404  155.8276 C   0  0  1  0  0  0  0  0  0  0  0  0
  149.8514  136.8285  155.6480 N   0  0  0  0  0  0  0  0  0  0  0  0
  149.4114  138.0729  155.2075 C   0  0  0  0  0  0  0  0  0  0  0  0
  150.2401  139.1295  155.0322 C   0  0  0  0  0  0  0  0  0  0  0  0
  149.7392  140.3011  154.6050 F   0  0  0  0  0  0  0  0  0  0  0  0
  151.6708  139.0074  155.2935 C   0  0  0  0  0  0  0  0  0  0  0  0
  152.4982  139.9082  155.1698 O   0  0  0  0  0  0  0  0  0  0  0  0
  152.0729  137.7360  155.7104 N   0  0  0  0  0  0  0  0  0  0  0  0
  151.2307  136.6380  155.8909 C   0  0  0  0  0  0  0  0  0  0  0  0
  151.6986  135.5575  156.2478 O   0  0  0  0  0  0  0  0  0  0  0  0
  148.9978  135.0955  157.2544 C   0  0  2  0  0  0  0  0  0  0  0  0
  148.3847  133.1961  157.2607 Br  0  0  0  0  0  0  0  0  0  0  0  0
  148.0092  135.9996  157.9770 C   0  0  2  0  0  0  0  0  0  0  0  0
  147.4597  135.3998  159.1444 O   0  0  0  0  0  0  0  0  0  0  0  0
  147.5084  136.0392  160.3267 C   0  0  0  0  0  0  0  0  0  0  0  0
  147.9016  137.1912  160.5101 O   0  0  0  0  0  0  0  0  0  0  0  0
  147.0161  135.1711  161.4818 C   0  0  0  0  0  0  0  0  0  0  0  0
  147.2864  135.8208  162.8458 C   0  0  0  0  0  0  0  0  0  0  0  0
  153.0568  137.5999  155.8916 H   0  0  0  0  0  0  0  0  0  0  0  0
  141.7083  135.4692  152.9265 H   0  0  0  0  0  0  0  0  0  0  0  0
  141.8123  134.1733  154.1124 H   0  0  0  0  0  0  0  0  0  0  0  0
  143.2368  134.6356  153.1786 H   0  0  0  0  0  0  0  0  0  0  0  0
  143.2812  136.8712  154.3161 H   0  0  0  0  0  0  0  0  0  0  0  0
  141.8116  136.4806  155.1853 H   0  0  0  0  0  0  0  0  0  0  0  0
  145.2446  135.5676  157.9790 H   0  0  0  0  0  0  0  0  0  0  0  0
  145.8599  134.4699  156.7483 H   0  0  0  0  0  0  0  0  0  0  0  0
  146.7231  137.4019  156.9528 H   0  0  0  0  0  0  0  0  0  0  0  0
  149.2191  134.9285  155.0555 H   0  0  0  0  0  0  0  0  0  0  0  0
  148.3692  138.2347  154.9818 H   0  0  0  0  0  0  0  0  0  0  0  0
  150.0034  135.1266  157.6730 H   0  0  0  0  0  0  0  0  0  0  0  0
  148.5176  136.9295  158.2380 H   0  0  0  0  0  0  0  0  0  0  0  0
  145.9472  134.9946  161.3604 H   0  0  0  0  0  0  0  0  0  0  0  0
  147.5064  134.1989  161.4265 H   0  0  0  0  0  0  0  0  0  0  0  0
  146.8927  135.2008  163.6511 H   0  0  0  0  0  0  0  0  0  0  0  0
  146.8119  136.7999  162.9199 H   0  0  0  0  0  0  0  0  0  0  0  0
  148.3547  135.9506  163.0229 H   0  0  0  0  0  0  0  0  0  0  0  0
  1  2  1  0  0  0  0
  1 28  1  0  0  0  0
  1 29  1  0  0  0  0
  1 30  1  0  0  0  0
  2  3  1  0  0  0  0
  2 31  1  0  0  0  0
  2 32  1  0  0  0  0
  3  4  2  0  0  0  0
  3  5  1  0  0  0  0
  5  6  1  0  0  0  0
  6  7  1  0  0  0  0
  6 33  1  0  0  0  0
  6 34  1  0  0  0  0
  7 21  1  0  0  0  0
  7  8  1  0  0  0  0
  7 35  1  0  0  0  0
  8  9  1  0  0  0  0
  9 10  1  0  0  0  0
  9 19  1  0  0  0  0
  9 36  1  0  0  0  0
 10 17  1  0  0  0  0
 10 11  1  0  0  0  0
 11 12  2  0  0  0  0
 11 37  1  0  0  0  0
 12 13  1  0  0  0  0
 12 14  1  0  0  0  0
 14 15  2  0  0  0  0
 14 16  1  0  0  0  0
 16 27  1  0  0  0  0
 16 17  1  0  0  0  0
 17 18  2  0  0  0  0
 19 20  1  0  0  0  0
 19 21  1  0  0  0  0
 19 38  1  0  0  0  0
 21 22  1  0  0  0  0
 21 39  1  0  0  0  0
 22 23  1  0  0  0  0
 23 24  2  0  0  0  0
 23 25  1  0  0  0  0
 25 26  1  0  0  0  0
 25 40  1  0  0  0  0
 25 41  1  0  0  0  0
 26 42  1  0  0  0  0
 26 43  1  0  0  0  0
 26 44  1  0  0  0  0
M  END
> <s_m_source_file>
AV-unprocessed.smi

> <i_m_source_file_index>
37

> <i_lp_mmshare_version>
43012

> <i_f3d_flags>
0

> <s_epik_input>
W0NIM11bQ0gyXUMoPU8pT1tDSDJdW0NAQEhdMU9bQ0BASF0objJbY0hdYyhGKWMoPU8pW25IXWMyPU8pW0NAQEhdKEJyKVtDQEhdMU9DKD1PKVtDSDJdW0NIM10=

> <s_epik_cmdline>
J2VwaWtfcHl0aG9uJywgJy1waCcsICc3LjAnLCAnLXRuJywgJzgnLCAnLW1hJywgJzIwMCcsICctbWV0YWxfYmluZGluZycsICctaW1hZScsICc8aW5maWxlLm1hZT4nLCAnLW9tYWUnLCAnPG91dGZpbGUubWFlPic=

> <r_lp_tautomer_probability>
0.999537

> <r_epik_Ionization_Penalty>
0.104106

> <r_epik_Ionization_Penalty_Charging>
0.104106

> <r_epik_Ionization_Penalty_Neutral>
3.94675e-16

> <r_epik_State_Penalty>
0.0940182

> <r_epik_Charging_Adjusted_Penalty>
0.198124

> <i_epik_Tot_Q>
0

> <i_epik_Tot_abs_Q>
0

> <r_epik_Metal_State_Penalty>
3.05314

> <b_epik_Metal_Only>
0

> <s_epik_Chemistry_Notes>
This compound has an ester and may undergo hydrolysis at high or low pH. This compound contains an acetal/aminal-like group ( X-CH(R)-Y where X, Y are N, S, or O) that may be acid/base labile, releasing an aldehyde.

> <s_lp_Force_Field>
OPLS_2005

> <r_lp_Energy>
24.3846

> <b_lp_Chiralities_Consistent>
1

> <s_lp_Variant>
AV-unprocessed.smi:37-13

> <Gold.Version>
5.8.1

> <Gold.Id.Protein>
6NUR|6NUR_protein|mol2

> <Gold.PLP.Fitness>
43.2052

> <Gold.PLP.PLP>
-31.7331

> <Gold.PLP.part.hbond>
-5.7903

> <Gold.PLP.part.metal>
0.0000

> <Gold.PLP.part.buried>
-4.1595

> <Gold.PLP.part.nonpolar>
-22.1035

> <Gold.PLP.part.repulsive>
0.3107

> <Gold.PLP.ligand.clash>
0.0000

> <Gold.PLP.ligand.torsion>
1.0123

> <Gold.PLP.Chemscore.Hbond>
4.4303

> <Gold.PLP.Chemscore.CHOScore>
0.0000

> <Gold.PLP.Chemscore.Metal>
0.0000

> <Gold.Chemscore.Hbonds>
donor molecule, donor type, donor heavy atom, donor atom, acceptor molecule, acceptor atom, score
      P1  H  6931  6943       L1    24  0.67
      P1  H  6934  6947       L1    24  0.82
      P1  H  7989  7998       L1    15  0.50
      P1  H  7997  8009       L1    15  0.83
      P1  H 10752 10764       L1    18  0.95
      P1  H 11000 11005       L1     4  0.60

> <Gold.PLP.Chemscore.Internal.Correction>
0.2057

> <Gold.Rescore>
     Score         DG    S(hbond)    S(metal)    S(lipo)     H(rot)  DE(clash)    DE(int)     intcor
     12.00     -14.19       3.68        0.00      42.26       3.33       0.09       2.10       ----

> <Gold.Chemscore.Fitness>
11.9959

> <Gold.Chemscore.DG>
-14.1871

> <Gold.Chemscore.ZeroCoef>
-5.4800

> <Gold.Chemscore.Hbond>
3.6790

> <Gold.Chemscore.Metal>
0.0000

> <Gold.Chemscore.Lipo>
42.2623

> <Gold.Chemscore.Internal_Hbond>
0.0000

> <Gold.Chemscore.DEClash>
0.0931

> <Gold.Chemscore.DEInternal>
2.0981

> <Gold.Chemscore.Rot>
3.3303

> <Gold.Chemscore.Internal.Correction>
   9.000000E+99

> <Gold.Chemscore.Hbonds>
donor molecule, donor type, donor heavy atom, donor atom, acceptor molecule, acceptor atom, score
      P1  H  6931  6943       L1    24  0.65
      P1  H  6934  6947       L1    24  0.78
      P1  H  7989  7998       L1    15  0.11
      P1  H  7997  8009       L1    15  0.80
      P1  H 10752 10764       L1    18  0.22
      P1  H 11000 11005       L1     4  0.58

> <Gold.Chemscore.Hbond.Weighted>
-12.2880

> <Gold.Chemscore.Metal.Weighted>
-0.0000

> <Gold.Chemscore.Lipo.Weighted>
-4.9447

> <Gold.Chemscore.Internal_Hbond.Weighted>
0.0000

> <Gold.Chemscore.DEClash.Weighted>
0.0931

> <Gold.Chemscore.DEInternal.Weighted>
2.0981

> <Gold.Chemscore.Rot.Weighted>
8.5256

> <Gold.Chemscore.Internal.Correction.Weighted>
   9.000000E+99

> <Gold.Protein.RotatedTorsions>
[ 6907 6896 6895 6894 ] final  135.55 input  -60.11 | X-H torsion
[ 7974 7965 7964 7962 ] final  -84.49 input  175.53 | X-H torsion
[ 8008 7997 7996 7995 ] final -134.02 input   59.86 | X-H torsion
[ 10167 10162 10161 10158 ] final  -61.84 input  -65.29 | X-H torsion
[ 10718 10713 10712 10709 ] final   28.87 input   66.30 | X-H torsion
[ 10763 10752 10751 10750 ] final  -30.23 input  -60.55 | X-H torsion
[ 11005 11000 10999 10996 ] final  -79.01 input  -57.11 | X-H torsion

> <Gold.Protein.ActiveResidues>
 VAL166  LYS551  ARG553  GLY616  TRP617  ASP618  TYR619  PRO620  LYS621  CYS622 
 ASP623  PHE694  ASN695  SER759  ASP760  ASP761  ALA762  ILE779  LEU786  VAL792 
 PHE793  MET794  SER795  GLU796  ALA797  LYS798  CYS799  TRP800  GLU811  SER814 

> <Gold.Protein.RotatedAtoms>
  152.2992  133.5638  159.5607 H   0  0  0  0  0  0  0  0  0  0  0  0  # atno 6907 bound_to 6896
  150.7270  134.0316  159.3744 H   0  0  0  0  0  0  0  0  0  0  0  0  # atno 6908 bound_to 6896
  151.8217  135.0650  160.0476 H   0  0  0  0  0  0  0  0  0  0  0  0  # atno 6909 bound_to 6896
  145.5060  140.9543  143.1733 H   0  0  0  0  0  0  0  0  0  0  0  0  # atno 7974 bound_to 7965
  155.3551  140.0479  157.3046 H   0  0  0  0  0  0  0  0  0  0  0  0  # atno 8008 bound_to 7997
  154.5207  140.2224  155.8946 H   0  0  0  0  0  0  0  0  0  0  0  0  # atno 8009 bound_to 7997
  156.1686  140.3101  155.8938 H   0  0  0  0  0  0  0  0  0  0  0  0  # atno 8010 bound_to 7997
  140.5979  143.2355  151.5995 H   0  0  0  0  0  0  0  0  0  0  0  0  # atno 10167 bound_to 10162
  157.2392  130.7061  149.6350 H   0  0  0  0  0  0  0  0  0  0  0  0  # atno 10718 bound_to 10713
  153.7775  135.6907  153.4894 H   0  0  0  0  0  0  0  0  0  0  0  0  # atno 10763 bound_to 10752
  153.1833  135.4498  155.0055 H   0  0  0  0  0  0  0  0  0  0  0  0  # atno 10764 bound_to 10752
  154.8094  135.3371  154.7280 H   0  0  0  0  0  0  0  0  0  0  0  0  # atno 10765 bound_to 10752
  141.1666  133.7087  156.8059 H   0  0  0  0  0  0  0  0  0  0  0  0  # atno 11005 bound_to 11000
  144.7754  139.6642  143.7177 LP  0  0  0  0  0  0  0  0  0  0  0  0  # atno 17320 bound_to 7965
  146.2196  139.5612  142.9627 LP  0  0  0  0  0  0  0  0  0  0  0  0  # atno 17321 bound_to 7965
  139.5271  144.3028  152.1059 LP  0  0  0  0  0  0  0  0  0  0  0  0  # atno 17342 bound_to 10162
  140.2203  144.4473  150.6345 LP  0  0  0  0  0  0  0  0  0  0  0  0  # atno 17343 bound_to 10162
  155.9671  130.4464  150.5538 LP  0  0  0  0  0  0  0  0  0  0  0  0  # atno 17370 bound_to 10713
  157.3397  131.0714  151.1797 LP  0  0  0  0  0  0  0  0  0  0  0  0  # atno 17371 bound_to 10713
  140.2223  134.8748  157.3390 LP  0  0  0  0  0  0  0  0  0  0  0  0  # atno 17394 bound_to 11000
  140.1975  134.4295  155.7681 LP  0  0  0  0  0  0  0  0  0  0  0  0  # atno 17395 bound_to 11000

$$$$
