AV-unprocessed.smi:1781|AV-procd|sdf|7187|dock6
  -GOLD-   22720 8433D 1   1.00000     0.00000
 Structure written by MMmdl.
 38 39  0  0  0  0  0  0  0  0  1 V2000
  144.6137  134.9316  152.0060 C   0  0  0  0  0  0  0  0  0  0  0  0
  145.6829  135.8583  151.4230 C   0  0  0  0  0  0  0  0  0  0  0  0
  145.9188  136.9196  152.3327 O   0  0  0  0  0  0  0  0  0  0  0  0
  146.7444  137.9369  151.7856 C   0  0  0  0  0  0  0  0  0  0  0  0
  147.2165  138.8745  152.8989 C   0  0  0  0  0  0  0  0  0  0  0  0
  146.4288  139.6679  153.4156 O   0  0  0  0  0  0  0  0  0  0  0  0
  148.5141  138.7539  153.2377 N   0  0  0  0  0  0  0  0  0  0  0  0
  149.2424  139.4835  154.2148 C   0  0  0  0  0  0  0  0  0  0  0  0
  150.4751  138.9080  154.5955 C   0  0  0  0  0  0  0  0  0  0  0  0
  151.2760  139.5559  155.5556 C   0  0  0  0  0  0  0  0  0  0  0  0
  150.8260  140.7656  156.1183 C   0  0  0  0  0  0  0  0  0  0  0  0
  151.6140  141.4272  157.0712 N   0  0  0  0  0  0  0  0  0  0  0  0
  151.1369  142.7712  157.3708 C   0  0  0  0  0  0  0  0  0  0  0  0
  152.1182  143.4796  158.3217 C   0  0  0  0  0  0  0  0  0  0  0  0
  152.3029  142.6924  159.4953 O   0  0  0  0  0  0  0  0  0  0  0  0
  152.8390  141.4058  159.1977 C   0  0  0  0  0  0  0  0  0  0  0  0
  151.8704  140.6456  158.2749 C   0  0  0  0  0  0  0  0  0  0  0  0
  149.5820  141.2696  155.6785 C   0  0  0  0  0  0  0  0  0  0  0  0
  148.8145  140.6501  154.7575 N   0  0  0  0  0  0  0  0  0  0  0  0
  144.4055  134.1022  151.3299 H   0  0  0  0  0  0  0  0  0  0  0  0
  143.6800  135.4687  152.1748 H   0  0  0  0  0  0  0  0  0  0  0  0
  144.9372  134.5129  152.9592 H   0  0  0  0  0  0  0  0  0  0  0  0
  146.6040  135.2998  151.2502 H   0  0  0  0  0  0  0  0  0  0  0  0
  145.3494  136.2527  150.4620 H   0  0  0  0  0  0  0  0  0  0  0  0
  147.6108  137.4937  151.2917 H   0  0  0  0  0  0  0  0  0  0  0  0
  146.1920  138.5154  151.0436 H   0  0  0  0  0  0  0  0  0  0  0  0
  149.0427  138.0584  152.7320 H   0  0  0  0  0  0  0  0  0  0  0  0
  150.8095  137.9785  154.1581 H   0  0  0  0  0  0  0  0  0  0  0  0
  152.2217  139.1271  155.8544 H   0  0  0  0  0  0  0  0  0  0  0  0
  151.0328  143.3428  156.4478 H   0  0  0  0  0  0  0  0  0  0  0  0
  150.1495  142.7170  157.8317 H   0  0  0  0  0  0  0  0  0  0  0  0
  153.0782  143.6512  157.8320 H   0  0  0  0  0  0  0  0  0  0  0  0
  151.7265  144.4561  158.6067 H   0  0  0  0  0  0  0  0  0  0  0  0
  153.8208  141.5078  158.7323 H   0  0  0  0  0  0  0  0  0  0  0  0
  152.9820  140.8558  160.1278 H   0  0  0  0  0  0  0  0  0  0  0  0
  150.9357  140.4556  158.8036 H   0  0  0  0  0  0  0  0  0  0  0  0
  152.2932  139.6774  158.0039 H   0  0  0  0  0  0  0  0  0  0  0  0
  149.1908  142.1982  156.0673 H   0  0  0  0  0  0  0  0  0  0  0  0
  1  2  1  0  0  0  0
  1 20  1  0  0  0  0
  1 21  1  0  0  0  0
  1 22  1  0  0  0  0
  2  3  1  0  0  0  0
  2 23  1  0  0  0  0
  2 24  1  0  0  0  0
  3  4  1  0  0  0  0
  4  5  1  0  0  0  0
  4 25  1  0  0  0  0
  4 26  1  0  0  0  0
  5  6  2  0  0  0  0
  5  7  1  0  0  0  0
  7  8  1  0  0  0  0
  7 27  1  0  0  0  0
  8 19  1  0  0  0  0
  8  9  2  0  0  0  0
  9 10  1  0  0  0  0
  9 28  1  0  0  0  0
 10 11  2  0  0  0  0
 10 29  1  0  0  0  0
 11 12  1  0  0  0  0
 11 18  1  0  0  0  0
 12 17  1  0  0  0  0
 12 13  1  0  0  0  0
 13 14  1  0  0  0  0
 13 30  1  0  0  0  0
 13 31  1  0  0  0  0
 14 15  1  0  0  0  0
 14 32  1  0  0  0  0
 14 33  1  0  0  0  0
 15 16  1  0  0  0  0
 16 17  1  0  0  0  0
 16 34  1  0  0  0  0
 16 35  1  0  0  0  0
 17 36  1  0  0  0  0
 17 37  1  0  0  0  0
 18 19  2  0  0  0  0
 18 38  1  0  0  0  0
M  END
> <s_m_source_file>
AV-unprocessed.smi

> <i_m_source_file_index>
1781

> <i_lp_mmshare_version>
43012

> <i_f3d_flags>
0

> <s_epik_input>
W0NIM11bQ0gyXU9bQ0gyXUMoPU8pW05IXWMxW2NIXVtjSF1jKFtjSF1uMSlOMltDSDJdW0NIMl1PW0NIMl1bQ0gyXTI=

> <s_epik_cmdline>
J2VwaWtfcHl0aG9uJywgJy1waCcsICc3LjAnLCAnLXRuJywgJzgnLCAnLW1hJywgJzIwMCcsICctbWV0YWxfYmluZGluZycsICctaW1hZScsICc8aW5maWxlLm1hZT4nLCAnLW9tYWUnLCAnPG91dGZpbGUubWFlPic=

> <r_lp_tautomer_probability>
1

> <r_epik_Ionization_Penalty>
0.00358585

> <r_epik_Ionization_Penalty_Charging>
0

> <r_epik_Ionization_Penalty_Neutral>
0.00358585

> <r_epik_State_Penalty>
0.00535288

> <r_epik_Charging_Adjusted_Penalty>
0.00535288

> <i_epik_Tot_Q>
0

> <i_epik_Tot_abs_Q>
0

> <r_epik_Metal_State_Penalty>
-0

> <b_epik_Metal_Only>
0

> <s_lp_Force_Field>
OPLS_2005

> <r_lp_Energy>
27.8059

> <b_lp_Chiralities_Consistent>
1

> <s_lp_Variant>
AV-unprocessed.smi:1781-1

> <Gold.Version>
5.8.1

> <Gold.Id.Protein>
6NUR|6NUR_protein|mol2

> <Gold.PLP.Fitness>
38.6336

> <Gold.PLP.PLP>
-33.4406

> <Gold.PLP.part.hbond>
-2.0000

> <Gold.PLP.part.metal>
0.0000

> <Gold.PLP.part.buried>
-1.6754

> <Gold.PLP.part.nonpolar>
-32.7565

> <Gold.PLP.part.repulsive>
2.0042

> <Gold.PLP.ligand.clash>
0.1724

> <Gold.PLP.ligand.torsion>
0.3615

> <Gold.PLP.Chemscore.Hbond>
0.9913

> <Gold.PLP.Chemscore.CHOScore>
1.0000

> <Gold.PLP.Chemscore.Metal>
0.0000

> <Gold.Chemscore.Hbonds>
donor molecule, donor type, donor heavy atom, donor atom, acceptor molecule, acceptor atom, score
      L1  H     7    27       P1  7948  0.91
      L1  C    18    38       P1  8028  0.90

> <Gold.PLP.Chemscore.Internal.Correction>
0.1145

> <Gold.Rescore>
     Score         DG    S(hbond)    S(metal)    S(lipo)     H(rot)  DE(clash)    DE(int)     intcor
     11.31     -14.30       0.98        0.00      81.58       1.56       1.35       1.64       ----

> <Gold.Chemscore.Fitness>
11.3062

> <Gold.Chemscore.DG>
-14.2968

> <Gold.Chemscore.ZeroCoef>
-5.4800

> <Gold.Chemscore.Hbond>
0.9806

> <Gold.Chemscore.Metal>
0.0000

> <Gold.Chemscore.Lipo>
81.5830

> <Gold.Chemscore.Internal_Hbond>
0.0000

> <Gold.Chemscore.DEClash>
1.3476

> <Gold.Chemscore.DEInternal>
1.6431

> <Gold.Chemscore.Rot>
1.5639

> <Gold.Chemscore.Internal.Correction>
   9.000000E+99

> <Gold.Chemscore.Hbonds>
donor molecule, donor type, donor heavy atom, donor atom, acceptor molecule, acceptor atom, score
      L1  H     7    27       P1  7948  0.86

> <Gold.Chemscore.Hbond.Weighted>
-3.2752

> <Gold.Chemscore.Metal.Weighted>
-0.0000

> <Gold.Chemscore.Lipo.Weighted>
-9.5452

> <Gold.Chemscore.Internal_Hbond.Weighted>
0.0000

> <Gold.Chemscore.DEClash.Weighted>
1.3476

> <Gold.Chemscore.DEInternal.Weighted>
1.6431

> <Gold.Chemscore.Rot.Weighted>
4.0036

> <Gold.Chemscore.Internal.Correction.Weighted>
   9.000000E+99

> <Gold.Protein.RotatedTorsions>
[ 6907 6896 6895 6894 ] final  -28.34 input  -60.11 | X-H torsion
[ 7974 7965 7964 7962 ] final  165.36 input  175.53 | X-H torsion
[ 8008 7997 7996 7995 ] final -126.08 input   59.86 | X-H torsion
[ 10167 10162 10161 10158 ] final  141.04 input  -65.29 | X-H torsion
[ 10718 10713 10712 10709 ] final  -76.29 input   66.30 | X-H torsion
[ 10763 10752 10751 10750 ] final   87.91 input  -60.55 | X-H torsion
[ 11005 11000 10999 10996 ] final   62.89 input  -57.11 | X-H torsion

> <Gold.Protein.ActiveResidues>
 VAL166  LYS551  ARG553  GLY616  TRP617  ASP618  TYR619  PRO620  LYS621  CYS622 
 ASP623  PHE694  ASN695  SER759  ASP760  ASP761  ALA762  ILE779  LEU786  VAL792 
 PHE793  MET794  SER795  GLU796  ALA797  LYS798  CYS799  TRP800  GLU811  SER814 

> <Gold.Protein.RotatedAtoms>
  151.1343  135.0147  159.8596 H   0  0  0  0  0  0  0  0  0  0  0  0  # atno 6907 bound_to 6896
  152.5451  134.1573  159.8553 H   0  0  0  0  0  0  0  0  0  0  0  0  # atno 6908 bound_to 6896
  151.1643  133.4780  159.2627 H   0  0  0  0  0  0  0  0  0  0  0  0  # atno 6909 bound_to 6896
  144.7506  139.8459  143.6367 H   0  0  0  0  0  0  0  0  0  0  0  0  # atno 7974 bound_to 7965
  155.2238  140.0423  157.2952 H   0  0  0  0  0  0  0  0  0  0  0  0  # atno 8008 bound_to 7997
  154.5933  140.2432  155.7862 H   0  0  0  0  0  0  0  0  0  0  0  0  # atno 8009 bound_to 7997
  156.2273  140.2950  156.0108 H   0  0  0  0  0  0  0  0  0  0  0  0  # atno 8010 bound_to 7997
  139.5032  144.6197  151.6081 H   0  0  0  0  0  0  0  0  0  0  0  0  # atno 10167 bound_to 10162
  156.0180  130.4462  150.3171 H   0  0  0  0  0  0  0  0  0  0  0  0  # atno 10718 bound_to 10713
  153.1715  135.4526  154.9909 H   0  0  0  0  0  0  0  0  0  0  0  0  # atno 10763 bound_to 10752
  154.7969  135.3241  154.7647 H   0  0  0  0  0  0  0  0  0  0  0  0  # atno 10764 bound_to 10752
  153.8123  135.6954  153.4894 H   0  0  0  0  0  0  0  0  0  0  0  0  # atno 10765 bound_to 10752
  140.0061  134.6367  155.9853 H   0  0  0  0  0  0  0  0  0  0  0  0  # atno 11005 bound_to 11000
  146.1450  139.4517  143.0085 LP  0  0  0  0  0  0  0  0  0  0  0  0  # atno 17320 bound_to 7965
  145.6959  141.0150  143.1530 LP  0  0  0  0  0  0  0  0  0  0  0  0  # atno 17321 bound_to 7965
  140.5895  143.9805  150.6316 LP  0  0  0  0  0  0  0  0  0  0  0  0  # atno 17342 bound_to 10162
  140.2980  143.3279  152.0999 LP  0  0  0  0  0  0  0  0  0  0  0  0  # atno 17343 bound_to 10162
  157.1272  131.0262  151.2984 LP  0  0  0  0  0  0  0  0  0  0  0  0  # atno 17370 bound_to 10713
  157.4580  130.7636  149.7210 LP  0  0  0  0  0  0  0  0  0  0  0  0  # atno 17371 bound_to 10713
  141.1678  133.6537  156.4541 LP  0  0  0  0  0  0  0  0  0  0  0  0  # atno 17394 bound_to 11000
  140.4638  134.6816  157.5098 LP  0  0  0  0  0  0  0  0  0  0  0  0  # atno 17395 bound_to 11000

$$$$
