AV-unprocessed.smi:5|AV-procd|sdf|38|dock3
  -GOLD-   2262015153D 1   1.00000     0.00000
 Structure written by MMmdl.
 43 44  0  0  0  0  0  0  0  0  2 V2000
  153.1573  141.4522  159.6976 C   0  0  0  0  0  0  0  0  0  0  0  0
  152.2174  142.1190  158.7142 C   0  0  0  0  0  0  0  0  0  0  0  0
  151.9789  143.4447  158.7268 C   0  0  0  0  0  0  0  0  0  0  0  0
  151.0555  144.1245  157.7310 C   0  0  0  0  0  0  0  0  0  0  0  0
  150.6900  143.1797  156.5706 C   0  0  0  0  0  0  0  0  0  0  0  0
  150.3587  141.8459  157.1028 N   0  0  0  0  0  0  0  0  0  0  0  0
  149.1128  141.3147  157.1935 C   0  0  0  0  0  0  0  0  0  0  0  0
  148.8885  140.1865  157.6338 O   0  0  0  0  0  0  0  0  0  0  0  0
  148.1230  142.1445  156.8199 N   0  0  0  0  0  0  0  0  0  0  0  0
  146.6970  141.9092  157.0342 C   0  0  0  0  0  0  0  0  0  0  0  0
  146.1980  142.3728  158.4045 C   0  0  0  0  0  0  0  0  0  0  0  0
  146.7068  143.4274  159.0811 C   0  0  0  0  0  0  0  0  0  0  0  0
  146.2396  143.8289  160.3458 N   0  0  0  0  0  0  0  0  0  0  0  0
  146.8973  144.9921  160.9826 C   0  0  0  0  0  0  0  0  0  0  0  0
  146.6866  146.2718  160.1539 C   0  0  0  0  0  0  0  0  0  0  0  0
  148.3864  144.7175  161.2685 C   0  0  0  0  0  0  0  0  0  0  0  0
  145.2077  143.1445  160.9269 C   0  0  0  0  0  0  0  0  0  0  0  0
  144.7873  143.5027  162.0271 O   0  0  0  0  0  0  0  0  0  0  0  0
  144.6682  142.0764  160.2644 N   0  5  0  0  0  0  0  0  0  0  0  0
  145.0982  141.6465  159.0435 C   0  0  0  0  0  0  0  0  0  0  0  0
  144.5910  140.6819  158.4717 O   0  0  0  0  0  0  0  0  0  0  0  0
  151.5293  141.1929  157.7145 C   0  0  0  0  0  0  0  0  0  0  0  0
  153.9470  140.9226  159.1643 H   0  0  0  0  0  0  0  0  0  0  0  0
  152.6146  140.7334  160.3117 H   0  0  0  0  0  0  0  0  0  0  0  0
  153.6238  142.1820  160.3602 H   0  0  0  0  0  0  0  0  0  0  0  0
  152.4524  144.0792  159.4618 H   0  0  0  0  0  0  0  0  0  0  0  0
  150.1564  144.4427  158.2597 H   0  0  0  0  0  0  0  0  0  0  0  0
  151.5371  145.0231  157.3449 H   0  0  0  0  0  0  0  0  0  0  0  0
  149.9132  143.6233  155.9477 H   0  0  0  0  0  0  0  0  0  0  0  0
  151.5521  143.0725  155.9104 H   0  0  0  0  0  0  0  0  0  0  0  0
  148.3820  143.0511  156.4595 H   0  0  0  0  0  0  0  0  0  0  0  0
  146.1458  142.4473  156.2626 H   0  0  0  0  0  0  0  0  0  0  0  0
  146.4685  140.8505  156.8989 H   0  0  0  0  0  0  0  0  0  0  0  0
  147.5098  144.0357  158.6964 H   0  0  0  0  0  0  0  0  0  0  0  0
  146.4523  145.1954  161.9568 H   0  0  0  0  0  0  0  0  0  0  0  0
  147.0971  147.1401  160.6699 H   0  0  0  0  0  0  0  0  0  0  0  0
  145.6250  146.4598  159.9904 H   0  0  0  0  0  0  0  0  0  0  0  0
  147.1696  146.2141  159.1785 H   0  0  0  0  0  0  0  0  0  0  0  0
  148.8265  145.5344  161.8405 H   0  0  0  0  0  0  0  0  0  0  0  0
  148.9739  144.6104  160.3564 H   0  0  0  0  0  0  0  0  0  0  0  0
  148.5095  143.8058  161.8539 H   0  0  0  0  0  0  0  0  0  0  0  0
  152.2409  140.9130  156.9370 H   0  0  0  0  0  0  0  0  0  0  0  0
  151.2648  140.2715  158.2347 H   0  0  0  0  0  0  0  0  0  0  0  0
  1  2  1  0  0  0  0
  1 23  1  0  0  0  0
  1 24  1  0  0  0  0
  1 25  1  0  0  0  0
  2 22  1  0  0  0  0
  2  3  2  0  0  0  0
  3  4  1  0  0  0  0
  3 26  1  0  0  0  0
  4  5  1  0  0  0  0
  4 27  1  0  0  0  0
  4 28  1  0  0  0  0
  5  6  1  0  0  0  0
  5 29  1  0  0  0  0
  5 30  1  0  0  0  0
  6  7  1  0  0  0  0
  6 22  1  0  0  0  0
  7  8  2  0  0  0  0
  7  9  1  0  0  0  0
  9 10  1  0  0  0  0
  9 31  1  0  0  0  0
 10 11  1  0  0  0  0
 10 32  1  0  0  0  0
 10 33  1  0  0  0  0
 11 20  1  0  0  0  0
 11 12  2  0  0  0  0
 12 13  1  0  0  0  0
 12 34  1  0  0  0  0
 13 14  1  0  0  0  0
 13 17  1  0  0  0  0
 14 15  1  0  0  0  0
 14 16  1  0  0  0  0
 14 35  1  0  0  0  0
 15 36  1  0  0  0  0
 15 37  1  0  0  0  0
 15 38  1  0  0  0  0
 16 39  1  0  0  0  0
 16 40  1  0  0  0  0
 16 41  1  0  0  0  0
 17 18  2  0  0  0  0
 17 19  1  0  0  0  0
 19 20  1  0  0  0  0
 20 21  2  0  0  0  0
 22 42  1  0  0  0  0
 22 43  1  0  0  0  0
M  CHG  1  19  -1
M  END
> <s_m_source_file>
AV-unprocessed.smi

> <i_m_source_file_index>
5

> <i_lp_mmshare_version>
43012

> <i_f3d_flags>
0

> <s_epik_input>
W0NIM11DMT1bQ0hdW0NIMl1bQ0gyXU4oW0NIMl0xKUMoPU8pW05IXVtDSDJdYzJbY0hdbihbQ0hdKFtDSDNdKVtDSDNdKWMoPU8pW25IXWMyPU8=

> <s_epik_cmdline>
J2VwaWtfcHl0aG9uJywgJy1waCcsICc3LjAnLCAnLXRuJywgJzgnLCAnLW1hJywgJzIwMCcsICctbWV0YWxfYmluZGluZycsICctaW1hZScsICc8aW5maWxlLm1hZT4nLCAnLW9tYWUnLCAnPG91dGZpbGUubWFlPic=

> <r_lp_tautomer_probability>
0.999537

> <r_epik_Ionization_Penalty>
3.83548

> <r_epik_Ionization_Penalty_Charging>
1.96903e-07

> <r_epik_Ionization_Penalty_Neutral>
3.83548

> <r_epik_State_Penalty>
3.83512

> <r_epik_Charging_Adjusted_Penalty>
3.83512

> <i_epik_Tot_Q>
-1

> <i_epik_Tot_abs_Q>
1

> <r_epik_Metal_State_Penalty>
0.576105

> <b_epik_Metal_Only>
1

> <s_lp_Force_Field>
OPLS_2005

> <r_lp_Energy>
38.6384

> <b_lp_Chiralities_Consistent>
1

> <s_lp_Variant>
AV-unprocessed.smi:5-2

> <Gold.Version>
5.8.1

> <Gold.Id.Protein>
6NUR|6NUR_protein|mol2

> <Gold.PLP.Fitness>
48.0536

> <Gold.PLP.PLP>
-43.1959

> <Gold.PLP.part.hbond>
-1.0000

> <Gold.PLP.part.metal>
0.0000

> <Gold.PLP.part.buried>
-5.3070

> <Gold.PLP.part.nonpolar>
-37.2389

> <Gold.PLP.part.repulsive>
0.0917

> <Gold.PLP.ligand.clash>
0.0000

> <Gold.PLP.ligand.torsion>
0.6014

> <Gold.PLP.Chemscore.Hbond>
0.9920

> <Gold.PLP.Chemscore.CHOScore>
1.0000

> <Gold.PLP.Chemscore.Metal>
0.0000

> <Gold.Chemscore.Hbonds>
donor molecule, donor type, donor heavy atom, donor atom, acceptor molecule, acceptor atom, score
      L1  H     9    31       P1  8028  1.00
      L1  C    12    34       P1  8029  1.00

> <Gold.PLP.Chemscore.Internal.Correction>
0.0845

> <Gold.Rescore>
     Score         DG    S(hbond)    S(metal)    S(lipo)     H(rot)  DE(clash)    DE(int)     intcor
     14.98     -15.60       0.90        0.00      92.67       1.46       0.03       0.59       ----

> <Gold.Chemscore.Fitness>
14.9834

> <Gold.Chemscore.DG>
-15.6006

> <Gold.Chemscore.ZeroCoef>
-5.4800

> <Gold.Chemscore.Hbond>
0.9001

> <Gold.Chemscore.Metal>
0.0000

> <Gold.Chemscore.Lipo>
92.6670

> <Gold.Chemscore.Internal_Hbond>
0.0000

> <Gold.Chemscore.DEClash>
0.0309

> <Gold.Chemscore.DEInternal>
0.5864

> <Gold.Chemscore.Rot>
1.4561

> <Gold.Chemscore.Internal.Correction>
   9.000000E+99

> <Gold.Chemscore.Hbonds>
donor molecule, donor type, donor heavy atom, donor atom, acceptor molecule, acceptor atom, score
      L1  H     9    31       P1  8028  0.70

> <Gold.Chemscore.Hbond.Weighted>
-3.0062

> <Gold.Chemscore.Metal.Weighted>
-0.0000

> <Gold.Chemscore.Lipo.Weighted>
-10.8420

> <Gold.Chemscore.Internal_Hbond.Weighted>
0.0000

> <Gold.Chemscore.DEClash.Weighted>
0.0309

> <Gold.Chemscore.DEInternal.Weighted>
0.5864

> <Gold.Chemscore.Rot.Weighted>
3.7276

> <Gold.Chemscore.Internal.Correction.Weighted>
   9.000000E+99

> <Gold.Protein.RotatedTorsions>
[ 6907 6896 6895 6894 ] final -177.41 input  -60.11 | X-H torsion
[ 7974 7965 7964 7962 ] final  127.87 input  175.53 | X-H torsion
[ 8008 7997 7996 7995 ] final  165.60 input   59.86 | X-H torsion
[ 10167 10162 10161 10158 ] final -123.86 input  -65.29 | X-H torsion
[ 10718 10713 10712 10709 ] final  176.31 input   66.30 | X-H torsion
[ 10763 10752 10751 10750 ] final  -40.17 input  -60.55 | X-H torsion
[ 11005 11000 10999 10996 ] final   20.05 input  -57.11 | X-H torsion

> <Gold.Protein.ActiveResidues>
 VAL166  LYS551  ARG553  GLY616  TRP617  ASP618  TYR619  PRO620  LYS621  CYS622 
 ASP623  PHE694  ASN695  SER759  ASP760  ASP761  ALA762  ILE779  LEU786  VAL792 
 PHE793  MET794  SER795  GLU796  ALA797  LYS798  CYS799  TRP800  GLU811  SER814 

> <Gold.Protein.RotatedAtoms>
  151.6205  133.3339  159.3086 H   0  0  0  0  0  0  0  0  0  0  0  0  # atno 6907 bound_to 6896
  150.8108  134.7265  159.6698 H   0  0  0  0  0  0  0  0  0  0  0  0  # atno 6908 bound_to 6896
  152.4205  134.5969  160.0041 H   0  0  0  0  0  0  0  0  0  0  0  0  # atno 6909 bound_to 6896
  145.0458  139.3924  143.5079 H   0  0  0  0  0  0  0  0  0  0  0  0  # atno 7974 bound_to 7965
  156.1787  140.1665  156.8314 H   0  0  0  0  0  0  0  0  0  0  0  0  # atno 8008 bound_to 7997
  154.5336  140.0751  156.8421 H   0  0  0  0  0  0  0  0  0  0  0  0  # atno 8009 bound_to 7997
  155.3357  140.3381  155.4241 H   0  0  0  0  0  0  0  0  0  0  0  0  # atno 8010 bound_to 7997
  139.9990  143.5560  152.2311 H   0  0  0  0  0  0  0  0  0  0  0  0  # atno 10167 bound_to 10162
  156.9220  130.9944  151.3003 H   0  0  0  0  0  0  0  0  0  0  0  0  # atno 10718 bound_to 10713
  153.9415  135.6761  153.4744 H   0  0  0  0  0  0  0  0  0  0  0  0  # atno 10763 bound_to 10752
  153.0929  135.4866  154.8721 H   0  0  0  0  0  0  0  0  0  0  0  0  # atno 10764 bound_to 10752
  154.7374  135.3152  154.8746 H   0  0  0  0  0  0  0  0  0  0  0  0  # atno 10765 bound_to 10752
  140.4069  134.1659  155.7665 H   0  0  0  0  0  0  0  0  0  0  0  0  # atno 11005 bound_to 11000
  146.3513  140.0083  142.8669 LP  0  0  0  0  0  0  0  0  0  0  0  0  # atno 17320 bound_to 7965
  145.1589  140.9662  143.4388 LP  0  0  0  0  0  0  0  0  0  0  0  0  # atno 17321 bound_to 7965
  139.6285  144.7641  151.2586 LP  0  0  0  0  0  0  0  0  0  0  0  0  # atno 17342 bound_to 10162
  140.7426  143.6521  150.8239 LP  0  0  0  0  0  0  0  0  0  0  0  0  # atno 17343 bound_to 10162
  157.5901  130.8438  149.8647 LP  0  0  0  0  0  0  0  0  0  0  0  0  # atno 17370 bound_to 10713
  156.0486  130.3722  150.1255 LP  0  0  0  0  0  0  0  0  0  0  0  0  # atno 17371 bound_to 10713
  141.1836  133.8362  157.1170 LP  0  0  0  0  0  0  0  0  0  0  0  0  # atno 17394 bound_to 11000
  140.0295  134.9908  157.0753 LP  0  0  0  0  0  0  0  0  0  0  0  0  # atno 17395 bound_to 11000

$$$$
