AV-unprocessed.smi:644|AV-procd|sdf|3155|dock4
  -GOLD-   22720 0 73D 1   1.00000     0.00000
 Structure written by MMmdl.
 37 39  0  0  0  0  0  0  0  0  1 V2000
  153.1139  142.8878  161.8941 C   0  0  0  0  0  0  0  0  0  0  0  0
  152.6033  142.5363  160.5079 C   0  0  0  0  0  0  0  0  0  0  0  0
  152.9520  141.2886  159.9434 C   0  0  0  0  0  0  0  0  0  0  0  0
  152.4958  140.9223  158.6583 C   0  0  0  0  0  0  0  0  0  0  0  0
  152.7088  139.7684  157.9236 N   0  0  0  0  0  0  0  0  0  0  0  0
  152.0247  140.0273  156.8130 C   0  0  0  0  0  0  0  0  0  0  0  0
  151.3895  141.2129  156.7425 N   0  0  0  0  0  0  0  0  0  0  0  0
  150.5855  141.7132  155.6413 C   0  0  0  0  0  0  0  0  0  0  0  0
  149.5765  140.6684  155.1277 C   0  0  2  0  0  0  0  0  0  0  0  0
  150.0733  140.0745  153.9431 O   0  0  0  0  0  0  0  0  0  0  0  0
  148.1996  141.2878  154.8405 C   0  0  0  0  0  0  0  0  0  0  0  0
  147.3566  141.8123  156.3614 S   0  0  0  0  0  0  0  0  0  0  0  0
  146.0990  142.7760  155.6064 C   0  0  0  0  0  0  0  0  0  0  0  0
  145.1540  143.4328  156.2899 N   0  0  0  0  0  0  0  0  0  0  0  0
  144.2832  144.1178  155.4518 N   0  0  0  0  0  0  0  0  0  0  0  0
  144.6053  143.9477  154.1665 C   0  0  0  0  0  0  0  0  0  0  0  0
  146.0051  142.9369  153.8568 S   0  0  0  0  0  0  0  0  0  0  0  0
  151.6756  141.8463  157.9469 C   0  0  0  0  0  0  0  0  0  0  0  0
  151.3232  143.0913  158.4970 C   0  0  0  0  0  0  0  0  0  0  0  0
  151.7858  143.4407  159.7831 C   0  0  0  0  0  0  0  0  0  0  0  0
  151.3967  144.7860  160.3704 C   0  0  0  0  0  0  0  0  0  0  0  0
  153.7439  142.0952  162.2987 H   0  0  0  0  0  0  0  0  0  0  0  0
  152.2807  143.0365  162.5815 H   0  0  0  0  0  0  0  0  0  0  0  0
  153.7064  143.8024  161.8635 H   0  0  0  0  0  0  0  0  0  0  0  0
  153.5740  140.5993  160.4952 H   0  0  0  0  0  0  0  0  0  0  0  0
  151.9783  139.3120  156.0048 H   0  0  0  0  0  0  0  0  0  0  0  0
  150.0629  142.6079  155.9819 H   0  0  0  0  0  0  0  0  0  0  0  0
  151.2514  142.0284  154.8364 H   0  0  0  0  0  0  0  0  0  0  0  0
  149.4637  139.8840  155.8771 H   0  0  0  0  0  0  0  0  0  0  0  0
  149.4735  140.2653  153.2381 H   0  0  0  0  0  0  0  0  0  0  0  0
  148.3114  142.1643  154.2010 H   0  0  0  0  0  0  0  0  0  0  0  0
  147.5691  140.5799  154.3009 H   0  0  0  0  0  0  0  0  0  0  0  0
  144.0143  144.4204  153.3961 H   0  0  0  0  0  0  0  0  0  0  0  0
  150.7001  143.7701  157.9336 H   0  0  0  0  0  0  0  0  0  0  0  0
  150.7462  145.3425  159.6951 H   0  0  0  0  0  0  0  0  0  0  0  0
  152.2837  145.3920  160.5559 H   0  0  0  0  0  0  0  0  0  0  0  0
  150.8641  144.6531  161.3124 H   0  0  0  0  0  0  0  0  0  0  0  0
  1  2  1  0  0  0  0
  1 22  1  0  0  0  0
  1 23  1  0  0  0  0
  1 24  1  0  0  0  0
  2 20  1  0  0  0  0
  2  3  2  0  0  0  0
  3  4  1  0  0  0  0
  3 25  1  0  0  0  0
  4 18  2  0  0  0  0
  4  5  1  0  0  0  0
  5  6  2  0  0  0  0
  6  7  1  0  0  0  0
  6 26  1  0  0  0  0
  7  8  1  0  0  0  0
  7 18  1  0  0  0  0
  8  9  1  0  0  0  0
  8 27  1  0  0  0  0
  8 28  1  0  0  0  0
  9 10  1  0  0  0  0
  9 11  1  0  0  0  0
  9 29  1  0  0  0  0
 10 30  1  0  0  0  0
 11 12  1  0  0  0  0
 11 31  1  0  0  0  0
 11 32  1  0  0  0  0
 12 13  1  0  0  0  0
 13 17  1  0  0  0  0
 13 14  2  0  0  0  0
 14 15  1  0  0  0  0
 15 16  2  0  0  0  0
 16 17  1  0  0  0  0
 16 33  1  0  0  0  0
 18 19  1  0  0  0  0
 19 20  2  0  0  0  0
 19 34  1  0  0  0  0
 20 21  1  0  0  0  0
 21 35  1  0  0  0  0
 21 36  1  0  0  0  0
 21 37  1  0  0  0  0
M  END
> <s_m_source_file>
AV-unprocessed.smi

> <i_m_source_file_index>
644

> <i_lp_mmshare_version>
43012

> <i_f3d_flags>
0

> <s_epik_input>
W0NIM11jKFtjSF0xKWMoW0NIM10pW2NIXWMoYzEyKW4oW2NIXW4yKVtDSDJdW0NASF0oW09IXSlbQ0gyXVNjM25uW2NIXXMz

> <s_epik_cmdline>
J2VwaWtfcHl0aG9uJywgJy1waCcsICc3LjAnLCAnLXRuJywgJzgnLCAnLW1hJywgJzIwMCcsICctbWV0YWxfYmluZGluZycsICctaW1hZScsICc8aW5maWxlLm1hZT4nLCAnLW9tYWUnLCAnPG91dGZpbGUubWFlPic=

> <r_lp_tautomer_probability>
1

> <r_epik_Ionization_Penalty>
0.105397

> <r_epik_Ionization_Penalty_Charging>
0

> <r_epik_Ionization_Penalty_Neutral>
0.105397

> <r_epik_State_Penalty>
0.0952713

> <r_epik_Charging_Adjusted_Penalty>
0.0952713

> <i_epik_Tot_Q>
0

> <i_epik_Tot_abs_Q>
0

> <r_epik_Metal_State_Penalty>
0.0807681

> <b_epik_Metal_Only>
0

> <s_lp_Force_Field>
OPLS_2005

> <r_lp_Energy>
9.27729

> <b_lp_Chiralities_Consistent>
1

> <s_lp_Variant>
AV-unprocessed.smi:644-1

> <Gold.Version>
5.8.1

> <Gold.Id.Protein>
6NUR|6NUR_protein|mol2

> <Gold.PLP.Fitness>
51.1543

> <Gold.PLP.PLP>
-44.9357

> <Gold.PLP.part.hbond>
-3.0000

> <Gold.PLP.part.metal>
0.0000

> <Gold.PLP.part.buried>
-4.8162

> <Gold.PLP.part.nonpolar>
-36.3950

> <Gold.PLP.part.repulsive>
0.2463

> <Gold.PLP.ligand.clash>
0.0000

> <Gold.PLP.ligand.torsion>
0.8297

> <Gold.PLP.Chemscore.Hbond>
2.2622

> <Gold.PLP.Chemscore.CHOScore>
0.3421

> <Gold.PLP.Chemscore.Metal>
0.0000

> <Gold.Chemscore.Hbonds>
donor molecule, donor type, donor heavy atom, donor atom, acceptor molecule, acceptor atom, score
      L1  H    10    30       P1  7957  0.55
      P1  H  7989  7998       L1    10  0.88
      P1  H  7997  8010       L1     5  0.61
      L1  C    16    33       P1 10174  0.38

> <Gold.PLP.Chemscore.Internal.Correction>
0.0649

> <Gold.Rescore>
     Score         DG    S(hbond)    S(metal)    S(lipo)     H(rot)  DE(clash)    DE(int)     intcor
     15.85     -17.96       1.26        0.00     124.38       2.46       1.20       0.92       ----

> <Gold.Chemscore.Fitness>
15.8461

> <Gold.Chemscore.DG>
-17.9598

> <Gold.Chemscore.ZeroCoef>
-5.4800

> <Gold.Chemscore.Hbond>
1.2639

> <Gold.Chemscore.Metal>
0.0000

> <Gold.Chemscore.Lipo>
124.3830

> <Gold.Chemscore.Internal_Hbond>
0.0000

> <Gold.Chemscore.DEClash>
1.1971

> <Gold.Chemscore.DEInternal>
0.9166

> <Gold.Chemscore.Rot>
2.4588

> <Gold.Chemscore.Internal.Correction>
   9.000000E+99

> <Gold.Chemscore.Hbonds>
donor molecule, donor type, donor heavy atom, donor atom, acceptor molecule, acceptor atom, score
      L1  H    10    30       P1  7957  0.53
      P1  H  7989  7998       L1    10  0.32
      P1  H  7997  8010       L1     5  0.04

> <Gold.Chemscore.Hbond.Weighted>
-4.2215

> <Gold.Chemscore.Metal.Weighted>
-0.0000

> <Gold.Chemscore.Lipo.Weighted>
-14.5528

> <Gold.Chemscore.Internal_Hbond.Weighted>
0.0000

> <Gold.Chemscore.DEClash.Weighted>
1.1971

> <Gold.Chemscore.DEInternal.Weighted>
0.9166

> <Gold.Chemscore.Rot.Weighted>
6.2946

> <Gold.Chemscore.Internal.Correction.Weighted>
   9.000000E+99

> <Gold.Protein.RotatedTorsions>
[ 6907 6896 6895 6894 ] final   85.08 input  -60.11 | X-H torsion
[ 7974 7965 7964 7962 ] final  128.15 input  175.53 | X-H torsion
[ 8008 7997 7996 7995 ] final   29.44 input   59.86 | X-H torsion
[ 10167 10162 10161 10158 ] final   35.80 input  -65.29 | X-H torsion
[ 10718 10713 10712 10709 ] final -112.10 input   66.30 | X-H torsion
[ 10763 10752 10751 10750 ] final  120.37 input  -60.55 | X-H torsion
[ 11005 11000 10999 10996 ] final -141.94 input  -57.11 | X-H torsion

> <Gold.Protein.ActiveResidues>
 VAL166  LYS551  ARG553  GLY616  TRP617  ASP618  TYR619  PRO620  LYS621  CYS622 
 ASP623  PHE694  ASN695  SER759  ASP760  ASP761  ALA762  ILE779  LEU786  VAL792 
 PHE793  MET794  SER795  GLU796  ALA797  LYS798  CYS799  TRP800  GLU811  SER814 

> <Gold.Protein.RotatedAtoms>
  152.5367  134.2641  159.8946 H   0  0  0  0  0  0  0  0  0  0  0  0  # atno 6907 bound_to 6896
  151.2600  133.4300  159.2623 H   0  0  0  0  0  0  0  0  0  0  0  0  # atno 6908 bound_to 6896
  151.0461  134.9655  159.8243 H   0  0  0  0  0  0  0  0  0  0  0  0  # atno 6909 bound_to 6896
  145.0428  139.3949  143.5093 H   0  0  0  0  0  0  0  0  0  0  0  0  # atno 7974 bound_to 7965
  155.0745  140.3204  155.4620 H   0  0  0  0  0  0  0  0  0  0  0  0  # atno 8008 bound_to 7997
  156.2782  140.2106  156.5818 H   0  0  0  0  0  0  0  0  0  0  0  0  # atno 8009 bound_to 7997
  154.7028  140.0505  157.0462 H   0  0  0  0  0  0  0  0  0  0  0  0  # atno 8010 bound_to 7997
  140.4188  144.1489  150.6146 H   0  0  0  0  0  0  0  0  0  0  0  0  # atno 10167 bound_to 10162
  156.0685  130.5902  150.8463 H   0  0  0  0  0  0  0  0  0  0  0  0  # atno 10718 bound_to 10713
  153.5974  135.3454  155.2933 H   0  0  0  0  0  0  0  0  0  0  0  0  # atno 10763 bound_to 10752
  154.8642  135.4219  154.2450 H   0  0  0  0  0  0  0  0  0  0  0  0  # atno 10764 bound_to 10752
  153.3271  135.7042  153.7051 H   0  0  0  0  0  0  0  0  0  0  0  0  # atno 10765 bound_to 10752
  140.8274  134.2558  157.4872 H   0  0  0  0  0  0  0  0  0  0  0  0  # atno 11005 bound_to 11000
  146.3511  140.0037  142.8673 LP  0  0  0  0  0  0  0  0  0  0  0  0  # atno 17320 bound_to 7965
  145.1626  140.9681  143.4368 LP  0  0  0  0  0  0  0  0  0  0  0  0  # atno 17321 bound_to 7965
  140.4556  143.2469  151.9289 LP  0  0  0  0  0  0  0  0  0  0  0  0  # atno 17342 bound_to 10162
  139.4782  144.5518  151.8374 LP  0  0  0  0  0  0  0  0  0  0  0  0  # atno 17343 bound_to 10162
  157.5742  131.0946  150.9370 LP  0  0  0  0  0  0  0  0  0  0  0  0  # atno 17370 bound_to 10713
  156.9580  130.5444  149.5285 LP  0  0  0  0  0  0  0  0  0  0  0  0  # atno 17371 bound_to 10713
  139.8706  134.9568  156.4248 LP  0  0  0  0  0  0  0  0  0  0  0  0  # atno 17394 bound_to 11000
  140.9034  133.7763  155.9707 LP  0  0  0  0  0  0  0  0  0  0  0  0  # atno 17395 bound_to 11000

$$$$
