AV-unprocessed.smi:618|AV-procd|sdf|3077|dock7
  -GOLD-   22720 0 03D 1   1.00000     0.00000
 Structure written by MMmdl.
 41 43  0  0  0  0  0  0  0  0  2 V2000
  141.4354  137.2250  154.8174 O   0  0  0  0  0  0  0  0  0  0  0  0
  142.1458  138.0995  154.3236 C   0  0  0  0  0  0  0  0  0  0  0  0
  143.4357  137.9112  154.0109 N   0  0  0  0  0  0  0  0  0  0  0  0
  144.1799  136.6709  154.2165 C   0  0  0  0  0  0  0  0  0  0  0  0
  144.9733  136.2274  152.9703 C   0  0  1  0  0  0  0  0  0  0  0  0
  145.8560  134.9872  153.2064 C   0  0  0  0  0  0  0  0  0  0  0  0
  146.5914  134.6020  151.9753 N   0  3  1  0  0  0  0  0  0  0  0  0
  147.2013  133.2583  152.0858 C   0  0  0  0  0  0  0  0  0  0  0  0
  146.2290  132.2757  151.4070 C   0  0  0  0  0  0  0  0  0  0  0  0
  145.1132  133.1409  150.8095 C   0  0  0  0  0  0  0  0  0  0  0  0
  145.7249  134.5414  150.7777 C   0  0  1  0  0  0  0  0  0  0  0  0
  144.7284  135.7147  150.6824 C   0  0  0  0  0  0  0  0  0  0  0  0
  144.0640  135.9321  151.9183 O   0  0  0  0  0  0  0  0  0  0  0  0
  141.7519  139.3475  154.0167 N   0  0  0  0  0  0  0  0  0  0  0  0
  140.4765  139.9533  154.1870 C   0  0  0  0  0  0  0  0  0  0  0  0
  139.2482  139.2488  154.2316 C   0  0  0  0  0  0  0  0  0  0  0  0
  138.0552  139.9737  154.4176 C   0  0  0  0  0  0  0  0  0  0  0  0
  138.1317  141.3727  154.5582 C   0  0  0  0  0  0  0  0  0  0  0  0
  139.2948  142.0559  154.5291 N   0  0  0  0  0  0  0  0  0  0  0  0
  140.4344  141.3546  154.3503 C   0  0  0  0  0  0  0  0  0  0  0  0
  143.9410  138.6821  153.5992 H   0  0  0  0  0  0  0  0  0  0  0  0
  144.8462  136.7626  155.0759 H   0  0  0  0  0  0  0  0  0  0  0  0
  143.4576  135.8972  154.4773 H   0  0  0  0  0  0  0  0  0  0  0  0
  145.6030  137.0663  152.6677 H   0  0  0  0  0  0  0  0  0  0  0  0
  146.5739  135.1798  154.0043 H   0  0  0  0  0  0  0  0  0  0  0  0
  145.2382  134.1492  153.5330 H   0  0  0  0  0  0  0  0  0  0  0  0
  148.1486  133.2673  151.5454 H   0  0  0  0  0  0  0  0  0  0  0  0
  147.4222  132.9819  153.1180 H   0  0  0  0  0  0  0  0  0  0  0  0
  146.7450  131.7147  150.6269 H   0  0  0  0  0  0  0  0  0  0  0  0
  145.8238  131.5540  152.1171 H   0  0  0  0  0  0  0  0  0  0  0  0
  144.7972  132.7986  149.8236 H   0  0  0  0  0  0  0  0  0  0  0  0
  144.2399  133.1246  151.4632 H   0  0  0  0  0  0  0  0  0  0  0  0
  146.3816  134.5873  149.9069 H   0  0  0  0  0  0  0  0  0  0  0  0
  145.2488  136.6280  150.3895 H   0  0  0  0  0  0  0  0  0  0  0  0
  143.9867  135.5193  149.9077 H   0  0  0  0  0  0  0  0  0  0  0  0
  142.4419  139.9271  153.5619 H   0  0  0  0  0  0  0  0  0  0  0  0
  139.1911  138.1761  154.1398 H   0  0  0  0  0  0  0  0  0  0  0  0
  137.1023  139.4670  154.4547 H   0  0  0  0  0  0  0  0  0  0  0  0
  137.2358  141.9581  154.7028 H   0  0  0  0  0  0  0  0  0  0  0  0
  141.3453  141.9354  154.3350 H   0  0  0  0  0  0  0  0  0  0  0  0
  147.3138  135.2915  151.8235 H   0  0  0  0  0  0  0  0  0  0  0  0
  1  2  2  0  0  0  0
  2  3  1  0  0  0  0
  2 14  1  0  0  0  0
  3  4  1  0  0  0  0
  3 21  1  0  0  0  0
  4  5  1  0  0  0  0
  4 22  1  0  0  0  0
  4 23  1  0  0  0  0
  5 13  1  0  0  0  0
  5  6  1  0  0  0  0
  5 24  1  0  0  0  0
  6  7  1  0  0  0  0
  6 25  1  0  0  0  0
  6 26  1  0  0  0  0
  7 11  1  0  0  0  0
  7  8  1  0  0  0  0
  7 41  1  0  0  0  0
  8  9  1  0  0  0  0
  8 27  1  0  0  0  0
  8 28  1  0  0  0  0
  9 10  1  0  0  0  0
  9 29  1  0  0  0  0
  9 30  1  0  0  0  0
 10 11  1  0  0  0  0
 10 31  1  0  0  0  0
 10 32  1  0  0  0  0
 11 12  1  0  0  0  0
 11 33  1  0  0  0  0
 12 13  1  0  0  0  0
 12 34  1  0  0  0  0
 12 35  1  0  0  0  0
 14 15  1  0  0  0  0
 14 36  1  0  0  0  0
 15 20  1  0  0  0  0
 15 16  2  0  0  0  0
 16 17  1  0  0  0  0
 16 37  1  0  0  0  0
 17 18  2  0  0  0  0
 17 38  1  0  0  0  0
 18 19  1  0  0  0  0
 18 39  1  0  0  0  0
 19 20  2  0  0  0  0
 20 40  1  0  0  0  0
M  CHG  1   7   1
M  END
> <s_m_source_file>
AV-unprocessed.smi

> <i_m_source_file_index>
618

> <i_lp_mmshare_version>
43012

> <i_f3d_flags>
0

> <s_epik_input>
W2NIXTFuW2NIXVtjSF1bY0hdYzFbTkhdQyg9TylbTkhdW0NIMl1bQ0BIXShbQ0gyXTIpT1tDSDJdW0NAQEhdKE4yMylbQ0gyXVtDSDJdW0NIMl0z

> <s_epik_cmdline>
J2VwaWtfcHl0aG9uJywgJy1waCcsICc3LjAnLCAnLXRuJywgJzgnLCAnLW1hJywgJzIwMCcsICctbWV0YWxfYmluZGluZycsICctaW1hZScsICc8aW5maWxlLm1hZT4nLCAnLW9tYWUnLCAnPG91dGZpbGUubWFlPic=

> <r_epik_Ionization_Penalty>
0.111044

> <r_epik_Ionization_Penalty_Charging>
0.10673

> <r_epik_Ionization_Penalty_Neutral>
0.00431361

> <r_epik_State_Penalty>
0.0978747

> <r_epik_Charging_Adjusted_Penalty>
0.204605

> <i_epik_Tot_Q>
1

> <i_epik_Tot_abs_Q>
1

> <r_epik_Metal_State_Penalty>
0.0947591

> <b_epik_Metal_Only>
0

> <s_lp_Force_Field>
OPLS_2005

> <r_lp_Energy>
41.8914

> <b_lp_Chiralities_Consistent>
1

> <s_lp_Variant>
AV-unprocessed.smi:618-4

> <Gold.Version>
5.8.1

> <Gold.Id.Protein>
6NUR|6NUR_protein|mol2

> <Gold.PLP.Fitness>
42.0968

> <Gold.PLP.PLP>
-27.6086

> <Gold.PLP.part.hbond>
-3.9290

> <Gold.PLP.part.metal>
0.0000

> <Gold.PLP.part.buried>
0.2233

> <Gold.PLP.part.nonpolar>
-23.9525

> <Gold.PLP.part.repulsive>
0.3601

> <Gold.PLP.ligand.clash>
0.0000

> <Gold.PLP.ligand.torsion>
0.2193

> <Gold.PLP.Chemscore.Hbond>
3.9760

> <Gold.PLP.Chemscore.CHOScore>
0.9993

> <Gold.PLP.Chemscore.Metal>
0.0000

> <Gold.Chemscore.Hbonds>
donor molecule, donor type, donor heavy atom, donor atom, acceptor molecule, acceptor atom, score
      L1  H     3    21       P1 10175  0.66
      L1  H     7    41       P1  7948  2.00
      L1  H    14    36       P1 10175  1.00
      L1  C    20    40       P1 10174  0.71

> <Gold.PLP.Chemscore.Internal.Correction>
0.0007

> <Gold.Rescore>
     Score         DG    S(hbond)    S(metal)    S(lipo)     H(rot)  DE(clash)    DE(int)     intcor
     17.54     -19.46       2.59        0.00      73.13       1.27       0.86       1.06       ----

> <Gold.Chemscore.Fitness>
17.5386

> <Gold.Chemscore.DG>
-19.4632

> <Gold.Chemscore.ZeroCoef>
-5.4800

> <Gold.Chemscore.Hbond>
2.5947

> <Gold.Chemscore.Metal>
0.0000

> <Gold.Chemscore.Lipo>
73.1336

> <Gold.Chemscore.Internal_Hbond>
0.0000

> <Gold.Chemscore.DEClash>
0.8633

> <Gold.Chemscore.DEInternal>
1.0613

> <Gold.Chemscore.Rot>
1.2656

> <Gold.Chemscore.Internal.Correction>
   9.000000E+99

> <Gold.Chemscore.Hbonds>
donor molecule, donor type, donor heavy atom, donor atom, acceptor molecule, acceptor atom, score
      L1  H     3    21       P1 10175  0.64
      L1  H     7    41       P1  7948  0.98
      L1  H    14    36       P1 10175  0.95

> <Gold.Chemscore.Hbond.Weighted>
-8.6664

> <Gold.Chemscore.Metal.Weighted>
-0.0000

> <Gold.Chemscore.Lipo.Weighted>
-8.5566

> <Gold.Chemscore.Internal_Hbond.Weighted>
0.0000

> <Gold.Chemscore.DEClash.Weighted>
0.8633

> <Gold.Chemscore.DEInternal.Weighted>
1.0613

> <Gold.Chemscore.Rot.Weighted>
3.2399

> <Gold.Chemscore.Internal.Correction.Weighted>
   9.000000E+99

> <Gold.Protein.RotatedTorsions>
[ 6907 6896 6895 6894 ] final -118.28 input  -60.11 | X-H torsion
[ 7974 7965 7964 7962 ] final  105.62 input  175.53 | X-H torsion
[ 8008 7997 7996 7995 ] final  122.53 input   59.86 | X-H torsion
[ 10167 10162 10161 10158 ] final -108.65 input  -65.29 | X-H torsion
[ 10718 10713 10712 10709 ] final  120.74 input   66.30 | X-H torsion
[ 10763 10752 10751 10750 ] final   92.39 input  -60.55 | X-H torsion
[ 11005 11000 10999 10996 ] final -140.66 input  -57.11 | X-H torsion

> <Gold.Protein.ActiveResidues>
 VAL166  LYS551  ARG553  GLY616  TRP617  ASP618  TYR619  PRO620  LYS621  CYS622 
 ASP623  PHE694  ASN695  SER759  ASP760  ASP761  ALA762  ILE779  LEU786  VAL792 
 PHE793  MET794  SER795  GLU796  ALA797  LYS798  CYS799  TRP800  GLU811  SER814 

> <Gold.Protein.RotatedAtoms>
  150.8206  133.8259  159.3140 H   0  0  0  0  0  0  0  0  0  0  0  0  # atno 6907 bound_to 6896
  151.6018  135.1045  160.0071 H   0  0  0  0  0  0  0  0  0  0  0  0  # atno 6908 bound_to 6896
  152.4295  133.7212  159.6591 H   0  0  0  0  0  0  0  0  0  0  0  0  # atno 6909 bound_to 6896
  145.3173  139.2522  143.3730 H   0  0  0  0  0  0  0  0  0  0  0  0  # atno 7974 bound_to 7965
  156.2731  140.2784  156.1482 H   0  0  0  0  0  0  0  0  0  0  0  0  # atno 8008 bound_to 7997
  155.0882  140.0388  157.2678 H   0  0  0  0  0  0  0  0  0  0  0  0  # atno 8009 bound_to 7997
  154.6910  140.2629  155.6818 H   0  0  0  0  0  0  0  0  0  0  0  0  # atno 8010 bound_to 7997
  140.1638  143.4098  152.1406 H   0  0  0  0  0  0  0  0  0  0  0  0  # atno 10167 bound_to 10162
  157.5869  131.1069  150.8077 H   0  0  0  0  0  0  0  0  0  0  0  0  # atno 10718 bound_to 10713
  153.2186  135.4363  155.0463 H   0  0  0  0  0  0  0  0  0  0  0  0  # atno 10763 bound_to 10752
  154.8238  135.3350  154.6961 H   0  0  0  0  0  0  0  0  0  0  0  0  # atno 10764 bound_to 10752
  153.7394  135.7005  153.5026 H   0  0  0  0  0  0  0  0  0  0  0  0  # atno 10765 bound_to 10752
  140.8400  134.2413  157.4815 H   0  0  0  0  0  0  0  0  0  0  0  0  # atno 11005 bound_to 11000
  146.3095  140.3723  142.8675 LP  0  0  0  0  0  0  0  0  0  0  0  0  # atno 17320 bound_to 7965
  144.8967  140.7592  143.5892 LP  0  0  0  0  0  0  0  0  0  0  0  0  # atno 17321 bound_to 7965
  139.5369  144.7218  151.4864 LP  0  0  0  0  0  0  0  0  0  0  0  0  # atno 17342 bound_to 10162
  140.6626  143.8466  150.6905 LP  0  0  0  0  0  0  0  0  0  0  0  0  # atno 17343 bound_to 10162
  156.8509  130.5080  149.5312 LP  0  0  0  0  0  0  0  0  0  0  0  0  # atno 17370 bound_to 10713
  156.0919  130.5902  150.9747 LP  0  0  0  0  0  0  0  0  0  0  0  0  # atno 17371 bound_to 10713
  139.8703  134.9630  156.4449 LP  0  0  0  0  0  0  0  0  0  0  0  0  # atno 17394 bound_to 11000
  140.8905  133.7851  155.9567 LP  0  0  0  0  0  0  0  0  0  0  0  0  # atno 17395 bound_to 11000

$$$$
