AV-unprocessed.smi:3274|AV-procd|sdf|12525|dock3
  -GOLD-   2272018443D 1   1.00000     0.00000
 Structure written by MMmdl.
 43 44  0  0  0  0  0  0  0  0  2 V2000
  147.7628  133.7829  153.4373 C   0  0  0  0  0  0  0  0  0  0  0  0
  146.5124  133.6255  152.5882 C   0  0  0  0  0  0  0  0  0  0  0  0
  146.3889  132.6000  151.7224 C   0  0  0  0  0  0  0  0  0  0  0  0
  145.1605  132.3276  150.8714 C   0  0  0  0  0  0  0  0  0  0  0  0
  144.1107  133.4493  150.9468 C   0  0  0  0  0  0  0  0  0  0  0  0
  144.0244  134.0435  152.3629 C   0  0  2  0  0  0  0  0  0  0  0  0
  142.8241  134.9936  152.5244 C   0  0  0  0  0  0  0  0  0  0  0  0
  145.3894  134.6500  152.7936 C   0  0  2  0  0  0  0  0  0  0  0  0
  145.6991  136.0005  152.0987 C   0  0  0  0  0  0  0  0  0  0  0  0
  146.7173  136.7937  152.8194 N   0  3  0  0  0  0  0  0  0  0  0  0
  146.5920  138.2619  152.6726 C   0  0  2  0  0  0  0  0  0  0  0  0
  146.5667  138.6214  151.1812 C   0  0  0  0  0  0  0  0  0  0  0  0
  147.7441  138.9960  153.3923 C   0  0  0  0  0  0  0  0  0  0  0  0
  147.4589  140.3992  153.6298 N   0  0  0  0  0  0  0  0  0  0  0  0
  146.3092  141.0184  153.9025 C   0  0  0  0  0  0  0  0  0  0  0  0
  146.4375  142.3244  154.0897 N   0  0  0  0  0  0  0  0  0  0  0  0
  147.7834  142.4539  153.8934 C   0  0  0  0  0  0  0  0  0  0  0  0
  148.4434  141.3288  153.6178 N   0  0  0  0  0  0  0  0  0  0  0  0
  147.4984  133.9299  154.4848 H   0  0  0  0  0  0  0  0  0  0  0  0
  148.3663  134.6266  153.1071 H   0  0  0  0  0  0  0  0  0  0  0  0
  148.3913  132.8936  153.3767 H   0  0  0  0  0  0  0  0  0  0  0  0
  147.1924  131.8844  151.6238 H   0  0  0  0  0  0  0  0  0  0  0  0
  145.4629  132.1640  149.8368 H   0  0  0  0  0  0  0  0  0  0  0  0
  144.7226  131.3926  151.2223 H   0  0  0  0  0  0  0  0  0  0  0  0
  144.3603  134.2345  150.2327 H   0  0  0  0  0  0  0  0  0  0  0  0
  143.1415  133.0570  150.6364 H   0  0  0  0  0  0  0  0  0  0  0  0
  143.8282  133.2104  153.0408 H   0  0  0  0  0  0  0  0  0  0  0  0
  142.8293  135.7928  151.7832 H   0  0  0  0  0  0  0  0  0  0  0  0
  142.8115  135.4491  153.5150 H   0  0  0  0  0  0  0  0  0  0  0  0
  141.8857  134.4524  152.4018 H   0  0  0  0  0  0  0  0  0  0  0  0
  145.3168  134.8377  153.8661 H   0  0  0  0  0  0  0  0  0  0  0  0
  146.0401  135.8350  151.0762 H   0  0  0  0  0  0  0  0  0  0  0  0
  144.7983  136.6050  152.0310 H   0  0  0  0  0  0  0  0  0  0  0  0
  146.6752  136.5679  153.8032 H   0  0  0  0  0  0  0  0  0  0  0  0
  145.6412  138.5861  153.0993 H   0  0  0  0  0  0  0  0  0  0  0  0
  146.4512  139.6963  151.0382 H   0  0  0  0  0  0  0  0  0  0  0  0
  145.7343  138.1327  150.6735 H   0  0  0  0  0  0  0  0  0  0  0  0
  147.4868  138.3165  150.6815 H   0  0  0  0  0  0  0  0  0  0  0  0
  147.9709  138.5143  154.3450 H   0  0  0  0  0  0  0  0  0  0  0  0
  148.6541  138.9394  152.7935 H   0  0  0  0  0  0  0  0  0  0  0  0
  145.3625  140.5033  153.9769 H   0  0  0  0  0  0  0  0  0  0  0  0
  148.2927  143.4038  153.9623 H   0  0  0  0  0  0  0  0  0  0  0  0
  147.6218  136.5158  152.4663 H   0  0  0  0  0  0  0  0  0  0  0  0
  1  2  1  0  0  0  0
  1 19  1  0  0  0  0
  1 20  1  0  0  0  0
  1 21  1  0  0  0  0
  2  8  1  0  0  0  0
  2  3  2  0  0  0  0
  3  4  1  0  0  0  0
  3 22  1  0  0  0  0
  4  5  1  0  0  0  0
  4 23  1  0  0  0  0
  4 24  1  0  0  0  0
  5  6  1  0  0  0  0
  5 25  1  0  0  0  0
  5 26  1  0  0  0  0
  6  7  1  0  0  0  0
  6  8  1  0  0  0  0
  6 27  1  0  0  0  0
  7 28  1  0  0  0  0
  7 29  1  0  0  0  0
  7 30  1  0  0  0  0
  8  9  1  0  0  0  0
  8 31  1  0  0  0  0
  9 10  1  0  0  0  0
  9 32  1  0  0  0  0
  9 33  1  0  0  0  0
 10 11  1  0  0  0  0
 10 34  1  0  0  0  0
 10 43  1  0  0  0  0
 11 12  1  0  0  0  0
 11 13  1  0  0  0  0
 11 35  1  0  0  0  0
 12 36  1  0  0  0  0
 12 37  1  0  0  0  0
 12 38  1  0  0  0  0
 13 14  1  0  0  0  0
 13 39  1  0  0  0  0
 13 40  1  0  0  0  0
 14 18  1  0  0  0  0
 14 15  1  0  0  0  0
 15 16  2  0  0  0  0
 15 41  1  0  0  0  0
 16 17  1  0  0  0  0
 17 18  2  0  0  0  0
 17 42  1  0  0  0  0
M  CHG  1  10   1
M  END
> <s_m_source_file>
AV-unprocessed.smi

> <i_m_source_file_index>
3274

> <i_lp_mmshare_version>
43012

> <i_f3d_flags>
0

> <s_epik_input>
W0NIM11DMT1bQ0hdW0NIMl1bQ0gyXVtDQEBIXShbQ0gzXSlbQ0BIXTFbQ0gyXVtOSF1bQ0BIXShbQ0gzXSlbQ0gyXW4yW2NIXW5bY0hdbjI=

> <s_epik_cmdline>
J2VwaWtfcHl0aG9uJywgJy1waCcsICc3LjAnLCAnLXRuJywgJzgnLCAnLW1hJywgJzIwMCcsICctbWV0YWxfYmluZGluZycsICctaW1hZScsICc8aW5maWxlLm1hZT4nLCAnLW9tYWUnLCAnPG91dGZpbGUubWFlPic=

> <r_lp_tautomer_probability>
1

> <r_epik_Ionization_Penalty>
0.0017527

> <r_epik_Ionization_Penalty_Charging>
0.00175191

> <r_epik_Ionization_Penalty_Neutral>
7.94565e-07

> <r_epik_State_Penalty>
0.00118605

> <r_epik_Charging_Adjusted_Penalty>
0.00293796

> <i_epik_Tot_Q>
1

> <i_epik_Tot_abs_Q>
1

> <r_epik_Metal_State_Penalty>
-0

> <b_epik_Metal_Only>
0

> <s_lp_Force_Field>
OPLS_2005

> <r_lp_Energy>
18.1701

> <b_lp_Chiralities_Consistent>
1

> <s_lp_Variant>
AV-unprocessed.smi:3274-4

> <Gold.Version>
5.8.1

> <Gold.Id.Protein>
6NUR|6NUR_protein|mol2

> <Gold.PLP.Fitness>
39.0871

> <Gold.PLP.PLP>
-28.4543

> <Gold.PLP.part.hbond>
-1.7593

> <Gold.PLP.part.metal>
0.0000

> <Gold.PLP.part.buried>
2.4489

> <Gold.PLP.part.nonpolar>
-29.1566

> <Gold.PLP.part.repulsive>
0.3573

> <Gold.PLP.ligand.clash>
0.0000

> <Gold.PLP.ligand.torsion>
0.8390

> <Gold.PLP.Chemscore.Hbond>
2.1827

> <Gold.PLP.Chemscore.CHOScore>
1.8772

> <Gold.PLP.Chemscore.Metal>
0.0000

> <Gold.Chemscore.Hbonds>
donor molecule, donor type, donor heavy atom, donor atom, acceptor molecule, acceptor atom, score
      L1  H    10    43       P1  7948  1.76
      P1  H  8011  8017       L1    18  0.27
      L1  C    15    41       P1 10175  0.95
      L1  C    17    42       P1  8028  1.00

> <Gold.PLP.Chemscore.Internal.Correction>
0.1311

> <Gold.Rescore>
     Score         DG    S(hbond)    S(metal)    S(lipo)     H(rot)  DE(clash)    DE(int)     intcor
      9.00     -11.28       1.00        0.00      72.83       2.36       1.33       0.95       ----

> <Gold.Chemscore.Fitness>
8.9972

> <Gold.Chemscore.DG>
-11.2803

> <Gold.Chemscore.ZeroCoef>
-5.4800

> <Gold.Chemscore.Hbond>
0.9953

> <Gold.Chemscore.Metal>
0.0000

> <Gold.Chemscore.Lipo>
72.8313

> <Gold.Chemscore.Internal_Hbond>
0.0000

> <Gold.Chemscore.DEClash>
1.3349

> <Gold.Chemscore.DEInternal>
0.9481

> <Gold.Chemscore.Rot>
2.3615

> <Gold.Chemscore.Internal.Correction>
   9.000000E+99

> <Gold.Chemscore.Hbonds>
donor molecule, donor type, donor heavy atom, donor atom, acceptor molecule, acceptor atom, score
      L1  H    10    43       P1  7948  0.86
      P1  H  8011  8017       L1    18  0.01

> <Gold.Chemscore.Hbond.Weighted>
-3.3244

> <Gold.Chemscore.Metal.Weighted>
-0.0000

> <Gold.Chemscore.Lipo.Weighted>
-8.5213

> <Gold.Chemscore.Internal_Hbond.Weighted>
0.0000

> <Gold.Chemscore.DEClash.Weighted>
1.3349

> <Gold.Chemscore.DEInternal.Weighted>
0.9481

> <Gold.Chemscore.Rot.Weighted>
6.0454

> <Gold.Chemscore.Internal.Correction.Weighted>
   9.000000E+99

> <Gold.Protein.RotatedTorsions>
[ 6907 6896 6895 6894 ] final -135.69 input  -60.11 | X-H torsion
[ 7974 7965 7964 7962 ] final  -83.07 input  175.53 | X-H torsion
[ 8008 7997 7996 7995 ] final  173.77 input   59.86 | X-H torsion
[ 10167 10162 10161 10158 ] final  150.41 input  -65.29 | X-H torsion
[ 10718 10713 10712 10709 ] final  170.61 input   66.30 | X-H torsion
[ 10763 10752 10751 10750 ] final  -62.17 input  -60.55 | X-H torsion
[ 11005 11000 10999 10996 ] final   45.11 input  -57.11 | X-H torsion

> <Gold.Protein.ActiveResidues>
 VAL166  LYS551  ARG553  GLY616  TRP617  ASP618  TYR619  PRO620  LYS621  CYS622 
 ASP623  PHE694  ASN695  SER759  ASP760  ASP761  ALA762  ILE779  LEU786  VAL792 
 PHE793  MET794  SER795  GLU796  ALA797  LYS798  CYS799  TRP800  GLU811  SER814 

> <Gold.Protein.RotatedAtoms>
  151.0009  133.6057  159.2694 H   0  0  0  0  0  0  0  0  0  0  0  0  # atno 6907 bound_to 6896
  151.3244  135.0825  159.9326 H   0  0  0  0  0  0  0  0  0  0  0  0  # atno 6908 bound_to 6896
  152.5273  133.9650  159.7789 H   0  0  0  0  0  0  0  0  0  0  0  0  # atno 6909 bound_to 6896
  145.5249  140.9527  143.1635 H   0  0  0  0  0  0  0  0  0  0  0  0  # atno 7974 bound_to 7965
  156.1042  140.1451  156.9427 H   0  0  0  0  0  0  0  0  0  0  0  0  # atno 8008 bound_to 7997
  154.4722  140.0906  156.7219 H   0  0  0  0  0  0  0  0  0  0  0  0  # atno 8009 bound_to 7997
  155.4708  140.3441  155.4328 H   0  0  0  0  0  0  0  0  0  0  0  0  # atno 8010 bound_to 7997
  139.4850  144.5524  151.7377 H   0  0  0  0  0  0  0  0  0  0  0  0  # atno 10167 bound_to 10162
  157.0056  131.0189  151.2818 H   0  0  0  0  0  0  0  0  0  0  0  0  # atno 10718 bound_to 10713
  154.2958  135.6244  153.5404 H   0  0  0  0  0  0  0  0  0  0  0  0  # atno 10763 bound_to 10752
  152.9846  135.5666  154.5339 H   0  0  0  0  0  0  0  0  0  0  0  0  # atno 10764 bound_to 10752
  154.4960  135.2869  155.1435 H   0  0  0  0  0  0  0  0  0  0  0  0  # atno 10765 bound_to 10752
  140.1490  134.4486  155.8395 H   0  0  0  0  0  0  0  0  0  0  0  0  # atno 11005 bound_to 11000
  144.7656  139.6852  143.7216 LP  0  0  0  0  0  0  0  0  0  0  0  0  # atno 17320 bound_to 7965
  146.2082  139.5420  142.9698 LP  0  0  0  0  0  0  0  0  0  0  0  0  # atno 17321 bound_to 7965
  140.5080  144.1068  150.5987 LP  0  0  0  0  0  0  0  0  0  0  0  0  # atno 17342 bound_to 10162
  140.3984  143.2716  151.9977 LP  0  0  0  0  0  0  0  0  0  0  0  0  # atno 17343 bound_to 10162
  157.5358  130.8088  149.7970 LP  0  0  0  0  0  0  0  0  0  0  0  0  # atno 17370 bound_to 10713
  156.0155  130.3815  150.2126 LP  0  0  0  0  0  0  0  0  0  0  0  0  # atno 17371 bound_to 10713
  141.2196  133.6864  156.7386 LP  0  0  0  0  0  0  0  0  0  0  0  0  # atno 17394 bound_to 11000
  140.2628  134.8453  157.3775 LP  0  0  0  0  0  0  0  0  0  0  0  0  # atno 17395 bound_to 11000

$$$$
