AV-unprocessed.smi:1686|AV-procd|sdf|6761|dock3
  -GOLD-   22720 7523D 1   1.00000     0.00000
 Structure written by MMmdl.
 41 43  0  0  0  0  0  0  0  0  1 V2000
  153.1983  137.7541  158.3406 C   0  0  0  0  0  0  0  0  0  0  0  0
  151.7772  137.4890  158.7467 C   0  0  0  0  0  0  0  0  0  0  0  0
  151.5260  137.0684  159.9796 N   0  0  0  0  0  0  0  0  0  0  0  0
  150.1375  136.9179  160.0696 O   0  0  0  0  0  0  0  0  0  0  0  0
  149.6233  137.2595  158.8660 C   0  0  0  0  0  0  0  0  0  0  0  0
  147.9352  137.2215  158.5432 Cl  0  0  0  0  0  0  0  0  0  0  0  0
  150.5875  137.6286  157.9728 C   0  0  0  0  0  0  0  0  0  0  0  0
  150.4438  138.0774  156.5382 C   0  0  0  0  0  0  0  0  0  0  0  0
  151.0060  139.4882  156.3245 C   0  0  0  0  0  0  0  0  0  0  0  0
  151.4808  139.8303  155.2402 O   0  0  0  0  0  0  0  0  0  0  0  0
  150.9448  140.3028  157.3891 N   0  0  0  0  0  0  0  0  0  0  0  0
  151.4363  141.6790  157.4403 C   0  0  1  0  0  0  0  0  0  0  0  0
  150.5750  142.5521  156.5090 C   0  0  0  0  0  0  0  0  0  0  0  0
  151.4270  142.1757  158.9079 C   0  0  1  0  0  0  0  0  0  0  0  0
  152.5194  141.5230  159.7933 C   0  0  0  0  0  0  0  0  0  0  0  0
  153.2485  142.7297  160.4085 C   0  0  2  0  0  0  0  0  0  0  0  0
  152.3212  143.4362  161.4135 C   0  0  0  0  0  0  0  0  0  0  0  0
  151.2920  144.1230  160.4967 C   0  0  0  0  0  0  0  0  0  0  0  0
  151.7415  143.6830  159.0896 C   0  0  1  0  0  0  0  0  0  0  0  0
  153.2595  143.7047  159.2395 C   0  0  0  0  0  0  0  0  0  0  0  0
  153.2532  138.2062  157.3506 H   0  0  0  0  0  0  0  0  0  0  0  0
  153.7770  136.8306  158.3162 H   0  0  0  0  0  0  0  0  0  0  0  0
  153.6852  138.4352  159.0388 H   0  0  0  0  0  0  0  0  0  0  0  0
  150.9573  137.3910  155.8640 H   0  0  0  0  0  0  0  0  0  0  0  0
  149.3983  138.0764  156.2284 H   0  0  0  0  0  0  0  0  0  0  0  0
  150.5400  139.9364  158.2385 H   0  0  0  0  0  0  0  0  0  0  0  0
  152.4653  141.7005  157.0775 H   0  0  0  0  0  0  0  0  0  0  0  0
  150.9444  143.5750  156.4542 H   0  0  0  0  0  0  0  0  0  0  0  0
  149.5389  142.5901  156.8470 H   0  0  0  0  0  0  0  0  0  0  0  0
  150.5762  142.1607  155.4911 H   0  0  0  0  0  0  0  0  0  0  0  0
  150.4437  141.9577  159.3279 H   0  0  0  0  0  0  0  0  0  0  0  0
  152.0982  140.8607  160.5506 H   0  0  0  0  0  0  0  0  0  0  0  0
  153.2219  140.9374  159.1987 H   0  0  0  0  0  0  0  0  0  0  0  0
  154.2304  142.4858  160.8149 H   0  0  0  0  0  0  0  0  0  0  0  0
  151.8577  142.7358  162.1091 H   0  0  0  0  0  0  0  0  0  0  0  0
  152.8693  144.1765  161.9976 H   0  0  0  0  0  0  0  0  0  0  0  0
  150.2673  143.8261  160.7225 H   0  0  0  0  0  0  0  0  0  0  0  0
  151.3538  145.2070  160.5998 H   0  0  0  0  0  0  0  0  0  0  0  0
  151.3543  144.3307  158.3040 H   0  0  0  0  0  0  0  0  0  0  0  0
  153.6554  144.6879  159.5006 H   0  0  0  0  0  0  0  0  0  0  0  0
  153.7917  143.3274  158.3650 H   0  0  0  0  0  0  0  0  0  0  0  0
  1  2  1  0  0  0  0
  1 21  1  0  0  0  0
  1 22  1  0  0  0  0
  1 23  1  0  0  0  0
  2  7  1  0  0  0  0
  2  3  2  0  0  0  0
  3  4  1  0  0  0  0
  4  5  1  0  0  0  0
  5  6  1  0  0  0  0
  5  7  2  0  0  0  0
  7  8  1  0  0  0  0
  8  9  1  0  0  0  0
  8 24  1  0  0  0  0
  8 25  1  0  0  0  0
  9 10  2  0  0  0  0
  9 11  1  0  0  0  0
 11 12  1  0  0  0  0
 11 26  1  0  0  0  0
 12 13  1  0  0  0  0
 12 14  1  0  0  0  0
 12 27  1  0  0  0  0
 13 28  1  0  0  0  0
 13 29  1  0  0  0  0
 13 30  1  0  0  0  0
 14 19  1  0  0  0  0
 14 15  1  0  0  0  0
 14 31  1  0  0  0  0
 15 16  1  0  0  0  0
 15 32  1  0  0  0  0
 15 33  1  0  0  0  0
 16 20  1  0  0  0  0
 16 17  1  0  0  0  0
 16 34  1  0  0  0  0
 17 18  1  0  0  0  0
 17 35  1  0  0  0  0
 17 36  1  0  0  0  0
 18 19  1  0  0  0  0
 18 37  1  0  0  0  0
 18 38  1  0  0  0  0
 19 20  1  0  0  0  0
 19 39  1  0  0  0  0
 20 40  1  0  0  0  0
 20 41  1  0  0  0  0
M  END
> <s_m_source_file>
AV-unprocessed.smi

> <i_m_source_file_index>
1686

> <i_lp_mmshare_version>
43012

> <i_f3d_flags>
0

> <s_epik_input>
W0NIM11jMW5vYyhDbCljMVtDSDJdQyg9TylbTkhdW0NASF0oW0NIM10pW0NASF0oW0NIMl1bQ0BIXTIzKVtDQEhdKFtDSDJdMylbQ0gyXVtDSDJdMg==

> <s_epik_cmdline>
J2VwaWtfcHl0aG9uJywgJy1waCcsICc3LjAnLCAnLXRuJywgJzgnLCAnLW1hJywgJzIwMCcsICctbWV0YWxfYmluZGluZycsICctaW1hZScsICc8aW5maWxlLm1hZT4nLCAnLW9tYWUnLCAnPG91dGZpbGUubWFlPic=

> <r_lp_tautomer_probability>
1

> <r_epik_Ionization_Penalty>
2.01576e-08

> <r_epik_Ionization_Penalty_Charging>
0

> <r_epik_Ionization_Penalty_Neutral>
2.01576e-08

> <r_epik_State_Penalty>
-0

> <r_epik_Charging_Adjusted_Penalty>
0

> <i_epik_Tot_Q>
0

> <i_epik_Tot_abs_Q>
0

> <r_epik_Metal_State_Penalty>
-0

> <b_epik_Metal_Only>
0

> <s_lp_Force_Field>
OPLS_2005

> <r_lp_Energy>
46.9137

> <b_lp_Chiralities_Consistent>
1

> <s_lp_Variant>
AV-unprocessed.smi:1686-4

> <Gold.Version>
5.8.1

> <Gold.Id.Protein>
6NUR|6NUR_protein|mol2

> <Gold.PLP.Fitness>
41.3894

> <Gold.PLP.PLP>
-36.1200

> <Gold.PLP.part.hbond>
-3.2504

> <Gold.PLP.part.metal>
0.0000

> <Gold.PLP.part.buried>
-3.9432

> <Gold.PLP.part.nonpolar>
-29.3057

> <Gold.PLP.part.repulsive>
0.0674

> <Gold.PLP.ligand.clash>
0.0000

> <Gold.PLP.ligand.torsion>
0.5675

> <Gold.PLP.Chemscore.Hbond>
2.1228

> <Gold.PLP.Chemscore.CHOScore>
0.0000

> <Gold.PLP.Chemscore.Metal>
0.0000

> <Gold.Chemscore.Hbonds>
donor molecule, donor type, donor heavy atom, donor atom, acceptor molecule, acceptor atom, score
      P1  H  7989  7998       L1    10  1.00

> <Gold.PLP.Chemscore.Internal.Correction>
0.0360

> <Gold.Rescore>
     Score         DG    S(hbond)    S(metal)    S(lipo)     H(rot)  DE(clash)    DE(int)     intcor
     19.87     -20.93       1.95        0.00     108.45       1.46       0.31       0.76       ----

> <Gold.Chemscore.Fitness>
19.8722

> <Gold.Chemscore.DG>
-20.9348

> <Gold.Chemscore.ZeroCoef>
-5.4800

> <Gold.Chemscore.Hbond>
1.9508

> <Gold.Chemscore.Metal>
0.0000

> <Gold.Chemscore.Lipo>
108.4526

> <Gold.Chemscore.Internal_Hbond>
0.0000

> <Gold.Chemscore.DEClash>
0.3056

> <Gold.Chemscore.DEInternal>
0.7569

> <Gold.Chemscore.Rot>
1.4648

> <Gold.Chemscore.Internal.Correction>
   9.000000E+99

> <Gold.Chemscore.Hbonds>
donor molecule, donor type, donor heavy atom, donor atom, acceptor molecule, acceptor atom, score
      P1  H  6931  6943       L1     4  0.01
      P1  H  7989  7998       L1    10  0.92

> <Gold.Chemscore.Hbond.Weighted>
-6.5158

> <Gold.Chemscore.Metal.Weighted>
-0.0000

> <Gold.Chemscore.Lipo.Weighted>
-12.6890

> <Gold.Chemscore.Internal_Hbond.Weighted>
0.0000

> <Gold.Chemscore.DEClash.Weighted>
0.3056

> <Gold.Chemscore.DEInternal.Weighted>
0.7569

> <Gold.Chemscore.Rot.Weighted>
3.7500

> <Gold.Chemscore.Internal.Correction.Weighted>
   9.000000E+99

> <Gold.Protein.RotatedTorsions>
[ 6907 6896 6895 6894 ] final   99.99 input  -60.11 | X-H torsion
[ 7974 7965 7964 7962 ] final   -8.16 input  175.53 | X-H torsion
[ 8008 7997 7996 7995 ] final   81.31 input   59.86 | X-H torsion
[ 10167 10162 10161 10158 ] final   81.59 input  -65.29 | X-H torsion
[ 10718 10713 10712 10709 ] final  154.24 input   66.30 | X-H torsion
[ 10763 10752 10751 10750 ] final -106.91 input  -60.55 | X-H torsion
[ 11005 11000 10999 10996 ] final -139.50 input  -57.11 | X-H torsion

> <Gold.Protein.ActiveResidues>
 VAL166  LYS551  ARG553  GLY616  TRP617  ASP618  TYR619  PRO620  LYS621  CYS622 
 ASP623  PHE694  ASN695  SER759  ASP760  ASP761  ALA762  ILE779  LEU786  VAL792 
 PHE793  MET794  SER795  GLU796  ALA797  LYS798  CYS799  TRP800  GLU811  SER814 

> <Gold.Protein.RotatedAtoms>
  152.5381  134.0345  159.8039 H   0  0  0  0  0  0  0  0  0  0  0  0  # atno 6907 bound_to 6896
  151.0511  133.5616  159.2649 H   0  0  0  0  0  0  0  0  0  0  0  0  # atno 6908 bound_to 6896
  151.2550  135.0642  159.9130 H   0  0  0  0  0  0  0  0  0  0  0  0  # atno 6909 bound_to 6896
  146.2288  140.2427  142.8344 H   0  0  0  0  0  0  0  0  0  0  0  0  # atno 7974 bound_to 7965
  155.8954  140.3436  155.5987 H   0  0  0  0  0  0  0  0  0  0  0  0  # atno 8008 bound_to 7997
  155.7562  140.0826  157.2196 H   0  0  0  0  0  0  0  0  0  0  0  0  # atno 8009 bound_to 7997
  154.4037  140.1544  156.2768 H   0  0  0  0  0  0  0  0  0  0  0  0  # atno 8010 bound_to 7997
  139.9376  144.6111  150.8283 H   0  0  0  0  0  0  0  0  0  0  0  0  # atno 10167 bound_to 10162
  157.2342  131.0745  151.1834 H   0  0  0  0  0  0  0  0  0  0  0  0  # atno 10718 bound_to 10713
  154.8042  135.4694  154.0351 H   0  0  0  0  0  0  0  0  0  0  0  0  # atno 10763 bound_to 10752
  153.1833  135.6844  153.8456 H   0  0  0  0  0  0  0  0  0  0  0  0  # atno 10764 bound_to 10752
  153.7999  135.3231  155.3366 H   0  0  0  0  0  0  0  0  0  0  0  0  # atno 10765 bound_to 10752
  140.8513  134.2282  157.4758 H   0  0  0  0  0  0  0  0  0  0  0  0  # atno 11005 bound_to 11000
  144.9472  140.8141  143.5594 LP  0  0  0  0  0  0  0  0  0  0  0  0  # atno 17320 bound_to 7965
  145.2384  139.2083  143.5006 LP  0  0  0  0  0  0  0  0  0  0  0  0  # atno 17321 bound_to 7965
  140.7620  143.3187  151.2672 LP  0  0  0  0  0  0  0  0  0  0  0  0  # atno 17342 bound_to 10162
  139.6730  143.9986  152.2764 LP  0  0  0  0  0  0  0  0  0  0  0  0  # atno 17343 bound_to 10162
  157.3446  130.7051  149.6403 LP  0  0  0  0  0  0  0  0  0  0  0  0  # atno 17370 bound_to 10713
  155.9673  130.4270  150.4724 LP  0  0  0  0  0  0  0  0  0  0  0  0  # atno 17371 bound_to 10713
  139.8704  134.9685  156.4632 LP  0  0  0  0  0  0  0  0  0  0  0  0  # atno 17394 bound_to 11000
  140.8786  133.7934  155.9442 LP  0  0  0  0  0  0  0  0  0  0  0  0  # atno 17395 bound_to 11000

$$$$
