AV-unprocessed.smi:1043|AV-procd|sdf|4541|dock4
  -GOLD-   22720 2563D 1   1.00000     0.00000
 Structure written by MMmdl.
 34 35  0  0  0  0  0  0  0  0  2 V2000
  153.8979  141.4358  161.0795 C   0  0  0  0  0  0  0  0  0  0  0  0
  153.0498  142.4590  160.2883 C   0  0  0  0  0  0  0  0  0  0  0  0
  151.9815  141.7497  159.5676 N   0  0  0  0  0  0  0  0  0  0  0  0
  152.0593  140.6445  158.8074 C   0  0  0  0  0  0  0  0  0  0  0  0
  153.1429  140.0851  158.6263 O   0  0  0  0  0  0  0  0  0  0  0  0
  150.8648  140.2476  158.3128 N   0  5  0  0  0  0  0  0  0  0  0  0
  150.7399  139.9654  157.0058 C   0  0  0  0  0  0  0  0  0  0  0  0
  151.8017  139.7899  156.2030 N   0  0  0  0  0  0  0  0  0  0  0  0
  151.4515  139.5118  154.8885 N   0  0  0  0  0  0  0  0  0  0  0  0
  150.1282  139.4944  154.7314 C   0  0  0  0  0  0  0  0  0  0  0  0
  149.1896  139.8157  156.1737 S   0  0  0  0  0  0  0  0  0  0  0  0
  152.5058  143.5346  161.2734 C   0  0  0  0  0  0  0  0  0  0  0  0
  151.2906  144.3873  160.8441 C   0  0  0  0  0  0  0  0  0  0  0  0
  151.2499  144.8921  159.3914 C   0  0  0  0  0  0  0  0  0  0  0  0
  152.6094  145.2662  158.7858 C   0  0  0  0  0  0  0  0  0  0  0  0
  153.3538  144.0523  158.2076 C   0  0  0  0  0  0  0  0  0  0  0  0
  153.9964  143.1232  159.2533 C   0  0  0  0  0  0  0  0  0  0  0  0
  154.7504  141.9178  161.5594 H   0  0  0  0  0  0  0  0  0  0  0  0
  154.2885  140.6530  160.4281 H   0  0  0  0  0  0  0  0  0  0  0  0
  153.3266  140.9452  161.8675 H   0  0  0  0  0  0  0  0  0  0  0  0
  151.0582  142.1447  159.6684 H   0  0  0  0  0  0  0  0  0  0  0  0
  149.7019  139.2931  153.7601 H   0  0  0  0  0  0  0  0  0  0  0  0
  152.2337  143.0550  162.2147 H   0  0  0  0  0  0  0  0  0  0  0  0
  153.3226  144.2055  161.5418 H   0  0  0  0  0  0  0  0  0  0  0  0
  150.3727  143.8301  161.0343 H   0  0  0  0  0  0  0  0  0  0  0  0
  151.2412  145.2479  161.5121 H   0  0  0  0  0  0  0  0  0  0  0  0
  150.7632  144.1496  158.7579 H   0  0  0  0  0  0  0  0  0  0  0  0
  150.5953  145.7637  159.3583 H   0  0  0  0  0  0  0  0  0  0  0  0
  152.4298  145.9637  157.9669 H   0  0  0  0  0  0  0  0  0  0  0  0
  153.2268  145.8036  159.5062 H   0  0  0  0  0  0  0  0  0  0  0  0
  152.6908  143.4844  157.5538 H   0  0  0  0  0  0  0  0  0  0  0  0
  154.1491  144.4205  157.5593 H   0  0  0  0  0  0  0  0  0  0  0  0
  154.7779  143.6752  159.7773 H   0  0  0  0  0  0  0  0  0  0  0  0
  154.5213  142.3393  158.7052 H   0  0  0  0  0  0  0  0  0  0  0  0
  1  2  1  0  0  0  0
  1 18  1  0  0  0  0
  1 19  1  0  0  0  0
  1 20  1  0  0  0  0
  2 17  1  0  0  0  0
  2  3  1  0  0  0  0
  2 12  1  0  0  0  0
  3  4  1  0  0  0  0
  3 21  1  0  0  0  0
  4  5  2  0  0  0  0
  4  6  1  0  0  0  0
  6  7  1  0  0  0  0
  7 11  1  0  0  0  0
  7  8  2  0  0  0  0
  8  9  1  0  0  0  0
  9 10  2  0  0  0  0
 10 11  1  0  0  0  0
 10 22  1  0  0  0  0
 12 13  1  0  0  0  0
 12 23  1  0  0  0  0
 12 24  1  0  0  0  0
 13 14  1  0  0  0  0
 13 25  1  0  0  0  0
 13 26  1  0  0  0  0
 14 15  1  0  0  0  0
 14 27  1  0  0  0  0
 14 28  1  0  0  0  0
 15 16  1  0  0  0  0
 15 29  1  0  0  0  0
 15 30  1  0  0  0  0
 16 17  1  0  0  0  0
 16 31  1  0  0  0  0
 16 32  1  0  0  0  0
 17 33  1  0  0  0  0
 17 34  1  0  0  0  0
M  CHG  1   6  -1
M  END
> <s_m_source_file>
AV-unprocessed.smi

> <i_m_source_file_index>
1043

> <i_lp_mmshare_version>
43012

> <i_f3d_flags>
0

> <s_epik_input>
W0NIMl0xW0NIMl1bQ0gyXVtDSDJdW0NIMl1bQ0gyXUMxKFtDSDNdKVtOSF1DKD1PKVtOSF1jMm5uW2NIXXMy

> <s_epik_cmdline>
J2VwaWtfcHl0aG9uJywgJy1waCcsICc3LjAnLCAnLXRuJywgJzgnLCAnLW1hJywgJzIwMCcsICctbWV0YWxfYmluZGluZycsICctaW1hZScsICc8aW5maWxlLm1hZT4nLCAnLW9tYWUnLCAnPG91dGZpbGUubWFlPic=

> <r_lp_tautomer_probability>
1

> <r_epik_Ionization_Penalty>
4.55555

> <r_epik_Ionization_Penalty_Charging>
4.50588

> <r_epik_Ionization_Penalty_Neutral>
0.0496753

> <r_epik_State_Penalty>
4.50558

> <r_epik_Charging_Adjusted_Penalty>
9.01146

> <i_epik_Tot_Q>
-1

> <i_epik_Tot_abs_Q>
1

> <r_epik_Metal_State_Penalty>
0.822218

> <b_epik_Metal_Only>
1

> <s_lp_Force_Field>
OPLS_2005

> <r_lp_Energy>
17.5754

> <b_lp_Chiralities_Consistent>
1

> <s_lp_Variant>
AV-unprocessed.smi:1043-2

> <Gold.Version>
5.8.1

> <Gold.Id.Protein>
6NUR|6NUR_protein|mol2

> <Gold.PLP.Fitness>
44.2235

> <Gold.PLP.PLP>
-36.5734

> <Gold.PLP.part.hbond>
-2.0000

> <Gold.PLP.part.metal>
0.0000

> <Gold.PLP.part.buried>
-4.9508

> <Gold.PLP.part.nonpolar>
-30.2381

> <Gold.PLP.part.repulsive>
0.2210

> <Gold.PLP.ligand.clash>
0.0000

> <Gold.PLP.ligand.torsion>
0.6448

> <Gold.PLP.Chemscore.Hbond>
1.9760

> <Gold.PLP.Chemscore.CHOScore>
1.0000

> <Gold.PLP.Chemscore.Metal>
0.0000

> <Gold.Chemscore.Hbonds>
donor molecule, donor type, donor heavy atom, donor atom, acceptor molecule, acceptor atom, score
      P1  H  7989  7998       L1     9  0.60
      P1  H  7997  8009       L1     5  0.68
      L1  C    10    22       P1  7957  0.57

> <Gold.PLP.Chemscore.Internal.Correction>
0.0116

> <Gold.Rescore>
     Score         DG    S(hbond)    S(metal)    S(lipo)     H(rot)  DE(clash)    DE(int)     intcor
     17.96     -21.31       1.90        0.00     103.00       1.00       0.06       3.29       ----

> <Gold.Chemscore.Fitness>
17.9563

> <Gold.Chemscore.DG>
-21.3096

> <Gold.Chemscore.ZeroCoef>
-5.4800

> <Gold.Chemscore.Hbond>
1.8977

> <Gold.Chemscore.Metal>
0.0000

> <Gold.Chemscore.Lipo>
103.0025

> <Gold.Chemscore.Internal_Hbond>
0.0000

> <Gold.Chemscore.DEClash>
0.0586

> <Gold.Chemscore.DEInternal>
3.2948

> <Gold.Chemscore.Rot>
1.0000

> <Gold.Chemscore.Internal.Correction>
   9.000000E+99

> <Gold.Chemscore.Hbonds>
donor molecule, donor type, donor heavy atom, donor atom, acceptor molecule, acceptor atom, score
      P1  H  7989  7998       L1     9  0.04
      P1  H  7997  8009       L1     5  0.65

> <Gold.Chemscore.Hbond.Weighted>
-6.3383

> <Gold.Chemscore.Metal.Weighted>
-0.0000

> <Gold.Chemscore.Lipo.Weighted>
-12.0513

> <Gold.Chemscore.Internal_Hbond.Weighted>
0.0000

> <Gold.Chemscore.DEClash.Weighted>
0.0586

> <Gold.Chemscore.DEInternal.Weighted>
3.2948

> <Gold.Chemscore.Rot.Weighted>
2.5600

> <Gold.Chemscore.Internal.Correction.Weighted>
   9.000000E+99

> <Gold.Protein.RotatedTorsions>
[ 6907 6896 6895 6894 ] final  125.77 input  -60.11 | X-H torsion
[ 7974 7965 7964 7962 ] final  -67.76 input  175.53 | X-H torsion
[ 8008 7997 7996 7995 ] final  157.42 input   59.86 | X-H torsion
[ 10167 10162 10161 10158 ] final -129.51 input  -65.29 | X-H torsion
[ 10718 10713 10712 10709 ] final  -45.40 input   66.30 | X-H torsion
[ 10763 10752 10751 10750 ] final  -48.09 input  -60.55 | X-H torsion
[ 11005 11000 10999 10996 ] final   66.62 input  -57.11 | X-H torsion

> <Gold.Protein.ActiveResidues>
 VAL166  LYS551  ARG553  GLY616  TRP617  ASP618  TYR619  PRO620  LYS621  CYS622 
 ASP623  PHE694  ASN695  SER759  ASP760  ASP761  ALA762  ILE779  LEU786  VAL792 
 PHE793  MET794  SER795  GLU796  ALA797  LYS798  CYS799  TRP800  GLU811  SER814 

> <Gold.Protein.RotatedAtoms>
  152.3963  133.6751  159.6278 H   0  0  0  0  0  0  0  0  0  0  0  0  # atno 6907 bound_to 6896
  150.7861  133.8868  159.3310 H   0  0  0  0  0  0  0  0  0  0  0  0  # atno 6908 bound_to 6896
  151.6644  135.0986  160.0237 H   0  0  0  0  0  0  0  0  0  0  0  0  # atno 6909 bound_to 6896
  145.7251  140.9022  143.0610 H   0  0  0  0  0  0  0  0  0  0  0  0  # atno 7974 bound_to 7965
  156.2365  140.1886  156.7106 H   0  0  0  0  0  0  0  0  0  0  0  0  # atno 8008 bound_to 7997
  154.6115  140.0621  156.9527 H   0  0  0  0  0  0  0  0  0  0  0  0  # atno 8009 bound_to 7997
  155.2008  140.3292  155.4346 H   0  0  0  0  0  0  0  0  0  0  0  0  # atno 8010 bound_to 7997
  139.9390  143.6185  152.2509 H   0  0  0  0  0  0  0  0  0  0  0  0  # atno 10167 bound_to 10162
  156.2288  130.4171  149.8901 H   0  0  0  0  0  0  0  0  0  0  0  0  # atno 10718 bound_to 10713
  154.0721  135.6603  153.4826 H   0  0  0  0  0  0  0  0  0  0  0  0  # atno 10763 bound_to 10752
  153.0387  135.5159  154.7557 H   0  0  0  0  0  0  0  0  0  0  0  0  # atno 10764 bound_to 10752
  154.6626  135.3017  154.9815 H   0  0  0  0  0  0  0  0  0  0  0  0  # atno 10765 bound_to 10752
  139.9820  134.6728  156.0244 H   0  0  0  0  0  0  0  0  0  0  0  0  # atno 11005 bound_to 11000
  144.6907  139.9255  143.7469 LP  0  0  0  0  0  0  0  0  0  0  0  0  # atno 17320 bound_to 7965
  146.0590  139.3585  143.0593 LP  0  0  0  0  0  0  0  0  0  0  0  0  # atno 17321 bound_to 7965
  139.6720  144.7660  151.1766 LP  0  0  0  0  0  0  0  0  0  0  0  0  # atno 17342 bound_to 10162
  140.7616  143.5851  150.8854 LP  0  0  0  0  0  0  0  0  0  0  0  0  # atno 17343 bound_to 10162
  156.6522  130.8748  151.3533 LP  0  0  0  0  0  0  0  0  0  0  0  0  # atno 17370 bound_to 10713
  157.7123  130.9455  150.1132 LP  0  0  0  0  0  0  0  0  0  0  0  0  # atno 17371 bound_to 10713
  141.1491  133.6551  156.3958 LP  0  0  0  0  0  0  0  0  0  0  0  0  # atno 17394 bound_to 11000
  140.5077  134.6425  157.5272 LP  0  0  0  0  0  0  0  0  0  0  0  0  # atno 17395 bound_to 11000

$$$$
