AV-unprocessed.smi:813|AV-procd|sdf|3820|dock1
  -GOLD-   22720 1263D 1   1.00000     0.00000
 Structure written by MMmdl.
 35 36  0  0  0  0  0  0  0  0  2 V2000
  153.8129  137.6763  161.3296 C   0  0  0  0  0  0  0  0  0  0  0  0
  153.8650  138.3430  159.9449 C   0  0  1  0  0  0  0  0  0  0  0  0
  152.5103  138.3510  159.3937 N   0  0  0  0  0  0  0  0  0  0  0  0
  152.1454  138.8622  158.2079 C   0  0  0  0  0  0  0  0  0  0  0  0
  152.9915  139.3798  157.4746 O   0  0  0  0  0  0  0  0  0  0  0  0
  150.8239  138.7434  157.9461 N   0  5  0  0  0  0  0  0  0  0  0  0
  150.3739  138.8802  156.6879 C   0  0  0  0  0  0  0  0  0  0  0  0
  150.3398  140.0682  156.0628 N   0  0  0  0  0  0  0  0  0  0  0  0
  149.8444  139.9899  154.7681 N   0  0  0  0  0  0  0  0  0  0  0  0
  149.5255  138.7367  154.4453 C   0  0  0  0  0  0  0  0  0  0  0  0
  149.8015  137.5388  155.6922 S   0  0  0  0  0  0  0  0  0  0  0  0
  154.3819  139.7800  160.1175 C   0  0  0  0  0  0  0  0  0  0  0  0
  155.5911  140.0121  160.1630 O   0  0  0  0  0  0  0  0  0  0  0  0
  153.4461  140.7373  160.2035 N   0  0  0  0  0  0  0  0  0  0  0  0
  153.7132  142.1605  160.3900 C   0  0  0  0  0  0  0  0  0  0  0  0
  153.2309  142.6465  161.7715 C   0  0  0  0  0  0  0  0  0  0  0  0
  151.9794  143.4830  161.5075 C   0  0  0  0  0  0  0  0  0  0  0  0
  152.2285  144.0999  160.1350 C   0  0  0  0  0  0  0  0  0  0  0  0
  152.9486  143.0020  159.3496 C   0  0  0  0  0  0  0  0  0  0  0  0
  154.8012  137.6419  161.7897 H   0  0  0  0  0  0  0  0  0  0  0  0
  153.4556  136.6488  161.2517 H   0  0  0  0  0  0  0  0  0  0  0  0
  153.1453  138.2049  162.0119 H   0  0  0  0  0  0  0  0  0  0  0  0
  154.5295  137.7732  159.2923 H   0  0  0  0  0  0  0  0  0  0  0  0
  151.7845  137.9443  159.9652 H   0  0  0  0  0  0  0  0  0  0  0  0
  149.1277  138.5159  153.4662 H   0  0  0  0  0  0  0  0  0  0  0  0
  152.4776  140.4554  160.1599 H   0  0  0  0  0  0  0  0  0  0  0  0
  154.7845  142.3464  160.2919 H   0  0  0  0  0  0  0  0  0  0  0  0
  153.0399  141.8372  162.4778 H   0  0  0  0  0  0  0  0  0  0  0  0
  153.9995  143.2812  162.2147 H   0  0  0  0  0  0  0  0  0  0  0  0
  151.1044  142.8328  161.4659 H   0  0  0  0  0  0  0  0  0  0  0  0
  151.8039  144.2315  162.2806 H   0  0  0  0  0  0  0  0  0  0  0  0
  151.3099  144.4302  159.6494 H   0  0  0  0  0  0  0  0  0  0  0  0
  152.8818  144.9674  160.2377 H   0  0  0  0  0  0  0  0  0  0  0  0
  153.6116  143.4165  158.5896 H   0  0  0  0  0  0  0  0  0  0  0  0
  152.2072  142.3926  158.8300 H   0  0  0  0  0  0  0  0  0  0  0  0
  1  2  1  0  0  0  0
  1 20  1  0  0  0  0
  1 21  1  0  0  0  0
  1 22  1  0  0  0  0
  2  3  1  0  0  0  0
  2 12  1  0  0  0  0
  2 23  1  0  0  0  0
  3  4  1  0  0  0  0
  3 24  1  0  0  0  0
  4  5  2  0  0  0  0
  4  6  1  0  0  0  0
  6  7  1  0  0  0  0
  7 11  1  0  0  0  0
  7  8  2  0  0  0  0
  8  9  1  0  0  0  0
  9 10  2  0  0  0  0
 10 11  1  0  0  0  0
 10 25  1  0  0  0  0
 12 13  2  0  0  0  0
 12 14  1  0  0  0  0
 14 15  1  0  0  0  0
 14 26  1  0  0  0  0
 15 19  1  0  0  0  0
 15 16  1  0  0  0  0
 15 27  1  0  0  0  0
 16 17  1  0  0  0  0
 16 28  1  0  0  0  0
 16 29  1  0  0  0  0
 17 18  1  0  0  0  0
 17 30  1  0  0  0  0
 17 31  1  0  0  0  0
 18 19  1  0  0  0  0
 18 32  1  0  0  0  0
 18 33  1  0  0  0  0
 19 34  1  0  0  0  0
 19 35  1  0  0  0  0
M  CHG  1   6  -1
M  END
> <s_m_source_file>
AV-unprocessed.smi

> <i_m_source_file_index>
813

> <i_lp_mmshare_version>
43012

> <i_f3d_flags>
0

> <s_epik_input>
W0NIMl0xW0NIMl1bQ0gyXVtDSDJdW0NIXTFbTkhdQyg9TylbQ0BIXShbQ0gzXSlbTkhdQyg9TylbTkhdYzJubltjSF1zMg==

> <s_epik_cmdline>
J2VwaWtfcHl0aG9uJywgJy1waCcsICc3LjAnLCAnLXRuJywgJzgnLCAnLW1hJywgJzIwMCcsICctbWV0YWxfYmluZGluZycsICctaW1hZScsICc8aW5maWxlLm1hZT4nLCAnLW9tYWUnLCAnPG91dGZpbGUubWFlPic=

> <r_lp_tautomer_probability>
1

> <r_epik_Ionization_Penalty>
3.13682

> <r_epik_Ionization_Penalty_Charging>
3.09647

> <r_epik_Ionization_Penalty_Neutral>
0.0403479

> <r_epik_State_Penalty>
3.09328

> <r_epik_Charging_Adjusted_Penalty>
6.18976

> <i_epik_Tot_Q>
-1

> <i_epik_Tot_abs_Q>
1

> <r_epik_Metal_State_Penalty>
0.461392

> <b_epik_Metal_Only>
1

> <s_lp_Force_Field>
OPLS_2005

> <r_lp_Energy>
15.2454

> <b_lp_Chiralities_Consistent>
1

> <s_lp_Variant>
AV-unprocessed.smi:813-4

> <Gold.Version>
5.8.1

> <Gold.Id.Protein>
6NUR|6NUR_protein|mol2

> <Gold.PLP.Fitness>
42.1849

> <Gold.PLP.PLP>
-33.5896

> <Gold.PLP.part.hbond>
-2.0000

> <Gold.PLP.part.metal>
0.0000

> <Gold.PLP.part.buried>
-6.1769

> <Gold.PLP.part.nonpolar>
-26.2018

> <Gold.PLP.part.repulsive>
0.3062

> <Gold.PLP.ligand.clash>
0.0000

> <Gold.PLP.ligand.torsion>
1.4796

> <Gold.PLP.Chemscore.Hbond>
2.0000

> <Gold.PLP.Chemscore.CHOScore>
1.8217

> <Gold.PLP.Chemscore.Metal>
0.0000

> <Gold.Chemscore.Hbonds>
donor molecule, donor type, donor heavy atom, donor atom, acceptor molecule, acceptor atom, score
      P1  H  7989  7998       L1     9  0.18
      P1  H  7997  8009       L1     5  1.00
      L1  C    10    25       P1  7948  0.41
      L1  C    10    25       P1  7957  0.31

> <Gold.PLP.Chemscore.Internal.Correction>
0.0893

> <Gold.Rescore>
     Score         DG    S(hbond)    S(metal)    S(lipo)     H(rot)  DE(clash)    DE(int)     intcor
     15.10     -17.46       1.91        0.00      85.55       1.72       0.01       2.34       ----

> <Gold.Chemscore.Fitness>
15.0984

> <Gold.Chemscore.DG>
-17.4553

> <Gold.Chemscore.ZeroCoef>
-5.4800

> <Gold.Chemscore.Hbond>
1.9064

> <Gold.Chemscore.Metal>
0.0000

> <Gold.Chemscore.Lipo>
85.5510

> <Gold.Chemscore.Internal_Hbond>
0.0000

> <Gold.Chemscore.DEClash>
0.0140

> <Gold.Chemscore.DEInternal>
2.3429

> <Gold.Chemscore.Rot>
1.7194

> <Gold.Chemscore.Internal.Correction>
   9.000000E+99

> <Gold.Chemscore.Hbonds>
donor molecule, donor type, donor heavy atom, donor atom, acceptor molecule, acceptor atom, score
      P1  H  7989  7998       L1     9  0.07
      P1  H  7997  8009       L1     5  1.00

> <Gold.Chemscore.Hbond.Weighted>
-6.3675

> <Gold.Chemscore.Metal.Weighted>
-0.0000

> <Gold.Chemscore.Lipo.Weighted>
-10.0095

> <Gold.Chemscore.Internal_Hbond.Weighted>
0.0000

> <Gold.Chemscore.DEClash.Weighted>
0.0140

> <Gold.Chemscore.DEInternal.Weighted>
2.3429

> <Gold.Chemscore.Rot.Weighted>
4.4016

> <Gold.Chemscore.Internal.Correction.Weighted>
   9.000000E+99

> <Gold.Protein.RotatedTorsions>
[ 6907 6896 6895 6894 ] final   10.18 input  -60.11 | X-H torsion
[ 7974 7965 7964 7962 ] final   68.90 input  175.53 | X-H torsion
[ 8008 7997 7996 7995 ] final  161.92 input   59.86 | X-H torsion
[ 10167 10162 10161 10158 ] final   65.12 input  -65.29 | X-H torsion
[ 10718 10713 10712 10709 ] final   38.28 input   66.30 | X-H torsion
[ 10763 10752 10751 10750 ] final  -95.23 input  -60.55 | X-H torsion
[ 11005 11000 10999 10996 ] final -130.74 input  -57.11 | X-H torsion

> <Gold.Protein.ActiveResidues>
 VAL166  LYS551  ARG553  GLY616  TRP617  ASP618  TYR619  PRO620  LYS621  CYS622 
 ASP623  PHE694  ASN695  SER759  ASP760  ASP761  ALA762  ILE779  LEU786  VAL792 
 PHE793  MET794  SER795  GLU796  ALA797  LYS798  CYS799  TRP800  GLU811  SER814 

> <Gold.Protein.RotatedAtoms>
  151.7341  135.0868  160.0304 H   0  0  0  0  0  0  0  0  0  0  0  0  # atno 6907 bound_to 6896
  152.3522  133.6189  159.5962 H   0  0  0  0  0  0  0  0  0  0  0  0  # atno 6908 bound_to 6896
  150.7547  133.9472  159.3516 H   0  0  0  0  0  0  0  0  0  0  0  0  # atno 6909 bound_to 6896
  145.7969  139.2962  143.1177 H   0  0  0  0  0  0  0  0  0  0  0  0  # atno 7974 bound_to 7965
  156.2069  140.1764  156.7781 H   0  0  0  0  0  0  0  0  0  0  0  0  # atno 8008 bound_to 7997
  154.5667  140.0690  156.8933 H   0  0  0  0  0  0  0  0  0  0  0  0  # atno 8009 bound_to 7997
  155.2748  140.3345  155.4265 H   0  0  0  0  0  0  0  0  0  0  0  0  # atno 8010 bound_to 7997
  140.1148  144.4785  150.6956 H   0  0  0  0  0  0  0  0  0  0  0  0  # atno 10167 bound_to 10162
  157.3570  130.7629  149.7019 H   0  0  0  0  0  0  0  0  0  0  0  0  # atno 10718 bound_to 10713
  154.7129  135.5128  153.8694 H   0  0  0  0  0  0  0  0  0  0  0  0  # atno 10763 bound_to 10752
  153.0796  135.6627  154.0082 H   0  0  0  0  0  0  0  0  0  0  0  0  # atno 10764 bound_to 10752
  153.9921  135.3019  155.3390 H   0  0  0  0  0  0  0  0  0  0  0  0  # atno 10765 bound_to 10752
  140.9319  134.1308  157.4227 H   0  0  0  0  0  0  0  0  0  0  0  0  # atno 11005 bound_to 11000
  145.9918  140.8596  143.0062 LP  0  0  0  0  0  0  0  0  0  0  0  0  # atno 17320 bound_to 7965
  144.6774  140.2227  143.7364 LP  0  0  0  0  0  0  0  0  0  0  0  0  # atno 17321 bound_to 7965
  140.6905  143.2373  151.5143 LP  0  0  0  0  0  0  0  0  0  0  0  0  # atno 17342 bound_to 10162
  139.5600  144.2180  152.1675 LP  0  0  0  0  0  0  0  0  0  0  0  0  # atno 17343 bound_to 10162
  155.9731  130.4124  150.4032 LP  0  0  0  0  0  0  0  0  0  0  0  0  # atno 17370 bound_to 10713
  157.2104  131.0459  151.2602 LP  0  0  0  0  0  0  0  0  0  0  0  0  # atno 17371 bound_to 10713
  139.8798  135.0008  156.6030 LP  0  0  0  0  0  0  0  0  0  0  0  0  # atno 17394 bound_to 11000
  140.7851  133.8628  155.8599 LP  0  0  0  0  0  0  0  0  0  0  0  0  # atno 17395 bound_to 11000

$$$$
