AV-unprocessed.smi:3279|AV-procd|sdf|12550|dock5
  -GOLD-   2272018463D 1   1.00000     0.00000
 Structure written by MMmdl.
 36 36  0  0  0  0  0  0  0  0  1 V2000
  147.2866  142.4289  153.7685 C   0  0  0  0  0  0  0  0  0  0  0  0
  147.2635  141.3953  154.9085 C   0  0  2  0  0  0  0  0  0  0  0  0
  146.7384  141.9583  156.2468 C   0  0  0  0  0  0  0  0  0  0  0  0
  147.7281  142.7779  156.9404 N   0  0  0  0  0  0  0  0  0  0  0  0
  148.1506  142.5944  158.2012 C   0  0  0  0  0  0  0  0  0  0  0  0
  147.7627  141.6761  158.9229 O   0  0  0  0  0  0  0  0  0  0  0  0
  149.1814  143.5932  158.7201 C   0  0  0  0  0  0  0  0  0  0  0  0
  150.3830  142.8865  159.0135 O   0  0  0  0  0  0  0  0  0  0  0  0
  151.4872  143.6230  159.5456 C   0  0  0  0  0  0  0  0  0  0  0  0
  152.5895  142.6633  160.0348 C   0  0  0  0  0  0  0  0  0  0  0  0
  151.0416  144.5803  160.6695 C   0  0  0  0  0  0  0  0  0  0  0  0
  152.0099  144.4400  158.3533 C   0  0  0  0  0  0  0  0  0  0  0  0
  148.6115  140.7664  155.0851 C   0  0  0  0  0  0  0  0  0  0  0  0
  149.3196  140.7197  156.2076 N   0  0  0  0  0  0  0  0  0  0  0  0
  150.4715  140.0422  155.8426 N   0  0  0  0  0  0  0  0  0  0  0  0
  150.4485  139.7096  154.5829 N   0  0  0  0  0  0  0  0  0  0  0  0
  149.2732  140.1648  154.0939 N   0  0  0  0  0  0  0  0  0  0  0  0
  148.9868  140.0474  153.1327 H   0  0  0  0  0  0  0  0  0  0  0  0
  147.6565  141.9821  152.8450 H   0  0  0  0  0  0  0  0  0  0  0  0
  147.9342  143.2716  154.0122 H   0  0  0  0  0  0  0  0  0  0  0  0
  146.2924  142.8225  153.5596 H   0  0  0  0  0  0  0  0  0  0  0  0
  146.5812  140.6005  154.6027 H   0  0  0  0  0  0  0  0  0  0  0  0
  145.8749  142.5966  156.0564 H   0  0  0  0  0  0  0  0  0  0  0  0
  146.3798  141.1508  156.8878 H   0  0  0  0  0  0  0  0  0  0  0  0
  148.1072  143.5626  156.4301 H   0  0  0  0  0  0  0  0  0  0  0  0
  149.3493  144.3570  157.9607 H   0  0  0  0  0  0  0  0  0  0  0  0
  148.7720  144.0810  159.6041 H   0  0  0  0  0  0  0  0  0  0  0  0
  153.4927  143.2117  160.3051 H   0  0  0  0  0  0  0  0  0  0  0  0
  152.8600  141.9457  159.2598 H   0  0  0  0  0  0  0  0  0  0  0  0
  152.2847  142.1017  160.9175 H   0  0  0  0  0  0  0  0  0  0  0  0
  150.7232  144.0431  161.5629 H   0  0  0  0  0  0  0  0  0  0  0  0
  150.2136  145.2116  160.3454 H   0  0  0  0  0  0  0  0  0  0  0  0
  151.8584  145.2376  160.9696 H   0  0  0  0  0  0  0  0  0  0  0  0
  152.8719  145.0467  158.6328 H   0  0  0  0  0  0  0  0  0  0  0  0
  151.2428  145.1143  157.9709 H   0  0  0  0  0  0  0  0  0  0  0  0
  152.3152  143.7910  157.5316 H   0  0  0  0  0  0  0  0  0  0  0  0
  1  2  1  0  0  0  0
  1 19  1  0  0  0  0
  1 20  1  0  0  0  0
  1 21  1  0  0  0  0
  2  3  1  0  0  0  0
  2 13  1  0  0  0  0
  2 22  1  0  0  0  0
  3  4  1  0  0  0  0
  3 23  1  0  0  0  0
  3 24  1  0  0  0  0
  4  5  1  0  0  0  0
  4 25  1  0  0  0  0
  5  6  2  0  0  0  0
  5  7  1  0  0  0  0
  7  8  1  0  0  0  0
  7 26  1  0  0  0  0
  7 27  1  0  0  0  0
  8  9  1  0  0  0  0
  9 10  1  0  0  0  0
  9 11  1  0  0  0  0
  9 12  1  0  0  0  0
 10 28  1  0  0  0  0
 10 29  1  0  0  0  0
 10 30  1  0  0  0  0
 11 31  1  0  0  0  0
 11 32  1  0  0  0  0
 11 33  1  0  0  0  0
 12 34  1  0  0  0  0
 12 35  1  0  0  0  0
 12 36  1  0  0  0  0
 13 17  1  0  0  0  0
 13 14  2  0  0  0  0
 14 15  1  0  0  0  0
 15 16  2  0  0  0  0
 16 17  1  0  0  0  0
 17 18  1  0  0  0  0
M  END
> <s_m_source_file>
AV-unprocessed.smi

> <i_m_source_file_index>
3279

> <i_lp_mmshare_version>
43012

> <i_f3d_flags>
0

> <s_epik_input>
W25IXTFubm5jMVtDQEhdKFtDSDNdKVtDSDJdW05IXUMoPU8pW0NIMl1PQyhbQ0gzXSkoW0NIM10pW0NIM10=

> <s_epik_cmdline>
J2VwaWtfcHl0aG9uJywgJy1waCcsICc3LjAnLCAnLXRuJywgJzgnLCAnLW1hJywgJzIwMCcsICctbWV0YWxfYmluZGluZycsICctaW1hZScsICc8aW5maWxlLm1hZT4nLCAnLW9tYWUnLCAnPG91dGZpbGUubWFlPic=

> <r_lp_tautomer_probability>
0.3

> <r_epik_Ionization_Penalty>
1.45055

> <r_epik_Ionization_Penalty_Charging>
0

> <r_epik_Ionization_Penalty_Neutral>
1.45055

> <r_epik_State_Penalty>
2.31845

> <r_epik_Charging_Adjusted_Penalty>
2.31845

> <i_epik_Tot_Q>
0

> <i_epik_Tot_abs_Q>
0

> <r_epik_Metal_State_Penalty>
2.36898

> <b_epik_Metal_Only>
0

> <s_lp_Force_Field>
OPLS_2005

> <r_lp_Energy>
6.97201

> <b_lp_Chiralities_Consistent>
1

> <s_lp_Variant>
AV-unprocessed.smi:3279-3

> <Gold.Version>
5.8.1

> <Gold.Id.Protein>
6NUR|6NUR_protein|mol2

> <Gold.PLP.Fitness>
37.9064

> <Gold.PLP.PLP>
-29.6881

> <Gold.PLP.part.hbond>
-5.3934

> <Gold.PLP.part.metal>
0.0000

> <Gold.PLP.part.buried>
-2.1125

> <Gold.PLP.part.nonpolar>
-23.1670

> <Gold.PLP.part.repulsive>
1.0523

> <Gold.PLP.ligand.clash>
0.0000

> <Gold.PLP.ligand.torsion>
0.2706

> <Gold.PLP.Chemscore.Hbond>
2.8800

> <Gold.PLP.Chemscore.CHOScore>
0.0000

> <Gold.PLP.Chemscore.Metal>
0.0000

> <Gold.Chemscore.Hbonds>
donor molecule, donor type, donor heavy atom, donor atom, acceptor molecule, acceptor atom, score
      L1  H     4    25       P1  8028  0.70
      L1  H    17    18       P1  7957  0.83
      P1  H  6934  6946       L1     6  0.18
      P1  H  7989  7998       L1    16  0.85

> <Gold.PLP.Chemscore.Internal.Correction>
0.1194

> <Gold.Rescore>
     Score         DG    S(hbond)    S(metal)    S(lipo)     H(rot)  DE(clash)    DE(int)     intcor
      9.95     -13.48       1.92        0.00      72.95       2.71       1.77       1.76       ----

> <Gold.Chemscore.Fitness>
9.9493

> <Gold.Chemscore.DG>
-13.4829

> <Gold.Chemscore.ZeroCoef>
-5.4800

> <Gold.Chemscore.Hbond>
1.9174

> <Gold.Chemscore.Metal>
0.0000

> <Gold.Chemscore.Lipo>
72.9471

> <Gold.Chemscore.Internal_Hbond>
0.0000

> <Gold.Chemscore.DEClash>
1.7716

> <Gold.Chemscore.DEInternal>
1.7620

> <Gold.Chemscore.Rot>
2.7094

> <Gold.Chemscore.Internal.Correction>
   9.000000E+99

> <Gold.Chemscore.Hbonds>
donor molecule, donor type, donor heavy atom, donor atom, acceptor molecule, acceptor atom, score
      L1  H     4    25       P1  8028  0.07
      L1  H    17    18       P1  7957  0.78
      P1  H  6934  6946       L1     6  0.18
      P1  H  7989  7998       L1    16  0.12

> <Gold.Chemscore.Hbond.Weighted>
-6.4041

> <Gold.Chemscore.Metal.Weighted>
-0.0000

> <Gold.Chemscore.Lipo.Weighted>
-8.5348

> <Gold.Chemscore.Internal_Hbond.Weighted>
0.0000

> <Gold.Chemscore.DEClash.Weighted>
1.7716

> <Gold.Chemscore.DEInternal.Weighted>
1.7620

> <Gold.Chemscore.Rot.Weighted>
6.9360

> <Gold.Chemscore.Internal.Correction.Weighted>
   9.000000E+99

> <Gold.Protein.RotatedTorsions>
[ 6907 6896 6895 6894 ] final  170.45 input  -60.11 | X-H torsion
[ 7974 7965 7964 7962 ] final -133.67 input  175.53 | X-H torsion
[ 8008 7997 7996 7995 ] final -141.13 input   59.86 | X-H torsion
[ 10167 10162 10161 10158 ] final   23.47 input  -65.29 | X-H torsion
[ 10718 10713 10712 10709 ] final  131.08 input   66.30 | X-H torsion
[ 10763 10752 10751 10750 ] final  123.29 input  -60.55 | X-H torsion
[ 11005 11000 10999 10996 ] final  -23.46 input  -57.11 | X-H torsion

> <Gold.Protein.ActiveResidues>
 VAL166  LYS551  ARG553  GLY616  TRP617  ASP618  TYR619  PRO620  LYS621  CYS622 
 ASP623  PHE694  ASN695  SER759  ASP760  ASP761  ALA762  ILE779  LEU786  VAL792 
 PHE793  MET794  SER795  GLU796  ALA797  LYS798  CYS799  TRP800  GLU811  SER814 

> <Gold.Protein.RotatedAtoms>
  151.8158  133.3388  159.3568 H   0  0  0  0  0  0  0  0  0  0  0  0  # atno 6907 bound_to 6896
  150.7311  134.5620  159.5856 H   0  0  0  0  0  0  0  0  0  0  0  0  # atno 6908 bound_to 6896
  152.3042  134.7576  160.0402 H   0  0  0  0  0  0  0  0  0  0  0  0  # atno 6909 bound_to 6896
  144.9172  140.6969  143.4988 H   0  0  0  0  0  0  0  0  0  0  0  0  # atno 7974 bound_to 7965
  155.4728  140.0554  157.2977 H   0  0  0  0  0  0  0  0  0  0  0  0  # atno 8008 bound_to 7997
  154.4692  140.2032  155.9993 H   0  0  0  0  0  0  0  0  0  0  0  0  # atno 8009 bound_to 7997
  156.1026  140.3216  155.7967 H   0  0  0  0  0  0  0  0  0  0  0  0  # atno 8010 bound_to 7997
  140.5266  143.9912  150.6444 H   0  0  0  0  0  0  0  0  0  0  0  0  # atno 10167 bound_to 10162
  157.5001  131.1094  150.9438 H   0  0  0  0  0  0  0  0  0  0  0  0  # atno 10718 bound_to 10713
  153.6433  135.3375  155.3078 H   0  0  0  0  0  0  0  0  0  0  0  0  # atno 10763 bound_to 10752
  154.8554  135.4323  154.1982 H   0  0  0  0  0  0  0  0  0  0  0  0  # atno 10764 bound_to 10752
  153.2906  135.7016  153.7371 H   0  0  0  0  0  0  0  0  0  0  0  0  # atno 10765 bound_to 10752
  140.8753  133.7691  156.0236 H   0  0  0  0  0  0  0  0  0  0  0  0  # atno 11005 bound_to 11000
  145.3356  139.1747  143.4513 LP  0  0  0  0  0  0  0  0  0  0  0  0  # atno 17320 bound_to 7965
  146.3187  140.3391  142.8646 LP  0  0  0  0  0  0  0  0  0  0  0  0  # atno 17321 bound_to 7965
  140.3276  143.3098  152.0721 LP  0  0  0  0  0  0  0  0  0  0  0  0  # atno 17342 bound_to 10162
  139.4940  144.6531  151.6631 LP  0  0  0  0  0  0  0  0  0  0  0  0  # atno 17343 bound_to 10162
  157.0112  130.5637  149.5321 LP  0  0  0  0  0  0  0  0  0  0  0  0  # atno 17370 bound_to 10713
  156.0224  130.5319  150.8313 LP  0  0  0  0  0  0  0  0  0  0  0  0  # atno 17371 bound_to 10713
  140.8525  134.2937  157.5269 LP  0  0  0  0  0  0  0  0  0  0  0  0  # atno 17394 bound_to 11000
  139.8715  134.9475  156.3969 LP  0  0  0  0  0  0  0  0  0  0  0  0  # atno 17395 bound_to 11000

$$$$
