AV-unprocessed.smi:813|AV-procd|sdf|3819|dock3
  -GOLD-   22720 1263D 1   1.00000     0.00000
 Structure written by MMmdl.
 35 36  0  0  0  0  0  0  0  0  2 V2000
  152.0842  137.5851  158.0262 C   0  0  0  0  0  0  0  0  0  0  0  0
  151.4905  139.0024  158.0876 C   0  0  2  0  0  0  0  0  0  0  0  0
  151.1103  139.3948  156.7306 N   0  0  0  0  0  0  0  0  0  0  0  0
  150.7187  140.6187  156.3444 C   0  0  0  0  0  0  0  0  0  0  0  0
  150.6508  141.5319  157.1708 O   0  0  0  0  0  0  0  0  0  0  0  0
  150.4285  140.7079  155.0265 N   0  5  0  0  0  0  0  0  0  0  0  0
  149.2074  140.3660  154.5837 C   0  0  0  0  0  0  0  0  0  0  0  0
  148.7048  139.1312  154.7442 N   0  0  0  0  0  0  0  0  0  0  0  0
  147.4273  138.9893  154.2195 N   0  0  0  0  0  0  0  0  0  0  0  0
  146.9942  140.1287  153.6807 C   0  0  0  0  0  0  0  0  0  0  0  0
  148.1059  141.4788  153.7673 S   0  0  0  0  0  0  0  0  0  0  0  0
  152.5638  139.9505  158.6461 C   0  0  0  0  0  0  0  0  0  0  0  0
  153.7569  139.6455  158.6028 O   0  0  0  0  0  0  0  0  0  0  0  0
  152.1174  141.0966  159.1819 N   0  0  0  0  0  0  0  0  0  0  0  0
  152.9611  142.1414  159.7556 C   0  0  0  0  0  0  0  0  0  0  0  0
  152.6476  142.3402  161.2511 C   0  0  0  0  0  0  0  0  0  0  0  0
  152.4802  143.8475  161.4524 C   0  0  0  0  0  0  0  0  0  0  0  0
  151.9597  144.3508  160.1100 C   0  0  0  0  0  0  0  0  0  0  0  0
  152.7056  143.5033  159.0793 C   0  0  0  0  0  0  0  0  0  0  0  0
  152.3844  137.2381  159.0157 H   0  0  0  0  0  0  0  0  0  0  0  0
  152.9595  137.5381  157.3763 H   0  0  0  0  0  0  0  0  0  0  0  0
  151.3519  136.8742  157.6424 H   0  0  0  0  0  0  0  0  0  0  0  0
  150.6107  139.0006  158.7341 H   0  0  0  0  0  0  0  0  0  0  0  0
  151.1601  138.6800  156.0197 H   0  0  0  0  0  0  0  0  0  0  0  0
  146.0134  140.1752  153.2320 H   0  0  0  0  0  0  0  0  0  0  0  0
  151.1223  141.2662  159.1717 H   0  0  0  0  0  0  0  0  0  0  0  0
  154.0118  141.8695  159.6399 H   0  0  0  0  0  0  0  0  0  0  0  0
  151.7145  141.8415  161.5193 H   0  0  0  0  0  0  0  0  0  0  0  0
  153.4271  141.9284  161.8929 H   0  0  0  0  0  0  0  0  0  0  0  0
  151.8132  144.0894  162.2802 H   0  0  0  0  0  0  0  0  0  0  0  0
  153.4498  144.3013  161.6622 H   0  0  0  0  0  0  0  0  0  0  0  0
  150.8882  144.1598  160.0362 H   0  0  0  0  0  0  0  0  0  0  0  0
  152.1194  145.4202  159.9695 H   0  0  0  0  0  0  0  0  0  0  0  0
  153.6623  143.9744  158.8506 H   0  0  0  0  0  0  0  0  0  0  0  0
  152.1559  143.4269  158.1396 H   0  0  0  0  0  0  0  0  0  0  0  0
  1  2  1  0  0  0  0
  1 20  1  0  0  0  0
  1 21  1  0  0  0  0
  1 22  1  0  0  0  0
  2  3  1  0  0  0  0
  2 12  1  0  0  0  0
  2 23  1  0  0  0  0
  3  4  1  0  0  0  0
  3 24  1  0  0  0  0
  4  5  2  0  0  0  0
  4  6  1  0  0  0  0
  6  7  1  0  0  0  0
  7 11  1  0  0  0  0
  7  8  2  0  0  0  0
  8  9  1  0  0  0  0
  9 10  2  0  0  0  0
 10 11  1  0  0  0  0
 10 25  1  0  0  0  0
 12 13  2  0  0  0  0
 12 14  1  0  0  0  0
 14 15  1  0  0  0  0
 14 26  1  0  0  0  0
 15 19  1  0  0  0  0
 15 16  1  0  0  0  0
 15 27  1  0  0  0  0
 16 17  1  0  0  0  0
 16 28  1  0  0  0  0
 16 29  1  0  0  0  0
 17 18  1  0  0  0  0
 17 30  1  0  0  0  0
 17 31  1  0  0  0  0
 18 19  1  0  0  0  0
 18 32  1  0  0  0  0
 18 33  1  0  0  0  0
 19 34  1  0  0  0  0
 19 35  1  0  0  0  0
M  CHG  1   6  -1
M  END
> <s_m_source_file>
AV-unprocessed.smi

> <i_m_source_file_index>
813

> <i_lp_mmshare_version>
43012

> <i_f3d_flags>
0

> <s_epik_input>
W0NIMl0xW0NIMl1bQ0gyXVtDSDJdW0NIXTFbTkhdQyg9TylbQ0BIXShbQ0gzXSlbTkhdQyg9TylbTkhdYzJubltjSF1zMg==

> <s_epik_cmdline>
J2VwaWtfcHl0aG9uJywgJy1waCcsICc3LjAnLCAnLXRuJywgJzgnLCAnLW1hJywgJzIwMCcsICctbWV0YWxfYmluZGluZycsICctaW1hZScsICc8aW5maWxlLm1hZT4nLCAnLW9tYWUnLCAnPG91dGZpbGUubWFlPic=

> <r_lp_tautomer_probability>
1

> <r_epik_Ionization_Penalty>
3.13682

> <r_epik_Ionization_Penalty_Charging>
3.09647

> <r_epik_Ionization_Penalty_Neutral>
0.0403479

> <r_epik_State_Penalty>
3.09328

> <r_epik_Charging_Adjusted_Penalty>
6.18976

> <i_epik_Tot_Q>
-1

> <i_epik_Tot_abs_Q>
1

> <r_epik_Metal_State_Penalty>
0.461392

> <b_epik_Metal_Only>
1

> <s_lp_Force_Field>
OPLS_2005

> <r_lp_Energy>
16.0843

> <b_lp_Chiralities_Consistent>
1

> <s_lp_Variant>
AV-unprocessed.smi:813-3

> <Gold.Version>
5.8.1

> <Gold.Id.Protein>
6NUR|6NUR_protein|mol2

> <Gold.PLP.Fitness>
40.5324

> <Gold.PLP.PLP>
-35.8272

> <Gold.PLP.part.hbond>
-2.0000

> <Gold.PLP.part.metal>
0.0000

> <Gold.PLP.part.buried>
-4.8571

> <Gold.PLP.part.nonpolar>
-29.0445

> <Gold.PLP.part.repulsive>
0.5883

> <Gold.PLP.ligand.clash>
0.0000

> <Gold.PLP.ligand.torsion>
2.0109

> <Gold.PLP.Chemscore.Hbond>
1.8960

> <Gold.PLP.Chemscore.CHOScore>
0.9952

> <Gold.PLP.Chemscore.Metal>
0.0000

> <Gold.Chemscore.Hbonds>
donor molecule, donor type, donor heavy atom, donor atom, acceptor molecule, acceptor atom, score
      P1  H  7989  7998       L1     6  0.88
      P1  H  7997  8008       L1    13  1.00
      L1  C    10    25       P1 10175  1.00

> <Gold.PLP.Chemscore.Internal.Correction>
0.0534

> <Gold.Rescore>
     Score         DG    S(hbond)    S(metal)    S(lipo)     H(rot)  DE(clash)    DE(int)     intcor
     13.53     -16.83       1.88        0.00      80.82       1.72       0.06       3.24       ----

> <Gold.Chemscore.Fitness>
13.5336

> <Gold.Chemscore.DG>
-16.8261

> <Gold.Chemscore.ZeroCoef>
-5.4800

> <Gold.Chemscore.Hbond>
1.8839

> <Gold.Chemscore.Metal>
0.0000

> <Gold.Chemscore.Lipo>
80.8181

> <Gold.Chemscore.Internal_Hbond>
0.0000

> <Gold.Chemscore.DEClash>
0.0574

> <Gold.Chemscore.DEInternal>
3.2352

> <Gold.Chemscore.Rot>
1.7194

> <Gold.Chemscore.Internal.Correction>
   9.000000E+99

> <Gold.Chemscore.Hbonds>
donor molecule, donor type, donor heavy atom, donor atom, acceptor molecule, acceptor atom, score
      P1  H  7989  7998       L1     6  0.60
      P1  H  7997  8008       L1    13  0.99

> <Gold.Chemscore.Hbond.Weighted>
-6.2921

> <Gold.Chemscore.Metal.Weighted>
-0.0000

> <Gold.Chemscore.Lipo.Weighted>
-9.4557

> <Gold.Chemscore.Internal_Hbond.Weighted>
0.0000

> <Gold.Chemscore.DEClash.Weighted>
0.0574

> <Gold.Chemscore.DEInternal.Weighted>
3.2352

> <Gold.Chemscore.Rot.Weighted>
4.4016

> <Gold.Chemscore.Internal.Correction.Weighted>
   9.000000E+99

> <Gold.Protein.RotatedTorsions>
[ 6907 6896 6895 6894 ] final   68.10 input  -60.11 | X-H torsion
[ 7974 7965 7964 7962 ] final -169.06 input  175.53 | X-H torsion
[ 8008 7997 7996 7995 ] final -104.28 input   59.86 | X-H torsion
[ 10167 10162 10161 10158 ] final -132.67 input  -65.29 | X-H torsion
[ 10718 10713 10712 10709 ] final  174.64 input   66.30 | X-H torsion
[ 10763 10752 10751 10750 ] final  -71.99 input  -60.55 | X-H torsion
[ 11005 11000 10999 10996 ] final -103.98 input  -57.11 | X-H torsion

> <Gold.Protein.ActiveResidues>
 VAL166  LYS551  ARG553  GLY616  TRP617  ASP618  TYR619  PRO620  LYS621  CYS622 
 ASP623  PHE694  ASN695  SER759  ASP760  ASP761  ALA762  ILE779  LEU786  VAL792 
 PHE793  MET794  SER795  GLU796  ALA797  LYS798  CYS799  TRP800  GLU811  SER814 

> <Gold.Protein.RotatedAtoms>
  152.4597  134.5211  159.9782 H   0  0  0  0  0  0  0  0  0  0  0  0  # atno 6907 bound_to 6896
  151.5263  133.3451  159.2918 H   0  0  0  0  0  0  0  0  0  0  0  0  # atno 6908 bound_to 6896
  150.8555  134.7923  159.7105 H   0  0  0  0  0  0  0  0  0  0  0  0  # atno 6909 bound_to 6896
  144.7192  140.2277  143.6308 H   0  0  0  0  0  0  0  0  0  0  0  0  # atno 7974 bound_to 7965
  154.8831  140.0418  157.1794 H   0  0  0  0  0  0  0  0  0  0  0  0  # atno 8008 bound_to 7997
  154.8618  140.2945  155.5513 H   0  0  0  0  0  0  0  0  0  0  0  0  # atno 8009 bound_to 7997
  156.2998  140.2445  156.3594 H   0  0  0  0  0  0  0  0  0  0  0  0  # atno 8010 bound_to 7997
  139.9062  143.6549  152.2585 H   0  0  0  0  0  0  0  0  0  0  0  0  # atno 10167 bound_to 10162
  156.9466  131.0018  151.2957 H   0  0  0  0  0  0  0  0  0  0  0  0  # atno 10718 bound_to 10713
  154.4395  135.5944  153.6120 H   0  0  0  0  0  0  0  0  0  0  0  0  # atno 10763 bound_to 10752
  152.9804  135.5994  154.3740 H   0  0  0  0  0  0  0  0  0  0  0  0  # atno 10764 bound_to 10752
  154.3588  135.2841  155.2310 H   0  0  0  0  0  0  0  0  0  0  0  0  # atno 10765 bound_to 10752
  141.1121  133.8685  157.1554 H   0  0  0  0  0  0  0  0  0  0  0  0  # atno 11005 bound_to 11000
  145.8441  139.2143  143.1810 LP  0  0  0  0  0  0  0  0  0  0  0  0  # atno 17320 bound_to 7965
  146.0320  140.8248  142.9871 LP  0  0  0  0  0  0  0  0  0  0  0  0  # atno 17321 bound_to 7965
  139.6982  144.7638  151.1319 LP  0  0  0  0  0  0  0  0  0  0  0  0  # atno 17342 bound_to 10162
  140.7696  143.5494  150.9222 LP  0  0  0  0  0  0  0  0  0  0  0  0  # atno 17343 bound_to 10162
  157.5750  130.8336  149.8443 LP  0  0  0  0  0  0  0  0  0  0  0  0  # atno 17370 bound_to 10713
  156.0381  130.3746  150.1507 LP  0  0  0  0  0  0  0  0  0  0  0  0  # atno 17371 bound_to 10713
  140.0021  135.0023  157.0212 LP  0  0  0  0  0  0  0  0  0  0  0  0  # atno 17394 bound_to 11000
  140.4747  134.1351  155.7208 LP  0  0  0  0  0  0  0  0  0  0  0  0  # atno 17395 bound_to 11000

$$$$
