AV-unprocessed.smi:2106|AV-procd|sdf|8593|dock3
  -GOLD-   2272011323D 1   1.00000     0.00000
 Structure written by MMmdl.
 47 48  0  0  0  0  0  0  0  0  1 V2000
  150.7992  133.2307  156.3648 C   0  0  0  0  0  0  0  0  0  0  0  0
  150.5517  134.6750  156.0433 C   0  0  0  0  0  0  0  0  0  0  0  0
  149.4227  135.4717  156.3820 C   0  0  0  0  0  0  0  0  0  0  0  0
  149.7029  136.6988  155.8502 C   0  0  0  0  0  0  0  0  0  0  0  0
  148.9040  137.9605  155.8688 C   0  0  0  0  0  0  0  0  0  0  0  0
  150.9397  136.5976  155.2375 N   0  0  0  0  0  0  0  0  0  0  0  0
  151.6928  137.6110  154.5153 C   0  0  0  0  0  0  0  0  0  0  0  0
  152.1555  138.7268  155.4533 C   0  0  0  0  0  0  0  0  0  0  0  0
  152.5707  139.7888  154.9902 O   0  0  0  0  0  0  0  0  0  0  0  0
  152.0818  138.4699  156.7682 N   0  0  0  0  0  0  0  0  0  0  0  0
  152.4878  139.3848  157.8271 C   0  0  0  0  0  0  0  0  0  0  0  0
  151.2694  139.8933  158.6195 C   0  0  0  0  0  0  0  0  0  0  0  0
  151.4494  141.1934  159.2636 N   0  0  0  0  0  0  0  0  0  0  0  0
  152.5868  141.2125  160.1807 C   0  0  0  0  0  0  0  0  0  0  0  0
  152.7854  142.5966  160.8283 C   0  0  1  0  0  0  0  0  0  0  0  0
  154.0292  142.6441  161.7219 C   0  0  0  0  0  0  0  0  0  0  0  0
  152.9328  143.5758  159.8040 O   0  0  0  0  0  0  0  0  0  0  0  0
  151.8208  143.6301  158.9151 C   0  0  1  0  0  0  0  0  0  0  0  0
  152.0904  144.7233  157.8757 C   0  0  0  0  0  0  0  0  0  0  0  0
  151.6282  142.2451  158.2684 C   0  0  0  0  0  0  0  0  0  0  0  0
  151.4570  135.3549  155.3591 N   0  0  0  0  0  0  0  0  0  0  0  0
  149.9836  132.8142  156.9561 H   0  0  0  0  0  0  0  0  0  0  0  0
  151.7194  133.1070  156.9362 H   0  0  0  0  0  0  0  0  0  0  0  0
  150.8870  132.6356  155.4555 H   0  0  0  0  0  0  0  0  0  0  0  0
  148.5388  135.1845  156.9320 H   0  0  0  0  0  0  0  0  0  0  0  0
  147.9615  137.8166  156.3976 H   0  0  0  0  0  0  0  0  0  0  0  0
  148.6719  138.2902  154.8561 H   0  0  0  0  0  0  0  0  0  0  0  0
  149.4503  138.7594  156.3702 H   0  0  0  0  0  0  0  0  0  0  0  0
  152.5545  137.1460  154.0358 H   0  0  0  0  0  0  0  0  0  0  0  0
  151.0733  138.0229  153.7169 H   0  0  0  0  0  0  0  0  0  0  0  0
  151.7334  137.5664  157.0543 H   0  0  0  0  0  0  0  0  0  0  0  0
  153.2031  138.8996  158.4932 H   0  0  0  0  0  0  0  0  0  0  0  0
  153.0135  140.2119  157.3515 H   0  0  0  0  0  0  0  0  0  0  0  0
  150.3965  139.9247  157.9657 H   0  0  0  0  0  0  0  0  0  0  0  0
  151.0393  139.1538  159.3879 H   0  0  0  0  0  0  0  0  0  0  0  0
  152.4452  140.4780  160.9726 H   0  0  0  0  0  0  0  0  0  0  0  0
  153.4946  140.9266  159.6467 H   0  0  0  0  0  0  0  0  0  0  0  0
  151.9109  142.8459  161.4319 H   0  0  0  0  0  0  0  0  0  0  0  0
  153.9571  141.9190  162.5330 H   0  0  0  0  0  0  0  0  0  0  0  0
  154.1508  143.6312  162.1685 H   0  0  0  0  0  0  0  0  0  0  0  0
  154.9325  142.4224  161.1531 H   0  0  0  0  0  0  0  0  0  0  0  0
  150.9271  143.8977  159.4816 H   0  0  0  0  0  0  0  0  0  0  0  0
  151.2576  144.8150  157.1781 H   0  0  0  0  0  0  0  0  0  0  0  0
  152.9894  144.5058  157.2984 H   0  0  0  0  0  0  0  0  0  0  0  0
  152.2294  145.6919  158.3564 H   0  0  0  0  0  0  0  0  0  0  0  0
  152.4911  142.0152  157.6412 H   0  0  0  0  0  0  0  0  0  0  0  0
  150.7621  142.2752  157.6062 H   0  0  0  0  0  0  0  0  0  0  0  0
  1  2  1  0  0  0  0
  1 22  1  0  0  0  0
  1 23  1  0  0  0  0
  1 24  1  0  0  0  0
  2 21  2  0  0  0  0
  2  3  1  0  0  0  0
  3  4  2  0  0  0  0
  3 25  1  0  0  0  0
  4  5  1  0  0  0  0
  4  6  1  0  0  0  0
  5 26  1  0  0  0  0
  5 27  1  0  0  0  0
  5 28  1  0  0  0  0
  6  7  1  0  0  0  0
  6 21  1  0  0  0  0
  7  8  1  0  0  0  0
  7 29  1  0  0  0  0
  7 30  1  0  0  0  0
  8  9  2  0  0  0  0
  8 10  1  0  0  0  0
 10 11  1  0  0  0  0
 10 31  1  0  0  0  0
 11 12  1  0  0  0  0
 11 32  1  0  0  0  0
 11 33  1  0  0  0  0
 12 13  1  0  0  0  0
 12 34  1  0  0  0  0
 12 35  1  0  0  0  0
 13 20  1  0  0  0  0
 13 14  1  0  0  0  0
 14 15  1  0  0  0  0
 14 36  1  0  0  0  0
 14 37  1  0  0  0  0
 15 16  1  0  0  0  0
 15 17  1  0  0  0  0
 15 38  1  0  0  0  0
 16 39  1  0  0  0  0
 16 40  1  0  0  0  0
 16 41  1  0  0  0  0
 17 18  1  0  0  0  0
 18 19  1  0  0  0  0
 18 20  1  0  0  0  0
 18 42  1  0  0  0  0
 19 43  1  0  0  0  0
 19 44  1  0  0  0  0
 19 45  1  0  0  0  0
 20 46  1  0  0  0  0
 20 47  1  0  0  0  0
M  END
> <s_m_source_file>
AV-unprocessed.smi

> <i_m_source_file_index>
2106

> <i_lp_mmshare_version>
43012

> <i_f3d_flags>
0

> <s_epik_input>
W0NIM11jMVtjSF1jKFtDSDNdKW4objEpW0NIMl1DKD1PKVtOSF1bQ0gyXVtDSDJdTjJbQ0gyXVtDQEBIXShbQ0gzXSlPW0NAQEhdKFtDSDNdKVtDSDJdMg==

> <s_epik_cmdline>
J2VwaWtfcHl0aG9uJywgJy1waCcsICc3LjAnLCAnLXRuJywgJzgnLCAnLW1hJywgJzIwMCcsICctbWV0YWxfYmluZGluZycsICctaW1hZScsICc8aW5maWxlLm1hZT4nLCAnLW9tYWUnLCAnPG91dGZpbGUubWFlPic=

> <r_lp_tautomer_probability>
1

> <r_epik_Ionization_Penalty>
0.197284

> <r_epik_Ionization_Penalty_Charging>
0

> <r_epik_Ionization_Penalty_Neutral>
0.197284

> <r_epik_State_Penalty>
0.186684

> <r_epik_Charging_Adjusted_Penalty>
0.186684

> <i_epik_Tot_Q>
0

> <i_epik_Tot_abs_Q>
0

> <r_epik_Metal_State_Penalty>
0.186634

> <b_epik_Metal_Only>
0

> <s_lp_Force_Field>
OPLS_2005

> <r_lp_Energy>
17.5566

> <b_lp_Chiralities_Consistent>
1

> <s_lp_Variant>
AV-unprocessed.smi:2106-1

> <Gold.Version>
5.8.1

> <Gold.Id.Protein>
6NUR|6NUR_protein|mol2

> <Gold.PLP.Fitness>
46.2860

> <Gold.PLP.PLP>
-39.7543

> <Gold.PLP.part.hbond>
-3.0000

> <Gold.PLP.part.metal>
0.0000

> <Gold.PLP.part.buried>
-4.8998

> <Gold.PLP.part.nonpolar>
-31.7698

> <Gold.PLP.part.repulsive>
0.2922

> <Gold.PLP.ligand.clash>
0.0000

> <Gold.PLP.ligand.torsion>
0.4137

> <Gold.PLP.Chemscore.Hbond>
2.4480

> <Gold.PLP.Chemscore.CHOScore>
0.0000

> <Gold.PLP.Chemscore.Metal>
0.0000

> <Gold.Chemscore.Hbonds>
donor molecule, donor type, donor heavy atom, donor atom, acceptor molecule, acceptor atom, score
      P1  H  7989  7998       L1     9  0.58
      P1  H  7997  8010       L1     9  0.76
      P1  H 10752 10764       L1    21  1.00

> <Gold.PLP.Chemscore.Internal.Correction>
0.0151

> <Gold.Rescore>
     Score         DG    S(hbond)    S(metal)    S(lipo)     H(rot)  DE(clash)    DE(int)     intcor
     17.69     -18.96       1.79        0.00     100.43       1.67       0.59       0.67       ----

> <Gold.Chemscore.Fitness>
17.6920

> <Gold.Chemscore.DG>
-18.9554

> <Gold.Chemscore.ZeroCoef>
-5.4800

> <Gold.Chemscore.Hbond>
1.7932

> <Gold.Chemscore.Metal>
0.0000

> <Gold.Chemscore.Lipo>
100.4275

> <Gold.Chemscore.Internal_Hbond>
0.0000

> <Gold.Chemscore.DEClash>
0.5912

> <Gold.Chemscore.DEInternal>
0.6723

> <Gold.Chemscore.Rot>
1.6657

> <Gold.Chemscore.Internal.Correction>
   9.000000E+99

> <Gold.Chemscore.Hbonds>
donor molecule, donor type, donor heavy atom, donor atom, acceptor molecule, acceptor atom, score
      P1  H  7989  7998       L1     9  0.54
      P1  H  7997  8010       L1     9  0.41
      P1  H 10752 10764       L1    21  0.33

> <Gold.Chemscore.Hbond.Weighted>
-5.9895

> <Gold.Chemscore.Metal.Weighted>
-0.0000

> <Gold.Chemscore.Lipo.Weighted>
-11.7500

> <Gold.Chemscore.Internal_Hbond.Weighted>
0.0000

> <Gold.Chemscore.DEClash.Weighted>
0.5912

> <Gold.Chemscore.DEInternal.Weighted>
0.6723

> <Gold.Chemscore.Rot.Weighted>
4.2641

> <Gold.Chemscore.Internal.Correction.Weighted>
   9.000000E+99

> <Gold.Protein.RotatedTorsions>
[ 6907 6896 6895 6894 ] final -107.86 input  -60.11 | X-H torsion
[ 7974 7965 7964 7962 ] final  130.46 input  175.53 | X-H torsion
[ 8008 7997 7996 7995 ] final   95.90 input   59.86 | X-H torsion
[ 10167 10162 10161 10158 ] final  175.92 input  -65.29 | X-H torsion
[ 10718 10713 10712 10709 ] final  -85.28 input   66.30 | X-H torsion
[ 10763 10752 10751 10750 ] final  -53.13 input  -60.55 | X-H torsion
[ 11005 11000 10999 10996 ] final  148.55 input  -57.11 | X-H torsion

> <Gold.Protein.ActiveResidues>
 VAL166  LYS551  ARG553  GLY616  TRP617  ASP618  TYR619  PRO620  LYS621  CYS622 
 ASP623  PHE694  ASN695  SER759  ASP760  ASP761  ALA762  ILE779  LEU786  VAL792 
 PHE793  MET794  SER795  GLU796  ALA797  LYS798  CYS799  TRP800  GLU811  SER814 

> <Gold.Protein.RotatedAtoms>
  150.7468  133.9764  159.3561 H   0  0  0  0  0  0  0  0  0  0  0  0  # atno 6907 bound_to 6896
  151.7702  135.0786  160.0368 H   0  0  0  0  0  0  0  0  0  0  0  0  # atno 6908 bound_to 6896
  152.3344  133.5958  159.5868 H   0  0  0  0  0  0  0  0  0  0  0  0  # atno 6909 bound_to 6896
  145.0177  139.4161  143.5213 H   0  0  0  0  0  0  0  0  0  0  0  0  # atno 7974 bound_to 7965
  156.0738  140.3280  155.7609 H   0  0  0  0  0  0  0  0  0  0  0  0  # atno 8008 bound_to 7997
  155.5263  140.0589  157.2915 H   0  0  0  0  0  0  0  0  0  0  0  0  # atno 8009 bound_to 7997
  154.4544  140.1935  156.0439 H   0  0  0  0  0  0  0  0  0  0  0  0  # atno 8010 bound_to 7997
  139.5195  144.2975  152.0408 H   0  0  0  0  0  0  0  0  0  0  0  0  # atno 10167 bound_to 10162
  155.9998  130.4726  150.4538 H   0  0  0  0  0  0  0  0  0  0  0  0  # atno 10718 bound_to 10713
  154.1538  135.6486  153.4969 H   0  0  0  0  0  0  0  0  0  0  0  0  # atno 10763 bound_to 10752
  153.0130  135.5344  154.6781 H   0  0  0  0  0  0  0  0  0  0  0  0  # atno 10764 bound_to 10752
  154.6076  135.2950  155.0439 H   0  0  0  0  0  0  0  0  0  0  0  0  # atno 10765 bound_to 10752
  140.0969  134.9007  157.1737 H   0  0  0  0  0  0  0  0  0  0  0  0  # atno 11005 bound_to 11000
  146.3480  139.9657  142.8712 LP  0  0  0  0  0  0  0  0  0  0  0  0  # atno 17320 bound_to 7965
  145.1938  140.9823  143.4195 LP  0  0  0  0  0  0  0  0  0  0  0  0  # atno 17321 bound_to 7965
  140.2424  144.4255  150.6254 LP  0  0  0  0  0  0  0  0  0  0  0  0  # atno 17342 bound_to 10162
  140.6281  143.2184  151.6553 LP  0  0  0  0  0  0  0  0  0  0  0  0  # atno 17343 bound_to 10162
  157.2569  131.0558  151.2345 LP  0  0  0  0  0  0  0  0  0  0  0  0  # atno 17370 bound_to 10713
  157.3473  130.7064  149.6419 LP  0  0  0  0  0  0  0  0  0  0  0  0  # atno 17371 bound_to 10713
  140.3273  134.2849  155.7234 LP  0  0  0  0  0  0  0  0  0  0  0  0  # atno 17394 bound_to 11000
  141.2095  133.7748  156.9995 LP  0  0  0  0  0  0  0  0  0  0  0  0  # atno 17395 bound_to 11000

$$$$
