AV-unprocessed.smi:2739|AV-procd|sdf|10552|dock10
  -GOLD-   2272015 03D 1   1.00000     0.00000
 Structure written by MMmdl.
 35 35  0  0  0  0  0  0  0  0  1 V2000
  151.5758  145.7936  159.6635 C   0  0  0  0  0  0  0  0  0  0  0  0
  151.5577  144.9398  158.3873 C   0  0  0  0  0  0  0  0  0  0  0  0
  151.0887  143.4885  158.6114 C   0  0  2  0  0  0  0  0  0  0  0  0
  151.9986  142.7468  159.6003 C   0  0  0  0  0  0  0  0  0  0  0  0
  151.0577  142.7525  157.3489 N   0  0  0  0  0  0  0  0  0  0  0  0
  150.4567  141.5703  157.1375 C   0  0  0  0  0  0  0  0  0  0  0  0
  149.8291  140.9576  158.0007 O   0  0  0  0  0  0  0  0  0  0  0  0
  150.5807  140.9896  155.7287 C   0  0  0  0  0  0  0  0  0  0  0  0
  149.3146  141.0607  155.0222 N   0  0  0  0  0  0  0  0  0  0  0  0
  149.0051  140.5789  153.7684 C   0  0  0  0  0  0  0  0  0  0  0  0
  147.6963  140.8843  153.5283 C   0  0  0  0  0  0  0  0  0  0  0  0
  147.2776  141.5659  154.7068 C   0  0  0  0  0  0  0  0  0  0  0  0
  145.9138  142.1329  155.0066 C   0  0  1  0  0  0  0  0  0  0  0  0
  145.5570  143.2814  154.0531 C   0  0  0  0  0  0  0  0  0  0  0  0
  144.8964  141.1544  154.9323 O   0  0  0  0  0  0  0  0  0  0  0  0
  148.2544  141.6661  155.5992 N   0  0  0  0  0  0  0  0  0  0  0  0
  151.9737  146.7874  159.4578 H   0  0  0  0  0  0  0  0  0  0  0  0
  152.2003  145.3381  160.4324 H   0  0  0  0  0  0  0  0  0  0  0  0
  150.5749  145.9207  160.0761 H   0  0  0  0  0  0  0  0  0  0  0  0
  150.9258  145.4219  157.6402 H   0  0  0  0  0  0  0  0  0  0  0  0
  152.5643  144.9273  157.9679 H   0  0  0  0  0  0  0  0  0  0  0  0
  150.0907  143.5188  159.0519 H   0  0  0  0  0  0  0  0  0  0  0  0
  152.0223  143.2516  160.5662 H   0  0  0  0  0  0  0  0  0  0  0  0
  153.0230  142.6869  159.2310 H   0  0  0  0  0  0  0  0  0  0  0  0
  151.6456  141.7290  159.7705 H   0  0  0  0  0  0  0  0  0  0  0  0
  151.5478  143.1712  156.5713 H   0  0  0  0  0  0  0  0  0  0  0  0
  151.3296  141.5436  155.1614 H   0  0  0  0  0  0  0  0  0  0  0  0
  150.9171  139.9525  155.7776 H   0  0  0  0  0  0  0  0  0  0  0  0
  149.7346  140.0660  153.1588 H   0  0  0  0  0  0  0  0  0  0  0  0
  147.1227  140.6555  152.6425 H   0  0  0  0  0  0  0  0  0  0  0  0
  145.9053  142.5191  156.0263 H   0  0  0  0  0  0  0  0  0  0  0  0
  146.2934  144.0833  154.1154 H   0  0  0  0  0  0  0  0  0  0  0  0
  144.5839  143.7085  154.2971 H   0  0  0  0  0  0  0  0  0  0  0  0
  145.5216  142.9424  153.0170 H   0  0  0  0  0  0  0  0  0  0  0  0
  144.6100  141.0901  154.0341 H   0  0  0  0  0  0  0  0  0  0  0  0
  1  2  1  0  0  0  0
  1 17  1  0  0  0  0
  1 18  1  0  0  0  0
  1 19  1  0  0  0  0
  2  3  1  0  0  0  0
  2 20  1  0  0  0  0
  2 21  1  0  0  0  0
  3  4  1  0  0  0  0
  3  5  1  0  0  0  0
  3 22  1  0  0  0  0
  4 23  1  0  0  0  0
  4 24  1  0  0  0  0
  4 25  1  0  0  0  0
  5  6  1  0  0  0  0
  5 26  1  0  0  0  0
  6  7  2  0  0  0  0
  6  8  1  0  0  0  0
  8  9  1  0  0  0  0
  8 27  1  0  0  0  0
  8 28  1  0  0  0  0
  9 16  1  0  0  0  0
  9 10  1  0  0  0  0
 10 11  2  0  0  0  0
 10 29  1  0  0  0  0
 11 12  1  0  0  0  0
 11 30  1  0  0  0  0
 12 13  1  0  0  0  0
 12 16  2  0  0  0  0
 13 14  1  0  0  0  0
 13 15  1  0  0  0  0
 13 31  1  0  0  0  0
 14 32  1  0  0  0  0
 14 33  1  0  0  0  0
 14 34  1  0  0  0  0
 15 35  1  0  0  0  0
M  END
> <s_m_source_file>
AV-unprocessed.smi

> <i_m_source_file_index>
2739

> <i_lp_mmshare_version>
43012

> <i_f3d_flags>
0

> <s_epik_input>
W0NIM11bQ0gyXVtDQEhdKFtDSDNdKVtOSF1DKD1PKVtDSDJdbjFbY0hdW2NIXWMobjEpW0NASF0oW0NIM10pW09IXQ==

> <s_epik_cmdline>
J2VwaWtfcHl0aG9uJywgJy1waCcsICc3LjAnLCAnLXRuJywgJzgnLCAnLW1hJywgJzIwMCcsICctbWV0YWxfYmluZGluZycsICctaW1hZScsICc8aW5maWxlLm1hZT4nLCAnLW9tYWUnLCAnPG91dGZpbGUubWFlPic=

> <r_lp_tautomer_probability>
1

> <r_epik_Ionization_Penalty>
5.22246e-06

> <r_epik_Ionization_Penalty_Charging>
0

> <r_epik_Ionization_Penalty_Neutral>
5.22246e-06

> <r_epik_State_Penalty>
-0

> <r_epik_Charging_Adjusted_Penalty>
0

> <i_epik_Tot_Q>
0

> <i_epik_Tot_abs_Q>
0

> <r_epik_Metal_State_Penalty>
-0

> <b_epik_Metal_Only>
0

> <s_lp_Force_Field>
OPLS_2005

> <r_lp_Energy>
1.64389

> <b_lp_Chiralities_Consistent>
1

> <s_lp_Variant>
AV-unprocessed.smi:2739-3

> <Gold.Version>
5.8.1

> <Gold.Id.Protein>
6NUR|6NUR_protein|mol2

> <Gold.PLP.Fitness>
40.6144

> <Gold.PLP.PLP>
-35.6647

> <Gold.PLP.part.hbond>
-1.0000

> <Gold.PLP.part.metal>
0.0000

> <Gold.PLP.part.buried>
-1.8303

> <Gold.PLP.part.nonpolar>
-33.9832

> <Gold.PLP.part.repulsive>
0.6201

> <Gold.PLP.ligand.clash>
0.0000

> <Gold.PLP.ligand.torsion>
0.3053

> <Gold.PLP.Chemscore.Hbond>
1.0000

> <Gold.PLP.Chemscore.CHOScore>
0.8424

> <Gold.PLP.Chemscore.Metal>
0.0000

> <Gold.Chemscore.Hbonds>
donor molecule, donor type, donor heavy atom, donor atom, acceptor molecule, acceptor atom, score
      L1  H    15    35       P1 10175  1.00
      L1  C    10    29       P1  7957  0.78

> <Gold.PLP.Chemscore.Internal.Correction>
0.0331

> <Gold.Rescore>
     Score         DG    S(hbond)    S(metal)    S(lipo)     H(rot)  DE(clash)    DE(int)     intcor
     10.62     -12.14       0.96        0.00      80.78       2.34       0.08       1.45       ----

> <Gold.Chemscore.Fitness>
10.6186

> <Gold.Chemscore.DG>
-12.1442

> <Gold.Chemscore.ZeroCoef>
-5.4800

> <Gold.Chemscore.Hbond>
0.9628

> <Gold.Chemscore.Metal>
0.0000

> <Gold.Chemscore.Lipo>
80.7790

> <Gold.Chemscore.Internal_Hbond>
0.0000

> <Gold.Chemscore.DEClash>
0.0787

> <Gold.Chemscore.DEInternal>
1.4469

> <Gold.Chemscore.Rot>
2.3448

> <Gold.Chemscore.Internal.Correction>
   9.000000E+99

> <Gold.Chemscore.Hbonds>
donor molecule, donor type, donor heavy atom, donor atom, acceptor molecule, acceptor atom, score
      L1  H    15    35       P1 10175  0.78

> <Gold.Chemscore.Hbond.Weighted>
-3.2158

> <Gold.Chemscore.Metal.Weighted>
-0.0000

> <Gold.Chemscore.Lipo.Weighted>
-9.4511

> <Gold.Chemscore.Internal_Hbond.Weighted>
0.0000

> <Gold.Chemscore.DEClash.Weighted>
0.0787

> <Gold.Chemscore.DEInternal.Weighted>
1.4469

> <Gold.Chemscore.Rot.Weighted>
6.0027

> <Gold.Chemscore.Internal.Correction.Weighted>
   9.000000E+99

> <Gold.Protein.RotatedTorsions>
[ 6907 6896 6895 6894 ] final  137.57 input  -60.11 | X-H torsion
[ 7974 7965 7964 7962 ] final  158.93 input  175.53 | X-H torsion
[ 8008 7997 7996 7995 ] final  -48.31 input   59.86 | X-H torsion
[ 10167 10162 10161 10158 ] final  151.02 input  -65.29 | X-H torsion
[ 10718 10713 10712 10709 ] final  -43.03 input   66.30 | X-H torsion
[ 10763 10752 10751 10750 ] final -172.28 input  -60.55 | X-H torsion
[ 11005 11000 10999 10996 ] final  160.11 input  -57.11 | X-H torsion

> <Gold.Protein.ActiveResidues>
 VAL166  LYS551  ARG553  GLY616  TRP617  ASP618  TYR619  PRO620  LYS621  CYS622 
 ASP623  PHE694  ASN695  SER759  ASP760  ASP761  ALA762  ILE779  LEU786  VAL792 
 PHE793  MET794  SER795  GLU796  ALA797  LYS798  CYS799  TRP800  GLU811  SER814 

> <Gold.Protein.RotatedAtoms>
  152.2765  133.5431  159.5471 H   0  0  0  0  0  0  0  0  0  0  0  0  # atno 6907 bound_to 6896
  150.7179  134.0624  159.3845 H   0  0  0  0  0  0  0  0  0  0  0  0  # atno 6908 bound_to 6896
  151.8536  135.0549  160.0512 H   0  0  0  0  0  0  0  0  0  0  0  0  # atno 6909 bound_to 6896
  144.7818  139.7547  143.6256 H   0  0  0  0  0  0  0  0  0  0  0  0  # atno 7974 bound_to 7965
  154.4027  140.1324  156.4318 H   0  0  0  0  0  0  0  0  0  0  0  0  # atno 8008 bound_to 7997
  155.7543  140.3487  155.5146 H   0  0  0  0  0  0  0  0  0  0  0  0  # atno 8009 bound_to 7997
  155.8919  140.1004  157.1402 H   0  0  0  0  0  0  0  0  0  0  0  0  # atno 8010 bound_to 7997
  139.4844  144.5475  151.7459 H   0  0  0  0  0  0  0  0  0  0  0  0  # atno 10167 bound_to 10162
  156.2533  130.4190  149.8625 H   0  0  0  0  0  0  0  0  0  0  0  0  # atno 10718 bound_to 10713
  154.6211  135.2875  155.0325 H   0  0  0  0  0  0  0  0  0  0  0  0  # atno 10763 bound_to 10752
  154.1520  135.6502  153.4969 H   0  0  0  0  0  0  0  0  0  0  0  0  # atno 10764 bound_to 10752
  153.0236  135.5358  154.7001 H   0  0  0  0  0  0  0  0  0  0  0  0  # atno 10765 bound_to 10752
  140.2027  134.8326  157.3036 H   0  0  0  0  0  0  0  0  0  0  0  0  # atno 11005 bound_to 11000
  146.2030  139.5337  142.9731 LP  0  0  0  0  0  0  0  0  0  0  0  0  # atno 17320 bound_to 7965
  145.6029  141.0352  143.2008 LP  0  0  0  0  0  0  0  0  0  0  0  0  # atno 17321 bound_to 7965
  140.5023  144.1149  150.5974 LP  0  0  0  0  0  0  0  0  0  0  0  0  # atno 17342 bound_to 10162
  140.4047  143.2686  151.9905 LP  0  0  0  0  0  0  0  0  0  0  0  0  # atno 17343 bound_to 10162
  156.6166  130.8609  151.3466 LP  0  0  0  0  0  0  0  0  0  0  0  0  # atno 17370 bound_to 10713
  157.7223  130.9574  150.1488 LP  0  0  0  0  0  0  0  0  0  0  0  0  # atno 17371 bound_to 10713
  140.2036  134.4224  155.7649 LP  0  0  0  0  0  0  0  0  0  0  0  0  # atno 17394 bound_to 11000
  141.2227  133.7084  156.8224 LP  0  0  0  0  0  0  0  0  0  0  0  0  # atno 17395 bound_to 11000

$$$$
