AV-unprocessed.smi:2243|AV-procd|sdf|9071|dock5
  -GOLD-   2272012273D 1   1.00000     0.00000
 Structure written by MMmdl.
 33 34  0  0  0  0  0  0  0  0  2 V2000
  152.7748  144.5521  158.9043 C   0  0  0  0  0  0  0  0  0  0  0  0
  151.8269  143.4063  159.2987 C   0  0  1  0  0  0  0  0  0  0  0  0
  151.7528  142.4791  158.1674 N   0  0  0  0  0  0  0  0  0  0  0  0
  150.6447  142.0695  157.5299 C   0  0  0  0  0  0  0  0  0  0  0  0
  149.5361  142.4651  157.8973 O   0  0  0  0  0  0  0  0  0  0  0  0
  150.8912  141.2185  156.5085 N   0  5  0  0  0  0  0  0  0  0  0  0
  149.9610  141.0268  155.5592 C   0  0  0  0  0  0  0  0  0  0  0  0
  150.0438  140.1834  154.5288 N   0  0  0  0  0  0  0  0  0  0  0  0
  148.8572  140.3257  153.8262 C   0  0  0  0  0  0  0  0  0  0  0  0
  148.0934  141.2561  154.4763 C   0  0  0  0  0  0  0  0  0  0  0  0
  148.7770  141.7024  155.5733 O   0  0  0  0  0  0  0  0  0  0  0  0
  152.2666  142.6650  160.5907 C   0  0  0  0  0  0  0  0  0  0  0  0
  152.5791  143.6279  161.7562 C   0  0  0  0  0  0  0  0  0  0  0  0
  153.0769  142.8655  162.9943 C   0  0  0  0  0  0  0  0  0  0  0  0
  154.2263  142.0959  162.6635 O   0  0  0  0  0  0  0  0  0  0  0  0
  153.9557  141.1053  161.6799 C   0  0  0  0  0  0  0  0  0  0  0  0
  153.5030  141.7697  160.3692 C   0  0  0  0  0  0  0  0  0  0  0  0
  152.7701  145.3543  159.6413 H   0  0  0  0  0  0  0  0  0  0  0  0
  152.4748  144.9953  157.9541 H   0  0  0  0  0  0  0  0  0  0  0  0
  153.8009  144.1996  158.7958 H   0  0  0  0  0  0  0  0  0  0  0  0
  150.8460  143.8495  159.4778 H   0  0  0  0  0  0  0  0  0  0  0  0
  152.6317  142.1197  157.8250 H   0  0  0  0  0  0  0  0  0  0  0  0
  148.6521  139.7592  152.9300 H   0  0  0  0  0  0  0  0  0  0  0  0
  147.1161  141.6812  154.3049 H   0  0  0  0  0  0  0  0  0  0  0  0
  151.4424  142.0227  160.9057 H   0  0  0  0  0  0  0  0  0  0  0  0
  153.3364  144.3492  161.4461 H   0  0  0  0  0  0  0  0  0  0  0  0
  151.6957  144.2040  162.0316 H   0  0  0  0  0  0  0  0  0  0  0  0
  153.3404  143.5682  163.7849 H   0  0  0  0  0  0  0  0  0  0  0  0
  152.2940  142.2186  163.3930 H   0  0  0  0  0  0  0  0  0  0  0  0
  154.8619  140.5238  161.5102 H   0  0  0  0  0  0  0  0  0  0  0  0
  153.1975  140.4110  162.0456 H   0  0  0  0  0  0  0  0  0  0  0  0
  153.2905  140.9896  159.6391 H   0  0  0  0  0  0  0  0  0  0  0  0
  154.3223  142.3645  159.9632 H   0  0  0  0  0  0  0  0  0  0  0  0
  1  2  1  0  0  0  0
  1 18  1  0  0  0  0
  1 19  1  0  0  0  0
  1 20  1  0  0  0  0
  2  3  1  0  0  0  0
  2 12  1  0  0  0  0
  2 21  1  0  0  0  0
  3 22  1  0  0  0  0
  3  4  1  0  0  0  0
  4  6  1  0  0  0  0
  4  5  2  0  0  0  0
  6  7  1  0  0  0  0
  7 11  1  0  0  0  0
  7  8  2  0  0  0  0
  8  9  1  0  0  0  0
  9 23  1  0  0  0  0
  9 10  2  0  0  0  0
 10 24  1  0  0  0  0
 10 11  1  0  0  0  0
 12 17  1  0  0  0  0
 12 13  1  0  0  0  0
 12 25  1  0  0  0  0
 13 14  1  0  0  0  0
 13 26  1  0  0  0  0
 13 27  1  0  0  0  0
 14 15  1  0  0  0  0
 14 28  1  0  0  0  0
 14 29  1  0  0  0  0
 15 16  1  0  0  0  0
 16 17  1  0  0  0  0
 16 30  1  0  0  0  0
 16 31  1  0  0  0  0
 17 32  1  0  0  0  0
 17 33  1  0  0  0  0
M  CHG  1   6  -1
M  END
> <s_m_source_file>
AV-unprocessed.smi

> <i_m_source_file_index>
2243

> <i_lp_mmshare_version>
43012

> <i_f3d_flags>
0

> <s_epik_input>
W0NIMl0xW0NIMl1PW0NIMl1bQ0gyXVtDSF0xW0NASF0oW0NIM10pW05IXUMoPU8pW05IXWMybltjSF1bY0hdbzI=

> <s_epik_cmdline>
J2VwaWtfcHl0aG9uJywgJy1waCcsICc3LjAnLCAnLXRuJywgJzgnLCAnLW1hJywgJzIwMCcsICctbWV0YWxfYmluZGluZycsICctaW1hZScsICc8aW5maWxlLm1hZT4nLCAnLW9tYWUnLCAnPG91dGZpbGUubWFlPic=

> <r_lp_tautomer_probability>
0.107061

> <r_epik_Ionization_Penalty>
11.1403

> <r_epik_Ionization_Penalty_Charging>
7.81312

> <r_epik_Ionization_Penalty_Neutral>
3.32719

> <r_epik_State_Penalty>
5.94317

> <r_epik_Charging_Adjusted_Penalty>
13.7563

> <i_epik_Tot_Q>
-1

> <i_epik_Tot_abs_Q>
1

> <r_epik_Metal_State_Penalty>
1.86619

> <b_epik_Metal_Only>
1

> <s_lp_Force_Field>
OPLS_2005

> <r_lp_Energy>
6.4903

> <b_lp_Chiralities_Consistent>
1

> <s_lp_Variant>
AV-unprocessed.smi:2243-10

> <Gold.Version>
5.8.1

> <Gold.Id.Protein>
6NUR|6NUR_protein|mol2

> <Gold.PLP.Fitness>
42.3453

> <Gold.PLP.PLP>
-37.2009

> <Gold.PLP.part.hbond>
-2.0000

> <Gold.PLP.part.metal>
0.0000

> <Gold.PLP.part.buried>
-1.9700

> <Gold.PLP.part.nonpolar>
-33.7680

> <Gold.PLP.part.repulsive>
1.0966

> <Gold.PLP.ligand.clash>
0.0000

> <Gold.PLP.ligand.torsion>
0.2533

> <Gold.PLP.Chemscore.Hbond>
1.0000

> <Gold.PLP.Chemscore.CHOScore>
0.8780

> <Gold.PLP.Chemscore.Metal>
0.0000

> <Gold.Chemscore.Hbonds>
donor molecule, donor type, donor heavy atom, donor atom, acceptor molecule, acceptor atom, score
      P1  H  7989  7998       L1     8  1.00
      L1  C     9    23       P1  7957  0.89

> <Gold.PLP.Chemscore.Internal.Correction>
0.0171

> <Gold.Rescore>
     Score         DG    S(hbond)    S(metal)    S(lipo)     H(rot)  DE(clash)    DE(int)     intcor
     12.62     -15.73       0.79        0.00      93.72       1.31       1.02       2.09       ----

> <Gold.Chemscore.Fitness>
12.6211

> <Gold.Chemscore.DG>
-15.7342

> <Gold.Chemscore.ZeroCoef>
-5.4800

> <Gold.Chemscore.Hbond>
0.7883

> <Gold.Chemscore.Metal>
0.0000

> <Gold.Chemscore.Lipo>
93.7230

> <Gold.Chemscore.Internal_Hbond>
0.0000

> <Gold.Chemscore.DEClash>
1.0187

> <Gold.Chemscore.DEInternal>
2.0944

> <Gold.Chemscore.Rot>
1.3063

> <Gold.Chemscore.Internal.Correction>
   9.000000E+99

> <Gold.Chemscore.Hbonds>
donor molecule, donor type, donor heavy atom, donor atom, acceptor molecule, acceptor atom, score
      P1  H  7989  7998       L1     8  0.30

> <Gold.Chemscore.Hbond.Weighted>
-2.6329

> <Gold.Chemscore.Metal.Weighted>
-0.0000

> <Gold.Chemscore.Lipo.Weighted>
-10.9656

> <Gold.Chemscore.Internal_Hbond.Weighted>
0.0000

> <Gold.Chemscore.DEClash.Weighted>
1.0187

> <Gold.Chemscore.DEInternal.Weighted>
2.0944

> <Gold.Chemscore.Rot.Weighted>
3.3443

> <Gold.Chemscore.Internal.Correction.Weighted>
   9.000000E+99

> <Gold.Protein.RotatedTorsions>
[ 6907 6896 6895 6894 ] final   32.57 input  -60.11 | X-H torsion
[ 7974 7965 7964 7962 ] final   78.74 input  175.53 | X-H torsion
[ 8008 7997 7996 7995 ] final  121.34 input   59.86 | X-H torsion
[ 10167 10162 10161 10158 ] final -107.19 input  -65.29 | X-H torsion
[ 10718 10713 10712 10709 ] final   -6.02 input   66.30 | X-H torsion
[ 10763 10752 10751 10750 ] final    1.89 input  -60.55 | X-H torsion
[ 11005 11000 10999 10996 ] final   90.06 input  -57.11 | X-H torsion

> <Gold.Protein.ActiveResidues>
 VAL166  LYS551  ARG553  GLY616  TRP617  ASP618  TYR619  PRO620  LYS621  CYS622 
 ASP623  PHE694  ASN695  SER759  ASP760  ASP761  ALA762  ILE779  LEU786  VAL792 
 PHE793  MET794  SER795  GLU796  ALA797  LYS798  CYS799  TRP800  GLU811  SER814 

> <Gold.Protein.RotatedAtoms>
  152.0763  134.9501  160.0573 H   0  0  0  0  0  0  0  0  0  0  0  0  # atno 6907 bound_to 6896
  152.0807  133.4146  159.4508 H   0  0  0  0  0  0  0  0  0  0  0  0  # atno 6908 bound_to 6896
  150.6836  134.2905  159.4708 H   0  0  0  0  0  0  0  0  0  0  0  0  # atno 6909 bound_to 6896
  145.6732  139.2502  143.1856 H   0  0  0  0  0  0  0  0  0  0  0  0  # atno 7974 bound_to 7965
  156.2682  140.2810  156.1293 H   0  0  0  0  0  0  0  0  0  0  0  0  # atno 8008 bound_to 7997
  155.1071  140.0390  157.2731 H   0  0  0  0  0  0  0  0  0  0  0  0  # atno 8009 bound_to 7997
  154.6771  140.2600  155.6953 H   0  0  0  0  0  0  0  0  0  0  0  0  # atno 8010 bound_to 7997
  140.1797  143.3977  152.1291 H   0  0  0  0  0  0  0  0  0  0  0  0  # atno 10167 bound_to 10162
  156.7380  130.5200  149.5830 H   0  0  0  0  0  0  0  0  0  0  0  0  # atno 10718 bound_to 10713
  153.3024  135.6957  153.7191 H   0  0  0  0  0  0  0  0  0  0  0  0  # atno 10763 bound_to 10752
  153.6100  135.3446  155.2976 H   0  0  0  0  0  0  0  0  0  0  0  0  # atno 10764 bound_to 10752
  154.8554  135.4361  154.2139 H   0  0  0  0  0  0  0  0  0  0  0  0  # atno 10765 bound_to 10752
  139.8863  134.8590  156.3231 H   0  0  0  0  0  0  0  0  0  0  0  0  # atno 11005 bound_to 11000
  146.1027  140.7524  142.9541 LP  0  0  0  0  0  0  0  0  0  0  0  0  # atno 17320 bound_to 7965
  144.7050  140.3813  143.7125 LP  0  0  0  0  0  0  0  0  0  0  0  0  # atno 17321 bound_to 7965
  139.5301  144.7149  151.5085 LP  0  0  0  0  0  0  0  0  0  0  0  0  # atno 17342 bound_to 10162
  140.6528  143.8662  150.6803 LP  0  0  0  0  0  0  0  0  0  0  0  0  # atno 17343 bound_to 10162
  156.1484  130.6293  151.0562 LP  0  0  0  0  0  0  0  0  0  0  0  0  # atno 17370 bound_to 10713
  157.6831  131.0832  150.7317 LP  0  0  0  0  0  0  0  0  0  0  0  0  # atno 17371 bound_to 10713
  140.9773  133.7289  156.0621 LP  0  0  0  0  0  0  0  0  0  0  0  0  # atno 17394 bound_to 11000
  140.7794  134.3742  157.5490 LP  0  0  0  0  0  0  0  0  0  0  0  0  # atno 17395 bound_to 11000

$$$$
