AV-unprocessed.smi:19|AV-procd|sdf|112|dock2
  -GOLD-   2262015273D 1   1.00000     0.00000
 Structure written by MMmdl.
 57 60  0  0  0  0  0  0  0  0  1 V2000
  147.3231  141.6923  153.7287 C   0  0  0  0  0  0  0  0  0  0  0  0
  148.6753  141.9885  154.0304 O   0  0  0  0  0  0  0  0  0  0  0  0
  148.9985  141.7323  155.3880 C   0  0  0  0  0  0  0  0  0  0  0  0
  149.5312  140.3009  155.5433 C   0  0  1  0  0  0  0  0  0  0  0  0
  148.5990  139.2410  154.9277 C   0  0  0  0  0  0  0  0  0  0  0  0
  149.2092  137.9203  155.0239 N   0  0  0  0  0  0  0  0  0  0  0  0
  148.3648  136.8816  154.7961 C   0  0  0  0  0  0  0  0  0  0  0  0
  148.6537  135.6488  155.2931 N   0  0  0  0  0  0  0  0  0  0  0  0
  147.8360  134.6179  155.0623 C   0  0  0  0  0  0  0  0  0  0  0  0
  146.6925  134.5983  154.3761 N   0  0  0  0  0  0  0  0  0  0  0  0
  146.3861  135.8335  153.8869 C   0  0  0  0  0  0  0  0  0  0  0  0
  147.1617  137.0174  154.0462 C   0  0  0  0  0  0  0  0  0  0  0  0
  146.5324  138.0816  153.4117 N   0  0  0  0  0  0  0  0  0  0  0  0
  145.4562  137.5547  152.8959 C   0  0  0  0  0  0  0  0  0  0  0  0
  145.2789  136.2120  153.1459 N   0  0  0  0  0  0  0  0  0  0  0  0
  144.1731  135.3798  152.6895 C   0  0  0  0  0  0  0  0  0  0  0  0
  144.5412  134.3374  151.5913 C   0  0  0  0  0  0  0  0  0  0  0  0
  144.9457  135.0519  150.2699 C   0  0  0  0  0  0  0  0  0  0  0  0
  143.8223  135.4308  149.5005 O   0  0  0  0  0  0  0  0  0  0  0  0
  145.7135  133.4468  152.0774 C   0  0  0  0  0  0  0  0  0  0  0  0
  145.9249  132.1940  151.2062 C   0  0  0  0  0  0  0  0  0  0  0  0
  144.7215  131.4418  151.1253 O   0  0  0  0  0  0  0  0  0  0  0  0
  143.6584  132.1682  150.5230 C   0  0  0  0  0  0  0  0  0  0  0  0
  143.3232  133.4027  151.3780 C   0  0  0  0  0  0  0  0  0  0  0  0
  150.5422  137.8650  154.4286 C   0  0  0  0  0  0  0  0  0  0  0  0
  151.4569  138.9514  155.0273 C   0  0  2  0  0  0  0  0  0  0  0  0
  151.9331  138.6310  156.4550 C   0  0  0  0  0  0  0  0  0  0  0  0
  150.8254  140.2310  154.9451 O   0  0  0  0  0  0  0  0  0  0  0  0
  147.1279  141.8999  152.6767 H   0  0  0  0  0  0  0  0  0  0  0  0
  146.6433  142.3035  154.3238 H   0  0  0  0  0  0  0  0  0  0  0  0
  147.0994  140.6403  153.9110 H   0  0  0  0  0  0  0  0  0  0  0  0
  149.7441  142.4463  155.7413 H   0  0  0  0  0  0  0  0  0  0  0  0
  148.1079  141.8609  156.0052 H   0  0  0  0  0  0  0  0  0  0  0  0
  149.6282  140.1085  156.6119 H   0  0  0  0  0  0  0  0  0  0  0  0
  147.6322  139.2747  155.4279 H   0  0  0  0  0  0  0  0  0  0  0  0
  148.4167  139.4612  153.8750 H   0  0  0  0  0  0  0  0  0  0  0  0
  148.1418  133.6735  155.4877 H   0  0  0  0  0  0  0  0  0  0  0  0
  144.7529  138.1380  152.3196 H   0  0  0  0  0  0  0  0  0  0  0  0
  143.7670  134.8708  153.5645 H   0  0  0  0  0  0  0  0  0  0  0  0
  143.3750  136.0353  152.3388 H   0  0  0  0  0  0  0  0  0  0  0  0
  145.5407  135.9417  150.4755 H   0  0  0  0  0  0  0  0  0  0  0  0
  145.5677  134.4167  149.6419 H   0  0  0  0  0  0  0  0  0  0  0  0
  143.0754  134.9305  149.7919 H   0  0  0  0  0  0  0  0  0  0  0  0
  146.6417  134.0179  152.1128 H   0  0  0  0  0  0  0  0  0  0  0  0
  145.5187  133.1184  153.0994 H   0  0  0  0  0  0  0  0  0  0  0  0
  146.2745  132.4531  150.2065 H   0  0  0  0  0  0  0  0  0  0  0  0
  146.6966  131.5638  151.6481 H   0  0  0  0  0  0  0  0  0  0  0  0
  143.9173  132.4446  149.5004 H   0  0  0  0  0  0  0  0  0  0  0  0
  142.7869  131.5168  150.4574 H   0  0  0  0  0  0  0  0  0  0  0  0
  142.9618  133.0506  152.3451 H   0  0  0  0  0  0  0  0  0  0  0  0
  142.4891  133.9462  150.9332 H   0  0  0  0  0  0  0  0  0  0  0  0
  150.9877  136.8809  154.5809 H   0  0  0  0  0  0  0  0  0  0  0  0
  150.4541  138.0156  153.3517 H   0  0  0  0  0  0  0  0  0  0  0  0
  152.3495  139.0135  154.4042 H   0  0  0  0  0  0  0  0  0  0  0  0
  152.5314  137.7196  156.4662 H   0  0  0  0  0  0  0  0  0  0  0  0
  151.1025  138.4797  157.1437 H   0  0  0  0  0  0  0  0  0  0  0  0
  152.5529  139.4369  156.8482 H   0  0  0  0  0  0  0  0  0  0  0  0
  1  2  1  0  0  0  0
  1 29  1  0  0  0  0
  1 30  1  0  0  0  0
  1 31  1  0  0  0  0
  2  3  1  0  0  0  0
  3  4  1  0  0  0  0
  3 32  1  0  0  0  0
  3 33  1  0  0  0  0
  4 28  1  0  0  0  0
  4  5  1  0  0  0  0
  4 34  1  0  0  0  0
  5  6  1  0  0  0  0
  5 35  1  0  0  0  0
  5 36  1  0  0  0  0
  6  7  1  0  0  0  0
  6 25  1  0  0  0  0
  7 12  1  0  0  0  0
  7  8  2  0  0  0  0
  8  9  1  0  0  0  0
  9 10  2  0  0  0  0
  9 37  1  0  0  0  0
 10 11  1  0  0  0  0
 11 15  1  0  0  0  0
 11 12  2  0  0  0  0
 12 13  1  0  0  0  0
 13 14  2  0  0  0  0
 14 15  1  0  0  0  0
 14 38  1  0  0  0  0
 15 16  1  0  0  0  0
 16 17  1  0  0  0  0
 16 39  1  0  0  0  0
 16 40  1  0  0  0  0
 17 24  1  0  0  0  0
 17 18  1  0  0  0  0
 17 20  1  0  0  0  0
 18 19  1  0  0  0  0
 18 41  1  0  0  0  0
 18 42  1  0  0  0  0
 19 43  1  0  0  0  0
 20 21  1  0  0  0  0
 20 44  1  0  0  0  0
 20 45  1  0  0  0  0
 21 22  1  0  0  0  0
 21 46  1  0  0  0  0
 21 47  1  0  0  0  0
 22 23  1  0  0  0  0
 23 24  1  0  0  0  0
 23 48  1  0  0  0  0
 23 49  1  0  0  0  0
 24 50  1  0  0  0  0
 24 51  1  0  0  0  0
 25 26  1  0  0  0  0
 25 52  1  0  0  0  0
 25 53  1  0  0  0  0
 26 27  1  0  0  0  0
 26 28  1  0  0  0  0
 26 54  1  0  0  0  0
 27 55  1  0  0  0  0
 27 56  1  0  0  0  0
 27 57  1  0  0  0  0
M  END
> <s_m_source_file>
AV-unprocessed.smi

> <i_m_source_file_index>
19

> <i_lp_mmshare_version>
43012

> <i_f3d_flags>
0

> <s_epik_input>
W0NIM11PW0NIMl1bQ0BASF0xW0NIMl1OKFtDSDJdW0NASF0oTzEpW0NIM10pYyhuW2NIXW4yKWMoYzIzKW5bY0hdbjNbQ0gyXUM0KFtDSDJdW09IXSlbQ0gyXVtDSDJdT1tDSDJdW0NIMl00

> <s_epik_cmdline>
J2VwaWtfcHl0aG9uJywgJy1waCcsICc3LjAnLCAnLXRuJywgJzgnLCAnLW1hJywgJzIwMCcsICctbWV0YWxfYmluZGluZycsICctaW1hZScsICc8aW5maWxlLm1hZT4nLCAnLW9tYWUnLCAnPG91dGZpbGUubWFlPic=

> <r_lp_tautomer_probability>
1

> <r_epik_Ionization_Penalty>
6.20357e-05

> <r_epik_Ionization_Penalty_Charging>
0

> <r_epik_Ionization_Penalty_Neutral>
6.20357e-05

> <r_epik_State_Penalty>
-0

> <r_epik_Charging_Adjusted_Penalty>
0

> <i_epik_Tot_Q>
0

> <i_epik_Tot_abs_Q>
0

> <r_epik_Metal_State_Penalty>
-0

> <b_epik_Metal_Only>
0

> <s_lp_Force_Field>
OPLS_2005

> <r_lp_Energy>
39.077

> <b_lp_Chiralities_Consistent>
1

> <s_lp_Variant>
AV-unprocessed.smi:19-4

> <Gold.Version>
5.8.1

> <Gold.Id.Protein>
6NUR|6NUR_protein|mol2

> <Gold.PLP.Fitness>
40.8191

> <Gold.PLP.PLP>
-31.7930

> <Gold.PLP.part.hbond>
-4.1572

> <Gold.PLP.part.metal>
0.0000

> <Gold.PLP.part.buried>
2.2425

> <Gold.PLP.part.nonpolar>
-30.3455

> <Gold.PLP.part.repulsive>
0.9491

> <Gold.PLP.ligand.clash>
0.0000

> <Gold.PLP.ligand.torsion>
1.0839

> <Gold.PLP.Chemscore.Hbond>
2.0936

> <Gold.PLP.Chemscore.CHOScore>
1.5290

> <Gold.PLP.Chemscore.Metal>
0.0000

> <Gold.Chemscore.Hbonds>
donor molecule, donor type, donor heavy atom, donor atom, acceptor molecule, acceptor atom, score
      L1  H    19    43       P1 10186  0.73
      P1  H  7989  7998       L1    28  1.00
      P1  H  8011  8017       L1     2  0.38
      L1  C    14    38       P1 10171  0.60
      L1  C    14    38       P1 10175  0.95

> <Gold.PLP.Chemscore.Internal.Correction>
0.3261

> <Gold.Rescore>
     Score         DG    S(hbond)    S(metal)    S(lipo)     H(rot)  DE(clash)    DE(int)     intcor
      7.37     -16.00       2.05        0.00      94.38       2.87       3.85       4.79       ----

> <Gold.Chemscore.Fitness>
7.3656

> <Gold.Chemscore.DG>
-16.0049

> <Gold.Chemscore.ZeroCoef>
-5.4800

> <Gold.Chemscore.Hbond>
2.0468

> <Gold.Chemscore.Metal>
0.0000

> <Gold.Chemscore.Lipo>
94.3850

> <Gold.Chemscore.Internal_Hbond>
0.0000

> <Gold.Chemscore.DEClash>
3.8533

> <Gold.Chemscore.DEInternal>
4.7860

> <Gold.Chemscore.Rot>
2.8729

> <Gold.Chemscore.Internal.Correction>
   9.000000E+99

> <Gold.Chemscore.Hbonds>
donor molecule, donor type, donor heavy atom, donor atom, acceptor molecule, acceptor atom, score
      L1  H    19    43       P1 10186  0.42
      P1  H  7989  7998       L1    28  0.25
      P1  H  8011  8017       L1     2  0.30

> <Gold.Chemscore.Hbond.Weighted>
-6.8365

> <Gold.Chemscore.Metal.Weighted>
-0.0000

> <Gold.Chemscore.Lipo.Weighted>
-11.0430

> <Gold.Chemscore.Internal_Hbond.Weighted>
0.0000

> <Gold.Chemscore.DEClash.Weighted>
3.8533

> <Gold.Chemscore.DEInternal.Weighted>
4.7860

> <Gold.Chemscore.Rot.Weighted>
7.3546

> <Gold.Chemscore.Internal.Correction.Weighted>
   9.000000E+99

> <Gold.Protein.RotatedTorsions>
[ 6907 6896 6895 6894 ] final -108.16 input  -60.11 | X-H torsion
[ 7974 7965 7964 7962 ] final  -42.20 input  175.53 | X-H torsion
[ 8008 7997 7996 7995 ] final -162.33 input   59.86 | X-H torsion
[ 10167 10162 10161 10158 ] final  127.07 input  -65.29 | X-H torsion
[ 10718 10713 10712 10709 ] final  -99.25 input   66.30 | X-H torsion
[ 10763 10752 10751 10750 ] final  -36.76 input  -60.55 | X-H torsion
[ 11005 11000 10999 10996 ] final -161.54 input  -57.11 | X-H torsion

> <Gold.Protein.ActiveResidues>
 VAL166  LYS551  ARG553  GLY616  TRP617  ASP618  TYR619  PRO620  LYS621  CYS622 
 ASP623  PHE694  ASN695  SER759  ASP760  ASP761  ALA762  ILE779  LEU786  VAL792 
 PHE793  MET794  SER795  GLU796  ALA797  LYS798  CYS799  TRP800  GLU811  SER814 

> <Gold.Protein.RotatedAtoms>
  150.7485  133.9719  159.3548 H   0  0  0  0  0  0  0  0  0  0  0  0  # atno 6907 bound_to 6896
  151.7653  135.0798  160.0361 H   0  0  0  0  0  0  0  0  0  0  0  0  # atno 6908 bound_to 6896
  152.3376  133.5992  159.5889 H   0  0  0  0  0  0  0  0  0  0  0  0  # atno 6909 bound_to 6896
  146.0139  140.6931  142.9211 H   0  0  0  0  0  0  0  0  0  0  0  0  # atno 7974 bound_to 7965
  155.8052  140.0897  157.1935 H   0  0  0  0  0  0  0  0  0  0  0  0  # atno 8008 bound_to 7997
  154.3981  140.1465  156.3380 H   0  0  0  0  0  0  0  0  0  0  0  0  # atno 8009 bound_to 7997
  155.8422  140.3438  155.5642 H   0  0  0  0  0  0  0  0  0  0  0  0  # atno 8010 bound_to 7997
  139.5597  144.6873  151.4078 H   0  0  0  0  0  0  0  0  0  0  0  0  # atno 10167 bound_to 10162
  156.0129  130.5274  150.6642 H   0  0  0  0  0  0  0  0  0  0  0  0  # atno 10718 bound_to 10713
  153.8851  135.6818  153.4764 H   0  0  0  0  0  0  0  0  0  0  0  0  # atno 10763 bound_to 10752
  153.1212  135.4739  154.9196 H   0  0  0  0  0  0  0  0  0  0  0  0  # atno 10764 bound_to 10752
  154.7650  135.3221  154.8257 H   0  0  0  0  0  0  0  0  0  0  0  0  # atno 10765 bound_to 10752
  140.6192  134.4768  157.5222 H   0  0  0  0  0  0  0  0  0  0  0  0  # atno 11005 bound_to 11000
  144.6963  140.3446  143.7193 LP  0  0  0  0  0  0  0  0  0  0  0  0  # atno 17320 bound_to 7965
  145.7299  139.1733  143.2436 LP  0  0  0  0  0  0  0  0  0  0  0  0  # atno 17321 bound_to 7965
  140.6875  143.7938  150.7208 LP  0  0  0  0  0  0  0  0  0  0  0  0  # atno 17342 bound_to 10162
  140.1411  143.4441  152.2193 LP  0  0  0  0  0  0  0  0  0  0  0  0  # atno 17343 bound_to 10162
  157.4378  131.0857  151.0974 LP  0  0  0  0  0  0  0  0  0  0  0  0  # atno 17370 bound_to 10713
  157.1527  130.6191  149.5587 LP  0  0  0  0  0  0  0  0  0  0  0  0  # atno 17371 bound_to 10713
  139.9160  134.8245  156.1365 LP  0  0  0  0  0  0  0  0  0  0  0  0  # atno 17394 bound_to 11000
  141.0754  133.6778  156.2226 LP  0  0  0  0  0  0  0  0  0  0  0  0  # atno 17395 bound_to 11000

$$$$
