AV-unprocessed.smi:3335|AV-procd|sdf|12848|dock9
  -GOLD-   2272019233D 1   1.00000     0.00000
 Structure written by MMmdl.
 46 47  0  0  0  0  0  0  0  0  1 V2000
  152.7040  142.5571  161.0706 C   0  0  0  0  0  0  0  0  0  0  0  0
  153.0714  141.3717  160.2255 C   0  0  0  0  0  0  0  0  0  0  0  0
  154.3526  140.7695  160.0759 C   0  0  0  0  0  0  0  0  0  0  0  0
  154.3411  139.7339  159.2531 N   0  0  0  0  0  0  0  0  0  0  0  0
  153.0555  139.6373  158.8456 N   0  0  0  0  0  0  0  0  0  0  0  0
  152.6530  138.5849  157.9204 C   0  0  1  0  0  0  0  0  0  0  0  0
  151.6097  137.6673  158.5870 C   0  0  0  0  0  0  0  0  0  0  0  0
  152.1706  139.1617  156.5612 C   0  0  1  0  0  0  0  0  0  0  0  0
  151.8351  138.0770  155.5199 C   0  0  0  0  0  0  0  0  0  0  0  0
  150.9515  139.9428  156.7744 N   0  0  0  0  0  0  0  0  0  0  0  0
  150.8495  141.1632  155.9524 C   0  0  2  0  0  0  0  0  0  0  0  0
  150.9648  142.4026  156.8522 C   0  0  0  0  0  0  0  0  0  0  0  0
  149.5411  141.2303  155.1325 C   0  0  0  0  0  0  0  0  0  0  0  0
  149.6102  141.1618  153.9041 O   0  0  0  0  0  0  0  0  0  0  0  0
  148.3584  141.3649  155.7714 N   0  0  0  0  0  0  0  0  0  0  0  0
  148.1518  141.4167  157.2186 C   0  0  0  0  0  0  0  0  0  0  0  0
  146.6407  141.3186  157.4286 C   0  0  0  0  0  0  0  0  0  0  0  0
  146.0495  141.8513  156.1317 C   0  0  0  0  0  0  0  0  0  0  0  0
  147.0798  141.4678  155.0695 C   0  0  0  0  0  0  0  0  0  0  0  0
  152.2691  140.6145  159.4198 C   0  0  0  0  0  0  0  0  0  0  0  0
  152.9491  143.4953  160.5729 H   0  0  0  0  0  0  0  0  0  0  0  0
  153.2314  142.5511  162.0247 H   0  0  0  0  0  0  0  0  0  0  0  0
  151.6374  142.5804  161.2945 H   0  0  0  0  0  0  0  0  0  0  0  0
  155.2860  141.0529  160.5395 H   0  0  0  0  0  0  0  0  0  0  0  0
  153.5445  137.9835  157.7344 H   0  0  0  0  0  0  0  0  0  0  0  0
  151.4151  136.7813  157.9831 H   0  0  0  0  0  0  0  0  0  0  0  0
  150.6605  138.1823  158.7367 H   0  0  0  0  0  0  0  0  0  0  0  0
  151.9583  137.3214  159.5607 H   0  0  0  0  0  0  0  0  0  0  0  0
  152.9690  139.7792  156.1471 H   0  0  0  0  0  0  0  0  0  0  0  0
  152.7180  137.5034  155.2379 H   0  0  0  0  0  0  0  0  0  0  0  0
  151.4390  138.5160  154.6037 H   0  0  0  0  0  0  0  0  0  0  0  0
  151.0917  137.3762  155.9011 H   0  0  0  0  0  0  0  0  0  0  0  0
  150.1408  139.3518  156.6566 H   0  0  0  0  0  0  0  0  0  0  0  0
  151.7106  141.1659  155.2869 H   0  0  0  0  0  0  0  0  0  0  0  0
  150.9408  143.3216  156.2651 H   0  0  0  0  0  0  0  0  0  0  0  0
  151.9031  142.3959  157.4076 H   0  0  0  0  0  0  0  0  0  0  0  0
  150.1513  142.4495  157.5773 H   0  0  0  0  0  0  0  0  0  0  0  0
  148.6695  140.6097  157.7389 H   0  0  0  0  0  0  0  0  0  0  0  0
  148.5273  142.3682  157.5984 H   0  0  0  0  0  0  0  0  0  0  0  0
  146.3566  140.2732  157.5556 H   0  0  0  0  0  0  0  0  0  0  0  0
  146.2988  141.8668  158.3068 H   0  0  0  0  0  0  0  0  0  0  0  0
  145.0567  141.4522  155.9224 H   0  0  0  0  0  0  0  0  0  0  0  0
  145.9684  142.9377  156.1871 H   0  0  0  0  0  0  0  0  0  0  0  0
  147.1109  142.2047  154.2652 H   0  0  0  0  0  0  0  0  0  0  0  0
  146.8360  140.4984  154.6321 H   0  0  0  0  0  0  0  0  0  0  0  0
  151.2117  140.6882  159.2116 H   0  0  0  0  0  0  0  0  0  0  0  0
  1  2  1  0  0  0  0
  1 21  1  0  0  0  0
  1 22  1  0  0  0  0
  1 23  1  0  0  0  0
  2 20  2  0  0  0  0
  2  3  1  0  0  0  0
  3  4  2  0  0  0  0
  3 24  1  0  0  0  0
  4  5  1  0  0  0  0
  5  6  1  0  0  0  0
  5 20  1  0  0  0  0
  6  7  1  0  0  0  0
  6  8  1  0  0  0  0
  6 25  1  0  0  0  0
  7 26  1  0  0  0  0
  7 27  1  0  0  0  0
  7 28  1  0  0  0  0
  8  9  1  0  0  0  0
  8 10  1  0  0  0  0
  8 29  1  0  0  0  0
  9 30  1  0  0  0  0
  9 31  1  0  0  0  0
  9 32  1  0  0  0  0
 10 11  1  0  0  0  0
 10 33  1  0  0  0  0
 11 12  1  0  0  0  0
 11 13  1  0  0  0  0
 11 34  1  0  0  0  0
 12 35  1  0  0  0  0
 12 36  1  0  0  0  0
 12 37  1  0  0  0  0
 13 14  2  0  0  0  0
 13 15  1  0  0  0  0
 15 19  1  0  0  0  0
 15 16  1  0  0  0  0
 16 17  1  0  0  0  0
 16 38  1  0  0  0  0
 16 39  1  0  0  0  0
 17 18  1  0  0  0  0
 17 40  1  0  0  0  0
 17 41  1  0  0  0  0
 18 19  1  0  0  0  0
 18 42  1  0  0  0  0
 18 43  1  0  0  0  0
 19 44  1  0  0  0  0
 19 45  1  0  0  0  0
 20 46  1  0  0  0  0
M  END
> <s_m_source_file>
AV-unprocessed.smi

> <i_m_source_file_index>
3335

> <i_lp_mmshare_version>
43012

> <i_f3d_flags>
0

> <s_epik_input>
W0NIM11jMVtjSF1ubihbY0hdMSlbQ0BIXShbQ0gzXSlbQ0BIXShbQ0gzXSlbTkhdW0NASF0oW0NIM10pQyg9TylOMltDSDJdW0NIMl1bQ0gyXVtDSDJdMg==

> <s_epik_cmdline>
J2VwaWtfcHl0aG9uJywgJy1waCcsICc3LjAnLCAnLXRuJywgJzgnLCAnLW1hJywgJzIwMCcsICctbWV0YWxfYmluZGluZycsICctaW1hZScsICc8aW5maWxlLm1hZT4nLCAnLW9tYWUnLCAnPG91dGZpbGUubWFlPic=

> <r_lp_tautomer_probability>
1

> <r_epik_Ionization_Penalty>
0.918803

> <r_epik_Ionization_Penalty_Charging>
0

> <r_epik_Ionization_Penalty_Neutral>
0.918803

> <r_epik_State_Penalty>
0.958258

> <r_epik_Charging_Adjusted_Penalty>
0.958258

> <i_epik_Tot_Q>
0

> <i_epik_Tot_abs_Q>
0

> <r_epik_Metal_State_Penalty>
0.956786

> <b_epik_Metal_Only>
0

> <s_lp_Force_Field>
OPLS_2005

> <r_lp_Energy>
37.1843

> <b_lp_Chiralities_Consistent>
1

> <s_lp_Variant>
AV-unprocessed.smi:3335-12

> <Gold.Version>
5.8.1

> <Gold.Id.Protein>
6NUR|6NUR_protein|mol2

> <Gold.PLP.Fitness>
40.5750

> <Gold.PLP.PLP>
-36.5994

> <Gold.PLP.part.hbond>
-3.0000

> <Gold.PLP.part.metal>
0.0000

> <Gold.PLP.part.buried>
-5.0389

> <Gold.PLP.part.nonpolar>
-30.2652

> <Gold.PLP.part.repulsive>
1.4691

> <Gold.PLP.ligand.clash>
0.0000

> <Gold.PLP.ligand.torsion>
1.3147

> <Gold.PLP.Chemscore.Hbond>
2.1694

> <Gold.PLP.Chemscore.CHOScore>
0.0000

> <Gold.PLP.Chemscore.Metal>
0.0000

> <Gold.Chemscore.Hbonds>
donor molecule, donor type, donor heavy atom, donor atom, acceptor molecule, acceptor atom, score
      P1  H  7989  7998       L1    14  0.32
      P1  H  7997  8010       L1     4  0.74
      P1  H  8011  8017       L1    14  0.85

> <Gold.PLP.Chemscore.Internal.Correction>
0.0968

> <Gold.Rescore>
     Score         DG    S(hbond)    S(metal)    S(lipo)     H(rot)  DE(clash)    DE(int)     intcor
     12.99     -16.56       1.59        0.00      84.82       1.62       1.31       2.25       ----

> <Gold.Chemscore.Fitness>
12.9939

> <Gold.Chemscore.DG>
-16.5558

> <Gold.Chemscore.ZeroCoef>
-5.4800

> <Gold.Chemscore.Hbond>
1.5868

> <Gold.Chemscore.Metal>
0.0000

> <Gold.Chemscore.Lipo>
84.8223

> <Gold.Chemscore.Internal_Hbond>
0.0000

> <Gold.Chemscore.DEClash>
1.3085

> <Gold.Chemscore.DEInternal>
2.2534

> <Gold.Chemscore.Rot>
1.6204

> <Gold.Chemscore.Internal.Correction>
   9.000000E+99

> <Gold.Chemscore.Hbonds>
donor molecule, donor type, donor heavy atom, donor atom, acceptor molecule, acceptor atom, score
      P1  H  7989  7998       L1    14  0.17
      P1  H  7997  8010       L1     4  0.15
      P1  H  8011  8017       L1    14  0.79

> <Gold.Chemscore.Hbond.Weighted>
-5.2997

> <Gold.Chemscore.Metal.Weighted>
-0.0000

> <Gold.Chemscore.Lipo.Weighted>
-9.9242

> <Gold.Chemscore.Internal_Hbond.Weighted>
0.0000

> <Gold.Chemscore.DEClash.Weighted>
1.3085

> <Gold.Chemscore.DEInternal.Weighted>
2.2534

> <Gold.Chemscore.Rot.Weighted>
4.1482

> <Gold.Chemscore.Internal.Correction.Weighted>
   9.000000E+99

> <Gold.Protein.RotatedTorsions>
[ 6907 6896 6895 6894 ] final   20.43 input  -60.11 | X-H torsion
[ 7974 7965 7964 7962 ] final   21.05 input  175.53 | X-H torsion
[ 8008 7997 7996 7995 ] final   -9.10 input   59.86 | X-H torsion
[ 10167 10162 10161 10158 ] final  138.35 input  -65.29 | X-H torsion
[ 10718 10713 10712 10709 ] final  -82.37 input   66.30 | X-H torsion
[ 10763 10752 10751 10750 ] final -119.98 input  -60.55 | X-H torsion
[ 11005 11000 10999 10996 ] final  132.07 input  -57.11 | X-H torsion

> <Gold.Protein.ActiveResidues>
 VAL166  LYS551  ARG553  GLY616  TRP617  ASP618  TYR619  PRO620  LYS621  CYS622 
 ASP623  PHE694  ASN695  SER759  ASP760  ASP761  ALA762  ILE779  LEU786  VAL792 
 PHE793  MET794  SER795  GLU796  ALA797  LYS798  CYS799  TRP800  GLU811  SER814 

> <Gold.Protein.RotatedAtoms>
  151.8962  135.0397  160.0501 H   0  0  0  0  0  0  0  0  0  0  0  0  # atno 6907 bound_to 6896
  152.2396  133.5120  159.5270 H   0  0  0  0  0  0  0  0  0  0  0  0  # atno 6908 bound_to 6896
  150.7049  134.1024  159.4013 H   0  0  0  0  0  0  0  0  0  0  0  0  # atno 6909 bound_to 6896
  146.2087  139.8082  142.8706 H   0  0  0  0  0  0  0  0  0  0  0  0  # atno 7974 bound_to 7965
  154.5678  140.2364  155.8237 H   0  0  0  0  0  0  0  0  0  0  0  0  # atno 8008 bound_to 7997
  156.2082  140.3033  155.9633 H   0  0  0  0  0  0  0  0  0  0  0  0  # atno 8009 bound_to 7997
  155.2768  140.0420  157.3002 H   0  0  0  0  0  0  0  0  0  0  0  0  # atno 8010 bound_to 7997
  139.5113  144.6358  151.5700 H   0  0  0  0  0  0  0  0  0  0  0  0  # atno 10167 bound_to 10162
  156.0034  130.4632  150.4094 H   0  0  0  0  0  0  0  0  0  0  0  0  # atno 10718 bound_to 10713
  154.8632  135.4219  154.2386 H   0  0  0  0  0  0  0  0  0  0  0  0  # atno 10763 bound_to 10752
  153.3356  135.6990  153.6916 H   0  0  0  0  0  0  0  0  0  0  0  0  # atno 10764 bound_to 10752
  153.5915  135.3554  155.2886 H   0  0  0  0  0  0  0  0  0  0  0  0  # atno 10765 bound_to 10752
  139.9768  134.9561  156.9530 H   0  0  0  0  0  0  0  0  0  0  0  0  # atno 11005 bound_to 11000
  145.3224  141.0247  143.3493 LP  0  0  0  0  0  0  0  0  0  0  0  0  # atno 17320 bound_to 7965
  144.8857  139.4842  143.6701 LP  0  0  0  0  0  0  0  0  0  0  0  0  # atno 17321 bound_to 7965
  140.6107  143.9442  150.6451 LP  0  0  0  0  0  0  0  0  0  0  0  0  # atno 17342 bound_to 10162
  140.2683  143.3474  152.1260 LP  0  0  0  0  0  0  0  0  0  0  0  0  # atno 17343 bound_to 10162
  157.2158  131.0471  151.2574 LP  0  0  0  0  0  0  0  0  0  0  0  0  # atno 17370 bound_to 10713
  157.3846  130.7249  149.6654 LP  0  0  0  0  0  0  0  0  0  0  0  0  # atno 17371 bound_to 10713
  140.5178  134.0938  155.7285 LP  0  0  0  0  0  0  0  0  0  0  0  0  # atno 17394 bound_to 11000
  141.1444  133.9081  157.2250 LP  0  0  0  0  0  0  0  0  0  0  0  0  # atno 17395 bound_to 11000

$$$$
