AV-unprocessed.smi:42|AV-procd|sdf|389|dock3
  -GOLD-   2262016243D 1   1.00000     0.00000
 Structure written by MMmdl.
 27 28  0  0  0  0  0  0  0  0  2 V2000
  152.4677  142.4042  159.1184 C   0  0  0  0  0  0  0  0  0  0  0  0
  151.9774  140.9860  158.8080 C   0  0  0  0  0  0  0  0  0  0  0  0
  151.6240  140.8052  157.3698 C   0  0  0  0  0  0  0  0  0  0  0  0
  152.2815  140.0850  156.4583 N   0  0  0  0  0  0  0  0  0  0  0  0
  151.5430  140.1805  155.3012 N   0  0  0  0  0  0  0  0  0  0  0  0
  150.4731  140.9223  155.6093 C   0  0  0  0  0  0  0  0  0  0  0  0
  149.3674  141.3757  154.7052 C   0  0  1  0  0  0  0  0  0  0  0  0
  148.5247  140.2500  154.0959 C   0  0  0  0  0  0  0  0  0  0  0  0
  147.0739  140.7543  154.1709 C   0  0  2  0  0  0  0  0  0  0  0  0
  146.5052  140.8844  152.8845 O   0  0  0  0  0  0  0  0  0  0  0  0
  147.1408  142.1167  154.8801 C   0  0  0  0  0  0  0  0  0  0  0  0
  148.4473  142.1497  155.5539 N   0  3  0  0  0  0  0  0  0  0  0  0
  150.4746  141.3539  156.8971 O   0  0  0  0  0  0  0  0  0  0  0  0
  149.7603  142.0277  153.9235 H   0  0  0  0  0  0  0  0  0  0  0  0
  146.4713  140.0569  154.7547 H   0  0  0  0  0  0  0  0  0  0  0  0
  152.7187  142.5057  160.1743 H   0  0  0  0  0  0  0  0  0  0  0  0
  151.7020  143.1447  158.8849 H   0  0  0  0  0  0  0  0  0  0  0  0
  153.3588  142.6482  158.5393 H   0  0  0  0  0  0  0  0  0  0  0  0
  152.7455  140.2594  159.0743 H   0  0  0  0  0  0  0  0  0  0  0  0
  151.1024  140.7537  159.4160 H   0  0  0  0  0  0  0  0  0  0  0  0
  148.8539  139.9966  153.0871 H   0  0  0  0  0  0  0  0  0  0  0  0
  148.6095  139.3443  154.6988 H   0  0  0  0  0  0  0  0  0  0  0  0
  145.5673  140.9664  152.9736 H   0  0  0  0  0  0  0  0  0  0  0  0
  147.1178  142.9339  154.1571 H   0  0  0  0  0  0  0  0  0  0  0  0
  146.3215  142.2683  155.5832 H   0  0  0  0  0  0  0  0  0  0  0  0
  148.3644  141.6741  156.4415 H   0  0  0  0  0  0  0  0  0  0  0  0
  148.7751  143.0938  155.6993 H   0  0  0  0  0  0  0  0  0  0  0  0
  1  2  1  0  0  0  0
  1 16  1  0  0  0  0
  1 17  1  0  0  0  0
  1 18  1  0  0  0  0
  2  3  1  0  0  0  0
  2 19  1  0  0  0  0
  2 20  1  0  0  0  0
  3 13  1  0  0  0  0
  3  4  2  0  0  0  0
  4  5  1  0  0  0  0
  5  6  2  0  0  0  0
  6  7  1  0  0  0  0
  6 13  1  0  0  0  0
  7 14  1  0  0  0  0
  7 12  1  0  0  0  0
  7  8  1  0  0  0  0
  8  9  1  0  0  0  0
  8 21  1  0  0  0  0
  8 22  1  0  0  0  0
  9 15  1  0  0  0  0
  9 10  1  0  0  0  0
  9 11  1  0  0  0  0
 10 23  1  0  0  0  0
 11 12  1  0  0  0  0
 11 24  1  0  0  0  0
 11 25  1  0  0  0  0
 12 26  1  0  0  0  0
 12 27  1  0  0  0  0
M  CHG  1  12   1
M  END
> <s_m_source_file>
AV-unprocessed.smi

> <i_m_source_file_index>
42

> <i_lp_mmshare_version>
43012

> <i_f3d_flags>
0

> <s_epik_input>
W0NIM11bQ0gyXWMxbm5jKG8xKVtDQEhdMltDSDJdW0NAQEhdKFtPSF0pW0NIMl1bTkhdMg==

> <s_epik_cmdline>
J2VwaWtfcHl0aG9uJywgJy1waCcsICc3LjAnLCAnLXRuJywgJzgnLCAnLW1hJywgJzIwMCcsICctbWV0YWxfYmluZGluZycsICctaW1hZScsICc8aW5maWxlLm1hZT4nLCAnLW9tYWUnLCAnPG91dGZpbGUubWFlPic=

> <r_lp_tautomer_probability>
1

> <r_epik_Ionization_Penalty>
0.00247063

> <r_epik_Ionization_Penalty_Charging>
0.0024706

> <r_epik_Ionization_Penalty_Neutral>
3.27814e-08

> <r_epik_State_Penalty>
0.00171198

> <r_epik_Charging_Adjusted_Penalty>
0.00418258

> <i_epik_Tot_Q>
1

> <i_epik_Tot_abs_Q>
1

> <r_epik_Metal_State_Penalty>
-0

> <b_epik_Metal_Only>
0

> <s_lp_Force_Field>
OPLS_2005

> <r_lp_Energy>
19.5467

> <b_lp_Chiralities_Consistent>
1

> <s_lp_Variant>
AV-unprocessed.smi:42-3

> <Gold.Version>
5.8.1

> <Gold.Id.Protein>
6NUR|6NUR_protein|mol2

> <Gold.PLP.Fitness>
38.5256

> <Gold.PLP.PLP>
-24.8054

> <Gold.PLP.part.hbond>
-4.0000

> <Gold.PLP.part.metal>
0.0000

> <Gold.PLP.part.buried>
-1.9136

> <Gold.PLP.part.nonpolar>
-18.2738

> <Gold.PLP.part.repulsive>
0.1920

> <Gold.PLP.ligand.clash>
0.0000

> <Gold.PLP.ligand.torsion>
0.1504

> <Gold.PLP.Chemscore.Hbond>
4.6608

> <Gold.PLP.Chemscore.CHOScore>
0.0000

> <Gold.PLP.Chemscore.Metal>
0.0000

> <Gold.Chemscore.Hbonds>
donor molecule, donor type, donor heavy atom, donor atom, acceptor molecule, acceptor atom, score
      L1  H    10    23       P1 10175  1.00
      L1  H    12    27       P1  8028  2.00
      P1  H  7989  7998       L1     5  0.68
      P1  H  7997  8010       L1     4  0.94

> <Gold.PLP.Chemscore.Internal.Correction>
0.0385

> <Gold.Rescore>
     Score         DG    S(hbond)    S(metal)    S(lipo)     H(rot)  DE(clash)    DE(int)     intcor
     15.01     -15.56       2.88        0.00      44.68       1.86       0.28       0.28       ----

> <Gold.Chemscore.Fitness>
15.0069

> <Gold.Chemscore.DG>
-15.5613

> <Gold.Chemscore.ZeroCoef>
-5.4800

> <Gold.Chemscore.Hbond>
2.8761

> <Gold.Chemscore.Metal>
0.0000

> <Gold.Chemscore.Lipo>
44.6848

> <Gold.Chemscore.Internal_Hbond>
0.0000

> <Gold.Chemscore.DEClash>
0.2763

> <Gold.Chemscore.DEInternal>
0.2781

> <Gold.Chemscore.Rot>
1.8567

> <Gold.Chemscore.Internal.Correction>
   9.000000E+99

> <Gold.Chemscore.Hbonds>
donor molecule, donor type, donor heavy atom, donor atom, acceptor molecule, acceptor atom, score
      L1  H    10    23       P1 10175  0.28
      L1  H    12    27       P1  8028  0.99
      P1  H  7989  7998       L1     5  0.07
      P1  H  7997  8010       L1     4  0.85

> <Gold.Chemscore.Hbond.Weighted>
-9.6062

> <Gold.Chemscore.Metal.Weighted>
-0.0000

> <Gold.Chemscore.Lipo.Weighted>
-5.2281

> <Gold.Chemscore.Internal_Hbond.Weighted>
0.0000

> <Gold.Chemscore.DEClash.Weighted>
0.2763

> <Gold.Chemscore.DEInternal.Weighted>
0.2781

> <Gold.Chemscore.Rot.Weighted>
4.7531

> <Gold.Chemscore.Internal.Correction.Weighted>
   9.000000E+99

> <Gold.Protein.RotatedTorsions>
[ 6907 6896 6895 6894 ] final -130.96 input  -60.11 | X-H torsion
[ 7974 7965 7964 7962 ] final  -69.82 input  175.53 | X-H torsion
[ 8008 7997 7996 7995 ] final   76.65 input   59.86 | X-H torsion
[ 10167 10162 10161 10158 ] final -164.02 input  -65.29 | X-H torsion
[ 10718 10713 10712 10709 ] final  124.73 input   66.30 | X-H torsion
[ 10763 10752 10751 10750 ] final  -51.21 input  -60.55 | X-H torsion
[ 11005 11000 10999 10996 ] final  148.34 input  -57.11 | X-H torsion

> <Gold.Protein.ActiveResidues>
 VAL166  LYS551  ARG553  GLY616  TRP617  ASP618  TYR619  PRO620  LYS621  CYS622 
 ASP623  PHE694  ASN695  SER759  ASP760  ASP761  ALA762  ILE779  LEU786  VAL792 
 PHE793  MET794  SER795  GLU796  ALA797  LYS798  CYS799  TRP800  GLU811  SER814 

> <Gold.Protein.RotatedAtoms>
  150.9456  133.6607  159.2781 H   0  0  0  0  0  0  0  0  0  0  0  0  # atno 6907 bound_to 6896
  151.3981  135.0965  159.9557 H   0  0  0  0  0  0  0  0  0  0  0  0  # atno 6908 bound_to 6896
  152.5088  133.8955  159.7470 H   0  0  0  0  0  0  0  0  0  0  0  0  # atno 6909 bound_to 6896
  145.6988  140.9124  143.0742 H   0  0  0  0  0  0  0  0  0  0  0  0  # atno 7974 bound_to 7965
  155.8303  140.3466  155.5568 H   0  0  0  0  0  0  0  0  0  0  0  0  # atno 8008 bound_to 7997
  155.8249  140.0918  157.1847 H   0  0  0  0  0  0  0  0  0  0  0  0  # atno 8009 bound_to 7997
  154.4004  140.1423  156.3531 H   0  0  0  0  0  0  0  0  0  0  0  0  # atno 8010 bound_to 7997
  139.6279  144.0496  152.1991 H   0  0  0  0  0  0  0  0  0  0  0  0  # atno 10167 bound_to 10162
  157.5561  131.1092  150.8619 H   0  0  0  0  0  0  0  0  0  0  0  0  # atno 10718 bound_to 10713
  154.1229  135.6532  153.4906 H   0  0  0  0  0  0  0  0  0  0  0  0  # atno 10763 bound_to 10752
  153.0220  135.5274  154.7079 H   0  0  0  0  0  0  0  0  0  0  0  0  # atno 10764 bound_to 10752
  154.6292  135.2974  155.0207 H   0  0  0  0  0  0  0  0  0  0  0  0  # atno 10765 bound_to 10752
  140.0952  134.9017  157.1712 H   0  0  0  0  0  0  0  0  0  0  0  0  # atno 11005 bound_to 11000
  144.6974  139.8920  143.7453 LP  0  0  0  0  0  0  0  0  0  0  0  0  # atno 17320 bound_to 7965
  146.0816  139.3804  143.0461 LP  0  0  0  0  0  0  0  0  0  0  0  0  # atno 17321 bound_to 7965
  140.0154  144.6193  150.7612 LP  0  0  0  0  0  0  0  0  0  0  0  0  # atno 17342 bound_to 10162
  140.7422  143.2829  151.3547 LP  0  0  0  0  0  0  0  0  0  0  0  0  # atno 17343 bound_to 10162
  156.9130  130.5287  149.5280 LP  0  0  0  0  0  0  0  0  0  0  0  0  # atno 17370 bound_to 10713
  156.0620  130.5671  150.9212 LP  0  0  0  0  0  0  0  0  0  0  0  0  # atno 17371 bound_to 10713
  140.3297  134.2824  155.7230 LP  0  0  0  0  0  0  0  0  0  0  0  0  # atno 17394 bound_to 11000
  141.2090  133.7762  157.0026 LP  0  0  0  0  0  0  0  0  0  0  0  0  # atno 17395 bound_to 11000

$$$$
