AV-unprocessed.smi:273|AV-procd|sdf|2054|dock1
  -GOLD-   2262021293D 1   1.00000     0.00000
 Structure written by MMmdl.
 59 62  0  0  0  0  0  0  0  0  1 V2000
  152.8227  144.6917  158.3611 C   0  0  0  0  0  0  0  0  0  0  0  0
  151.3926  144.2721  158.7143 C   0  0  0  0  0  0  0  0  0  0  0  0
  150.7684  143.5867  157.5916 N   0  0  0  0  0  0  0  0  0  0  0  0
  151.0408  142.3255  157.2207 C   0  0  0  0  0  0  0  0  0  0  0  0
  151.8591  141.6246  157.8166 O   0  0  0  0  0  0  0  0  0  0  0  0
  150.2874  141.7439  156.0095 C   0  0  0  0  0  0  0  0  0  0  0  0
  148.7610  141.7826  156.2352 C   0  0  0  0  0  0  0  0  0  0  0  0
  147.9990  141.2319  155.0185 C   0  0  0  0  0  0  0  0  0  0  0  0
  148.4776  139.8959  154.6600 N   0  0  0  0  0  0  0  0  0  0  0  0
  147.7007  139.1422  153.8399 C   0  0  0  0  0  0  0  0  0  0  0  0
  147.2958  139.6427  152.6417 N   0  0  0  0  0  0  0  0  0  0  0  0
  146.5358  138.9087  151.8239 C   0  0  0  0  0  0  0  0  0  0  0  0
  146.0704  137.6717  152.0044 N   0  0  0  0  0  0  0  0  0  0  0  0
  146.4652  137.1652  153.2071 C   0  0  0  0  0  0  0  0  0  0  0  0
  147.2733  137.8256  154.1756 C   0  0  0  0  0  0  0  0  0  0  0  0
  147.4550  136.9995  155.2790 N   0  0  0  0  0  0  0  0  0  0  0  0
  146.8045  135.9101  154.9745 C   0  0  0  0  0  0  0  0  0  0  0  0
  146.1631  135.9309  153.7568 N   0  0  0  0  0  0  0  0  0  0  0  0
  145.3753  134.8602  153.1693 C   0  0  0  0  0  0  0  0  0  0  0  0
  145.9903  134.2403  151.8876 C   0  0  2  0  0  0  0  0  0  0  0  0
  145.8628  135.2458  150.7196 C   0  0  0  0  0  0  0  0  0  0  0  0
  144.5528  135.7663  150.6194 O   0  0  0  0  0  0  0  0  0  0  0  0
  145.4283  132.8358  151.5189 C   0  0  2  0  0  0  0  0  0  0  0  0
  145.7298  131.7152  152.5020 C   0  0  0  0  0  0  0  0  0  0  0  0
  145.5189  130.4592  151.6635 C   0  0  0  0  0  0  0  0  0  0  0  0
  145.8180  130.8277  150.3232 O   0  0  0  0  0  0  0  0  0  0  0  0
  146.0305  132.2319  150.2446 C   0  0  0  0  0  0  0  0  0  0  0  0
  149.9148  139.8045  154.4079 C   0  0  0  0  0  0  0  0  0  0  0  0
  150.7142  140.3088  155.6193 C   0  0  0  0  0  0  0  0  0  0  0  0
  153.2910  145.2121  159.1966 H   0  0  0  0  0  0  0  0  0  0  0  0
  152.8366  145.3630  157.5018 H   0  0  0  0  0  0  0  0  0  0  0  0
  153.4399  143.8253  158.1212 H   0  0  0  0  0  0  0  0  0  0  0  0
  151.4038  143.6161  159.5862 H   0  0  0  0  0  0  0  0  0  0  0  0
  150.8003  145.1497  158.9768 H   0  0  0  0  0  0  0  0  0  0  0  0
  150.0862  144.1046  157.0569 H   0  0  0  0  0  0  0  0  0  0  0  0
  150.5193  142.3990  155.1683 H   0  0  0  0  0  0  0  0  0  0  0  0
  148.5040  141.1928  157.1167 H   0  0  0  0  0  0  0  0  0  0  0  0
  148.4260  142.8010  156.4364 H   0  0  0  0  0  0  0  0  0  0  0  0
  146.9330  141.2009  155.2481 H   0  0  0  0  0  0  0  0  0  0  0  0
  148.1264  141.9004  154.1659 H   0  0  0  0  0  0  0  0  0  0  0  0
  146.2608  139.3807  150.8922 H   0  0  0  0  0  0  0  0  0  0  0  0
  146.7663  135.0599  155.6397 H   0  0  0  0  0  0  0  0  0  0  0  0
  145.2142  134.0854  153.9195 H   0  0  0  0  0  0  0  0  0  0  0  0
  144.3920  135.2763  152.9470 H   0  0  0  0  0  0  0  0  0  0  0  0
  147.0609  134.1259  152.0610 H   0  0  0  0  0  0  0  0  0  0  0  0
  146.5558  136.0766  150.8566 H   0  0  0  0  0  0  0  0  0  0  0  0
  146.1313  134.7834  149.7699 H   0  0  0  0  0  0  0  0  0  0  0  0
  144.6094  136.6964  150.4610 H   0  0  0  0  0  0  0  0  0  0  0  0
  144.3464  132.8989  151.3916 H   0  0  0  0  0  0  0  0  0  0  0  0
  146.7660  131.7702  152.8385 H   0  0  0  0  0  0  0  0  0  0  0  0
  145.0834  131.7182  153.3781 H   0  0  0  0  0  0  0  0  0  0  0  0
  146.1428  129.6300  151.9973 H   0  0  0  0  0  0  0  0  0  0  0  0
  144.4773  130.1399  151.7101 H   0  0  0  0  0  0  0  0  0  0  0  0
  145.5856  132.6392  149.3366 H   0  0  0  0  0  0  0  0  0  0  0  0
  147.1059  132.4113  150.2040 H   0  0  0  0  0  0  0  0  0  0  0  0
  150.2205  138.7853  154.1762 H   0  0  0  0  0  0  0  0  0  0  0  0
  150.1538  140.4063  153.5301 H   0  0  0  0  0  0  0  0  0  0  0  0
  151.7788  140.2755  155.3838 H   0  0  0  0  0  0  0  0  0  0  0  0
  150.5551  139.6265  156.4561 H   0  0  0  0  0  0  0  0  0  0  0  0
  1  2  1  0  0  0  0
  1 30  1  0  0  0  0
  1 31  1  0  0  0  0
  1 32  1  0  0  0  0
  2  3  1  0  0  0  0
  2 33  1  0  0  0  0
  2 34  1  0  0  0  0
  3  4  1  0  0  0  0
  3 35  1  0  0  0  0
  4  5  2  0  0  0  0
  4  6  1  0  0  0  0
  6 29  1  0  0  0  0
  6  7  1  0  0  0  0
  6 36  1  0  0  0  0
  7  8  1  0  0  0  0
  7 37  1  0  0  0  0
  7 38  1  0  0  0  0
  8  9  1  0  0  0  0
  8 39  1  0  0  0  0
  8 40  1  0  0  0  0
  9 10  1  0  0  0  0
  9 28  1  0  0  0  0
 10 15  1  0  0  0  0
 10 11  2  0  0  0  0
 11 12  1  0  0  0  0
 12 13  2  0  0  0  0
 12 41  1  0  0  0  0
 13 14  1  0  0  0  0
 14 18  1  0  0  0  0
 14 15  2  0  0  0  0
 15 16  1  0  0  0  0
 16 17  2  0  0  0  0
 17 18  1  0  0  0  0
 17 42  1  0  0  0  0
 18 19  1  0  0  0  0
 19 20  1  0  0  0  0
 19 43  1  0  0  0  0
 19 44  1  0  0  0  0
 20 21  1  0  0  0  0
 20 23  1  0  0  0  0
 20 45  1  0  0  0  0
 21 22  1  0  0  0  0
 21 46  1  0  0  0  0
 21 47  1  0  0  0  0
 22 48  1  0  0  0  0
 23 27  1  0  0  0  0
 23 24  1  0  0  0  0
 23 49  1  0  0  0  0
 24 25  1  0  0  0  0
 24 50  1  0  0  0  0
 24 51  1  0  0  0  0
 25 26  1  0  0  0  0
 25 52  1  0  0  0  0
 25 53  1  0  0  0  0
 26 27  1  0  0  0  0
 27 54  1  0  0  0  0
 27 55  1  0  0  0  0
 28 29  1  0  0  0  0
 28 56  1  0  0  0  0
 28 57  1  0  0  0  0
 29 58  1  0  0  0  0
 29 59  1  0  0  0  0
M  END
> <s_m_source_file>
AV-unprocessed.smi

> <i_m_source_file_index>
273

> <i_lp_mmshare_version>
43012

> <i_f3d_flags>
0

> <s_epik_input>
W0NIM11bQ0gyXVtOSF1DKD1PKVtDSF0xW0NIMl1bQ0gyXU4oW0NIMl1bQ0gyXTEpYyhuW2NIXW4yKWMoYzIzKW5bY0hdbjNbQ0gyXVtDQEhdKFtDSDJdW09IXSlbQ0BASF00W0NIMl1bQ0gyXU9bQ0gyXTQ=

> <s_epik_cmdline>
J2VwaWtfcHl0aG9uJywgJy1waCcsICc3LjAnLCAnLXRuJywgJzgnLCAnLW1hJywgJzIwMCcsICctbWV0YWxfYmluZGluZycsICctaW1hZScsICc8aW5maWxlLm1hZT4nLCAnLW9tYWUnLCAnPG91dGZpbGUubWFlPic=

> <r_lp_tautomer_probability>
1

> <r_epik_Ionization_Penalty>
0.00226556

> <r_epik_Ionization_Penalty_Charging>
0

> <r_epik_Ionization_Penalty_Neutral>
0.00226556

> <r_epik_State_Penalty>
0.00139883

> <r_epik_Charging_Adjusted_Penalty>
0.00139883

> <i_epik_Tot_Q>
0

> <i_epik_Tot_abs_Q>
0

> <r_epik_Metal_State_Penalty>
-0

> <b_epik_Metal_Only>
0

> <s_lp_Force_Field>
OPLS_2005

> <r_lp_Energy>
46.1121

> <b_lp_Chiralities_Consistent>
1

> <s_lp_Variant>
AV-unprocessed.smi:273-1

> <Gold.Version>
5.8.1

> <Gold.Id.Protein>
6NUR|6NUR_protein|mol2

> <Gold.PLP.Fitness>
48.2833

> <Gold.PLP.PLP>
-40.2610

> <Gold.PLP.part.hbond>
-2.3041

> <Gold.PLP.part.metal>
0.0000

> <Gold.PLP.part.buried>
-0.0206

> <Gold.PLP.part.nonpolar>
-38.9790

> <Gold.PLP.part.repulsive>
1.1897

> <Gold.PLP.ligand.clash>
0.0000

> <Gold.PLP.ligand.torsion>
0.8137

> <Gold.PLP.Chemscore.Hbond>
2.0000

> <Gold.PLP.Chemscore.CHOScore>
0.9532

> <Gold.PLP.Chemscore.Metal>
0.0000

> <Gold.Chemscore.Hbonds>
donor molecule, donor type, donor heavy atom, donor atom, acceptor molecule, acceptor atom, score
      L1  H     3    35       P1  8028  1.00
      L1  H    22    48       P1 10171  0.78
      L1  C    12    41       P1 10171  0.41

> <Gold.PLP.Chemscore.Internal.Correction>
0.7903

> <Gold.Rescore>
     Score         DG    S(hbond)    S(metal)    S(lipo)     H(rot)  DE(clash)    DE(int)     intcor
     10.65     -15.93       1.92        0.00     105.10       3.22       2.83       2.44       ----

> <Gold.Chemscore.Fitness>
10.6533

> <Gold.Chemscore.DG>
-15.9254

> <Gold.Chemscore.ZeroCoef>
-5.4800

> <Gold.Chemscore.Hbond>
1.9171

> <Gold.Chemscore.Metal>
0.0000

> <Gold.Chemscore.Lipo>
105.0994

> <Gold.Chemscore.Internal_Hbond>
0.0000

> <Gold.Chemscore.DEClash>
2.8317

> <Gold.Chemscore.DEInternal>
2.4405

> <Gold.Chemscore.Rot>
3.2244

> <Gold.Chemscore.Internal.Correction>
   9.000000E+99

> <Gold.Chemscore.Hbonds>
donor molecule, donor type, donor heavy atom, donor atom, acceptor molecule, acceptor atom, score
      L1  H     3    35       P1  8028  0.88
      L1  H    22    48       P1 10171  0.75

> <Gold.Chemscore.Hbond.Weighted>
-6.4033

> <Gold.Chemscore.Metal.Weighted>
-0.0000

> <Gold.Chemscore.Lipo.Weighted>
-12.2966

> <Gold.Chemscore.Internal_Hbond.Weighted>
0.0000

> <Gold.Chemscore.DEClash.Weighted>
2.8317

> <Gold.Chemscore.DEInternal.Weighted>
2.4405

> <Gold.Chemscore.Rot.Weighted>
8.2545

> <Gold.Chemscore.Internal.Correction.Weighted>
   9.000000E+99

> <Gold.Protein.RotatedTorsions>
[ 6907 6896 6895 6894 ] final -101.30 input  -60.11 | X-H torsion
[ 7974 7965 7964 7962 ] final -125.48 input  175.53 | X-H torsion
[ 8008 7997 7996 7995 ] final   -5.03 input   59.86 | X-H torsion
[ 10167 10162 10161 10158 ] final -102.70 input  -65.29 | X-H torsion
[ 10718 10713 10712 10709 ] final  152.72 input   66.30 | X-H torsion
[ 10763 10752 10751 10750 ] final  142.71 input  -60.55 | X-H torsion
[ 11005 11000 10999 10996 ] final  152.46 input  -57.11 | X-H torsion

> <Gold.Protein.ActiveResidues>
 VAL166  LYS551  ARG553  GLY616  TRP617  ASP618  TYR619  PRO620  LYS621  CYS622 
 ASP623  PHE694  ASN695  SER759  ASP760  ASP761  ALA762  ILE779  LEU786  VAL792 
 PHE793  MET794  SER795  GLU796  ALA797  LYS798  CYS799  TRP800  GLU811  SER814 

> <Gold.Protein.RotatedAtoms>
  150.7149  134.0755  159.3879 H   0  0  0  0  0  0  0  0  0  0  0  0  # atno 6907 bound_to 6896
  151.8739  135.0477  160.0491 H   0  0  0  0  0  0  0  0  0  0  0  0  # atno 6908 bound_to 6896
  152.2622  133.5271  159.5425 H   0  0  0  0  0  0  0  0  0  0  0  0  # atno 6909 bound_to 6896
  144.9971  140.7786  143.4519 H   0  0  0  0  0  0  0  0  0  0  0  0  # atno 7974 bound_to 7965
  154.6082  140.2469  155.7704 H   0  0  0  0  0  0  0  0  0  0  0  0  # atno 8008 bound_to 7997
  156.2354  140.2952  156.0249 H   0  0  0  0  0  0  0  0  0  0  0  0  # atno 8009 bound_to 7997
  155.2097  140.0397  157.2922 H   0  0  0  0  0  0  0  0  0  0  0  0  # atno 8010 bound_to 7997
  140.2279  143.3628  152.0913 H   0  0  0  0  0  0  0  0  0  0  0  0  # atno 10167 bound_to 10162
  157.2541  131.0785  151.1710 H   0  0  0  0  0  0  0  0  0  0  0  0  # atno 10718 bound_to 10713
  153.9604  135.2961  155.3434 H   0  0  0  0  0  0  0  0  0  0  0  0  # atno 10763 bound_to 10752
  154.7378  135.5038  153.9074 H   0  0  0  0  0  0  0  0  0  0  0  0  # atno 10764 bound_to 10752
  153.0949  135.6718  153.9892 H   0  0  0  0  0  0  0  0  0  0  0  0  # atno 10765 bound_to 10752
  140.1309  134.8802  157.2203 H   0  0  0  0  0  0  0  0  0  0  0  0  # atno 11005 bound_to 11000
  145.2204  139.2162  143.5096 LP  0  0  0  0  0  0  0  0  0  0  0  0  # atno 17320 bound_to 7965
  146.3444  140.2061  142.8589 LP  0  0  0  0  0  0  0  0  0  0  0  0  # atno 17321 bound_to 7965
  139.5120  144.6910  151.5758 LP  0  0  0  0  0  0  0  0  0  0  0  0  # atno 17342 bound_to 10162
  140.6207  143.9263  150.6524 LP  0  0  0  0  0  0  0  0  0  0  0  0  # atno 17343 bound_to 10162
  157.3246  130.6954  149.6289 LP  0  0  0  0  0  0  0  0  0  0  0  0  # atno 17370 bound_to 10713
  155.9665  130.4325  150.4967 LP  0  0  0  0  0  0  0  0  0  0  0  0  # atno 17371 bound_to 10713
  140.2843  134.3314  155.7334 LP  0  0  0  0  0  0  0  0  0  0  0  0  # atno 17394 bound_to 11000
  141.2170  133.7497  156.9410 LP  0  0  0  0  0  0  0  0  0  0  0  0  # atno 17395 bound_to 11000

$$$$
