AV-unprocessed.smi:6|AV-procd|sdf|40|dock7
  -GOLD-   2262015153D 1   1.00000     0.00000
 Structure written by MMmdl.
 38 39  0  0  0  0  0  0  0  0  2 V2000
  151.4735  139.6388  155.7239 C   0  0  0  0  0  0  0  0  0  0  0  0
  150.6285  140.9157  155.8518 C   0  0  0  0  0  0  0  0  0  0  0  0
  150.2473  141.2402  157.3042 C   0  0  0  0  0  0  0  0  0  0  0  0
  149.4121  140.8900  154.9373 C   0  0  0  0  0  0  0  0  0  0  0  0
  148.6403  141.9856  154.8493 N   0  3  0  0  0  0  0  0  0  0  0  0
  147.5482  141.9750  154.0466 C   0  0  0  0  0  0  0  0  0  0  0  0
  147.2197  140.8245  153.3053 C   0  0  0  0  0  0  0  0  0  0  0  0
  148.0702  139.7139  153.4419 C   0  0  0  0  0  0  0  0  0  0  0  0
  147.7936  138.5388  152.7298 N   0  0  0  0  0  0  0  0  0  0  0  0
  146.4164  138.1855  152.4053 C   0  0  0  0  0  0  0  0  0  0  0  0
  146.1387  136.6954  152.5313 C   0  0  0  0  0  0  0  0  0  0  0  0
  145.7046  135.9560  151.4787 C   0  0  0  0  0  0  0  0  0  0  0  0
  145.4643  134.5927  151.5484 N   0  0  0  0  0  0  0  0  0  0  0  0
  145.0018  133.8171  150.4300 C   0  0  0  0  0  0  0  0  0  0  0  0
  145.6794  133.9026  152.7595 C   0  0  0  0  0  0  0  0  0  0  0  0
  145.4833  132.6942  152.8900 O   0  0  0  0  0  0  0  0  0  0  0  0
  146.1393  134.6587  153.8367 N   0  0  0  0  0  0  0  0  0  0  0  0
  146.3961  136.0330  153.8159 C   0  0  0  0  0  0  0  0  0  0  0  0
  146.8064  136.5885  154.8336 O   0  0  0  0  0  0  0  0  0  0  0  0
  149.1481  139.7659  154.2553 N   0  0  0  0  0  0  0  0  0  0  0  0
  146.3017  134.1711  154.7060 H   0  0  0  0  0  0  0  0  0  0  0  0
  151.7943  139.4815  154.6939 H   0  0  0  0  0  0  0  0  0  0  0  0
  150.9137  138.7569  156.0372 H   0  0  0  0  0  0  0  0  0  0  0  0
  152.3689  139.6979  156.3432 H   0  0  0  0  0  0  0  0  0  0  0  0
  151.2631  141.7360  155.5121 H   0  0  0  0  0  0  0  0  0  0  0  0
  149.7181  142.1916  157.3676 H   0  0  0  0  0  0  0  0  0  0  0  0
  151.1335  141.3130  157.9352 H   0  0  0  0  0  0  0  0  0  0  0  0
  149.6016  140.4707  157.7285 H   0  0  0  0  0  0  0  0  0  0  0  0
  146.9718  142.8882  154.0248 H   0  0  0  0  0  0  0  0  0  0  0  0
  146.3516  140.8010  152.6628 H   0  0  0  0  0  0  0  0  0  0  0  0
  148.4931  137.8109  152.7004 H   0  0  0  0  0  0  0  0  0  0  0  0
  145.7473  138.7418  153.0626 H   0  0  0  0  0  0  0  0  0  0  0  0
  146.1836  138.4921  151.3846 H   0  0  0  0  0  0  0  0  0  0  0  0
  145.5358  136.4596  150.5375 H   0  0  0  0  0  0  0  0  0  0  0  0
  144.0373  133.3839  150.7020 H   0  0  0  0  0  0  0  0  0  0  0  0
  145.7528  133.0523  150.2223 H   0  0  0  0  0  0  0  0  0  0  0  0
  144.8908  134.4812  149.5722 H   0  0  0  0  0  0  0  0  0  0  0  0
  148.8658  142.8258  155.3827 H   0  0  0  0  0  0  0  0  0  0  0  0
  1  2  1  0  0  0  0
  1 22  1  0  0  0  0
  1 23  1  0  0  0  0
  1 24  1  0  0  0  0
  2  3  1  0  0  0  0
  2  4  1  0  0  0  0
  2 25  1  0  0  0  0
  3 26  1  0  0  0  0
  3 27  1  0  0  0  0
  3 28  1  0  0  0  0
  4 20  1  0  0  0  0
  4  5  2  0  0  0  0
  5  6  1  0  0  0  0
  5 38  1  0  0  0  0
  6  7  2  0  0  0  0
  6 29  1  0  0  0  0
  7  8  1  0  0  0  0
  7 30  1  0  0  0  0
  8  9  1  0  0  0  0
  8 20  2  0  0  0  0
  9 10  1  0  0  0  0
  9 31  1  0  0  0  0
 10 11  1  0  0  0  0
 10 32  1  0  0  0  0
 10 33  1  0  0  0  0
 11 18  1  0  0  0  0
 11 12  2  0  0  0  0
 12 13  1  0  0  0  0
 12 34  1  0  0  0  0
 13 14  1  0  0  0  0
 13 15  1  0  0  0  0
 14 35  1  0  0  0  0
 14 36  1  0  0  0  0
 14 37  1  0  0  0  0
 15 16  2  0  0  0  0
 15 17  1  0  0  0  0
 17 21  1  0  0  0  0
 17 18  1  0  0  0  0
 18 19  2  0  0  0  0
M  CHG  1   5   1
M  END
> <s_m_source_file>
AV-unprocessed.smi

> <i_m_source_file_index>
6

> <i_lp_mmshare_version>
43012

> <i_f3d_flags>
0

> <s_epik_input>
W0NIM11bQ0hdKFtDSDNdKWMxbltjSF1bY0hdYyhuMSlbTkhdW0NIMl1jMltjSF1uKFtDSDNdKWMoPU8pW25IXWMyPU8=

> <s_epik_cmdline>
J2VwaWtfcHl0aG9uJywgJy1waCcsICc3LjAnLCAnLXRuJywgJzgnLCAnLW1hJywgJzIwMCcsICctbWV0YWxfYmluZGluZycsICctaW1hZScsICc8aW5maWxlLm1hZT4nLCAnLW9tYWUnLCAnPG91dGZpbGUubWFlPic=

> <r_lp_tautomer_probability>
0.998874

> <r_epik_Ionization_Penalty>
0.537311

> <r_epik_Ionization_Penalty_Charging>
0.537291

> <r_epik_Ionization_Penalty_Neutral>
2.09214e-05

> <r_epik_State_Penalty>
0.545757

> <r_epik_Charging_Adjusted_Penalty>
1.08305

> <i_epik_Tot_Q>
1

> <i_epik_Tot_abs_Q>
1

> <r_epik_Metal_State_Penalty>
0.947272

> <b_epik_Metal_Only>
0

> <s_lp_Force_Field>
OPLS_2005

> <r_lp_Energy>
10.386

> <b_lp_Chiralities_Consistent>
1

> <s_lp_Variant>
AV-unprocessed.smi:6-2

> <Gold.Version>
5.8.1

> <Gold.Id.Protein>
6NUR|6NUR_protein|mol2

> <Gold.PLP.Fitness>
44.6353

> <Gold.PLP.PLP>
-33.3372

> <Gold.PLP.part.hbond>
-3.0000

> <Gold.PLP.part.metal>
0.0000

> <Gold.PLP.part.buried>
-1.0039

> <Gold.PLP.part.nonpolar>
-30.3146

> <Gold.PLP.part.repulsive>
1.4517

> <Gold.PLP.ligand.clash>
0.0000

> <Gold.PLP.ligand.torsion>
0.3869

> <Gold.PLP.Chemscore.Hbond>
3.0000

> <Gold.PLP.Chemscore.CHOScore>
1.0000

> <Gold.PLP.Chemscore.Metal>
0.0000

> <Gold.Chemscore.Hbonds>
donor molecule, donor type, donor heavy atom, donor atom, acceptor molecule, acceptor atom, score
      L1  H     5    38       P1  8028  2.00
      L1  H     9    31       P1  7948  0.86
      L1  C    12    34       P1 10171  0.36

> <Gold.PLP.Chemscore.Internal.Correction>
0.0719

> <Gold.Rescore>
     Score         DG    S(hbond)    S(metal)    S(lipo)     H(rot)  DE(clash)    DE(int)     intcor
     13.07     -14.32       1.94        0.00      56.87       1.68       0.70       0.55       ----

> <Gold.Chemscore.Fitness>
13.0724

> <Gold.Chemscore.DG>
-14.3167

> <Gold.Chemscore.ZeroCoef>
-5.4800

> <Gold.Chemscore.Hbond>
1.9402

> <Gold.Chemscore.Metal>
0.0000

> <Gold.Chemscore.Lipo>
56.8747

> <Gold.Chemscore.Internal_Hbond>
0.0000

> <Gold.Chemscore.DEClash>
0.6987

> <Gold.Chemscore.DEInternal>
0.5455

> <Gold.Chemscore.Rot>
1.6789

> <Gold.Chemscore.Internal.Correction>
   9.000000E+99

> <Gold.Chemscore.Hbonds>
donor molecule, donor type, donor heavy atom, donor atom, acceptor molecule, acceptor atom, score
      L1  H     5    38       P1  8028  0.96
      L1  H     9    31       P1  7948  0.87

> <Gold.Chemscore.Hbond.Weighted>
-6.4804

> <Gold.Chemscore.Metal.Weighted>
-0.0000

> <Gold.Chemscore.Lipo.Weighted>
-6.6543

> <Gold.Chemscore.Internal_Hbond.Weighted>
0.0000

> <Gold.Chemscore.DEClash.Weighted>
0.6987

> <Gold.Chemscore.DEInternal.Weighted>
0.5455

> <Gold.Chemscore.Rot.Weighted>
4.2980

> <Gold.Chemscore.Internal.Correction.Weighted>
   9.000000E+99

> <Gold.Protein.RotatedTorsions>
[ 6907 6896 6895 6894 ] final   46.64 input  -60.11 | X-H torsion
[ 7974 7965 7964 7962 ] final  131.39 input  175.53 | X-H torsion
[ 8008 7997 7996 7995 ] final  -70.68 input   59.86 | X-H torsion
[ 10167 10162 10161 10158 ] final -137.20 input  -65.29 | X-H torsion
[ 10718 10713 10712 10709 ] final  -12.86 input   66.30 | X-H torsion
[ 10763 10752 10751 10750 ] final -113.12 input  -60.55 | X-H torsion
[ 11005 11000 10999 10996 ] final   -2.20 input  -57.11 | X-H torsion

> <Gold.Protein.ActiveResidues>
 VAL166  LYS551  ARG553  GLY616  TRP617  ASP618  TYR619  PRO620  LYS621  CYS622 
 ASP623  PHE694  ASN695  SER759  ASP760  ASP761  ALA762  ILE779  LEU786  VAL792 
 PHE793  MET794  SER795  GLU796  ALA797  LYS798  CYS799  TRP800  GLU811  SER814 

> <Gold.Protein.RotatedAtoms>
  152.2588  134.8056  160.0433 H   0  0  0  0  0  0  0  0  0  0  0  0  # atno 6907 bound_to 6896
  151.8709  133.3470  159.3743 H   0  0  0  0  0  0  0  0  0  0  0  0  # atno 6908 bound_to 6896
  150.7109  134.5040  159.5619 H   0  0  0  0  0  0  0  0  0  0  0  0  # atno 6909 bound_to 6896
  145.0078  139.4249  143.5260 H   0  0  0  0  0  0  0  0  0  0  0  0  # atno 7974 bound_to 7965
  154.5030  140.0830  156.7837 H   0  0  0  0  0  0  0  0  0  0  0  0  # atno 8008 bound_to 7997
  155.3959  140.3435  155.4236 H   0  0  0  0  0  0  0  0  0  0  0  0  # atno 8009 bound_to 7997
  156.1480  140.1549  156.8803 H   0  0  0  0  0  0  0  0  0  0  0  0  # atno 8010 bound_to 7997
  139.8601  143.7087  152.2651 H   0  0  0  0  0  0  0  0  0  0  0  0  # atno 10167 bound_to 10162
  156.6386  130.4921  149.6103 H   0  0  0  0  0  0  0  0  0  0  0  0  # atno 10718 bound_to 10713
  154.8382  135.4465  154.1301 H   0  0  0  0  0  0  0  0  0  0  0  0  # atno 10763 bound_to 10752
  153.2513  135.6927  153.7682 H   0  0  0  0  0  0  0  0  0  0  0  0  # atno 10764 bound_to 10752
  153.6993  135.3374  155.3196 H   0  0  0  0  0  0  0  0  0  0  0  0  # atno 10765 bound_to 10752
  140.6557  133.9365  155.8406 H   0  0  0  0  0  0  0  0  0  0  0  0  # atno 11005 bound_to 11000
  146.3464  139.9504  142.8729 LP  0  0  0  0  0  0  0  0  0  0  0  0  # atno 17320 bound_to 7965
  145.2065  140.9877  143.4125 LP  0  0  0  0  0  0  0  0  0  0  0  0  # atno 17321 bound_to 7965
  139.7382  144.7566  151.0695 LP  0  0  0  0  0  0  0  0  0  0  0  0  # atno 17342 bound_to 10162
  140.7776  143.5005  150.9777 LP  0  0  0  0  0  0  0  0  0  0  0  0  # atno 17343 bound_to 10162
  156.2177  130.6718  151.1336 LP  0  0  0  0  0  0  0  0  0  0  0  0  # atno 17370 bound_to 10713
  157.7178  131.0700  150.6258 LP  0  0  0  0  0  0  0  0  0  0  0  0  # atno 17371 bound_to 10713
  141.0503  134.0494  157.3792 LP  0  0  0  0  0  0  0  0  0  0  0  0  # atno 17394 bound_to 11000
  139.9030  135.0171  156.7358 LP  0  0  0  0  0  0  0  0  0  0  0  0  # atno 17395 bound_to 11000

$$$$
