AV-unprocessed.smi:1324|AV-procd|sdf|5469|dock1
  -GOLD-   22720 5 43D 1   1.00000     0.00000
 Structure written by MMmdl.
 43 44  0  0  0  0  0  0  0  0  1 V2000
  145.3555  138.0524  153.3709 C   0  0  0  0  0  0  0  0  0  0  0  0
  146.5168  138.9180  153.8113 C   0  0  0  0  0  0  0  0  0  0  0  0
  147.6932  138.4596  154.0878 N   0  0  0  0  0  0  0  0  0  0  0  0
  148.6912  139.3605  154.4848 C   0  0  0  0  0  0  0  0  0  0  0  0
  150.0456  138.7456  154.7921 C   0  0  0  0  0  0  0  0  0  0  0  0
  148.4475  140.7003  154.5842 C   0  0  0  0  0  0  0  0  0  0  0  0
  149.5125  141.7086  155.0147 C   0  0  0  0  0  0  0  0  0  0  0  0
  149.6948  141.9052  156.5224 C   0  0  0  0  0  0  0  0  0  0  0  0
  148.9114  141.3938  157.3231 O   0  0  0  0  0  0  0  0  0  0  0  0
  150.7448  142.6546  156.8922 N   0  0  0  0  0  0  0  0  0  0  0  0
  151.1296  142.9625  158.2684 C   0  0  0  0  0  0  0  0  0  0  0  0
  151.2131  144.4973  158.4406 C   0  0  0  0  0  0  0  0  0  0  0  0
  151.9482  145.0296  159.6844 C   0  0  0  0  0  0  0  0  0  0  0  0
  151.8028  144.1887  160.9619 C   0  0  0  0  0  0  0  0  0  0  0  0
  152.8321  143.0489  161.0396 C   0  0  0  0  0  0  0  0  0  0  0  0
  152.5441  141.8602  160.1120 C   0  0  0  0  0  0  0  0  0  0  0  0
  152.4283  142.2063  158.6163 C   0  0  0  0  0  0  0  0  0  0  0  0
  147.0996  141.2120  154.2703 C   0  0  0  0  0  0  0  0  0  0  0  0
  146.7695  142.3950  154.3365 O   0  0  0  0  0  0  0  0  0  0  0  0
  146.2027  140.2736  153.8923 N   0  0  0  0  0  0  0  0  0  0  0  0
  145.2659  140.5739  153.6652 H   0  0  0  0  0  0  0  0  0  0  0  0
  145.1014  137.3388  154.1550 H   0  0  0  0  0  0  0  0  0  0  0  0
  145.6229  137.4947  152.4733 H   0  0  0  0  0  0  0  0  0  0  0  0
  144.4690  138.6487  153.1502 H   0  0  0  0  0  0  0  0  0  0  0  0
  150.7991  139.1120  154.0949 H   0  0  0  0  0  0  0  0  0  0  0  0
  150.0149  137.6585  154.7097 H   0  0  0  0  0  0  0  0  0  0  0  0
  150.3597  138.9931  155.8063 H   0  0  0  0  0  0  0  0  0  0  0  0
  150.4726  141.3997  154.6012 H   0  0  0  0  0  0  0  0  0  0  0  0
  149.3158  142.6807  154.5605 H   0  0  0  0  0  0  0  0  0  0  0  0
  151.3290  143.0369  156.1628 H   0  0  0  0  0  0  0  0  0  0  0  0
  150.3420  142.5821  158.9220 H   0  0  0  0  0  0  0  0  0  0  0  0
  151.6859  144.9410  157.5629 H   0  0  0  0  0  0  0  0  0  0  0  0
  150.1954  144.8901  158.4496 H   0  0  0  0  0  0  0  0  0  0  0  0
  153.0072  145.1533  159.4542 H   0  0  0  0  0  0  0  0  0  0  0  0
  151.5821  146.0377  159.8826 H   0  0  0  0  0  0  0  0  0  0  0  0
  151.9737  144.8452  161.8157 H   0  0  0  0  0  0  0  0  0  0  0  0
  150.7850  143.8135  161.0748 H   0  0  0  0  0  0  0  0  0  0  0  0
  153.8312  143.4378  160.8392 H   0  0  0  0  0  0  0  0  0  0  0  0
  152.8620  142.6779  162.0647 H   0  0  0  0  0  0  0  0  0  0  0  0
  153.3466  141.1325  160.2373 H   0  0  0  0  0  0  0  0  0  0  0  0
  151.6368  141.3527  160.4414 H   0  0  0  0  0  0  0  0  0  0  0  0
  152.4435  141.2602  158.0728 H   0  0  0  0  0  0  0  0  0  0  0  0
  153.3045  142.7581  158.2738 H   0  0  0  0  0  0  0  0  0  0  0  0
  1  2  1  0  0  0  0
  1 22  1  0  0  0  0
  1 23  1  0  0  0  0
  1 24  1  0  0  0  0
  2 20  1  0  0  0  0
  2  3  2  0  0  0  0
  3  4  1  0  0  0  0
  4  5  1  0  0  0  0
  4  6  2  0  0  0  0
  5 25  1  0  0  0  0
  5 26  1  0  0  0  0
  5 27  1  0  0  0  0
  6  7  1  0  0  0  0
  6 18  1  0  0  0  0
  7  8  1  0  0  0  0
  7 28  1  0  0  0  0
  7 29  1  0  0  0  0
  8  9  2  0  0  0  0
  8 10  1  0  0  0  0
 10 11  1  0  0  0  0
 10 30  1  0  0  0  0
 11 17  1  0  0  0  0
 11 12  1  0  0  0  0
 11 31  1  0  0  0  0
 12 13  1  0  0  0  0
 12 32  1  0  0  0  0
 12 33  1  0  0  0  0
 13 14  1  0  0  0  0
 13 34  1  0  0  0  0
 13 35  1  0  0  0  0
 14 15  1  0  0  0  0
 14 36  1  0  0  0  0
 14 37  1  0  0  0  0
 15 16  1  0  0  0  0
 15 38  1  0  0  0  0
 15 39  1  0  0  0  0
 16 17  1  0  0  0  0
 16 40  1  0  0  0  0
 16 41  1  0  0  0  0
 17 42  1  0  0  0  0
 17 43  1  0  0  0  0
 18 19  2  0  0  0  0
 18 20  1  0  0  0  0
 20 21  1  0  0  0  0
M  END
> <s_m_source_file>
AV-unprocessed.smi

> <i_m_source_file_index>
1324

> <i_lp_mmshare_version>
43012

> <i_f3d_flags>
0

> <s_epik_input>
W0NIM11jMW5jKFtDSDNdKWMoYyg9TylbbkhdMSlbQ0gyXUMoPU8pW05IXVtDSF0yW0NIMl1bQ0gyXVtDSDJdW0NIMl1bQ0gyXVtDSDJdMg==

> <s_epik_cmdline>
J2VwaWtfcHl0aG9uJywgJy1waCcsICc3LjAnLCAnLXRuJywgJzgnLCAnLW1hJywgJzIwMCcsICctbWV0YWxfYmluZGluZycsICctaW1hZScsICc8aW5maWxlLm1hZT4nLCAnLW9tYWUnLCAnPG91dGZpbGUubWFlPic=

> <r_lp_tautomer_probability>
0.839158

> <r_epik_Ionization_Penalty>
0.000386947

> <r_epik_Ionization_Penalty_Charging>
0.000354181

> <r_epik_Ionization_Penalty_Neutral>
3.27662e-05

> <r_epik_State_Penalty>
0.0469431

> <r_epik_Charging_Adjusted_Penalty>
0.0472973

> <i_epik_Tot_Q>
0

> <i_epik_Tot_abs_Q>
0

> <r_epik_Metal_State_Penalty>
0.222645

> <b_epik_Metal_Only>
0

> <s_lp_Force_Field>
OPLS_2005

> <r_lp_Energy>
17.0371

> <b_lp_Chiralities_Consistent>
1

> <s_lp_Variant>
AV-unprocessed.smi:1324-1

> <Gold.Version>
5.8.1

> <Gold.Id.Protein>
6NUR|6NUR_protein|mol2

> <Gold.PLP.Fitness>
42.3271

> <Gold.PLP.PLP>
-40.4863

> <Gold.PLP.part.hbond>
-1.7921

> <Gold.PLP.part.metal>
0.0000

> <Gold.PLP.part.buried>
-3.5013

> <Gold.PLP.part.nonpolar>
-36.1965

> <Gold.PLP.part.repulsive>
0.8021

> <Gold.PLP.ligand.clash>
0.0000

> <Gold.PLP.ligand.torsion>
0.4808

> <Gold.PLP.Chemscore.Hbond>
0.9263

> <Gold.PLP.Chemscore.CHOScore>
0.0000

> <Gold.PLP.Chemscore.Metal>
0.0000

> <Gold.Chemscore.Hbonds>
donor molecule, donor type, donor heavy atom, donor atom, acceptor molecule, acceptor atom, score
      L1  H    20    21       P1 10175  1.00

> <Gold.PLP.Chemscore.Internal.Correction>
0.0236

> <Gold.Rescore>
     Score         DG    S(hbond)    S(metal)    S(lipo)     H(rot)  DE(clash)    DE(int)     intcor
     17.06     -17.55       0.98        0.00     107.65       1.48       0.08       0.42       ----

> <Gold.Chemscore.Fitness>
17.0558

> <Gold.Chemscore.DG>
-17.5544

> <Gold.Chemscore.ZeroCoef>
-5.4800

> <Gold.Chemscore.Hbond>
0.9786

> <Gold.Chemscore.Metal>
0.0000

> <Gold.Chemscore.Lipo>
107.6491

> <Gold.Chemscore.Internal_Hbond>
0.0000

> <Gold.Chemscore.DEClash>
0.0787

> <Gold.Chemscore.DEInternal>
0.4199

> <Gold.Chemscore.Rot>
1.4801

> <Gold.Chemscore.Internal.Correction>
   9.000000E+99

> <Gold.Chemscore.Hbonds>
donor molecule, donor type, donor heavy atom, donor atom, acceptor molecule, acceptor atom, score
      L1  H    20    21       P1 10175  0.91

> <Gold.Chemscore.Hbond.Weighted>
-3.2686

> <Gold.Chemscore.Metal.Weighted>
-0.0000

> <Gold.Chemscore.Lipo.Weighted>
-12.5949

> <Gold.Chemscore.Internal_Hbond.Weighted>
0.0000

> <Gold.Chemscore.DEClash.Weighted>
0.0787

> <Gold.Chemscore.DEInternal.Weighted>
0.4199

> <Gold.Chemscore.Rot.Weighted>
3.7891

> <Gold.Chemscore.Internal.Correction.Weighted>
   9.000000E+99

> <Gold.Protein.RotatedTorsions>
[ 6907 6896 6895 6894 ] final   25.93 input  -60.11 | X-H torsion
[ 7974 7965 7964 7962 ] final  113.97 input  175.53 | X-H torsion
[ 8008 7997 7996 7995 ] final -107.32 input   59.86 | X-H torsion
[ 10167 10162 10161 10158 ] final -172.91 input  -65.29 | X-H torsion
[ 10718 10713 10712 10709 ] final   88.73 input   66.30 | X-H torsion
[ 10763 10752 10751 10750 ] final  -95.00 input  -60.55 | X-H torsion
[ 11005 11000 10999 10996 ] final  -33.73 input  -57.11 | X-H torsion

> <Gold.Protein.ActiveResidues>
 VAL166  LYS551  ARG553  GLY616  TRP617  ASP618  TYR619  PRO620  LYS621  CYS622 
 ASP623  PHE694  ASN695  SER759  ASP760  ASP761  ALA762  ILE779  LEU786  VAL792 
 PHE793  MET794  SER795  GLU796  ALA797  LYS798  CYS799  TRP800  GLU811  SER814 

> <Gold.Protein.RotatedAtoms>
  151.9798  135.0034  160.0556 H   0  0  0  0  0  0  0  0  0  0  0  0  # atno 6907 bound_to 6896
  152.1706  133.4636  159.4915 H   0  0  0  0  0  0  0  0  0  0  0  0  # atno 6908 bound_to 6896
  150.6901  134.1875  159.4315 H   0  0  0  0  0  0  0  0  0  0  0  0  # atno 6909 bound_to 6896
  145.2103  139.2909  143.4272 H   0  0  0  0  0  0  0  0  0  0  0  0  # atno 7974 bound_to 7965
  154.9276  140.0406  157.2031 H   0  0  0  0  0  0  0  0  0  0  0  0  # atno 8008 bound_to 7997
  154.8193  140.2881  155.5777 H   0  0  0  0  0  0  0  0  0  0  0  0  # atno 8009 bound_to 7997
  156.2978  140.2522  156.3096 H   0  0  0  0  0  0  0  0  0  0  0  0  # atno 8010 bound_to 7997
  139.5718  144.1625  152.1394 H   0  0  0  0  0  0  0  0  0  0  0  0  # atno 10167 bound_to 10162
  157.6951  131.0306  150.3318 H   0  0  0  0  0  0  0  0  0  0  0  0  # atno 10718 bound_to 10713
  154.7107  135.5137  153.8663 H   0  0  0  0  0  0  0  0  0  0  0  0  # atno 10763 bound_to 10752
  153.0778  135.6622  154.0117 H   0  0  0  0  0  0  0  0  0  0  0  0  # atno 10764 bound_to 10752
  153.9959  135.3015  155.3387 H   0  0  0  0  0  0  0  0  0  0  0  0  # atno 10765 bound_to 10752
  140.9659  133.7137  156.1444 H   0  0  0  0  0  0  0  0  0  0  0  0  # atno 11005 bound_to 11000
  146.3399  140.2376  142.8595 LP  0  0  0  0  0  0  0  0  0  0  0  0  # atno 17320 bound_to 7965
  144.9862  140.8505  143.5367 LP  0  0  0  0  0  0  0  0  0  0  0  0  # atno 17321 bound_to 7965
  140.1159  144.5416  150.6894 LP  0  0  0  0  0  0  0  0  0  0  0  0  # atno 17342 bound_to 10162
  140.7002  143.2429  151.4887 LP  0  0  0  0  0  0  0  0  0  0  0  0  # atno 17343 bound_to 10162
  156.3791  130.3877  149.7116 LP  0  0  0  0  0  0  0  0  0  0  0  0  # atno 17370 bound_to 10713
  156.4504  130.7904  151.2925 LP  0  0  0  0  0  0  0  0  0  0  0  0  # atno 17371 bound_to 10713
  140.7400  134.4160  157.5556 LP  0  0  0  0  0  0  0  0  0  0  0  0  # atno 17394 bound_to 11000
  139.8894  134.8831  156.2422 LP  0  0  0  0  0  0  0  0  0  0  0  0  # atno 17395 bound_to 11000

$$$$
