AV-unprocessed.smi:54|AV-procd|sdf|537|dock3
  -GOLD-   2262016423D 1   1.00000     0.00000
 Structure written by MMmdl.
 44 46  0  0  0  0  0  0  0  0  1 V2000
  150.5967  144.6390  159.7978 C   0  0  0  0  0  0  0  0  0  0  0  0
  151.8175  143.8311  159.3284 C   0  0  0  0  0  0  0  0  0  0  0  0
  152.7340  144.6760  158.4287 C   0  0  0  0  0  0  0  0  0  0  0  0
  151.3675  142.5582  158.6037 C   0  0  0  0  0  0  0  0  0  0  0  0
  151.4153  141.4494  159.1369 O   0  0  0  0  0  0  0  0  0  0  0  0
  150.8688  142.7471  157.2559 N   0  0  0  0  0  0  0  0  0  0  0  0
  150.4544  141.7734  156.4161 C   0  0  0  0  0  0  0  0  0  0  0  0
  150.8439  140.5132  156.5429 N   0  0  0  0  0  0  0  0  0  0  0  0
  150.3460  139.6651  155.5912 C   0  0  0  0  0  0  0  0  0  0  0  0
  149.5071  140.0071  154.5496 C   0  0  0  0  0  0  0  0  0  0  0  0
  149.2064  138.8860  153.7848 N   0  0  0  0  0  0  0  0  0  0  0  0
  149.8661  137.9230  154.3642 C   0  0  0  0  0  0  0  0  0  0  0  0
  150.5899  138.3100  155.4655 N   0  0  0  0  0  0  0  0  0  0  0  0
  151.4628  137.4501  156.3254 C   0  0  2  0  0  0  0  0  0  0  0  0
  151.2101  137.7157  157.6664 O   0  0  0  0  0  0  0  0  0  0  0  0
  152.3761  137.4188  158.4298 C   0  0  2  0  0  0  0  0  0  0  0  0
  152.5627  138.4964  159.5140 C   0  0  0  0  0  0  0  0  0  0  0  0
  153.7144  138.2652  160.3000 O   0  0  0  0  0  0  0  0  0  0  0  0
  153.5471  137.2587  157.4371 C   0  0  1  0  0  0  0  0  0  0  0  0
  153.9291  135.8970  157.3758 O   0  0  0  0  0  0  0  0  0  0  0  0
  152.9606  137.6948  156.1002 C   0  0  2  0  0  0  0  0  0  0  0  0
  153.2725  139.0481  155.8260 O   0  0  0  0  0  0  0  0  0  0  0  0
  149.0877  141.3702  154.3944 C   0  0  0  0  0  0  0  0  0  0  0  0
  148.3553  141.8479  153.5306 O   0  0  0  0  0  0  0  0  0  0  0  0
  149.6219  142.2039  155.3844 N   0  0  0  0  0  0  0  0  0  0  0  0
  151.1666  136.4249  156.0981 H   0  0  0  0  0  0  0  0  0  0  0  0
  152.1805  136.4710  158.9346 H   0  0  0  0  0  0  0  0  0  0  0  0
  154.4292  137.8380  157.7135 H   0  0  0  0  0  0  0  0  0  0  0  0
  153.3128  137.0910  155.2627 H   0  0  0  0  0  0  0  0  0  0  0  0
  149.9404  144.0368  160.4276 H   0  0  0  0  0  0  0  0  0  0  0  0
  150.0078  145.0017  158.9543 H   0  0  0  0  0  0  0  0  0  0  0  0
  150.9044  145.5063  160.3825 H   0  0  0  0  0  0  0  0  0  0  0  0
  152.3882  143.5374  160.2106 H   0  0  0  0  0  0  0  0  0  0  0  0
  153.5957  144.1010  158.0875 H   0  0  0  0  0  0  0  0  0  0  0  0
  153.1141  145.5444  158.9672 H   0  0  0  0  0  0  0  0  0  0  0  0
  152.2059  145.0407  157.5465 H   0  0  0  0  0  0  0  0  0  0  0  0
  150.7757  143.7009  156.9394 H   0  0  0  0  0  0  0  0  0  0  0  0
  149.8500  136.9066  153.9985 H   0  0  0  0  0  0  0  0  0  0  0  0
  152.6164  139.4876  159.0638 H   0  0  0  0  0  0  0  0  0  0  0  0
  151.7013  138.4974  160.1819 H   0  0  0  0  0  0  0  0  0  0  0  0
  153.6706  138.8193  161.0641 H   0  0  0  0  0  0  0  0  0  0  0  0
  153.7847  135.5043  158.2229 H   0  0  0  0  0  0  0  0  0  0  0  0
  152.9120  139.2687  154.9797 H   0  0  0  0  0  0  0  0  0  0  0  0
  149.3708  143.1804  155.3375 H   0  0  0  0  0  0  0  0  0  0  0  0
  1  2  1  0  0  0  0
  1 30  1  0  0  0  0
  1 31  1  0  0  0  0
  1 32  1  0  0  0  0
  2  3  1  0  0  0  0
  2  4  1  0  0  0  0
  2 33  1  0  0  0  0
  3 34  1  0  0  0  0
  3 35  1  0  0  0  0
  3 36  1  0  0  0  0
  4  5  2  0  0  0  0
  4  6  1  0  0  0  0
  6 37  1  0  0  0  0
  6  7  1  0  0  0  0
  7 25  1  0  0  0  0
  7  8  2  0  0  0  0
  8  9  1  0  0  0  0
  9 13  1  0  0  0  0
  9 10  2  0  0  0  0
 10 11  1  0  0  0  0
 10 23  1  0  0  0  0
 11 12  2  0  0  0  0
 12 13  1  0  0  0  0
 12 38  1  0  0  0  0
 13 14  1  0  0  0  0
 14 26  1  0  0  0  0
 14 21  1  0  0  0  0
 14 15  1  0  0  0  0
 15 16  1  0  0  0  0
 16 27  1  0  0  0  0
 16 17  1  0  0  0  0
 16 19  1  0  0  0  0
 17 18  1  0  0  0  0
 17 39  1  0  0  0  0
 17 40  1  0  0  0  0
 18 41  1  0  0  0  0
 19 28  1  0  0  0  0
 19 20  1  0  0  0  0
 19 21  1  0  0  0  0
 20 42  1  0  0  0  0
 21 29  1  0  0  0  0
 21 22  1  0  0  0  0
 22 43  1  0  0  0  0
 23 24  2  0  0  0  0
 23 25  1  0  0  0  0
 25 44  1  0  0  0  0
M  END
> <s_m_source_file>
AV-unprocessed.smi

> <i_m_source_file_index>
54

> <i_lp_mmshare_version>
43012

> <i_f3d_flags>
0

> <s_epik_input>
W0NIM11bQ0hdKFtDSDNdKUMoPU8pW05IXWMobjEpW25IXWMoPU8pYyhjMTIpbltjSF1uMltDQEBIXTNPW0NASF0oW0NIMl1bT0hdKVtDQEBIXShbT0hdKVtDQEhdM1tPSF0=

> <s_epik_cmdline>
J2VwaWtfcHl0aG9uJywgJy1waCcsICc3LjAnLCAnLXRuJywgJzgnLCAnLW1hJywgJzIwMCcsICctbWV0YWxfYmluZGluZycsICctaW1hZScsICc8aW5maWxlLm1hZT4nLCAnLW9tYWUnLCAnPG91dGZpbGUubWFlPic=

> <r_lp_tautomer_probability>
0.85571

> <r_epik_Ionization_Penalty>
0.0316551

> <r_epik_Ionization_Penalty_Charging>
0.0316043

> <r_epik_Ionization_Penalty_Neutral>
5.07097e-05

> <r_epik_State_Penalty>
3.15494e-07

> <r_epik_Charging_Adjusted_Penalty>
0.0316047

> <i_epik_Tot_Q>
0

> <i_epik_Tot_abs_Q>
0

> <r_epik_Metal_State_Penalty>
0.421206

> <b_epik_Metal_Only>
0

> <s_epik_Chemistry_Notes>
This compound contains an acetal/aminal-like group ( X-CH(R)-Y where X, Y are N, S, or O) that may be acid/base labile, releasing an aldehyde.

> <s_lp_Force_Field>
OPLS_2005

> <r_lp_Energy>
42.9464

> <b_lp_Chiralities_Consistent>
1

> <s_lp_Variant>
AV-unprocessed.smi:54-9

> <Gold.Version>
5.8.1

> <Gold.Id.Protein>
6NUR|6NUR_protein|mol2

> <Gold.PLP.Fitness>
46.4546

> <Gold.PLP.PLP>
-34.9560

> <Gold.PLP.part.hbond>
-4.3118

> <Gold.PLP.part.metal>
0.0000

> <Gold.PLP.part.buried>
-4.7156

> <Gold.PLP.part.nonpolar>
-28.1151

> <Gold.PLP.part.repulsive>
1.8013

> <Gold.PLP.ligand.clash>
0.0011

> <Gold.PLP.ligand.torsion>
0.7816

> <Gold.PLP.Chemscore.Hbond>
3.4488

> <Gold.PLP.Chemscore.CHOScore>
0.8869

> <Gold.PLP.Chemscore.Metal>
0.0000

> <Gold.Chemscore.Hbonds>
donor molecule, donor type, donor heavy atom, donor atom, acceptor molecule, acceptor atom, score
      L1  H    25    44       P1  8028  1.00
      P1  H  7997  8009       L1    22  1.00
      P1  H  8011  8017       L1    24  0.45
      P1  H 10752 10763       L1    20  0.96
      L1  C    12    38       P1  7948  0.90

> <Gold.PLP.Chemscore.Internal.Correction>
0.0556

> <Gold.Rescore>
     Score         DG    S(hbond)    S(metal)    S(lipo)     H(rot)  DE(clash)    DE(int)     intcor
     11.09     -14.17       3.48        0.00      63.68       4.05       0.07       3.01       ----

> <Gold.Chemscore.Fitness>
11.0931

> <Gold.Chemscore.DG>
-14.1746

> <Gold.Chemscore.ZeroCoef>
-5.4800

> <Gold.Chemscore.Hbond>
3.4760

> <Gold.Chemscore.Metal>
0.0000

> <Gold.Chemscore.Lipo>
63.6834

> <Gold.Chemscore.Internal_Hbond>
0.0000

> <Gold.Chemscore.DEClash>
0.0742

> <Gold.Chemscore.DEInternal>
3.0072

> <Gold.Chemscore.Rot>
4.0493

> <Gold.Chemscore.Internal.Correction>
   9.000000E+99

> <Gold.Chemscore.Hbonds>
donor molecule, donor type, donor heavy atom, donor atom, acceptor molecule, acceptor atom, score
      L1  H     6    37       P1  8028  0.01
      L1  H    25    44       P1  8028  1.00
      P1  H  7997  8009       L1    22  0.85
      P1  H  8011  8017       L1    24  0.08
      P1  H 10752 10763       L1    20  0.60

> <Gold.Chemscore.Hbond.Weighted>
-11.6098

> <Gold.Chemscore.Metal.Weighted>
-0.0000

> <Gold.Chemscore.Lipo.Weighted>
-7.4510

> <Gold.Chemscore.Internal_Hbond.Weighted>
0.0000

> <Gold.Chemscore.DEClash.Weighted>
0.0742

> <Gold.Chemscore.DEInternal.Weighted>
3.0072

> <Gold.Chemscore.Rot.Weighted>
10.3662

> <Gold.Chemscore.Internal.Correction.Weighted>
   9.000000E+99

> <Gold.Protein.RotatedTorsions>
[ 6907 6896 6895 6894 ] final -122.72 input  -60.11 | X-H torsion
[ 7974 7965 7964 7962 ] final  -99.48 input  175.53 | X-H torsion
[ 8008 7997 7996 7995 ] final -166.40 input   59.86 | X-H torsion
[ 10167 10162 10161 10158 ] final  -41.54 input  -65.29 | X-H torsion
[ 10718 10713 10712 10709 ] final   27.46 input   66.30 | X-H torsion
[ 10763 10752 10751 10750 ] final  140.04 input  -60.55 | X-H torsion
[ 11005 11000 10999 10996 ] final  103.93 input  -57.11 | X-H torsion

> <Gold.Protein.ActiveResidues>
 VAL166  LYS551  ARG553  GLY616  TRP617  ASP618  TYR619  PRO620  LYS621  CYS622 
 ASP623  PHE694  ASN695  SER759  ASP760  ASP761  ALA762  ILE779  LEU786  VAL792 
 PHE793  MET794  SER795  GLU796  ALA797  LYS798  CYS799  TRP800  GLU811  SER814 

> <Gold.Protein.RotatedAtoms>
  150.8602  133.7655  159.2994 H   0  0  0  0  0  0  0  0  0  0  0  0  # atno 6907 bound_to 6896
  151.5299  135.1066  159.9909 H   0  0  0  0  0  0  0  0  0  0  0  0  # atno 6908 bound_to 6896
  152.4621  133.7799  159.6901 H   0  0  0  0  0  0  0  0  0  0  0  0  # atno 6909 bound_to 6896
  145.3070  140.9391  143.2791 H   0  0  0  0  0  0  0  0  0  0  0  0  # atno 7974 bound_to 7965
  155.8634  140.0981  157.1598 H   0  0  0  0  0  0  0  0  0  0  0  0  # atno 8008 bound_to 7997
  154.3992  140.1361  156.4051 H   0  0  0  0  0  0  0  0  0  0  0  0  # atno 8009 bound_to 7997
  155.7832  140.3458  155.5311 H   0  0  0  0  0  0  0  0  0  0  0  0  # atno 8010 bound_to 7997
  140.6999  143.3088  151.3082 H   0  0  0  0  0  0  0  0  0  0  0  0  # atno 10167 bound_to 10162
  157.2205  130.6977  149.6268 H   0  0  0  0  0  0  0  0  0  0  0  0  # atno 10718 bound_to 10713
  153.9161  135.3006  155.3448 H   0  0  0  0  0  0  0  0  0  0  0  0  # atno 10763 bound_to 10752
  154.7599  135.4939  153.9448 H   0  0  0  0  0  0  0  0  0  0  0  0  # atno 10764 bound_to 10752
  153.1167  135.6772  153.9508 H   0  0  0  0  0  0  0  0  0  0  0  0  # atno 10765 bound_to 10752
  139.8787  134.9282  156.5285 H   0  0  0  0  0  0  0  0  0  0  0  0  # atno 11005 bound_to 11000
  144.9047  139.4605  143.6616 LP  0  0  0  0  0  0  0  0  0  0  0  0  # atno 17320 bound_to 7965
  146.3131  139.7820  142.9004 LP  0  0  0  0  0  0  0  0  0  0  0  0  # atno 17321 bound_to 7965
  139.6504  144.0373  152.2622 LP  0  0  0  0  0  0  0  0  0  0  0  0  # atno 17342 bound_to 10162
  139.9907  144.6363  150.7816 LP  0  0  0  0  0  0  0  0  0  0  0  0  # atno 17343 bound_to 10162
  155.9682  130.4521  150.5762 LP  0  0  0  0  0  0  0  0  0  0  0  0  # atno 17370 bound_to 10713
  157.3580  131.0745  151.1659 LP  0  0  0  0  0  0  0  0  0  0  0  0  # atno 17371 bound_to 10713
  140.8398  133.8214  155.9064 LP  0  0  0  0  0  0  0  0  0  0  0  0  # atno 17394 bound_to 11000
  140.9248  134.2096  157.4903 LP  0  0  0  0  0  0  0  0  0  0  0  0  # atno 17395 bound_to 11000

$$$$
