AV-unprocessed.smi:951|AV-procd|sdf|4251|dock6
  -GOLD-   22720 2153D 1   1.00000     0.00000
 Structure written by MMmdl.
 51 53  0  0  0  0  0  0  0  0  1 V2000
  147.6297  140.5201  158.2015 O   0  0  0  0  0  0  0  0  0  0  0  0
  148.4681  139.9360  157.5156 C   0  0  0  0  0  0  0  0  0  0  0  0
  148.6296  138.6031  157.5529 N   0  0  0  0  0  0  0  0  0  0  0  0
  147.8668  137.6915  158.3912 C   0  0  0  0  0  0  0  0  0  0  0  0
  148.8094  136.8917  159.3010 C   0  0  0  0  0  0  0  0  0  0  0  0
  148.1021  136.3521  160.5294 C   0  0  0  0  0  0  0  0  0  0  0  0
  147.9511  134.9622  160.7228 C   0  0  0  0  0  0  0  0  0  0  0  0
  147.2932  134.5142  161.8848 C   0  0  0  0  0  0  0  0  0  0  0  0
  146.8147  135.4680  162.8036 C   0  0  0  0  0  0  0  0  0  0  0  0
  147.0167  136.8334  162.5190 C   0  0  0  0  0  0  0  0  0  0  0  0
  147.6456  137.2734  161.4077 N   0  0  0  0  0  0  0  0  0  0  0  0
  149.3868  140.7581  156.5818 C   0  0  2  0  0  0  0  0  0  0  0  0
  148.9547  140.5937  155.1169 C   0  0  0  0  0  0  0  0  0  0  0  0
  149.7842  139.4234  154.6135 C   0  0  0  0  0  0  0  0  0  0  0  0
  151.1019  139.5517  155.3791 C   0  0  0  0  0  0  0  0  0  0  0  0
  150.7941  140.3199  156.5901 N   0  0  0  0  0  0  0  0  0  0  0  0
  151.6665  140.6181  157.5831 C   0  0  0  0  0  0  0  0  0  0  0  0
  152.8241  140.1995  157.5627 O   0  0  0  0  0  0  0  0  0  0  0  0
  151.2034  141.5220  158.7504 C   0  0  0  0  0  0  0  0  0  0  0  0
  150.7031  142.8935  158.2380 C   0  0  0  0  0  0  0  0  0  0  0  0
  151.8476  143.8366  157.8289 C   0  0  0  0  0  0  0  0  0  0  0  0
  152.8246  144.0467  158.9946 C   0  0  0  0  0  0  0  0  0  0  0  0
  153.3942  142.7093  159.4896 C   0  0  0  0  0  0  0  0  0  0  0  0
  152.2747  141.7122  159.8558 C   0  0  0  0  0  0  0  0  0  0  0  0
  149.3407  138.1958  156.9631 H   0  0  0  0  0  0  0  0  0  0  0  0
  147.1564  138.2584  158.9952 H   0  0  0  0  0  0  0  0  0  0  0  0
  147.2895  137.0178  157.7560 H   0  0  0  0  0  0  0  0  0  0  0  0
  149.2435  136.0567  158.7486 H   0  0  0  0  0  0  0  0  0  0  0  0
  149.6456  137.5184  159.6147 H   0  0  0  0  0  0  0  0  0  0  0  0
  148.3319  134.2549  160.0007 H   0  0  0  0  0  0  0  0  0  0  0  0
  147.1591  133.4585  162.0687 H   0  0  0  0  0  0  0  0  0  0  0  0
  146.3059  135.1612  163.7054 H   0  0  0  0  0  0  0  0  0  0  0  0
  146.6641  137.5924  163.2017 H   0  0  0  0  0  0  0  0  0  0  0  0
  149.3103  141.8089  156.8674 H   0  0  0  0  0  0  0  0  0  0  0  0
  147.8835  140.4344  154.9838 H   0  0  0  0  0  0  0  0  0  0  0  0
  149.2188  141.4927  154.5583 H   0  0  0  0  0  0  0  0  0  0  0  0
  149.2935  138.4865  154.8807 H   0  0  0  0  0  0  0  0  0  0  0  0
  149.9200  139.4319  153.5317 H   0  0  0  0  0  0  0  0  0  0  0  0
  151.5209  138.5709  155.6059 H   0  0  0  0  0  0  0  0  0  0  0  0
  151.8255  140.1046  154.7788 H   0  0  0  0  0  0  0  0  0  0  0  0
  150.3678  141.0267  159.2427 H   0  0  0  0  0  0  0  0  0  0  0  0
  150.0251  142.7633  157.3936 H   0  0  0  0  0  0  0  0  0  0  0  0
  150.1119  143.3703  159.0208 H   0  0  0  0  0  0  0  0  0  0  0  0
  152.3796  143.4320  156.9669 H   0  0  0  0  0  0  0  0  0  0  0  0
  151.4387  144.7964  157.5127 H   0  0  0  0  0  0  0  0  0  0  0  0
  153.6371  144.7049  158.6859 H   0  0  0  0  0  0  0  0  0  0  0  0
  152.3118  144.5514  159.8145 H   0  0  0  0  0  0  0  0  0  0  0  0
  154.0479  142.2889  158.7264 H   0  0  0  0  0  0  0  0  0  0  0  0
  154.0282  142.8812  160.3598 H   0  0  0  0  0  0  0  0  0  0  0  0
  151.7778  142.0697  160.7585 H   0  0  0  0  0  0  0  0  0  0  0  0
  152.7143  140.7507  160.1247 H   0  0  0  0  0  0  0  0  0  0  0  0
  1  2  2  0  0  0  0
  2  3  1  0  0  0  0
  2 12  1  0  0  0  0
  3  4  1  0  0  0  0
  3 25  1  0  0  0  0
  4  5  1  0  0  0  0
  4 26  1  0  0  0  0
  4 27  1  0  0  0  0
  5  6  1  0  0  0  0
  5 28  1  0  0  0  0
  5 29  1  0  0  0  0
  6 11  1  0  0  0  0
  6  7  2  0  0  0  0
  7  8  1  0  0  0  0
  7 30  1  0  0  0  0
  8  9  2  0  0  0  0
  8 31  1  0  0  0  0
  9 10  1  0  0  0  0
  9 32  1  0  0  0  0
 10 11  2  0  0  0  0
 10 33  1  0  0  0  0
 12 16  1  0  0  0  0
 12 13  1  0  0  0  0
 12 34  1  0  0  0  0
 13 14  1  0  0  0  0
 13 35  1  0  0  0  0
 13 36  1  0  0  0  0
 14 15  1  0  0  0  0
 14 37  1  0  0  0  0
 14 38  1  0  0  0  0
 15 16  1  0  0  0  0
 15 39  1  0  0  0  0
 15 40  1  0  0  0  0
 16 17  1  0  0  0  0
 17 18  2  0  0  0  0
 17 19  1  0  0  0  0
 19 24  1  0  0  0  0
 19 20  1  0  0  0  0
 19 41  1  0  0  0  0
 20 21  1  0  0  0  0
 20 42  1  0  0  0  0
 20 43  1  0  0  0  0
 21 22  1  0  0  0  0
 21 44  1  0  0  0  0
 21 45  1  0  0  0  0
 22 23  1  0  0  0  0
 22 46  1  0  0  0  0
 22 47  1  0  0  0  0
 23 24  1  0  0  0  0
 23 48  1  0  0  0  0
 23 49  1  0  0  0  0
 24 50  1  0  0  0  0
 24 51  1  0  0  0  0
M  END
> <s_m_source_file>
AV-unprocessed.smi

> <i_m_source_file_index>
951

> <i_lp_mmshare_version>
43012

> <i_f3d_flags>
0

> <s_epik_input>
bjFbY0hdW2NIXVtjSF1bY0hdYzFbQ0gyXVtDSDJdW05IXUMoPU8pW0NAQEhdMltDSDJdW0NIMl1bQ0gyXU4yQyg9TylbQ0hdM1tDSDJdW0NIMl1bQ0gyXVtDSDJdW0NIMl0z

> <s_epik_cmdline>
J2VwaWtfcHl0aG9uJywgJy1waCcsICc3LjAnLCAnLXRuJywgJzgnLCAnLW1hJywgJzIwMCcsICctbWV0YWxfYmluZGluZycsICctaW1hZScsICc8aW5maWxlLm1hZT4nLCAnLW9tYWUnLCAnPG91dGZpbGUubWFlPic=

> <r_epik_Ionization_Penalty>
0.0265505

> <r_epik_Ionization_Penalty_Charging>
0

> <r_epik_Ionization_Penalty_Neutral>
0.0265505

> <r_epik_State_Penalty>
0.02168

> <r_epik_Charging_Adjusted_Penalty>
0.02168

> <i_epik_Tot_Q>
0

> <i_epik_Tot_abs_Q>
0

> <r_epik_Metal_State_Penalty>
0.020746

> <b_epik_Metal_Only>
0

> <s_lp_Force_Field>
OPLS_2005

> <r_lp_Energy>
18.972

> <b_lp_Chiralities_Consistent>
1

> <s_lp_Variant>
AV-unprocessed.smi:951-1

> <Gold.Version>
5.8.1

> <Gold.Id.Protein>
6NUR|6NUR_protein|mol2

> <Gold.PLP.Fitness>
58.3683

> <Gold.PLP.PLP>
-51.0827

> <Gold.PLP.part.hbond>
-4.0000

> <Gold.PLP.part.metal>
0.0000

> <Gold.PLP.part.buried>
-3.9751

> <Gold.PLP.part.nonpolar>
-42.9892

> <Gold.PLP.part.repulsive>
0.0755

> <Gold.PLP.ligand.clash>
0.0000

> <Gold.PLP.ligand.torsion>
0.6001

> <Gold.PLP.Chemscore.Hbond>
2.8080

> <Gold.PLP.Chemscore.CHOScore>
0.0000

> <Gold.PLP.Chemscore.Metal>
0.0000

> <Gold.Chemscore.Hbonds>
donor molecule, donor type, donor heavy atom, donor atom, acceptor molecule, acceptor atom, score
      P1  H  6931  6943       L1    11  0.93
      P1  H  6934  6947       L1    11  0.80
      P1  H  7997  8009       L1    18  1.00

> <Gold.PLP.Chemscore.Internal.Correction>
0.0618

> <Gold.Rescore>
     Score         DG    S(hbond)    S(metal)    S(lipo)     H(rot)  DE(clash)    DE(int)     intcor
     22.85     -24.43       2.26        0.00     131.36       1.55       0.18       1.40       ----

> <Gold.Chemscore.Fitness>
22.8492

> <Gold.Chemscore.DG>
-24.4301

> <Gold.Chemscore.ZeroCoef>
-5.4800

> <Gold.Chemscore.Hbond>
2.2604

> <Gold.Chemscore.Metal>
0.0000

> <Gold.Chemscore.Lipo>
131.3649

> <Gold.Chemscore.Internal_Hbond>
0.0000

> <Gold.Chemscore.DEClash>
0.1794

> <Gold.Chemscore.DEInternal>
1.4015

> <Gold.Chemscore.Rot>
1.5506

> <Gold.Chemscore.Internal.Correction>
   9.000000E+99

> <Gold.Chemscore.Hbonds>
donor molecule, donor type, donor heavy atom, donor atom, acceptor molecule, acceptor atom, score
      P1  H  6931  6943       L1    11  0.39
      P1  H  6934  6947       L1    11  0.68
      P1  H  7997  8009       L1    18  0.94

> <Gold.Chemscore.Hbond.Weighted>
-7.5499

> <Gold.Chemscore.Metal.Weighted>
-0.0000

> <Gold.Chemscore.Lipo.Weighted>
-15.3697

> <Gold.Chemscore.Internal_Hbond.Weighted>
0.0000

> <Gold.Chemscore.DEClash.Weighted>
0.1794

> <Gold.Chemscore.DEInternal.Weighted>
1.4015

> <Gold.Chemscore.Rot.Weighted>
3.9695

> <Gold.Chemscore.Internal.Correction.Weighted>
   9.000000E+99

> <Gold.Protein.RotatedTorsions>
[ 6907 6896 6895 6894 ] final   61.89 input  -60.11 | X-H torsion
[ 7974 7965 7964 7962 ] final   -3.64 input  175.53 | X-H torsion
[ 8008 7997 7996 7995 ] final  171.83 input   59.86 | X-H torsion
[ 10167 10162 10161 10158 ] final -130.96 input  -65.29 | X-H torsion
[ 10718 10713 10712 10709 ] final -179.77 input   66.30 | X-H torsion
[ 10763 10752 10751 10750 ] final  -79.26 input  -60.55 | X-H torsion
[ 11005 11000 10999 10996 ] final  113.95 input  -57.11 | X-H torsion

> <Gold.Protein.ActiveResidues>
 VAL166  LYS551  ARG553  GLY616  TRP617  ASP618  TYR619  PRO620  LYS621  CYS622 
 ASP623  PHE694  ASN695  SER759  ASP760  ASP761  ALA762  ILE779  LEU786  VAL792 
 PHE793  MET794  SER795  GLU796  ALA797  LYS798  CYS799  TRP800  GLU811  SER814 

> <Gold.Protein.RotatedAtoms>
  152.4126  134.6097  160.0022 H   0  0  0  0  0  0  0  0  0  0  0  0  # atno 6907 bound_to 6896
  151.6270  133.3329  159.3108 H   0  0  0  0  0  0  0  0  0  0  0  0  # atno 6908 bound_to 6896
  150.8016  134.7154  159.6672 H   0  0  0  0  0  0  0  0  0  0  0  0  # atno 6909 bound_to 6896
  146.2386  140.1752  142.8332 H   0  0  0  0  0  0  0  0  0  0  0  0  # atno 7974 bound_to 7965
  156.1233  140.1501  156.9172 H   0  0  0  0  0  0  0  0  0  0  0  0  # atno 8008 bound_to 7997
  154.4852  140.0867  156.7512 H   0  0  0  0  0  0  0  0  0  0  0  0  # atno 8009 bound_to 7997
  155.4388  140.3430  155.4290 H   0  0  0  0  0  0  0  0  0  0  0  0  # atno 8010 bound_to 7997
  139.9239  143.6350  152.2547 H   0  0  0  0  0  0  0  0  0  0  0  0  # atno 10167 bound_to 10162
  156.8641  130.9761  151.3080 H   0  0  0  0  0  0  0  0  0  0  0  0  # atno 10718 bound_to 10713
  154.5364  135.5701  153.6802 H   0  0  0  0  0  0  0  0  0  0  0  0  # atno 10763 bound_to 10752
  152.9952  135.6217  154.2561 H   0  0  0  0  0  0  0  0  0  0  0  0  # atno 10764 bound_to 10752
  154.2490  135.2860  155.2804 H   0  0  0  0  0  0  0  0  0  0  0  0  # atno 10765 bound_to 10752
  139.8967  134.9559  156.6818 H   0  0  0  0  0  0  0  0  0  0  0  0  # atno 11005 bound_to 11000
  144.9979  140.8606  143.5299 LP  0  0  0  0  0  0  0  0  0  0  0  0  # atno 17320 bound_to 7965
  145.1767  139.2374  143.5314 LP  0  0  0  0  0  0  0  0  0  0  0  0  # atno 17321 bound_to 7965
  139.6838  144.7653  151.1560 LP  0  0  0  0  0  0  0  0  0  0  0  0  # atno 17342 bound_to 10162
  140.7655  143.5686  150.9020 LP  0  0  0  0  0  0  0  0  0  0  0  0  # atno 17343 bound_to 10162
  157.6233  130.8672  149.9146 LP  0  0  0  0  0  0  0  0  0  0  0  0  # atno 17370 bound_to 10713
  156.0761  130.3679  150.0675 LP  0  0  0  0  0  0  0  0  0  0  0  0  # atno 17371 bound_to 10713
  140.7293  133.9072  155.8200 LP  0  0  0  0  0  0  0  0  0  0  0  0  # atno 17394 bound_to 11000
  141.0165  134.0948  157.4166 LP  0  0  0  0  0  0  0  0  0  0  0  0  # atno 17395 bound_to 11000

$$$$
