AV-unprocessed.smi:1684|AV-procd|sdf|6753|dock7
  -GOLD-   22720 7513D 1   1.00000     0.00000
 Structure written by MMmdl.
 42 43  0  0  0  0  0  0  0  0  1 V2000
  150.7053  145.1580  159.2553 C   0  0  0  0  0  0  0  0  0  0  0  0
  151.4523  143.9157  159.7125 C   0  0  0  0  0  0  0  0  0  0  0  0
  152.2164  143.9663  160.8978 C   0  0  0  0  0  0  0  0  0  0  0  0
  152.9051  142.8162  161.3197 C   0  0  0  0  0  0  0  0  0  0  0  0
  152.8006  141.6567  160.5325 C   0  0  0  0  0  0  0  0  0  0  0  0
  152.0743  141.6000  159.3978 N   0  0  0  0  0  0  0  0  0  0  0  0
  151.4029  142.7014  158.9765 C   0  0  0  0  0  0  0  0  0  0  0  0
  150.6143  142.7143  157.7914 N   0  0  0  0  0  0  0  0  0  0  0  0
  150.4285  141.7263  156.8984 C   0  0  0  0  0  0  0  0  0  0  0  0
  150.9486  140.6115  156.9518 O   0  0  0  0  0  0  0  0  0  0  0  0
  149.5928  142.1112  155.9220 N   0  0  0  0  0  0  0  0  0  0  0  0
  149.1605  141.2901  154.7923 C   0  0  2  0  0  0  0  0  0  0  0  0
  147.9856  141.9873  154.0931 C   0  0  0  0  0  0  0  0  0  0  0  0
  148.7589  139.8787  155.2741 C   0  0  0  0  0  0  0  0  0  0  0  0
  149.8555  138.9219  155.4285 N   0  0  0  0  0  0  0  0  0  0  0  0
  149.3638  137.5492  155.3938 C   0  0  0  0  0  0  0  0  0  0  0  0
  150.5008  136.5262  155.5616 C   0  0  0  0  0  0  0  0  0  0  0  0
  151.4852  136.7368  154.5548 O   0  0  0  0  0  0  0  0  0  0  0  0
  152.0238  138.0546  154.5821 C   0  0  0  0  0  0  0  0  0  0  0  0
  150.8897  139.0789  154.4075 C   0  0  0  0  0  0  0  0  0  0  0  0
  150.8530  145.9878  159.9473 H   0  0  0  0  0  0  0  0  0  0  0  0
  149.6349  144.9594  159.1948 H   0  0  0  0  0  0  0  0  0  0  0  0
  151.0562  145.4741  158.2723 H   0  0  0  0  0  0  0  0  0  0  0  0
  152.2755  144.8745  161.4794 H   0  0  0  0  0  0  0  0  0  0  0  0
  153.4976  142.8226  162.2225 H   0  0  0  0  0  0  0  0  0  0  0  0
  153.3132  140.7510  160.8208 H   0  0  0  0  0  0  0  0  0  0  0  0
  150.1298  143.5797  157.6061 H   0  0  0  0  0  0  0  0  0  0  0  0
  149.2156  143.0463  155.9669 H   0  0  0  0  0  0  0  0  0  0  0  0
  149.9601  141.2158  154.0549 H   0  0  0  0  0  0  0  0  0  0  0  0
  147.6539  141.4175  153.2247 H   0  0  0  0  0  0  0  0  0  0  0  0
  148.2691  142.9810  153.7445 H   0  0  0  0  0  0  0  0  0  0  0  0
  147.1321  142.0998  154.7628 H   0  0  0  0  0  0  0  0  0  0  0  0
  148.2502  139.9891  156.2328 H   0  0  0  0  0  0  0  0  0  0  0  0
  148.0147  139.4637  154.5928 H   0  0  0  0  0  0  0  0  0  0  0  0
  148.6281  137.3995  156.1850 H   0  0  0  0  0  0  0  0  0  0  0  0
  148.8490  137.3645  154.4497 H   0  0  0  0  0  0  0  0  0  0  0  0
  150.9565  136.6132  156.5492 H   0  0  0  0  0  0  0  0  0  0  0  0
  150.1134  135.5112  155.4752 H   0  0  0  0  0  0  0  0  0  0  0  0
  152.5523  138.2214  155.5221 H   0  0  0  0  0  0  0  0  0  0  0  0
  152.7549  138.1576  153.7803 H   0  0  0  0  0  0  0  0  0  0  0  0
  150.4512  138.9663  153.4150 H   0  0  0  0  0  0  0  0  0  0  0  0
  151.3179  140.0790  154.4469 H   0  0  0  0  0  0  0  0  0  0  0  0
  1  2  1  0  0  0  0
  1 21  1  0  0  0  0
  1 22  1  0  0  0  0
  1 23  1  0  0  0  0
  2  7  1  0  0  0  0
  2  3  2  0  0  0  0
  3  4  1  0  0  0  0
  3 24  1  0  0  0  0
  4  5  2  0  0  0  0
  4 25  1  0  0  0  0
  5  6  1  0  0  0  0
  5 26  1  0  0  0  0
  6  7  2  0  0  0  0
  7  8  1  0  0  0  0
  8  9  1  0  0  0  0
  8 27  1  0  0  0  0
  9 10  2  0  0  0  0
  9 11  1  0  0  0  0
 11 12  1  0  0  0  0
 11 28  1  0  0  0  0
 12 13  1  0  0  0  0
 12 14  1  0  0  0  0
 12 29  1  0  0  0  0
 13 30  1  0  0  0  0
 13 31  1  0  0  0  0
 13 32  1  0  0  0  0
 14 15  1  0  0  0  0
 14 33  1  0  0  0  0
 14 34  1  0  0  0  0
 15 20  1  0  0  0  0
 15 16  1  0  0  0  0
 16 17  1  0  0  0  0
 16 35  1  0  0  0  0
 16 36  1  0  0  0  0
 17 18  1  0  0  0  0
 17 37  1  0  0  0  0
 17 38  1  0  0  0  0
 18 19  1  0  0  0  0
 19 20  1  0  0  0  0
 19 39  1  0  0  0  0
 19 40  1  0  0  0  0
 20 41  1  0  0  0  0
 20 42  1  0  0  0  0
M  END
> <s_m_source_file>
AV-unprocessed.smi

> <i_m_source_file_index>
1684

> <i_lp_mmshare_version>
43012

> <i_f3d_flags>
0

> <s_epik_input>
W0NIM11jMVtjSF1bY0hdW2NIXW5jMVtOSF1DKD1PKVtOSF1bQ0BIXShbQ0gzXSlbQ0gyXU4yW0NIMl1bQ0gyXU9bQ0gyXVtDSDJdMg==

> <s_epik_cmdline>
J2VwaWtfcHl0aG9uJywgJy1waCcsICc3LjAnLCAnLXRuJywgJzgnLCAnLW1hJywgJzIwMCcsICctbWV0YWxfYmluZGluZycsICctaW1hZScsICc8aW5maWxlLm1hZT4nLCAnLW9tYWUnLCAnPG91dGZpbGUubWFlPic=

> <r_epik_Ionization_Penalty>
0.26605

> <r_epik_Ionization_Penalty_Charging>
0

> <r_epik_Ionization_Penalty_Neutral>
0.26605

> <r_epik_State_Penalty>
0.257924

> <r_epik_Charging_Adjusted_Penalty>
0.257924

> <i_epik_Tot_Q>
0

> <i_epik_Tot_abs_Q>
0

> <r_epik_Metal_State_Penalty>
0.257922

> <b_epik_Metal_Only>
0

> <s_lp_Force_Field>
OPLS_2005

> <r_lp_Energy>
27.9157

> <b_lp_Chiralities_Consistent>
1

> <s_lp_Variant>
AV-unprocessed.smi:1684-1

> <Gold.Version>
5.8.1

> <Gold.Id.Protein>
6NUR|6NUR_protein|mol2

> <Gold.PLP.Fitness>
45.2749

> <Gold.PLP.PLP>
-40.5582

> <Gold.PLP.part.hbond>
-2.0000

> <Gold.PLP.part.metal>
0.0000

> <Gold.PLP.part.buried>
-6.1026

> <Gold.PLP.part.nonpolar>
-32.0858

> <Gold.PLP.part.repulsive>
0.3801

> <Gold.PLP.ligand.clash>
0.0000

> <Gold.PLP.ligand.torsion>
0.6526

> <Gold.PLP.Chemscore.Hbond>
2.0000

> <Gold.PLP.Chemscore.CHOScore>
0.0000

> <Gold.PLP.Chemscore.Metal>
0.0000

> <Gold.Chemscore.Hbonds>
donor molecule, donor type, donor heavy atom, donor atom, acceptor molecule, acceptor atom, score
      L1  H    11    28       P1  8028  1.00
      P1  H 10752 10763       L1    18  1.00

> <Gold.PLP.Chemscore.Internal.Correction>
0.0218

> <Gold.Rescore>
     Score         DG    S(hbond)    S(metal)    S(lipo)     H(rot)  DE(clash)    DE(int)     intcor
     14.88     -21.61       2.49        0.00      98.73       1.46       0.11       6.62       ----

> <Gold.Chemscore.Fitness>
14.8820

> <Gold.Chemscore.DG>
-21.6087

> <Gold.Chemscore.ZeroCoef>
-5.4800

> <Gold.Chemscore.Hbond>
2.4882

> <Gold.Chemscore.Metal>
0.0000

> <Gold.Chemscore.Lipo>
98.7258

> <Gold.Chemscore.Internal_Hbond>
0.0000

> <Gold.Chemscore.DEClash>
0.1052

> <Gold.Chemscore.DEInternal>
6.6215

> <Gold.Chemscore.Rot>
1.4581

> <Gold.Chemscore.Internal.Correction>
   9.000000E+99

> <Gold.Chemscore.Hbonds>
donor molecule, donor type, donor heavy atom, donor atom, acceptor molecule, acceptor atom, score
      L1  H    11    28       P1  8028  1.00
      P1  H 10752 10763       L1    18  0.52

> <Gold.Chemscore.Hbond.Weighted>
-8.3105

> <Gold.Chemscore.Metal.Weighted>
-0.0000

> <Gold.Chemscore.Lipo.Weighted>
-11.5509

> <Gold.Chemscore.Internal_Hbond.Weighted>
0.0000

> <Gold.Chemscore.DEClash.Weighted>
0.1052

> <Gold.Chemscore.DEInternal.Weighted>
6.6215

> <Gold.Chemscore.Rot.Weighted>
3.7327

> <Gold.Chemscore.Internal.Correction.Weighted>
   9.000000E+99

> <Gold.Protein.RotatedTorsions>
[ 6907 6896 6895 6894 ] final  -38.90 input  -60.11 | X-H torsion
[ 7974 7965 7964 7962 ] final   53.04 input  175.53 | X-H torsion
[ 8008 7997 7996 7995 ] final  169.61 input   59.86 | X-H torsion
[ 10167 10162 10161 10158 ] final   -2.92 input  -65.29 | X-H torsion
[ 10718 10713 10712 10709 ] final   96.01 input   66.30 | X-H torsion
[ 10763 10752 10751 10750 ] final   57.68 input  -60.55 | X-H torsion
[ 11005 11000 10999 10996 ] final -139.36 input  -57.11 | X-H torsion

> <Gold.Protein.ActiveResidues>
 VAL166  LYS551  ARG553  GLY616  TRP617  ASP618  TYR619  PRO620  LYS621  CYS622 
 ASP623  PHE694  ASN695  SER759  ASP760  ASP761  ALA762  ILE779  LEU786  VAL792 
 PHE793  MET794  SER795  GLU796  ALA797  LYS798  CYS799  TRP800  GLU811  SER814 

> <Gold.Protein.RotatedAtoms>
  150.9968  134.9290  159.7930 H   0  0  0  0  0  0  0  0  0  0  0  0  # atno 6907 bound_to 6896
  152.5267  134.3208  159.9157 H   0  0  0  0  0  0  0  0  0  0  0  0  # atno 6908 bound_to 6896
  151.3213  133.3997  159.2689 H   0  0  0  0  0  0  0  0  0  0  0  0  # atno 6909 bound_to 6896
  145.9753  139.4188  143.0165 H   0  0  0  0  0  0  0  0  0  0  0  0  # atno 7974 bound_to 7965
  156.1441  140.1559  156.8874 H   0  0  0  0  0  0  0  0  0  0  0  0  # atno 8008 bound_to 7997
  154.5013  140.0824  156.7841 H   0  0  0  0  0  0  0  0  0  0  0  0  # atno 8009 bound_to 7997
  155.4022  140.3415  155.4260 H   0  0  0  0  0  0  0  0  0  0  0  0  # atno 8010 bound_to 7997
  140.6870  143.6601  150.8274 H   0  0  0  0  0  0  0  0  0  0  0  0  # atno 10167 bound_to 10162
  157.6932  131.0564  150.4427 H   0  0  0  0  0  0  0  0  0  0  0  0  # atno 10718 bound_to 10713
  152.9855  135.5633  154.5429 H   0  0  0  0  0  0  0  0  0  0  0  0  # atno 10763 bound_to 10752
  154.4880  135.2791  155.1521 H   0  0  0  0  0  0  0  0  0  0  0  0  # atno 10764 bound_to 10752
  154.3002  135.6309  153.5474 H   0  0  0  0  0  0  0  0  0  0  0  0  # atno 10765 bound_to 10752
  140.8528  134.2265  157.4751 H   0  0  0  0  0  0  0  0  0  0  0  0  # atno 11005 bound_to 11000
  145.7848  140.9840  143.1080 LP  0  0  0  0  0  0  0  0  0  0  0  0  # atno 17320 bound_to 7965
  144.6847  139.9609  143.7480 LP  0  0  0  0  0  0  0  0  0  0  0  0  # atno 17321 bound_to 7965
  140.0309  143.5445  152.2760 LP  0  0  0  0  0  0  0  0  0  0  0  0  # atno 17342 bound_to 10162
  139.6237  144.7633  151.2685 LP  0  0  0  0  0  0  0  0  0  0  0  0  # atno 17343 bound_to 10162
  156.4784  130.4068  149.6476 LP  0  0  0  0  0  0  0  0  0  0  0  0  # atno 17370 bound_to 10713
  156.3531  130.7442  151.2404 LP  0  0  0  0  0  0  0  0  0  0  0  0  # atno 17371 bound_to 10713
  139.8704  134.9691  156.4655 LP  0  0  0  0  0  0  0  0  0  0  0  0  # atno 17394 bound_to 11000
  140.8771  133.7945  155.9427 LP  0  0  0  0  0  0  0  0  0  0  0  0  # atno 17395 bound_to 11000

$$$$
