AV-unprocessed.smi:1935|AV-procd|sdf|7827|dock1
  -GOLD-   22720 9573D 1   1.00000     0.00000
 Structure written by MMmdl.
 52 54  0  0  0  0  0  0  0  0  1 V2000
  150.0002  133.5168  155.3456 O   0  0  0  0  0  0  0  0  0  0  0  0
  149.5881  134.1694  154.3864 C   0  0  0  0  0  0  0  0  0  0  0  0
  149.8474  135.4718  154.2062 N   0  0  0  0  0  0  0  0  0  0  0  0
  150.6141  136.3058  155.1231 C   0  0  0  0  0  0  0  0  0  0  0  0
  151.1777  137.5468  154.4075 C   0  0  0  0  0  0  0  0  0  0  0  0
  150.8835  138.7764  155.1519 N   0  0  0  0  0  0  0  0  0  0  0  0
  149.4823  138.9643  155.5587 C   0  0  0  0  0  0  0  0  0  0  0  0
  149.2491  138.8075  157.0787 C   0  0  0  0  0  0  0  0  0  0  0  0
  150.4267  139.2029  157.9918 C   0  0  0  0  0  0  0  0  0  0  0  0
  151.0164  140.6052  157.7314 C   0  0  0  0  0  0  0  0  0  0  0  0
  151.4603  140.9125  156.2807 C   0  0  0  0  0  0  0  0  0  0  0  0
  151.8523  139.6736  155.4584 C   0  0  0  0  0  0  0  0  0  0  0  0
  153.0258  139.5391  155.1113 O   0  0  0  0  0  0  0  0  0  0  0  0
  148.8067  133.6899  153.4050 N   0  0  0  0  0  0  0  0  0  0  0  0
  148.2619  132.3809  153.2945 C   0  0  0  0  0  0  0  0  0  0  0  0
  148.9657  131.2529  153.7813 C   0  0  0  0  0  0  0  0  0  0  0  0
  148.4294  129.9686  153.5854 C   0  0  0  0  0  0  0  0  0  0  0  0
  147.2116  129.8562  152.8939 C   0  0  0  0  0  0  0  0  0  0  0  0
  146.5354  130.9195  152.4145 N   0  0  0  0  0  0  0  0  0  0  0  0
  147.0321  132.1665  152.6083 C   0  0  0  0  0  0  0  0  0  0  0  0
  146.2685  133.2442  152.1027 N   0  0  0  0  0  0  0  0  0  0  0  0
  145.0450  133.6129  152.8100 C   0  0  0  0  0  0  0  0  0  0  0  0
  144.0337  134.0343  151.7388 C   0  0  0  0  0  0  0  0  0  0  0  0
  144.9059  134.3870  150.5381 C   0  0  0  0  0  0  0  0  0  0  0  0
  146.0533  133.3894  150.6669 C   0  0  0  0  0  0  0  0  0  0  0  0
  149.4683  135.9241  153.3872 H   0  0  0  0  0  0  0  0  0  0  0  0
  149.9988  136.5927  155.9776 H   0  0  0  0  0  0  0  0  0  0  0  0
  151.4320  135.7030  155.5190 H   0  0  0  0  0  0  0  0  0  0  0  0
  152.2550  137.4406  154.2723 H   0  0  0  0  0  0  0  0  0  0  0  0
  150.7705  137.6165  153.3971 H   0  0  0  0  0  0  0  0  0  0  0  0
  149.1456  139.9493  155.2347 H   0  0  0  0  0  0  0  0  0  0  0  0
  148.8267  138.2763  155.0232 H   0  0  0  0  0  0  0  0  0  0  0  0
  148.3619  139.3760  157.3587 H   0  0  0  0  0  0  0  0  0  0  0  0
  149.0067  137.7644  157.2850 H   0  0  0  0  0  0  0  0  0  0  0  0
  150.0990  139.1465  159.0302 H   0  0  0  0  0  0  0  0  0  0  0  0
  151.2166  138.4553  157.9056 H   0  0  0  0  0  0  0  0  0  0  0  0
  150.2885  141.3574  158.0371 H   0  0  0  0  0  0  0  0  0  0  0  0
  151.8713  140.7415  158.3944 H   0  0  0  0  0  0  0  0  0  0  0  0
  150.6724  141.4505  155.7540 H   0  0  0  0  0  0  0  0  0  0  0  0
  152.3017  141.6063  156.3039 H   0  0  0  0  0  0  0  0  0  0  0  0
  148.4595  134.3638  152.7382 H   0  0  0  0  0  0  0  0  0  0  0  0
  149.9178  131.3543  154.2803 H   0  0  0  0  0  0  0  0  0  0  0  0
  148.9461  129.0913  153.9452 H   0  0  0  0  0  0  0  0  0  0  0  0
  146.7703  128.8866  152.7163 H   0  0  0  0  0  0  0  0  0  0  0  0
  144.6600  132.7954  153.4215 H   0  0  0  0  0  0  0  0  0  0  0  0
  145.2600  134.4553  153.4678 H   0  0  0  0  0  0  0  0  0  0  0  0
  143.3917  133.1889  151.4878 H   0  0  0  0  0  0  0  0  0  0  0  0
  143.3952  134.8577  152.0597 H   0  0  0  0  0  0  0  0  0  0  0  0
  144.3786  134.3081  149.5871 H   0  0  0  0  0  0  0  0  0  0  0  0
  145.2825  135.4061  150.6364 H   0  0  0  0  0  0  0  0  0  0  0  0
  146.9541  133.7398  150.1627 H   0  0  0  0  0  0  0  0  0  0  0  0
  145.7573  132.4386  150.2223 H   0  0  0  0  0  0  0  0  0  0  0  0
  1  2  2  0  0  0  0
  2  3  1  0  0  0  0
  2 14  1  0  0  0  0
  3  4  1  0  0  0  0
  3 26  1  0  0  0  0
  4  5  1  0  0  0  0
  4 27  1  0  0  0  0
  4 28  1  0  0  0  0
  5  6  1  0  0  0  0
  5 29  1  0  0  0  0
  5 30  1  0  0  0  0
  6 12  1  0  0  0  0
  6  7  1  0  0  0  0
  7  8  1  0  0  0  0
  7 31  1  0  0  0  0
  7 32  1  0  0  0  0
  8  9  1  0  0  0  0
  8 33  1  0  0  0  0
  8 34  1  0  0  0  0
  9 10  1  0  0  0  0
  9 35  1  0  0  0  0
  9 36  1  0  0  0  0
 10 11  1  0  0  0  0
 10 37  1  0  0  0  0
 10 38  1  0  0  0  0
 11 12  1  0  0  0  0
 11 39  1  0  0  0  0
 11 40  1  0  0  0  0
 12 13  2  0  0  0  0
 14 15  1  0  0  0  0
 14 41  1  0  0  0  0
 15 20  1  0  0  0  0
 15 16  2  0  0  0  0
 16 17  1  0  0  0  0
 16 42  1  0  0  0  0
 17 18  2  0  0  0  0
 17 43  1  0  0  0  0
 18 19  1  0  0  0  0
 18 44  1  0  0  0  0
 19 20  2  0  0  0  0
 20 21  1  0  0  0  0
 21 25  1  0  0  0  0
 21 22  1  0  0  0  0
 22 23  1  0  0  0  0
 22 45  1  0  0  0  0
 22 46  1  0  0  0  0
 23 24  1  0  0  0  0
 23 47  1  0  0  0  0
 23 48  1  0  0  0  0
 24 25  1  0  0  0  0
 24 49  1  0  0  0  0
 24 50  1  0  0  0  0
 25 51  1  0  0  0  0
 25 52  1  0  0  0  0
M  END
> <s_m_source_file>
AV-unprocessed.smi

> <i_m_source_file_index>
1935

> <i_lp_mmshare_version>
43012

> <i_f3d_flags>
0

> <s_epik_input>
Tz1DMVtDSDJdW0NIMl1bQ0gyXVtDSDJdW0NIMl1OMVtDSDJdW0NIMl1bTkhdQyg9TylbTkhdYzJbY0hdW2NIXVtjSF1uYzJOM1tDSDJdW0NIMl1bQ0gyXVtDSDJdMw==

> <s_epik_cmdline>
J2VwaWtfcHl0aG9uJywgJy1waCcsICc3LjAnLCAnLXRuJywgJzgnLCAnLW1hJywgJzIwMCcsICctbWV0YWxfYmluZGluZycsICctaW1hZScsICc8aW5maWxlLm1hZT4nLCAnLW9tYWUnLCAnPG91dGZpbGUubWFlPic=

> <r_lp_tautomer_probability>
1

> <r_epik_Ionization_Penalty>
0.0963547

> <r_epik_Ionization_Penalty_Charging>
0

> <r_epik_Ionization_Penalty_Neutral>
0.0963547

> <r_epik_State_Penalty>
0.0859578

> <r_epik_Charging_Adjusted_Penalty>
0.0859578

> <i_epik_Tot_Q>
0

> <i_epik_Tot_abs_Q>
0

> <r_epik_Metal_State_Penalty>
0.0738802

> <b_epik_Metal_Only>
0

> <s_lp_Force_Field>
OPLS_2005

> <r_lp_Energy>
50.6255

> <b_lp_Chiralities_Consistent>
1

> <s_lp_Variant>
AV-unprocessed.smi:1935-1

> <Gold.Version>
5.8.1

> <Gold.Id.Protein>
6NUR|6NUR_protein|mol2

> <Gold.PLP.Fitness>
47.6486

> <Gold.PLP.PLP>
-41.1543

> <Gold.PLP.part.hbond>
-4.8583

> <Gold.PLP.part.metal>
0.0000

> <Gold.PLP.part.buried>
-2.8648

> <Gold.PLP.part.nonpolar>
-33.4293

> <Gold.PLP.part.repulsive>
0.3740

> <Gold.PLP.ligand.clash>
0.0000

> <Gold.PLP.ligand.torsion>
0.9717

> <Gold.PLP.Chemscore.Hbond>
2.6650

> <Gold.PLP.Chemscore.CHOScore>
0.0000

> <Gold.PLP.Chemscore.Metal>
0.0000

> <Gold.Chemscore.Hbonds>
donor molecule, donor type, donor heavy atom, donor atom, acceptor molecule, acceptor atom, score
      L1  H     3    26       P1  7948  1.00
      L1  H    14    41       P1  7948  0.58
      P1  H  7997  8009       L1    13  1.00

> <Gold.PLP.Chemscore.Internal.Correction>
0.4426

> <Gold.Rescore>
     Score         DG    S(hbond)    S(metal)    S(lipo)     H(rot)  DE(clash)    DE(int)     intcor
     15.74     -17.82       2.39        0.00      72.83       1.63       0.02       2.06       ----

> <Gold.Chemscore.Fitness>
15.7392

> <Gold.Chemscore.DG>
-17.8187

> <Gold.Chemscore.ZeroCoef>
-5.4800

> <Gold.Chemscore.Hbond>
2.3894

> <Gold.Chemscore.Metal>
0.0000

> <Gold.Chemscore.Lipo>
72.8313

> <Gold.Chemscore.Internal_Hbond>
0.0000

> <Gold.Chemscore.DEClash>
0.0189

> <Gold.Chemscore.DEInternal>
2.0606

> <Gold.Chemscore.Rot>
1.6262

> <Gold.Chemscore.Internal.Correction>
   9.000000E+99

> <Gold.Chemscore.Hbonds>
donor molecule, donor type, donor heavy atom, donor atom, acceptor molecule, acceptor atom, score
      L1  H     3    26       P1  7948  0.34
      L1  H    14    41       P1  7948  0.08
      P1  H  7997  8009       L1    13  0.98

> <Gold.Chemscore.Hbond.Weighted>
-7.9806

> <Gold.Chemscore.Metal.Weighted>
-0.0000

> <Gold.Chemscore.Lipo.Weighted>
-8.5213

> <Gold.Chemscore.Internal_Hbond.Weighted>
0.0000

> <Gold.Chemscore.DEClash.Weighted>
0.0189

> <Gold.Chemscore.DEInternal.Weighted>
2.0606

> <Gold.Chemscore.Rot.Weighted>
4.1632

> <Gold.Chemscore.Internal.Correction.Weighted>
   9.000000E+99

> <Gold.Protein.RotatedTorsions>
[ 6907 6896 6895 6894 ] final   95.15 input  -60.11 | X-H torsion
[ 7974 7965 7964 7962 ] final   15.13 input  175.53 | X-H torsion
[ 8008 7997 7996 7995 ] final -152.93 input   59.86 | X-H torsion
[ 10167 10162 10161 10158 ] final   84.01 input  -65.29 | X-H torsion
[ 10718 10713 10712 10709 ] final   64.18 input   66.30 | X-H torsion
[ 10763 10752 10751 10750 ] final    2.21 input  -60.55 | X-H torsion
[ 11005 11000 10999 10996 ] final  -52.39 input  -57.11 | X-H torsion

> <Gold.Protein.ActiveResidues>
 VAL166  LYS551  ARG553  GLY616  TRP617  ASP618  TYR619  PRO620  LYS621  CYS622 
 ASP623  PHE694  ASN695  SER759  ASP760  ASP761  ALA762  ILE779  LEU786  VAL792 
 PHE793  MET794  SER795  GLU796  ALA797  LYS798  CYS799  TRP800  GLU811  SER814 

> <Gold.Protein.RotatedAtoms>
  152.5445  134.1085  159.8347 H   0  0  0  0  0  0  0  0  0  0  0  0  # atno 6907 bound_to 6896
  151.1154  133.5135  159.2611 H   0  0  0  0  0  0  0  0  0  0  0  0  # atno 6908 bound_to 6896
  151.1838  135.0382  159.8858 H   0  0  0  0  0  0  0  0  0  0  0  0  # atno 6909 bound_to 6896
  146.2287  139.8940  142.8550 H   0  0  0  0  0  0  0  0  0  0  0  0  # atno 7974 bound_to 7965
  155.6628  140.0724  157.2548 H   0  0  0  0  0  0  0  0  0  0  0  0  # atno 8008 bound_to 7997
  154.4139  140.1713  156.1846 H   0  0  0  0  0  0  0  0  0  0  0  0  # atno 8009 bound_to 7997
  155.9682  140.3364  155.6555 H   0  0  0  0  0  0  0  0  0  0  0  0  # atno 8010 bound_to 7997
  139.9124  144.6263  150.8523 H   0  0  0  0  0  0  0  0  0  0  0  0  # atno 10167 bound_to 10162
  157.6022  130.9146  149.9812 H   0  0  0  0  0  0  0  0  0  0  0  0  # atno 10718 bound_to 10713
  153.2984  135.6954  153.7226 H   0  0  0  0  0  0  0  0  0  0  0  0  # atno 10763 bound_to 10752
  153.6150  135.3437  155.2992 H   0  0  0  0  0  0  0  0  0  0  0  0  # atno 10764 bound_to 10752
  154.8544  135.4372  154.2088 H   0  0  0  0  0  0  0  0  0  0  0  0  # atno 10765 bound_to 10752
  141.0922  133.6631  156.4017 H   0  0  0  0  0  0  0  0  0  0  0  0  # atno 11005 bound_to 11000
  145.2389  141.0002  143.3947 LP  0  0  0  0  0  0  0  0  0  0  0  0  # atno 17320 bound_to 7965
  144.9468  139.4127  143.6422 LP  0  0  0  0  0  0  0  0  0  0  0  0  # atno 17321 bound_to 7965
  140.7682  143.3356  151.2317 LP  0  0  0  0  0  0  0  0  0  0  0  0  # atno 17342 bound_to 10162
  139.6931  143.9659  152.2869 LP  0  0  0  0  0  0  0  0  0  0  0  0  # atno 17343 bound_to 10162
  156.1098  130.3650  150.0069 LP  0  0  0  0  0  0  0  0  0  0  0  0  # atno 17370 bound_to 10713
  156.8169  130.9345  151.3642 LP  0  0  0  0  0  0  0  0  0  0  0  0  # atno 17371 bound_to 10713
  140.5226  134.6290  157.5323 LP  0  0  0  0  0  0  0  0  0  0  0  0  # atno 17394 bound_to 11000
  139.9750  134.7230  155.9967 LP  0  0  0  0  0  0  0  0  0  0  0  0  # atno 17395 bound_to 11000

$$$$
