AV-unprocessed.smi:845|AV-procd|sdf|3933|dock5
  -GOLD-   22720 1393D 1   1.00000     0.00000
 Structure written by MMmdl.
 41 42  0  0  0  0  0  0  0  0  2 V2000
  150.7551  137.8455  154.3846 C   0  0  0  0  0  0  0  0  0  0  0  0
  151.2125  138.8834  155.4234 C   0  0  0  0  0  0  0  0  0  0  0  0
  152.6969  139.2472  155.2238 C   0  0  0  0  0  0  0  0  0  0  0  0
  150.7691  138.5040  156.8723 C   0  0  2  0  0  0  0  0  0  0  0  0
  149.3082  137.9856  156.9655 C   0  0  0  0  0  0  0  0  0  0  0  0
  148.8210  137.9815  158.3430 N   0  0  0  0  0  0  0  0  0  0  0  0
  148.8089  136.9387  159.1858 C   0  0  0  0  0  0  0  0  0  0  0  0
  149.2221  135.8371  158.8169 O   0  0  0  0  0  0  0  0  0  0  0  0
  148.3169  137.2387  160.4094 N   0  5  0  0  0  0  0  0  0  0  0  0
  147.7129  136.2883  161.1413 C   0  0  0  0  0  0  0  0  0  0  0  0
  147.3354  135.1079  160.6369 N   0  0  0  0  0  0  0  0  0  0  0  0
  146.7316  134.2702  161.5765 C   0  0  0  0  0  0  0  0  0  0  0  0
  146.6568  134.8218  162.8279 C   0  0  0  0  0  0  0  0  0  0  0  0
  147.3453  136.4200  162.8636 S   0  0  0  0  0  0  0  0  0  0  0  0
  151.1458  139.4820  157.9132 N   0  0  0  0  0  0  0  0  0  0  0  0
  152.5472  139.4475  158.3309 C   0  0  0  0  0  0  0  0  0  0  0  0
  152.8197  140.4294  159.4833 C   0  0  0  0  0  0  0  0  0  0  0  0
  152.4358  141.7448  159.0955 O   0  0  0  0  0  0  0  0  0  0  0  0
  151.0644  141.8285  158.7212 C   0  0  0  0  0  0  0  0  0  0  0  0
  150.7845  140.8544  157.5643 C   0  0  0  0  0  0  0  0  0  0  0  0
  151.2876  136.9012  154.5011 H   0  0  0  0  0  0  0  0  0  0  0  0
  150.9354  138.2021  153.3701 H   0  0  0  0  0  0  0  0  0  0  0  0
  149.6881  137.6405  154.4757 H   0  0  0  0  0  0  0  0  0  0  0  0
  150.6644  139.7931  155.1754 H   0  0  0  0  0  0  0  0  0  0  0  0
  153.3415  138.3712  155.2035 H   0  0  0  0  0  0  0  0  0  0  0  0
  153.0653  139.9275  155.9900 H   0  0  0  0  0  0  0  0  0  0  0  0
  152.8331  139.7496  154.2659 H   0  0  0  0  0  0  0  0  0  0  0  0
  151.3772  137.6219  157.0793 H   0  0  0  0  0  0  0  0  0  0  0  0
  148.6359  138.6317  156.4029 H   0  0  0  0  0  0  0  0  0  0  0  0
  149.2228  136.9991  156.5101 H   0  0  0  0  0  0  0  0  0  0  0  0
  148.4700  138.8586  158.6983 H   0  0  0  0  0  0  0  0  0  0  0  0
  146.3854  133.2955  161.2667 H   0  0  0  0  0  0  0  0  0  0  0  0
  146.2429  134.3888  163.7259 H   0  0  0  0  0  0  0  0  0  0  0  0
  152.8333  138.4522  158.6538 H   0  0  0  0  0  0  0  0  0  0  0  0
  153.1951  139.7037  157.4923 H   0  0  0  0  0  0  0  0  0  0  0  0
  152.2729  140.1327  160.3796 H   0  0  0  0  0  0  0  0  0  0  0  0
  153.8791  140.4285  159.7395 H   0  0  0  0  0  0  0  0  0  0  0  0
  150.4311  141.6007  159.5800 H   0  0  0  0  0  0  0  0  0  0  0  0
  150.8388  142.8512  158.4188 H   0  0  0  0  0  0  0  0  0  0  0  0
  151.3425  141.1821  156.6872 H   0  0  0  0  0  0  0  0  0  0  0  0
  149.7274  140.9067  157.3017 H   0  0  0  0  0  0  0  0  0  0  0  0
  1  2  1  0  0  0  0
  1 21  1  0  0  0  0
  1 22  1  0  0  0  0
  1 23  1  0  0  0  0
  2  3  1  0  0  0  0
  2  4  1  0  0  0  0
  2 24  1  0  0  0  0
  3 25  1  0  0  0  0
  3 26  1  0  0  0  0
  3 27  1  0  0  0  0
  4  5  1  0  0  0  0
  4 15  1  0  0  0  0
  4 28  1  0  0  0  0
  5  6  1  0  0  0  0
  5 29  1  0  0  0  0
  5 30  1  0  0  0  0
  6  7  1  0  0  0  0
  6 31  1  0  0  0  0
  7  8  2  0  0  0  0
  7  9  1  0  0  0  0
  9 10  1  0  0  0  0
 10 14  1  0  0  0  0
 10 11  2  0  0  0  0
 11 12  1  0  0  0  0
 12 13  2  0  0  0  0
 12 32  1  0  0  0  0
 13 14  1  0  0  0  0
 13 33  1  0  0  0  0
 15 20  1  0  0  0  0
 15 16  1  0  0  0  0
 16 17  1  0  0  0  0
 16 34  1  0  0  0  0
 16 35  1  0  0  0  0
 17 18  1  0  0  0  0
 17 36  1  0  0  0  0
 17 37  1  0  0  0  0
 18 19  1  0  0  0  0
 19 20  1  0  0  0  0
 19 38  1  0  0  0  0
 19 39  1  0  0  0  0
 20 40  1  0  0  0  0
 20 41  1  0  0  0  0
M  CHG  1   9  -1
M  END
> <s_m_source_file>
AV-unprocessed.smi

> <i_m_source_file_index>
845

> <i_lp_mmshare_version>
43012

> <i_f3d_flags>
0

> <s_epik_input>
W0NIMl0xW0NIMl1PW0NIMl1bQ0gyXU4xW0NASF0oW0NIXShbQ0gzXSlbQ0gzXSlbQ0gyXVtOSF1DKD1PKVtOSF1jMm5bY0hdW2NIXXMy

> <s_epik_cmdline>
J2VwaWtfcHl0aG9uJywgJy1waCcsICc3LjAnLCAnLXRuJywgJzgnLCAnLW1hJywgJzIwMCcsICctbWV0YWxfYmluZGluZycsICctaW1hZScsICc8aW5maWxlLm1hZT4nLCAnLW9tYWUnLCAnPG91dGZpbGUubWFlPic=

> <r_lp_tautomer_probability>
0.999

> <r_epik_Ionization_Penalty>
9.02543

> <r_epik_Ionization_Penalty_Charging>
6.76546

> <r_epik_Ionization_Penalty_Neutral>
2.25997

> <r_epik_State_Penalty>
7.18984

> <r_epik_Charging_Adjusted_Penalty>
13.9553

> <i_epik_Tot_Q>
-1

> <i_epik_Tot_abs_Q>
1

> <r_epik_Metal_State_Penalty>
3.11401

> <b_epik_Metal_Only>
1

> <s_lp_Force_Field>
OPLS_2005

> <r_lp_Energy>
34.1255

> <b_lp_Chiralities_Consistent>
1

> <s_lp_Variant>
AV-unprocessed.smi:845-7

> <Gold.Version>
5.8.1

> <Gold.Id.Protein>
6NUR|6NUR_protein|mol2

> <Gold.PLP.Fitness>
41.6446

> <Gold.PLP.PLP>
-34.9291

> <Gold.PLP.part.hbond>
-3.0000

> <Gold.PLP.part.metal>
0.0000

> <Gold.PLP.part.buried>
-4.0860

> <Gold.PLP.part.nonpolar>
-29.2566

> <Gold.PLP.part.repulsive>
0.1387

> <Gold.PLP.ligand.clash>
0.0000

> <Gold.PLP.ligand.torsion>
1.1738

> <Gold.PLP.Chemscore.Hbond>
2.8576

> <Gold.PLP.Chemscore.CHOScore>
0.0000

> <Gold.PLP.Chemscore.Metal>
0.0000

> <Gold.Chemscore.Hbonds>
donor molecule, donor type, donor heavy atom, donor atom, acceptor molecule, acceptor atom, score
      P1  H  6896  6907       L1     8  0.96
      P1  H  6931  6943       L1     9  1.24
      P1  H  6934  6947       L1     9  0.81

> <Gold.PLP.Chemscore.Internal.Correction>
0.4903

> <Gold.Rescore>
     Score         DG    S(hbond)    S(metal)    S(lipo)     H(rot)  DE(clash)    DE(int)     intcor
     13.23     -15.95       1.72        0.00      77.63       1.71       0.09       2.63       ----

> <Gold.Chemscore.Fitness>
13.2320

> <Gold.Chemscore.DG>
-15.9470

> <Gold.Chemscore.ZeroCoef>
-5.4800

> <Gold.Chemscore.Hbond>
1.7237

> <Gold.Chemscore.Metal>
0.0000

> <Gold.Chemscore.Lipo>
77.6306

> <Gold.Chemscore.Internal_Hbond>
0.0000

> <Gold.Chemscore.DEClash>
0.0853

> <Gold.Chemscore.DEInternal>
2.6297

> <Gold.Chemscore.Rot>
1.7081

> <Gold.Chemscore.Internal.Correction>
   9.000000E+99

> <Gold.Chemscore.Hbonds>
donor molecule, donor type, donor heavy atom, donor atom, acceptor molecule, acceptor atom, score
      P1  H  6896  6907       L1     8  0.91
      P1  H  6931  6943       L1     9  0.12
      P1  H  6934  6947       L1     9  0.16

> <Gold.Chemscore.Hbond.Weighted>
-5.7570

> <Gold.Chemscore.Metal.Weighted>
-0.0000

> <Gold.Chemscore.Lipo.Weighted>
-9.0828

> <Gold.Chemscore.Internal_Hbond.Weighted>
0.0000

> <Gold.Chemscore.DEClash.Weighted>
0.0853

> <Gold.Chemscore.DEInternal.Weighted>
2.6297

> <Gold.Chemscore.Rot.Weighted>
4.3728

> <Gold.Chemscore.Internal.Correction.Weighted>
   9.000000E+99

> <Gold.Protein.RotatedTorsions>
[ 6907 6896 6895 6894 ] final  -57.87 input  -60.11 | X-H torsion
[ 7974 7965 7964 7962 ] final  153.30 input  175.53 | X-H torsion
[ 8008 7997 7996 7995 ] final  -79.07 input   59.86 | X-H torsion
[ 10167 10162 10161 10158 ] final  -27.92 input  -65.29 | X-H torsion
[ 10718 10713 10712 10709 ] final  172.14 input   66.30 | X-H torsion
[ 10763 10752 10751 10750 ] final  -97.20 input  -60.55 | X-H torsion
[ 11005 11000 10999 10996 ] final -101.71 input  -57.11 | X-H torsion

> <Gold.Protein.ActiveResidues>
 VAL166  LYS551  ARG553  GLY616  TRP617  ASP618  TYR619  PRO620  LYS621  CYS622 
 ASP623  PHE694  ASN695  SER759  ASP760  ASP761  ALA762  ILE779  LEU786  VAL792 
 PHE793  MET794  SER795  GLU796  ALA797  LYS798  CYS799  TRP800  GLU811  SER814 

> <Gold.Protein.RotatedAtoms>
  150.8052  134.7172  159.6637 H   0  0  0  0  0  0  0  0  0  0  0  0  # atno 6907 bound_to 6896
  152.4171  134.6019  160.0012 H   0  0  0  0  0  0  0  0  0  0  0  0  # atno 6908 bound_to 6896
  151.6245  133.3299  159.3131 H   0  0  0  0  0  0  0  0  0  0  0  0  # atno 6909 bound_to 6896
  144.8164  139.6782  143.6119 H   0  0  0  0  0  0  0  0  0  0  0  0  # atno 7974 bound_to 7965
  154.5750  140.0684  156.9020 H   0  0  0  0  0  0  0  0  0  0  0  0  # atno 8008 bound_to 7997
  155.2566  140.3355  155.4259 H   0  0  0  0  0  0  0  0  0  0  0  0  # atno 8009 bound_to 7997
  156.2147  140.1773  156.7601 H   0  0  0  0  0  0  0  0  0  0  0  0  # atno 8010 bound_to 7997
  140.7274  143.4053  151.1196 H   0  0  0  0  0  0  0  0  0  0  0  0  # atno 10167 bound_to 10162
  156.9833  131.0126  151.2876 H   0  0  0  0  0  0  0  0  0  0  0  0  # atno 10718 bound_to 10713
  154.7307  135.5055  153.8959 H   0  0  0  0  0  0  0  0  0  0  0  0  # atno 10763 bound_to 10752
  153.0947  135.6669  153.9794 H   0  0  0  0  0  0  0  0  0  0  0  0  # atno 10764 bound_to 10752
  153.9596  135.3049  155.3413 H   0  0  0  0  0  0  0  0  0  0  0  0  # atno 10765 bound_to 10752
  141.1220  133.8499  157.1266 H   0  0  0  0  0  0  0  0  0  0  0  0  # atno 11005 bound_to 11000
  146.2467  139.6113  142.9455 LP  0  0  0  0  0  0  0  0  0  0  0  0  # atno 17320 bound_to 7965
  145.5205  141.0432  143.2438 LP  0  0  0  0  0  0  0  0  0  0  0  0  # atno 17321 bound_to 7965
  139.7679  143.8538  152.3114 LP  0  0  0  0  0  0  0  0  0  0  0  0  # atno 17342 bound_to 10162
  139.8446  144.7193  150.9288 LP  0  0  0  0  0  0  0  0  0  0  0  0  # atno 17343 bound_to 10162
  157.5510  130.8182  149.8145 LP  0  0  0  0  0  0  0  0  0  0  0  0  # atno 17370 bound_to 10713
  156.0235  130.3787  150.1890 LP  0  0  0  0  0  0  0  0  0  0  0  0  # atno 17371 bound_to 10713
  140.0185  134.9957  157.0542 LP  0  0  0  0  0  0  0  0  0  0  0  0  # atno 17394 bound_to 11000
  140.4480  134.1612  155.7179 LP  0  0  0  0  0  0  0  0  0  0  0  0  # atno 17395 bound_to 11000

$$$$
