AV-unprocessed.smi:3040|AV-procd|sdf|11595|dock6
  -GOLD-   2272016573D 1   1.00000     0.00000
 Structure written by MMmdl.
 39 40  0  0  0  0  0  0  0  0  1 V2000
  145.6037  143.3120  155.3670 C   0  0  0  0  0  0  0  0  0  0  0  0
  146.5635  142.2118  155.2592 N   0  0  0  0  0  0  0  0  0  0  0  0
  147.4692  142.2943  154.1070 C   0  0  0  0  0  0  0  0  0  0  0  0
  148.0971  140.9434  153.7392 C   0  0  0  0  0  0  0  0  0  0  0  0
  148.6881  140.2410  154.9703 C   0  0  1  0  0  0  0  0  0  0  0  0
  149.9756  140.9211  155.4661 C   0  0  0  0  0  0  0  0  0  0  0  0
  151.0784  140.4824  155.1372 O   0  0  0  0  0  0  0  0  0  0  0  0
  149.8182  141.9801  156.2770 N   0  0  0  0  0  0  0  0  0  0  0  0
  150.8971  142.6886  156.9633 C   0  0  0  0  0  0  0  0  0  0  0  0
  151.6593  141.7742  157.9431 C   0  0  0  0  0  0  0  0  0  0  0  0
  151.9694  142.4459  159.2558 C   0  0  0  0  0  0  0  0  0  0  0  0
  151.7801  143.8131  159.6074 C   0  0  0  0  0  0  0  0  0  0  0  0
  152.1939  144.0912  160.8329 N   0  0  0  0  0  0  0  0  0  0  0  0
  152.6572  142.9164  161.3056 N   0  0  0  0  0  0  0  0  0  0  0  0
  153.2110  142.8526  162.6409 C   0  0  0  0  0  0  0  0  0  0  0  0
  152.5248  141.9040  160.3805 C   0  0  0  0  0  0  0  0  0  0  0  0
  147.6284  140.0926  156.0867 C   0  0  0  0  0  0  0  0  0  0  0  0
  146.6073  141.2415  156.2047 C   0  0  0  0  0  0  0  0  0  0  0  0
  145.8404  141.2285  157.1681 O   0  0  0  0  0  0  0  0  0  0  0  0
  145.6389  143.7679  156.3577 H   0  0  0  0  0  0  0  0  0  0  0  0
  144.5900  142.9491  155.1931 H   0  0  0  0  0  0  0  0  0  0  0  0
  145.8036  144.1037  154.6438 H   0  0  0  0  0  0  0  0  0  0  0  0
  146.9361  142.6813  153.2375 H   0  0  0  0  0  0  0  0  0  0  0  0
  148.2474  143.0222  154.3384 H   0  0  0  0  0  0  0  0  0  0  0  0
  147.3347  140.3019  153.2953 H   0  0  0  0  0  0  0  0  0  0  0  0
  148.8576  141.0831  152.9702 H   0  0  0  0  0  0  0  0  0  0  0  0
  148.9703  139.2323  154.6637 H   0  0  0  0  0  0  0  0  0  0  0  0
  148.8762  142.2785  156.4847 H   0  0  0  0  0  0  0  0  0  0  0  0
  151.5932  143.1215  156.2428 H   0  0  0  0  0  0  0  0  0  0  0  0
  150.4651  143.5292  157.5066 H   0  0  0  0  0  0  0  0  0  0  0  0
  151.0739  140.8692  158.1076 H   0  0  0  0  0  0  0  0  0  0  0  0
  152.5805  141.4399  157.4645 H   0  0  0  0  0  0  0  0  0  0  0  0
  151.3705  144.6099  159.0046 H   0  0  0  0  0  0  0  0  0  0  0  0
  153.6899  141.8861  162.8006 H   0  0  0  0  0  0  0  0  0  0  0  0
  152.4156  142.9817  163.3752 H   0  0  0  0  0  0  0  0  0  0  0  0
  153.9538  143.6404  162.7727 H   0  0  0  0  0  0  0  0  0  0  0  0
  152.8496  140.8954  160.5893 H   0  0  0  0  0  0  0  0  0  0  0  0
  147.0545  139.1841  155.9002 H   0  0  0  0  0  0  0  0  0  0  0  0
  148.1040  139.9425  157.0577 H   0  0  0  0  0  0  0  0  0  0  0  0
  1  2  1  0  0  0  0
  1 20  1  0  0  0  0
  1 21  1  0  0  0  0
  1 22  1  0  0  0  0
  2 18  1  0  0  0  0
  2  3  1  0  0  0  0
  3  4  1  0  0  0  0
  3 23  1  0  0  0  0
  3 24  1  0  0  0  0
  4  5  1  0  0  0  0
  4 25  1  0  0  0  0
  4 26  1  0  0  0  0
  5  6  1  0  0  0  0
  5 17  1  0  0  0  0
  5 27  1  0  0  0  0
  6  7  2  0  0  0  0
  6  8  1  0  0  0  0
  8  9  1  0  0  0  0
  8 28  1  0  0  0  0
  9 10  1  0  0  0  0
  9 29  1  0  0  0  0
  9 30  1  0  0  0  0
 10 11  1  0  0  0  0
 10 31  1  0  0  0  0
 10 32  1  0  0  0  0
 11 16  2  0  0  0  0
 11 12  1  0  0  0  0
 12 13  2  0  0  0  0
 12 33  1  0  0  0  0
 13 14  1  0  0  0  0
 14 15  1  0  0  0  0
 14 16  1  0  0  0  0
 15 34  1  0  0  0  0
 15 35  1  0  0  0  0
 15 36  1  0  0  0  0
 16 37  1  0  0  0  0
 17 18  1  0  0  0  0
 17 38  1  0  0  0  0
 17 39  1  0  0  0  0
 18 19  2  0  0  0  0
M  END
> <s_m_source_file>
AV-unprocessed.smi

> <i_m_source_file_index>
3040

> <i_lp_mmshare_version>
43012

> <i_f3d_flags>
0

> <s_epik_input>
W0NIM11OMVtDSDJdW0NIMl1bQ0BIXShbQ0gyXUMxPU8pQyg9TylbTkhdW0NIMl1bQ0gyXWMyW2NIXW5uKFtDSDNdKVtjSF0y

> <s_epik_cmdline>
J2VwaWtfcHl0aG9uJywgJy1waCcsICc3LjAnLCAnLXRuJywgJzgnLCAnLW1hJywgJzIwMCcsICctbWV0YWxfYmluZGluZycsICctaW1hZScsICc8aW5maWxlLm1hZT4nLCAnLW9tYWUnLCAnPG91dGZpbGUubWFlPic=

> <r_lp_tautomer_probability>
1

> <r_epik_Ionization_Penalty>
0.000456436

> <r_epik_Ionization_Penalty_Charging>
0

> <r_epik_Ionization_Penalty_Neutral>
0.000456436

> <r_epik_State_Penalty>
-0

> <r_epik_Charging_Adjusted_Penalty>
0

> <i_epik_Tot_Q>
0

> <i_epik_Tot_abs_Q>
0

> <r_epik_Metal_State_Penalty>
-0

> <b_epik_Metal_Only>
0

> <s_lp_Force_Field>
OPLS_2005

> <r_lp_Energy>
8.58968

> <b_lp_Chiralities_Consistent>
1

> <s_lp_Variant>
AV-unprocessed.smi:3040-1

> <Gold.Version>
5.8.1

> <Gold.Id.Protein>
6NUR|6NUR_protein|mol2

> <Gold.PLP.Fitness>
40.7530

> <Gold.PLP.PLP>
-39.5534

> <Gold.PLP.part.hbond>
-2.0000

> <Gold.PLP.part.metal>
0.0000

> <Gold.PLP.part.buried>
-3.7994

> <Gold.PLP.part.nonpolar>
-33.5922

> <Gold.PLP.part.repulsive>
0.2343

> <Gold.PLP.ligand.clash>
0.0000

> <Gold.PLP.ligand.torsion>
0.9094

> <Gold.PLP.Chemscore.Hbond>
0.9920

> <Gold.PLP.Chemscore.CHOScore>
0.0000

> <Gold.PLP.Chemscore.Metal>
0.0000

> <Gold.Chemscore.Hbonds>
donor molecule, donor type, donor heavy atom, donor atom, acceptor molecule, acceptor atom, score
      P1  H  7989  7998       L1     7  0.99

> <Gold.PLP.Chemscore.Internal.Correction>
0.0423

> <Gold.Rescore>
     Score         DG    S(hbond)    S(metal)    S(lipo)     H(rot)  DE(clash)    DE(int)     intcor
     13.30     -14.10       0.93        0.00      83.27       1.65       0.04       0.76       ----

> <Gold.Chemscore.Fitness>
13.3001

> <Gold.Chemscore.DG>
-14.1028

> <Gold.Chemscore.ZeroCoef>
-5.4800

> <Gold.Chemscore.Hbond>
0.9322

> <Gold.Chemscore.Metal>
0.0000

> <Gold.Chemscore.Lipo>
83.2695

> <Gold.Chemscore.Internal_Hbond>
0.0000

> <Gold.Chemscore.DEClash>
0.0402

> <Gold.Chemscore.DEInternal>
0.7625

> <Gold.Chemscore.Rot>
1.6536

> <Gold.Chemscore.Internal.Correction>
   9.000000E+99

> <Gold.Chemscore.Hbonds>
donor molecule, donor type, donor heavy atom, donor atom, acceptor molecule, acceptor atom, score
      P1  H  7989  7998       L1     7  0.89

> <Gold.Chemscore.Hbond.Weighted>
-3.1135

> <Gold.Chemscore.Metal.Weighted>
-0.0000

> <Gold.Chemscore.Lipo.Weighted>
-9.7425

> <Gold.Chemscore.Internal_Hbond.Weighted>
0.0000

> <Gold.Chemscore.DEClash.Weighted>
0.0402

> <Gold.Chemscore.DEInternal.Weighted>
0.7625

> <Gold.Chemscore.Rot.Weighted>
4.2332

> <Gold.Chemscore.Internal.Correction.Weighted>
   9.000000E+99

> <Gold.Protein.RotatedTorsions>
[ 6907 6896 6895 6894 ] final   -5.07 input  -60.11 | X-H torsion
[ 7974 7965 7964 7962 ] final   25.91 input  175.53 | X-H torsion
[ 8008 7997 7996 7995 ] final   99.21 input   59.86 | X-H torsion
[ 10167 10162 10161 10158 ] final -136.45 input  -65.29 | X-H torsion
[ 10718 10713 10712 10709 ] final   23.71 input   66.30 | X-H torsion
[ 10763 10752 10751 10750 ] final -131.95 input  -60.55 | X-H torsion
[ 11005 11000 10999 10996 ] final  124.74 input  -57.11 | X-H torsion

> <Gold.Protein.ActiveResidues>
 VAL166  LYS551  ARG553  GLY616  TRP617  ASP618  TYR619  PRO620  LYS621  CYS622 
 ASP623  PHE694  ASN695  SER759  ASP760  ASP761  ALA762  ILE779  LEU786  VAL792 
 PHE793  MET794  SER795  GLU796  ALA797  LYS798  CYS799  TRP800  GLU811  SER814 

> <Gold.Protein.RotatedAtoms>
  151.4876  135.1056  159.9794 H   0  0  0  0  0  0  0  0  0  0  0  0  # atno 6907 bound_to 6896
  152.4754  133.8122  159.7020 H   0  0  0  0  0  0  0  0  0  0  0  0  # atno 6908 bound_to 6896
  150.8789  133.7338  159.2964 H   0  0  0  0  0  0  0  0  0  0  0  0  # atno 6909 bound_to 6896
  146.1865  139.7401  142.8863 H   0  0  0  0  0  0  0  0  0  0  0  0  # atno 7974 bound_to 7965
  156.1082  140.3232  155.8036 H   0  0  0  0  0  0  0  0  0  0  0  0  # atno 8008 bound_to 7997
  155.4719  140.0547  157.2995 H   0  0  0  0  0  0  0  0  0  0  0  0  # atno 8009 bound_to 7997
  154.4742  140.2025  155.9934 H   0  0  0  0  0  0  0  0  0  0  0  0  # atno 8010 bound_to 7997
  139.8676  143.6997  152.2643 H   0  0  0  0  0  0  0  0  0  0  0  0  # atno 10167 bound_to 10162
  157.1698  130.6754  149.6073 H   0  0  0  0  0  0  0  0  0  0  0  0  # atno 10718 bound_to 10713
  154.8747  135.3813  154.4330 H   0  0  0  0  0  0  0  0  0  0  0  0  # atno 10763 bound_to 10752
  153.5022  135.7030  153.5831 H   0  0  0  0  0  0  0  0  0  0  0  0  # atno 10764 bound_to 10752
  153.4157  135.3913  155.2046 H   0  0  0  0  0  0  0  0  0  0  0  0  # atno 10765 bound_to 10752
  139.9373  134.9638  156.8454 H   0  0  0  0  0  0  0  0  0  0  0  0  # atno 11005 bound_to 11000
  145.3924  141.0374  143.3116 LP  0  0  0  0  0  0  0  0  0  0  0  0  # atno 17320 bound_to 7965
  144.8406  139.5478  143.6902 LP  0  0  0  0  0  0  0  0  0  0  0  0  # atno 17321 bound_to 7965
  139.7314  144.7581  151.0796 LP  0  0  0  0  0  0  0  0  0  0  0  0  # atno 17342 bound_to 10162
  140.7765  143.5084  150.9683 LP  0  0  0  0  0  0  0  0  0  0  0  0  # atno 17343 bound_to 10162
  155.9740  130.4683  150.6355 LP  0  0  0  0  0  0  0  0  0  0  0  0  # atno 17370 bound_to 10713
  157.4054  131.0816  151.1270 LP  0  0  0  0  0  0  0  0  0  0  0  0  # atno 17371 bound_to 10713
  140.6043  134.0142  155.7550 LP  0  0  0  0  0  0  0  0  0  0  0  0  # atno 17394 bound_to 11000
  141.0992  133.9795  157.3108 LP  0  0  0  0  0  0  0  0  0  0  0  0  # atno 17395 bound_to 11000

$$$$
