AV-unprocessed.smi:3263|AV-procd|sdf|12488|dock7
  -GOLD-   2272018383D 1   1.00000     0.00000
 Structure written by MMmdl.
 41 43  0  0  0  0  0  0  0  0  1 V2000
  147.6862  143.8377  161.3305 O   0  0  0  0  0  0  0  0  0  0  0  0
  147.8288  144.1511  160.1486 C   0  0  0  0  0  0  0  0  0  0  0  0
  148.7244  143.3155  159.2277 C   0  0  0  0  0  0  0  0  0  0  0  0
  150.0211  144.0434  158.8067 C   0  0  2  0  0  0  0  0  0  0  0  0
  150.9165  143.2357  157.8355 C   0  0  0  0  0  0  0  0  0  0  0  0
  152.2751  143.2024  158.5583 C   0  0  1  0  0  0  0  0  0  0  0  0
  152.8944  144.6123  158.5593 C   0  0  0  0  0  0  0  0  0  0  0  0
  152.0158  145.3673  159.5743 C   0  0  0  0  0  0  0  0  0  0  0  0
  150.9838  144.3008  159.9892 C   0  0  2  0  0  0  0  0  0  0  0  0
  151.8459  143.0418  160.0106 C   0  0  0  0  0  0  0  0  0  0  0  0
  147.2274  145.2129  159.5908 N   0  0  0  0  0  0  0  0  0  0  0  0
  146.3430  146.1376  160.2897 C   0  0  0  0  0  0  0  0  0  0  0  0
  145.3097  146.7615  159.3372 C   0  0  0  0  0  0  0  0  0  0  0  0
  145.6418  148.2018  158.9965 C   0  0  0  0  0  0  0  0  0  0  0  0
  145.8944  149.1441  160.0164 C   0  0  0  0  0  0  0  0  0  0  0  0
  146.2062  150.4665  159.6455 C   0  0  0  0  0  0  0  0  0  0  0  0
  146.2551  150.7937  158.2766 C   0  0  0  0  0  0  0  0  0  0  0  0
  145.9875  149.7796  157.3355 C   0  0  0  0  0  0  0  0  0  0  0  0
  145.6868  148.5089  157.6802 N   0  0  0  0  0  0  0  0  0  0  0  0
  148.9788  142.3969  159.7573 H   0  0  0  0  0  0  0  0  0  0  0  0
  148.1594  143.0125  158.3452 H   0  0  0  0  0  0  0  0  0  0  0  0
  149.7480  144.9980  158.3532 H   0  0  0  0  0  0  0  0  0  0  0  0
  150.5427  142.2201  157.6985 H   0  0  0  0  0  0  0  0  0  0  0  0
  150.9811  143.6987  156.8503 H   0  0  0  0  0  0  0  0  0  0  0  0
  152.9479  142.4284  158.1880 H   0  0  0  0  0  0  0  0  0  0  0  0
  153.9313  144.5831  158.8969 H   0  0  0  0  0  0  0  0  0  0  0  0
  152.8759  145.0715  157.5702 H   0  0  0  0  0  0  0  0  0  0  0  0
  152.6100  145.6838  160.4326 H   0  0  0  0  0  0  0  0  0  0  0  0
  151.5520  146.2568  159.1460 H   0  0  0  0  0  0  0  0  0  0  0  0
  150.4812  144.5312  160.9290 H   0  0  0  0  0  0  0  0  0  0  0  0
  151.2826  142.1264  160.1973 H   0  0  0  0  0  0  0  0  0  0  0  0
  152.6769  143.0978  160.7160 H   0  0  0  0  0  0  0  0  0  0  0  0
  147.3976  145.3963  158.6126 H   0  0  0  0  0  0  0  0  0  0  0  0
  145.8435  145.6279  161.1155 H   0  0  0  0  0  0  0  0  0  0  0  0
  146.9590  146.9193  160.7351 H   0  0  0  0  0  0  0  0  0  0  0  0
  145.2552  146.1837  158.4134 H   0  0  0  0  0  0  0  0  0  0  0  0
  144.3143  146.7219  159.7819 H   0  0  0  0  0  0  0  0  0  0  0  0
  145.8525  148.8619  161.0583 H   0  0  0  0  0  0  0  0  0  0  0  0
  146.4051  151.2158  160.3976 H   0  0  0  0  0  0  0  0  0  0  0  0
  146.4921  151.7972  157.9558 H   0  0  0  0  0  0  0  0  0  0  0  0
  146.0164  149.9945  156.2775 H   0  0  0  0  0  0  0  0  0  0  0  0
  1  2  2  0  0  0  0
  2  3  1  0  0  0  0
  2 11  1  0  0  0  0
  3  4  1  0  0  0  0
  3 20  1  0  0  0  0
  3 21  1  0  0  0  0
  4  9  1  0  0  0  0
  4  5  1  0  0  0  0
  4 22  1  0  0  0  0
  5  6  1  0  0  0  0
  5 23  1  0  0  0  0
  5 24  1  0  0  0  0
  6 10  1  0  0  0  0
  6  7  1  0  0  0  0
  6 25  1  0  0  0  0
  7  8  1  0  0  0  0
  7 26  1  0  0  0  0
  7 27  1  0  0  0  0
  8  9  1  0  0  0  0
  8 28  1  0  0  0  0
  8 29  1  0  0  0  0
  9 10  1  0  0  0  0
  9 30  1  0  0  0  0
 10 31  1  0  0  0  0
 10 32  1  0  0  0  0
 11 12  1  0  0  0  0
 11 33  1  0  0  0  0
 12 13  1  0  0  0  0
 12 34  1  0  0  0  0
 12 35  1  0  0  0  0
 13 14  1  0  0  0  0
 13 36  1  0  0  0  0
 13 37  1  0  0  0  0
 14 19  1  0  0  0  0
 14 15  2  0  0  0  0
 15 16  1  0  0  0  0
 15 38  1  0  0  0  0
 16 17  2  0  0  0  0
 16 39  1  0  0  0  0
 17 18  1  0  0  0  0
 17 40  1  0  0  0  0
 18 19  2  0  0  0  0
 18 41  1  0  0  0  0
M  END
> <s_m_source_file>
AV-unprocessed.smi

> <i_m_source_file_index>
3263

> <i_lp_mmshare_version>
43012

> <i_f3d_flags>
0

> <s_epik_input>
W0NIMl0xW0NIMl1bQ0BASF0oW0NIMl0yKVtDQEBIXShbQ0gyXVtDQEhdMTIpW0NIMl1DKD1PKVtOSF1bQ0gyXVtDSDJdYzNbY0hdW2NIXVtjSF1bY0hdbjM=

> <s_epik_cmdline>
J2VwaWtfcHl0aG9uJywgJy1waCcsICc3LjAnLCAnLXRuJywgJzgnLCAnLW1hJywgJzIwMCcsICctbWV0YWxfYmluZGluZycsICctaW1hZScsICc8aW5maWxlLm1hZT4nLCAnLW9tYWUnLCAnPG91dGZpbGUubWFlPic=

> <r_epik_Ionization_Penalty>
0.0273541

> <r_epik_Ionization_Penalty_Charging>
0

> <r_epik_Ionization_Penalty_Neutral>
0.0273541

> <r_epik_State_Penalty>
0.0223838

> <r_epik_Charging_Adjusted_Penalty>
0.0223838

> <i_epik_Tot_Q>
0

> <i_epik_Tot_abs_Q>
0

> <r_epik_Metal_State_Penalty>
0.0213927

> <b_epik_Metal_Only>
0

> <s_lp_Force_Field>
OPLS_2005

> <r_lp_Energy>
45.3245

> <b_lp_Chiralities_Consistent>
1

> <s_lp_Variant>
AV-unprocessed.smi:3263-3

> <Gold.Version>
5.8.1

> <Gold.Id.Protein>
6NUR|6NUR_protein|mol2

> <Gold.PLP.Fitness>
52.6293

> <Gold.PLP.PLP>
-47.9145

> <Gold.PLP.part.hbond>
-1.8582

> <Gold.PLP.part.metal>
0.0000

> <Gold.PLP.part.buried>
-4.7275

> <Gold.PLP.part.nonpolar>
-42.2438

> <Gold.PLP.part.repulsive>
0.3523

> <Gold.PLP.ligand.clash>
0.0000

> <Gold.PLP.ligand.torsion>
0.6603

> <Gold.PLP.Chemscore.Hbond>
2.0000

> <Gold.PLP.Chemscore.CHOScore>
0.0000

> <Gold.PLP.Chemscore.Metal>
0.0000

> <Gold.Chemscore.Hbonds>
donor molecule, donor type, donor heavy atom, donor atom, acceptor molecule, acceptor atom, score
      L1  H    11    33       P1  8029  0.96
      P1  H  6933  6944       L1     1  1.00

> <Gold.PLP.Chemscore.Internal.Correction>
0.0354

> <Gold.Rescore>
     Score         DG    S(hbond)    S(metal)    S(lipo)     H(rot)  DE(clash)    DE(int)     intcor
     23.26     -24.18       2.20        0.00     128.84       1.46       0.09       0.82       ----

> <Gold.Chemscore.Fitness>
23.2612

> <Gold.Chemscore.DG>
-24.1797

> <Gold.Chemscore.ZeroCoef>
-5.4800

> <Gold.Chemscore.Hbond>
2.2011

> <Gold.Chemscore.Metal>
0.0000

> <Gold.Chemscore.Lipo>
128.8383

> <Gold.Chemscore.Internal_Hbond>
0.0000

> <Gold.Chemscore.DEClash>
0.0939

> <Gold.Chemscore.DEInternal>
0.8246

> <Gold.Chemscore.Rot>
1.4555

> <Gold.Chemscore.Internal.Correction>
   9.000000E+99

> <Gold.Chemscore.Hbonds>
donor molecule, donor type, donor heavy atom, donor atom, acceptor molecule, acceptor atom, score
      L1  H    11    33       P1  8029  0.91
      P1  H  6933  6944       L1     1  0.45

> <Gold.Chemscore.Hbond.Weighted>
-7.3516

> <Gold.Chemscore.Metal.Weighted>
-0.0000

> <Gold.Chemscore.Lipo.Weighted>
-15.0741

> <Gold.Chemscore.Internal_Hbond.Weighted>
0.0000

> <Gold.Chemscore.DEClash.Weighted>
0.0939

> <Gold.Chemscore.DEInternal.Weighted>
0.8246

> <Gold.Chemscore.Rot.Weighted>
3.7260

> <Gold.Chemscore.Internal.Correction.Weighted>
   9.000000E+99

> <Gold.Protein.RotatedTorsions>
[ 6907 6896 6895 6894 ] final  -88.20 input  -60.11 | X-H torsion
[ 7974 7965 7964 7962 ] final -154.61 input  175.53 | X-H torsion
[ 8008 7997 7996 7995 ] final   33.70 input   59.86 | X-H torsion
[ 10167 10162 10161 10158 ] final  -36.24 input  -65.29 | X-H torsion
[ 10718 10713 10712 10709 ] final    2.56 input   66.30 | X-H torsion
[ 10763 10752 10751 10750 ] final -172.83 input  -60.55 | X-H torsion
[ 11005 11000 10999 10996 ] final  102.62 input  -57.11 | X-H torsion

> <Gold.Protein.ActiveResidues>
 VAL166  LYS551  ARG553  GLY616  TRP617  ASP618  TYR619  PRO620  LYS621  CYS622 
 ASP623  PHE694  ASN695  SER759  ASP760  ASP761  ALA762  ILE779  LEU786  VAL792 
 PHE793  MET794  SER795  GLU796  ALA797  LYS798  CYS799  TRP800  GLU811  SER814 

> <Gold.Protein.RotatedAtoms>
  150.6868  134.2778  159.4614 H   0  0  0  0  0  0  0  0  0  0  0  0  # atno 6907 bound_to 6896
  152.0695  134.9540  160.0584 H   0  0  0  0  0  0  0  0  0  0  0  0  # atno 6908 bound_to 6896
  152.0935  133.4178  159.4592 H   0  0  0  0  0  0  0  0  0  0  0  0  # atno 6909 bound_to 6896
  144.7680  140.4364  143.5927 H   0  0  0  0  0  0  0  0  0  0  0  0  # atno 7974 bound_to 7965
  155.1428  140.3268  155.4448 H   0  0  0  0  0  0  0  0  0  0  0  0  # atno 8008 bound_to 7997
  156.2599  140.1990  156.6493 H   0  0  0  0  0  0  0  0  0  0  0  0  # atno 8009 bound_to 7997
  154.6530  140.0556  156.9963 H   0  0  0  0  0  0  0  0  0  0  0  0  # atno 8010 bound_to 7997
  140.7147  143.3422  151.2332 H   0  0  0  0  0  0  0  0  0  0  0  0  # atno 10167 bound_to 10162
  156.8647  130.5599  149.5661 H   0  0  0  0  0  0  0  0  0  0  0  0  # atno 10718 bound_to 10713
  154.6149  135.2868  155.0391 H   0  0  0  0  0  0  0  0  0  0  0  0  # atno 10763 bound_to 10752
  154.1608  135.6488  153.4989 H   0  0  0  0  0  0  0  0  0  0  0  0  # atno 10764 bound_to 10752
  153.0210  135.5377  154.6916 H   0  0  0  0  0  0  0  0  0  0  0  0  # atno 10765 bound_to 10752
  139.8778  134.9231  156.5085 H   0  0  0  0  0  0  0  0  0  0  0  0  # atno 11005 bound_to 11000
  145.6409  139.1550  143.2916 LP  0  0  0  0  0  0  0  0  0  0  0  0  # atno 17320 bound_to 7965
  146.1805  140.6506  142.9191 LP  0  0  0  0  0  0  0  0  0  0  0  0  # atno 17321 bound_to 7965
  139.6933  143.9656  152.2870 LP  0  0  0  0  0  0  0  0  0  0  0  0  # atno 17342 bound_to 10162
  139.9324  144.6733  150.8349 LP  0  0  0  0  0  0  0  0  0  0  0  0  # atno 17343 bound_to 10162
  156.0758  130.5780  150.9470 LP  0  0  0  0  0  0  0  0  0  0  0  0  # atno 17370 bound_to 10713
  157.6230  131.0928  150.8587 LP  0  0  0  0  0  0  0  0  0  0  0  0  # atno 17371 bound_to 10713
  140.8537  133.8112  155.9195 LP  0  0  0  0  0  0  0  0  0  0  0  0  # atno 17394 bound_to 11000
  140.9118  134.2250  157.4981 LP  0  0  0  0  0  0  0  0  0  0  0  0  # atno 17395 bound_to 11000

$$$$
