AV-unprocessed.smi:546|AV-procd|sdf|2885|dock8
  -GOLD-   2262023383D 1   1.00000     0.00000
 Structure written by MMmdl.
 52 54  0  0  0  0  0  0  0  0  1 V2000
  148.3448  132.8405  153.0774 C   0  0  0  0  0  0  0  0  0  0  0  0
  149.4421  133.0153  154.1293 C   0  0  0  0  0  0  0  0  0  0  0  0
  148.8331  133.0877  155.4053 O   0  0  0  0  0  0  0  0  0  0  0  0
  148.6988  134.4149  155.8852 C   0  0  0  0  0  0  0  0  0  0  0  0
  149.1818  134.4864  157.3411 C   0  0  0  0  0  0  0  0  0  0  0  0
  149.4426  135.8622  157.7517 N   0  0  0  0  0  0  0  0  0  0  0  0
  149.0185  136.5060  158.8734 C   0  0  0  0  0  0  0  0  0  0  0  0
  148.1704  135.9093  159.8101 N   0  0  0  0  0  0  0  0  0  0  0  0
  147.1188  134.9445  159.4713 C   0  0  0  0  0  0  0  0  0  0  0  0
  146.8707  133.8756  160.5614 C   0  0  1  0  0  0  0  0  0  0  0  0
  147.9663  132.7990  160.6244 C   0  0  0  0  0  0  0  0  0  0  0  0
  146.6233  134.5419  161.9250 C   0  0  0  0  0  0  0  0  0  0  0  0
  147.7185  135.5712  162.2439 C   0  0  2  0  0  0  0  0  0  0  0  0
  147.4379  136.2961  163.5671 C   0  0  0  0  0  0  0  0  0  0  0  0
  147.8471  136.5661  161.0768 C   0  0  0  0  0  0  0  0  0  0  0  0
  149.5038  137.7429  159.0175 N   0  0  0  0  0  0  0  0  0  0  0  0
  150.2816  137.9131  157.8835 C   0  0  0  0  0  0  0  0  0  0  0  0
  150.2581  136.7981  157.1101 C   0  0  0  0  0  0  0  0  0  0  0  0
  151.0233  136.6938  155.8587 C   0  0  0  0  0  0  0  0  0  0  0  0
  151.0252  135.6956  155.1419 O   0  0  0  0  0  0  0  0  0  0  0  0
  151.7332  137.8123  155.5743 N   0  0  0  0  0  0  0  0  0  0  0  0
  151.7995  138.9644  156.3083 C   0  0  0  0  0  0  0  0  0  0  0  0
  152.4983  139.9010  155.9213 O   0  0  0  0  0  0  0  0  0  0  0  0
  151.0701  139.0238  157.4678 N   0  0  0  0  0  0  0  0  0  0  0  0
  151.1094  140.2306  158.2959 C   0  0  0  0  0  0  0  0  0  0  0  0
  152.2779  137.7922  154.7245 H   0  0  0  0  0  0  0  0  0  0  0  0
  148.7703  132.7783  152.0759 H   0  0  0  0  0  0  0  0  0  0  0  0
  147.6493  133.6799  153.0949 H   0  0  0  0  0  0  0  0  0  0  0  0
  147.7737  131.9294  153.2567 H   0  0  0  0  0  0  0  0  0  0  0  0
  150.1371  132.1755  154.0897 H   0  0  0  0  0  0  0  0  0  0  0  0
  150.0084  133.9260  153.9296 H   0  0  0  0  0  0  0  0  0  0  0  0
  149.2796  135.0987  155.2650 H   0  0  0  0  0  0  0  0  0  0  0  0
  147.6541  134.7239  155.8260 H   0  0  0  0  0  0  0  0  0  0  0  0
  148.4484  134.0386  158.0088 H   0  0  0  0  0  0  0  0  0  0  0  0
  150.0773  133.8876  157.4685 H   0  0  0  0  0  0  0  0  0  0  0  0
  146.1982  135.5084  159.3145 H   0  0  0  0  0  0  0  0  0  0  0  0
  147.3292  134.4698  158.5136 H   0  0  0  0  0  0  0  0  0  0  0  0
  145.9539  133.3509  160.2901 H   0  0  0  0  0  0  0  0  0  0  0  0
  148.9366  133.2217  160.8795 H   0  0  0  0  0  0  0  0  0  0  0  0
  148.0643  132.2831  159.6693 H   0  0  0  0  0  0  0  0  0  0  0  0
  147.7293  132.0452  161.3755 H   0  0  0  0  0  0  0  0  0  0  0  0
  145.6549  135.0440  161.9036 H   0  0  0  0  0  0  0  0  0  0  0  0
  146.5600  133.7903  162.7127 H   0  0  0  0  0  0  0  0  0  0  0  0
  148.6699  135.0495  162.3536 H   0  0  0  0  0  0  0  0  0  0  0  0
  146.4970  136.8458  163.5266 H   0  0  0  0  0  0  0  0  0  0  0  0
  148.2297  137.0085  163.7994 H   0  0  0  0  0  0  0  0  0  0  0  0
  147.3765  135.5901  164.3957 H   0  0  0  0  0  0  0  0  0  0  0  0
  148.6282  137.2914  161.3088 H   0  0  0  0  0  0  0  0  0  0  0  0
  146.9236  137.1346  160.9575 H   0  0  0  0  0  0  0  0  0  0  0  0
  150.8197  141.1067  157.7141 H   0  0  0  0  0  0  0  0  0  0  0  0
  152.1167  140.3949  158.6802 H   0  0  0  0  0  0  0  0  0  0  0  0
  150.4368  140.1746  159.1516 H   0  0  0  0  0  0  0  0  0  0  0  0
  1  2  1  0  0  0  0
  1 27  1  0  0  0  0
  1 28  1  0  0  0  0
  1 29  1  0  0  0  0
  2  3  1  0  0  0  0
  2 30  1  0  0  0  0
  2 31  1  0  0  0  0
  3  4  1  0  0  0  0
  4  5  1  0  0  0  0
  4 32  1  0  0  0  0
  4 33  1  0  0  0  0
  5  6  1  0  0  0  0
  5 34  1  0  0  0  0
  5 35  1  0  0  0  0
  6 18  1  0  0  0  0
  6  7  1  0  0  0  0
  7  8  1  0  0  0  0
  7 16  2  0  0  0  0
  8 15  1  0  0  0  0
  8  9  1  0  0  0  0
  9 10  1  0  0  0  0
  9 36  1  0  0  0  0
  9 37  1  0  0  0  0
 10 11  1  0  0  0  0
 10 12  1  0  0  0  0
 10 38  1  0  0  0  0
 11 39  1  0  0  0  0
 11 40  1  0  0  0  0
 11 41  1  0  0  0  0
 12 13  1  0  0  0  0
 12 42  1  0  0  0  0
 12 43  1  0  0  0  0
 13 14  1  0  0  0  0
 13 15  1  0  0  0  0
 13 44  1  0  0  0  0
 14 45  1  0  0  0  0
 14 46  1  0  0  0  0
 14 47  1  0  0  0  0
 15 48  1  0  0  0  0
 15 49  1  0  0  0  0
 16 17  1  0  0  0  0
 17 24  1  0  0  0  0
 17 18  2  0  0  0  0
 18 19  1  0  0  0  0
 19 20  2  0  0  0  0
 19 21  1  0  0  0  0
 21 26  1  0  0  0  0
 21 22  1  0  0  0  0
 22 23  2  0  0  0  0
 22 24  1  0  0  0  0
 24 25  1  0  0  0  0
 25 50  1  0  0  0  0
 25 51  1  0  0  0  0
 25 52  1  0  0  0  0
M  END
> <s_m_source_file>
AV-unprocessed.smi

> <i_m_source_file_index>
546

> <i_lp_mmshare_version>
43012

> <i_f3d_flags>
0

> <s_epik_input>
W0NIM11uMWMoPU8pW25IXWMoPU8pYyhjMTIpbihbQ0gyXVtDSDJdT1tDSDJdW0NIM10pYyhuMilOM1tDSDJdW0NAQEhdKFtDSDNdKVtDSDJdW0NAQEhdKFtDSDNdKVtDSDJdMw==

> <s_epik_cmdline>
J2VwaWtfcHl0aG9uJywgJy1waCcsICc3LjAnLCAnLXRuJywgJzgnLCAnLW1hJywgJzIwMCcsICctbWV0YWxfYmluZGluZycsICctaW1hZScsICc8aW5maWxlLm1hZT4nLCAnLW9tYWUnLCAnPG91dGZpbGUubWFlPic=

> <r_lp_tautomer_probability>
1

> <r_epik_Ionization_Penalty>
0.000576472

> <r_epik_Ionization_Penalty_Charging>
0.000118943

> <r_epik_Ionization_Penalty_Neutral>
0.000457529

> <r_epik_State_Penalty>
-0

> <r_epik_Charging_Adjusted_Penalty>
0.000118943

> <i_epik_Tot_Q>
0

> <i_epik_Tot_abs_Q>
0

> <r_epik_Metal_State_Penalty>
0.0916165

> <b_epik_Metal_Only>
0

> <s_lp_Force_Field>
OPLS_2005

> <r_lp_Energy>
39.3864

> <b_lp_Chiralities_Consistent>
1

> <s_lp_Variant>
AV-unprocessed.smi:546-3

> <Gold.Version>
5.8.1

> <Gold.Id.Protein>
6NUR|6NUR_protein|mol2

> <Gold.PLP.Fitness>
40.2925

> <Gold.PLP.PLP>
-35.7550

> <Gold.PLP.part.hbond>
-2.2594

> <Gold.PLP.part.metal>
0.0000

> <Gold.PLP.part.buried>
-4.9062

> <Gold.PLP.part.nonpolar>
-29.0128

> <Gold.PLP.part.repulsive>
0.2485

> <Gold.PLP.ligand.clash>
0.0000

> <Gold.PLP.ligand.torsion>
0.9881

> <Gold.PLP.Chemscore.Hbond>
2.0000

> <Gold.PLP.Chemscore.CHOScore>
0.0000

> <Gold.PLP.Chemscore.Metal>
0.0000

> <Gold.Chemscore.Hbonds>
donor molecule, donor type, donor heavy atom, donor atom, acceptor molecule, acceptor atom, score
      P1  H  7997  8010       L1    23  1.00
      P1  H 10752 10764       L1    20  1.00

> <Gold.PLP.Chemscore.Internal.Correction>
0.5136

> <Gold.Rescore>
     Score         DG    S(hbond)    S(metal)    S(lipo)     H(rot)  DE(clash)    DE(int)     intcor
     13.51     -16.21       1.94        0.00      70.16       1.55       0.72       1.98       ----

> <Gold.Chemscore.Fitness>
13.5129

> <Gold.Chemscore.DG>
-16.2137

> <Gold.Chemscore.ZeroCoef>
-5.4800

> <Gold.Chemscore.Hbond>
1.9414

> <Gold.Chemscore.Metal>
0.0000

> <Gold.Chemscore.Lipo>
70.1579

> <Gold.Chemscore.Internal_Hbond>
0.0000

> <Gold.Chemscore.DEClash>
0.7243

> <Gold.Chemscore.DEInternal>
1.9765

> <Gold.Chemscore.Rot>
1.5465

> <Gold.Chemscore.Internal.Correction>
   9.000000E+99

> <Gold.Chemscore.Hbonds>
donor molecule, donor type, donor heavy atom, donor atom, acceptor molecule, acceptor atom, score
      P1  H  7997  8010       L1    23  1.00
      P1  H 10752 10764       L1    20  0.34

> <Gold.Chemscore.Hbond.Weighted>
-6.4843

> <Gold.Chemscore.Metal.Weighted>
-0.0000

> <Gold.Chemscore.Lipo.Weighted>
-8.2085

> <Gold.Chemscore.Internal_Hbond.Weighted>
0.0000

> <Gold.Chemscore.DEClash.Weighted>
0.7243

> <Gold.Chemscore.DEInternal.Weighted>
1.9765

> <Gold.Chemscore.Rot.Weighted>
3.9591

> <Gold.Chemscore.Internal.Correction.Weighted>
   9.000000E+99

> <Gold.Protein.RotatedTorsions>
[ 6907 6896 6895 6894 ] final  -83.00 input  -60.11 | X-H torsion
[ 7974 7965 7964 7962 ] final   -4.55 input  175.53 | X-H torsion
[ 8008 7997 7996 7995 ] final   83.62 input   59.86 | X-H torsion
[ 10167 10162 10161 10158 ] final  -72.03 input  -65.29 | X-H torsion
[ 10718 10713 10712 10709 ] final  -77.17 input   66.30 | X-H torsion
[ 10763 10752 10751 10750 ] final  -54.98 input  -60.55 | X-H torsion
[ 11005 11000 10999 10996 ] final  -74.89 input  -57.11 | X-H torsion

> <Gold.Protein.ActiveResidues>
 VAL166  LYS551  ARG553  GLY616  TRP617  ASP618  TYR619  PRO620  LYS621  CYS622 
 ASP623  PHE694  ASN695  SER759  ASP760  ASP761  ALA762  ILE779  LEU786  VAL792 
 PHE793  MET794  SER795  GLU796  ALA797  LYS798  CYS799  TRP800  GLU811  SER814 

> <Gold.Protein.RotatedAtoms>
  150.6890  134.3579  159.4937 H   0  0  0  0  0  0  0  0  0  0  0  0  # atno 6907 bound_to 6896
  152.1412  134.9058  160.0563 H   0  0  0  0  0  0  0  0  0  0  0  0  # atno 6908 bound_to 6896
  152.0191  133.3857  159.4288 H   0  0  0  0  0  0  0  0  0  0  0  0  # atno 6909 bound_to 6896
  146.2370  140.1888  142.8332 H   0  0  0  0  0  0  0  0  0  0  0  0  # atno 7974 bound_to 7965
  155.9263  140.3418  155.6213 H   0  0  0  0  0  0  0  0  0  0  0  0  # atno 8008 bound_to 7997
  155.7212  140.0783  157.2348 H   0  0  0  0  0  0  0  0  0  0  0  0  # atno 8009 bound_to 7997
  154.4078  140.1605  156.2391 H   0  0  0  0  0  0  0  0  0  0  0  0  # atno 8010 bound_to 7997
  140.5225  143.2330  151.7405 H   0  0  0  0  0  0  0  0  0  0  0  0  # atno 10167 bound_to 10162
  156.0153  130.4484  150.3305 H   0  0  0  0  0  0  0  0  0  0  0  0  # atno 10718 bound_to 10713
  154.1835  135.6439  153.5040 H   0  0  0  0  0  0  0  0  0  0  0  0  # atno 10763 bound_to 10752
  153.0053  135.5411  154.6489 H   0  0  0  0  0  0  0  0  0  0  0  0  # atno 10764 bound_to 10752
  154.5860  135.2929  155.0657 H   0  0  0  0  0  0  0  0  0  0  0  0  # atno 10765 bound_to 10752
  141.1640  133.6927  156.7434 H   0  0  0  0  0  0  0  0  0  0  0  0  # atno 11005 bound_to 11000
  144.9875  140.8516  143.5360 LP  0  0  0  0  0  0  0  0  0  0  0  0  # atno 17320 bound_to 7965
  145.1889  139.2311  143.5253 LP  0  0  0  0  0  0  0  0  0  0  0  0  # atno 17321 bound_to 7965
  139.4928  144.4234  151.9953 LP  0  0  0  0  0  0  0  0  0  0  0  0  # atno 17342 bound_to 10162
  140.3331  144.3292  150.5983 LP  0  0  0  0  0  0  0  0  0  0  0  0  # atno 17343 bound_to 10162
  157.1403  131.0295  151.2930 LP  0  0  0  0  0  0  0  0  0  0  0  0  # atno 17370 bound_to 10713
  157.4477  130.7580  149.7124 LP  0  0  0  0  0  0  0  0  0  0  0  0  # atno 17371 bound_to 10713
  140.2658  134.8431  157.3801 LP  0  0  0  0  0  0  0  0  0  0  0  0  # atno 17394 bound_to 11000
  140.1568  134.4779  155.7922 LP  0  0  0  0  0  0  0  0  0  0  0  0  # atno 17395 bound_to 11000

$$$$
