AV-unprocessed.smi:2221|AV-procd|sdf|8984|dock10
  -GOLD-   2272012193D 1   1.00000     0.00000
 Structure written by MMmdl.
 53 54  0  0  0  0  0  0  0  0  2 V2000
  153.2448  140.8314  159.9255 C   0  0  0  0  0  0  0  0  0  0  0  0
  152.4074  141.9970  159.4427 C   0  0  0  0  0  0  0  0  0  0  0  0
  152.4011  143.2179  160.1436 C   0  0  0  0  0  0  0  0  0  0  0  0
  151.6055  144.2674  159.6439 C   0  0  0  0  0  0  0  0  0  0  0  0
  151.5532  145.6064  160.3487 C   0  0  0  0  0  0  0  0  0  0  0  0
  150.8572  144.1561  158.5254 N   0  0  0  0  0  0  0  0  0  0  0  0
  150.8554  142.9847  157.8424 C   0  0  0  0  0  0  0  0  0  0  0  0
  150.1034  142.7662  156.6575 N   0  0  0  0  0  0  0  0  0  0  0  0
  149.7050  141.5940  156.1333 C   0  0  0  0  0  0  0  0  0  0  0  0
  149.9524  140.4820  156.5998 O   0  0  0  0  0  0  0  0  0  0  0  0
  148.9728  141.7799  155.0253 N   0  0  0  0  0  0  0  0  0  0  0  0
  148.3696  140.7140  154.2276 C   0  0  0  0  0  0  0  0  0  0  0  0
  147.2533  141.2127  153.2826 C   0  0  0  0  0  0  0  0  0  0  0  0
  146.0118  141.6056  153.9974 N   0  3  2  0  0  0  0  0  0  0  0  0
  145.8884  143.0759  154.1568 C   0  0  0  0  0  0  0  0  0  0  0  0
  144.5319  143.4556  154.7775 C   0  0  0  0  0  0  0  0  0  0  0  0
  144.3021  142.7636  156.1434 C   0  0  2  0  0  0  0  0  0  0  0  0
  145.1650  143.3040  157.2130 N   0  0  0  0  0  0  0  0  0  0  0  0
  144.7346  144.6348  157.6377 C   0  0  0  0  0  0  0  0  0  0  0  0
  145.1575  142.4658  158.4100 C   0  0  0  0  0  0  0  0  0  0  0  0
  144.4709  141.2402  155.9232 C   0  0  0  0  0  0  0  0  0  0  0  0
  145.8282  140.8933  155.2874 C   0  0  0  0  0  0  0  0  0  0  0  0
  151.6231  141.8812  158.2773 C   0  0  0  0  0  0  0  0  0  0  0  0
  153.4901  140.9361  160.9827 H   0  0  0  0  0  0  0  0  0  0  0  0
  154.1756  140.7784  159.3603 H   0  0  0  0  0  0  0  0  0  0  0  0
  152.7077  139.8917  159.7941 H   0  0  0  0  0  0  0  0  0  0  0  0
  152.9905  143.3470  161.0398 H   0  0  0  0  0  0  0  0  0  0  0  0
  151.9257  145.5269  161.3705 H   0  0  0  0  0  0  0  0  0  0  0  0
  150.5295  145.9802  160.3907 H   0  0  0  0  0  0  0  0  0  0  0  0
  152.1643  146.3358  159.8169 H   0  0  0  0  0  0  0  0  0  0  0  0
  149.8232  143.6002  156.1630 H   0  0  0  0  0  0  0  0  0  0  0  0
  148.8276  142.7266  154.7049 H   0  0  0  0  0  0  0  0  0  0  0  0
  149.1658  140.2478  153.6473 H   0  0  0  0  0  0  0  0  0  0  0  0
  147.9833  139.9344  154.8860 H   0  0  0  0  0  0  0  0  0  0  0  0
  147.6121  142.0397  152.6683 H   0  0  0  0  0  0  0  0  0  0  0  0
  147.0159  140.4055  152.5886 H   0  0  0  0  0  0  0  0  0  0  0  0
  146.7073  143.4500  154.7734 H   0  0  0  0  0  0  0  0  0  0  0  0
  145.9796  143.5574  153.1823 H   0  0  0  0  0  0  0  0  0  0  0  0
  144.4257  144.5374  154.8308 H   0  0  0  0  0  0  0  0  0  0  0  0
  143.7431  143.1375  154.0942 H   0  0  0  0  0  0  0  0  0  0  0  0
  143.2690  142.9436  156.4452 H   0  0  0  0  0  0  0  0  0  0  0  0
  145.3261  144.9812  158.4862 H   0  0  0  0  0  0  0  0  0  0  0  0
  143.6853  144.6362  157.9363 H   0  0  0  0  0  0  0  0  0  0  0  0
  144.8735  145.3765  156.8532 H   0  0  0  0  0  0  0  0  0  0  0  0
  145.7171  142.9384  159.2183 H   0  0  0  0  0  0  0  0  0  0  0  0
  145.6412  141.5069  158.2314 H   0  0  0  0  0  0  0  0  0  0  0  0
  144.1412  142.2855  158.7633 H   0  0  0  0  0  0  0  0  0  0  0  0
  144.3134  140.6643  156.8335 H   0  0  0  0  0  0  0  0  0  0  0  0
  143.6830  140.9019  155.2487 H   0  0  0  0  0  0  0  0  0  0  0  0
  145.8762  139.8163  155.1280 H   0  0  0  0  0  0  0  0  0  0  0  0
  146.6419  141.1482  155.9683 H   0  0  0  0  0  0  0  0  0  0  0  0
  151.6146  140.9533  157.7235 H   0  0  0  0  0  0  0  0  0  0  0  0
  145.2471  141.3281  153.3988 H   0  0  0  0  0  0  0  0  0  0  0  0
  1  2  1  0  0  0  0
  1 24  1  0  0  0  0
  1 25  1  0  0  0  0
  1 26  1  0  0  0  0
  2 23  1  0  0  0  0
  2  3  2  0  0  0  0
  3  4  1  0  0  0  0
  3 27  1  0  0  0  0
  4  5  1  0  0  0  0
  4  6  2  0  0  0  0
  5 28  1  0  0  0  0
  5 29  1  0  0  0  0
  5 30  1  0  0  0  0
  6  7  1  0  0  0  0
  7  8  1  0  0  0  0
  7 23  2  0  0  0  0
  8  9  1  0  0  0  0
  8 31  1  0  0  0  0
  9 10  2  0  0  0  0
  9 11  1  0  0  0  0
 11 12  1  0  0  0  0
 11 32  1  0  0  0  0
 12 13  1  0  0  0  0
 12 33  1  0  0  0  0
 12 34  1  0  0  0  0
 13 14  1  0  0  0  0
 13 35  1  0  0  0  0
 13 36  1  0  0  0  0
 14 22  1  0  0  0  0
 14 15  1  0  0  0  0
 14 53  1  0  0  0  0
 15 16  1  0  0  0  0
 15 37  1  0  0  0  0
 15 38  1  0  0  0  0
 16 17  1  0  0  0  0
 16 39  1  0  0  0  0
 16 40  1  0  0  0  0
 17 18  1  0  0  0  0
 17 21  1  0  0  0  0
 17 41  1  0  0  0  0
 18 19  1  0  0  0  0
 18 20  1  0  0  0  0
 19 42  1  0  0  0  0
 19 43  1  0  0  0  0
 19 44  1  0  0  0  0
 20 45  1  0  0  0  0
 20 46  1  0  0  0  0
 20 47  1  0  0  0  0
 21 22  1  0  0  0  0
 21 48  1  0  0  0  0
 21 49  1  0  0  0  0
 22 50  1  0  0  0  0
 22 51  1  0  0  0  0
 23 52  1  0  0  0  0
M  CHG  1  14   1
M  END
> <s_m_source_file>
AV-unprocessed.smi

> <i_m_source_file_index>
2221

> <i_lp_mmshare_version>
43012

> <i_f3d_flags>
0

> <s_epik_input>
W0NIM11jMVtjSF1jKFtDSDNdKW5jKFtjSF0xKVtOSF1DKD1PKVtOSF1bQ0gyXVtDSDJdTjJbQ0gyXVtDSDJdW0NIXShOKFtDSDNdKVtDSDNdKVtDSDJdW0NIMl0y

> <s_epik_cmdline>
J2VwaWtfcHl0aG9uJywgJy1waCcsICc3LjAnLCAnLXRuJywgJzgnLCAnLW1hJywgJzIwMCcsICctbWV0YWxfYmluZGluZycsICctaW1hZScsICc8aW5maWxlLm1hZT4nLCAnLW9tYWUnLCAnPG91dGZpbGUubWFlPic=

> <r_epik_Ionization_Penalty>
1.32168

> <r_epik_Ionization_Penalty_Charging>
0.00219175

> <r_epik_Ionization_Penalty_Neutral>
1.31949

> <r_epik_State_Penalty>
1.51166

> <r_epik_Charging_Adjusted_Penalty>
1.51385

> <i_epik_Tot_Q>
1

> <i_epik_Tot_abs_Q>
1

> <r_epik_Metal_State_Penalty>
1.51167

> <b_epik_Metal_Only>
0

> <s_lp_Force_Field>
OPLS_2005

> <r_lp_Energy>
32.286

> <b_lp_Chiralities_Consistent>
1

> <s_lp_Variant>
AV-unprocessed.smi:2221-5

> <Gold.Version>
5.8.1

> <Gold.Id.Protein>
6NUR|6NUR_protein|mol2

> <Gold.PLP.Fitness>
51.8519

> <Gold.PLP.PLP>
-43.7017

> <Gold.PLP.part.hbond>
-2.8884

> <Gold.PLP.part.metal>
0.0000

> <Gold.PLP.part.buried>
-7.6122

> <Gold.PLP.part.nonpolar>
-34.4679

> <Gold.PLP.part.repulsive>
0.5919

> <Gold.PLP.ligand.clash>
0.0000

> <Gold.PLP.ligand.torsion>
0.9506

> <Gold.PLP.Chemscore.Hbond>
3.3403

> <Gold.PLP.Chemscore.CHOScore>
0.0000

> <Gold.PLP.Chemscore.Metal>
0.0000

> <Gold.Chemscore.Hbonds>
donor molecule, donor type, donor heavy atom, donor atom, acceptor molecule, acceptor atom, score
      L1  H     8    31       P1  8028  1.00
      L1  H    11    32       P1  8028  0.43
      L1  H    14    53       P1 10175  1.80

> <Gold.PLP.Chemscore.Internal.Correction>
0.0306

> <Gold.Rescore>
     Score         DG    S(hbond)    S(metal)    S(lipo)     H(rot)  DE(clash)    DE(int)     intcor
     17.16     -19.66       2.04        0.00      98.19       1.61       0.07       2.43       ----

> <Gold.Chemscore.Fitness>
17.1619

> <Gold.Chemscore.DG>
-19.6622

> <Gold.Chemscore.ZeroCoef>
-5.4800

> <Gold.Chemscore.Hbond>
2.0420

> <Gold.Chemscore.Metal>
0.0000

> <Gold.Chemscore.Lipo>
98.1921

> <Gold.Chemscore.Internal_Hbond>
0.0000

> <Gold.Chemscore.DEClash>
0.0713

> <Gold.Chemscore.DEInternal>
2.4290

> <Gold.Chemscore.Rot>
1.6119

> <Gold.Chemscore.Internal.Correction>
   9.000000E+99

> <Gold.Chemscore.Hbonds>
donor molecule, donor type, donor heavy atom, donor atom, acceptor molecule, acceptor atom, score
      L1  H     8    31       P1  8028  0.94
      L1  H    11    32       P1  8028  0.43
      L1  H    14    53       P1 10175  0.17

> <Gold.Chemscore.Hbond.Weighted>
-6.8202

> <Gold.Chemscore.Metal.Weighted>
-0.0000

> <Gold.Chemscore.Lipo.Weighted>
-11.4885

> <Gold.Chemscore.Internal_Hbond.Weighted>
0.0000

> <Gold.Chemscore.DEClash.Weighted>
0.0713

> <Gold.Chemscore.DEInternal.Weighted>
2.4290

> <Gold.Chemscore.Rot.Weighted>
4.1264

> <Gold.Chemscore.Internal.Correction.Weighted>
   9.000000E+99

> <Gold.Protein.RotatedTorsions>
[ 6907 6896 6895 6894 ] final  144.68 input  -60.11 | X-H torsion
[ 7974 7965 7964 7962 ] final -173.60 input  175.53 | X-H torsion
[ 8008 7997 7996 7995 ] final  -10.55 input   59.86 | X-H torsion
[ 10167 10162 10161 10158 ] final -102.60 input  -65.29 | X-H torsion
[ 10718 10713 10712 10709 ] final  155.05 input   66.30 | X-H torsion
[ 10763 10752 10751 10750 ] final -164.25 input  -60.55 | X-H torsion
[ 11005 11000 10999 10996 ] final   92.30 input  -57.11 | X-H torsion

> <Gold.Protein.ActiveResidues>
 VAL166  LYS551  ARG553  GLY616  TRP617  ASP618  TYR619  PRO620  LYS621  CYS622 
 ASP623  PHE694  ASN695  SER759  ASP760  ASP761  ALA762  ILE779  LEU786  VAL792 
 PHE793  MET794  SER795  GLU796  ALA797  LYS798  CYS799  TRP800  GLU811  SER814 

> <Gold.Protein.RotatedAtoms>
  152.1905  133.4770  159.5005 H   0  0  0  0  0  0  0  0  0  0  0  0  # atno 6907 bound_to 6896
  150.6950  134.1718  159.4224 H   0  0  0  0  0  0  0  0  0  0  0  0  # atno 6908 bound_to 6896
  151.9633  135.0113  160.0599 H   0  0  0  0  0  0  0  0  0  0  0  0  # atno 6909 bound_to 6896
  144.7137  140.1597  143.6377 H   0  0  0  0  0  0  0  0  0  0  0  0  # atno 7974 bound_to 7965
  154.5544  140.2326  155.8433 H   0  0  0  0  0  0  0  0  0  0  0  0  # atno 8008 bound_to 7997
  156.1975  140.3061  155.9418 H   0  0  0  0  0  0  0  0  0  0  0  0  # atno 8009 bound_to 7997
  155.3008  140.0431  157.3020 H   0  0  0  0  0  0  0  0  0  0  0  0  # atno 8010 bound_to 7997
  140.2290  143.3620  152.0903 H   0  0  0  0  0  0  0  0  0  0  0  0  # atno 10167 bound_to 10162
  157.2235  131.0723  151.1898 H   0  0  0  0  0  0  0  0  0  0  0  0  # atno 10718 bound_to 10713
  154.7046  135.2994  154.9290 H   0  0  0  0  0  0  0  0  0  0  0  0  # atno 10763 bound_to 10752
  154.0211  135.6682  153.4776 H   0  0  0  0  0  0  0  0  0  0  0  0  # atno 10764 bound_to 10752
  153.0707  135.5062  154.8209 H   0  0  0  0  0  0  0  0  0  0  0  0  # atno 10765 bound_to 10752
  139.8825  134.8725  156.3553 H   0  0  0  0  0  0  0  0  0  0  0  0  # atno 11005 bound_to 11000
  145.9042  139.2448  143.1476 LP  0  0  0  0  0  0  0  0  0  0  0  0  # atno 17320 bound_to 7965
  145.9781  140.8705  143.0128 LP  0  0  0  0  0  0  0  0  0  0  0  0  # atno 17321 bound_to 7965
  139.5117  144.6904  151.5774 LP  0  0  0  0  0  0  0  0  0  0  0  0  # atno 17342 bound_to 10162
  140.6199  143.9278  150.6518 LP  0  0  0  0  0  0  0  0  0  0  0  0  # atno 17343 bound_to 10162
  157.3552  130.7102  149.6466 LP  0  0  0  0  0  0  0  0  0  0  0  0  # atno 17370 bound_to 10713
  155.9680  130.4241  150.4593 LP  0  0  0  0  0  0  0  0  0  0  0  0  # atno 17371 bound_to 10713
  140.9566  133.7416  156.0344 LP  0  0  0  0  0  0  0  0  0  0  0  0  # atno 17394 bound_to 11000
  140.8040  134.3476  157.5431 LP  0  0  0  0  0  0  0  0  0  0  0  0  # atno 17395 bound_to 11000

$$$$
