AV-unprocessed.smi:462|AV-procd|sdf|2632|dock5
  -GOLD-   2262023 43D 1   1.00000     0.00000
 Structure written by MMmdl.
 46 48  0  0  0  0  0  0  0  0  1 V2000
  154.0015  140.1523  160.8194 C   0  0  0  0  0  0  0  0  0  0  0  0
  153.1655  140.8411  159.9020 O   0  0  0  0  0  0  0  0  0  0  0  0
  152.7132  142.0993  160.2432 C   0  0  0  0  0  0  0  0  0  0  0  0
  152.9079  142.6864  161.5189 C   0  0  0  0  0  0  0  0  0  0  0  0
  152.4186  143.9768  161.7926 C   0  0  0  0  0  0  0  0  0  0  0  0
  151.7302  144.6933  160.7987 C   0  0  0  0  0  0  0  0  0  0  0  0
  151.5310  144.1204  159.5296 C   0  0  0  0  0  0  0  0  0  0  0  0
  152.0220  142.8218  159.2438 C   0  0  0  0  0  0  0  0  0  0  0  0
  151.8675  142.1967  158.0257 O   0  0  0  0  0  0  0  0  0  0  0  0
  151.0846  142.8270  157.0223 C   0  0  0  0  0  0  0  0  0  0  0  0
  149.7651  142.0536  156.8672 C   0  0  0  0  0  0  0  0  0  0  0  0
  149.8555  141.0013  155.8601 N   0  0  0  0  0  0  0  0  0  0  0  0
  149.0677  140.7612  154.7697 C   0  0  0  0  0  0  0  0  0  0  0  0
  147.8292  141.5627  154.4055 C   0  0  0  0  0  0  0  0  0  0  0  0
  147.1045  140.9686  153.1790 C   0  0  0  0  0  0  0  0  0  0  0  0
  146.8708  141.6460  155.6053 C   0  0  0  0  0  0  0  0  0  0  0  0
  148.1156  142.8869  153.9996 O   0  0  0  0  0  0  0  0  0  0  0  0
  149.3824  139.6554  154.0869 N   0  0  0  0  0  0  0  0  0  0  0  0
  150.4994  139.1803  154.7389 C   0  0  0  0  0  0  0  0  0  0  0  0
  151.3122  138.0564  154.4673 C   0  0  0  0  0  0  0  0  0  0  0  0
  152.4170  137.7588  155.2913 C   0  0  0  0  0  0  0  0  0  0  0  0
  152.7203  138.5769  156.3984 C   0  0  0  0  0  0  0  0  0  0  0  0
  151.9184  139.6974  156.6876 C   0  0  0  0  0  0  0  0  0  0  0  0
  150.8208  139.9957  155.8565 C   0  0  0  0  0  0  0  0  0  0  0  0
  154.2837  139.1897  160.3928 H   0  0  0  0  0  0  0  0  0  0  0  0
  153.4856  139.9576  161.7606 H   0  0  0  0  0  0  0  0  0  0  0  0
  154.9199  140.7068  161.0169 H   0  0  0  0  0  0  0  0  0  0  0  0
  153.4311  142.1662  162.3066 H   0  0  0  0  0  0  0  0  0  0  0  0
  152.5720  144.4170  162.7668 H   0  0  0  0  0  0  0  0  0  0  0  0
  151.3541  145.6836  161.0096 H   0  0  0  0  0  0  0  0  0  0  0  0
  150.9969  144.6978  158.7903 H   0  0  0  0  0  0  0  0  0  0  0  0
  150.8738  143.8592  157.3048 H   0  0  0  0  0  0  0  0  0  0  0  0
  151.6254  142.8394  156.0755 H   0  0  0  0  0  0  0  0  0  0  0  0
  149.5017  141.5927  157.8196 H   0  0  0  0  0  0  0  0  0  0  0  0
  148.9391  142.7234  156.6346 H   0  0  0  0  0  0  0  0  0  0  0  0
  146.7473  139.9566  153.3728 H   0  0  0  0  0  0  0  0  0  0  0  0
  147.7633  140.9249  152.3106 H   0  0  0  0  0  0  0  0  0  0  0  0
  146.2335  141.5634  152.9007 H   0  0  0  0  0  0  0  0  0  0  0  0
  146.5597  140.6518  155.9279 H   0  0  0  0  0  0  0  0  0  0  0  0
  145.9693  142.2087  155.3601 H   0  0  0  0  0  0  0  0  0  0  0  0
  147.3419  142.1343  156.4589 H   0  0  0  0  0  0  0  0  0  0  0  0
  148.2683  143.4099  154.7714 H   0  0  0  0  0  0  0  0  0  0  0  0
  151.0855  137.4236  153.6221 H   0  0  0  0  0  0  0  0  0  0  0  0
  153.0335  136.8991  155.0733 H   0  0  0  0  0  0  0  0  0  0  0  0
  153.5687  138.3447  157.0253 H   0  0  0  0  0  0  0  0  0  0  0  0
  152.1520  140.3263  157.5338 H   0  0  0  0  0  0  0  0  0  0  0  0
  1  2  1  0  0  0  0
  1 25  1  0  0  0  0
  1 26  1  0  0  0  0
  1 27  1  0  0  0  0
  2  3  1  0  0  0  0
  3  8  1  0  0  0  0
  3  4  2  0  0  0  0
  4  5  1  0  0  0  0
  4 28  1  0  0  0  0
  5  6  2  0  0  0  0
  5 29  1  0  0  0  0
  6  7  1  0  0  0  0
  6 30  1  0  0  0  0
  7  8  2  0  0  0  0
  7 31  1  0  0  0  0
  8  9  1  0  0  0  0
  9 10  1  0  0  0  0
 10 11  1  0  0  0  0
 10 32  1  0  0  0  0
 10 33  1  0  0  0  0
 11 12  1  0  0  0  0
 11 34  1  0  0  0  0
 11 35  1  0  0  0  0
 12 24  1  0  0  0  0
 12 13  1  0  0  0  0
 13 14  1  0  0  0  0
 13 18  2  0  0  0  0
 14 15  1  0  0  0  0
 14 16  1  0  0  0  0
 14 17  1  0  0  0  0
 15 36  1  0  0  0  0
 15 37  1  0  0  0  0
 15 38  1  0  0  0  0
 16 39  1  0  0  0  0
 16 40  1  0  0  0  0
 16 41  1  0  0  0  0
 17 42  1  0  0  0  0
 18 19  1  0  0  0  0
 19 24  2  0  0  0  0
 19 20  1  0  0  0  0
 20 21  2  0  0  0  0
 20 43  1  0  0  0  0
 21 22  1  0  0  0  0
 21 44  1  0  0  0  0
 22 23  2  0  0  0  0
 22 45  1  0  0  0  0
 23 24  1  0  0  0  0
 23 46  1  0  0  0  0
M  END
> <s_m_source_file>
AV-unprocessed.smi

> <i_m_source_file_index>
462

> <i_lp_mmshare_version>
43012

> <i_f3d_flags>
0

> <s_epik_input>
W0NIM11PYzFbY0hdW2NIXVtjSF1bY0hdYzFPW0NIMl1bQ0gyXW4oYyhuMilDKFtDSDNdKShbQ0gzXSlbT0hdKWMoYzIzKVtjSF1bY0hdW2NIXVtjSF0z

> <s_epik_cmdline>
J2VwaWtfcHl0aG9uJywgJy1waCcsICc3LjAnLCAnLXRuJywgJzgnLCAnLW1hJywgJzIwMCcsICctbWV0YWxfYmluZGluZycsICctaW1hZScsICc8aW5maWxlLm1hZT4nLCAnLW9tYWUnLCAnPG91dGZpbGUubWFlPic=

> <r_lp_tautomer_probability>
1

> <r_epik_Ionization_Penalty>
0.0665975

> <r_epik_Ionization_Penalty_Charging>
0

> <r_epik_Ionization_Penalty_Neutral>
0.0665975

> <r_epik_State_Penalty>
0.0581545

> <r_epik_Charging_Adjusted_Penalty>
0.0581545

> <i_epik_Tot_Q>
0

> <i_epik_Tot_abs_Q>
0

> <r_epik_Metal_State_Penalty>
6.11011e-05

> <b_epik_Metal_Only>
0

> <s_lp_Force_Field>
OPLS_2005

> <r_lp_Energy>
19.5197

> <b_lp_Chiralities_Consistent>
1

> <s_lp_Variant>
AV-unprocessed.smi:462-1

> <Gold.Version>
5.8.1

> <Gold.Id.Protein>
6NUR|6NUR_protein|mol2

> <Gold.PLP.Fitness>
55.5688

> <Gold.PLP.PLP>
-53.8451

> <Gold.PLP.part.hbond>
-2.8067

> <Gold.PLP.part.metal>
0.0000

> <Gold.PLP.part.buried>
-3.3822

> <Gold.PLP.part.nonpolar>
-48.1690

> <Gold.PLP.part.repulsive>
1.1516

> <Gold.PLP.ligand.clash>
0.0000

> <Gold.PLP.ligand.torsion>
0.7258

> <Gold.PLP.Chemscore.Hbond>
1.0000

> <Gold.PLP.Chemscore.CHOScore>
0.0000

> <Gold.PLP.Chemscore.Metal>
0.0000

> <Gold.Chemscore.Hbonds>
donor molecule, donor type, donor heavy atom, donor atom, acceptor molecule, acceptor atom, score
      L1  H    17    42       P1  8028  1.00

> <Gold.PLP.Chemscore.Internal.Correction>
0.1754

> <Gold.Rescore>
     Score         DG    S(hbond)    S(metal)    S(lipo)     H(rot)  DE(clash)    DE(int)     intcor
     18.02     -20.39       0.96        0.00     149.43       2.25       0.29       2.09       ----

> <Gold.Chemscore.Fitness>
18.0159

> <Gold.Chemscore.DG>
-20.3927

> <Gold.Chemscore.ZeroCoef>
-5.4800

> <Gold.Chemscore.Hbond>
0.9581

> <Gold.Chemscore.Metal>
0.0000

> <Gold.Chemscore.Lipo>
149.4272

> <Gold.Chemscore.Internal_Hbond>
0.0000

> <Gold.Chemscore.DEClash>
0.2871

> <Gold.Chemscore.DEInternal>
2.0897

> <Gold.Chemscore.Rot>
2.2541

> <Gold.Chemscore.Internal.Correction>
   9.000000E+99

> <Gold.Chemscore.Hbonds>
donor molecule, donor type, donor heavy atom, donor atom, acceptor molecule, acceptor atom, score
      L1  H    17    42       P1  8028  0.95

> <Gold.Chemscore.Hbond.Weighted>
-3.2002

> <Gold.Chemscore.Metal.Weighted>
-0.0000

> <Gold.Chemscore.Lipo.Weighted>
-17.4830

> <Gold.Chemscore.Internal_Hbond.Weighted>
0.0000

> <Gold.Chemscore.DEClash.Weighted>
0.2871

> <Gold.Chemscore.DEInternal.Weighted>
2.0897

> <Gold.Chemscore.Rot.Weighted>
5.7705

> <Gold.Chemscore.Internal.Correction.Weighted>
   9.000000E+99

> <Gold.Protein.RotatedTorsions>
[ 6907 6896 6895 6894 ] final -104.05 input  -60.11 | X-H torsion
[ 7974 7965 7964 7962 ] final   51.86 input  175.53 | X-H torsion
[ 8008 7997 7996 7995 ] final   76.92 input   59.86 | X-H torsion
[ 10167 10162 10161 10158 ] final -130.79 input  -65.29 | X-H torsion
[ 10718 10713 10712 10709 ] final  117.46 input   66.30 | X-H torsion
[ 10763 10752 10751 10750 ] final   61.11 input  -60.55 | X-H torsion
[ 11005 11000 10999 10996 ] final  147.39 input  -57.11 | X-H torsion

> <Gold.Protein.ActiveResidues>
 VAL166  LYS551  ARG553  GLY616  TRP617  ASP618  TYR619  PRO620  LYS621  CYS622 
 ASP623  PHE694  ASN695  SER759  ASP760  ASP761  ALA762  ILE779  LEU786  VAL792 
 PHE793  MET794  SER795  GLU796  ALA797  LYS798  CYS799  TRP800  GLU811  SER814 

> <Gold.Protein.RotatedAtoms>
  150.7269  134.0336  159.3741 H   0  0  0  0  0  0  0  0  0  0  0  0  # atno 6907 bound_to 6896
  151.8306  135.0620  160.0445 H   0  0  0  0  0  0  0  0  0  0  0  0  # atno 6908 bound_to 6896
  152.2936  133.5549  159.5610 H   0  0  0  0  0  0  0  0  0  0  0  0  # atno 6909 bound_to 6896
  145.9871  139.4301  143.0096 H   0  0  0  0  0  0  0  0  0  0  0  0  # atno 7974 bound_to 7965
  155.8342  140.3465  155.5591 H   0  0  0  0  0  0  0  0  0  0  0  0  # atno 8008 bound_to 7997
  155.8209  140.0913  157.1869 H   0  0  0  0  0  0  0  0  0  0  0  0  # atno 8009 bound_to 7997
  154.4004  140.1430  156.3486 H   0  0  0  0  0  0  0  0  0  0  0  0  # atno 8010 bound_to 7997
  139.9256  143.6331  152.2542 H   0  0  0  0  0  0  0  0  0  0  0  0  # atno 10167 bound_to 10162
  157.6095  131.1037  150.7618 H   0  0  0  0  0  0  0  0  0  0  0  0  # atno 10718 bound_to 10713
  152.9941  135.5512  154.5982 H   0  0  0  0  0  0  0  0  0  0  0  0  # atno 10763 bound_to 10752
  154.5329  135.2814  155.1166 H   0  0  0  0  0  0  0  0  0  0  0  0  # atno 10764 bound_to 10752
  154.2474  135.6405  153.5281 H   0  0  0  0  0  0  0  0  0  0  0  0  # atno 10765 bound_to 10752
  140.0872  134.9062  157.1594 H   0  0  0  0  0  0  0  0  0  0  0  0  # atno 11005 bound_to 11000
  145.7684  140.9906  143.1162 LP  0  0  0  0  0  0  0  0  0  0  0  0  # atno 17320 bound_to 7965
  144.6878  139.9417  143.7475 LP  0  0  0  0  0  0  0  0  0  0  0  0  # atno 17321 bound_to 7965
  139.6824  144.7654  151.1584 LP  0  0  0  0  0  0  0  0  0  0  0  0  # atno 17342 bound_to 10162
  140.7651  143.5705  150.9001 LP  0  0  0  0  0  0  0  0  0  0  0  0  # atno 17343 bound_to 10162
  156.7999  130.4917  149.5371 LP  0  0  0  0  0  0  0  0  0  0  0  0  # atno 17370 bound_to 10713
  156.1192  130.6097  151.0168 LP  0  0  0  0  0  0  0  0  0  0  0  0  # atno 17371 bound_to 10713
  140.3403  134.2711  155.7213 LP  0  0  0  0  0  0  0  0  0  0  0  0  # atno 17394 bound_to 11000
  141.2066  133.7828  157.0166 LP  0  0  0  0  0  0  0  0  0  0  0  0  # atno 17395 bound_to 11000

$$$$
