AV-unprocessed.smi:99|AV-procd|sdf|872|dock9
  -GOLD-   2262017333D 1   1.00000     0.00000
 Structure written by MMmdl.
 53 56  0  0  0  0  0  0  0  0  1 V2000
  151.8676  136.5229  154.8841 O   0  0  0  0  0  0  0  0  0  0  0  0
  150.8746  136.8292  155.5475 C   0  0  0  0  0  0  0  0  0  0  0  0
  149.9758  135.9336  156.0007 O   0  0  0  0  0  0  0  0  0  0  0  0
  150.1452  134.5547  155.7183 C   0  0  0  0  0  0  0  0  0  0  0  0
  149.2450  133.7295  156.6591 C   0  0  1  0  0  0  0  0  0  0  0  0
  149.5114  134.1277  157.9975 O   0  0  0  0  0  0  0  0  0  0  0  0
  148.6983  135.2076  158.3413 C   0  0  2  0  0  0  0  0  0  0  0  0
  148.2607  135.0167  159.7783 N   0  0  0  0  0  0  0  0  0  0  0  0
  147.9504  133.7506  160.2557 C   0  0  0  0  0  0  0  0  0  0  0  0
  147.5639  133.5156  161.5318 C   0  0  0  0  0  0  0  0  0  0  0  0
  147.4552  134.6146  162.4858 C   0  0  0  0  0  0  0  0  0  0  0  0
  147.1172  134.5015  163.6621 O   0  0  0  0  0  0  0  0  0  0  0  0
  147.7724  135.8715  161.9618 N   0  0  0  0  0  0  0  0  0  0  0  0
  148.1691  136.1266  160.6475 C   0  0  0  0  0  0  0  0  0  0  0  0
  148.4117  137.2797  160.2937 O   0  0  0  0  0  0  0  0  0  0  0  0
  147.5196  135.2594  157.3419 C   0  0  2  0  0  0  0  0  0  0  0  0
  146.2357  135.2464  157.9403 O   0  0  0  0  0  0  0  0  0  0  0  0
  147.7421  134.0018  156.5078 C   0  0  1  0  0  0  0  0  0  0  0  0
  147.3988  134.2007  155.1407 O   0  0  0  0  0  0  0  0  0  0  0  0
  147.4566  133.1854  154.2533 C   0  0  0  0  0  0  0  0  0  0  0  0
  147.9631  132.0893  154.5001 O   0  0  0  0  0  0  0  0  0  0  0  0
  146.8347  133.5281  152.9422 C   0  0  0  0  0  0  0  0  0  0  0  0
  146.3713  134.8456  152.7185 C   0  0  0  0  0  0  0  0  0  0  0  0
  145.7810  135.1995  151.4898 C   0  0  0  0  0  0  0  0  0  0  0  0
  145.6462  134.2401  150.4699 C   0  0  0  0  0  0  0  0  0  0  0  0
  146.1022  132.9258  150.6801 C   0  0  0  0  0  0  0  0  0  0  0  0
  146.6935  132.5698  151.9080 C   0  0  0  0  0  0  0  0  0  0  0  0
  150.5422  138.2311  155.9325 C   0  0  0  0  0  0  0  0  0  0  0  0
  151.3978  139.2826  155.5280 C   0  0  0  0  0  0  0  0  0  0  0  0
  151.1085  140.6165  155.8752 C   0  0  0  0  0  0  0  0  0  0  0  0
  149.9605  140.9158  156.6317 C   0  0  0  0  0  0  0  0  0  0  0  0
  149.1016  139.8790  157.0405 C   0  0  0  0  0  0  0  0  0  0  0  0
  149.3886  138.5442  156.6936 C   0  0  0  0  0  0  0  0  0  0  0  0
  147.7054  136.6621  162.5863 H   0  0  0  0  0  0  0  0  0  0  0  0
  149.9151  134.3485  154.6722 H   0  0  0  0  0  0  0  0  0  0  0  0
  151.1932  134.2989  155.8794 H   0  0  0  0  0  0  0  0  0  0  0  0
  149.4546  132.6672  156.5283 H   0  0  0  0  0  0  0  0  0  0  0  0
  149.3132  136.1076  158.2995 H   0  0  0  0  0  0  0  0  0  0  0  0
  148.0111  132.9083  159.5814 H   0  0  0  0  0  0  0  0  0  0  0  0
  147.3326  132.5090  161.8484 H   0  0  0  0  0  0  0  0  0  0  0  0
  147.6338  136.1567  156.7318 H   0  0  0  0  0  0  0  0  0  0  0  0
  146.1697  135.9838  158.5279 H   0  0  0  0  0  0  0  0  0  0  0  0
  147.1997  133.1600  156.9424 H   0  0  0  0  0  0  0  0  0  0  0  0
  146.4641  135.6000  153.4866 H   0  0  0  0  0  0  0  0  0  0  0  0
  145.4313  136.2089  151.3306 H   0  0  0  0  0  0  0  0  0  0  0  0
  145.1936  134.5117  149.5276 H   0  0  0  0  0  0  0  0  0  0  0  0
  145.9986  132.1886  149.8976 H   0  0  0  0  0  0  0  0  0  0  0  0
  147.0326  131.5522  152.0358 H   0  0  0  0  0  0  0  0  0  0  0  0
  152.2848  139.0775  154.9462 H   0  0  0  0  0  0  0  0  0  0  0  0
  151.7683  141.4112  155.5595 H   0  0  0  0  0  0  0  0  0  0  0  0
  149.7388  141.9389  156.8974 H   0  0  0  0  0  0  0  0  0  0  0  0
  148.2197  140.1073  157.6210 H   0  0  0  0  0  0  0  0  0  0  0  0
  148.7075  137.7729  157.0225 H   0  0  0  0  0  0  0  0  0  0  0  0
  1  2  2  0  0  0  0
  2  3  1  0  0  0  0
  2 28  1  0  0  0  0
  3  4  1  0  0  0  0
  4  5  1  0  0  0  0
  4 35  1  0  0  0  0
  4 36  1  0  0  0  0
  5 18  1  0  0  0  0
  5  6  1  0  0  0  0
  5 37  1  0  0  0  0
  6  7  1  0  0  0  0
  7  8  1  0  0  0  0
  7 16  1  0  0  0  0
  7 38  1  0  0  0  0
  8 14  1  0  0  0  0
  8  9  1  0  0  0  0
  9 10  2  0  0  0  0
  9 39  1  0  0  0  0
 10 11  1  0  0  0  0
 10 40  1  0  0  0  0
 11 12  2  0  0  0  0
 11 13  1  0  0  0  0
 13 34  1  0  0  0  0
 13 14  1  0  0  0  0
 14 15  2  0  0  0  0
 16 17  1  0  0  0  0
 16 18  1  0  0  0  0
 16 41  1  0  0  0  0
 17 42  1  0  0  0  0
 18 19  1  0  0  0  0
 18 43  1  0  0  0  0
 19 20  1  0  0  0  0
 20 21  2  0  0  0  0
 20 22  1  0  0  0  0
 22 27  1  0  0  0  0
 22 23  2  0  0  0  0
 23 24  1  0  0  0  0
 23 44  1  0  0  0  0
 24 25  2  0  0  0  0
 24 45  1  0  0  0  0
 25 26  1  0  0  0  0
 25 46  1  0  0  0  0
 26 27  2  0  0  0  0
 26 47  1  0  0  0  0
 27 48  1  0  0  0  0
 28 33  1  0  0  0  0
 28 29  2  0  0  0  0
 29 30  1  0  0  0  0
 29 49  1  0  0  0  0
 30 31  2  0  0  0  0
 30 50  1  0  0  0  0
 31 32  1  0  0  0  0
 31 51  1  0  0  0  0
 32 33  2  0  0  0  0
 32 52  1  0  0  0  0
 33 53  1  0  0  0  0
M  END
> <s_m_source_file>
AV-unprocessed.smi

> <i_m_source_file_index>
99

> <i_lp_mmshare_version>
43012

> <i_f3d_flags>
0

> <s_epik_input>
W2NIXTFbY0hdW2NIXVtjSF1bY0hdYzFDKD1PKU9bQ0gyXVtDQEBIXTJPW0NAQEhdKG4zW2NIXVtjSF1jKD1PKVtuSF1jMz1PKVtDQEBIXShbT0hdKVtDQEhdMk9DKD1PKWM0W2NIXVtjSF1bY0hdW2NIXVtjSF00

> <s_epik_cmdline>
J2VwaWtfcHl0aG9uJywgJy1waCcsICc3LjAnLCAnLXRuJywgJzgnLCAnLW1hJywgJzIwMCcsICctbWV0YWxfYmluZGluZycsICctaW1hZScsICc8aW5maWxlLm1hZT4nLCAnLW9tYWUnLCAnPG91dGZpbGUubWFlPic=

> <r_lp_tautomer_probability>
1

> <r_epik_Ionization_Penalty>
0.00454555

> <r_epik_Ionization_Penalty_Charging>
0.0045191

> <r_epik_Ionization_Penalty_Neutral>
2.64449e-05

> <r_epik_State_Penalty>
-0

> <r_epik_Charging_Adjusted_Penalty>
0.0045191

> <i_epik_Tot_Q>
0

> <i_epik_Tot_abs_Q>
0

> <r_epik_Metal_State_Penalty>
1.27877

> <b_epik_Metal_Only>
0

> <s_epik_Chemistry_Notes>
This compound has an ester and may undergo hydrolysis at high or low pH. This compound contains an acetal/aminal-like group ( X-CH(R)-Y where X, Y are N, S, or O) that may be acid/base labile, releasing an aldehyde.

> <s_lp_Force_Field>
OPLS_2005

> <r_lp_Energy>
42.9918

> <b_lp_Chiralities_Consistent>
1

> <s_lp_Variant>
AV-unprocessed.smi:99-8

> <Gold.Version>
5.8.1

> <Gold.Id.Protein>
6NUR|6NUR_protein|mol2

> <Gold.PLP.Fitness>
49.9856

> <Gold.PLP.PLP>
-41.8944

> <Gold.PLP.part.hbond>
-5.8476

> <Gold.PLP.part.metal>
0.0000

> <Gold.PLP.part.buried>
-4.2290

> <Gold.PLP.part.nonpolar>
-32.6102

> <Gold.PLP.part.repulsive>
0.4702

> <Gold.PLP.ligand.clash>
0.0000

> <Gold.PLP.ligand.torsion>
0.8114

> <Gold.PLP.Chemscore.Hbond>
3.0748

> <Gold.PLP.Chemscore.CHOScore>
0.0000

> <Gold.PLP.Chemscore.Metal>
0.0000

> <Gold.Chemscore.Hbonds>
donor molecule, donor type, donor heavy atom, donor atom, acceptor molecule, acceptor atom, score
      P1  H  6896  6909       L1     6  1.00
      P1  H  6931  6943       L1    15  0.62
      P1  H  6934  6947       L1    15  0.30
      P1  H 10752 10763       L1     1  0.88

> <Gold.PLP.Chemscore.Internal.Correction>
0.4895

> <Gold.Rescore>
     Score         DG    S(hbond)    S(metal)    S(lipo)     H(rot)  DE(clash)    DE(int)     intcor
      9.49     -15.33       2.64        0.00      78.56       3.19       1.40       4.43       ----

> <Gold.Chemscore.Fitness>
9.4948

> <Gold.Chemscore.DG>
-15.3271

> <Gold.Chemscore.ZeroCoef>
-5.4800

> <Gold.Chemscore.Hbond>
2.6413

> <Gold.Chemscore.Metal>
0.0000

> <Gold.Chemscore.Lipo>
78.5648

> <Gold.Chemscore.Internal_Hbond>
0.0000

> <Gold.Chemscore.DEClash>
1.3973

> <Gold.Chemscore.DEInternal>
4.4350

> <Gold.Chemscore.Rot>
3.1903

> <Gold.Chemscore.Internal.Correction>
   9.000000E+99

> <Gold.Chemscore.Hbonds>
donor molecule, donor type, donor heavy atom, donor atom, acceptor molecule, acceptor atom, score
      P1  H  6896  6909       L1     6  0.70
      P1  H  6931  6943       L1    15  0.40
      P1  H  6934  6947       L1    15  0.29
      P1  H 10752 10763       L1     1  0.81

> <Gold.Chemscore.Hbond.Weighted>
-8.8221

> <Gold.Chemscore.Metal.Weighted>
-0.0000

> <Gold.Chemscore.Lipo.Weighted>
-9.1921

> <Gold.Chemscore.Internal_Hbond.Weighted>
0.0000

> <Gold.Chemscore.DEClash.Weighted>
1.3973

> <Gold.Chemscore.DEInternal.Weighted>
4.4350

> <Gold.Chemscore.Rot.Weighted>
8.1671

> <Gold.Chemscore.Internal.Correction.Weighted>
   9.000000E+99

> <Gold.Protein.RotatedTorsions>
[ 6907 6896 6895 6894 ] final    5.30 input  -60.11 | X-H torsion
[ 7974 7965 7964 7962 ] final -155.45 input  175.53 | X-H torsion
[ 8008 7997 7996 7995 ] final  -42.30 input   59.86 | X-H torsion
[ 10167 10162 10161 10158 ] final -104.13 input  -65.29 | X-H torsion
[ 10718 10713 10712 10709 ] final -147.76 input   66.30 | X-H torsion
[ 10763 10752 10751 10750 ] final   35.84 input  -60.55 | X-H torsion
[ 11005 11000 10999 10996 ] final   36.63 input  -57.11 | X-H torsion

> <Gold.Protein.ActiveResidues>
 VAL166  LYS551  ARG553  GLY616  TRP617  ASP618  TYR619  PRO620  LYS621  CYS622 
 ASP623  PHE694  ASN695  SER759  ASP760  ASP761  ALA762  ILE779  LEU786  VAL792 
 PHE793  MET794  SER795  GLU796  ALA797  LYS798  CYS799  TRP800  GLU811  SER814 

> <Gold.Protein.RotatedAtoms>
  151.6552  135.0996  160.0168 H   0  0  0  0  0  0  0  0  0  0  0  0  # atno 6907 bound_to 6896
  152.3978  133.6768  159.6299 H   0  0  0  0  0  0  0  0  0  0  0  0  # atno 6908 bound_to 6896
  150.7882  133.8760  159.3313 H   0  0  0  0  0  0  0  0  0  0  0  0  # atno 6909 bound_to 6896
  144.7640  140.4248  143.5956 H   0  0  0  0  0  0  0  0  0  0  0  0  # atno 7974 bound_to 7965
  154.3999  140.1477  156.3332 H   0  0  0  0  0  0  0  0  0  0  0  0  # atno 8008 bound_to 7997
  155.8424  140.3461  155.5619 H   0  0  0  0  0  0  0  0  0  0  0  0  # atno 8009 bound_to 7997
  155.8072  140.0879  157.1914 H   0  0  0  0  0  0  0  0  0  0  0  0  # atno 8010 bound_to 7997
  140.2126  143.3735  152.1038 H   0  0  0  0  0  0  0  0  0  0  0  0  # atno 10167 bound_to 10162
  156.4116  130.7984  151.2202 H   0  0  0  0  0  0  0  0  0  0  0  0  # atno 10718 bound_to 10713
  153.0102  135.6322  154.1890 H   0  0  0  0  0  0  0  0  0  0  0  0  # atno 10763 bound_to 10752
  154.1633  135.2822  155.3104 H   0  0  0  0  0  0  0  0  0  0  0  0  # atno 10764 bound_to 10752
  154.5965  135.5601  153.7391 H   0  0  0  0  0  0  0  0  0  0  0  0  # atno 10765 bound_to 10752
  140.2306  134.3532  155.7965 H   0  0  0  0  0  0  0  0  0  0  0  0  # atno 11005 bound_to 11000
  145.6530  139.1568  143.2851 LP  0  0  0  0  0  0  0  0  0  0  0  0  # atno 17320 bound_to 7965
  146.1729  140.6617  142.9224 LP  0  0  0  0  0  0  0  0  0  0  0  0  # atno 17321 bound_to 7965
  139.5174  144.6991  151.5545 LP  0  0  0  0  0  0  0  0  0  0  0  0  # atno 17342 bound_to 10162
  140.6313  143.9071  150.6607 LP  0  0  0  0  0  0  0  0  0  0  0  0  # atno 17343 bound_to 10162
  157.7507  131.0256  150.3924 LP  0  0  0  0  0  0  0  0  0  0  0  0  # atno 17370 bound_to 10713
  156.4224  130.3955  149.6816 LP  0  0  0  0  0  0  0  0  0  0  0  0  # atno 17371 bound_to 10713
  141.2218  133.7243  156.8725 LP  0  0  0  0  0  0  0  0  0  0  0  0  # atno 17394 bound_to 11000
  140.1754  134.9070  157.2885 LP  0  0  0  0  0  0  0  0  0  0  0  0  # atno 17395 bound_to 11000

$$$$
