AV-unprocessed.smi:1826|AV-procd|sdf|7418|dock9
  -GOLD-   22720 9103D 1   1.00000     0.00000
 Structure written by MMmdl.
 40 42  0  0  0  0  0  0  0  0  2 V2000
  146.6297  138.5932  150.9872 O   0  0  0  0  0  0  0  0  0  0  0  0
  146.4047  138.5217  152.3800 C   0  0  0  0  0  0  0  0  0  0  0  0
  147.5676  138.9953  153.1921 C   0  0  0  0  0  0  0  0  0  0  0  0
  148.7969  138.4093  153.2666 N   0  3  0  0  0  0  0  0  0  0  0  0
  149.6132  139.1285  154.1396 C   0  0  0  0  0  0  0  0  0  0  0  0
  150.9299  138.9186  154.5374 C   0  0  0  0  0  0  0  0  0  0  0  0
  151.4693  139.8448  155.4541 C   0  0  0  0  0  0  0  0  0  0  0  0
  150.7068  140.9279  155.9379 C   0  0  0  0  0  0  0  0  0  0  0  0
  149.3735  141.1313  155.5255 C   0  0  0  0  0  0  0  0  0  0  0  0
  148.8473  140.2105  154.6198 C   0  0  0  0  0  0  0  0  0  0  0  0
  147.5951  140.0896  154.0061 N   0  0  0  0  0  0  0  0  0  0  0  0
  146.5425  141.0752  154.3081 C   0  0  0  0  0  0  0  0  0  0  0  0
  146.8462  142.5211  153.8318 C   0  0  1  0  0  0  0  0  0  0  0  0
  147.1871  142.5896  152.4579 O   0  0  0  0  0  0  0  0  0  0  0  0
  145.7245  143.4815  154.2016 C   0  0  0  0  0  0  0  0  0  0  0  0
  145.1715  143.4485  155.4990 C   0  0  0  0  0  0  0  0  0  0  0  0
  144.1274  144.3262  155.8505 C   0  0  0  0  0  0  0  0  0  0  0  0
  143.6229  145.2491  154.9093 C   0  0  0  0  0  0  0  0  0  0  0  0
  142.4883  146.1896  155.2881 C   0  0  0  0  0  0  0  0  0  0  0  0
  141.9949  145.8857  156.4891 F   0  0  0  0  0  0  0  0  0  0  0  0
  142.9471  147.4402  155.3173 F   0  0  0  0  0  0  0  0  0  0  0  0
  141.4970  146.1160  154.3995 F   0  0  0  0  0  0  0  0  0  0  0  0
  144.1690  145.2740  153.6078 C   0  0  0  0  0  0  0  0  0  0  0  0
  145.2137  144.3977  153.2565 C   0  0  0  0  0  0  0  0  0  0  0  0
  145.7977  138.5227  150.5443 H   0  0  0  0  0  0  0  0  0  0  0  0
  145.5279  139.1203  152.6281 H   0  0  0  0  0  0  0  0  0  0  0  0
  146.1804  137.4891  152.6480 H   0  0  0  0  0  0  0  0  0  0  0  0
  151.5147  138.0885  154.1686 H   0  0  0  0  0  0  0  0  0  0  0  0
  152.4874  139.7215  155.7935 H   0  0  0  0  0  0  0  0  0  0  0  0
  151.1529  141.6170  156.6404 H   0  0  0  0  0  0  0  0  0  0  0  0
  148.7996  141.9640  155.9034 H   0  0  0  0  0  0  0  0  0  0  0  0
  145.5979  140.7099  153.9037 H   0  0  0  0  0  0  0  0  0  0  0  0
  146.4030  141.0727  155.3896 H   0  0  0  0  0  0  0  0  0  0  0  0
  147.7404  142.8576  154.3583 H   0  0  0  0  0  0  0  0  0  0  0  0
  146.4321  142.3339  151.9498 H   0  0  0  0  0  0  0  0  0  0  0  0
  145.5447  142.7470  156.2307 H   0  0  0  0  0  0  0  0  0  0  0  0
  143.7129  144.2857  156.8472 H   0  0  0  0  0  0  0  0  0  0  0  0
  143.7878  145.9648  152.8704 H   0  0  0  0  0  0  0  0  0  0  0  0
  145.6167  144.4309  152.2548 H   0  0  0  0  0  0  0  0  0  0  0  0
  149.0492  137.5720  152.7572 H   0  0  0  0  0  0  0  0  0  0  0  0
  1  2  1  0  0  0  0
  1 25  1  0  0  0  0
  2  3  1  0  0  0  0
  2 26  1  0  0  0  0
  2 27  1  0  0  0  0
  3 11  1  0  0  0  0
  3  4  2  0  0  0  0
  4  5  1  0  0  0  0
  4 40  1  0  0  0  0
  5 10  2  0  0  0  0
  5  6  1  0  0  0  0
  6  7  2  0  0  0  0
  6 28  1  0  0  0  0
  7  8  1  0  0  0  0
  7 29  1  0  0  0  0
  8  9  2  0  0  0  0
  8 30  1  0  0  0  0
  9 10  1  0  0  0  0
  9 31  1  0  0  0  0
 10 11  1  0  0  0  0
 11 12  1  0  0  0  0
 12 13  1  0  0  0  0
 12 32  1  0  0  0  0
 12 33  1  0  0  0  0
 13 14  1  0  0  0  0
 13 15  1  0  0  0  0
 13 34  1  0  0  0  0
 14 35  1  0  0  0  0
 15 24  1  0  0  0  0
 15 16  2  0  0  0  0
 16 17  1  0  0  0  0
 16 36  1  0  0  0  0
 17 18  2  0  0  0  0
 17 37  1  0  0  0  0
 18 19  1  0  0  0  0
 18 23  1  0  0  0  0
 19 20  1  0  0  0  0
 19 21  1  0  0  0  0
 19 22  1  0  0  0  0
 23 24  2  0  0  0  0
 23 38  1  0  0  0  0
 24 39  1  0  0  0  0
M  CHG  1   4   1
M  END
> <s_m_source_file>
AV-unprocessed.smi

> <i_m_source_file_index>
1826

> <i_lp_mmshare_version>
43012

> <i_f3d_flags>
0

> <s_epik_input>
W2NIXTFbY0hdW2NIXVtjSF1jKGMxMiluKGMobjIpW0NIMl1bT0hdKVtDSDJdW0NASF0oW09IXSljM1tjSF1bY0hdYyhDKEYpKEYpRilbY0hdW2NIXTM=

> <s_epik_cmdline>
J2VwaWtfcHl0aG9uJywgJy1waCcsICc3LjAnLCAnLXRuJywgJzgnLCAnLW1hJywgJzIwMCcsICctbWV0YWxfYmluZGluZycsICctaW1hZScsICc8aW5maWxlLm1hZT4nLCAnLW9tYWUnLCAnPG91dGZpbGUubWFlPic=

> <r_epik_Ionization_Penalty>
1.35643

> <r_epik_Ionization_Penalty_Charging>
1.35557

> <r_epik_Ionization_Penalty_Neutral>
0.000856405

> <r_epik_State_Penalty>
1.43401

> <r_epik_Charging_Adjusted_Penalty>
2.78958

> <i_epik_Tot_Q>
1

> <i_epik_Tot_abs_Q>
1

> <r_epik_Metal_State_Penalty>
5.47166

> <b_epik_Metal_Only>
0

> <s_lp_Force_Field>
OPLS_2005

> <r_lp_Energy>
22.2169

> <b_lp_Chiralities_Consistent>
1

> <s_lp_Variant>
AV-unprocessed.smi:1826-4

> <Gold.Version>
5.8.1

> <Gold.Id.Protein>
6NUR|6NUR_protein|mol2

> <Gold.PLP.Fitness>
54.2658

> <Gold.PLP.PLP>
-43.0897

> <Gold.PLP.part.hbond>
-5.4412

> <Gold.PLP.part.metal>
0.0000

> <Gold.PLP.part.buried>
9.2512

> <Gold.PLP.part.nonpolar>
-46.2589

> <Gold.PLP.part.repulsive>
0.0645

> <Gold.PLP.ligand.clash>
1.1577

> <Gold.PLP.ligand.torsion>
0.4682

> <Gold.PLP.Chemscore.Hbond>
3.9833

> <Gold.PLP.Chemscore.CHOScore>
0.0000

> <Gold.PLP.Chemscore.Metal>
0.0000

> <Gold.Chemscore.Hbonds>
donor molecule, donor type, donor heavy atom, donor atom, acceptor molecule, acceptor atom, score
      L1  H     1    25       P1 10171  0.98
      L1  H     4    40       P1  7948  2.00
      P1  H  7954  7966       L1     1  0.98

> <Gold.PLP.Chemscore.Internal.Correction>
1.3205

> <Gold.Rescore>
     Score         DG    S(hbond)    S(metal)    S(lipo)     H(rot)  DE(clash)    DE(int)     intcor
     13.39     -19.62       2.69        0.00     109.43       2.98       6.13       0.10       ----

> <Gold.Chemscore.Fitness>
13.3903

> <Gold.Chemscore.DG>
-19.6242

> <Gold.Chemscore.ZeroCoef>
-5.4800

> <Gold.Chemscore.Hbond>
2.6872

> <Gold.Chemscore.Metal>
0.0000

> <Gold.Chemscore.Lipo>
109.4289

> <Gold.Chemscore.Internal_Hbond>
0.0000

> <Gold.Chemscore.DEClash>
6.1330

> <Gold.Chemscore.DEInternal>
0.1009

> <Gold.Chemscore.Rot>
2.9822

> <Gold.Chemscore.Internal.Correction>
   9.000000E+99

> <Gold.Chemscore.Hbonds>
donor molecule, donor type, donor heavy atom, donor atom, acceptor molecule, acceptor atom, score
      L1  H     1    25       P1 10171  0.91
      L1  H     4    40       P1  7948  0.97
      P1  H  7954  7966       L1     1  0.76

> <Gold.Chemscore.Hbond.Weighted>
-8.9754

> <Gold.Chemscore.Metal.Weighted>
-0.0000

> <Gold.Chemscore.Lipo.Weighted>
-12.8032

> <Gold.Chemscore.Internal_Hbond.Weighted>
0.0000

> <Gold.Chemscore.DEClash.Weighted>
6.1330

> <Gold.Chemscore.DEInternal.Weighted>
0.1009

> <Gold.Chemscore.Rot.Weighted>
7.6343

> <Gold.Chemscore.Internal.Correction.Weighted>
   9.000000E+99

> <Gold.Protein.RotatedTorsions>
[ 6907 6896 6895 6894 ] final   84.26 input  -60.11 | X-H torsion
[ 7974 7965 7964 7962 ] final   58.66 input  175.53 | X-H torsion
[ 8008 7997 7996 7995 ] final   67.71 input   59.86 | X-H torsion
[ 10167 10162 10161 10158 ] final   54.04 input  -65.29 | X-H torsion
[ 10718 10713 10712 10709 ] final  112.03 input   66.30 | X-H torsion
[ 10763 10752 10751 10750 ] final   26.66 input  -60.55 | X-H torsion
[ 11005 11000 10999 10996 ] final  -83.98 input  -57.11 | X-H torsion

> <Gold.Protein.ActiveResidues>
 VAL166  LYS551  ARG553  GLY616  TRP617  ASP618  TYR619  PRO620  LYS621  CYS622 
 ASP623  PHE694  ASN695  SER759  ASP760  ASP761  ALA762  ILE779  LEU786  VAL792 
 PHE793  MET794  SER795  GLU796  ALA797  LYS798  CYS799  TRP800  GLU811  SER814 

> <Gold.Protein.RotatedAtoms>
  152.5348  134.2768  159.8992 H   0  0  0  0  0  0  0  0  0  0  0  0  # atno 6907 bound_to 6896
  151.2724  133.4242  159.2629 H   0  0  0  0  0  0  0  0  0  0  0  0  # atno 6908 bound_to 6896
  151.0356  134.9586  159.8191 H   0  0  0  0  0  0  0  0  0  0  0  0  # atno 6909 bound_to 6896
  145.9157  139.3689  143.0508 H   0  0  0  0  0  0  0  0  0  0  0  0  # atno 7974 bound_to 7965
  155.6971  140.3495  155.4917 H   0  0  0  0  0  0  0  0  0  0  0  0  # atno 8008 bound_to 7997
  155.9473  140.1113  157.1028 H   0  0  0  0  0  0  0  0  0  0  0  0  # atno 8009 bound_to 7997
  154.4114  140.1201  156.4993 H   0  0  0  0  0  0  0  0  0  0  0  0  # atno 8010 bound_to 7997
  140.2344  144.3652  150.6403 H   0  0  0  0  0  0  0  0  0  0  0  0  # atno 10167 bound_to 10162
  157.6414  131.0961  150.6835 H   0  0  0  0  0  0  0  0  0  0  0  0  # atno 10718 bound_to 10713
  153.0607  135.6555  154.0469 H   0  0  0  0  0  0  0  0  0  0  0  0  # atno 10763 bound_to 10752
  154.0137  135.2926  155.3391 H   0  0  0  0  0  0  0  0  0  0  0  0  # atno 10764 bound_to 10752
  154.6944  135.5270  153.8506 H   0  0  0  0  0  0  0  0  0  0  0  0  # atno 10765 bound_to 10752
  141.1654  133.7322  156.8800 H   0  0  0  0  0  0  0  0  0  0  0  0  # atno 11005 bound_to 11000
  145.8614  140.9473  143.0698 LP  0  0  0  0  0  0  0  0  0  0  0  0  # atno 17320 bound_to 7965
  144.6747  140.0535  143.7478 LP  0  0  0  0  0  0  0  0  0  0  0  0  # atno 17321 bound_to 7965
  140.6161  143.2172  151.6789 LP  0  0  0  0  0  0  0  0  0  0  0  0  # atno 17342 bound_to 10162
  139.5099  144.3562  152.0606 LP  0  0  0  0  0  0  0  0  0  0  0  0  # atno 17343 bound_to 10162
  156.7159  130.4666  149.5535 LP  0  0  0  0  0  0  0  0  0  0  0  0  # atno 17370 bound_to 10713
  156.1698  130.6429  151.0823 LP  0  0  0  0  0  0  0  0  0  0  0  0  # atno 17371 bound_to 10713
  140.1722  134.9092  157.2847 LP  0  0  0  0  0  0  0  0  0  0  0  0  # atno 17394 bound_to 11000
  140.2489  134.3706  155.7450 LP  0  0  0  0  0  0  0  0  0  0  0  0  # atno 17395 bound_to 11000

$$$$
