AV-unprocessed.smi:434|AV-procd|sdf|2552|dock6
  -GOLD-   2262022513D 1   1.00000     0.00000
 Structure written by MMmdl.
 39 41  0  0  0  0  0  0  0  0  1 V2000
  150.0744  140.6825  154.8062 C   0  0  0  0  0  0  0  0  0  0  0  0
  150.7353  141.1293  156.0715 C   0  0  0  0  0  0  0  0  0  0  0  0
  150.9093  142.4176  156.3665 N   0  0  0  0  0  0  0  0  0  0  0  0
  151.5495  142.3644  157.5898 C   0  0  0  0  0  0  0  0  0  0  0  0
  152.0054  143.4024  158.4339 C   0  0  0  0  0  0  0  0  0  0  0  0
  152.6411  143.1010  159.6563 C   0  0  0  0  0  0  0  0  0  0  0  0
  152.8298  141.7608  160.0514 C   0  0  0  0  0  0  0  0  0  0  0  0
  152.3830  140.7114  159.2257 C   0  0  0  0  0  0  0  0  0  0  0  0
  151.7485  141.0173  158.0067 C   0  0  0  0  0  0  0  0  0  0  0  0
  151.1983  140.2443  156.9882 N   0  0  0  0  0  0  0  0  0  0  0  0
  151.1423  138.7891  156.9354 C   0  0  0  0  0  0  0  0  0  0  0  0
  152.4845  138.1564  156.5155 C   0  0  2  0  0  0  0  0  0  0  0  0
  153.5147  138.6673  157.3389 O   0  0  0  0  0  0  0  0  0  0  0  0
  152.8334  138.4667  155.0515 C   0  0  0  0  0  0  0  0  0  0  0  0
  154.0874  137.8815  154.7430 O   0  0  0  0  0  0  0  0  0  0  0  0
  154.7593  138.5485  153.6892 C   0  0  0  0  0  0  0  0  0  0  0  0
  155.7302  137.5708  153.1195 C   0  0  0  0  0  0  0  0  0  0  0  0
  157.0844  137.5905  152.9291 C   0  0  0  0  0  0  0  0  0  0  0  0
  157.4242  136.3432  152.3359 C   0  0  0  0  0  0  0  0  0  0  0  0
  156.2512  135.6553  152.2082 C   0  0  0  0  0  0  0  0  0  0  0  0
  155.2077  136.3902  152.6816 O   0  0  0  0  0  0  0  0  0  0  0  0
  149.7214  141.5419  154.2351 H   0  0  0  0  0  0  0  0  0  0  0  0
  149.2187  140.0451  155.0270 H   0  0  0  0  0  0  0  0  0  0  0  0
  150.7801  140.1270  154.1883 H   0  0  0  0  0  0  0  0  0  0  0  0
  151.8649  144.4323  158.1408 H   0  0  0  0  0  0  0  0  0  0  0  0
  152.9853  143.9020  160.2942 H   0  0  0  0  0  0  0  0  0  0  0  0
  153.3170  141.5385  160.9897 H   0  0  0  0  0  0  0  0  0  0  0  0
  152.5233  139.6840  159.5275 H   0  0  0  0  0  0  0  0  0  0  0  0
  150.8370  138.4160  157.9133 H   0  0  0  0  0  0  0  0  0  0  0  0
  150.3526  138.4958  156.2424 H   0  0  0  0  0  0  0  0  0  0  0  0
  152.4292  137.0762  156.6534 H   0  0  0  0  0  0  0  0  0  0  0  0
  153.1232  139.0237  158.1218 H   0  0  0  0  0  0  0  0  0  0  0  0
  152.0832  138.0273  154.3919 H   0  0  0  0  0  0  0  0  0  0  0  0
  152.8360  139.5424  154.8655 H   0  0  0  0  0  0  0  0  0  0  0  0
  154.0530  138.8729  152.9235 H   0  0  0  0  0  0  0  0  0  0  0  0
  155.2818  139.4300  154.0630 H   0  0  0  0  0  0  0  0  0  0  0  0
  157.7485  138.4022  153.1871 H   0  0  0  0  0  0  0  0  0  0  0  0
  158.4023  135.9936  152.0404 H   0  0  0  0  0  0  0  0  0  0  0  0
  155.9913  134.6807  151.8218 H   0  0  0  0  0  0  0  0  0  0  0  0
  1  2  1  0  0  0  0
  1 22  1  0  0  0  0
  1 23  1  0  0  0  0
  1 24  1  0  0  0  0
  2 10  1  0  0  0  0
  2  3  2  0  0  0  0
  3  4  1  0  0  0  0
  4  9  2  0  0  0  0
  4  5  1  0  0  0  0
  5  6  2  0  0  0  0
  5 25  1  0  0  0  0
  6  7  1  0  0  0  0
  6 26  1  0  0  0  0
  7  8  2  0  0  0  0
  7 27  1  0  0  0  0
  8  9  1  0  0  0  0
  8 28  1  0  0  0  0
  9 10  1  0  0  0  0
 10 11  1  0  0  0  0
 11 12  1  0  0  0  0
 11 29  1  0  0  0  0
 11 30  1  0  0  0  0
 12 13  1  0  0  0  0
 12 14  1  0  0  0  0
 12 31  1  0  0  0  0
 13 32  1  0  0  0  0
 14 15  1  0  0  0  0
 14 33  1  0  0  0  0
 14 34  1  0  0  0  0
 15 16  1  0  0  0  0
 16 17  1  0  0  0  0
 16 35  1  0  0  0  0
 16 36  1  0  0  0  0
 17 21  1  0  0  0  0
 17 18  2  0  0  0  0
 18 19  1  0  0  0  0
 18 37  1  0  0  0  0
 19 20  2  0  0  0  0
 19 38  1  0  0  0  0
 20 21  1  0  0  0  0
 20 39  1  0  0  0  0
M  END
> <s_m_source_file>
AV-unprocessed.smi

> <i_m_source_file_index>
434

> <i_lp_mmshare_version>
43012

> <i_f3d_flags>
0

> <s_epik_input>
W2NIXTFbY0hdW2NIXVtjSF1jKGMxMiluKGMobjIpW0NIM10pW0NIMl1bQ0BIXShbT0hdKVtDSDJdT1tDSDJdYzNbY0hdW2NIXVtjSF1vMw==

> <s_epik_cmdline>
J2VwaWtfcHl0aG9uJywgJy1waCcsICc3LjAnLCAnLXRuJywgJzgnLCAnLW1hJywgJzIwMCcsICctbWV0YWxfYmluZGluZycsICctaW1hZScsICc8aW5maWxlLm1hZT4nLCAnLW9tYWUnLCAnPG91dGZpbGUubWFlPic=

> <r_epik_Ionization_Penalty>
0.126634

> <r_epik_Ionization_Penalty_Charging>
0

> <r_epik_Ionization_Penalty_Neutral>
0.126634

> <r_epik_State_Penalty>
0.116082

> <r_epik_Charging_Adjusted_Penalty>
0.116082

> <i_epik_Tot_Q>
0

> <i_epik_Tot_abs_Q>
0

> <r_epik_Metal_State_Penalty>
0.00012822

> <b_epik_Metal_Only>
0

> <s_lp_Force_Field>
OPLS_2005

> <r_lp_Energy>
9.40114

> <b_lp_Chiralities_Consistent>
1

> <s_lp_Variant>
AV-unprocessed.smi:434-1

> <Gold.Version>
5.8.1

> <Gold.Id.Protein>
6NUR|6NUR_protein|mol2

> <Gold.PLP.Fitness>
46.7606

> <Gold.PLP.PLP>
-42.6593

> <Gold.PLP.part.hbond>
-3.9251

> <Gold.PLP.part.metal>
0.0000

> <Gold.PLP.part.buried>
-0.2000

> <Gold.PLP.part.nonpolar>
-38.7993

> <Gold.PLP.part.repulsive>
0.1159

> <Gold.PLP.ligand.clash>
0.0000

> <Gold.PLP.ligand.torsion>
0.5567

> <Gold.PLP.Chemscore.Hbond>
1.7200

> <Gold.PLP.Chemscore.CHOScore>
0.0000

> <Gold.PLP.Chemscore.Metal>
0.0000

> <Gold.Chemscore.Hbonds>
donor molecule, donor type, donor heavy atom, donor atom, acceptor molecule, acceptor atom, score
      P1  H  7997  8009       L1    13  0.28
      P1  H 10752 10763       L1    21  0.63

> <Gold.PLP.Chemscore.Internal.Correction>
0.0547

> <Gold.Rescore>
     Score         DG    S(hbond)    S(metal)    S(lipo)     H(rot)  DE(clash)    DE(int)     intcor
     18.06     -20.59       1.68        0.00     132.93       2.36       1.61       0.92       ----

> <Gold.Chemscore.Fitness>
18.0603

> <Gold.Chemscore.DG>
-20.5946

> <Gold.Chemscore.ZeroCoef>
-5.4800

> <Gold.Chemscore.Hbond>
1.6771

> <Gold.Chemscore.Metal>
0.0000

> <Gold.Chemscore.Lipo>
132.9278

> <Gold.Chemscore.Internal_Hbond>
0.0000

> <Gold.Chemscore.DEClash>
1.6124

> <Gold.Chemscore.DEInternal>
0.9219

> <Gold.Chemscore.Rot>
2.3591

> <Gold.Chemscore.Internal.Correction>
   9.000000E+99

> <Gold.Chemscore.Hbonds>
donor molecule, donor type, donor heavy atom, donor atom, acceptor molecule, acceptor atom, score
      P1  H  7997  8009       L1    13  0.03
      P1  H 10752 10763       L1    21  0.36

> <Gold.Chemscore.Hbond.Weighted>
-5.6014

> <Gold.Chemscore.Metal.Weighted>
-0.0000

> <Gold.Chemscore.Lipo.Weighted>
-15.5526

> <Gold.Chemscore.Internal_Hbond.Weighted>
0.0000

> <Gold.Chemscore.DEClash.Weighted>
1.6124

> <Gold.Chemscore.DEInternal.Weighted>
0.9219

> <Gold.Chemscore.Rot.Weighted>
6.0393

> <Gold.Chemscore.Internal.Correction.Weighted>
   9.000000E+99

> <Gold.Protein.RotatedTorsions>
[ 6907 6896 6895 6894 ] final  -54.07 input  -60.11 | X-H torsion
[ 7974 7965 7964 7962 ] final  121.47 input  175.53 | X-H torsion
[ 8008 7997 7996 7995 ] final  120.22 input   59.86 | X-H torsion
[ 10167 10162 10161 10158 ] final -121.33 input  -65.29 | X-H torsion
[ 10718 10713 10712 10709 ] final  140.55 input   66.30 | X-H torsion
[ 10763 10752 10751 10750 ] final  -77.49 input  -60.55 | X-H torsion
[ 11005 11000 10999 10996 ] final -163.01 input  -57.11 | X-H torsion

> <Gold.Protein.ActiveResidues>
 VAL166  LYS551  ARG553  GLY616  TRP617  ASP618  TYR619  PRO620  LYS621  CYS622 
 ASP623  PHE694  ASN695  SER759  ASP760  ASP761  ALA762  ILE779  LEU786  VAL792 
 PHE793  MET794  SER795  GLU796  ALA797  LYS798  CYS799  TRP800  GLU811  SER814 

> <Gold.Protein.RotatedAtoms>
  150.8370  134.7647  159.6900 H   0  0  0  0  0  0  0  0  0  0  0  0  # atno 6907 bound_to 6896
  152.4465  134.5481  159.9868 H   0  0  0  0  0  0  0  0  0  0  0  0  # atno 6908 bound_to 6896
  151.5629  133.3363  159.3010 H   0  0  0  0  0  0  0  0  0  0  0  0  # atno 6909 bound_to 6896
  145.1189  139.3402  143.4724 H   0  0  0  0  0  0  0  0  0  0  0  0  # atno 7974 bound_to 7965
  156.2632  140.2835  156.1115 H   0  0  0  0  0  0  0  0  0  0  0  0  # atno 8008 bound_to 7997
  155.1252  140.0393  157.2778 H   0  0  0  0  0  0  0  0  0  0  0  0  # atno 8009 bound_to 7997
  154.6640  140.2573  155.7084 H   0  0  0  0  0  0  0  0  0  0  0  0  # atno 8010 bound_to 7997
  140.0262  143.5294  152.2198 H   0  0  0  0  0  0  0  0  0  0  0  0  # atno 10167 bound_to 10162
  157.4020  131.1018  151.0542 H   0  0  0  0  0  0  0  0  0  0  0  0  # atno 10718 bound_to 10713
  154.5137  135.5762  153.6625 H   0  0  0  0  0  0  0  0  0  0  0  0  # atno 10763 bound_to 10752
  152.9902  135.6165  154.2846 H   0  0  0  0  0  0  0  0  0  0  0  0  # atno 10764 bound_to 10752
  154.2762  135.2852  155.2696 H   0  0  0  0  0  0  0  0  0  0  0  0  # atno 10765 bound_to 10752
  140.6029  134.4929  157.5207 H   0  0  0  0  0  0  0  0  0  0  0  0  # atno 11005 bound_to 11000
  146.3522  140.1140  142.8603 LP  0  0  0  0  0  0  0  0  0  0  0  0  # atno 17320 bound_to 7965
  145.0763  140.9190  143.4852 LP  0  0  0  0  0  0  0  0  0  0  0  0  # atno 17321 bound_to 7965
  139.6107  144.7608  151.2959 LP  0  0  0  0  0  0  0  0  0  0  0  0  # atno 17342 bound_to 10162
  140.7322  143.6831  150.7984 LP  0  0  0  0  0  0  0  0  0  0  0  0  # atno 17343 bound_to 10162
  157.1538  130.6195  149.5590 LP  0  0  0  0  0  0  0  0  0  0  0  0  # atno 17370 bound_to 10713
  155.9826  130.4840  150.6888 LP  0  0  0  0  0  0  0  0  0  0  0  0  # atno 17371 bound_to 10713
  139.9225  134.8121  156.1169 LP  0  0  0  0  0  0  0  0  0  0  0  0  # atno 17394 bound_to 11000
  141.0860  133.6734  156.2437 LP  0  0  0  0  0  0  0  0  0  0  0  0  # atno 17395 bound_to 11000

$$$$
