AV-unprocessed.smi:2126|AV-procd|sdf|8676|dock4
  -GOLD-   2272011423D 1   1.00000     0.00000
 Structure written by MMmdl.
 40 42  0  0  0  0  0  0  0  0  1 V2000
  154.9577  132.4913  164.0272 C   0  0  0  0  0  0  0  0  0  0  0  0
  154.7759  133.8245  164.4815 O   0  0  0  0  0  0  0  0  0  0  0  0
  154.8665  134.8426  163.5566 C   0  0  0  0  0  0  0  0  0  0  0  0
  155.1978  134.6535  162.1924 C   0  0  0  0  0  0  0  0  0  0  0  0
  155.2681  135.7545  161.3172 C   0  0  0  0  0  0  0  0  0  0  0  0
  155.0110  137.0620  161.7744 C   0  0  0  0  0  0  0  0  0  0  0  0
  155.1028  138.0794  160.8491 O   0  0  0  0  0  0  0  0  0  0  0  0
  154.9911  139.4201  161.3090 C   0  0  0  0  0  0  0  0  0  0  0  0
  154.5515  140.3116  160.1387 C   0  0  1  0  0  0  0  0  0  0  0  0
  155.4769  140.1563  159.0807 O   0  0  0  0  0  0  0  0  0  0  0  0
  153.1316  139.9742  159.6436 C   0  0  0  0  0  0  0  0  0  0  0  0
  152.3854  141.1560  159.2517 N   0  0  0  0  0  0  0  0  0  0  0  0
  151.6667  141.3300  158.1257 C   0  0  0  0  0  0  0  0  0  0  0  0
  151.0597  142.5026  157.9658 N   0  0  0  0  0  0  0  0  0  0  0  0
  151.4210  143.1650  159.1265 C   0  0  0  0  0  0  0  0  0  0  0  0
  151.1009  144.4650  159.5794 C   0  0  0  0  0  0  0  0  0  0  0  0
  151.5906  144.9310  160.8174 C   0  0  0  0  0  0  0  0  0  0  0  0
  152.4068  144.1073  161.6198 C   0  0  0  0  0  0  0  0  0  0  0  0
  152.7403  142.8087  161.1893 C   0  0  0  0  0  0  0  0  0  0  0  0
  152.2493  142.3480  159.9539 C   0  0  0  0  0  0  0  0  0  0  0  0
  154.6783  137.2509  163.1381 C   0  0  0  0  0  0  0  0  0  0  0  0
  154.6094  136.1501  164.0136 C   0  0  0  0  0  0  0  0  0  0  0  0
  154.8518  131.8073  164.8690 H   0  0  0  0  0  0  0  0  0  0  0  0
  155.9538  132.3458  163.6071 H   0  0  0  0  0  0  0  0  0  0  0  0
  154.2083  132.2171  163.2832 H   0  0  0  0  0  0  0  0  0  0  0  0
  155.4028  133.6728  161.7913 H   0  0  0  0  0  0  0  0  0  0  0  0
  155.5225  135.5923  160.2799 H   0  0  0  0  0  0  0  0  0  0  0  0
  154.2463  139.4660  162.1057 H   0  0  0  0  0  0  0  0  0  0  0  0
  155.9411  139.7744  161.7127 H   0  0  0  0  0  0  0  0  0  0  0  0
  154.5919  141.3546  160.4553 H   0  0  0  0  0  0  0  0  0  0  0  0
  156.2636  140.6322  159.2995 H   0  0  0  0  0  0  0  0  0  0  0  0
  153.1757  139.2901  158.7946 H   0  0  0  0  0  0  0  0  0  0  0  0
  152.5684  139.4637  160.4256 H   0  0  0  0  0  0  0  0  0  0  0  0
  151.5886  140.5529  157.3791 H   0  0  0  0  0  0  0  0  0  0  0  0
  150.4767  145.1047  158.9732 H   0  0  0  0  0  0  0  0  0  0  0  0
  151.3384  145.9262  161.1533 H   0  0  0  0  0  0  0  0  0  0  0  0
  152.7770  144.4731  162.5663 H   0  0  0  0  0  0  0  0  0  0  0  0
  153.3657  142.1747  161.8004 H   0  0  0  0  0  0  0  0  0  0  0  0
  154.4709  138.2309  163.5396 H   0  0  0  0  0  0  0  0  0  0  0  0
  154.3551  136.3131  165.0506 H   0  0  0  0  0  0  0  0  0  0  0  0
  1  2  1  0  0  0  0
  1 23  1  0  0  0  0
  1 24  1  0  0  0  0
  1 25  1  0  0  0  0
  2  3  1  0  0  0  0
  3 22  1  0  0  0  0
  3  4  2  0  0  0  0
  4  5  1  0  0  0  0
  4 26  1  0  0  0  0
  5  6  2  0  0  0  0
  5 27  1  0  0  0  0
  6  7  1  0  0  0  0
  6 21  1  0  0  0  0
  7  8  1  0  0  0  0
  8  9  1  0  0  0  0
  8 28  1  0  0  0  0
  8 29  1  0  0  0  0
  9 10  1  0  0  0  0
  9 11  1  0  0  0  0
  9 30  1  0  0  0  0
 10 31  1  0  0  0  0
 11 12  1  0  0  0  0
 11 32  1  0  0  0  0
 11 33  1  0  0  0  0
 12 20  1  0  0  0  0
 12 13  1  0  0  0  0
 13 14  2  0  0  0  0
 13 34  1  0  0  0  0
 14 15  1  0  0  0  0
 15 20  2  0  0  0  0
 15 16  1  0  0  0  0
 16 17  2  0  0  0  0
 16 35  1  0  0  0  0
 17 18  1  0  0  0  0
 17 36  1  0  0  0  0
 18 19  2  0  0  0  0
 18 37  1  0  0  0  0
 19 20  1  0  0  0  0
 19 38  1  0  0  0  0
 21 22  2  0  0  0  0
 21 39  1  0  0  0  0
 22 40  1  0  0  0  0
M  END
> <s_m_source_file>
AV-unprocessed.smi

> <i_m_source_file_index>
2126

> <i_lp_mmshare_version>
43012

> <i_f3d_flags>
0

> <s_epik_input>
W0NIM11PYzFbY0hdW2NIXWMoW2NIXVtjSF0xKU9bQ0gyXVtDQEhdKFtPSF0pW0NIMl1uKFtjSF1uMiljKGMyMylbY0hdW2NIXVtjSF1bY0hdMw==

> <s_epik_cmdline>
J2VwaWtfcHl0aG9uJywgJy1waCcsICc3LjAnLCAnLXRuJywgJzgnLCAnLW1hJywgJzIwMCcsICctbWV0YWxfYmluZGluZycsICctaW1hZScsICc8aW5maWxlLm1hZT4nLCAnLW9tYWUnLCAnPG91dGZpbGUubWFlPic=

> <r_lp_tautomer_probability>
1

> <r_epik_Ionization_Penalty>
0.0608933

> <r_epik_Ionization_Penalty_Charging>
0

> <r_epik_Ionization_Penalty_Neutral>
0.0608933

> <r_epik_State_Penalty>
0.0528196

> <r_epik_Charging_Adjusted_Penalty>
0.0528196

> <i_epik_Tot_Q>
0

> <i_epik_Tot_abs_Q>
0

> <r_epik_Metal_State_Penalty>
5.52429e-05

> <b_epik_Metal_Only>
0

> <s_lp_Force_Field>
OPLS_2005

> <r_lp_Energy>
17.4847

> <b_lp_Chiralities_Consistent>
1

> <s_lp_Variant>
AV-unprocessed.smi:2126-2

> <Gold.Version>
5.8.1

> <Gold.Id.Protein>
6NUR|6NUR_protein|mol2

> <Gold.PLP.Fitness>
51.4108

> <Gold.PLP.PLP>
-49.9361

> <Gold.PLP.part.hbond>
-1.0000

> <Gold.PLP.part.metal>
0.0000

> <Gold.PLP.part.buried>
-6.4587

> <Gold.PLP.part.nonpolar>
-42.7080

> <Gold.PLP.part.repulsive>
0.1550

> <Gold.PLP.ligand.clash>
0.0000

> <Gold.PLP.ligand.torsion>
0.8331

> <Gold.PLP.Chemscore.Hbond>
1.0000

> <Gold.PLP.Chemscore.CHOScore>
0.0000

> <Gold.PLP.Chemscore.Metal>
0.0000

> <Gold.Chemscore.Hbonds>
donor molecule, donor type, donor heavy atom, donor atom, acceptor molecule, acceptor atom, score
      P1  H  7997  8008       L1    10  0.98

> <Gold.PLP.Chemscore.Internal.Correction>
0.1408

> <Gold.Rescore>
     Score         DG    S(hbond)    S(metal)    S(lipo)     H(rot)  DE(clash)    DE(int)     intcor
     17.70     -18.81       0.90        0.00     143.14       2.51       0.16       0.95       ----

> <Gold.Chemscore.Fitness>
17.7014

> <Gold.Chemscore.DG>
-18.8111

> <Gold.Chemscore.ZeroCoef>
-5.4800

> <Gold.Chemscore.Hbond>
0.8998

> <Gold.Chemscore.Metal>
0.0000

> <Gold.Chemscore.Lipo>
143.1369

> <Gold.Chemscore.Internal_Hbond>
0.0000

> <Gold.Chemscore.DEClash>
0.1646

> <Gold.Chemscore.DEInternal>
0.9451

> <Gold.Chemscore.Rot>
2.5083

> <Gold.Chemscore.Internal.Correction>
   9.000000E+99

> <Gold.Chemscore.Hbonds>
donor molecule, donor type, donor heavy atom, donor atom, acceptor molecule, acceptor atom, score
      P1  H  7997  8008       L1    10  0.56

> <Gold.Chemscore.Hbond.Weighted>
-3.0053

> <Gold.Chemscore.Metal.Weighted>
-0.0000

> <Gold.Chemscore.Lipo.Weighted>
-16.7470

> <Gold.Chemscore.Internal_Hbond.Weighted>
0.0000

> <Gold.Chemscore.DEClash.Weighted>
0.1646

> <Gold.Chemscore.DEInternal.Weighted>
0.9451

> <Gold.Chemscore.Rot.Weighted>
6.4212

> <Gold.Chemscore.Internal.Correction.Weighted>
   9.000000E+99

> <Gold.Protein.RotatedTorsions>
[ 6907 6896 6895 6894 ] final  140.76 input  -60.11 | X-H torsion
[ 7974 7965 7964 7962 ] final  169.67 input  175.53 | X-H torsion
[ 8008 7997 7996 7995 ] final -137.22 input   59.86 | X-H torsion
[ 10167 10162 10161 10158 ] final   83.87 input  -65.29 | X-H torsion
[ 10718 10713 10712 10709 ] final   95.93 input   66.30 | X-H torsion
[ 10763 10752 10751 10750 ] final   -1.68 input  -60.55 | X-H torsion
[ 11005 11000 10999 10996 ] final -174.20 input  -57.11 | X-H torsion

> <Gold.Protein.ActiveResidues>
 VAL166  LYS551  ARG553  GLY616  TRP617  ASP618  TYR619  PRO620  LYS621  CYS622 
 ASP623  PHE694  ASN695  SER759  ASP760  ASP761  ALA762  ILE779  LEU786  VAL792 
 PHE793  MET794  SER795  GLU796  ALA797  LYS798  CYS799  TRP800  GLU811  SER814 

> <Gold.Protein.RotatedAtoms>
  152.2392  133.5121  159.5259 H   0  0  0  0  0  0  0  0  0  0  0  0  # atno 6907 bound_to 6896
  150.7059  134.1112  159.4010 H   0  0  0  0  0  0  0  0  0  0  0  0  # atno 6908 bound_to 6896
  151.9033  135.0369  160.0559 H   0  0  0  0  0  0  0  0  0  0  0  0  # atno 6909 bound_to 6896
  144.7347  139.9089  143.6414 H   0  0  0  0  0  0  0  0  0  0  0  0  # atno 7974 bound_to 7965
  155.4082  140.0510  157.3033 H   0  0  0  0  0  0  0  0  0  0  0  0  # atno 8008 bound_to 7997
  154.4958  140.2138  155.9410 H   0  0  0  0  0  0  0  0  0  0  0  0  # atno 8009 bound_to 7997
  156.1404  140.3155  155.8491 H   0  0  0  0  0  0  0  0  0  0  0  0  # atno 8010 bound_to 7997
  139.9139  144.6255  150.8509 H   0  0  0  0  0  0  0  0  0  0  0  0  # atno 10167 bound_to 10162
  157.6933  131.0561  150.4414 H   0  0  0  0  0  0  0  0  0  0  0  0  # atno 10718 bound_to 10713
  153.3480  135.6984  153.6812 H   0  0  0  0  0  0  0  0  0  0  0  0  # atno 10763 bound_to 10752
  153.5550  135.3546  155.2776 H   0  0  0  0  0  0  0  0  0  0  0  0  # atno 10764 bound_to 10752
  154.8648  135.4235  154.2709 H   0  0  0  0  0  0  0  0  0  0  0  0  # atno 10765 bound_to 10752
  140.4772  134.6110  157.4905 H   0  0  0  0  0  0  0  0  0  0  0  0  # atno 11005 bound_to 11000
  146.1016  139.4012  143.0343 LP  0  0  0  0  0  0  0  0  0  0  0  0  # atno 17320 bound_to 7965
  145.7571  140.9950  143.1220 LP  0  0  0  0  0  0  0  0  0  0  0  0  # atno 17321 bound_to 7965
  140.7679  143.3346  151.2337 LP  0  0  0  0  0  0  0  0  0  0  0  0  # atno 17342 bound_to 10162
  139.6919  143.9678  152.2863 LP  0  0  0  0  0  0  0  0  0  0  0  0  # atno 17343 bound_to 10162
  156.4772  130.4066  149.6483 LP  0  0  0  0  0  0  0  0  0  0  0  0  # atno 17370 bound_to 10713
  156.3541  130.7447  151.2411 LP  0  0  0  0  0  0  0  0  0  0  0  0  # atno 17371 bound_to 10713
  139.9849  134.7078  155.9792 LP  0  0  0  0  0  0  0  0  0  0  0  0  # atno 17394 bound_to 11000
  141.1549  133.6544  156.4129 LP  0  0  0  0  0  0  0  0  0  0  0  0  # atno 17395 bound_to 11000

$$$$
