AV-unprocessed.smi:967|AV-procd|sdf|4287|dock1
  -GOLD-   22720 2193D 1   1.00000     0.00000
 Structure written by MMmdl.
 42 43  0  0  0  0  0  0  0  0  1 V2000
  153.3000  132.5301  157.5848 C   0  0  0  0  0  0  0  0  0  0  0  0
  151.8883  132.2759  157.8284 N   0  0  0  0  0  0  0  0  0  0  0  0
  151.5556  130.9804  158.4000 C   0  0  0  0  0  0  0  0  0  0  0  0
  151.0727  132.6155  156.7413 C   0  0  0  0  0  0  0  0  0  0  0  0
  150.4459  131.6230  155.9537 C   0  0  0  0  0  0  0  0  0  0  0  0
  149.6357  132.0251  154.8745 C   0  0  0  0  0  0  0  0  0  0  0  0
  149.4719  133.4077  154.6210 C   0  0  0  0  0  0  0  0  0  0  0  0
  148.7019  133.9392  153.5519 N   0  0  0  0  0  0  0  0  0  0  0  0
  147.6000  133.4263  152.9786 C   0  0  0  0  0  0  0  0  0  0  0  0
  147.0392  132.3858  153.3215 O   0  0  0  0  0  0  0  0  0  0  0  0
  147.1668  134.2138  151.9836 N   0  0  0  0  0  0  0  0  0  0  0  0
  145.9850  133.9834  151.1571 C   0  0  2  0  0  0  0  0  0  0  0  0
  144.7515  133.7885  152.0599 C   0  0  0  0  0  0  0  0  0  0  0  0
  143.4994  133.4428  151.2379 C   0  0  0  0  0  0  0  0  0  0  0  0
  143.7400  132.2040  150.3585 C   0  0  1  0  0  0  0  0  0  0  0  0
  142.5942  131.9523  149.5728 O   0  0  0  0  0  0  0  0  0  0  0  0
  144.9589  132.4057  149.4422 C   0  0  0  0  0  0  0  0  0  0  0  0
  146.2141  132.7521  150.2592 C   0  0  0  0  0  0  0  0  0  0  0  0
  150.1528  134.3139  155.4598 C   0  0  0  0  0  0  0  0  0  0  0  0
  150.9289  133.9358  156.4972 N   0  0  0  0  0  0  0  0  0  0  0  0
  153.4482  133.5288  157.1721 H   0  0  0  0  0  0  0  0  0  0  0  0
  153.7153  131.8025  156.8867 H   0  0  0  0  0  0  0  0  0  0  0  0
  153.8599  132.4656  158.5180 H   0  0  0  0  0  0  0  0  0  0  0  0
  150.4788  130.8838  158.5443 H   0  0  0  0  0  0  0  0  0  0  0  0
  152.0365  130.8636  159.3713 H   0  0  0  0  0  0  0  0  0  0  0  0
  151.8910  130.1695  157.7526 H   0  0  0  0  0  0  0  0  0  0  0  0
  150.5842  130.5730  156.1666 H   0  0  0  0  0  0  0  0  0  0  0  0
  149.1727  131.2695  154.2590 H   0  0  0  0  0  0  0  0  0  0  0  0
  148.9940  134.8463  153.2187 H   0  0  0  0  0  0  0  0  0  0  0  0
  147.6949  135.0509  151.7850 H   0  0  0  0  0  0  0  0  0  0  0  0
  145.7973  134.8443  150.5127 H   0  0  0  0  0  0  0  0  0  0  0  0
  144.9407  132.9898  152.7789 H   0  0  0  0  0  0  0  0  0  0  0  0
  144.5689  134.6919  152.6434 H   0  0  0  0  0  0  0  0  0  0  0  0
  142.6554  133.2704  151.9067 H   0  0  0  0  0  0  0  0  0  0  0  0
  143.2309  134.2958  150.6129 H   0  0  0  0  0  0  0  0  0  0  0  0
  143.9070  131.3348  150.9962 H   0  0  0  0  0  0  0  0  0  0  0  0
  142.0787  132.7433  149.5309 H   0  0  0  0  0  0  0  0  0  0  0  0
  145.1395  131.5051  148.8542 H   0  0  0  0  0  0  0  0  0  0  0  0
  144.7597  133.2075  148.7295 H   0  0  0  0  0  0  0  0  0  0  0  0
  147.0522  132.9324  149.5850 H   0  0  0  0  0  0  0  0  0  0  0  0
  146.4904  131.8934  150.8729 H   0  0  0  0  0  0  0  0  0  0  0  0
  150.0697  135.3787  155.2979 H   0  0  0  0  0  0  0  0  0  0  0  0
  1  2  1  0  0  0  0
  1 21  1  0  0  0  0
  1 22  1  0  0  0  0
  1 23  1  0  0  0  0
  2  3  1  0  0  0  0
  2  4  1  0  0  0  0
  3 24  1  0  0  0  0
  3 25  1  0  0  0  0
  3 26  1  0  0  0  0
  4 20  1  0  0  0  0
  4  5  2  0  0  0  0
  5  6  1  0  0  0  0
  5 27  1  0  0  0  0
  6  7  2  0  0  0  0
  6 28  1  0  0  0  0
  7  8  1  0  0  0  0
  7 19  1  0  0  0  0
  8  9  1  0  0  0  0
  8 29  1  0  0  0  0
  9 10  2  0  0  0  0
  9 11  1  0  0  0  0
 11 12  1  0  0  0  0
 11 30  1  0  0  0  0
 12 18  1  0  0  0  0
 12 13  1  0  0  0  0
 12 31  1  0  0  0  0
 13 14  1  0  0  0  0
 13 32  1  0  0  0  0
 13 33  1  0  0  0  0
 14 15  1  0  0  0  0
 14 34  1  0  0  0  0
 14 35  1  0  0  0  0
 15 16  1  0  0  0  0
 15 17  1  0  0  0  0
 15 36  1  0  0  0  0
 16 37  1  0  0  0  0
 17 18  1  0  0  0  0
 17 38  1  0  0  0  0
 17 39  1  0  0  0  0
 18 40  1  0  0  0  0
 18 41  1  0  0  0  0
 19 20  2  0  0  0  0
 19 42  1  0  0  0  0
M  END
> <s_m_source_file>
AV-unprocessed.smi

> <i_m_source_file_index>
967

> <i_lp_mmshare_version>
43012

> <i_f3d_flags>
0

> <s_epik_input>
W0NIM11OKFtDSDNdKWMxW2NIXVtjSF1jKFtjSF1uMSlbTkhdQyg9TylbTkhdW0NAQEhdMltDSDJdW0NIMl1bQ0BASF0oW09IXSlbQ0gyXVtDSDJdMg==

> <s_epik_cmdline>
J2VwaWtfcHl0aG9uJywgJy1waCcsICc3LjAnLCAnLXRuJywgJzgnLCAnLW1hJywgJzIwMCcsICctbWV0YWxfYmluZGluZycsICctaW1hZScsICc8aW5maWxlLm1hZT4nLCAnLW9tYWUnLCAnPG91dGZpbGUubWFlPic=

> <r_lp_tautomer_probability>
1

> <r_epik_Ionization_Penalty>
0.629464

> <r_epik_Ionization_Penalty_Charging>
0

> <r_epik_Ionization_Penalty_Neutral>
0.629464

> <r_epik_State_Penalty>
0.645019

> <r_epik_Charging_Adjusted_Penalty>
0.645019

> <i_epik_Tot_Q>
0

> <i_epik_Tot_abs_Q>
0

> <r_epik_Metal_State_Penalty>
0.308581

> <b_epik_Metal_Only>
0

> <s_lp_Force_Field>
OPLS_2005

> <r_lp_Energy>
16.3049

> <b_lp_Chiralities_Consistent>
1

> <s_lp_Variant>
AV-unprocessed.smi:967-3

> <Gold.Version>
5.8.1

> <Gold.Id.Protein>
6NUR|6NUR_protein|mol2

> <Gold.PLP.Fitness>
48.5705

> <Gold.PLP.PLP>
-35.5431

> <Gold.PLP.part.hbond>
-5.5253

> <Gold.PLP.part.metal>
0.0000

> <Gold.PLP.part.buried>
-2.3243

> <Gold.PLP.part.nonpolar>
-27.7803

> <Gold.PLP.part.repulsive>
0.1404

> <Gold.PLP.ligand.clash>
0.0000

> <Gold.PLP.ligand.torsion>
0.7081

> <Gold.PLP.Chemscore.Hbond>
4.7436

> <Gold.PLP.Chemscore.CHOScore>
0.0000

> <Gold.PLP.Chemscore.Metal>
0.0000

> <Gold.Chemscore.Hbonds>
donor molecule, donor type, donor heavy atom, donor atom, acceptor molecule, acceptor atom, score
      L1  H     8    29       P1  7948  0.84
      L1  H    11    30       P1  7948  1.00
      L1  H    16    37       P1 10186  1.00
      P1  H  6896  6909       L1     2  0.90
      P1  H 10785 10796       L1    16  0.83

> <Gold.PLP.Chemscore.Internal.Correction>
0.2127

> <Gold.Rescore>
     Score         DG    S(hbond)    S(metal)    S(lipo)     H(rot)  DE(clash)    DE(int)     intcor
     16.40     -18.88       2.64        0.00      76.54       1.71       0.02       2.46       ----

> <Gold.Chemscore.Fitness>
16.4026

> <Gold.Chemscore.DG>
-18.8762

> <Gold.Chemscore.ZeroCoef>
-5.4800

> <Gold.Chemscore.Hbond>
2.6390

> <Gold.Chemscore.Metal>
0.0000

> <Gold.Chemscore.Lipo>
76.5421

> <Gold.Chemscore.Internal_Hbond>
0.0000

> <Gold.Chemscore.DEClash>
0.0180

> <Gold.Chemscore.DEInternal>
2.4556

> <Gold.Chemscore.Rot>
1.7084

> <Gold.Chemscore.Internal.Correction>
   9.000000E+99

> <Gold.Chemscore.Hbonds>
donor molecule, donor type, donor heavy atom, donor atom, acceptor molecule, acceptor atom, score
      L1  H     8    29       P1  7948  0.14
      L1  H    11    30       P1  7948  0.70
      L1  H    16    37       P1 10186  0.98
      P1  H  6896  6909       L1     2  0.04
      P1  H 10785 10796       L1    16  0.18

> <Gold.Chemscore.Hbond.Weighted>
-8.8144

> <Gold.Chemscore.Metal.Weighted>
-0.0000

> <Gold.Chemscore.Lipo.Weighted>
-8.9554

> <Gold.Chemscore.Internal_Hbond.Weighted>
0.0000

> <Gold.Chemscore.DEClash.Weighted>
0.0180

> <Gold.Chemscore.DEInternal.Weighted>
2.4556

> <Gold.Chemscore.Rot.Weighted>
4.3735

> <Gold.Chemscore.Internal.Correction.Weighted>
   9.000000E+99

> <Gold.Protein.RotatedTorsions>
[ 6907 6896 6895 6894 ] final  -59.92 input  -60.11 | X-H torsion
[ 7974 7965 7964 7962 ] final  -78.09 input  175.53 | X-H torsion
[ 8008 7997 7996 7995 ] final  -34.76 input   59.86 | X-H torsion
[ 10167 10162 10161 10158 ] final -163.12 input  -65.29 | X-H torsion
[ 10718 10713 10712 10709 ] final   64.14 input   66.30 | X-H torsion
[ 10763 10752 10751 10750 ] final   16.93 input  -60.55 | X-H torsion
[ 11005 11000 10999 10996 ] final -123.06 input  -57.11 | X-H torsion

> <Gold.Protein.ActiveResidues>
 VAL166  LYS551  ARG553  GLY616  TRP617  ASP618  TYR619  PRO620  LYS621  CYS622 
 ASP623  PHE694  ASN695  SER759  ASP760  ASP761  ALA762  ILE779  LEU786  VAL792 
 PHE793  MET794  SER795  GLU796  ALA797  LYS798  CYS799  TRP800  GLU811  SER814 

> <Gold.Protein.RotatedAtoms>
  150.7894  134.6906  159.6494 H   0  0  0  0  0  0  0  0  0  0  0  0  # atno 6907 bound_to 6896
  152.3997  134.6303  160.0083 H   0  0  0  0  0  0  0  0  0  0  0  0  # atno 6908 bound_to 6896
  151.6578  133.3281  159.3203 H   0  0  0  0  0  0  0  0  0  0  0  0  # atno 6909 bound_to 6896
  145.5911  140.9429  143.1292 H   0  0  0  0  0  0  0  0  0  0  0  0  # atno 7974 bound_to 7965
  154.4112  140.1675  156.2101 H   0  0  0  0  0  0  0  0  0  0  0  0  # atno 8008 bound_to 7997
  155.9451  140.3405  155.6337 H   0  0  0  0  0  0  0  0  0  0  0  0  # atno 8009 bound_to 7997
  155.6940  140.0737  157.2427 H   0  0  0  0  0  0  0  0  0  0  0  0  # atno 8010 bound_to 7997
  139.6343  144.0379  152.2042 H   0  0  0  0  0  0  0  0  0  0  0  0  # atno 10167 bound_to 10162
  157.6019  130.9143  149.9807 H   0  0  0  0  0  0  0  0  0  0  0  0  # atno 10718 bound_to 10713
  153.1385  135.6755  153.9064 H   0  0  0  0  0  0  0  0  0  0  0  0  # atno 10763 bound_to 10752
  153.8529  135.3091  155.3434 H   0  0  0  0  0  0  0  0  0  0  0  0  # atno 10764 bound_to 10752
  154.7768  135.4910  153.9844 H   0  0  0  0  0  0  0  0  0  0  0  0  # atno 10765 bound_to 10752
  140.9948  134.0488  157.3611 H   0  0  0  0  0  0  0  0  0  0  0  0  # atno 11005 bound_to 11000
  144.7351  139.7610  143.7332 LP  0  0  0  0  0  0  0  0  0  0  0  0  # atno 17320 bound_to 7965
  146.1646  139.4773  142.9966 LP  0  0  0  0  0  0  0  0  0  0  0  0  # atno 17321 bound_to 7965
  140.0052  144.6264  150.7695 LP  0  0  0  0  0  0  0  0  0  0  0  0  # atno 17342 bound_to 10162
  140.7457  143.2879  151.3412 LP  0  0  0  0  0  0  0  0  0  0  0  0  # atno 17343 bound_to 10162
  156.1095  130.3651  150.0075 LP  0  0  0  0  0  0  0  0  0  0  0  0  # atno 17370 bound_to 10713
  156.8176  130.9347  151.3642 LP  0  0  0  0  0  0  0  0  0  0  0  0  # atno 17371 bound_to 10713
  139.9009  135.0164  156.7264 LP  0  0  0  0  0  0  0  0  0  0  0  0  # atno 17394 bound_to 11000
  140.6983  133.9328  155.8008 LP  0  0  0  0  0  0  0  0  0  0  0  0  # atno 17395 bound_to 11000

$$$$
