AV-unprocessed.smi:1038|AV-procd|sdf|4521|dock9
  -GOLD-   22720 2533D 1   1.00000     0.00000
 Structure written by MMmdl.
 57 58  0  0  0  0  0  0  0  0  2 V2000
  152.6113  142.1754  159.9455 C   0  0  0  0  0  0  0  0  0  0  0  0
  151.9079  142.4902  158.7570 O   0  0  0  0  0  0  0  0  0  0  0  0
  151.4985  141.3345  158.0444 C   0  0  0  0  0  0  0  0  0  0  0  0
  150.9189  141.7394  156.6795 C   0  0  0  0  0  0  0  0  0  0  0  0
  150.5935  140.5677  155.8534 N   0  0  0  0  0  0  0  0  0  0  0  0
  149.2565  140.4444  155.4279 C   0  0  0  0  0  0  0  0  0  0  0  0
  148.8328  139.4162  154.6673 C   0  0  0  0  0  0  0  0  0  0  0  0
  147.4278  139.3468  154.2596 C   0  0  0  0  0  0  0  0  0  0  0  0
  146.8184  140.2507  153.6859 O   0  0  0  0  0  0  0  0  0  0  0  0
  146.8334  138.1843  154.5715 N   0  0  0  0  0  0  0  0  0  0  0  0
  145.4413  137.8513  154.2833 C   0  0  0  0  0  0  0  0  0  0  0  0
  145.2841  136.5100  153.4980 C   0  0  0  0  0  0  0  0  0  0  0  0
  143.9076  135.9400  153.7357 N   0  3  0  0  0  0  0  0  0  0  0  0
  142.7687  136.7961  153.3089 C   0  0  0  0  0  0  0  0  0  0  0  0
  143.6587  135.4243  155.1082 C   0  0  0  0  0  0  0  0  0  0  0  0
  145.5357  136.8215  151.9852 C   0  0  0  0  0  0  0  0  0  0  0  0
  145.3059  135.6922  150.9638 C   0  0  0  0  0  0  0  0  0  0  0  0
  146.1878  134.4522  151.1572 C   0  0  0  0  0  0  0  0  0  0  0  0
  145.7199  133.5881  152.3325 C   0  0  0  0  0  0  0  0  0  0  0  0
  146.2546  134.0155  153.7072 C   0  0  0  0  0  0  0  0  0  0  0  0
  146.3969  135.5293  153.9910 C   0  0  0  0  0  0  0  0  0  0  0  0
  149.8207  138.4170  154.2871 C   0  0  0  0  0  0  0  0  0  0  0  0
  151.1019  138.5334  154.6872 C   0  0  0  0  0  0  0  0  0  0  0  0
  151.5538  139.6558  155.5145 C   0  0  0  0  0  0  0  0  0  0  0  0
  152.7248  139.7657  155.8782 O   0  0  0  0  0  0  0  0  0  0  0  0
  152.8949  143.0945  160.4581 H   0  0  0  0  0  0  0  0  0  0  0  0
  153.5223  141.6162  159.7280 H   0  0  0  0  0  0  0  0  0  0  0  0
  151.9933  141.5875  160.6254 H   0  0  0  0  0  0  0  0  0  0  0  0
  152.3595  140.6819  157.8920 H   0  0  0  0  0  0  0  0  0  0  0  0
  150.7624  140.7703  158.6198 H   0  0  0  0  0  0  0  0  0  0  0  0
  150.0542  142.3906  156.8182 H   0  0  0  0  0  0  0  0  0  0  0  0
  151.6486  142.3553  156.1518 H   0  0  0  0  0  0  0  0  0  0  0  0
  148.6102  141.2440  155.7628 H   0  0  0  0  0  0  0  0  0  0  0  0
  147.3856  137.4826  155.0430 H   0  0  0  0  0  0  0  0  0  0  0  0
  144.9142  137.8110  155.2371 H   0  0  0  0  0  0  0  0  0  0  0  0
  145.0082  138.6804  153.7227 H   0  0  0  0  0  0  0  0  0  0  0  0
  142.7006  137.7038  153.9083 H   0  0  0  0  0  0  0  0  0  0  0  0
  141.8298  136.2553  153.4327 H   0  0  0  0  0  0  0  0  0  0  0  0
  142.8179  137.0827  152.2607 H   0  0  0  0  0  0  0  0  0  0  0  0
  143.5381  136.2367  155.8252 H   0  0  0  0  0  0  0  0  0  0  0  0
  144.4487  134.7708  155.4717 H   0  0  0  0  0  0  0  0  0  0  0  0
  142.7373  134.8413  155.1238 H   0  0  0  0  0  0  0  0  0  0  0  0
  144.9299  137.6763  151.6829 H   0  0  0  0  0  0  0  0  0  0  0  0
  146.5617  137.1654  151.8494 H   0  0  0  0  0  0  0  0  0  0  0  0
  144.2573  135.3974  150.9392 H   0  0  0  0  0  0  0  0  0  0  0  0
  145.5100  136.0986  149.9723 H   0  0  0  0  0  0  0  0  0  0  0  0
  146.1205  133.8515  150.2493 H   0  0  0  0  0  0  0  0  0  0  0  0
  147.2394  134.7235  151.2584 H   0  0  0  0  0  0  0  0  0  0  0  0
  144.6301  133.5550  152.3516 H   0  0  0  0  0  0  0  0  0  0  0  0
  146.0309  132.5572  152.1583 H   0  0  0  0  0  0  0  0  0  0  0  0
  145.6294  133.5521  154.4699 H   0  0  0  0  0  0  0  0  0  0  0  0
  147.2388  133.5662  153.8464 H   0  0  0  0  0  0  0  0  0  0  0  0
  147.3549  135.8509  153.5800 H   0  0  0  0  0  0  0  0  0  0  0  0
  146.5260  135.6381  155.0686 H   0  0  0  0  0  0  0  0  0  0  0  0
  149.5555  137.5656  153.6779 H   0  0  0  0  0  0  0  0  0  0  0  0
  151.8177  137.7802  154.3917 H   0  0  0  0  0  0  0  0  0  0  0  0
  143.8654  135.1279  153.1362 H   0  0  0  0  0  0  0  0  0  0  0  0
  1  2  1  0  0  0  0
  1 26  1  0  0  0  0
  1 27  1  0  0  0  0
  1 28  1  0  0  0  0
  2  3  1  0  0  0  0
  3  4  1  0  0  0  0
  3 29  1  0  0  0  0
  3 30  1  0  0  0  0
  4  5  1  0  0  0  0
  4 31  1  0  0  0  0
  4 32  1  0  0  0  0
  5 24  1  0  0  0  0
  5  6  1  0  0  0  0
  6  7  2  0  0  0  0
  6 33  1  0  0  0  0
  7  8  1  0  0  0  0
  7 22  1  0  0  0  0
  8  9  2  0  0  0  0
  8 10  1  0  0  0  0
 10 11  1  0  0  0  0
 10 34  1  0  0  0  0
 11 12  1  0  0  0  0
 11 35  1  0  0  0  0
 11 36  1  0  0  0  0
 12 21  1  0  0  0  0
 12 13  1  0  0  0  0
 12 16  1  0  0  0  0
 13 14  1  0  0  0  0
 13 15  1  0  0  0  0
 13 57  1  0  0  0  0
 14 37  1  0  0  0  0
 14 38  1  0  0  0  0
 14 39  1  0  0  0  0
 15 40  1  0  0  0  0
 15 41  1  0  0  0  0
 15 42  1  0  0  0  0
 16 17  1  0  0  0  0
 16 43  1  0  0  0  0
 16 44  1  0  0  0  0
 17 18  1  0  0  0  0
 17 45  1  0  0  0  0
 17 46  1  0  0  0  0
 18 19  1  0  0  0  0
 18 47  1  0  0  0  0
 18 48  1  0  0  0  0
 19 20  1  0  0  0  0
 19 49  1  0  0  0  0
 19 50  1  0  0  0  0
 20 21  1  0  0  0  0
 20 51  1  0  0  0  0
 20 52  1  0  0  0  0
 21 53  1  0  0  0  0
 21 54  1  0  0  0  0
 22 23  2  0  0  0  0
 22 55  1  0  0  0  0
 23 24  1  0  0  0  0
 23 56  1  0  0  0  0
 24 25  2  0  0  0  0
M  CHG  1  13   1
M  END
> <s_m_source_file>
AV-unprocessed.smi

> <i_m_source_file_index>
1038

> <i_lp_mmshare_version>
43012

> <i_f3d_flags>
0

> <s_epik_input>
W0NIM11PW0NIMl1bQ0gyXW4xW2NIXWMoW2NIXVtjSF1jMT1PKUMoPU8pW05IXVtDSDJdQzIoTihbQ0gzXSlbQ0gzXSlbQ0gyXVtDSDJdW0NIMl1bQ0gyXVtDSDJdW0NIMl0y

> <s_epik_cmdline>
J2VwaWtfcHl0aG9uJywgJy1waCcsICc3LjAnLCAnLXRuJywgJzgnLCAnLW1hJywgJzIwMCcsICctbWV0YWxfYmluZGluZycsICctaW1hZScsICc8aW5maWxlLm1hZT4nLCAnLW9tYWUnLCAnPG91dGZpbGUubWFlPic=

> <r_lp_tautomer_probability>
1

> <r_epik_Ionization_Penalty>
0.00379096

> <r_epik_Ionization_Penalty_Charging>
0.0037899

> <r_epik_Ionization_Penalty_Neutral>
1.06849e-06

> <r_epik_State_Penalty>
0.00270348

> <r_epik_Charging_Adjusted_Penalty>
0.00649338

> <i_epik_Tot_Q>
1

> <i_epik_Tot_abs_Q>
1

> <r_epik_Metal_State_Penalty>
-0

> <b_epik_Metal_Only>
0

> <s_lp_Force_Field>
OPLS_2005

> <r_lp_Energy>
50.9414

> <b_lp_Chiralities_Consistent>
1

> <s_lp_Variant>
AV-unprocessed.smi:1038-1

> <Gold.Version>
5.8.1

> <Gold.Id.Protein>
6NUR|6NUR_protein|mol2

> <Gold.PLP.Fitness>
40.0285

> <Gold.PLP.PLP>
-39.7326

> <Gold.PLP.part.hbond>
-1.0000

> <Gold.PLP.part.metal>
0.0000

> <Gold.PLP.part.buried>
-4.5598

> <Gold.PLP.part.nonpolar>
-34.7079

> <Gold.PLP.part.repulsive>
0.2102

> <Gold.PLP.ligand.clash>
0.0000

> <Gold.PLP.ligand.torsion>
1.4718

> <Gold.PLP.Chemscore.Hbond>
1.0000

> <Gold.PLP.Chemscore.CHOScore>
0.0000

> <Gold.PLP.Chemscore.Metal>
0.0000

> <Gold.Chemscore.Hbonds>
donor molecule, donor type, donor heavy atom, donor atom, acceptor molecule, acceptor atom, score
      P1  H  7997  8008       L1    25  0.98

> <Gold.PLP.Chemscore.Internal.Correction>
0.2395

> <Gold.Rescore>
     Score         DG    S(hbond)    S(metal)    S(lipo)     H(rot)  DE(clash)    DE(int)     intcor
     13.29     -14.58       1.00        0.00      89.99       1.86       0.10       1.19       ----

> <Gold.Chemscore.Fitness>
13.2858

> <Gold.Chemscore.DG>
-14.5750

> <Gold.Chemscore.ZeroCoef>
-5.4800

> <Gold.Chemscore.Hbond>
1.0000

> <Gold.Chemscore.Metal>
0.0000

> <Gold.Chemscore.Lipo>
89.9936

> <Gold.Chemscore.Internal_Hbond>
0.0000

> <Gold.Chemscore.DEClash>
0.0954

> <Gold.Chemscore.DEInternal>
1.1939

> <Gold.Chemscore.Rot>
1.8649

> <Gold.Chemscore.Internal.Correction>
   9.000000E+99

> <Gold.Chemscore.Hbonds>
donor molecule, donor type, donor heavy atom, donor atom, acceptor molecule, acceptor atom, score
      P1  H  7997  8008       L1    25  0.93

> <Gold.Chemscore.Hbond.Weighted>
-3.3399

> <Gold.Chemscore.Metal.Weighted>
-0.0000

> <Gold.Chemscore.Lipo.Weighted>
-10.5292

> <Gold.Chemscore.Internal_Hbond.Weighted>
0.0000

> <Gold.Chemscore.DEClash.Weighted>
0.0954

> <Gold.Chemscore.DEInternal.Weighted>
1.1939

> <Gold.Chemscore.Rot.Weighted>
4.7741

> <Gold.Chemscore.Internal.Correction.Weighted>
   9.000000E+99

> <Gold.Protein.RotatedTorsions>
[ 6907 6896 6895 6894 ] final  -50.57 input  -60.11 | X-H torsion
[ 7974 7965 7964 7962 ] final  -76.88 input  175.53 | X-H torsion
[ 8008 7997 7996 7995 ] final  -14.38 input   59.86 | X-H torsion
[ 10167 10162 10161 10158 ] final  167.32 input  -65.29 | X-H torsion
[ 10718 10713 10712 10709 ] final  154.15 input   66.30 | X-H torsion
[ 10763 10752 10751 10750 ] final   69.70 input  -60.55 | X-H torsion
[ 11005 11000 10999 10996 ] final  -69.02 input  -57.11 | X-H torsion

> <Gold.Protein.ActiveResidues>
 VAL166  LYS551  ARG553  GLY616  TRP617  ASP618  TYR619  PRO620  LYS621  CYS622 
 ASP623  PHE694  ASN695  SER759  ASP760  ASP761  ALA762  ILE779  LEU786  VAL792 
 PHE793  MET794  SER795  GLU796  ALA797  LYS798  CYS799  TRP800  GLU811  SER814 

> <Gold.Protein.RotatedAtoms>
  150.8694  134.8065  159.7143 H   0  0  0  0  0  0  0  0  0  0  0  0  # atno 6907 bound_to 6896
  152.4704  134.4971  159.9723 H   0  0  0  0  0  0  0  0  0  0  0  0  # atno 6908 bound_to 6896
  151.5062  133.3456  159.2913 H   0  0  0  0  0  0  0  0  0  0  0  0  # atno 6909 bound_to 6896
  145.6070  140.9395  143.1210 H   0  0  0  0  0  0  0  0  0  0  0  0  # atno 7974 bound_to 7965
  154.5215  140.2224  155.8968 H   0  0  0  0  0  0  0  0  0  0  0  0  # atno 8008 bound_to 7997
  156.1667  140.3131  155.8865 H   0  0  0  0  0  0  0  0  0  0  0  0  # atno 8009 bound_to 7997
  155.3642  140.0463  157.3037 H   0  0  0  0  0  0  0  0  0  0  0  0  # atno 8010 bound_to 7997
  139.4943  144.3934  151.9491 H   0  0  0  0  0  0  0  0  0  0  0  0  # atno 10167 bound_to 10162
  157.2354  131.0748  151.1826 H   0  0  0  0  0  0  0  0  0  0  0  0  # atno 10718 bound_to 10713
  153.0301  135.5201  154.7329 H   0  0  0  0  0  0  0  0  0  0  0  0  # atno 10763 bound_to 10752
  154.6351  135.2905  155.0172 H   0  0  0  0  0  0  0  0  0  0  0  0  # atno 10764 bound_to 10752
  154.1110  135.6622  153.4937 H   0  0  0  0  0  0  0  0  0  0  0  0  # atno 10765 bound_to 10752
  141.1545  133.6754  156.6535 H   0  0  0  0  0  0  0  0  0  0  0  0  # atno 11005 bound_to 11000
  144.7286  139.7798  143.7356 LP  0  0  0  0  0  0  0  0  0  0  0  0  # atno 17320 bound_to 7965
  146.1533  139.4623  143.0035 LP  0  0  0  0  0  0  0  0  0  0  0  0  # atno 17321 bound_to 7965
  140.3372  144.3246  150.5974 LP  0  0  0  0  0  0  0  0  0  0  0  0  # atno 17342 bound_to 10162
  140.5596  143.2194  151.7788 LP  0  0  0  0  0  0  0  0  0  0  0  0  # atno 17343 bound_to 10162
  157.3434  130.7045  149.6395 LP  0  0  0  0  0  0  0  0  0  0  0  0  # atno 17370 bound_to 10713
  155.9673  130.4273  150.4738 LP  0  0  0  0  0  0  0  0  0  0  0  0  # atno 17371 bound_to 10713
  140.3302  134.7935  157.4320 LP  0  0  0  0  0  0  0  0  0  0  0  0  # atno 17394 bound_to 11000
  140.1023  134.5456  155.8341 LP  0  0  0  0  0  0  0  0  0  0  0  0  # atno 17395 bound_to 11000

$$$$
