AV-unprocessed.smi:2365|AV-procd|sdf|9419|dock8
  -GOLD-   2272013 53D 1   1.00000     0.00000
 Structure written by MMmdl.
 29 30  0  0  0  0  0  0  0  0  1 V2000
  150.5840  135.6244  156.8578 C   0  0  0  0  0  0  0  0  0  0  0  0
  150.7492  136.9693  156.1431 C   0  0  2  0  0  0  0  0  0  0  0  0
  150.9888  136.8592  154.6420 C   0  0  0  0  0  0  0  0  0  0  0  0
  151.6561  138.1829  154.3076 C   0  0  0  0  0  0  0  0  0  0  0  0
  152.2701  138.6483  155.6438 C   0  0  1  0  0  0  0  0  0  0  0  0
  151.7435  140.0176  156.1116 C   0  0  0  0  0  0  0  0  0  0  0  0
  150.9263  140.6196  155.4152 O   0  0  0  0  0  0  0  0  0  0  0  0
  152.2232  140.4793  157.2814 N   0  0  0  0  0  0  0  0  0  0  0  0
  151.8830  141.6791  157.9623 C   0  0  0  0  0  0  0  0  0  0  0  0
  151.0842  142.6968  157.3862 C   0  0  0  0  0  0  0  0  0  0  0  0
  150.7763  143.8490  158.0183 N   0  0  0  0  0  0  0  0  0  0  0  0
  151.2624  144.0379  159.2623 C   0  0  0  0  0  0  0  0  0  0  0  0
  152.0786  143.1011  159.9257 C   0  0  0  0  0  0  0  0  0  0  0  0
  152.6611  143.4368  161.5172 Cl  0  0  0  0  0  0  0  0  0  0  0  0
  152.4004  141.8985  159.2597 C   0  0  0  0  0  0  0  0  0  0  0  0
  153.4020  140.7103  160.0241 Cl  0  0  0  0  0  0  0  0  0  0  0  0
  151.9243  137.6306  156.5866 O   0  0  0  0  0  0  0  0  0  0  0  0
  149.7023  135.0957  156.4958 H   0  0  0  0  0  0  0  0  0  0  0  0
  150.4692  135.7680  157.9323 H   0  0  0  0  0  0  0  0  0  0  0  0
  151.4503  134.9819  156.6983 H   0  0  0  0  0  0  0  0  0  0  0  0
  149.8849  137.6067  156.3386 H   0  0  0  0  0  0  0  0  0  0  0  0
  151.6753  136.0386  154.4287 H   0  0  0  0  0  0  0  0  0  0  0  0
  150.0719  136.6892  154.0772 H   0  0  0  0  0  0  0  0  0  0  0  0
  152.4119  138.0628  153.5309 H   0  0  0  0  0  0  0  0  0  0  0  0
  150.9108  138.8852  153.9306 H   0  0  0  0  0  0  0  0  0  0  0  0
  153.3569  138.7018  155.5743 H   0  0  0  0  0  0  0  0  0  0  0  0
  152.8231  139.8439  157.7885 H   0  0  0  0  0  0  0  0  0  0  0  0
  150.6918  142.6100  156.3846 H   0  0  0  0  0  0  0  0  0  0  0  0
  150.9959  144.9686  159.7413 H   0  0  0  0  0  0  0  0  0  0  0  0
  1  2  1  0  0  0  0
  1 18  1  0  0  0  0
  1 19  1  0  0  0  0
  1 20  1  0  0  0  0
  2 17  1  0  0  0  0
  2  3  1  0  0  0  0
  2 21  1  0  0  0  0
  3  4  1  0  0  0  0
  3 22  1  0  0  0  0
  3 23  1  0  0  0  0
  4  5  1  0  0  0  0
  4 24  1  0  0  0  0
  4 25  1  0  0  0  0
  5  6  1  0  0  0  0
  5 17  1  0  0  0  0
  5 26  1  0  0  0  0
  6  7  2  0  0  0  0
  6  8  1  0  0  0  0
  8  9  1  0  0  0  0
  8 27  1  0  0  0  0
  9 15  1  0  0  0  0
  9 10  2  0  0  0  0
 10 11  1  0  0  0  0
 10 28  1  0  0  0  0
 11 12  2  0  0  0  0
 12 13  1  0  0  0  0
 12 29  1  0  0  0  0
 13 14  1  0  0  0  0
 13 15  2  0  0  0  0
 15 16  1  0  0  0  0
M  END
> <s_m_source_file>
AV-unprocessed.smi

> <i_m_source_file_index>
2365

> <i_lp_mmshare_version>
43012

> <i_f3d_flags>
0

> <s_epik_input>
W0NIM11bQ0BASF0xW0NIMl1bQ0gyXVtDQEhdKE8xKUMoPU8pW05IXWMyW2NIXW5bY0hdYyhDbCljMkNs

> <s_epik_cmdline>
J2VwaWtfcHl0aG9uJywgJy1waCcsICc3LjAnLCAnLXRuJywgJzgnLCAnLW1hJywgJzIwMCcsICctbWV0YWxfYmluZGluZycsICctaW1hZScsICc8aW5maWxlLm1hZT4nLCAnLW9tYWUnLCAnPG91dGZpbGUubWFlPic=

> <r_lp_tautomer_probability>
1

> <r_epik_Ionization_Penalty>
7.32461e-06

> <r_epik_Ionization_Penalty_Charging>
0

> <r_epik_Ionization_Penalty_Neutral>
7.32461e-06

> <r_epik_State_Penalty>
-0

> <r_epik_Charging_Adjusted_Penalty>
0

> <i_epik_Tot_Q>
0

> <i_epik_Tot_abs_Q>
0

> <r_epik_Metal_State_Penalty>
-0

> <b_epik_Metal_Only>
0

> <s_lp_Force_Field>
OPLS_2005

> <r_lp_Energy>
23.4255

> <b_lp_Chiralities_Consistent>
1

> <s_lp_Variant>
AV-unprocessed.smi:2365-1

> <Gold.Version>
5.8.1

> <Gold.Id.Protein>
6NUR|6NUR_protein|mol2

> <Gold.PLP.Fitness>
36.2569

> <Gold.PLP.PLP>
-33.3032

> <Gold.PLP.part.hbond>
-1.0000

> <Gold.PLP.part.metal>
0.0000

> <Gold.PLP.part.buried>
-4.6265

> <Gold.PLP.part.nonpolar>
-28.7346

> <Gold.PLP.part.repulsive>
0.3845

> <Gold.PLP.ligand.clash>
0.0000

> <Gold.PLP.ligand.torsion>
0.0191

> <Gold.PLP.Chemscore.Hbond>
0.8960

> <Gold.PLP.Chemscore.CHOScore>
0.0991

> <Gold.PLP.Chemscore.Metal>
0.0000

> <Gold.Chemscore.Hbonds>
donor molecule, donor type, donor heavy atom, donor atom, acceptor molecule, acceptor atom, score
      P1  H  7989  7998       L1     7  0.84
      L1  C    10    28       P1  8028  0.11

> <Gold.PLP.Chemscore.Internal.Correction>
0.0066

> <Gold.Rescore>
     Score         DG    S(hbond)    S(metal)    S(lipo)     H(rot)  DE(clash)    DE(int)     intcor
     16.08     -17.42       0.83        0.00     100.21       1.00       0.02       1.32       ----

> <Gold.Chemscore.Fitness>
16.0785

> <Gold.Chemscore.DG>
-17.4158

> <Gold.Chemscore.ZeroCoef>
-5.4800

> <Gold.Chemscore.Hbond>
0.8299

> <Gold.Chemscore.Metal>
0.0000

> <Gold.Chemscore.Lipo>
100.2056

> <Gold.Chemscore.Internal_Hbond>
0.0000

> <Gold.Chemscore.DEClash>
0.0187

> <Gold.Chemscore.DEInternal>
1.3186

> <Gold.Chemscore.Rot>
1.0000

> <Gold.Chemscore.Internal.Correction>
   9.000000E+99

> <Gold.Chemscore.Hbonds>
donor molecule, donor type, donor heavy atom, donor atom, acceptor molecule, acceptor atom, score
      P1  H  7989  7998       L1     7  0.62

> <Gold.Chemscore.Hbond.Weighted>
-2.7718

> <Gold.Chemscore.Metal.Weighted>
-0.0000

> <Gold.Chemscore.Lipo.Weighted>
-11.7241

> <Gold.Chemscore.Internal_Hbond.Weighted>
0.0000

> <Gold.Chemscore.DEClash.Weighted>
0.0187

> <Gold.Chemscore.DEInternal.Weighted>
1.3186

> <Gold.Chemscore.Rot.Weighted>
2.5600

> <Gold.Chemscore.Internal.Correction.Weighted>
   9.000000E+99

> <Gold.Protein.RotatedTorsions>
[ 6907 6896 6895 6894 ] final  -41.85 input  -60.11 | X-H torsion
[ 7974 7965 7964 7962 ] final -170.86 input  175.53 | X-H torsion
[ 8008 7997 7996 7995 ] final  -68.86 input   59.86 | X-H torsion
[ 10167 10162 10161 10158 ] final   12.84 input  -65.29 | X-H torsion
[ 10718 10713 10712 10709 ] final  125.46 input   66.30 | X-H torsion
[ 10763 10752 10751 10750 ] final  -30.19 input  -60.55 | X-H torsion
[ 11005 11000 10999 10996 ] final -161.85 input  -57.11 | X-H torsion

> <Gold.Protein.ActiveResidues>
 VAL166  LYS551  ARG553  GLY616  TRP617  ASP618  TYR619  PRO620  LYS621  CYS622 
 ASP623  PHE694  ASN695  SER759  ASP760  ASP761  ALA762  ILE779  LEU786  VAL792 
 PHE793  MET794  SER795  GLU796  ALA797  LYS798  CYS799  TRP800  GLU811  SER814 

> <Gold.Protein.RotatedAtoms>
  150.9620  134.9006  159.7735 H   0  0  0  0  0  0  0  0  0  0  0  0  # atno 6907 bound_to 6896
  152.5159  134.3660  159.9311 H   0  0  0  0  0  0  0  0  0  0  0  0  # atno 6908 bound_to 6896
  151.3672  133.3827  159.2730 H   0  0  0  0  0  0  0  0  0  0  0  0  # atno 6909 bound_to 6896
  144.7164  140.2009  143.6338 H   0  0  0  0  0  0  0  0  0  0  0  0  # atno 7974 bound_to 7965
  154.4898  140.0864  156.7568 H   0  0  0  0  0  0  0  0  0  0  0  0  # atno 8008 bound_to 7997
  155.4260  140.3448  155.4257 H   0  0  0  0  0  0  0  0  0  0  0  0  # atno 8009 bound_to 7997
  156.1313  140.1502  156.9049 H   0  0  0  0  0  0  0  0  0  0  0  0  # atno 8010 bound_to 7997
  140.6042  143.8543  150.6996 H   0  0  0  0  0  0  0  0  0  0  0  0  # atno 10167 bound_to 10162
  157.5501  131.1094  150.8717 H   0  0  0  0  0  0  0  0  0  0  0  0  # atno 10718 bound_to 10713
  153.7769  135.6908  153.4896 H   0  0  0  0  0  0  0  0  0  0  0  0  # atno 10763 bound_to 10752
  153.1837  135.4497  155.0060 H   0  0  0  0  0  0  0  0  0  0  0  0  # atno 10764 bound_to 10752
  154.8096  135.3372  154.7275 H   0  0  0  0  0  0  0  0  0  0  0  0  # atno 10765 bound_to 10752
  140.6158  134.4802  157.5219 H   0  0  0  0  0  0  0  0  0  0  0  0  # atno 11005 bound_to 11000
  145.8681  139.2257  143.1677 LP  0  0  0  0  0  0  0  0  0  0  0  0  # atno 17320 bound_to 7965
  146.0111  140.8435  142.9970 LP  0  0  0  0  0  0  0  0  0  0  0  0  # atno 17321 bound_to 7965
  140.2096  143.3894  152.1728 LP  0  0  0  0  0  0  0  0  0  0  0  0  # atno 17342 bound_to 10162
  139.5312  144.7161  151.5048 LP  0  0  0  0  0  0  0  0  0  0  0  0  # atno 17343 bound_to 10162
  156.9244  130.5327  149.5279 LP  0  0  0  0  0  0  0  0  0  0  0  0  # atno 17370 bound_to 10713
  156.0569  130.5629  150.9110 LP  0  0  0  0  0  0  0  0  0  0  0  0  # atno 17371 bound_to 10713
  139.9173  134.8219  156.1323 LP  0  0  0  0  0  0  0  0  0  0  0  0  # atno 17394 bound_to 11000
  141.0777  133.6768  156.2270 LP  0  0  0  0  0  0  0  0  0  0  0  0  # atno 17395 bound_to 11000

$$$$
