AV-unprocessed.smi:1290|AV-procd|sdf|5390|dock10
  -GOLD-   22720 4543D 1   1.00000     0.00000
 Structure written by MMmdl.
 38 40  0  0  0  0  0  0  0  0  1 V2000
  154.2810  140.0833  160.9860 C   0  0  0  0  0  0  0  0  0  0  0  0
  153.4140  140.9704  160.1876 N   0  0  0  0  0  0  0  0  0  0  0  0
  153.0598  140.5689  158.9264 C   0  0  0  0  0  0  0  0  0  0  0  0
  153.4114  139.5119  158.4010 O   0  0  0  0  0  0  0  0  0  0  0  0
  152.2019  141.5253  158.2169 C   0  0  0  0  0  0  0  0  0  0  0  0
  151.7983  142.6998  158.7614 C   0  0  0  0  0  0  0  0  0  0  0  0
  151.0017  143.4185  157.8764 N   0  0  0  0  0  0  0  0  0  0  0  0
  150.9680  142.6143  156.8137 C   0  0  0  0  0  0  0  0  0  0  0  0
  151.6593  141.4630  156.9331 N   0  0  0  0  0  0  0  0  0  0  0  0
  151.7793  140.4287  155.9157 C   0  0  0  0  0  0  0  0  0  0  0  0
  150.4165  140.0087  155.3275 C   0  0  1  0  0  0  0  0  0  0  0  0
  150.2610  140.5262  154.0203 O   0  0  0  0  0  0  0  0  0  0  0  0
  150.2410  138.4989  155.3654 C   0  0  0  0  0  0  0  0  0  0  0  0
  149.1788  137.9203  156.0948 C   0  0  0  0  0  0  0  0  0  0  0  0
  149.0168  136.5217  156.1246 C   0  0  0  0  0  0  0  0  0  0  0  0
  149.9148  135.6930  155.4243 C   0  0  0  0  0  0  0  0  0  0  0  0
  149.7172  133.9792  155.4609 Cl  0  0  0  0  0  0  0  0  0  0  0  0
  150.9738  136.2649  154.6927 C   0  0  0  0  0  0  0  0  0  0  0  0
  151.1358  137.6638  154.6624 C   0  0  0  0  0  0  0  0  0  0  0  0
  152.2226  143.0158  160.0780 N   0  0  0  0  0  0  0  0  0  0  0  0
  151.7946  144.2810  160.6813 C   0  0  0  0  0  0  0  0  0  0  0  0
  153.0304  142.1595  160.7835 C   0  0  0  0  0  0  0  0  0  0  0  0
  153.4031  142.4518  161.9236 O   0  0  0  0  0  0  0  0  0  0  0  0
  154.5180  139.1282  160.5160 H   0  0  0  0  0  0  0  0  0  0  0  0
  153.8106  139.8444  161.9413 H   0  0  0  0  0  0  0  0  0  0  0  0
  155.2326  140.5746  161.1942 H   0  0  0  0  0  0  0  0  0  0  0  0
  150.4236  142.8718  155.9169 H   0  0  0  0  0  0  0  0  0  0  0  0
  152.4593  140.7655  155.1345 H   0  0  0  0  0  0  0  0  0  0  0  0
  152.2609  139.5633  156.3733 H   0  0  0  0  0  0  0  0  0  0  0  0
  149.6273  140.4596  155.9308 H   0  0  0  0  0  0  0  0  0  0  0  0
  149.9590  139.8305  153.4566 H   0  0  0  0  0  0  0  0  0  0  0  0
  148.4841  138.5491  156.6325 H   0  0  0  0  0  0  0  0  0  0  0  0
  148.2024  136.0864  156.6851 H   0  0  0  0  0  0  0  0  0  0  0  0
  151.6631  135.6316  154.1538 H   0  0  0  0  0  0  0  0  0  0  0  0
  151.9503  138.0918  154.0967 H   0  0  0  0  0  0  0  0  0  0  0  0
  151.2687  144.1008  161.6200 H   0  0  0  0  0  0  0  0  0  0  0  0
  151.1207  144.8489  160.0401 H   0  0  0  0  0  0  0  0  0  0  0  0
  152.6577  144.9143  160.8901 H   0  0  0  0  0  0  0  0  0  0  0  0
  1  2  1  0  0  0  0
  1 24  1  0  0  0  0
  1 25  1  0  0  0  0
  1 26  1  0  0  0  0
  2 22  1  0  0  0  0
  2  3  1  0  0  0  0
  3  4  2  0  0  0  0
  3  5  1  0  0  0  0
  5  9  1  0  0  0  0
  5  6  2  0  0  0  0
  6  7  1  0  0  0  0
  6 20  1  0  0  0  0
  7  8  2  0  0  0  0
  8  9  1  0  0  0  0
  8 27  1  0  0  0  0
  9 10  1  0  0  0  0
 10 11  1  0  0  0  0
 10 28  1  0  0  0  0
 10 29  1  0  0  0  0
 11 12  1  0  0  0  0
 11 13  1  0  0  0  0
 11 30  1  0  0  0  0
 12 31  1  0  0  0  0
 13 19  1  0  0  0  0
 13 14  2  0  0  0  0
 14 15  1  0  0  0  0
 14 32  1  0  0  0  0
 15 16  2  0  0  0  0
 15 33  1  0  0  0  0
 16 17  1  0  0  0  0
 16 18  1  0  0  0  0
 18 19  2  0  0  0  0
 18 34  1  0  0  0  0
 19 35  1  0  0  0  0
 20 21  1  0  0  0  0
 20 22  1  0  0  0  0
 21 36  1  0  0  0  0
 21 37  1  0  0  0  0
 21 38  1  0  0  0  0
 22 23  2  0  0  0  0
M  END
> <s_m_source_file>
AV-unprocessed.smi

> <i_m_source_file_index>
1290

> <i_lp_mmshare_version>
43012

> <i_f3d_flags>
0

> <s_epik_input>
Tz1jMW4oW0NIM10pYyg9TyluKFtDSDNdKWMoYzEyKW5bY0hdbjJbQ0gyXVtDQEhdKFtPSF0pYzNbY0hdW2NIXWMoQ2wpW2NIXVtjSF0z

> <s_epik_cmdline>
J2VwaWtfcHl0aG9uJywgJy1waCcsICc3LjAnLCAnLXRuJywgJzgnLCAnLW1hJywgJzIwMCcsICctbWV0YWxfYmluZGluZycsICctaW1hZScsICc8aW5maWxlLm1hZT4nLCAnLW9tYWUnLCAnPG91dGZpbGUubWFlPic=

> <r_lp_tautomer_probability>
1

> <r_epik_Ionization_Penalty>
1.48293e-06

> <r_epik_Ionization_Penalty_Charging>
3.74189e-09

> <r_epik_Ionization_Penalty_Neutral>
1.47919e-06

> <r_epik_State_Penalty>
-0

> <r_epik_Charging_Adjusted_Penalty>
3.74189e-09

> <i_epik_Tot_Q>
0

> <i_epik_Tot_abs_Q>
0

> <r_epik_Metal_State_Penalty>
-0

> <b_epik_Metal_Only>
0

> <s_lp_Force_Field>
OPLS_2005

> <r_lp_Energy>
35.8921

> <b_lp_Chiralities_Consistent>
1

> <s_lp_Variant>
AV-unprocessed.smi:1290-2

> <Gold.Version>
5.8.1

> <Gold.Id.Protein>
6NUR|6NUR_protein|mol2

> <Gold.PLP.Fitness>
49.6688

> <Gold.PLP.PLP>
-42.8071

> <Gold.PLP.part.hbond>
-2.7265

> <Gold.PLP.part.metal>
0.0000

> <Gold.PLP.part.buried>
-3.4567

> <Gold.PLP.part.nonpolar>
-35.1178

> <Gold.PLP.part.repulsive>
0.1819

> <Gold.PLP.ligand.clash>
0.0000

> <Gold.PLP.ligand.torsion>
0.7942

> <Gold.PLP.Chemscore.Hbond>
1.8612

> <Gold.PLP.Chemscore.CHOScore>
0.9457

> <Gold.PLP.Chemscore.Metal>
0.0000

> <Gold.Chemscore.Hbonds>
donor molecule, donor type, donor heavy atom, donor atom, acceptor molecule, acceptor atom, score
      L1  H    12    31       P1  7957  0.13
      P1  H  7989  7998       L1    12  0.71
      P1  H  7997  8009       L1     4  1.00
      L1  C     8    27       P1  8028  0.93

> <Gold.PLP.Chemscore.Internal.Correction>
0.0295

> <Gold.Rescore>
     Score         DG    S(hbond)    S(metal)    S(lipo)     H(rot)  DE(clash)    DE(int)     intcor
     12.38     -13.27       1.67        0.00      65.92       2.15       0.06       0.84       ----

> <Gold.Chemscore.Fitness>
12.3786

> <Gold.Chemscore.DG>
-13.2700

> <Gold.Chemscore.ZeroCoef>
-5.4800

> <Gold.Chemscore.Hbond>
1.6689

> <Gold.Chemscore.Metal>
0.0000

> <Gold.Chemscore.Lipo>
65.9238

> <Gold.Chemscore.Internal_Hbond>
0.0000

> <Gold.Chemscore.DEClash>
0.0551

> <Gold.Chemscore.DEInternal>
0.8362

> <Gold.Chemscore.Rot>
2.1474

> <Gold.Chemscore.Internal.Correction>
   9.000000E+99

> <Gold.Chemscore.Hbonds>
donor molecule, donor type, donor heavy atom, donor atom, acceptor molecule, acceptor atom, score
      L1  H    12    31       P1  7957  0.13
      P1  H  7989  7998       L1    12  0.21
      P1  H  7997  8009       L1     4  0.45

> <Gold.Chemscore.Hbond.Weighted>
-5.5742

> <Gold.Chemscore.Metal.Weighted>
-0.0000

> <Gold.Chemscore.Lipo.Weighted>
-7.7131

> <Gold.Chemscore.Internal_Hbond.Weighted>
0.0000

> <Gold.Chemscore.DEClash.Weighted>
0.0551

> <Gold.Chemscore.DEInternal.Weighted>
0.8362

> <Gold.Chemscore.Rot.Weighted>
5.4974

> <Gold.Chemscore.Internal.Correction.Weighted>
   9.000000E+99

> <Gold.Protein.RotatedTorsions>
[ 6907 6896 6895 6894 ] final  171.07 input  -60.11 | X-H torsion
[ 7974 7965 7964 7962 ] final   57.30 input  175.53 | X-H torsion
[ 8008 7997 7996 7995 ] final  145.00 input   59.86 | X-H torsion
[ 10167 10162 10161 10158 ] final   99.71 input  -65.29 | X-H torsion
[ 10718 10713 10712 10709 ] final   -6.63 input   66.30 | X-H torsion
[ 10763 10752 10751 10750 ] final   48.79 input  -60.55 | X-H torsion
[ 11005 11000 10999 10996 ] final  -36.63 input  -57.11 | X-H torsion

> <Gold.Protein.ActiveResidues>
 VAL166  LYS551  ARG553  GLY616  TRP617  ASP618  TYR619  PRO620  LYS621  CYS622 
 ASP623  PHE694  ASN695  SER759  ASP760  ASP761  ALA762  ILE779  LEU786  VAL792 
 PHE793  MET794  SER795  GLU796  ALA797  LYS798  CYS799  TRP800  GLU811  SER814 

> <Gold.Protein.RotatedAtoms>
  151.8060  133.3376  159.3540 H   0  0  0  0  0  0  0  0  0  0  0  0  # atno 6907 bound_to 6896
  150.7342  134.5708  159.5899 H   0  0  0  0  0  0  0  0  0  0  0  0  # atno 6908 bound_to 6896
  152.3109  134.7500  160.0388 H   0  0  0  0  0  0  0  0  0  0  0  0  # atno 6909 bound_to 6896
  145.9306  139.3804  143.0423 H   0  0  0  0  0  0  0  0  0  0  0  0  # atno 7974 bound_to 7965
  156.2894  140.2221  156.5144 H   0  0  0  0  0  0  0  0  0  0  0  0  # atno 8008 bound_to 7997
  154.7581  140.0475  157.0972 H   0  0  0  0  0  0  0  0  0  0  0  0  # atno 8009 bound_to 7997
  155.0025  140.3103  155.4865 H   0  0  0  0  0  0  0  0  0  0  0  0  # atno 8010 bound_to 7997
  139.7593  144.6959  151.0316 H   0  0  0  0  0  0  0  0  0  0  0  0  # atno 10167 bound_to 10162
  156.7290  130.5174  149.5850 H   0  0  0  0  0  0  0  0  0  0  0  0  # atno 10718 bound_to 10713
  152.9790  135.5933  154.3983 H   0  0  0  0  0  0  0  0  0  0  0  0  # atno 10763 bound_to 10752
  154.3631  135.2767  155.2310 H   0  0  0  0  0  0  0  0  0  0  0  0  # atno 10764 bound_to 10752
  154.4299  135.6039  153.6117 H   0  0  0  0  0  0  0  0  0  0  0  0  # atno 10765 bound_to 10752
  140.9890  133.7015  156.1816 H   0  0  0  0  0  0  0  0  0  0  0  0  # atno 11005 bound_to 11000
  145.8431  140.9570  143.0788 LP  0  0  0  0  0  0  0  0  0  0  0  0  # atno 17320 bound_to 7965
  144.6764  140.0310  143.7482 LP  0  0  0  0  0  0  0  0  0  0  0  0  # atno 17321 bound_to 7965
  140.7805  143.4716  151.0138 LP  0  0  0  0  0  0  0  0  0  0  0  0  # atno 17342 bound_to 10162
  139.8402  143.7573  152.3180 LP  0  0  0  0  0  0  0  0  0  0  0  0  # atno 17343 bound_to 10162
  156.1542  130.6330  151.0635 LP  0  0  0  0  0  0  0  0  0  0  0  0  # atno 17370 bound_to 10713
  157.6867  131.0823  150.7224 LP  0  0  0  0  0  0  0  0  0  0  0  0  # atno 17371 bound_to 10713
  140.7070  134.4503  157.5583 LP  0  0  0  0  0  0  0  0  0  0  0  0  # atno 17394 bound_to 11000
  139.8983  134.8616  156.2006 LP  0  0  0  0  0  0  0  0  0  0  0  0  # atno 17395 bound_to 11000

$$$$
