AV-unprocessed.smi:1762|AV-procd|sdf|7103|dock7
  -GOLD-   22720 8323D 1   1.00000     0.00000
 Structure written by MMmdl.
 52 53  0  0  0  0  0  0  0  0  1 V2000
  152.0437  139.2536  156.6228 C   0  0  0  0  0  0  0  0  0  0  0  0
  151.7108  139.1572  155.1233 C   0  0  1  0  0  0  0  0  0  0  0  0
  151.0800  137.8088  154.7218 C   0  0  0  0  0  0  0  0  0  0  0  0
  149.6871  137.6608  155.1622 N   0  0  0  0  0  0  0  0  0  0  0  0
  149.0963  136.3430  154.7943 C   0  0  2  0  0  0  0  0  0  0  0  0
  147.5578  136.3877  154.6305 C   0  0  0  0  0  0  0  0  0  0  0  0
  146.8375  136.6800  155.5857 O   0  0  0  0  0  0  0  0  0  0  0  0
  147.0737  136.1187  153.4075 N   0  0  0  0  0  0  0  0  0  0  0  0
  145.6607  136.1404  153.0429 C   0  0  0  0  0  0  0  0  0  0  0  0
  145.4351  136.2361  151.5209 C   0  0  0  0  0  0  0  0  0  0  0  0
  145.2025  134.8904  150.8534 C   0  0  0  0  0  0  0  0  0  0  0  0
  146.2341  133.9287  150.8031 C   0  0  0  0  0  0  0  0  0  0  0  0
  145.9787  132.7030  150.1580 C   0  0  0  0  0  0  0  0  0  0  0  0
  144.7085  132.4868  149.5897 C   0  0  0  0  0  0  0  0  0  0  0  0
  143.7463  133.5106  149.6922 C   0  0  0  0  0  0  0  0  0  0  0  0
  143.9816  134.6888  150.3082 N   0  0  0  0  0  0  0  0  0  0  0  0
  149.5184  135.1501  155.7171 C   0  0  0  0  0  0  0  0  0  0  0  0
  149.0261  135.2906  157.1719 C   0  0  0  0  0  0  0  0  0  0  0  0
  151.0292  134.8453  155.6887 C   0  0  0  0  0  0  0  0  0  0  0  0
  148.9223  138.8223  154.6804 C   0  0  0  0  0  0  0  0  0  0  0  0
  149.5329  140.1658  155.1174 C   0  0  2  0  0  0  0  0  0  0  0  0
  148.7853  141.3618  154.5171 C   0  0  0  0  0  0  0  0  0  0  0  0
  150.8892  140.2387  154.6906 O   0  0  0  0  0  0  0  0  0  0  0  0
  152.7700  138.4926  156.9088 H   0  0  0  0  0  0  0  0  0  0  0  0
  151.1635  139.1117  157.2495 H   0  0  0  0  0  0  0  0  0  0  0  0
  152.4736  140.2259  156.8638 H   0  0  0  0  0  0  0  0  0  0  0  0
  152.6529  139.2586  154.5840 H   0  0  0  0  0  0  0  0  0  0  0  0
  151.1315  137.7028  153.6370 H   0  0  0  0  0  0  0  0  0  0  0  0
  151.7107  137.0261  155.1380 H   0  0  0  0  0  0  0  0  0  0  0  0
  149.4853  136.0972  153.8038 H   0  0  0  0  0  0  0  0  0  0  0  0
  147.7323  135.8978  152.6748 H   0  0  0  0  0  0  0  0  0  0  0  0
  145.2050  135.2249  153.4210 H   0  0  0  0  0  0  0  0  0  0  0  0
  145.1557  136.9640  153.5499 H   0  0  0  0  0  0  0  0  0  0  0  0
  144.5782  136.8799  151.3202 H   0  0  0  0  0  0  0  0  0  0  0  0
  146.2908  136.7234  151.0508 H   0  0  0  0  0  0  0  0  0  0  0  0
  147.1999  134.1258  151.2445 H   0  0  0  0  0  0  0  0  0  0  0  0
  146.7439  131.9433  150.0985 H   0  0  0  0  0  0  0  0  0  0  0  0
  144.4773  131.5592  149.0873 H   0  0  0  0  0  0  0  0  0  0  0  0
  142.7622  133.3814  149.2668 H   0  0  0  0  0  0  0  0  0  0  0  0
  149.0090  134.2576  155.3580 H   0  0  0  0  0  0  0  0  0  0  0  0
  149.5382  136.0924  157.7045 H   0  0  0  0  0  0  0  0  0  0  0  0
  149.2003  134.3707  157.7308 H   0  0  0  0  0  0  0  0  0  0  0  0
  147.9556  135.4941  157.2071 H   0  0  0  0  0  0  0  0  0  0  0  0
  151.6156  135.6509  156.1296 H   0  0  0  0  0  0  0  0  0  0  0  0
  151.3881  134.6900  154.6711 H   0  0  0  0  0  0  0  0  0  0  0  0
  151.2519  133.9377  156.2503 H   0  0  0  0  0  0  0  0  0  0  0  0
  148.8530  138.7883  153.5917 H   0  0  0  0  0  0  0  0  0  0  0  0
  147.9015  138.8119  155.0601 H   0  0  0  0  0  0  0  0  0  0  0  0
  149.4877  140.2475  156.2036 H   0  0  0  0  0  0  0  0  0  0  0  0
  147.7342  141.3534  154.8067 H   0  0  0  0  0  0  0  0  0  0  0  0
  148.8328  141.3505  153.4280 H   0  0  0  0  0  0  0  0  0  0  0  0
  149.2172  142.3027  154.8587 H   0  0  0  0  0  0  0  0  0  0  0  0
  1  2  1  0  0  0  0
  1 24  1  0  0  0  0
  1 25  1  0  0  0  0
  1 26  1  0  0  0  0
  2 23  1  0  0  0  0
  2  3  1  0  0  0  0
  2 27  1  0  0  0  0
  3  4  1  0  0  0  0
  3 28  1  0  0  0  0
  3 29  1  0  0  0  0
  4  5  1  0  0  0  0
  4 20  1  0  0  0  0
  5  6  1  0  0  0  0
  5 17  1  0  0  0  0
  5 30  1  0  0  0  0
  6  7  2  0  0  0  0
  6  8  1  0  0  0  0
  8  9  1  0  0  0  0
  8 31  1  0  0  0  0
  9 10  1  0  0  0  0
  9 32  1  0  0  0  0
  9 33  1  0  0  0  0
 10 11  1  0  0  0  0
 10 34  1  0  0  0  0
 10 35  1  0  0  0  0
 11 16  1  0  0  0  0
 11 12  2  0  0  0  0
 12 13  1  0  0  0  0
 12 36  1  0  0  0  0
 13 14  2  0  0  0  0
 13 37  1  0  0  0  0
 14 15  1  0  0  0  0
 14 38  1  0  0  0  0
 15 16  2  0  0  0  0
 15 39  1  0  0  0  0
 17 18  1  0  0  0  0
 17 19  1  0  0  0  0
 17 40  1  0  0  0  0
 18 41  1  0  0  0  0
 18 42  1  0  0  0  0
 18 43  1  0  0  0  0
 19 44  1  0  0  0  0
 19 45  1  0  0  0  0
 19 46  1  0  0  0  0
 20 21  1  0  0  0  0
 20 47  1  0  0  0  0
 20 48  1  0  0  0  0
 21 22  1  0  0  0  0
 21 23  1  0  0  0  0
 21 49  1  0  0  0  0
 22 50  1  0  0  0  0
 22 51  1  0  0  0  0
 22 52  1  0  0  0  0
M  END
> <s_m_source_file>
AV-unprocessed.smi

> <i_m_source_file_index>
1762

> <i_lp_mmshare_version>
43012

> <i_f3d_flags>
0

> <s_epik_input>
W0NIM11bQ0BASF0xW0NIMl1OKFtDSDJdW0NASF0oTzEpW0NIM10pW0NAQEhdKFtDSF0oW0NIM10pW0NIM10pQyg9TylbTkhdW0NIMl1bQ0gyXWMyW2NIXVtjSF1bY0hdW2NIXW4y

> <s_epik_cmdline>
J2VwaWtfcHl0aG9uJywgJy1waCcsICc3LjAnLCAnLXRuJywgJzgnLCAnLW1hJywgJzIwMCcsICctbWV0YWxfYmluZGluZycsICctaW1hZScsICc8aW5maWxlLm1hZT4nLCAnLW9tYWUnLCAnPG91dGZpbGUubWFlPic=

> <r_epik_Ionization_Penalty>
0.0399736

> <r_epik_Ionization_Penalty_Charging>
0

> <r_epik_Ionization_Penalty_Neutral>
0.0399736

> <r_epik_State_Penalty>
0.0317634

> <r_epik_Charging_Adjusted_Penalty>
0.0317634

> <i_epik_Tot_Q>
0

> <i_epik_Tot_abs_Q>
0

> <r_epik_Metal_State_Penalty>
0.0307795

> <b_epik_Metal_Only>
0

> <s_lp_Force_Field>
OPLS_2005

> <r_lp_Energy>
29.7417

> <b_lp_Chiralities_Consistent>
1

> <s_lp_Variant>
AV-unprocessed.smi:1762-5

> <Gold.Version>
5.8.1

> <Gold.Id.Protein>
6NUR|6NUR_protein|mol2

> <Gold.PLP.Fitness>
43.0184

> <Gold.PLP.PLP>
-36.0595

> <Gold.PLP.part.hbond>
-1.7166

> <Gold.PLP.part.metal>
0.0000

> <Gold.PLP.part.buried>
-3.8678

> <Gold.PLP.part.nonpolar>
-31.3517

> <Gold.PLP.part.repulsive>
0.4270

> <Gold.PLP.ligand.clash>
0.0000

> <Gold.PLP.ligand.torsion>
1.0903

> <Gold.PLP.Chemscore.Hbond>
1.9600

> <Gold.PLP.Chemscore.CHOScore>
0.9925

> <Gold.PLP.Chemscore.Metal>
0.0000

> <Gold.Chemscore.Hbonds>
donor molecule, donor type, donor heavy atom, donor atom, acceptor molecule, acceptor atom, score
      L1  H     8    31       P1  7948  0.91
      P1  H  7989  7998       L1    23  1.00
      L1  C    15    39       P1 10186  1.00

> <Gold.PLP.Chemscore.Internal.Correction>
0.2821

> <Gold.Rescore>
     Score         DG    S(hbond)    S(metal)    S(lipo)     H(rot)  DE(clash)    DE(int)     intcor
     18.24     -19.34       1.86        0.00     100.29       1.60       0.04       1.06       ----

> <Gold.Chemscore.Fitness>
18.2450

> <Gold.Chemscore.DG>
-19.3430

> <Gold.Chemscore.ZeroCoef>
-5.4800

> <Gold.Chemscore.Hbond>
1.8634

> <Gold.Chemscore.Metal>
0.0000

> <Gold.Chemscore.Lipo>
100.2854

> <Gold.Chemscore.Internal_Hbond>
0.0000

> <Gold.Chemscore.DEClash>
0.0367

> <Gold.Chemscore.DEInternal>
1.0613

> <Gold.Chemscore.Rot>
1.5993

> <Gold.Chemscore.Internal.Correction>
   9.000000E+99

> <Gold.Chemscore.Hbonds>
donor molecule, donor type, donor heavy atom, donor atom, acceptor molecule, acceptor atom, score
      L1  H     8    31       P1  7948  0.84
      P1  H  7989  7998       L1    23  0.52

> <Gold.Chemscore.Hbond.Weighted>
-6.2237

> <Gold.Chemscore.Metal.Weighted>
-0.0000

> <Gold.Chemscore.Lipo.Weighted>
-11.7334

> <Gold.Chemscore.Internal_Hbond.Weighted>
0.0000

> <Gold.Chemscore.DEClash.Weighted>
0.0367

> <Gold.Chemscore.DEInternal.Weighted>
1.0613

> <Gold.Chemscore.Rot.Weighted>
4.0941

> <Gold.Chemscore.Internal.Correction.Weighted>
   9.000000E+99

> <Gold.Protein.RotatedTorsions>
[ 6907 6896 6895 6894 ] final  -88.98 input  -60.11 | X-H torsion
[ 7974 7965 7964 7962 ] final  -15.35 input  175.53 | X-H torsion
[ 8008 7997 7996 7995 ] final   37.03 input   59.86 | X-H torsion
[ 10167 10162 10161 10158 ] final  123.43 input  -65.29 | X-H torsion
[ 10718 10713 10712 10709 ] final   -1.30 input   66.30 | X-H torsion
[ 10763 10752 10751 10750 ] final    0.67 input  -60.55 | X-H torsion
[ 11005 11000 10999 10996 ] final  115.14 input  -57.11 | X-H torsion

> <Gold.Protein.ActiveResidues>
 VAL166  LYS551  ARG553  GLY616  TRP617  ASP618  TYR619  PRO620  LYS621  CYS622 
 ASP623  PHE694  ASN695  SER759  ASP760  ASP761  ALA762  ILE779  LEU786  VAL792 
 PHE793  MET794  SER795  GLU796  ALA797  LYS798  CYS799  TRP800  GLU811  SER814 

> <Gold.Protein.RotatedAtoms>
  150.6871  134.2658  159.4567 H   0  0  0  0  0  0  0  0  0  0  0  0  # atno 6907 bound_to 6896
  152.0584  134.9607  160.0584 H   0  0  0  0  0  0  0  0  0  0  0  0  # atno 6908 bound_to 6896
  152.1044  133.4232  159.4639 H   0  0  0  0  0  0  0  0  0  0  0  0  # atno 6909 bound_to 6896
  146.2035  140.3480  142.8415 H   0  0  0  0  0  0  0  0  0  0  0  0  # atno 7974 bound_to 7965
  155.1970  140.3312  155.4349 H   0  0  0  0  0  0  0  0  0  0  0  0  # atno 8008 bound_to 7997
  156.2421  140.1900  156.7009 H   0  0  0  0  0  0  0  0  0  0  0  0  # atno 8009 bound_to 7997
  154.6167  140.0601  156.9549 H   0  0  0  0  0  0  0  0  0  0  0  0  # atno 8010 bound_to 7997
  139.5800  144.6982  151.3553 H   0  0  0  0  0  0  0  0  0  0  0  0  # atno 10167 bound_to 10162
  156.8077  130.5414  149.5713 H   0  0  0  0  0  0  0  0  0  0  0  0  # atno 10718 bound_to 10713
  153.3178  135.6967  153.7058 H   0  0  0  0  0  0  0  0  0  0  0  0  # atno 10763 bound_to 10752
  153.5910  135.3480  155.2911 H   0  0  0  0  0  0  0  0  0  0  0  0  # atno 10764 bound_to 10752
  154.8590  135.4318  154.2334 H   0  0  0  0  0  0  0  0  0  0  0  0  # atno 10765 bound_to 10752
  139.9001  134.9579  156.6999 H   0  0  0  0  0  0  0  0  0  0  0  0  # atno 11005 bound_to 11000
  144.8739  140.7309  143.6029 LP  0  0  0  0  0  0  0  0  0  0  0  0  # atno 17320 bound_to 7965
  145.3400  139.1735  143.4491 LP  0  0  0  0  0  0  0  0  0  0  0  0  # atno 17321 bound_to 7965
  140.7079  143.7466  150.7514 LP  0  0  0  0  0  0  0  0  0  0  0  0  # atno 17342 bound_to 10162
  140.0996  143.4800  152.2433 LP  0  0  0  0  0  0  0  0  0  0  0  0  # atno 17343 bound_to 10162
  156.1063  130.6007  150.9976 LP  0  0  0  0  0  0  0  0  0  0  0  0  # atno 17370 bound_to 10713
  157.6522  131.0895  150.8026 LP  0  0  0  0  0  0  0  0  0  0  0  0  # atno 17371 bound_to 10713
  140.7158  133.9183  155.8114 LP  0  0  0  0  0  0  0  0  0  0  0  0  # atno 17394 bound_to 11000
  141.0265  134.0816  157.4062 LP  0  0  0  0  0  0  0  0  0  0  0  0  # atno 17395 bound_to 11000

$$$$
