AV-unprocessed.smi:3111|AV-procd|sdf|11835|dock6
  -GOLD-   2272017213D 1   1.00000     0.00000
 Structure written by MMmdl.
 30 30  0  0  0  0  0  0  0  0  2 V2000
  151.4599  139.3110  155.2833 C   0  0  0  0  0  0  0  0  0  0  0  0
  151.6543  139.0984  156.7094 N   0  0  0  0  0  0  0  0  0  0  0  0
  152.2472  138.0188  157.2376 C   0  0  0  0  0  0  0  0  0  0  0  0
  152.6966  137.0962  156.5546 O   0  0  0  0  0  0  0  0  0  0  0  0
  152.3537  137.9937  158.7687 C   0  0  0  0  0  0  0  0  0  0  0  0
  152.1395  139.3052  159.3754 N   0  0  0  0  0  0  0  0  0  0  0  0
  152.9784  140.3492  159.2777 C   0  0  0  0  0  0  0  0  0  0  0  0
  154.0656  140.2886  158.7023 O   0  0  0  0  0  0  0  0  0  0  0  0
  152.4952  141.6674  159.9018 C   0  0  1  0  0  0  0  0  0  0  0  0
  153.5144  142.2784  160.8825 C   0  0  0  0  0  0  0  0  0  0  0  0
  152.1133  142.6238  158.8490 N   0  0  0  0  0  0  0  0  0  0  0  0
  152.7785  143.7718  158.4987 C   0  0  0  0  0  0  0  0  0  0  0  0
  152.0575  144.3518  157.4869 C   0  0  0  0  0  0  0  0  0  0  0  0
  150.9818  143.5364  157.2603 N   0  3  0  0  0  0  0  0  0  0  0  0
  151.0165  142.4872  158.0877 C   0  0  0  0  0  0  0  0  0  0  0  0
  150.9614  140.2655  155.1142 H   0  0  0  0  0  0  0  0  0  0  0  0
  150.8412  138.5221  154.8537 H   0  0  0  0  0  0  0  0  0  0  0  0
  152.4161  139.3287  154.7588 H   0  0  0  0  0  0  0  0  0  0  0  0
  151.3154  139.8160  157.3339 H   0  0  0  0  0  0  0  0  0  0  0  0
  151.5994  137.3098  159.1585 H   0  0  0  0  0  0  0  0  0  0  0  0
  153.3247  137.5936  159.0664 H   0  0  0  0  0  0  0  0  0  0  0  0
  151.2664  139.4404  159.8641 H   0  0  0  0  0  0  0  0  0  0  0  0
  151.5889  141.4465  160.4686 H   0  0  0  0  0  0  0  0  0  0  0  0
  153.7670  141.5745  161.6764 H   0  0  0  0  0  0  0  0  0  0  0  0
  153.1081  143.1721  161.3571 H   0  0  0  0  0  0  0  0  0  0  0  0
  154.4423  142.5628  160.3848 H   0  0  0  0  0  0  0  0  0  0  0  0
  153.6915  144.0854  158.9838 H   0  0  0  0  0  0  0  0  0  0  0  0
  152.2240  145.2606  156.9270 H   0  0  0  0  0  0  0  0  0  0  0  0
  150.2962  141.6898  158.1365 H   0  0  0  0  0  0  0  0  0  0  0  0
  150.2604  143.7025  156.5697 H   0  0  0  0  0  0  0  0  0  0  0  0
  1  2  1  0  0  0  0
  1 16  1  0  0  0  0
  1 17  1  0  0  0  0
  1 18  1  0  0  0  0
  2  3  1  0  0  0  0
  2 19  1  0  0  0  0
  3  4  2  0  0  0  0
  3  5  1  0  0  0  0
  5  6  1  0  0  0  0
  5 20  1  0  0  0  0
  5 21  1  0  0  0  0
  6  7  1  0  0  0  0
  6 22  1  0  0  0  0
  7  8  2  0  0  0  0
  7  9  1  0  0  0  0
  9 10  1  0  0  0  0
  9 11  1  0  0  0  0
  9 23  1  0  0  0  0
 10 24  1  0  0  0  0
 10 25  1  0  0  0  0
 10 26  1  0  0  0  0
 11 15  1  0  0  0  0
 11 12  1  0  0  0  0
 12 13  2  0  0  0  0
 12 27  1  0  0  0  0
 13 14  1  0  0  0  0
 13 28  1  0  0  0  0
 14 15  2  0  0  0  0
 14 30  1  0  0  0  0
 15 29  1  0  0  0  0
M  CHG  1  14   1
M  END
> <s_m_source_file>
AV-unprocessed.smi

> <i_m_source_file_index>
3111

> <i_lp_mmshare_version>
43012

> <i_f3d_flags>
0

> <s_epik_input>
W0NIM11bTkhdQyg9TylbQ0gyXVtOSF1DKD1PKVtDQEhdKFtDSDNdKW4xW2NIXVtjSF1uW2NIXTE=

> <s_epik_cmdline>
J2VwaWtfcHl0aG9uJywgJy1waCcsICc3LjAnLCAnLXRuJywgJzgnLCAnLW1hJywgJzIwMCcsICctbWV0YWxfYmluZGluZycsICctaW1hZScsICc8aW5maWxlLm1hZT4nLCAnLW9tYWUnLCAnPG91dGZpbGUubWFlPic=

> <r_lp_tautomer_probability>
1

> <r_epik_Ionization_Penalty>
0.581414

> <r_epik_Ionization_Penalty_Charging>
0

> <r_epik_Ionization_Penalty_Neutral>
0.581414

> <r_epik_State_Penalty>
0.594207

> <r_epik_Charging_Adjusted_Penalty>
0.594207

> <i_epik_Tot_Q>
1

> <i_epik_Tot_abs_Q>
1

> <r_epik_Metal_State_Penalty>
0.784638

> <b_epik_Metal_Only>
0

> <s_lp_Force_Field>
OPLS_2005

> <r_lp_Energy>
5.66591

> <b_lp_Chiralities_Consistent>
1

> <s_lp_Variant>
AV-unprocessed.smi:3111-4

> <Gold.Version>
5.8.1

> <Gold.Id.Protein>
6NUR|6NUR_protein|mol2

> <Gold.PLP.Fitness>
37.6234

> <Gold.PLP.PLP>
-29.6650

> <Gold.PLP.part.hbond>
-3.0000

> <Gold.PLP.part.metal>
0.0000

> <Gold.PLP.part.buried>
-1.8027

> <Gold.PLP.part.nonpolar>
-25.2736

> <Gold.PLP.part.repulsive>
0.2160

> <Gold.PLP.ligand.clash>
0.0000

> <Gold.PLP.ligand.torsion>
0.7821

> <Gold.PLP.Chemscore.Hbond>
3.1420

> <Gold.PLP.Chemscore.CHOScore>
0.0000

> <Gold.PLP.Chemscore.Metal>
0.0000

> <Gold.Chemscore.Hbonds>
donor molecule, donor type, donor heavy atom, donor atom, acceptor molecule, acceptor atom, score
      L1  H    14    30       P1  8028  2.00
      P1  H  7997  8009       L1     8  0.78
      P1  H 10752 10765       L1     4  0.12

> <Gold.PLP.Chemscore.Internal.Correction>
0.0965

> <Gold.Rescore>
     Score         DG    S(hbond)    S(metal)    S(lipo)     H(rot)  DE(clash)    DE(int)     intcor
     13.07     -14.19       2.35        0.00      58.45       2.33       0.02       1.10       ----

> <Gold.Chemscore.Fitness>
13.0723

> <Gold.Chemscore.DG>
-14.1896

> <Gold.Chemscore.ZeroCoef>
-5.4800

> <Gold.Chemscore.Hbond>
2.3467

> <Gold.Chemscore.Metal>
0.0000

> <Gold.Chemscore.Lipo>
58.4543

> <Gold.Chemscore.Internal_Hbond>
0.0000

> <Gold.Chemscore.DEClash>
0.0204

> <Gold.Chemscore.DEInternal>
1.0969

> <Gold.Chemscore.Rot>
2.3311

> <Gold.Chemscore.Internal.Correction>
   9.000000E+99

> <Gold.Chemscore.Hbonds>
donor molecule, donor type, donor heavy atom, donor atom, acceptor molecule, acceptor atom, score
      L1  H    14    30       P1  8028  0.98
      P1  H  7997  8009       L1     8  0.78
      P1  H 10752 10765       L1     4  0.13

> <Gold.Chemscore.Hbond.Weighted>
-7.8380

> <Gold.Chemscore.Metal.Weighted>
-0.0000

> <Gold.Chemscore.Lipo.Weighted>
-6.8392

> <Gold.Chemscore.Internal_Hbond.Weighted>
0.0000

> <Gold.Chemscore.DEClash.Weighted>
0.0204

> <Gold.Chemscore.DEInternal.Weighted>
1.0969

> <Gold.Chemscore.Rot.Weighted>
5.9676

> <Gold.Chemscore.Internal.Correction.Weighted>
   9.000000E+99

> <Gold.Protein.RotatedTorsions>
[ 6907 6896 6895 6894 ] final   61.72 input  -60.11 | X-H torsion
[ 7974 7965 7964 7962 ] final -128.91 input  175.53 | X-H torsion
[ 8008 7997 7996 7995 ] final  123.75 input   59.86 | X-H torsion
[ 10167 10162 10161 10158 ] final  159.64 input  -65.29 | X-H torsion
[ 10718 10713 10712 10709 ] final  154.62 input   66.30 | X-H torsion
[ 10763 10752 10751 10750 ] final -106.17 input  -60.55 | X-H torsion
[ 11005 11000 10999 10996 ] final  151.69 input  -57.11 | X-H torsion

> <Gold.Protein.ActiveResidues>
 VAL166  LYS551  ARG553  GLY616  TRP617  ASP618  TYR619  PRO620  LYS621  CYS622 
 ASP623  PHE694  ASN695  SER759  ASP760  ASP761  ALA762  ILE779  LEU786  VAL792 
 PHE793  MET794  SER795  GLU796  ALA797  LYS798  CYS799  TRP800  GLU811  SER814 

> <Gold.Protein.RotatedAtoms>
  152.4112  134.6120  160.0028 H   0  0  0  0  0  0  0  0  0  0  0  0  # atno 6907 bound_to 6896
  151.6297  133.3327  159.3114 H   0  0  0  0  0  0  0  0  0  0  0  0  # atno 6908 bound_to 6896
  150.8003  134.7132  159.6661 H   0  0  0  0  0  0  0  0  0  0  0  0  # atno 6909 bound_to 6896
  144.9624  140.7460  143.4721 H   0  0  0  0  0  0  0  0  0  0  0  0  # atno 7974 bound_to 7965
  156.2777  140.2755  156.1677 H   0  0  0  0  0  0  0  0  0  0  0  0  # atno 8008 bound_to 7997
  155.0687  140.0387  157.2619 H   0  0  0  0  0  0  0  0  0  0  0  0  # atno 8009 bound_to 7997
  154.7058  140.2658  155.6682 H   0  0  0  0  0  0  0  0  0  0  0  0  # atno 8010 bound_to 7997
  139.4834  144.4710  151.8575 H   0  0  0  0  0  0  0  0  0  0  0  0  # atno 10167 bound_to 10162
  157.2292  131.0735  151.1864 H   0  0  0  0  0  0  0  0  0  0  0  0  # atno 10718 bound_to 10713
  154.7995  135.4722  154.0240 H   0  0  0  0  0  0  0  0  0  0  0  0  # atno 10763 bound_to 10752
  153.1757  135.6832  153.8553 H   0  0  0  0  0  0  0  0  0  0  0  0  # atno 10764 bound_to 10752
  153.8121  135.3215  155.3379 H   0  0  0  0  0  0  0  0  0  0  0  0  # atno 10765 bound_to 10752
  140.1241  134.8844  157.2114 H   0  0  0  0  0  0  0  0  0  0  0  0  # atno 11005 bound_to 11000
  145.2680  139.1966  143.4856 LP  0  0  0  0  0  0  0  0  0  0  0  0  # atno 17320 bound_to 7965
  146.3357  140.2622  142.8602 LP  0  0  0  0  0  0  0  0  0  0  0  0  # atno 17321 bound_to 7965
  140.4179  144.2282  150.5887 LP  0  0  0  0  0  0  0  0  0  0  0  0  # atno 17342 bound_to 10162
  140.4902  143.2350  151.8829 LP  0  0  0  0  0  0  0  0  0  0  0  0  # atno 17343 bound_to 10162
  157.3496  130.7075  149.6432 LP  0  0  0  0  0  0  0  0  0  0  0  0  # atno 17370 bound_to 10713
  155.9676  130.4256  150.4662 LP  0  0  0  0  0  0  0  0  0  0  0  0  # atno 17371 bound_to 10713
  140.2926  134.3223  155.7311 LP  0  0  0  0  0  0  0  0  0  0  0  0  # atno 17394 bound_to 11000
  141.2158  133.7544  156.9525 LP  0  0  0  0  0  0  0  0  0  0  0  0  # atno 17395 bound_to 11000

$$$$
