AV-unprocessed.smi:2454|AV-procd|sdf|9696|dock4
  -GOLD-   2272013333D 1   1.00000     0.00000
 Structure written by MMmdl.
 42 43  0  0  0  0  0  0  0  0  1 V2000
  146.8367  133.6146  152.8356 C   0  0  0  0  0  0  0  0  0  0  0  0
  147.6381  133.8116  153.9871 O   0  0  0  0  0  0  0  0  0  0  0  0
  148.9980  133.4771  153.7668 C   0  0  0  0  0  0  0  0  0  0  0  0
  149.8667  133.9069  154.9307 C   0  0  0  0  0  0  0  0  0  0  0  0
  149.9627  135.2621  155.3112 C   0  0  0  0  0  0  0  0  0  0  0  0
  150.8046  135.5728  156.4030 C   0  0  0  0  0  0  0  0  0  0  0  0
  150.8629  136.9552  156.7481 N   0  0  0  0  0  0  0  0  0  0  0  0
  151.3326  137.5842  157.8468 C   0  0  0  0  0  0  0  0  0  0  0  0
  151.8175  136.9465  158.7801 O   0  0  0  0  0  0  0  0  0  0  0  0
  151.2335  138.9238  157.8505 N   0  0  0  0  0  0  0  0  0  0  0  0
  151.6615  139.8220  158.9186 C   0  0  1  0  0  0  0  0  0  0  0  0
  153.1787  139.6822  159.1351 C   0  0  0  0  0  0  0  0  0  0  0  0
  153.6848  140.6781  160.1889 C   0  0  0  0  0  0  0  0  0  0  0  0
  153.3095  142.1215  159.8182 C   0  0  0  0  0  0  0  0  0  0  0  0
  151.7879  142.2792  159.6117 C   0  0  1  0  0  0  0  0  0  0  0  0
  151.3993  143.7291  159.2555 C   0  0  0  0  0  0  0  0  0  0  0  0
  150.0740  143.8682  159.2110 F   0  0  0  0  0  0  0  0  0  0  0  0
  151.8909  144.5707  160.1650 F   0  0  0  0  0  0  0  0  0  0  0  0
  151.9068  144.0591  158.0678 F   0  0  0  0  0  0  0  0  0  0  0  0
  151.2886  141.2713  158.5543 C   0  0  0  0  0  0  0  0  0  0  0  0
  151.4781  134.5776  157.0353 N   0  0  0  0  0  0  0  0  0  0  0  0
  151.3173  133.3282  156.5930 C   0  0  0  0  0  0  0  0  0  0  0  0
  150.5491  132.9374  155.5760 N   0  0  0  0  0  0  0  0  0  0  0  0
  145.8058  133.8927  153.0545 H   0  0  0  0  0  0  0  0  0  0  0  0
  146.8440  132.5694  152.5242 H   0  0  0  0  0  0  0  0  0  0  0  0
  147.1819  134.2306  152.0042 H   0  0  0  0  0  0  0  0  0  0  0  0
  149.0985  132.3995  153.6274 H   0  0  0  0  0  0  0  0  0  0  0  0
  149.3572  133.9525  152.8521 H   0  0  0  0  0  0  0  0  0  0  0  0
  149.4144  136.0287  154.7829 H   0  0  0  0  0  0  0  0  0  0  0  0
  150.4821  137.5737  156.0470 H   0  0  0  0  0  0  0  0  0  0  0  0
  150.8212  139.3579  157.0365 H   0  0  0  0  0  0  0  0  0  0  0  0
  151.1594  139.5677  159.8538 H   0  0  0  0  0  0  0  0  0  0  0  0
  153.4211  138.6644  159.4438 H   0  0  0  0  0  0  0  0  0  0  0  0
  153.7048  139.8535  158.1947 H   0  0  0  0  0  0  0  0  0  0  0  0
  153.2599  140.4280  161.1620 H   0  0  0  0  0  0  0  0  0  0  0  0
  154.7666  140.5902  160.2924 H   0  0  0  0  0  0  0  0  0  0  0  0
  153.6543  142.7962  160.6021 H   0  0  0  0  0  0  0  0  0  0  0  0
  153.8379  142.4108  158.9090 H   0  0  0  0  0  0  0  0  0  0  0  0
  151.2991  142.0352  160.5563 H   0  0  0  0  0  0  0  0  0  0  0  0
  151.7108  141.5248  157.5806 H   0  0  0  0  0  0  0  0  0  0  0  0
  150.2059  141.3509  158.4490 H   0  0  0  0  0  0  0  0  0  0  0  0
  151.8647  132.5560  157.1128 H   0  0  0  0  0  0  0  0  0  0  0  0
  1  2  1  0  0  0  0
  1 24  1  0  0  0  0
  1 25  1  0  0  0  0
  1 26  1  0  0  0  0
  2  3  1  0  0  0  0
  3  4  1  0  0  0  0
  3 27  1  0  0  0  0
  3 28  1  0  0  0  0
  4 23  1  0  0  0  0
  4  5  2  0  0  0  0
  5  6  1  0  0  0  0
  5 29  1  0  0  0  0
  6  7  1  0  0  0  0
  6 21  2  0  0  0  0
  7  8  1  0  0  0  0
  7 30  1  0  0  0  0
  8  9  2  0  0  0  0
  8 10  1  0  0  0  0
 10 11  1  0  0  0  0
 10 31  1  0  0  0  0
 11 20  1  0  0  0  0
 11 12  1  0  0  0  0
 11 32  1  0  0  0  0
 12 13  1  0  0  0  0
 12 33  1  0  0  0  0
 12 34  1  0  0  0  0
 13 14  1  0  0  0  0
 13 35  1  0  0  0  0
 13 36  1  0  0  0  0
 14 15  1  0  0  0  0
 14 37  1  0  0  0  0
 14 38  1  0  0  0  0
 15 16  1  0  0  0  0
 15 20  1  0  0  0  0
 15 39  1  0  0  0  0
 16 17  1  0  0  0  0
 16 18  1  0  0  0  0
 16 19  1  0  0  0  0
 20 40  1  0  0  0  0
 20 41  1  0  0  0  0
 21 22  1  0  0  0  0
 22 23  2  0  0  0  0
 22 42  1  0  0  0  0
M  END
> <s_m_source_file>
AV-unprocessed.smi

> <i_m_source_file_index>
2454

> <i_lp_mmshare_version>
43012

> <i_f3d_flags>
0

> <s_epik_input>
W0NIM11PW0NIMl1jMVtjSF1jKG5bY0hdbjEpW05IXUMoPU8pW05IXVtDQEBIXTJbQ0gyXVtDSDJdW0NIMl1bQ0BASF0oQyhGKShGKUYpW0NIMl0y

> <s_epik_cmdline>
J2VwaWtfcHl0aG9uJywgJy1waCcsICc3LjAnLCAnLXRuJywgJzgnLCAnLW1hJywgJzIwMCcsICctbWV0YWxfYmluZGluZycsICctaW1hZScsICc8aW5maWxlLm1hZT4nLCAnLW9tYWUnLCAnPG91dGZpbGUubWFlPic=

> <r_lp_tautomer_probability>
1

> <r_epik_Ionization_Penalty>
3.01554e-05

> <r_epik_Ionization_Penalty_Charging>
0

> <r_epik_Ionization_Penalty_Neutral>
3.01554e-05

> <r_epik_State_Penalty>
-0

> <r_epik_Charging_Adjusted_Penalty>
0

> <i_epik_Tot_Q>
0

> <i_epik_Tot_abs_Q>
0

> <r_epik_Metal_State_Penalty>
-0

> <b_epik_Metal_Only>
0

> <s_lp_Force_Field>
OPLS_2005

> <r_lp_Energy>
13.6068

> <b_lp_Chiralities_Consistent>
1

> <s_lp_Variant>
AV-unprocessed.smi:2454-2

> <Gold.Version>
5.8.1

> <Gold.Id.Protein>
6NUR|6NUR_protein|mol2

> <Gold.PLP.Fitness>
44.6333

> <Gold.PLP.PLP>
-42.0713

> <Gold.PLP.part.hbond>
-2.0000

> <Gold.PLP.part.metal>
0.0000

> <Gold.PLP.part.buried>
-6.7845

> <Gold.PLP.part.nonpolar>
-35.1144

> <Gold.PLP.part.repulsive>
0.2531

> <Gold.PLP.ligand.clash>
0.0000

> <Gold.PLP.ligand.torsion>
0.1045

> <Gold.PLP.Chemscore.Hbond>
0.9100

> <Gold.PLP.Chemscore.CHOScore>
0.0000

> <Gold.PLP.Chemscore.Metal>
0.0000

> <Gold.Chemscore.Hbonds>
donor molecule, donor type, donor heavy atom, donor atom, acceptor molecule, acceptor atom, score
      P1  H  6896  6907       L1     9  0.56

> <Gold.PLP.Chemscore.Internal.Correction>
0.0413

> <Gold.Rescore>
     Score         DG    S(hbond)    S(metal)    S(lipo)     H(rot)  DE(clash)    DE(int)     intcor
     11.79     -13.18       0.87        0.00      76.03       1.60       0.02       1.37       ----

> <Gold.Chemscore.Fitness>
11.7938

> <Gold.Chemscore.DG>
-13.1837

> <Gold.Chemscore.ZeroCoef>
-5.4800

> <Gold.Chemscore.Hbond>
0.8721

> <Gold.Chemscore.Metal>
0.0000

> <Gold.Chemscore.Lipo>
76.0337

> <Gold.Chemscore.Internal_Hbond>
0.0000

> <Gold.Chemscore.DEClash>
0.0201

> <Gold.Chemscore.DEInternal>
1.3697

> <Gold.Chemscore.Rot>
1.6035

> <Gold.Chemscore.Internal.Correction>
   9.000000E+99

> <Gold.Chemscore.Hbonds>
donor molecule, donor type, donor heavy atom, donor atom, acceptor molecule, acceptor atom, score
      P1  H  6896  6907       L1     9  0.57

> <Gold.Chemscore.Hbond.Weighted>
-2.9128

> <Gold.Chemscore.Metal.Weighted>
-0.0000

> <Gold.Chemscore.Lipo.Weighted>
-8.8959

> <Gold.Chemscore.Internal_Hbond.Weighted>
0.0000

> <Gold.Chemscore.DEClash.Weighted>
0.0201

> <Gold.Chemscore.DEInternal.Weighted>
1.3697

> <Gold.Chemscore.Rot.Weighted>
4.1050

> <Gold.Chemscore.Internal.Correction.Weighted>
   9.000000E+99

> <Gold.Protein.RotatedTorsions>
[ 6907 6896 6895 6894 ] final  -11.94 input  -60.11 | X-H torsion
[ 7974 7965 7964 7962 ] final    6.45 input  175.53 | X-H torsion
[ 8008 7997 7996 7995 ] final  134.41 input   59.86 | X-H torsion
[ 10167 10162 10161 10158 ] final  -54.79 input  -65.29 | X-H torsion
[ 10718 10713 10712 10709 ] final  -36.67 input   66.30 | X-H torsion
[ 10763 10752 10751 10750 ] final -141.81 input  -60.55 | X-H torsion
[ 11005 11000 10999 10996 ] final  -31.10 input  -57.11 | X-H torsion

> <Gold.Protein.ActiveResidues>
 VAL166  LYS551  ARG553  GLY616  TRP617  ASP618  TYR619  PRO620  LYS621  CYS622 
 ASP623  PHE694  ASN695  SER759  ASP760  ASP761  ALA762  ILE779  LEU786  VAL792 
 PHE793  MET794  SER795  GLU796  ALA797  LYS798  CYS799  TRP800  GLU811  SER814 

> <Gold.Protein.RotatedAtoms>
  151.3783  135.0935  159.9487 H   0  0  0  0  0  0  0  0  0  0  0  0  # atno 6907 bound_to 6896
  152.5116  133.9097  159.7492 H   0  0  0  0  0  0  0  0  0  0  0  0  # atno 6908 bound_to 6896
  150.9525  133.6478  159.2798 H   0  0  0  0  0  0  0  0  0  0  0  0  # atno 6909 bound_to 6896
  146.2434  140.0232  142.8396 H   0  0  0  0  0  0  0  0  0  0  0  0  # atno 7974 bound_to 7965
  156.2999  140.2497  156.3412 H   0  0  0  0  0  0  0  0  0  0  0  0  # atno 8008 bound_to 7997
  154.9053  140.0405  157.1935 H   0  0  0  0  0  0  0  0  0  0  0  0  # atno 8009 bound_to 7997
  154.8459  140.2898  155.5633 H   0  0  0  0  0  0  0  0  0  0  0  0  # atno 8010 bound_to 7997
  140.6411  143.2508  151.4986 H   0  0  0  0  0  0  0  0  0  0  0  0  # atno 10167 bound_to 10162
  156.3242  130.4270  149.7932 H   0  0  0  0  0  0  0  0  0  0  0  0  # atno 10718 bound_to 10713
  154.8532  135.3514  154.5928 H   0  0  0  0  0  0  0  0  0  0  0  0  # atno 10763 bound_to 10752
  153.6537  135.6993  153.5205 H   0  0  0  0  0  0  0  0  0  0  0  0  # atno 10764 bound_to 10752
  153.2873  135.4245  155.1092 H   0  0  0  0  0  0  0  0  0  0  0  0  # atno 10765 bound_to 10752
  140.9439  133.7262  156.1118 H   0  0  0  0  0  0  0  0  0  0  0  0  # atno 11005 bound_to 11000
  145.1222  140.9469  143.4593 LP  0  0  0  0  0  0  0  0  0  0  0  0  # atno 17320 bound_to 7965
  145.0470  139.3213  143.5948 LP  0  0  0  0  0  0  0  0  0  0  0  0  # atno 17321 bound_to 7965
  139.5620  144.2132  152.1707 LP  0  0  0  0  0  0  0  0  0  0  0  0  # atno 17342 bound_to 10162
  140.1403  144.5208  150.6748 LP  0  0  0  0  0  0  0  0  0  0  0  0  # atno 17343 bound_to 10162
  156.5229  130.8223  151.3210 LP  0  0  0  0  0  0  0  0  0  0  0  0  # atno 17370 bound_to 10713
  157.7418  130.9877  150.2470 LP  0  0  0  0  0  0  0  0  0  0  0  0  # atno 17371 bound_to 10713
  140.7696  134.3848  157.5510 LP  0  0  0  0  0  0  0  0  0  0  0  0  # atno 17394 bound_to 11000
  139.8828  134.9013  156.2808 LP  0  0  0  0  0  0  0  0  0  0  0  0  # atno 17395 bound_to 11000

$$$$
