AV-unprocessed.smi:2844|AV-procd|sdf|10939|dock6
  -GOLD-   2272015383D 1   1.00000     0.00000
 Structure written by MMmdl.
 38 40  0  0  0  0  0  0  0  0  1 V2000
  153.1024  142.9543  161.2512 C   0  0  0  0  0  0  0  0  0  0  0  0
  152.4195  142.5551  159.9549 C   0  0  0  0  0  0  0  0  0  0  0  0
  152.3315  141.1855  159.6186 C   0  0  0  0  0  0  0  0  0  0  0  0
  151.7104  140.7728  158.4195 C   0  0  0  0  0  0  0  0  0  0  0  0
  151.5178  139.5052  157.8976 N   0  0  0  0  0  0  0  0  0  0  0  0
  150.8874  139.7778  156.7585 C   0  0  0  0  0  0  0  0  0  0  0  0
  150.6491  141.0742  156.4804 N   0  0  0  0  0  0  0  0  0  0  0  0
  149.9889  141.6121  155.3046 C   0  0  0  0  0  0  0  0  0  0  0  0
  149.1917  140.5442  154.5325 C   0  0  2  0  0  0  0  0  0  0  0  0
  150.0828  139.7323  153.7905 O   0  0  0  0  0  0  0  0  0  0  0  0
  148.1518  141.1788  153.5887 C   0  0  0  0  0  0  0  0  0  0  0  0
  147.1662  141.9763  154.2973 N   0  0  0  0  0  0  0  0  0  0  0  0
  146.1894  142.7941  153.7629 C   0  0  0  0  0  0  0  0  0  0  0  0
  145.5267  143.3139  154.8325 C   0  0  0  0  0  0  0  0  0  0  0  0
  144.1949  144.4086  154.7897 Cl  0  0  0  0  0  0  0  0  0  0  0  0
  146.1474  142.7764  155.9888 C   0  0  0  0  0  0  0  0  0  0  0  0
  147.1412  141.9661  155.6550 N   0  0  0  0  0  0  0  0  0  0  0  0
  151.1757  141.7759  157.5590 C   0  0  0  0  0  0  0  0  0  0  0  0
  151.2528  143.1415  157.8847 C   0  0  0  0  0  0  0  0  0  0  0  0
  151.8777  143.5367  159.0863 C   0  0  0  0  0  0  0  0  0  0  0  0
  151.9612  145.0140  159.4275 C   0  0  0  0  0  0  0  0  0  0  0  0
  153.4420  142.0806  161.8081 H   0  0  0  0  0  0  0  0  0  0  0  0
  152.4167  143.5113  161.8900 H   0  0  0  0  0  0  0  0  0  0  0  0
  153.9721  143.5792  161.0470 H   0  0  0  0  0  0  0  0  0  0  0  0
  152.7440  140.4377  160.2798 H   0  0  0  0  0  0  0  0  0  0  0  0
  150.5801  138.9899  156.0865 H   0  0  0  0  0  0  0  0  0  0  0  0
  149.3270  142.4171  155.6259 H   0  0  0  0  0  0  0  0  0  0  0  0
  150.7417  142.0678  154.6595 H   0  0  0  0  0  0  0  0  0  0  0  0
  148.6745  139.9025  155.2474 H   0  0  0  0  0  0  0  0  0  0  0  0
  149.7456  139.6403  152.9122 H   0  0  0  0  0  0  0  0  0  0  0  0
  148.6496  141.8266  152.8661 H   0  0  0  0  0  0  0  0  0  0  0  0
  147.6379  140.4087  153.0110 H   0  0  0  0  0  0  0  0  0  0  0  0
  146.0568  142.9295  152.6997 H   0  0  0  0  0  0  0  0  0  0  0  0
  145.9173  142.9413  157.0312 H   0  0  0  0  0  0  0  0  0  0  0  0
  150.8367  143.8780  157.2134 H   0  0  0  0  0  0  0  0  0  0  0  0
  151.5126  145.6286  158.6467 H   0  0  0  0  0  0  0  0  0  0  0  0
  153.0009  145.3222  159.5395 H   0  0  0  0  0  0  0  0  0  0  0  0
  151.4354  145.2213  160.3597 H   0  0  0  0  0  0  0  0  0  0  0  0
  1  2  1  0  0  0  0
  1 22  1  0  0  0  0
  1 23  1  0  0  0  0
  1 24  1  0  0  0  0
  2 20  1  0  0  0  0
  2  3  2  0  0  0  0
  3  4  1  0  0  0  0
  3 25  1  0  0  0  0
  4 18  2  0  0  0  0
  4  5  1  0  0  0  0
  5  6  2  0  0  0  0
  6  7  1  0  0  0  0
  6 26  1  0  0  0  0
  7  8  1  0  0  0  0
  7 18  1  0  0  0  0
  8  9  1  0  0  0  0
  8 27  1  0  0  0  0
  8 28  1  0  0  0  0
  9 10  1  0  0  0  0
  9 11  1  0  0  0  0
  9 29  1  0  0  0  0
 10 30  1  0  0  0  0
 11 12  1  0  0  0  0
 11 31  1  0  0  0  0
 11 32  1  0  0  0  0
 12 17  1  0  0  0  0
 12 13  1  0  0  0  0
 13 14  2  0  0  0  0
 13 33  1  0  0  0  0
 14 15  1  0  0  0  0
 14 16  1  0  0  0  0
 16 17  2  0  0  0  0
 16 34  1  0  0  0  0
 18 19  1  0  0  0  0
 19 20  2  0  0  0  0
 19 35  1  0  0  0  0
 20 21  1  0  0  0  0
 21 36  1  0  0  0  0
 21 37  1  0  0  0  0
 21 38  1  0  0  0  0
M  END
> <s_m_source_file>
AV-unprocessed.smi

> <i_m_source_file_index>
2844

> <i_lp_mmshare_version>
43012

> <i_f3d_flags>
0

> <s_epik_input>
W0NIM11jKFtjSF0xKWMoW0NIM10pW2NIXWMoYzEyKW4oW2NIXW4yKVtDSDJdW0NASF0oW09IXSlbQ0gyXW4zW2NIXWMoQ2wpW2NIXW4z

> <s_epik_cmdline>
J2VwaWtfcHl0aG9uJywgJy1waCcsICc3LjAnLCAnLXRuJywgJzgnLCAnLW1hJywgJzIwMCcsICctbWV0YWxfYmluZGluZycsICctaW1hZScsICc8aW5maWxlLm1hZT4nLCAnLW9tYWUnLCAnPG91dGZpbGUubWFlPic=

> <r_lp_tautomer_probability>
1

> <r_epik_Ionization_Penalty>
0.1021

> <r_epik_Ionization_Penalty_Charging>
0

> <r_epik_Ionization_Penalty_Neutral>
0.1021

> <r_epik_State_Penalty>
0.0920694

> <r_epik_Charging_Adjusted_Penalty>
0.0920694

> <i_epik_Tot_Q>
0

> <i_epik_Tot_abs_Q>
0

> <r_epik_Metal_State_Penalty>
0.0784292

> <b_epik_Metal_Only>
0

> <s_lp_Force_Field>
OPLS_2005

> <r_lp_Energy>
10.8301

> <b_lp_Chiralities_Consistent>
1

> <s_lp_Variant>
AV-unprocessed.smi:2844-1

> <Gold.Version>
5.8.1

> <Gold.Id.Protein>
6NUR|6NUR_protein|mol2

> <Gold.PLP.Fitness>
55.7222

> <Gold.PLP.PLP>
-50.8265

> <Gold.PLP.part.hbond>
-2.0000

> <Gold.PLP.part.metal>
0.0000

> <Gold.PLP.part.buried>
-4.8503

> <Gold.PLP.part.nonpolar>
-42.8578

> <Gold.PLP.part.repulsive>
0.1293

> <Gold.PLP.ligand.clash>
0.0000

> <Gold.PLP.ligand.torsion>
0.4257

> <Gold.PLP.Chemscore.Hbond>
1.9120

> <Gold.PLP.Chemscore.CHOScore>
0.0000

> <Gold.PLP.Chemscore.Metal>
0.0000

> <Gold.Chemscore.Hbonds>
donor molecule, donor type, donor heavy atom, donor atom, acceptor molecule, acceptor atom, score
      L1  H    10    30       P1  7957  1.00
      P1  H  7989  7998       L1    10  0.90

> <Gold.PLP.Chemscore.Internal.Correction>
0.0111

> <Gold.Rescore>
     Score         DG    S(hbond)    S(metal)    S(lipo)     H(rot)  DE(clash)    DE(int)     intcor
     16.36     -18.16       1.20        0.00     121.27       2.15       0.07       1.73       ----

> <Gold.Chemscore.Fitness>
16.3558

> <Gold.Chemscore.DG>
-18.1594

> <Gold.Chemscore.ZeroCoef>
-5.4800

> <Gold.Chemscore.Hbond>
1.1986

> <Gold.Chemscore.Metal>
0.0000

> <Gold.Chemscore.Lipo>
121.2714

> <Gold.Chemscore.Internal_Hbond>
0.0000

> <Gold.Chemscore.DEClash>
0.0744

> <Gold.Chemscore.DEInternal>
1.7293

> <Gold.Chemscore.Rot>
2.1534

> <Gold.Chemscore.Internal.Correction>
   9.000000E+99

> <Gold.Chemscore.Hbonds>
donor molecule, donor type, donor heavy atom, donor atom, acceptor molecule, acceptor atom, score
      L1  H    10    30       P1  7957  0.98
      P1  H  7989  7998       L1    10  0.11

> <Gold.Chemscore.Hbond.Weighted>
-4.0034

> <Gold.Chemscore.Metal.Weighted>
-0.0000

> <Gold.Chemscore.Lipo.Weighted>
-14.1888

> <Gold.Chemscore.Internal_Hbond.Weighted>
0.0000

> <Gold.Chemscore.DEClash.Weighted>
0.0744

> <Gold.Chemscore.DEInternal.Weighted>
1.7293

> <Gold.Chemscore.Rot.Weighted>
5.5127

> <Gold.Chemscore.Internal.Correction.Weighted>
   9.000000E+99

> <Gold.Protein.RotatedTorsions>
[ 6907 6896 6895 6894 ] final -177.70 input  -60.11 | X-H torsion
[ 7974 7965 7964 7962 ] final   49.15 input  175.53 | X-H torsion
[ 8008 7997 7996 7995 ] final -168.75 input   59.86 | X-H torsion
[ 10167 10162 10161 10158 ] final -133.91 input  -65.29 | X-H torsion
[ 10718 10713 10712 10709 ] final  121.62 input   66.30 | X-H torsion
[ 10763 10752 10751 10750 ] final  116.80 input  -60.55 | X-H torsion
[ 11005 11000 10999 10996 ] final  -98.98 input  -57.11 | X-H torsion

> <Gold.Protein.ActiveResidues>
 VAL166  LYS551  ARG553  GLY616  TRP617  ASP618  TYR619  PRO620  LYS621  CYS622 
 ASP623  PHE694  ASN695  SER759  ASP760  ASP761  ALA762  ILE779  LEU786  VAL792 
 PHE793  MET794  SER795  GLU796  ALA797  LYS798  CYS799  TRP800  GLU811  SER814 

> <Gold.Protein.RotatedAtoms>
  151.6252  133.3336  159.3096 H   0  0  0  0  0  0  0  0  0  0  0  0  # atno 6907 bound_to 6896
  150.8085  134.7229  159.6677 H   0  0  0  0  0  0  0  0  0  0  0  0  # atno 6908 bound_to 6896
  152.4181  134.6010  160.0051 H   0  0  0  0  0  0  0  0  0  0  0  0  # atno 6909 bound_to 6896
  146.0136  139.4571  142.9941 H   0  0  0  0  0  0  0  0  0  0  0  0  # atno 7974 bound_to 7965
  155.8956  140.1032  157.1387 H   0  0  0  0  0  0  0  0  0  0  0  0  # atno 8008 bound_to 7997
  154.4020  140.1302  156.4435 H   0  0  0  0  0  0  0  0  0  0  0  0  # atno 8009 bound_to 7997
  155.7482  140.3465  155.5140 H   0  0  0  0  0  0  0  0  0  0  0  0  # atno 8010 bound_to 7997
  139.8934  143.6695  152.2608 H   0  0  0  0  0  0  0  0  0  0  0  0  # atno 10167 bound_to 10162
  157.5804  131.1075  150.8198 H   0  0  0  0  0  0  0  0  0  0  0  0  # atno 10718 bound_to 10713
  153.5428  135.3555  155.2725 H   0  0  0  0  0  0  0  0  0  0  0  0  # atno 10763 bound_to 10752
  154.8715  135.4095  154.3025 H   0  0  0  0  0  0  0  0  0  0  0  0  # atno 10764 bound_to 10752
  153.3735  135.7065  153.6687 H   0  0  0  0  0  0  0  0  0  0  0  0  # atno 10765 bound_to 10752
  141.1325  133.8286  157.0911 H   0  0  0  0  0  0  0  0  0  0  0  0  # atno 11005 bound_to 11000
  145.7304  141.0044  143.1355 LP  0  0  0  0  0  0  0  0  0  0  0  0  # atno 17320 bound_to 7965
  144.6962  139.8977  143.7457 LP  0  0  0  0  0  0  0  0  0  0  0  0  # atno 17321 bound_to 7965
  139.7089  144.7623  151.1145 LP  0  0  0  0  0  0  0  0  0  0  0  0  # atno 17342 bound_to 10162
  140.7722  143.5357  150.9371 LP  0  0  0  0  0  0  0  0  0  0  0  0  # atno 17343 bound_to 10162
  156.8646  130.5125  149.5301 LP  0  0  0  0  0  0  0  0  0  0  0  0  # atno 17370 bound_to 10713
  156.0849  130.5850  150.9631 LP  0  0  0  0  0  0  0  0  0  0  0  0  # atno 17371 bound_to 10713
  140.0392  134.9863  157.0928 LP  0  0  0  0  0  0  0  0  0  0  0  0  # atno 17394 bound_to 11000
  140.4163  134.1928  155.7163 LP  0  0  0  0  0  0  0  0  0  0  0  0  # atno 17395 bound_to 11000

$$$$
