AV-unprocessed.smi:2713|AV-procd|sdf|10479|dock8
  -GOLD-   2272014523D 1   1.00000     0.00000
 Structure written by MMmdl.
 52 53  0  0  0  0  0  0  0  0  1 V2000
  152.1055  144.4928  158.0924 C   0  0  0  0  0  0  0  0  0  0  0  0
  151.3466  143.7953  159.2431 C   0  0  0  0  0  0  0  0  0  0  0  0
  152.2016  143.9758  160.5154 C   0  0  0  0  0  0  0  0  0  0  0  0
  150.0010  144.5091  159.4846 C   0  0  0  0  0  0  0  0  0  0  0  0
  151.1968  142.2550  159.0046 C   0  0  0  0  0  0  0  0  0  0  0  0
  150.2953  141.6718  157.8689 C   0  0  0  0  0  0  0  0  0  0  0  0
  148.8296  142.1523  157.9418 C   0  0  0  0  0  0  0  0  0  0  0  0
  150.9039  142.1165  156.5196 C   0  0  0  0  0  0  0  0  0  0  0  0
  150.3982  140.2101  157.9425 N   0  0  0  0  0  0  0  0  0  0  0  0
  151.6409  139.6034  157.4785 C   0  0  0  0  0  0  0  0  0  0  0  0
  151.4339  138.1845  156.9884 C   0  0  0  0  0  0  0  0  0  0  0  0
  151.7053  137.8035  155.6583 C   0  0  0  0  0  0  0  0  0  0  0  0
  151.5261  136.5341  155.2343 N   0  0  0  0  0  0  0  0  0  0  0  0
  151.0837  135.6333  156.1230 C   0  0  0  0  0  0  0  0  0  0  0  0
  150.8991  134.3178  155.6786 N   0  0  0  0  0  0  0  0  0  0  0  0
  150.3474  134.0127  154.3566 C   0  0  0  0  0  0  0  0  0  0  0  0
  149.5516  132.6966  154.3887 C   0  0  0  0  0  0  0  0  0  0  0  0
  150.3721  131.6485  154.8900 O   0  0  0  0  0  0  0  0  0  0  0  0
  150.7958  131.9076  156.2227 C   0  0  0  0  0  0  0  0  0  0  0  0
  151.6378  133.1942  156.2600 C   0  0  0  0  0  0  0  0  0  0  0  0
  150.8039  135.8972  157.4071 N   0  0  0  0  0  0  0  0  0  0  0  0
  150.9766  137.1628  157.8438 C   0  0  0  0  0  0  0  0  0  0  0  0
  152.3598  145.5197  158.3578 H   0  0  0  0  0  0  0  0  0  0  0  0
  151.5253  144.5544  157.1752 H   0  0  0  0  0  0  0  0  0  0  0  0
  153.0396  143.9800  157.8608 H   0  0  0  0  0  0  0  0  0  0  0  0
  153.1759  143.4963  160.4122 H   0  0  0  0  0  0  0  0  0  0  0  0
  151.7147  143.5428  161.3900 H   0  0  0  0  0  0  0  0  0  0  0  0
  152.3789  145.0294  160.7355 H   0  0  0  0  0  0  0  0  0  0  0  0
  150.1520  145.5562  159.7493 H   0  0  0  0  0  0  0  0  0  0  0  0
  149.4449  144.0448  160.2997 H   0  0  0  0  0  0  0  0  0  0  0  0
  149.3668  144.4967  158.5989 H   0  0  0  0  0  0  0  0  0  0  0  0
  152.2044  141.8589  158.8694 H   0  0  0  0  0  0  0  0  0  0  0  0
  150.8588  141.8022  159.9388 H   0  0  0  0  0  0  0  0  0  0  0  0
  148.7778  143.2341  158.0678 H   0  0  0  0  0  0  0  0  0  0  0  0
  148.2849  141.6854  158.7612 H   0  0  0  0  0  0  0  0  0  0  0  0
  148.2827  141.9193  157.0275 H   0  0  0  0  0  0  0  0  0  0  0  0
  150.9493  143.2040  156.4503 H   0  0  0  0  0  0  0  0  0  0  0  0
  150.3195  141.7756  155.6651 H   0  0  0  0  0  0  0  0  0  0  0  0
  151.9205  141.7411  156.3943 H   0  0  0  0  0  0  0  0  0  0  0  0
  150.1935  139.9012  158.8822 H   0  0  0  0  0  0  0  0  0  0  0  0
  152.0593  140.1811  156.6546 H   0  0  0  0  0  0  0  0  0  0  0  0
  152.3805  139.5913  158.2780 H   0  0  0  0  0  0  0  0  0  0  0  0
  152.0666  138.5164  154.9314 H   0  0  0  0  0  0  0  0  0  0  0  0
  149.6863  134.8023  153.9999 H   0  0  0  0  0  0  0  0  0  0  0  0
  151.1686  133.9380  153.6429 H   0  0  0  0  0  0  0  0  0  0  0  0
  148.6559  132.7988  155.0037 H   0  0  0  0  0  0  0  0  0  0  0  0
  149.2188  132.4355  153.3843 H   0  0  0  0  0  0  0  0  0  0  0  0
  149.9312  131.9888  156.8837 H   0  0  0  0  0  0  0  0  0  0  0  0
  151.3874  131.0629  156.5760 H   0  0  0  0  0  0  0  0  0  0  0  0
  152.5576  133.0540  155.6912 H   0  0  0  0  0  0  0  0  0  0  0  0
  151.9332  133.3813  157.2918 H   0  0  0  0  0  0  0  0  0  0  0  0
  150.7478  137.3570  158.8815 H   0  0  0  0  0  0  0  0  0  0  0  0
  1  2  1  0  0  0  0
  1 23  1  0  0  0  0
  1 24  1  0  0  0  0
  1 25  1  0  0  0  0
  2  3  1  0  0  0  0
  2  4  1  0  0  0  0
  2  5  1  0  0  0  0
  3 26  1  0  0  0  0
  3 27  1  0  0  0  0
  3 28  1  0  0  0  0
  4 29  1  0  0  0  0
  4 30  1  0  0  0  0
  4 31  1  0  0  0  0
  5  6  1  0  0  0  0
  5 32  1  0  0  0  0
  5 33  1  0  0  0  0
  6  7  1  0  0  0  0
  6  8  1  0  0  0  0
  6  9  1  0  0  0  0
  7 34  1  0  0  0  0
  7 35  1  0  0  0  0
  7 36  1  0  0  0  0
  8 37  1  0  0  0  0
  8 38  1  0  0  0  0
  8 39  1  0  0  0  0
  9 10  1  0  0  0  0
  9 40  1  0  0  0  0
 10 11  1  0  0  0  0
 10 41  1  0  0  0  0
 10 42  1  0  0  0  0
 11 22  1  0  0  0  0
 11 12  2  0  0  0  0
 12 13  1  0  0  0  0
 12 43  1  0  0  0  0
 13 14  2  0  0  0  0
 14 15  1  0  0  0  0
 14 21  1  0  0  0  0
 15 20  1  0  0  0  0
 15 16  1  0  0  0  0
 16 17  1  0  0  0  0
 16 44  1  0  0  0  0
 16 45  1  0  0  0  0
 17 18  1  0  0  0  0
 17 46  1  0  0  0  0
 17 47  1  0  0  0  0
 18 19  1  0  0  0  0
 19 20  1  0  0  0  0
 19 48  1  0  0  0  0
 19 49  1  0  0  0  0
 20 50  1  0  0  0  0
 20 51  1  0  0  0  0
 21 22  2  0  0  0  0
 22 52  1  0  0  0  0
M  END
> <s_m_source_file>
AV-unprocessed.smi

> <i_m_source_file_index>
2713

> <i_lp_mmshare_version>
43012

> <i_f3d_flags>
0

> <s_epik_input>
W0NIM11DKFtDSDNdKShbQ0gzXSlbQ0gyXUMoW0NIM10pKFtDSDNdKVtOSF1bQ0gyXWMxW2NIXW5jKG5bY0hdMSlOMltDSDJdW0NIMl1PW0NIMl1bQ0gyXTI=

> <s_epik_cmdline>
J2VwaWtfcHl0aG9uJywgJy1waCcsICc3LjAnLCAnLXRuJywgJzgnLCAnLW1hJywgJzIwMCcsICctbWV0YWxfYmluZGluZycsICctaW1hZScsICc8aW5maWxlLm1hZT4nLCAnLW9tYWUnLCAnPG91dGZpbGUubWFlPic=

> <r_lp_tautomer_probability>
1

> <r_epik_Ionization_Penalty>
1.66691

> <r_epik_Ionization_Penalty_Charging>
0

> <r_epik_Ionization_Penalty_Neutral>
1.66691

> <r_epik_State_Penalty>
1.77023

> <r_epik_Charging_Adjusted_Penalty>
1.77023

> <i_epik_Tot_Q>
0

> <i_epik_Tot_abs_Q>
0

> <r_epik_Metal_State_Penalty>
1.77023

> <b_epik_Metal_Only>
0

> <s_lp_Force_Field>
OPLS_2005

> <r_lp_Energy>
27.9038

> <b_lp_Chiralities_Consistent>
1

> <s_lp_Variant>
AV-unprocessed.smi:2713-2

> <Gold.Version>
5.8.1

> <Gold.Id.Protein>
6NUR|6NUR_protein|mol2

> <Gold.PLP.Fitness>
39.4904

> <Gold.PLP.PLP>
-38.8815

> <Gold.PLP.part.hbond>
-1.3599

> <Gold.PLP.part.metal>
0.0000

> <Gold.PLP.part.buried>
-7.3698

> <Gold.PLP.part.nonpolar>
-30.0858

> <Gold.PLP.part.repulsive>
0.1262

> <Gold.PLP.ligand.clash>
0.0000

> <Gold.PLP.ligand.torsion>
1.2737

> <Gold.PLP.Chemscore.Hbond>
1.0000

> <Gold.PLP.Chemscore.CHOScore>
0.0000

> <Gold.PLP.Chemscore.Metal>
0.0000

> <Gold.Chemscore.Hbonds>
donor molecule, donor type, donor heavy atom, donor atom, acceptor molecule, acceptor atom, score
      P1  H 10752 10765       L1    13  0.85

> <Gold.PLP.Chemscore.Internal.Correction>
0.1563

> <Gold.Rescore>
     Score         DG    S(hbond)    S(metal)    S(lipo)     H(rot)  DE(clash)    DE(int)     intcor
     15.73     -18.28       1.20        0.00     107.51       1.48       0.00       2.55       ----

> <Gold.Chemscore.Fitness>
15.7341

> <Gold.Chemscore.DG>
-18.2816

> <Gold.Chemscore.ZeroCoef>
-5.4800

> <Gold.Chemscore.Hbond>
1.2014

> <Gold.Chemscore.Metal>
0.0000

> <Gold.Chemscore.Lipo>
107.5128

> <Gold.Chemscore.Internal_Hbond>
0.0000

> <Gold.Chemscore.DEClash>
0.0000

> <Gold.Chemscore.DEInternal>
2.5474

> <Gold.Chemscore.Rot>
1.4805

> <Gold.Chemscore.Internal.Correction>
   9.000000E+99

> <Gold.Chemscore.Hbonds>
donor molecule, donor type, donor heavy atom, donor atom, acceptor molecule, acceptor atom, score
      P1  H 10752 10765       L1    13  0.14

> <Gold.Chemscore.Hbond.Weighted>
-4.0126

> <Gold.Chemscore.Metal.Weighted>
-0.0000

> <Gold.Chemscore.Lipo.Weighted>
-12.5790

> <Gold.Chemscore.Internal_Hbond.Weighted>
0.0000

> <Gold.Chemscore.DEClash.Weighted>
0.0000

> <Gold.Chemscore.DEInternal.Weighted>
2.5474

> <Gold.Chemscore.Rot.Weighted>
3.7900

> <Gold.Chemscore.Internal.Correction.Weighted>
   9.000000E+99

> <Gold.Protein.RotatedTorsions>
[ 6907 6896 6895 6894 ] final   41.38 input  -60.11 | X-H torsion
[ 7974 7965 7964 7962 ] final   26.69 input  175.53 | X-H torsion
[ 8008 7997 7996 7995 ] final   42.29 input   59.86 | X-H torsion
[ 10167 10162 10161 10158 ] final  158.06 input  -65.29 | X-H torsion
[ 10718 10713 10712 10709 ] final   -5.79 input   66.30 | X-H torsion
[ 10763 10752 10751 10750 ] final -175.48 input  -60.55 | X-H torsion
[ 11005 11000 10999 10996 ] final -152.08 input  -57.11 | X-H torsion

> <Gold.Protein.ActiveResidues>
 VAL166  LYS551  ARG553  GLY616  TRP617  ASP618  TYR619  PRO620  LYS621  CYS622 
 ASP623  PHE694  ASN695  SER759  ASP760  ASP761  ALA762  ILE779  LEU786  VAL792 
 PHE793  MET794  SER795  GLU796  ALA797  LYS798  CYS799  TRP800  GLU811  SER814 

> <Gold.Protein.RotatedAtoms>
  152.1945  134.8643  160.0513 H   0  0  0  0  0  0  0  0  0  0  0  0  # atno 6907 bound_to 6896
  151.9519  133.3663  159.4011 H   0  0  0  0  0  0  0  0  0  0  0  0  # atno 6908 bound_to 6896
  150.6942  134.4255  159.5268 H   0  0  0  0  0  0  0  0  0  0  0  0  # atno 6909 bound_to 6896
  146.1824  139.7293  142.8891 H   0  0  0  0  0  0  0  0  0  0  0  0  # atno 7974 bound_to 7965
  155.2838  140.3374  155.4256 H   0  0  0  0  0  0  0  0  0  0  0  0  # atno 8008 bound_to 7997
  156.2078  140.1757  156.7803 H   0  0  0  0  0  0  0  0  0  0  0  0  # atno 8009 bound_to 7997
  154.5644  140.0681  156.8853 H   0  0  0  0  0  0  0  0  0  0  0  0  # atno 8010 bound_to 7997
  139.4825  144.4860  151.8377 H   0  0  0  0  0  0  0  0  0  0  0  0  # atno 10167 bound_to 10162
  156.7413  130.5210  149.5823 H   0  0  0  0  0  0  0  0  0  0  0  0  # atno 10718 bound_to 10713
  154.5839  135.2839  155.0705 H   0  0  0  0  0  0  0  0  0  0  0  0  # atno 10763 bound_to 10752
  154.2031  135.6421  153.5096 H   0  0  0  0  0  0  0  0  0  0  0  0  # atno 10764 bound_to 10752
  153.0097  135.5473  154.6502 H   0  0  0  0  0  0  0  0  0  0  0  0  # atno 10765 bound_to 10752
  140.7227  134.3709  157.5180 H   0  0  0  0  0  0  0  0  0  0  0  0  # atno 11005 bound_to 11000
  145.4038  141.0388  143.3056 LP  0  0  0  0  0  0  0  0  0  0  0  0  # atno 17320 bound_to 7965
  144.8338  139.5584  143.6932 LP  0  0  0  0  0  0  0  0  0  0  0  0  # atno 17321 bound_to 7965
  140.4339  144.2078  150.5889 LP  0  0  0  0  0  0  0  0  0  0  0  0  # atno 17342 bound_to 10162
  140.4751  143.2399  151.9034 LP  0  0  0  0  0  0  0  0  0  0  0  0  # atno 17343 bound_to 10162
  156.1462  130.6279  151.0535 LP  0  0  0  0  0  0  0  0  0  0  0  0  # atno 17370 bound_to 10713
  157.6817  131.0836  150.7352 LP  0  0  0  0  0  0  0  0  0  0  0  0  # atno 17371 bound_to 10713
  139.8844  134.8966  156.2704 LP  0  0  0  0  0  0  0  0  0  0  0  0  # atno 17394 bound_to 11000
  140.9989  133.7163  156.0930 LP  0  0  0  0  0  0  0  0  0  0  0  0  # atno 17395 bound_to 11000

$$$$
