AV-unprocessed.smi:1931|AV-procd|sdf|7813|dock1
  -GOLD-   22720 9553D 1   1.00000     0.00000
 Structure written by MMmdl.
 48 49  0  0  0  0  0  0  0  0  1 V2000
  143.7843  133.5763  151.3387 C   0  0  0  0  0  0  0  0  0  0  0  0
  144.4819  134.7549  150.9759 O   0  0  0  0  0  0  0  0  0  0  0  0
  145.0468  135.4176  152.0947 C   0  0  0  0  0  0  0  0  0  0  0  0
  145.5749  136.7860  151.6534 C   0  0  0  0  0  0  0  0  0  0  0  0
  146.1328  137.4500  152.7749 O   0  0  0  0  0  0  0  0  0  0  0  0
  146.6105  138.7495  152.4599 C   0  0  0  0  0  0  0  0  0  0  0  0
  147.1806  139.4021  153.7200 C   0  0  0  0  0  0  0  0  0  0  0  0
  146.4517  139.5548  154.6993 O   0  0  0  0  0  0  0  0  0  0  0  0
  148.4737  139.7718  153.6622 N   0  0  0  0  0  0  0  0  0  0  0  0
  149.2649  140.3946  154.6648 C   0  0  0  0  0  0  0  0  0  0  0  0
  150.6467  140.1612  154.8507 C   0  0  0  0  0  0  0  0  0  0  0  0
  151.3184  140.8274  155.8938 C   0  0  0  0  0  0  0  0  0  0  0  0
  150.5942  141.7105  156.7343 C   0  0  0  0  0  0  0  0  0  0  0  0
  151.2055  142.4087  157.8002 N   0  0  0  0  0  0  0  0  0  0  0  0
  152.1363  141.6928  158.6665 C   0  0  0  0  0  0  0  0  0  0  0  0
  152.3948  142.4873  159.9593 C   0  0  1  0  0  0  0  0  0  0  0  0
  153.4806  141.8359  160.8226 C   0  0  0  0  0  0  0  0  0  0  0  0
  152.8241  143.8083  159.6353 O   0  0  0  0  0  0  0  0  0  0  0  0
  151.9071  144.5524  158.8308 C   0  0  2  0  0  0  0  0  0  0  0  0
  150.6452  144.9635  159.6108 C   0  0  0  0  0  0  0  0  0  0  0  0
  151.6001  143.7898  157.5272 C   0  0  0  0  0  0  0  0  0  0  0  0
  149.2667  141.9163  156.5592 N   0  0  0  0  0  0  0  0  0  0  0  0
  148.6267  141.2748  155.5597 C   0  0  0  0  0  0  0  0  0  0  0  0
  143.3714  133.1056  150.4465 H   0  0  0  0  0  0  0  0  0  0  0  0
  142.9574  133.7999  152.0142 H   0  0  0  0  0  0  0  0  0  0  0  0
  144.4473  132.8576  151.8221 H   0  0  0  0  0  0  0  0  0  0  0  0
  144.3134  135.5316  152.8946 H   0  0  0  0  0  0  0  0  0  0  0  0
  145.8701  134.8190  152.4873 H   0  0  0  0  0  0  0  0  0  0  0  0
  146.3494  136.6495  150.8971 H   0  0  0  0  0  0  0  0  0  0  0  0
  144.7767  137.3782  151.2034 H   0  0  0  0  0  0  0  0  0  0  0  0
  147.3938  138.6963  151.7026 H   0  0  0  0  0  0  0  0  0  0  0  0
  145.8006  139.3639  152.0628 H   0  0  0  0  0  0  0  0  0  0  0  0
  148.9664  139.5094  152.8205 H   0  0  0  0  0  0  0  0  0  0  0  0
  151.2019  139.4790  154.2263 H   0  0  0  0  0  0  0  0  0  0  0  0
  152.3755  140.6500  156.0204 H   0  0  0  0  0  0  0  0  0  0  0  0
  151.7302  140.7163  158.9324 H   0  0  0  0  0  0  0  0  0  0  0  0
  153.0706  141.5272  158.1283 H   0  0  0  0  0  0  0  0  0  0  0  0
  151.4793  142.5327  160.5493 H   0  0  0  0  0  0  0  0  0  0  0  0
  153.1984  140.8227  161.1101 H   0  0  0  0  0  0  0  0  0  0  0  0
  153.6457  142.4070  161.7365 H   0  0  0  0  0  0  0  0  0  0  0  0
  154.4295  141.7807  160.2885 H   0  0  0  0  0  0  0  0  0  0  0  0
  152.4221  145.4745  158.5600 H   0  0  0  0  0  0  0  0  0  0  0  0
  150.0318  145.6437  159.0195 H   0  0  0  0  0  0  0  0  0  0  0  0
  150.9092  145.4776  160.5351 H   0  0  0  0  0  0  0  0  0  0  0  0
  150.0201  144.1089  159.8682 H   0  0  0  0  0  0  0  0  0  0  0  0
  152.4905  143.7680  156.8977 H   0  0  0  0  0  0  0  0  0  0  0  0
  150.8363  144.3321  156.9697 H   0  0  0  0  0  0  0  0  0  0  0  0
  147.5698  141.4783  155.4692 H   0  0  0  0  0  0  0  0  0  0  0  0
  1  2  1  0  0  0  0
  1 24  1  0  0  0  0
  1 25  1  0  0  0  0
  1 26  1  0  0  0  0
  2  3  1  0  0  0  0
  3  4  1  0  0  0  0
  3 27  1  0  0  0  0
  3 28  1  0  0  0  0
  4  5  1  0  0  0  0
  4 29  1  0  0  0  0
  4 30  1  0  0  0  0
  5  6  1  0  0  0  0
  6  7  1  0  0  0  0
  6 31  1  0  0  0  0
  6 32  1  0  0  0  0
  7  8  2  0  0  0  0
  7  9  1  0  0  0  0
  9 10  1  0  0  0  0
  9 33  1  0  0  0  0
 10 23  1  0  0  0  0
 10 11  2  0  0  0  0
 11 12  1  0  0  0  0
 11 34  1  0  0  0  0
 12 13  2  0  0  0  0
 12 35  1  0  0  0  0
 13 14  1  0  0  0  0
 13 22  1  0  0  0  0
 14 21  1  0  0  0  0
 14 15  1  0  0  0  0
 15 16  1  0  0  0  0
 15 36  1  0  0  0  0
 15 37  1  0  0  0  0
 16 17  1  0  0  0  0
 16 18  1  0  0  0  0
 16 38  1  0  0  0  0
 17 39  1  0  0  0  0
 17 40  1  0  0  0  0
 17 41  1  0  0  0  0
 18 19  1  0  0  0  0
 19 20  1  0  0  0  0
 19 21  1  0  0  0  0
 19 42  1  0  0  0  0
 20 43  1  0  0  0  0
 20 44  1  0  0  0  0
 20 45  1  0  0  0  0
 21 46  1  0  0  0  0
 21 47  1  0  0  0  0
 22 23  2  0  0  0  0
 23 48  1  0  0  0  0
M  END
> <s_m_source_file>
AV-unprocessed.smi

> <i_m_source_file_index>
1931

> <i_lp_mmshare_version>
43012

> <i_f3d_flags>
0

> <s_epik_input>
W0NIM11PW0NIMl1bQ0gyXU9bQ0gyXUMoPU8pW05IXWMxW2NIXVtjSF1jKG5bY0hdMSlOMltDSDJdW0NAQEhdKFtDSDNdKU9bQ0BASF0oW0NIM10pW0NIMl0y

> <s_epik_cmdline>
J2VwaWtfcHl0aG9uJywgJy1waCcsICc3LjAnLCAnLXRuJywgJzgnLCAnLW1hJywgJzIwMCcsICctbWV0YWxfYmluZGluZycsICctaW1hZScsICc8aW5maWxlLm1hZT4nLCAnLW9tYWUnLCAnPG91dGZpbGUubWFlPic=

> <r_lp_tautomer_probability>
1

> <r_epik_Ionization_Penalty>
0.000582342

> <r_epik_Ionization_Penalty_Charging>
0

> <r_epik_Ionization_Penalty_Neutral>
0.000582342

> <r_epik_State_Penalty>
0.00036524

> <r_epik_Charging_Adjusted_Penalty>
0.00036524

> <i_epik_Tot_Q>
0

> <i_epik_Tot_abs_Q>
0

> <r_epik_Metal_State_Penalty>
-0

> <b_epik_Metal_Only>
0

> <s_lp_Force_Field>
OPLS_2005

> <r_lp_Energy>
26.0102

> <b_lp_Chiralities_Consistent>
1

> <s_lp_Variant>
AV-unprocessed.smi:1931-3

> <Gold.Version>
5.8.1

> <Gold.Id.Protein>
6NUR|6NUR_protein|mol2

> <Gold.PLP.Fitness>
46.8534

> <Gold.PLP.PLP>
-45.0103

> <Gold.PLP.part.hbond>
-1.0000

> <Gold.PLP.part.metal>
0.0000

> <Gold.PLP.part.buried>
-4.7510

> <Gold.PLP.part.nonpolar>
-41.7790

> <Gold.PLP.part.repulsive>
1.7517

> <Gold.PLP.ligand.clash>
0.0000

> <Gold.PLP.ligand.torsion>
0.7726

> <Gold.PLP.Chemscore.Hbond>
0.9280

> <Gold.PLP.Chemscore.CHOScore>
0.0000

> <Gold.PLP.Chemscore.Metal>
0.0000

> <Gold.Chemscore.Hbonds>
donor molecule, donor type, donor heavy atom, donor atom, acceptor molecule, acceptor atom, score
      L1  H     9    33       P1  7957  0.94

> <Gold.PLP.Chemscore.Internal.Correction>
0.6043

> <Gold.Rescore>
     Score         DG    S(hbond)    S(metal)    S(lipo)     H(rot)  DE(clash)    DE(int)     intcor
     13.75     -16.97       0.87        0.00     115.57       1.93       1.14       2.08       ----

> <Gold.Chemscore.Fitness>
13.7460

> <Gold.Chemscore.DG>
-16.9658

> <Gold.Chemscore.ZeroCoef>
-5.4800

> <Gold.Chemscore.Hbond>
0.8734

> <Gold.Chemscore.Metal>
0.0000

> <Gold.Chemscore.Lipo>
115.5716

> <Gold.Chemscore.Internal_Hbond>
0.0000

> <Gold.Chemscore.DEClash>
1.1391

> <Gold.Chemscore.DEInternal>
2.0806

> <Gold.Chemscore.Rot>
1.9349

> <Gold.Chemscore.Internal.Correction>
   9.000000E+99

> <Gold.Chemscore.Hbonds>
donor molecule, donor type, donor heavy atom, donor atom, acceptor molecule, acceptor atom, score
      L1  H     9    33       P1  7957  0.92

> <Gold.Chemscore.Hbond.Weighted>
-2.9173

> <Gold.Chemscore.Metal.Weighted>
-0.0000

> <Gold.Chemscore.Lipo.Weighted>
-13.5219

> <Gold.Chemscore.Internal_Hbond.Weighted>
0.0000

> <Gold.Chemscore.DEClash.Weighted>
1.1391

> <Gold.Chemscore.DEInternal.Weighted>
2.0806

> <Gold.Chemscore.Rot.Weighted>
4.9534

> <Gold.Chemscore.Internal.Correction.Weighted>
   9.000000E+99

> <Gold.Protein.RotatedTorsions>
[ 6907 6896 6895 6894 ] final -150.91 input  -60.11 | X-H torsion
[ 7974 7965 7964 7962 ] final  -39.90 input  175.53 | X-H torsion
[ 8008 7997 7996 7995 ] final -110.24 input   59.86 | X-H torsion
[ 10167 10162 10161 10158 ] final   -8.68 input  -65.29 | X-H torsion
[ 10718 10713 10712 10709 ] final   13.16 input   66.30 | X-H torsion
[ 10763 10752 10751 10750 ] final  -46.23 input  -60.55 | X-H torsion
[ 11005 11000 10999 10996 ] final  135.83 input  -57.11 | X-H torsion

> <Gold.Protein.ActiveResidues>
 VAL166  LYS551  ARG553  GLY616  TRP617  ASP618  TYR619  PRO620  LYS621  CYS622 
 ASP623  PHE694  ASN695  SER759  ASP760  ASP761  ALA762  ILE779  LEU786  VAL792 
 PHE793  MET794  SER795  GLU796  ALA797  LYS798  CYS799  TRP800  GLU811  SER814 

> <Gold.Protein.RotatedAtoms>
  151.2054  133.4586  159.2596 H   0  0  0  0  0  0  0  0  0  0  0  0  # atno 6907 bound_to 6896
  151.1028  134.9982  159.8467 H   0  0  0  0  0  0  0  0  0  0  0  0  # atno 6908 bound_to 6896
  152.5444  134.1979  159.8753 H   0  0  0  0  0  0  0  0  0  0  0  0  # atno 6909 bound_to 6896
  146.0354  140.6678  142.9112 H   0  0  0  0  0  0  0  0  0  0  0  0  # atno 7974 bound_to 7965
  154.9716  140.0397  157.2237 H   0  0  0  0  0  0  0  0  0  0  0  0  # atno 8008 bound_to 7997
  154.7796  140.2816  155.6052 H   0  0  0  0  0  0  0  0  0  0  0  0  # atno 8009 bound_to 7997
  156.2934  140.2594  156.2618 H   0  0  0  0  0  0  0  0  0  0  0  0  # atno 8010 bound_to 7997
  140.7066  143.5942  150.8863 H   0  0  0  0  0  0  0  0  0  0  0  0  # atno 10167 bound_to 10162
  157.0206  130.6153  149.5720 H   0  0  0  0  0  0  0  0  0  0  0  0  # atno 10718 bound_to 10713
  154.0415  135.6643  153.4790 H   0  0  0  0  0  0  0  0  0  0  0  0  # atno 10763 bound_to 10752
  153.0500  135.5091  154.7837 H   0  0  0  0  0  0  0  0  0  0  0  0  # atno 10764 bound_to 10752
  154.6815  135.3046  154.9572 H   0  0  0  0  0  0  0  0  0  0  0  0  # atno 10765 bound_to 10752
  140.0005  134.9480  157.0062 H   0  0  0  0  0  0  0  0  0  0  0  0  # atno 11005 bound_to 11000
  144.7049  140.3811  143.7126 LP  0  0  0  0  0  0  0  0  0  0  0  0  # atno 17320 bound_to 7965
  145.6972  139.1652  143.2613 LP  0  0  0  0  0  0  0  0  0  0  0  0  # atno 17321 bound_to 7965
  139.9667  143.6103  152.2986 LP  0  0  0  0  0  0  0  0  0  0  0  0  # atno 17342 bound_to 10162
  139.6675  144.7662  151.1846 LP  0  0  0  0  0  0  0  0  0  0  0  0  # atno 17343 bound_to 10162
  156.0103  130.5194  150.7968 LP  0  0  0  0  0  0  0  0  0  0  0  0  # atno 17370 bound_to 10713
  157.5252  131.0934  151.0027 LP  0  0  0  0  0  0  0  0  0  0  0  0  # atno 17371 bound_to 10713
  140.4736  134.1361  155.7206 LP  0  0  0  0  0  0  0  0  0  0  0  0  # atno 17394 bound_to 11000
  141.1638  133.8741  157.1772 LP  0  0  0  0  0  0  0  0  0  0  0  0  # atno 17395 bound_to 11000

$$$$
