AV-unprocessed.smi:3236|AV-procd|sdf|12362|dock2
  -GOLD-   2272018223D 1   1.00000     0.00000
 Structure written by MMmdl.
 40 41  0  0  0  0  0  0  0  0  1 V2000
  153.3759  142.3430  162.7469 C   0  0  0  0  0  0  0  0  0  0  0  0
  153.1088  142.9020  161.3427 C   0  0  0  0  0  0  0  0  0  0  0  0
  152.2049  144.1529  161.3878 C   0  0  0  0  0  0  0  0  0  0  0  0
  151.8654  144.6453  159.9694 C   0  0  0  0  0  0  0  0  0  0  0  0
  151.2309  143.5472  159.2275 N   0  0  0  0  0  0  0  0  0  0  0  0
  149.9285  143.4947  158.8551 C   0  0  0  0  0  0  0  0  0  0  0  0
  149.1488  144.4261  159.0670 O   0  0  0  0  0  0  0  0  0  0  0  0
  149.4095  142.2357  158.1390 C   0  0  0  0  0  0  0  0  0  0  0  0
  149.0882  142.4664  156.7252 N   0  0  0  0  0  0  0  0  0  0  0  0
  149.9876  141.7178  155.8588 C   0  0  0  0  0  0  0  0  0  0  0  0
  149.3470  140.3793  155.4545 C   0  0  0  0  0  0  0  0  0  0  0  0
  150.3307  139.3993  155.0296 N   0  0  0  0  0  0  0  0  0  0  0  0
  150.1359  138.0709  154.7151 C   0  0  0  0  0  0  0  0  0  0  0  0
  151.3523  137.5512  154.3762 C   0  0  0  0  0  0  0  0  0  0  0  0
  152.2415  138.6532  154.5162 C   0  0  0  0  0  0  0  0  0  0  0  0
  151.6270  139.7589  154.9054 N   0  0  0  0  0  0  0  0  0  0  0  0
  152.1580  142.4253  159.0307 C   0  0  0  0  0  0  0  0  0  0  0  0
  152.5169  141.8289  160.4040 C   0  0  0  0  0  0  0  0  0  0  0  0
  152.4527  142.0163  163.2262 H   0  0  0  0  0  0  0  0  0  0  0  0
  153.8358  143.0957  163.3878 H   0  0  0  0  0  0  0  0  0  0  0  0
  154.0511  141.4879  162.7068 H   0  0  0  0  0  0  0  0  0  0  0  0
  154.0688  143.2079  160.9243 H   0  0  0  0  0  0  0  0  0  0  0  0
  151.2810  143.9238  161.9209 H   0  0  0  0  0  0  0  0  0  0  0  0
  152.6964  144.9491  161.9478 H   0  0  0  0  0  0  0  0  0  0  0  0
  151.2581  145.5467  160.0285 H   0  0  0  0  0  0  0  0  0  0  0  0
  152.7776  144.9459  159.4519 H   0  0  0  0  0  0  0  0  0  0  0  0
  150.1649  141.4516  158.2100 H   0  0  0  0  0  0  0  0  0  0  0  0
  148.5128  141.8876  158.6538 H   0  0  0  0  0  0  0  0  0  0  0  0
  149.1357  143.4480  156.4920 H   0  0  0  0  0  0  0  0  0  0  0  0
  150.1946  142.3057  154.9635 H   0  0  0  0  0  0  0  0  0  0  0  0
  150.9418  141.5448  156.3589 H   0  0  0  0  0  0  0  0  0  0  0  0
  148.7688  139.9635  156.2807 H   0  0  0  0  0  0  0  0  0  0  0  0
  148.6456  140.5370  154.6341 H   0  0  0  0  0  0  0  0  0  0  0  0
  149.1598  137.6110  154.7617 H   0  0  0  0  0  0  0  0  0  0  0  0
  151.5732  136.5378  154.0766 H   0  0  0  0  0  0  0  0  0  0  0  0
  153.3080  138.6819  154.3479 H   0  0  0  0  0  0  0  0  0  0  0  0
  151.7519  141.6460  158.3847 H   0  0  0  0  0  0  0  0  0  0  0  0
  153.0583  142.7844  158.5301 H   0  0  0  0  0  0  0  0  0  0  0  0
  153.2260  141.0102  160.2770 H   0  0  0  0  0  0  0  0  0  0  0  0
  151.6219  141.3962  160.8540 H   0  0  0  0  0  0  0  0  0  0  0  0
  1  2  1  0  0  0  0
  1 19  1  0  0  0  0
  1 20  1  0  0  0  0
  1 21  1  0  0  0  0
  2 18  1  0  0  0  0
  2  3  1  0  0  0  0
  2 22  1  0  0  0  0
  3  4  1  0  0  0  0
  3 23  1  0  0  0  0
  3 24  1  0  0  0  0
  4  5  1  0  0  0  0
  4 25  1  0  0  0  0
  4 26  1  0  0  0  0
  5  6  1  0  0  0  0
  5 17  1  0  0  0  0
  6  7  2  0  0  0  0
  6  8  1  0  0  0  0
  8  9  1  0  0  0  0
  8 27  1  0  0  0  0
  8 28  1  0  0  0  0
  9 10  1  0  0  0  0
  9 29  1  0  0  0  0
 10 11  1  0  0  0  0
 10 30  1  0  0  0  0
 10 31  1  0  0  0  0
 11 12  1  0  0  0  0
 11 32  1  0  0  0  0
 11 33  1  0  0  0  0
 12 16  1  0  0  0  0
 12 13  1  0  0  0  0
 13 14  2  0  0  0  0
 13 34  1  0  0  0  0
 14 15  1  0  0  0  0
 14 35  1  0  0  0  0
 15 16  2  0  0  0  0
 15 36  1  0  0  0  0
 17 18  1  0  0  0  0
 17 37  1  0  0  0  0
 17 38  1  0  0  0  0
 18 39  1  0  0  0  0
 18 40  1  0  0  0  0
M  END
> <s_m_source_file>
AV-unprocessed.smi

> <i_m_source_file_index>
3236

> <i_lp_mmshare_version>
43012

> <i_f3d_flags>
0

> <s_epik_input>
W0NIM11bQ0hdMVtDSDJdW0NIMl1OKFtDSDJdW0NIMl0xKUMoPU8pW0NIMl1bTkhdW0NIMl1bQ0gyXW4yW2NIXVtjSF1bY0hdbjI=

> <s_epik_cmdline>
J2VwaWtfcHl0aG9uJywgJy1waCcsICc3LjAnLCAnLXRuJywgJzgnLCAnLW1hJywgJzIwMCcsICctbWV0YWxfYmluZGluZycsICctaW1hZScsICc8aW5maWxlLm1hZT4nLCAnLW9tYWUnLCAnPG91dGZpbGUubWFlPic=

> <r_lp_tautomer_probability>
1

> <r_epik_Ionization_Penalty>
0.778591

> <r_epik_Ionization_Penalty_Charging>
0

> <r_epik_Ionization_Penalty_Neutral>
0.778591

> <r_epik_State_Penalty>
0.806071

> <r_epik_Charging_Adjusted_Penalty>
0.806071

> <i_epik_Tot_Q>
0

> <i_epik_Tot_abs_Q>
0

> <r_epik_Metal_State_Penalty>
0.80479

> <b_epik_Metal_Only>
0

> <s_lp_Force_Field>
OPLS_2005

> <r_lp_Energy>
26.1059

> <b_lp_Chiralities_Consistent>
1

> <s_lp_Variant>
AV-unprocessed.smi:3236-2

> <Gold.Version>
5.8.1

> <Gold.Id.Protein>
6NUR|6NUR_protein|mol2

> <Gold.PLP.Fitness>
46.0980

> <Gold.PLP.PLP>
-41.6807

> <Gold.PLP.part.hbond>
-2.0000

> <Gold.PLP.part.metal>
0.0000

> <Gold.PLP.part.buried>
-7.0166

> <Gold.PLP.part.nonpolar>
-37.0268

> <Gold.PLP.part.repulsive>
3.0138

> <Gold.PLP.ligand.clash>
0.0000

> <Gold.PLP.ligand.torsion>
0.8390

> <Gold.PLP.Chemscore.Hbond>
2.0000

> <Gold.PLP.Chemscore.CHOScore>
0.0000

> <Gold.PLP.Chemscore.Metal>
0.0000

> <Gold.Chemscore.Hbonds>
donor molecule, donor type, donor heavy atom, donor atom, acceptor molecule, acceptor atom, score
      L1  H     9    29       P1  8028  1.00
      P1  H  7989  7998       L1    16  1.00

> <Gold.PLP.Chemscore.Internal.Correction>
0.0952

> <Gold.Rescore>
     Score         DG    S(hbond)    S(metal)    S(lipo)     H(rot)  DE(clash)    DE(int)     intcor
     16.37     -18.44       1.55        0.00     104.40       1.73       1.45       0.62       ----

> <Gold.Chemscore.Fitness>
16.3709

> <Gold.Chemscore.DG>
-18.4439

> <Gold.Chemscore.ZeroCoef>
-5.4800

> <Gold.Chemscore.Hbond>
1.5501

> <Gold.Chemscore.Metal>
0.0000

> <Gold.Chemscore.Lipo>
104.3963

> <Gold.Chemscore.Internal_Hbond>
0.0000

> <Gold.Chemscore.DEClash>
1.4504

> <Gold.Chemscore.DEInternal>
0.6226

> <Gold.Chemscore.Rot>
1.7296

> <Gold.Chemscore.Internal.Correction>
   9.000000E+99

> <Gold.Chemscore.Hbonds>
donor molecule, donor type, donor heavy atom, donor atom, acceptor molecule, acceptor atom, score
      L1  H     9    29       P1  8028  0.91
      P1  H  7989  7998       L1    16  0.27

> <Gold.Chemscore.Hbond.Weighted>
-5.1774

> <Gold.Chemscore.Metal.Weighted>
-0.0000

> <Gold.Chemscore.Lipo.Weighted>
-12.2144

> <Gold.Chemscore.Internal_Hbond.Weighted>
0.0000

> <Gold.Chemscore.DEClash.Weighted>
1.4504

> <Gold.Chemscore.DEInternal.Weighted>
0.6226

> <Gold.Chemscore.Rot.Weighted>
4.4278

> <Gold.Chemscore.Internal.Correction.Weighted>
   9.000000E+99

> <Gold.Protein.RotatedTorsions>
[ 6907 6896 6895 6894 ] final   65.05 input  -60.11 | X-H torsion
[ 7974 7965 7964 7962 ] final  -57.26 input  175.53 | X-H torsion
[ 8008 7997 7996 7995 ] final   63.56 input   59.86 | X-H torsion
[ 10167 10162 10161 10158 ] final    2.76 input  -65.29 | X-H torsion
[ 10718 10713 10712 10709 ] final -139.14 input   66.30 | X-H torsion
[ 10763 10752 10751 10750 ] final -132.24 input  -60.55 | X-H torsion
[ 11005 11000 10999 10996 ] final   94.56 input  -57.11 | X-H torsion

> <Gold.Protein.ActiveResidues>
 VAL166  LYS551  ARG553  GLY616  TRP617  ASP618  TYR619  PRO620  LYS621  CYS622 
 ASP623  PHE694  ASN695  SER759  ASP760  ASP761  ALA762  ILE779  LEU786  VAL792 
 PHE793  MET794  SER795  GLU796  ALA797  LYS798  CYS799  TRP800  GLU811  SER814 

> <Gold.Protein.RotatedAtoms>
  152.4378  134.5651  159.9904 H   0  0  0  0  0  0  0  0  0  0  0  0  # atno 6907 bound_to 6896
  151.5756  133.3378  159.3006 H   0  0  0  0  0  0  0  0  0  0  0  0  # atno 6908 bound_to 6896
  150.8279  134.7554  159.6893 H   0  0  0  0  0  0  0  0  0  0  0  0  # atno 6909 bound_to 6896
  145.8531  140.8338  142.9975 H   0  0  0  0  0  0  0  0  0  0  0  0  # atno 7974 bound_to 7965
  155.6321  140.3496  155.4686 H   0  0  0  0  0  0  0  0  0  0  0  0  # atno 8008 bound_to 7997
  155.9994  140.1210  157.0585 H   0  0  0  0  0  0  0  0  0  0  0  0  # atno 8009 bound_to 7997
  154.4244  140.1103  156.5662 H   0  0  0  0  0  0  0  0  0  0  0  0  # atno 8010 bound_to 7997
  140.6619  143.7280  150.7755 H   0  0  0  0  0  0  0  0  0  0  0  0  # atno 10167 bound_to 10162
  156.3073  130.7462  151.1529 H   0  0  0  0  0  0  0  0  0  0  0  0  # atno 10718 bound_to 10713
  154.8745  135.3804  154.4376 H   0  0  0  0  0  0  0  0  0  0  0  0  # atno 10763 bound_to 10752
  153.5064  135.7030  153.5809 H   0  0  0  0  0  0  0  0  0  0  0  0  # atno 10764 bound_to 10752
  153.4118  135.3923  155.2021 H   0  0  0  0  0  0  0  0  0  0  0  0  # atno 10765 bound_to 10752
  139.8797  134.8852  156.3882 H   0  0  0  0  0  0  0  0  0  0  0  0  # atno 11005 bound_to 11000
  144.6728  140.0983  143.7462 LP  0  0  0  0  0  0  0  0  0  0  0  0  # atno 17320 bound_to 7965
  145.9335  139.2621  143.1311 LP  0  0  0  0  0  0  0  0  0  0  0  0  # atno 17321 bound_to 7965
  140.0951  143.4841  152.2457 LP  0  0  0  0  0  0  0  0  0  0  0  0  # atno 17342 bound_to 10162
  139.5856  144.7529  151.3529 LP  0  0  0  0  0  0  0  0  0  0  0  0  # atno 17343 bound_to 10162
  157.7382  131.0543  150.5306 LP  0  0  0  0  0  0  0  0  0  0  0  0  # atno 17370 bound_to 10713
  156.5441  130.4215  149.6139 LP  0  0  0  0  0  0  0  0  0  0  0  0  # atno 17371 bound_to 10713
  140.9351  133.7552  156.0074 LP  0  0  0  0  0  0  0  0  0  0  0  0  # atno 17394 bound_to 11000
  140.8285  134.3206  157.5357 LP  0  0  0  0  0  0  0  0  0  0  0  0  # atno 17395 bound_to 11000

$$$$
