AV-unprocessed.smi:1401|AV-procd|sdf|5689|dock7
  -GOLD-   22720 5313D 1   1.00000     0.00000
 Structure written by MMmdl.
 48 50  0  0  0  0  0  0  0  0  1 V2000
  146.9940  139.8399  154.6576 C   0  0  0  0  0  0  0  0  0  0  0  0
  148.2173  138.9668  154.7286 C   0  0  0  0  0  0  0  0  0  0  0  0
  148.0209  137.6901  154.6959 N   0  0  0  0  0  0  0  0  0  0  0  0
  149.0715  136.7958  154.7804 N   0  0  0  0  0  0  0  0  0  0  0  0
  148.6432  135.3873  154.8387 C   0  0  0  0  0  0  0  0  0  0  0  0
  147.1665  135.1710  154.4624 C   0  0  0  0  0  0  0  0  0  0  0  0
  146.3480  134.9168  155.3452 O   0  0  0  0  0  0  0  0  0  0  0  0
  146.8435  135.2283  153.1598 N   0  0  0  0  0  0  0  0  0  0  0  0
  145.5627  134.8676  152.5650 C   0  0  1  0  0  0  0  0  0  0  0  0
  144.6573  136.1062  152.4526 C   0  0  0  0  0  0  0  0  0  0  0  0
  145.8156  134.2087  151.1878 C   0  0  2  0  0  0  0  0  0  0  0  0
  144.5441  133.9505  150.3496 C   0  0  0  0  0  0  0  0  0  0  0  0
  144.6965  132.4737  149.9372 C   0  0  2  0  0  0  0  0  0  0  0  0
  144.4277  131.5764  151.1600 C   0  0  0  0  0  0  0  0  0  0  0  0
  145.6847  131.7931  152.0221 C   0  0  0  0  0  0  0  0  0  0  0  0
  146.4921  132.8132  151.1943 C   0  0  1  0  0  0  0  0  0  0  0  0
  146.2058  132.3375  149.7744 C   0  0  0  0  0  0  0  0  0  0  0  0
  150.3849  137.1508  154.8842 C   0  0  0  0  0  0  0  0  0  0  0  0
  151.2904  136.3211  154.9762 O   0  0  0  0  0  0  0  0  0  0  0  0
  150.6014  138.5994  154.9040 C   0  0  0  0  0  0  0  0  0  0  0  0
  151.9626  139.0147  155.0150 C   0  0  0  0  0  0  0  0  0  0  0  0
  153.0599  139.3707  155.1090 N   0  0  0  0  0  0  0  0  0  0  0  0
  149.5764  139.4856  154.8358 C   0  0  0  0  0  0  0  0  0  0  0  0
  149.7458  140.9981  154.8700 C   0  0  0  0  0  0  0  0  0  0  0  0
  147.0293  140.4856  153.7799 H   0  0  0  0  0  0  0  0  0  0  0  0
  146.9197  140.4725  155.5423 H   0  0  0  0  0  0  0  0  0  0  0  0
  146.0770  139.2515  154.5982 H   0  0  0  0  0  0  0  0  0  0  0  0
  149.2591  134.7974  154.1573 H   0  0  0  0  0  0  0  0  0  0  0  0
  148.8170  134.9582  155.8266 H   0  0  0  0  0  0  0  0  0  0  0  0
  147.5831  135.4607  152.5130 H   0  0  0  0  0  0  0  0  0  0  0  0
  145.0715  134.1437  153.2172 H   0  0  0  0  0  0  0  0  0  0  0  0
  143.6917  135.8501  152.0163 H   0  0  0  0  0  0  0  0  0  0  0  0
  145.1114  136.8748  151.8263 H   0  0  0  0  0  0  0  0  0  0  0  0
  144.4646  136.5466  153.4311 H   0  0  0  0  0  0  0  0  0  0  0  0
  146.4685  134.8730  150.6183 H   0  0  0  0  0  0  0  0  0  0  0  0
  143.6220  134.1211  150.9065 H   0  0  0  0  0  0  0  0  0  0  0  0
  144.5257  134.6019  149.4751 H   0  0  0  0  0  0  0  0  0  0  0  0
  144.1102  132.2022  149.0589 H   0  0  0  0  0  0  0  0  0  0  0  0
  143.5114  131.8529  151.6831 H   0  0  0  0  0  0  0  0  0  0  0  0
  144.3419  130.5299  150.8650 H   0  0  0  0  0  0  0  0  0  0  0  0
  145.4526  132.1401  153.0285 H   0  0  0  0  0  0  0  0  0  0  0  0
  146.2411  130.8603  152.1222 H   0  0  0  0  0  0  0  0  0  0  0  0
  147.5514  132.8422  151.4508 H   0  0  0  0  0  0  0  0  0  0  0  0
  146.5313  131.3127  149.5865 H   0  0  0  0  0  0  0  0  0  0  0  0
  146.6198  132.9911  149.0044 H   0  0  0  0  0  0  0  0  0  0  0  0
  150.7922  141.2959  154.9323 H   0  0  0  0  0  0  0  0  0  0  0  0
  149.2331  141.4193  155.7358 H   0  0  0  0  0  0  0  0  0  0  0  0
  149.3302  141.4512  153.9693 H   0  0  0  0  0  0  0  0  0  0  0  0
  1  2  1  0  0  0  0
  1 25  1  0  0  0  0
  1 26  1  0  0  0  0
  1 27  1  0  0  0  0
  2 23  1  0  0  0  0
  2  3  2  0  0  0  0
  3  4  1  0  0  0  0
  4  5  1  0  0  0  0
  4 18  1  0  0  0  0
  5  6  1  0  0  0  0
  5 28  1  0  0  0  0
  5 29  1  0  0  0  0
  6  7  2  0  0  0  0
  6  8  1  0  0  0  0
  8  9  1  0  0  0  0
  8 30  1  0  0  0  0
  9 10  1  0  0  0  0
  9 11  1  0  0  0  0
  9 31  1  0  0  0  0
 10 32  1  0  0  0  0
 10 33  1  0  0  0  0
 10 34  1  0  0  0  0
 11 16  1  0  0  0  0
 11 12  1  0  0  0  0
 11 35  1  0  0  0  0
 12 13  1  0  0  0  0
 12 36  1  0  0  0  0
 12 37  1  0  0  0  0
 13 17  1  0  0  0  0
 13 14  1  0  0  0  0
 13 38  1  0  0  0  0
 14 15  1  0  0  0  0
 14 39  1  0  0  0  0
 14 40  1  0  0  0  0
 15 16  1  0  0  0  0
 15 41  1  0  0  0  0
 15 42  1  0  0  0  0
 16 17  1  0  0  0  0
 16 43  1  0  0  0  0
 17 44  1  0  0  0  0
 17 45  1  0  0  0  0
 18 19  2  0  0  0  0
 18 20  1  0  0  0  0
 20 21  1  0  0  0  0
 20 23  2  0  0  0  0
 21 22  3  0  0  0  0
 23 24  1  0  0  0  0
 24 46  1  0  0  0  0
 24 47  1  0  0  0  0
 24 48  1  0  0  0  0
M  END
> <s_m_source_file>
AV-unprocessed.smi

> <i_m_source_file_index>
1401

> <i_lp_mmshare_version>
43012

> <i_f3d_flags>
0

> <s_epik_input>
TiNDYyhjMVtDSDNdKWMoPU8pbihuYzFbQ0gzXSlbQ0gyXUMoPU8pW05IXVtDQEhdKFtDSDNdKVtDQEhdKFtDSDJdW0NASF0yMylbQ0BIXShbQ0gyXTMpW0NIMl1bQ0gyXTI=

> <s_epik_cmdline>
J2VwaWtfcHl0aG9uJywgJy1waCcsICc3LjAnLCAnLXRuJywgJzgnLCAnLW1hJywgJzIwMCcsICctbWV0YWxfYmluZGluZycsICctaW1hZScsICc8aW5maWxlLm1hZT4nLCAnLW9tYWUnLCAnPG91dGZpbGUubWFlPic=

> <r_lp_tautomer_probability>
1

> <r_epik_Ionization_Penalty>
2.16501e-08

> <r_epik_Ionization_Penalty_Charging>
2.29436e-11

> <r_epik_Ionization_Penalty_Neutral>
2.16271e-08

> <r_epik_State_Penalty>
-0

> <r_epik_Charging_Adjusted_Penalty>
2.29436e-11

> <i_epik_Tot_Q>
0

> <i_epik_Tot_abs_Q>
0

> <r_epik_Metal_State_Penalty>
-0

> <b_epik_Metal_Only>
0

> <s_lp_Force_Field>
OPLS_2005

> <r_lp_Energy>
65.4856

> <b_lp_Chiralities_Consistent>
1

> <s_lp_Variant>
AV-unprocessed.smi:1401-2

> <Gold.Version>
5.8.1

> <Gold.Id.Protein>
6NUR|6NUR_protein|mol2

> <Gold.PLP.Fitness>
44.4903

> <Gold.PLP.PLP>
-36.9784

> <Gold.PLP.part.hbond>
-3.3133

> <Gold.PLP.part.metal>
0.0000

> <Gold.PLP.part.buried>
-0.8505

> <Gold.PLP.part.nonpolar>
-32.6076

> <Gold.PLP.part.repulsive>
0.2975

> <Gold.PLP.ligand.clash>
0.0000

> <Gold.PLP.ligand.torsion>
0.7599

> <Gold.PLP.Chemscore.Hbond>
3.0000

> <Gold.PLP.Chemscore.CHOScore>
0.0000

> <Gold.PLP.Chemscore.Metal>
0.0000

> <Gold.Chemscore.Hbonds>
donor molecule, donor type, donor heavy atom, donor atom, acceptor molecule, acceptor atom, score
      L1  H     8    30       P1  7948  1.00
      P1  H  7997  8008       L1    22  1.00
      P1  H 10752 10765       L1    19  1.00

> <Gold.PLP.Chemscore.Internal.Correction>
0.0317

> <Gold.Rescore>
     Score         DG    S(hbond)    S(metal)    S(lipo)     H(rot)  DE(clash)    DE(int)     intcor
     20.73     -21.55       2.96        0.00      88.52       1.63       0.02       0.80       ----

> <Gold.Chemscore.Fitness>
20.7256

> <Gold.Chemscore.DG>
-21.5460

> <Gold.Chemscore.ZeroCoef>
-5.4800

> <Gold.Chemscore.Hbond>
2.9571

> <Gold.Chemscore.Metal>
0.0000

> <Gold.Chemscore.Lipo>
88.5223

> <Gold.Chemscore.Internal_Hbond>
0.0000

> <Gold.Chemscore.DEClash>
0.0243

> <Gold.Chemscore.DEInternal>
0.7961

> <Gold.Chemscore.Rot>
1.6281

> <Gold.Chemscore.Internal.Correction>
   9.000000E+99

> <Gold.Chemscore.Hbonds>
donor molecule, donor type, donor heavy atom, donor atom, acceptor molecule, acceptor atom, score
      L1  H     8    30       P1  7948  1.00
      P1  H  7997  8008       L1    22  1.00
      P1  H 10752 10765       L1    19  0.99

> <Gold.Chemscore.Hbond.Weighted>
-9.8767

> <Gold.Chemscore.Metal.Weighted>
-0.0000

> <Gold.Chemscore.Lipo.Weighted>
-10.3571

> <Gold.Chemscore.Internal_Hbond.Weighted>
0.0000

> <Gold.Chemscore.DEClash.Weighted>
0.0243

> <Gold.Chemscore.DEInternal.Weighted>
0.7961

> <Gold.Chemscore.Rot.Weighted>
4.1678

> <Gold.Chemscore.Internal.Correction.Weighted>
   9.000000E+99

> <Gold.Protein.RotatedTorsions>
[ 6907 6896 6895 6894 ] final  -16.88 input  -60.11 | X-H torsion
[ 7974 7965 7964 7962 ] final  107.47 input  175.53 | X-H torsion
[ 8008 7997 7996 7995 ] final  -30.93 input   59.86 | X-H torsion
[ 10167 10162 10161 10158 ] final  -60.34 input  -65.29 | X-H torsion
[ 10718 10713 10712 10709 ] final  137.85 input   66.30 | X-H torsion
[ 10763 10752 10751 10750 ] final  164.49 input  -60.55 | X-H torsion
[ 11005 11000 10999 10996 ] final  -10.66 input  -57.11 | X-H torsion

> <Gold.Protein.ActiveResidues>
 VAL166  LYS551  ARG553  GLY616  TRP617  ASP618  TYR619  PRO620  LYS621  CYS622 
 ASP623  PHE694  ASN695  SER759  ASP760  ASP761  ALA762  ILE779  LEU786  VAL792 
 PHE793  MET794  SER795  GLU796  ALA797  LYS798  CYS799  TRP800  GLU811  SER814 

> <Gold.Protein.RotatedAtoms>
  151.3018  135.0770  159.9240 H   0  0  0  0  0  0  0  0  0  0  0  0  # atno 6907 bound_to 6896
  152.5296  133.9826  159.7824 H   0  0  0  0  0  0  0  0  0  0  0  0  # atno 6908 bound_to 6896
  151.0114  133.5910  159.2712 H   0  0  0  0  0  0  0  0  0  0  0  0  # atno 6909 bound_to 6896
  145.2932  139.2593  143.3853 H   0  0  0  0  0  0  0  0  0  0  0  0  # atno 7974 bound_to 7965
  154.4232  140.1778  156.1485 H   0  0  0  0  0  0  0  0  0  0  0  0  # atno 8008 bound_to 7997
  155.9934  140.3367  155.6750 H   0  0  0  0  0  0  0  0  0  0  0  0  # atno 8009 bound_to 7997
  155.6341  140.0673  157.2630 H   0  0  0  0  0  0  0  0  0  0  0  0  # atno 8010 bound_to 7997
  140.6077  143.2378  151.5782 H   0  0  0  0  0  0  0  0  0  0  0  0  # atno 10167 bound_to 10162
  157.4316  131.1049  151.0243 H   0  0  0  0  0  0  0  0  0  0  0  0  # atno 10718 bound_to 10713
  154.3096  135.2757  155.2572 H   0  0  0  0  0  0  0  0  0  0  0  0  # atno 10763 bound_to 10752
  154.4973  135.5817  153.6507 H   0  0  0  0  0  0  0  0  0  0  0  0  # atno 10764 bound_to 10752
  152.9889  135.6149  154.3273 H   0  0  0  0  0  0  0  0  0  0  0  0  # atno 10765 bound_to 10752
  140.7471  133.8623  155.9014 H   0  0  0  0  0  0  0  0  0  0  0  0  # atno 11005 bound_to 11000
  146.3178  140.3428  142.8649 LP  0  0  0  0  0  0  0  0  0  0  0  0  # atno 17320 bound_to 7965
  144.9155  140.7807  143.5781 LP  0  0  0  0  0  0  0  0  0  0  0  0  # atno 17321 bound_to 7965
  139.5338  144.2841  152.1206 LP  0  0  0  0  0  0  0  0  0  0  0  0  # atno 17342 bound_to 10162
  140.2034  144.4635  150.6420 LP  0  0  0  0  0  0  0  0  0  0  0  0  # atno 17343 bound_to 10162
  157.1138  130.6033  149.5488 LP  0  0  0  0  0  0  0  0  0  0  0  0  # atno 17370 bound_to 10713
  155.9915  130.4970  150.7303 LP  0  0  0  0  0  0  0  0  0  0  0  0  # atno 17371 bound_to 10713
  140.9785  134.1437  157.4515 LP  0  0  0  0  0  0  0  0  0  0  0  0  # atno 17394 bound_to 11000
  139.8795  135.0002  156.5999 LP  0  0  0  0  0  0  0  0  0  0  0  0  # atno 17395 bound_to 11000

$$$$
