AV-unprocessed.smi:2473|AV-procd|sdf|9745|dock8
  -GOLD-   2272013383D 1   1.00000     0.00000
 Structure written by MMmdl.
 48 49  0  0  0  0  0  0  0  0  2 V2000
  147.9400  132.0395  153.5720 C   0  0  0  0  0  0  0  0  0  0  0  0
  147.1724  132.6206  152.3757 C   0  0  2  0  0  0  0  0  0  0  0  0
  146.7498  134.0770  152.6384 C   0  0  0  0  0  0  0  0  0  0  0  0
  145.9835  134.6649  151.4374 C   0  0  2  0  0  0  0  0  0  0  0  0
  145.5506  136.1129  151.7006 C   0  0  0  0  0  0  0  0  0  0  0  0
  144.3639  136.4337  151.6300 O   0  0  0  0  0  0  0  0  0  0  0  0
  146.5309  136.9863  151.9753 N   0  0  0  0  0  0  0  0  0  0  0  0
  146.3489  138.4221  152.1647 C   0  0  0  0  0  0  0  0  0  0  0  0
  147.6076  139.1168  152.7237 C   0  0  0  0  0  0  0  0  0  0  0  0
  147.3256  140.4050  153.4421 C   0  0  0  0  0  0  0  0  0  0  0  0
  146.1625  141.0663  153.4057 N   0  3  0  0  0  0  0  0  0  0  0  0
  146.2286  142.1943  154.1767 C   0  0  0  0  0  0  0  0  0  0  0  0
  147.4917  142.2269  154.7061 C   0  0  0  0  0  0  0  0  0  0  0  0
  148.1453  141.1167  154.2358 N   0  0  0  0  0  0  0  0  0  0  0  0
  149.5287  140.7374  154.5313 C   0  0  0  0  0  0  0  0  0  0  0  0
  144.7540  133.7908  151.1065 C   0  0  0  0  0  0  0  0  0  0  0  0
  145.1038  132.3055  150.8455 C   0  0  0  0  0  0  0  0  0  0  0  0
  143.7942  131.4989  150.7477 C   0  0  0  0  0  0  0  0  0  0  0  0
  145.8573  132.1424  149.5070 C   0  0  0  0  0  0  0  0  0  0  0  0
  145.9420  131.7562  152.0272 C   0  0  0  0  0  0  0  0  0  0  0  0
  147.3218  132.0225  154.4701 H   0  0  0  0  0  0  0  0  0  0  0  0
  148.8299  132.6297  153.7919 H   0  0  0  0  0  0  0  0  0  0  0  0
  148.2644  131.0180  153.3720 H   0  0  0  0  0  0  0  0  0  0  0  0
  147.8546  132.6131  151.5257 H   0  0  0  0  0  0  0  0  0  0  0  0
  146.1299  134.1155  153.5361 H   0  0  0  0  0  0  0  0  0  0  0  0
  147.6325  134.6834  152.8473 H   0  0  0  0  0  0  0  0  0  0  0  0
  146.6558  134.6714  150.5784 H   0  0  0  0  0  0  0  0  0  0  0  0
  147.4760  136.6340  152.0264 H   0  0  0  0  0  0  0  0  0  0  0  0
  146.0354  138.8918  151.2312 H   0  0  0  0  0  0  0  0  0  0  0  0
  145.5241  138.5510  152.8662 H   0  0  0  0  0  0  0  0  0  0  0  0
  148.1353  138.4541  153.4088 H   0  0  0  0  0  0  0  0  0  0  0  0
  148.3029  139.3511  151.9173 H   0  0  0  0  0  0  0  0  0  0  0  0
  145.3943  142.8718  154.2866 H   0  0  0  0  0  0  0  0  0  0  0  0
  147.9625  142.9424  155.3650 H   0  0  0  0  0  0  0  0  0  0  0  0
  149.9574  141.4436  155.2428 H   0  0  0  0  0  0  0  0  0  0  0  0
  150.1117  140.7533  153.6102 H   0  0  0  0  0  0  0  0  0  0  0  0
  149.5496  139.7379  154.9644 H   0  0  0  0  0  0  0  0  0  0  0  0
  144.0476  133.8477  151.9368 H   0  0  0  0  0  0  0  0  0  0  0  0
  144.2297  134.2007  150.2416 H   0  0  0  0  0  0  0  0  0  0  0  0
  143.9913  130.4411  150.5702 H   0  0  0  0  0  0  0  0  0  0  0  0
  143.1661  131.8577  149.9315 H   0  0  0  0  0  0  0  0  0  0  0  0
  143.2094  131.5715  151.6654 H   0  0  0  0  0  0  0  0  0  0  0  0
  146.0834  131.0944  149.3077 H   0  0  0  0  0  0  0  0  0  0  0  0
  146.8027  132.6823  149.4870 H   0  0  0  0  0  0  0  0  0  0  0  0
  145.2599  132.5100  148.6720 H   0  0  0  0  0  0  0  0  0  0  0  0
  146.2598  130.7354  151.8105 H   0  0  0  0  0  0  0  0  0  0  0  0
  145.3080  131.6878  152.9128 H   0  0  0  0  0  0  0  0  0  0  0  0
  145.3489  140.7701  152.8811 H   0  0  0  0  0  0  0  0  0  0  0  0
  1  2  1  0  0  0  0
  1 21  1  0  0  0  0
  1 22  1  0  0  0  0
  1 23  1  0  0  0  0
  2 20  1  0  0  0  0
  2  3  1  0  0  0  0
  2 24  1  0  0  0  0
  3  4  1  0  0  0  0
  3 25  1  0  0  0  0
  3 26  1  0  0  0  0
  4  5  1  0  0  0  0
  4 16  1  0  0  0  0
  4 27  1  0  0  0  0
  5  6  2  0  0  0  0
  5  7  1  0  0  0  0
  7  8  1  0  0  0  0
  7 28  1  0  0  0  0
  8  9  1  0  0  0  0
  8 29  1  0  0  0  0
  8 30  1  0  0  0  0
  9 10  1  0  0  0  0
  9 31  1  0  0  0  0
  9 32  1  0  0  0  0
 10 14  1  0  0  0  0
 10 11  2  0  0  0  0
 11 12  1  0  0  0  0
 11 48  1  0  0  0  0
 12 13  2  0  0  0  0
 12 33  1  0  0  0  0
 13 14  1  0  0  0  0
 13 34  1  0  0  0  0
 14 15  1  0  0  0  0
 15 35  1  0  0  0  0
 15 36  1  0  0  0  0
 15 37  1  0  0  0  0
 16 17  1  0  0  0  0
 16 38  1  0  0  0  0
 16 39  1  0  0  0  0
 17 18  1  0  0  0  0
 17 19  1  0  0  0  0
 17 20  1  0  0  0  0
 18 40  1  0  0  0  0
 18 41  1  0  0  0  0
 18 42  1  0  0  0  0
 19 43  1  0  0  0  0
 19 44  1  0  0  0  0
 19 45  1  0  0  0  0
 20 46  1  0  0  0  0
 20 47  1  0  0  0  0
M  CHG  1  11   1
M  END
> <s_m_source_file>
AV-unprocessed.smi

> <i_m_source_file_index>
2473

> <i_lp_mmshare_version>
43012

> <i_f3d_flags>
0

> <s_epik_input>
W0NIM11bQ0BASF0oW0NIMl0xKVtDSDJdW0NASF0oW0NIMl1DMShbQ0gzXSlbQ0gzXSlDKD1PKVtOSF1bQ0gyXVtDSDJdYzJuW2NIXVtjSF1uMltDSDNd

> <s_epik_cmdline>
J2VwaWtfcHl0aG9uJywgJy1waCcsICc3LjAnLCAnLXRuJywgJzgnLCAnLW1hJywgJzIwMCcsICctbWV0YWxfYmluZGluZycsICctaW1hZScsICc8aW5maWxlLm1hZT4nLCAnLW9tYWUnLCAnPG91dGZpbGUubWFlPic=

> <r_lp_tautomer_probability>
1

> <r_epik_Ionization_Penalty>
0.0796112

> <r_epik_Ionization_Penalty_Charging>
0

> <r_epik_Ionization_Penalty_Neutral>
0.0796112

> <r_epik_State_Penalty>
0.0704541

> <r_epik_Charging_Adjusted_Penalty>
0.0704541

> <i_epik_Tot_Q>
1

> <i_epik_Tot_abs_Q>
1

> <r_epik_Metal_State_Penalty>
0.409899

> <b_epik_Metal_Only>
0

> <s_lp_Force_Field>
OPLS_2005

> <r_lp_Energy>
16.1806

> <b_lp_Chiralities_Consistent>
1

> <s_lp_Variant>
AV-unprocessed.smi:2473-3

> <Gold.Version>
5.8.1

> <Gold.Id.Protein>
6NUR|6NUR_protein|mol2

> <Gold.PLP.Fitness>
50.0810

> <Gold.PLP.PLP>
-38.7377

> <Gold.PLP.part.hbond>
-1.9775

> <Gold.PLP.part.metal>
0.0000

> <Gold.PLP.part.buried>
0.6774

> <Gold.PLP.part.nonpolar>
-40.6808

> <Gold.PLP.part.repulsive>
1.9109

> <Gold.PLP.ligand.clash>
0.0000

> <Gold.PLP.ligand.torsion>
0.3344

> <Gold.PLP.Chemscore.Hbond>
3.0000

> <Gold.PLP.Chemscore.CHOScore>
0.9986

> <Gold.PLP.Chemscore.Metal>
0.0000

> <Gold.Chemscore.Hbonds>
donor molecule, donor type, donor heavy atom, donor atom, acceptor molecule, acceptor atom, score
      L1  H     7    28       P1  7948  0.98
      L1  H    11    48       P1 10175  2.00
      L1  C    13    34       P1  8028  0.92

> <Gold.PLP.Chemscore.Internal.Correction>
0.0165

> <Gold.Rescore>
     Score         DG    S(hbond)    S(metal)    S(lipo)     H(rot)  DE(clash)    DE(int)     intcor
     18.53     -19.07       1.98        0.00      94.38       1.58       0.25       0.28       ----

> <Gold.Chemscore.Fitness>
18.5327

> <Gold.Chemscore.DG>
-19.0708

> <Gold.Chemscore.ZeroCoef>
-5.4800

> <Gold.Chemscore.Hbond>
1.9753

> <Gold.Chemscore.Metal>
0.0000

> <Gold.Chemscore.Lipo>
94.3836

> <Gold.Chemscore.Internal_Hbond>
0.0000

> <Gold.Chemscore.DEClash>
0.2542

> <Gold.Chemscore.DEInternal>
0.2839

> <Gold.Chemscore.Rot>
1.5818

> <Gold.Chemscore.Internal.Correction>
   9.000000E+99

> <Gold.Chemscore.Hbonds>
donor molecule, donor type, donor heavy atom, donor atom, acceptor molecule, acceptor atom, score
      L1  H     7    28       P1  7948  0.92
      L1  H    11    48       P1 10175  0.50

> <Gold.Chemscore.Hbond.Weighted>
-6.5974

> <Gold.Chemscore.Metal.Weighted>
-0.0000

> <Gold.Chemscore.Lipo.Weighted>
-11.0429

> <Gold.Chemscore.Internal_Hbond.Weighted>
0.0000

> <Gold.Chemscore.DEClash.Weighted>
0.2542

> <Gold.Chemscore.DEInternal.Weighted>
0.2839

> <Gold.Chemscore.Rot.Weighted>
4.0495

> <Gold.Chemscore.Internal.Correction.Weighted>
   9.000000E+99

> <Gold.Protein.RotatedTorsions>
[ 6907 6896 6895 6894 ] final -104.82 input  -60.11 | X-H torsion
[ 7974 7965 7964 7962 ] final  -50.95 input  175.53 | X-H torsion
[ 8008 7997 7996 7995 ] final  -35.40 input   59.86 | X-H torsion
[ 10167 10162 10161 10158 ] final  166.22 input  -65.29 | X-H torsion
[ 10718 10713 10712 10709 ] final  107.93 input   66.30 | X-H torsion
[ 10763 10752 10751 10750 ] final  111.95 input  -60.55 | X-H torsion
[ 11005 11000 10999 10996 ] final  -43.59 input  -57.11 | X-H torsion

> <Gold.Protein.ActiveResidues>
 VAL166  LYS551  ARG553  GLY616  TRP617  ASP618  TYR619  PRO620  LYS621  CYS622 
 ASP623  PHE694  ASN695  SER759  ASP760  ASP761  ALA762  ILE779  LEU786  VAL792 
 PHE793  MET794  SER795  GLU796  ALA797  LYS798  CYS799  TRP800  GLU811  SER814 

> <Gold.Protein.RotatedAtoms>
  150.7306  134.0220  159.3704 H   0  0  0  0  0  0  0  0  0  0  0  0  # atno 6907 bound_to 6896
  151.8185  135.0657  160.0431 H   0  0  0  0  0  0  0  0  0  0  0  0  # atno 6908 bound_to 6896
  152.3021  133.5630  159.5661 H   0  0  0  0  0  0  0  0  0  0  0  0  # atno 6909 bound_to 6896
  145.9242  140.7807  142.9632 H   0  0  0  0  0  0  0  0  0  0  0  0  # atno 7974 bound_to 7965
  154.4096  140.1658  156.2205 H   0  0  0  0  0  0  0  0  0  0  0  0  # atno 8008 bound_to 7997
  155.9367  140.3411  155.6271 H   0  0  0  0  0  0  0  0  0  0  0  0  # atno 8009 bound_to 7997
  155.7039  140.0748  157.2389 H   0  0  0  0  0  0  0  0  0  0  0  0  # atno 8010 bound_to 7997
  139.4920  144.4050  151.9366 H   0  0  0  0  0  0  0  0  0  0  0  0  # atno 10167 bound_to 10162
  157.6608  131.0883  150.6230 H   0  0  0  0  0  0  0  0  0  0  0  0  # atno 10718 bound_to 10713
  153.4708  135.3701  155.2390 H   0  0  0  0  0  0  0  0  0  0  0  0  # atno 10763 bound_to 10752
  154.8757  135.3931  154.3814 H   0  0  0  0  0  0  0  0  0  0  0  0  # atno 10764 bound_to 10752
  153.4402  135.7084  153.6238 H   0  0  0  0  0  0  0  0  0  0  0  0  # atno 10765 bound_to 10752
  141.0394  133.6786  156.2755 H   0  0  0  0  0  0  0  0  0  0  0  0  # atno 11005 bound_to 11000
  144.6756  140.2024  143.7385 LP  0  0  0  0  0  0  0  0  0  0  0  0  # atno 17320 bound_to 7965
  145.8510  139.2175  143.1772 LP  0  0  0  0  0  0  0  0  0  0  0  0  # atno 17321 bound_to 7965
  140.3490  144.3112  150.5953 LP  0  0  0  0  0  0  0  0  0  0  0  0  # atno 17342 bound_to 10162
  140.5501  143.2208  151.7941 LP  0  0  0  0  0  0  0  0  0  0  0  0  # atno 17343 bound_to 10162
  156.6533  130.4491  149.5712 LP  0  0  0  0  0  0  0  0  0  0  0  0  # atno 17370 bound_to 10713
  156.2121  130.6685  151.1280 LP  0  0  0  0  0  0  0  0  0  0  0  0  # atno 17371 bound_to 10713
  140.6262  134.5311  157.5554 LP  0  0  0  0  0  0  0  0  0  0  0  0  # atno 17394 bound_to 11000
  139.9264  134.8047  156.1055 LP  0  0  0  0  0  0  0  0  0  0  0  0  # atno 17395 bound_to 11000

$$$$
