AV-unprocessed.smi:224|AV-procd|sdf|1714|dock1
  -GOLD-   2262020183D 1   1.00000     0.00000
 Structure written by MMmdl.
 56 59  0  0  0  0  0  0  0  0  2 V2000
  143.7231  132.8121  147.9869 C   0  0  0  0  0  0  0  0  0  0  0  0
  143.6700  132.7599  149.5191 C   0  0  1  0  0  0  0  0  0  0  0  0
  143.2255  131.4710  149.8930 O   0  0  0  0  0  0  0  0  0  0  0  0
  145.0534  133.0327  150.1462 C   0  0  0  0  0  0  0  0  0  0  0  0
  145.0242  133.2095  151.6245 N   0  3  1  0  0  0  0  0  0  0  0  0
  146.3075  132.8079  152.2608 C   0  0  0  0  0  0  0  0  0  0  0  0
  146.2050  132.8439  153.7963 C   0  0  0  0  0  0  0  0  0  0  0  0
  145.7159  134.1389  154.2533 N   0  0  0  0  0  0  0  0  0  0  0  0
  146.5676  135.1136  154.6791 C   0  0  0  0  0  0  0  0  0  0  0  0
  146.0533  136.3614  154.8384 N   0  0  0  0  0  0  0  0  0  0  0  0
  146.8200  137.3705  155.2585 C   0  0  0  0  0  0  0  0  0  0  0  0
  148.1149  137.3562  155.5711 N   0  0  0  0  0  0  0  0  0  0  0  0
  148.6483  136.1122  155.4121 C   0  0  0  0  0  0  0  0  0  0  0  0
  147.9553  134.9430  154.9788 C   0  0  0  0  0  0  0  0  0  0  0  0
  148.8443  133.8735  154.9388 N   0  0  0  0  0  0  0  0  0  0  0  0
  149.9814  134.3740  155.3347 C   0  0  0  0  0  0  0  0  0  0  0  0
  149.9570  135.7169  155.6287 N   0  0  0  0  0  0  0  0  0  0  0  0
  151.0765  136.5271  156.0859 C   0  0  0  0  0  0  0  0  0  0  0  0
  151.5771  137.5437  155.0328 C   0  0  2  0  0  0  0  0  0  0  0  0
  151.8705  136.8547  153.8290 O   0  0  0  0  0  0  0  0  0  0  0  0
  152.8303  138.2878  155.4758 C   0  0  0  0  0  0  0  0  0  0  0  0
  152.7163  139.6094  154.7281 C   0  0  0  0  0  0  0  0  0  0  0  0
  151.3314  139.9023  154.8091 O   0  0  0  0  0  0  0  0  0  0  0  0
  150.5923  138.6876  154.7132 C   0  0  0  0  0  0  0  0  0  0  0  0
  144.4382  134.5342  153.6616 C   0  0  0  0  0  0  0  0  0  0  0  0
  144.5077  134.5257  152.1187 C   0  0  1  0  0  0  0  0  0  0  0  0
  145.2892  135.7399  151.5730 C   0  0  0  0  0  0  0  0  0  0  0  0
  144.0432  133.7951  147.6398 H   0  0  0  0  0  0  0  0  0  0  0  0
  142.7427  132.6137  147.5521 H   0  0  0  0  0  0  0  0  0  0  0  0
  144.4201  132.0751  147.5860 H   0  0  0  0  0  0  0  0  0  0  0  0
  142.9367  133.4936  149.8517 H   0  0  0  0  0  0  0  0  0  0  0  0
  142.3010  131.5075  150.0835 H   0  0  0  0  0  0  0  0  0  0  0  0
  145.7064  132.1912  149.9094 H   0  0  0  0  0  0  0  0  0  0  0  0
  145.5173  133.9020  149.6800 H   0  0  0  0  0  0  0  0  0  0  0  0
  146.5738  131.7979  151.9476 H   0  0  0  0  0  0  0  0  0  0  0  0
  147.1064  133.4614  151.9111 H   0  0  0  0  0  0  0  0  0  0  0  0
  145.4911  132.0877  154.1242 H   0  0  0  0  0  0  0  0  0  0  0  0
  147.1480  132.5739  154.2697 H   0  0  0  0  0  0  0  0  0  0  0  0
  146.3247  138.3251  155.3596 H   0  0  0  0  0  0  0  0  0  0  0  0
  150.8772  133.7752  155.4169 H   0  0  0  0  0  0  0  0  0  0  0  0
  150.7740  137.0478  156.9953 H   0  0  0  0  0  0  0  0  0  0  0  0
  151.8861  135.8558  156.3757 H   0  0  0  0  0  0  0  0  0  0  0  0
  151.2451  137.1218  153.1726 H   0  0  0  0  0  0  0  0  0  0  0  0
  152.7952  138.4838  156.5484 H   0  0  0  0  0  0  0  0  0  0  0  0
  153.7576  137.7529  155.2662 H   0  0  0  0  0  0  0  0  0  0  0  0
  153.3221  140.4002  155.1708 H   0  0  0  0  0  0  0  0  0  0  0  0
  153.0065  139.4949  153.6825 H   0  0  0  0  0  0  0  0  0  0  0  0
  150.1506  138.5905  153.7202 H   0  0  0  0  0  0  0  0  0  0  0  0
  149.7741  138.7387  155.4303 H   0  0  0  0  0  0  0  0  0  0  0  0
  143.6881  133.8145  153.9919 H   0  0  0  0  0  0  0  0  0  0  0  0
  144.0879  135.5040  154.0148 H   0  0  0  0  0  0  0  0  0  0  0  0
  143.4784  134.6316  151.7792 H   0  0  0  0  0  0  0  0  0  0  0  0
  144.9045  136.6668  151.9992 H   0  0  0  0  0  0  0  0  0  0  0  0
  145.1958  135.8303  150.4911 H   0  0  0  0  0  0  0  0  0  0  0  0
  146.3507  135.6899  151.8147 H   0  0  0  0  0  0  0  0  0  0  0  0
  144.3565  132.5274  151.9541 H   0  0  0  0  0  0  0  0  0  0  0  0
  1  2  1  0  0  0  0
  1 28  1  0  0  0  0
  1 29  1  0  0  0  0
  1 30  1  0  0  0  0
  2  3  1  0  0  0  0
  2  4  1  0  0  0  0
  2 31  1  0  0  0  0
  3 32  1  0  0  0  0
  4  5  1  0  0  0  0
  4 33  1  0  0  0  0
  4 34  1  0  0  0  0
  5 26  1  0  0  0  0
  5  6  1  0  0  0  0
  5 56  1  0  0  0  0
  6  7  1  0  0  0  0
  6 35  1  0  0  0  0
  6 36  1  0  0  0  0
  7  8  1  0  0  0  0
  7 37  1  0  0  0  0
  7 38  1  0  0  0  0
  8  9  1  0  0  0  0
  8 25  1  0  0  0  0
  9 14  1  0  0  0  0
  9 10  2  0  0  0  0
 10 11  1  0  0  0  0
 11 12  2  0  0  0  0
 11 39  1  0  0  0  0
 12 13  1  0  0  0  0
 13 17  1  0  0  0  0
 13 14  2  0  0  0  0
 14 15  1  0  0  0  0
 15 16  2  0  0  0  0
 16 17  1  0  0  0  0
 16 40  1  0  0  0  0
 17 18  1  0  0  0  0
 18 19  1  0  0  0  0
 18 41  1  0  0  0  0
 18 42  1  0  0  0  0
 19 24  1  0  0  0  0
 19 20  1  0  0  0  0
 19 21  1  0  0  0  0
 20 43  1  0  0  0  0
 21 22  1  0  0  0  0
 21 44  1  0  0  0  0
 21 45  1  0  0  0  0
 22 23  1  0  0  0  0
 22 46  1  0  0  0  0
 22 47  1  0  0  0  0
 23 24  1  0  0  0  0
 24 48  1  0  0  0  0
 24 49  1  0  0  0  0
 25 26  1  0  0  0  0
 25 50  1  0  0  0  0
 25 51  1  0  0  0  0
 26 27  1  0  0  0  0
 26 52  1  0  0  0  0
 27 53  1  0  0  0  0
 27 54  1  0  0  0  0
 27 55  1  0  0  0  0
M  CHG  1   5   1
M  END
> <s_m_source_file>
AV-unprocessed.smi

> <i_m_source_file_index>
224

> <i_lp_mmshare_version>
43012

> <i_f3d_flags>
0

> <s_epik_input>
W0NIM11bQ0BIXShbT0hdKVtDSDJdTjFbQ0gyXVtDSDJdTihbQ0gyXVtDQEhdMVtDSDNdKWMobltjSF1uMiljKGMyMyluW2NIXW4zW0NIMl1bQ0BAXTQoW09IXSlbQ0gyXVtDSDJdT1tDSDJdNA==

> <s_epik_cmdline>
J2VwaWtfcHl0aG9uJywgJy1waCcsICc3LjAnLCAnLXRuJywgJzgnLCAnLW1hJywgJzIwMCcsICctbWV0YWxfYmluZGluZycsICctaW1hZScsICc8aW5maWxlLm1hZT4nLCAnLW9tYWUnLCAnPG91dGZpbGUubWFlPic=

> <r_lp_tautomer_probability>
1

> <r_epik_Ionization_Penalty>
0.00516958

> <r_epik_Ionization_Penalty_Charging>
0.00509693

> <r_epik_Ionization_Penalty_Neutral>
7.26542e-05

> <r_epik_State_Penalty>
-0

> <r_epik_Charging_Adjusted_Penalty>
0.00509693

> <i_epik_Tot_Q>
1

> <i_epik_Tot_abs_Q>
1

> <r_epik_Metal_State_Penalty>
-0

> <b_epik_Metal_Only>
0

> <s_lp_Force_Field>
OPLS_2005

> <r_lp_Energy>
50.9618

> <b_lp_Chiralities_Consistent>
1

> <s_lp_Variant>
AV-unprocessed.smi:224-8

> <Gold.Version>
5.8.1

> <Gold.Id.Protein>
6NUR|6NUR_protein|mol2

> <Gold.PLP.Fitness>
46.6595

> <Gold.PLP.PLP>
-36.8047

> <Gold.PLP.part.hbond>
-4.9801

> <Gold.PLP.part.metal>
0.0000

> <Gold.PLP.part.buried>
-1.2286

> <Gold.PLP.part.nonpolar>
-30.0478

> <Gold.PLP.part.repulsive>
0.2391

> <Gold.PLP.ligand.clash>
0.0000

> <Gold.PLP.ligand.torsion>
0.5015

> <Gold.PLP.Chemscore.Hbond>
3.5400

> <Gold.PLP.Chemscore.CHOScore>
0.0000

> <Gold.PLP.Chemscore.Metal>
0.0000

> <Gold.Chemscore.Hbonds>
donor molecule, donor type, donor heavy atom, donor atom, acceptor molecule, acceptor atom, score
      L1  H     3    32       P1 10952  0.66
      L1  H    20    43       P1  7949  0.32
      P1  H  7989  7998       L1    23  0.15
      P1  H 10752 10763       L1    20  1.00
      P1  H 10785 10796       L1     3  0.90

> <Gold.PLP.Chemscore.Internal.Correction>
0.2379

> <Gold.Rescore>
     Score         DG    S(hbond)    S(metal)    S(lipo)     H(rot)  DE(clash)    DE(int)     intcor
     15.21     -17.37       2.59        0.00      93.95       3.02       0.70       1.46       ----

> <Gold.Chemscore.Fitness>
15.2057

> <Gold.Chemscore.DG>
-17.3693

> <Gold.Chemscore.ZeroCoef>
-5.4800

> <Gold.Chemscore.Hbond>
2.5857

> <Gold.Chemscore.Metal>
0.0000

> <Gold.Chemscore.Lipo>
93.9492

> <Gold.Chemscore.Internal_Hbond>
0.0000

> <Gold.Chemscore.DEClash>
0.7007

> <Gold.Chemscore.DEInternal>
1.4630

> <Gold.Chemscore.Rot>
3.0231

> <Gold.Chemscore.Internal.Correction>
   9.000000E+99

> <Gold.Chemscore.Hbonds>
donor molecule, donor type, donor heavy atom, donor atom, acceptor molecule, acceptor atom, score
      L1  H     3    32       P1 10952  0.56
      L1  H    20    43       P1  7949  0.18
      P1  H 10752 10763       L1    20  0.87
      P1  H 10785 10796       L1     3  0.17

> <Gold.Chemscore.Hbond.Weighted>
-8.6364

> <Gold.Chemscore.Metal.Weighted>
-0.0000

> <Gold.Chemscore.Lipo.Weighted>
-10.9921

> <Gold.Chemscore.Internal_Hbond.Weighted>
0.0000

> <Gold.Chemscore.DEClash.Weighted>
0.7007

> <Gold.Chemscore.DEInternal.Weighted>
1.4630

> <Gold.Chemscore.Rot.Weighted>
7.7391

> <Gold.Chemscore.Internal.Correction.Weighted>
   9.000000E+99

> <Gold.Protein.RotatedTorsions>
[ 6907 6896 6895 6894 ] final -159.25 input  -60.11 | X-H torsion
[ 7974 7965 7964 7962 ] final  -90.48 input  175.53 | X-H torsion
[ 8008 7997 7996 7995 ] final  -39.07 input   59.86 | X-H torsion
[ 10167 10162 10161 10158 ] final  141.92 input  -65.29 | X-H torsion
[ 10718 10713 10712 10709 ] final   13.99 input   66.30 | X-H torsion
[ 10763 10752 10751 10750 ] final   22.36 input  -60.55 | X-H torsion
[ 11005 11000 10999 10996 ] final  169.54 input  -57.11 | X-H torsion

> <Gold.Protein.ActiveResidues>
 VAL166  LYS551  ARG553  GLY616  TRP617  ASP618  TYR619  PRO620  LYS621  CYS622 
 ASP623  PHE694  ASN695  SER759  ASP760  ASP761  ALA762  ILE779  LEU786  VAL792 
 PHE793  MET794  SER795  GLU796  ALA797  LYS798  CYS799  TRP800  GLU811  SER814 

> <Gold.Protein.RotatedAtoms>
  151.3307  133.4001  159.2662 H   0  0  0  0  0  0  0  0  0  0  0  0  # atno 6907 bound_to 6896
  150.9958  134.9282  159.7936 H   0  0  0  0  0  0  0  0  0  0  0  0  # atno 6908 bound_to 6896
  152.5260  134.3272  159.9222 H   0  0  0  0  0  0  0  0  0  0  0  0  # atno 6909 bound_to 6896
  145.4259  140.9553  143.2155 H   0  0  0  0  0  0  0  0  0  0  0  0  # atno 7974 bound_to 7965
  154.4028  140.1561  156.2804 H   0  0  0  0  0  0  0  0  0  0  0  0  # atno 8008 bound_to 7997
  155.8875  140.3440  155.5910 H   0  0  0  0  0  0  0  0  0  0  0  0  # atno 8009 bound_to 7997
  155.7597  140.0816  157.2152 H   0  0  0  0  0  0  0  0  0  0  0  0  # atno 8010 bound_to 7997
  139.5008  144.6141  151.6205 H   0  0  0  0  0  0  0  0  0  0  0  0  # atno 10167 bound_to 10162
  157.0327  130.6199  149.5738 H   0  0  0  0  0  0  0  0  0  0  0  0  # atno 10718 bound_to 10713
  153.0922  135.6650  153.9833 H   0  0  0  0  0  0  0  0  0  0  0  0  # atno 10763 bound_to 10752
  153.9426  135.2992  155.3443 H   0  0  0  0  0  0  0  0  0  0  0  0  # atno 10764 bound_to 10752
  154.7337  135.5111  153.9080 H   0  0  0  0  0  0  0  0  0  0  0  0  # atno 10765 bound_to 10752
  140.2989  134.7612  157.3900 H   0  0  0  0  0  0  0  0  0  0  0  0  # atno 11005 bound_to 11000
  144.8215  139.5784  143.6985 LP  0  0  0  0  0  0  0  0  0  0  0  0  # atno 17320 bound_to 7965
  146.2633  139.6460  142.9347 LP  0  0  0  0  0  0  0  0  0  0  0  0  # atno 17321 bound_to 7965
  140.5824  143.9923  150.6276 LP  0  0  0  0  0  0  0  0  0  0  0  0  # atno 17342 bound_to 10162
  140.3077  143.3219  152.0910 LP  0  0  0  0  0  0  0  0  0  0  0  0  # atno 17343 bound_to 10162
  156.0064  130.5151  150.7844 LP  0  0  0  0  0  0  0  0  0  0  0  0  # atno 17370 bound_to 10713
  157.5165  131.0929  151.0132 LP  0  0  0  0  0  0  0  0  0  0  0  0  # atno 17371 bound_to 10713
  140.1127  134.5324  155.8251 LP  0  0  0  0  0  0  0  0  0  0  0  0  # atno 17394 bound_to 11000
  141.2132  133.6730  156.6720 LP  0  0  0  0  0  0  0  0  0  0  0  0  # atno 17395 bound_to 11000

$$$$
