AV-unprocessed.smi:223|AV-procd|sdf|1706|dock9
  -GOLD-   2262020173D 1   1.00000     0.00000
 Structure written by MMmdl.
 47 50  0  0  0  0  0  0  0  0  1 V2000
  147.0346  142.1843  154.2968 C   0  0  0  0  0  0  0  0  0  0  0  0
  147.9269  141.0650  154.8459 C   0  0  1  0  0  0  0  0  0  0  0  0
  147.6910  139.8122  154.1094 C   0  0  0  0  0  0  0  0  0  0  0  0
  147.5074  138.8273  153.5305 N   0  0  0  0  0  0  0  0  0  0  0  0
  149.4113  141.4852  154.8337 C   0  0  0  0  0  0  0  0  0  0  0  0
  150.2425  140.7573  155.7928 N   0  0  0  0  0  0  0  0  0  0  0  0
  150.6380  139.5017  155.4455 C   0  0  0  0  0  0  0  0  0  0  0  0
  151.2567  139.3086  154.2493 N   0  0  0  0  0  0  0  0  0  0  0  0
  151.6382  138.0865  153.8693 C   0  0  0  0  0  0  0  0  0  0  0  0
  151.5044  136.9317  154.5218 N   0  0  0  0  0  0  0  0  0  0  0  0
  150.8956  137.1135  155.7279 C   0  0  0  0  0  0  0  0  0  0  0  0
  150.4305  138.3502  156.2615 C   0  0  0  0  0  0  0  0  0  0  0  0
  149.8659  138.1337  157.5135 N   0  0  0  0  0  0  0  0  0  0  0  0
  149.9821  136.8486  157.7039 C   0  0  0  0  0  0  0  0  0  0  0  0
  150.6009  136.1590  156.6865 N   0  0  0  0  0  0  0  0  0  0  0  0
  150.8693  134.7291  156.6365 C   0  0  0  0  0  0  0  0  0  0  0  0
  149.6378  133.8773  156.2409 C   0  0  2  0  0  0  0  0  0  0  0  0
  148.6004  134.1061  157.1768 O   0  0  0  0  0  0  0  0  0  0  0  0
  149.9515  132.3797  156.2014 C   0  0  0  0  0  0  0  0  0  0  0  0
  149.9305  132.0463  154.7145 C   0  0  0  0  0  0  0  0  0  0  0  0
  148.9143  132.9000  154.2206 O   0  0  0  0  0  0  0  0  0  0  0  0
  149.1113  134.1713  154.8218 C   0  0  0  0  0  0  0  0  0  0  0  0
  151.1250  141.5450  156.6506 C   0  0  0  0  0  0  0  0  0  0  0  0
  151.3050  141.1349  158.0954 C   0  0  0  0  0  0  0  0  0  0  0  0
  150.5112  142.3737  157.7545 C   0  0  0  0  0  0  0  0  0  0  0  0
  145.9825  141.9011  154.3387 H   0  0  0  0  0  0  0  0  0  0  0  0
  147.2779  142.4092  153.2580 H   0  0  0  0  0  0  0  0  0  0  0  0
  147.1537  143.1004  154.8756 H   0  0  0  0  0  0  0  0  0  0  0  0
  147.6160  140.8736  155.8730 H   0  0  0  0  0  0  0  0  0  0  0  0
  149.8159  141.3237  153.8338 H   0  0  0  0  0  0  0  0  0  0  0  0
  149.5049  142.5559  155.0076 H   0  0  0  0  0  0  0  0  0  0  0  0
  152.1179  138.0254  152.9036 H   0  0  0  0  0  0  0  0  0  0  0  0
  149.6212  136.3679  158.6013 H   0  0  0  0  0  0  0  0  0  0  0  0
  151.6825  134.5613  155.9291 H   0  0  0  0  0  0  0  0  0  0  0  0
  151.2462  134.4178  157.6117 H   0  0  0  0  0  0  0  0  0  0  0  0
  147.8474  134.4393  156.7133 H   0  0  0  0  0  0  0  0  0  0  0  0
  150.9017  132.1212  156.6701 H   0  0  0  0  0  0  0  0  0  0  0  0
  149.1729  131.8027  156.7036 H   0  0  0  0  0  0  0  0  0  0  0  0
  150.8831  132.2928  154.2429 H   0  0  0  0  0  0  0  0  0  0  0  0
  149.7074  130.9971  154.5196 H   0  0  0  0  0  0  0  0  0  0  0  0
  148.1966  134.7655  154.8079 H   0  0  0  0  0  0  0  0  0  0  0  0
  149.8565  134.6998  154.2268 H   0  0  0  0  0  0  0  0  0  0  0  0
  152.0034  141.9682  156.1680 H   0  0  0  0  0  0  0  0  0  0  0  0
  150.7526  140.2670  158.4509 H   0  0  0  0  0  0  0  0  0  0  0  0
  152.2906  141.2724  158.5349 H   0  0  0  0  0  0  0  0  0  0  0  0
  150.9664  143.3387  157.9673 H   0  0  0  0  0  0  0  0  0  0  0  0
  149.4318  142.3281  157.8852 H   0  0  0  0  0  0  0  0  0  0  0  0
  1  2  1  0  0  0  0
  1 26  1  0  0  0  0
  1 27  1  0  0  0  0
  1 28  1  0  0  0  0
  2  3  1  0  0  0  0
  2  5  1  0  0  0  0
  2 29  1  0  0  0  0
  3  4  3  0  0  0  0
  5  6  1  0  0  0  0
  5 30  1  0  0  0  0
  5 31  1  0  0  0  0
  6  7  1  0  0  0  0
  6 23  1  0  0  0  0
  7 12  1  0  0  0  0
  7  8  2  0  0  0  0
  8  9  1  0  0  0  0
  9 10  2  0  0  0  0
  9 32  1  0  0  0  0
 10 11  1  0  0  0  0
 11 15  1  0  0  0  0
 11 12  2  0  0  0  0
 12 13  1  0  0  0  0
 13 14  2  0  0  0  0
 14 15  1  0  0  0  0
 14 33  1  0  0  0  0
 15 16  1  0  0  0  0
 16 17  1  0  0  0  0
 16 34  1  0  0  0  0
 16 35  1  0  0  0  0
 17 22  1  0  0  0  0
 17 18  1  0  0  0  0
 17 19  1  0  0  0  0
 18 36  1  0  0  0  0
 19 20  1  0  0  0  0
 19 37  1  0  0  0  0
 19 38  1  0  0  0  0
 20 21  1  0  0  0  0
 20 39  1  0  0  0  0
 20 40  1  0  0  0  0
 21 22  1  0  0  0  0
 22 41  1  0  0  0  0
 22 42  1  0  0  0  0
 23 25  1  0  0  0  0
 23 24  1  0  0  0  0
 23 43  1  0  0  0  0
 24 25  1  0  0  0  0
 24 44  1  0  0  0  0
 24 45  1  0  0  0  0
 25 46  1  0  0  0  0
 25 47  1  0  0  0  0
M  END
> <s_m_source_file>
AV-unprocessed.smi

> <i_m_source_file_index>
223

> <i_lp_mmshare_version>
43012

> <i_f3d_flags>
0

> <s_epik_input>
TiNDW0NAQEhdKFtDSDNdKVtDSDJdTihbQ0hdMVtDSDJdW0NIMl0xKWMobltjSF1uMiljKGMyMyluW2NIXW4zW0NIMl1bQ0BAXTQoW09IXSlbQ0gyXVtDSDJdT1tDSDJdNA==

> <s_epik_cmdline>
J2VwaWtfcHl0aG9uJywgJy1waCcsICc3LjAnLCAnLXRuJywgJzgnLCAnLW1hJywgJzIwMCcsICctbWV0YWxfYmluZGluZycsICctaW1hZScsICc8aW5maWxlLm1hZT4nLCAnLW9tYWUnLCAnPG91dGZpbGUubWFlPic=

> <r_lp_tautomer_probability>
1

> <r_epik_Ionization_Penalty>
0.000756152

> <r_epik_Ionization_Penalty_Charging>
0

> <r_epik_Ionization_Penalty_Neutral>
0.000756152

> <r_epik_State_Penalty>
0.00038036

> <r_epik_Charging_Adjusted_Penalty>
0.00038036

> <i_epik_Tot_Q>
0

> <i_epik_Tot_abs_Q>
0

> <r_epik_Metal_State_Penalty>
-0

> <b_epik_Metal_Only>
0

> <s_lp_Force_Field>
OPLS_2005

> <r_lp_Energy>
37.1983

> <b_lp_Chiralities_Consistent>
1

> <s_lp_Variant>
AV-unprocessed.smi:223-4

> <Gold.Version>
5.8.1

> <Gold.Id.Protein>
6NUR|6NUR_protein|mol2

> <Gold.PLP.Fitness>
38.5486

> <Gold.PLP.PLP>
-35.1445

> <Gold.PLP.part.hbond>
-2.0000

> <Gold.PLP.part.metal>
0.0000

> <Gold.PLP.part.buried>
-4.9789

> <Gold.PLP.part.nonpolar>
-28.7433

> <Gold.PLP.part.repulsive>
1.1291

> <Gold.PLP.ligand.clash>
0.0000

> <Gold.PLP.ligand.torsion>
2.2882

> <Gold.PLP.Chemscore.Hbond>
2.0000

> <Gold.PLP.Chemscore.CHOScore>
0.2170

> <Gold.PLP.Chemscore.Metal>
0.0000

> <Gold.Chemscore.Hbonds>
donor molecule, donor type, donor heavy atom, donor atom, acceptor molecule, acceptor atom, score
      P1  H  7989  7998       L1     8  1.00
      P1  H 10752 10764       L1    10  1.00
      L1  C     9    32       P1  7949  0.46

> <Gold.PLP.Chemscore.Internal.Correction>
1.3296

> <Gold.Rescore>
     Score         DG    S(hbond)    S(metal)    S(lipo)     H(rot)  DE(clash)    DE(int)     intcor
      9.48     -11.79       1.71        0.00      64.42       2.72       0.12       2.19       ----

> <Gold.Chemscore.Fitness>
9.4782

> <Gold.Chemscore.DG>
-11.7866

> <Gold.Chemscore.ZeroCoef>
-5.4800

> <Gold.Chemscore.Hbond>
1.7143

> <Gold.Chemscore.Metal>
0.0000

> <Gold.Chemscore.Lipo>
64.4160

> <Gold.Chemscore.Internal_Hbond>
0.0000

> <Gold.Chemscore.DEClash>
0.1227

> <Gold.Chemscore.DEInternal>
2.1857

> <Gold.Chemscore.Rot>
2.7171

> <Gold.Chemscore.Internal.Correction>
   9.000000E+99

> <Gold.Chemscore.Hbonds>
donor molecule, donor type, donor heavy atom, donor atom, acceptor molecule, acceptor atom, score
      P1  H  7989  7998       L1     8  0.78
      P1  H 10752 10764       L1    10  0.87

> <Gold.Chemscore.Hbond.Weighted>
-5.7257

> <Gold.Chemscore.Metal.Weighted>
-0.0000

> <Gold.Chemscore.Lipo.Weighted>
-7.5367

> <Gold.Chemscore.Internal_Hbond.Weighted>
0.0000

> <Gold.Chemscore.DEClash.Weighted>
0.1227

> <Gold.Chemscore.DEInternal.Weighted>
2.1857

> <Gold.Chemscore.Rot.Weighted>
6.9558

> <Gold.Chemscore.Internal.Correction.Weighted>
   9.000000E+99

> <Gold.Protein.RotatedTorsions>
[ 6907 6896 6895 6894 ] final -135.07 input  -60.11 | X-H torsion
[ 7974 7965 7964 7962 ] final -170.86 input  175.53 | X-H torsion
[ 8008 7997 7996 7995 ] final  -98.62 input   59.86 | X-H torsion
[ 10167 10162 10161 10158 ] final  140.89 input  -65.29 | X-H torsion
[ 10718 10713 10712 10709 ] final  -21.92 input   66.30 | X-H torsion
[ 10763 10752 10751 10750 ] final  -81.70 input  -60.55 | X-H torsion
[ 11005 11000 10999 10996 ] final  108.55 input  -57.11 | X-H torsion

> <Gold.Protein.ActiveResidues>
 VAL166  LYS551  ARG553  GLY616  TRP617  ASP618  TYR619  PRO620  LYS621  CYS622 
 ASP623  PHE694  ASN695  SER759  ASP760  ASP761  ALA762  ILE779  LEU786  VAL792 
 PHE793  MET794  SER795  GLU796  ALA797  LYS798  CYS799  TRP800  GLU811  SER814 

> <Gold.Protein.RotatedAtoms>
  150.9934  133.6127  159.2704 H   0  0  0  0  0  0  0  0  0  0  0  0  # atno 6907 bound_to 6896
  151.3339  135.0847  159.9358 H   0  0  0  0  0  0  0  0  0  0  0  0  # atno 6908 bound_to 6896
  152.5252  133.9558  159.7748 H   0  0  0  0  0  0  0  0  0  0  0  0  # atno 6909 bound_to 6896
  144.7164  140.2009  143.6338 H   0  0  0  0  0  0  0  0  0  0  0  0  # atno 7974 bound_to 7965
  154.8036  140.0454  157.1291 H   0  0  0  0  0  0  0  0  0  0  0  0  # atno 8008 bound_to 7997
  154.9450  140.3057  155.5082 H   0  0  0  0  0  0  0  0  0  0  0  0  # atno 8009 bound_to 7997
  156.2964  140.2298  156.4522 H   0  0  0  0  0  0  0  0  0  0  0  0  # atno 8010 bound_to 7997
  139.5036  144.6206  151.6061 H   0  0  0  0  0  0  0  0  0  0  0  0  # atno 10167 bound_to 10162
  156.5116  130.4611  149.6645 H   0  0  0  0  0  0  0  0  0  0  0  0  # atno 10718 bound_to 10713
  154.5667  135.5617  153.7057 H   0  0  0  0  0  0  0  0  0  0  0  0  # atno 10763 bound_to 10752
  153.0035  135.6287  154.2170 H   0  0  0  0  0  0  0  0  0  0  0  0  # atno 10764 bound_to 10752
  154.2109  135.2873  155.2938 H   0  0  0  0  0  0  0  0  0  0  0  0  # atno 10765 bound_to 10752
  139.8846  134.9434  156.5990 H   0  0  0  0  0  0  0  0  0  0  0  0  # atno 11005 bound_to 11000
  145.8681  139.2257  143.1677 LP  0  0  0  0  0  0  0  0  0  0  0  0  # atno 17320 bound_to 7965
  146.0111  140.8435  142.9970 LP  0  0  0  0  0  0  0  0  0  0  0  0  # atno 17321 bound_to 7965
  140.5907  143.9785  150.6322 LP  0  0  0  0  0  0  0  0  0  0  0  0  # atno 17342 bound_to 10162
  140.2965  143.3289  152.1013 LP  0  0  0  0  0  0  0  0  0  0  0  0  # atno 17343 bound_to 10162
  156.3235  130.7293  151.2210 LP  0  0  0  0  0  0  0  0  0  0  0  0  # atno 17370 bound_to 10713
  157.7450  131.0449  150.4817 LP  0  0  0  0  0  0  0  0  0  0  0  0  # atno 17371 bound_to 10713
  140.7898  133.8592  155.8636 LP  0  0  0  0  0  0  0  0  0  0  0  0  # atno 17394 bound_to 11000
  140.9687  134.1559  157.4594 LP  0  0  0  0  0  0  0  0  0  0  0  0  # atno 17395 bound_to 11000

$$$$
