AV-unprocessed.smi:690|AV-procd|sdf|3362|dock1
  -GOLD-   22720 0343D 1   1.00000     0.00000
 Structure written by MMmdl.
 46 48  0  0  0  0  0  0  0  0  1 V2000
  146.6314  138.0152  151.3419 C   0  0  0  0  0  0  0  0  0  0  0  0
  146.7769  139.1316  152.3779 C   0  0  0  0  0  0  0  0  0  0  0  0
  147.8860  138.8395  153.2106 O   0  0  0  0  0  0  0  0  0  0  0  0
  147.7537  139.3796  154.5159 C   0  0  2  0  0  0  0  0  0  0  0  0
  147.6032  140.9032  154.5684 C   0  0  0  0  0  0  0  0  0  0  0  0
  148.4729  140.8334  155.8274 C   0  0  2  0  0  0  0  0  0  0  0  0
  149.4016  141.9510  155.9469 N   0  0  0  0  0  0  0  0  0  0  0  0
  150.5878  141.8899  156.5673 C   0  0  0  0  0  0  0  0  0  0  0  0
  151.0093  140.8707  157.1153 O   0  0  0  0  0  0  0  0  0  0  0  0
  151.4057  143.1888  156.5861 C   0  0  0  0  0  0  0  0  0  0  0  0
  151.4285  143.8381  157.9072 N   0  0  0  0  0  0  0  0  0  0  0  0
  150.6696  145.0160  158.0584 C   0  0  0  0  0  0  0  0  0  0  0  0
  150.6190  145.6832  159.2220 C   0  0  0  0  0  0  0  0  0  0  0  0
  151.3709  145.1641  160.3399 C   0  0  0  0  0  0  0  0  0  0  0  0
  152.0984  144.0371  160.2068 C   0  0  0  0  0  0  0  0  0  0  0  0
  152.1556  143.3038  158.9370 C   0  0  0  0  0  0  0  0  0  0  0  0
  152.8171  142.2734  158.8067 O   0  0  0  0  0  0  0  0  0  0  0  0
  149.1036  139.5380  155.2594 C   0  0  0  0  0  0  0  0  0  0  0  0
  150.3726  139.6333  154.4015 C   0  0  0  0  0  0  0  0  0  0  0  0
  150.9131  138.2092  154.2605 C   0  0  0  0  0  0  0  0  0  0  0  0
  150.3863  137.4480  155.4817 C   0  0  0  0  0  0  0  0  0  0  0  0
  149.4870  138.4328  156.2374 C   0  0  0  0  0  0  0  0  0  0  0  0
  145.7821  138.2016  150.6846 H   0  0  0  0  0  0  0  0  0  0  0  0
  146.4750  137.0511  151.8262 H   0  0  0  0  0  0  0  0  0  0  0  0
  147.5246  137.9383  150.7215 H   0  0  0  0  0  0  0  0  0  0  0  0
  146.9208  140.0892  151.8759 H   0  0  0  0  0  0  0  0  0  0  0  0
  145.8672  139.2046  152.9756 H   0  0  0  0  0  0  0  0  0  0  0  0
  147.0056  138.8619  155.1213 H   0  0  0  0  0  0  0  0  0  0  0  0
  148.0806  141.4131  153.7293 H   0  0  0  0  0  0  0  0  0  0  0  0
  146.5856  141.2571  154.7343 H   0  0  0  0  0  0  0  0  0  0  0  0
  147.8835  140.6445  156.7281 H   0  0  0  0  0  0  0  0  0  0  0  0
  149.1248  142.8261  155.5261 H   0  0  0  0  0  0  0  0  0  0  0  0
  152.4252  142.9857  156.2524 H   0  0  0  0  0  0  0  0  0  0  0  0
  150.9886  143.8608  155.8350 H   0  0  0  0  0  0  0  0  0  0  0  0
  150.1314  145.3338  157.1771 H   0  0  0  0  0  0  0  0  0  0  0  0
  150.0286  146.5822  159.3207 H   0  0  0  0  0  0  0  0  0  0  0  0
  151.3488  145.6812  161.2880 H   0  0  0  0  0  0  0  0  0  0  0  0
  152.6536  143.6629  161.0544 H   0  0  0  0  0  0  0  0  0  0  0  0
  150.1962  140.0924  153.4283 H   0  0  0  0  0  0  0  0  0  0  0  0
  151.1275  140.2405  154.9024 H   0  0  0  0  0  0  0  0  0  0  0  0
  150.5275  137.7528  153.3481 H   0  0  0  0  0  0  0  0  0  0  0  0
  152.0018  138.1929  154.2008 H   0  0  0  0  0  0  0  0  0  0  0  0
  149.8125  136.5789  155.1574 H   0  0  0  0  0  0  0  0  0  0  0  0
  151.1963  137.0874  156.1161 H   0  0  0  0  0  0  0  0  0  0  0  0
  150.0406  138.8581  157.0757 H   0  0  0  0  0  0  0  0  0  0  0  0
  148.6170  137.9295  156.6605 H   0  0  0  0  0  0  0  0  0  0  0  0
  1  2  1  0  0  0  0
  1 23  1  0  0  0  0
  1 24  1  0  0  0  0
  1 25  1  0  0  0  0
  2  3  1  0  0  0  0
  2 26  1  0  0  0  0
  2 27  1  0  0  0  0
  3  4  1  0  0  0  0
  4 18  1  0  0  0  0
  4  5  1  0  0  0  0
  4 28  1  0  0  0  0
  5  6  1  0  0  0  0
  5 29  1  0  0  0  0
  5 30  1  0  0  0  0
  6  7  1  0  0  0  0
  6 18  1  0  0  0  0
  6 31  1  0  0  0  0
  7  8  1  0  0  0  0
  7 32  1  0  0  0  0
  8  9  2  0  0  0  0
  8 10  1  0  0  0  0
 10 11  1  0  0  0  0
 10 33  1  0  0  0  0
 10 34  1  0  0  0  0
 11 16  1  0  0  0  0
 11 12  1  0  0  0  0
 12 13  2  0  0  0  0
 12 35  1  0  0  0  0
 13 14  1  0  0  0  0
 13 36  1  0  0  0  0
 14 15  2  0  0  0  0
 14 37  1  0  0  0  0
 15 16  1  0  0  0  0
 15 38  1  0  0  0  0
 16 17  2  0  0  0  0
 18 22  1  0  0  0  0
 18 19  1  0  0  0  0
 19 20  1  0  0  0  0
 19 39  1  0  0  0  0
 19 40  1  0  0  0  0
 20 21  1  0  0  0  0
 20 41  1  0  0  0  0
 20 42  1  0  0  0  0
 21 22  1  0  0  0  0
 21 43  1  0  0  0  0
 21 44  1  0  0  0  0
 22 45  1  0  0  0  0
 22 46  1  0  0  0  0
M  END
> <s_m_source_file>
AV-unprocessed.smi

> <i_m_source_file_index>
690

> <i_lp_mmshare_version>
43012

> <i_f3d_flags>
0

> <s_epik_input>
W0NIMl0xW0NIMl1bQ0gyXVtDSDJdQzEyW0NASF0oT1tDSDJdW0NIM10pW0NIMl1bQ0BIXTJbTkhdQyg9TylbQ0gyXW4zW2NIXVtjSF1bY0hdW2NIXWMzPU8=

> <s_epik_cmdline>
J2VwaWtfcHl0aG9uJywgJy1waCcsICc3LjAnLCAnLXRuJywgJzgnLCAnLW1hJywgJzIwMCcsICctbWV0YWxfYmluZGluZycsICctaW1hZScsICc8aW5maWxlLm1hZT4nLCAnLW9tYWUnLCAnPG91dGZpbGUubWFlPic=

> <r_lp_tautomer_probability>
1

> <r_epik_Ionization_Penalty>
4.11691e-07

> <r_epik_Ionization_Penalty_Charging>
3.92797e-07

> <r_epik_Ionization_Penalty_Neutral>
1.88943e-08

> <r_epik_State_Penalty>
-0

> <r_epik_Charging_Adjusted_Penalty>
3.92797e-07

> <i_epik_Tot_Q>
0

> <i_epik_Tot_abs_Q>
0

> <r_epik_Metal_State_Penalty>
-0

> <b_epik_Metal_Only>
0

> <s_lp_Force_Field>
OPLS_2005

> <r_lp_Energy>
45.5322

> <b_lp_Chiralities_Consistent>
1

> <s_lp_Variant>
AV-unprocessed.smi:690-3

> <Gold.Version>
5.8.1

> <Gold.Id.Protein>
6NUR|6NUR_protein|mol2

> <Gold.PLP.Fitness>
45.3084

> <Gold.PLP.PLP>
-40.8513

> <Gold.PLP.part.hbond>
-1.0000

> <Gold.PLP.part.metal>
0.0000

> <Gold.PLP.part.buried>
-2.2600

> <Gold.PLP.part.nonpolar>
-39.2393

> <Gold.PLP.part.repulsive>
1.5377

> <Gold.PLP.ligand.clash>
0.0000

> <Gold.PLP.ligand.torsion>
0.7823

> <Gold.PLP.Chemscore.Hbond>
1.0000

> <Gold.PLP.Chemscore.CHOScore>
0.8809

> <Gold.PLP.Chemscore.Metal>
0.0000

> <Gold.Chemscore.Hbonds>
donor molecule, donor type, donor heavy atom, donor atom, acceptor molecule, acceptor atom, score
      L1  H     7    32       P1  8028  1.00
      L1  C    12    35       P1  8028  0.40

> <Gold.PLP.Chemscore.Internal.Correction>
0.3791

> <Gold.Rescore>
     Score         DG    S(hbond)    S(metal)    S(lipo)     H(rot)  DE(clash)    DE(int)     intcor
     10.43     -18.25       0.97        0.00     118.52       1.69       4.70       3.12       ----

> <Gold.Chemscore.Fitness>
10.4254

> <Gold.Chemscore.DG>
-18.2537

> <Gold.Chemscore.ZeroCoef>
-5.4800

> <Gold.Chemscore.Hbond>
0.9680

> <Gold.Chemscore.Metal>
0.0000

> <Gold.Chemscore.Lipo>
118.5207

> <Gold.Chemscore.Internal_Hbond>
0.0000

> <Gold.Chemscore.DEClash>
4.7045

> <Gold.Chemscore.DEInternal>
3.1238

> <Gold.Chemscore.Rot>
1.6900

> <Gold.Chemscore.Internal.Correction>
   9.000000E+99

> <Gold.Chemscore.Hbonds>
donor molecule, donor type, donor heavy atom, donor atom, acceptor molecule, acceptor atom, score
      L1  H     7    32       P1  8028  0.94

> <Gold.Chemscore.Hbond.Weighted>
-3.2332

> <Gold.Chemscore.Metal.Weighted>
-0.0000

> <Gold.Chemscore.Lipo.Weighted>
-13.8669

> <Gold.Chemscore.Internal_Hbond.Weighted>
0.0000

> <Gold.Chemscore.DEClash.Weighted>
4.7045

> <Gold.Chemscore.DEInternal.Weighted>
3.1238

> <Gold.Chemscore.Rot.Weighted>
4.3265

> <Gold.Chemscore.Internal.Correction.Weighted>
   9.000000E+99

> <Gold.Protein.RotatedTorsions>
[ 6907 6896 6895 6894 ] final -164.89 input  -60.11 | X-H torsion
[ 7974 7965 7964 7962 ] final -121.63 input  175.53 | X-H torsion
[ 8008 7997 7996 7995 ] final   -6.21 input   59.86 | X-H torsion
[ 10167 10162 10161 10158 ] final   20.64 input  -65.29 | X-H torsion
[ 10718 10713 10712 10709 ] final  -27.55 input   66.30 | X-H torsion
[ 10763 10752 10751 10750 ] final  108.19 input  -60.55 | X-H torsion
[ 11005 11000 10999 10996 ] final  107.00 input  -57.11 | X-H torsion

> <Gold.Protein.ActiveResidues>
 VAL166  LYS551  ARG553  GLY616  TRP617  ASP618  TYR619  PRO620  LYS621  CYS622 
 ASP623  PHE694  ASN695  SER759  ASP760  ASP761  ALA762  ILE779  LEU786  VAL792 
 PHE793  MET794  SER795  GLU796  ALA797  LYS798  CYS799  TRP800  GLU811  SER814 

> <Gold.Protein.RotatedAtoms>
  151.4190  133.3704  159.2753 H   0  0  0  0  0  0  0  0  0  0  0  0  # atno 6907 bound_to 6896
  150.9308  134.8724  159.7560 H   0  0  0  0  0  0  0  0  0  0  0  0  # atno 6908 bound_to 6896
  152.5027  134.4134  159.9508 H   0  0  0  0  0  0  0  0  0  0  0  0  # atno 6909 bound_to 6896
  145.0382  140.8123  143.4282 H   0  0  0  0  0  0  0  0  0  0  0  0  # atno 7974 bound_to 7965
  154.5960  140.2438  155.7856 H   0  0  0  0  0  0  0  0  0  0  0  0  # atno 8008 bound_to 7997
  156.2279  140.2976  156.0067 H   0  0  0  0  0  0  0  0  0  0  0  0  # atno 8009 bound_to 7997
  155.2292  140.0403  157.2950 H   0  0  0  0  0  0  0  0  0  0  0  0  # atno 8010 bound_to 7997
  140.5488  143.9547  150.6564 H   0  0  0  0  0  0  0  0  0  0  0  0  # atno 10167 bound_to 10162
  156.4368  130.4456  149.7080 H   0  0  0  0  0  0  0  0  0  0  0  0  # atno 10718 bound_to 10713
  153.4173  135.3820  155.2088 H   0  0  0  0  0  0  0  0  0  0  0  0  # atno 10763 bound_to 10752
  154.8742  135.3808  154.4428 H   0  0  0  0  0  0  0  0  0  0  0  0  # atno 10764 bound_to 10752
  153.4943  135.7088  153.5929 H   0  0  0  0  0  0  0  0  0  0  0  0  # atno 10765 bound_to 10752
  139.8822  134.9387  156.5752 H   0  0  0  0  0  0  0  0  0  0  0  0  # atno 11005 bound_to 11000
  145.1682  139.2419  143.5356 LP  0  0  0  0  0  0  0  0  0  0  0  0  # atno 17320 bound_to 7965
  146.3506  140.1426  142.8594 LP  0  0  0  0  0  0  0  0  0  0  0  0  # atno 17321 bound_to 7965
  140.2967  143.3288  152.1011 LP  0  0  0  0  0  0  0  0  0  0  0  0  # atno 17342 bound_to 10162
  139.5018  144.6722  151.6215 LP  0  0  0  0  0  0  0  0  0  0  0  0  # atno 17343 bound_to 10162
  156.3961  130.7651  151.2656 LP  0  0  0  0  0  0  0  0  0  0  0  0  # atno 17370 bound_to 10713
  157.7507  131.0253  150.3916 LP  0  0  0  0  0  0  0  0  0  0  0  0  # atno 17371 bound_to 10713
  140.8068  133.8461  155.8775 LP  0  0  0  0  0  0  0  0  0  0  0  0  # atno 17394 bound_to 11000
  140.9542  134.1739  157.4704 LP  0  0  0  0  0  0  0  0  0  0  0  0  # atno 17395 bound_to 11000

$$$$
