AV-unprocessed.smi:2060|AV-procd|sdf|8359|dock2
  -GOLD-   2272011 33D 1   1.00000     0.00000
 Structure written by MMmdl.
 45 46  0  0  0  0  0  0  0  0  3 V2000
  146.3967  140.7515  154.7480 C   0  0  0  0  0  0  0  0  0  0  0  0
  147.8480  140.3903  154.3598 C   0  0  0  0  0  0  0  0  0  0  0  0
  148.3271  138.9103  154.5840 C   0  0  2  0  0  0  0  0  0  0  0  0
  148.1231  138.5684  156.0957 C   0  0  0  0  0  0  0  0  0  0  0  0
  149.8555  138.7336  154.2464 C   0  0  0  0  0  0  0  0  0  0  0  0
  150.6586  139.8081  154.8427 N   0  5  0  0  0  0  0  0  0  0  0  0
  151.6777  139.6158  155.7239 C   0  0  0  0  0  0  0  0  0  0  0  0
  152.7555  139.0472  155.5152 O   0  0  0  0  0  0  0  0  0  0  0  0
  151.4027  140.1276  156.9377 N   0  0  0  0  0  0  0  0  0  0  0  0
  152.2043  140.1165  158.1100 C   0  0  0  0  0  0  0  0  0  0  0  0
  151.9162  140.9901  159.1925 C   0  0  0  0  0  0  0  0  0  0  0  0
  152.8860  140.6825  160.1047 C   0  0  0  0  0  0  0  0  0  0  0  0
  153.1991  141.2000  161.4666 C   0  0  0  0  0  0  0  0  0  0  0  0
  153.6977  139.7035  159.6214 O   0  0  0  0  0  0  0  0  0  0  0  0
  153.2550  139.3441  158.3429 N   0  0  0  0  0  0  0  0  0  0  0  0
  147.5298  137.9725  153.6934 N   0  3  0  0  0  0  0  0  0  0  0  0
  146.7025  136.9340  154.3741 C   0  0  0  0  0  0  0  0  0  0  0  0
  146.1356  135.9328  153.3519 C   0  0  0  0  0  0  0  0  0  0  0  0
  145.3841  136.6134  152.3576 O   0  0  0  0  0  0  0  0  0  0  0  0
  146.1886  137.5367  151.6386 C   0  0  0  0  0  0  0  0  0  0  0  0
  146.7150  138.6043  152.6083 C   0  0  0  0  0  0  0  0  0  0  0  0
  146.2122  141.8107  154.5686 H   0  0  0  0  0  0  0  0  0  0  0  0
  146.1903  140.5662  155.8020 H   0  0  0  0  0  0  0  0  0  0  0  0
  145.6667  140.1994  154.1569 H   0  0  0  0  0  0  0  0  0  0  0  0
  147.9537  140.6292  153.3008 H   0  0  0  0  0  0  0  0  0  0  0  0
  148.5030  141.0959  154.8750 H   0  0  0  0  0  0  0  0  0  0  0  0
  148.7795  139.1373  156.7578 H   0  0  0  0  0  0  0  0  0  0  0  0
  148.3030  137.5146  156.3190 H   0  0  0  0  0  0  0  0  0  0  0  0
  147.1083  138.7983  156.4220 H   0  0  0  0  0  0  0  0  0  0  0  0
  150.1751  137.7527  154.6002 H   0  0  0  0  0  0  0  0  0  0  0  0
  149.9856  138.7000  153.1647 H   0  0  0  0  0  0  0  0  0  0  0  0
  150.5074  140.5838  157.0279 H   0  0  0  0  0  0  0  0  0  0  0  0
  151.1287  141.7230  159.2861 H   0  0  0  0  0  0  0  0  0  0  0  0
  152.4256  141.8874  161.8095 H   0  0  0  0  0  0  0  0  0  0  0  0
  154.1499  141.7332  161.4670 H   0  0  0  0  0  0  0  0  0  0  0  0
  153.2676  140.3828  162.1848 H   0  0  0  0  0  0  0  0  0  0  0  0
  147.2827  136.3497  155.0852 H   0  0  0  0  0  0  0  0  0  0  0  0
  145.8928  137.4111  154.9277 H   0  0  0  0  0  0  0  0  0  0  0  0
  146.9390  135.3600  152.8856 H   0  0  0  0  0  0  0  0  0  0  0  0
  145.4860  135.2150  153.8531 H   0  0  0  0  0  0  0  0  0  0  0  0
  147.0095  137.0216  151.1366 H   0  0  0  0  0  0  0  0  0  0  0  0
  145.5805  138.0016  150.8624 H   0  0  0  0  0  0  0  0  0  0  0  0
  145.8669  139.1397  153.0364 H   0  0  0  0  0  0  0  0  0  0  0  0
  147.2935  139.3306  152.0385 H   0  0  0  0  0  0  0  0  0  0  0  0
  148.2536  137.4509  153.2169 H   0  0  0  0  0  0  0  0  0  0  0  0
  1  2  1  0  0  0  0
  1 22  1  0  0  0  0
  1 23  1  0  0  0  0
  1 24  1  0  0  0  0
  2  3  1  0  0  0  0
  2 25  1  0  0  0  0
  2 26  1  0  0  0  0
  3  4  1  0  0  0  0
  3  5  1  0  0  0  0
  3 16  1  0  0  0  0
  4 27  1  0  0  0  0
  4 28  1  0  0  0  0
  4 29  1  0  0  0  0
  5  6  1  0  0  0  0
  5 30  1  0  0  0  0
  5 31  1  0  0  0  0
  6  7  1  0  0  0  0
  7  8  2  0  0  0  0
  7  9  1  0  0  0  0
  9 10  1  0  0  0  0
  9 32  1  0  0  0  0
 10 15  2  0  0  0  0
 10 11  1  0  0  0  0
 11 12  2  0  0  0  0
 11 33  1  0  0  0  0
 12 13  1  0  0  0  0
 12 14  1  0  0  0  0
 13 34  1  0  0  0  0
 13 35  1  0  0  0  0
 13 36  1  0  0  0  0
 14 15  1  0  0  0  0
 16 21  1  0  0  0  0
 16 17  1  0  0  0  0
 16 45  1  0  0  0  0
 17 18  1  0  0  0  0
 17 37  1  0  0  0  0
 17 38  1  0  0  0  0
 18 19  1  0  0  0  0
 18 39  1  0  0  0  0
 18 40  1  0  0  0  0
 19 20  1  0  0  0  0
 20 21  1  0  0  0  0
 20 41  1  0  0  0  0
 20 42  1  0  0  0  0
 21 43  1  0  0  0  0
 21 44  1  0  0  0  0
M  CHG  1   6  -1
M  CHG  1  16   1
M  END
> <s_m_source_file>
AV-unprocessed.smi

> <i_m_source_file_index>
2060

> <i_lp_mmshare_version>
43012

> <i_f3d_flags>
0

> <s_epik_input>
W0NIMl0xW0NIMl1PW0NIMl1bQ0gyXU4xW0NAQF0oW0NIM10pKFtDSDJdW0NIM10pW0NIMl1bTkhdQyg9TylbTkhdYzJbY0hdYyhbQ0gzXSlvbjI=

> <s_epik_cmdline>
J2VwaWtfcHl0aG9uJywgJy1waCcsICc3LjAnLCAnLXRuJywgJzgnLCAnLW1hJywgJzIwMCcsICctbWV0YWxfYmluZGluZycsICctaW1hZScsICc8aW5maWxlLm1hZT4nLCAnLW9tYWUnLCAnPG91dGZpbGUubWFlPic=

> <r_epik_Ionization_Penalty>
6.79469

> <r_epik_Ionization_Penalty_Charging>
6.79469

> <r_epik_Ionization_Penalty_Neutral>
5.68576e-06

> <r_epik_State_Penalty>
7.33145

> <r_epik_Charging_Adjusted_Penalty>
14.1261

> <i_epik_Tot_Q>
0

> <i_epik_Tot_abs_Q>
2

> <r_epik_Metal_State_Penalty>
3.24803

> <b_epik_Metal_Only>
1

> <s_lp_Force_Field>
OPLS_2005

> <r_lp_Energy>
28.6548

> <b_lp_Chiralities_Consistent>
1

> <s_lp_Variant>
AV-unprocessed.smi:2060-6

> <Gold.Version>
5.8.1

> <Gold.Id.Protein>
6NUR|6NUR_protein|mol2

> <Gold.PLP.Fitness>
41.3465

> <Gold.PLP.PLP>
-33.8577

> <Gold.PLP.part.hbond>
-4.0000

> <Gold.PLP.part.metal>
0.0000

> <Gold.PLP.part.buried>
2.2510

> <Gold.PLP.part.nonpolar>
-31.0735

> <Gold.PLP.part.repulsive>
0.4600

> <Gold.PLP.ligand.clash>
0.1383

> <Gold.PLP.ligand.torsion>
2.9564

> <Gold.PLP.Chemscore.Hbond>
4.4025

> <Gold.PLP.Chemscore.CHOScore>
0.0000

> <Gold.PLP.Chemscore.Metal>
0.0000

> <Gold.Chemscore.Hbonds>
donor molecule, donor type, donor heavy atom, donor atom, acceptor molecule, acceptor atom, score
      L1  H    16    45       P1  7948  2.00
      P1  H  7989  7998       L1     6  0.95
      P1  H  7997  8009       L1    15  0.44
      P1  H  7997  8010       L1     8  0.36

> <Gold.PLP.Chemscore.Internal.Correction>
0.3324

> <Gold.Rescore>
     Score         DG    S(hbond)    S(metal)    S(lipo)     H(rot)  DE(clash)    DE(int)     intcor
     12.57     -17.81       2.38        0.00      75.32       1.73       0.99       4.24       ----

> <Gold.Chemscore.Fitness>
12.5712

> <Gold.Chemscore.DG>
-17.8087

> <Gold.Chemscore.ZeroCoef>
-5.4800

> <Gold.Chemscore.Hbond>
2.3781

> <Gold.Chemscore.Metal>
0.0000

> <Gold.Chemscore.Lipo>
75.3240

> <Gold.Chemscore.Internal_Hbond>
0.0000

> <Gold.Chemscore.DEClash>
0.9933

> <Gold.Chemscore.DEInternal>
4.2442

> <Gold.Chemscore.Rot>
1.7294

> <Gold.Chemscore.Internal.Correction>
   9.000000E+99

> <Gold.Chemscore.Hbonds>
donor molecule, donor type, donor heavy atom, donor atom, acceptor molecule, acceptor atom, score
      L1  H    16    45       P1  7948  0.97
      P1  H  7989  7998       L1     6  0.18
      P1  H  7997  8009       L1    15  0.05
      P1  H  7997  8010       L1     8  0.35

> <Gold.Chemscore.Hbond.Weighted>
-7.9430

> <Gold.Chemscore.Metal.Weighted>
-0.0000

> <Gold.Chemscore.Lipo.Weighted>
-8.8129

> <Gold.Chemscore.Internal_Hbond.Weighted>
0.0000

> <Gold.Chemscore.DEClash.Weighted>
0.9933

> <Gold.Chemscore.DEInternal.Weighted>
4.2442

> <Gold.Chemscore.Rot.Weighted>
4.4272

> <Gold.Chemscore.Internal.Correction.Weighted>
   9.000000E+99

> <Gold.Protein.RotatedTorsions>
[ 6907 6896 6895 6894 ] final  -43.91 input  -60.11 | X-H torsion
[ 7974 7965 7964 7962 ] final   38.95 input  175.53 | X-H torsion
[ 8008 7997 7996 7995 ] final  123.22 input   59.86 | X-H torsion
[ 10167 10162 10161 10158 ] final -171.15 input  -65.29 | X-H torsion
[ 10718 10713 10712 10709 ] final -115.62 input   66.30 | X-H torsion
[ 10763 10752 10751 10750 ] final   27.47 input  -60.55 | X-H torsion
[ 11005 11000 10999 10996 ] final  168.45 input  -57.11 | X-H torsion

> <Gold.Protein.ActiveResidues>
 VAL166  LYS551  ARG553  GLY616  TRP617  ASP618  TYR619  PRO620  LYS621  CYS622 
 ASP623  PHE694  ASN695  SER759  ASP760  ASP761  ALA762  ILE779  LEU786  VAL792 
 PHE793  MET794  SER795  GLU796  ALA797  LYS798  CYS799  TRP800  GLU811  SER814 

> <Gold.Protein.RotatedAtoms>
  150.9387  134.8797  159.7597 H   0  0  0  0  0  0  0  0  0  0  0  0  # atno 6907 bound_to 6896
  152.5070  134.3973  159.9414 H   0  0  0  0  0  0  0  0  0  0  0  0  # atno 6908 bound_to 6896
  151.3996  133.3722  159.2765 H   0  0  0  0  0  0  0  0  0  0  0  0  # atno 6909 bound_to 6896
  146.1022  139.5710  142.9407 H   0  0  0  0  0  0  0  0  0  0  0  0  # atno 7974 bound_to 7965
  156.2758  140.2768  156.1593 H   0  0  0  0  0  0  0  0  0  0  0  0  # atno 8008 bound_to 7997
  155.0770  140.0387  157.2645 H   0  0  0  0  0  0  0  0  0  0  0  0  # atno 8009 bound_to 7997
  154.6994  140.2646  155.6740 H   0  0  0  0  0  0  0  0  0  0  0  0  # atno 8010 bound_to 7997
  139.5819  144.1404  152.1526 H   0  0  0  0  0  0  0  0  0  0  0  0  # atno 10167 bound_to 10162
  156.0908  130.6090  150.8929 H   0  0  0  0  0  0  0  0  0  0  0  0  # atno 10718 bound_to 10713
  153.0553  135.6536  154.0591 H   0  0  0  0  0  0  0  0  0  0  0  0  # atno 10763 bound_to 10752
  154.0271  135.2915  155.3375 H   0  0  0  0  0  0  0  0  0  0  0  0  # atno 10764 bound_to 10752
  154.6865  135.5299  153.8401 H   0  0  0  0  0  0  0  0  0  0  0  0  # atno 10765 bound_to 10752
  140.2873  134.7701  157.3809 H   0  0  0  0  0  0  0  0  0  0  0  0  # atno 11005 bound_to 11000
  145.5831  141.0380  143.2111 LP  0  0  0  0  0  0  0  0  0  0  0  0  # atno 17320 bound_to 7965
  144.7442  139.7366  143.7299 LP  0  0  0  0  0  0  0  0  0  0  0  0  # atno 17321 bound_to 7965
  140.0959  144.5581  150.7022 LP  0  0  0  0  0  0  0  0  0  0  0  0  # atno 17342 bound_to 10162
  140.7096  143.2495  151.4621 LP  0  0  0  0  0  0  0  0  0  0  0  0  # atno 17343 bound_to 10162
  157.6056  131.0939  150.8885 LP  0  0  0  0  0  0  0  0  0  0  0  0  # atno 17370 bound_to 10713
  156.9034  130.5255  149.5282 LP  0  0  0  0  0  0  0  0  0  0  0  0  # atno 17371 bound_to 10713
  140.1227  134.5198  155.8170 LP  0  0  0  0  0  0  0  0  0  0  0  0  # atno 17394 bound_to 11000
  141.2152  133.6762  156.6896 LP  0  0  0  0  0  0  0  0  0  0  0  0  # atno 17395 bound_to 11000

$$$$
