AV-unprocessed.smi:1660|AV-procd|sdf|6652|dock3
  -GOLD-   22720 7363D 1   1.00000     0.00000
 Structure written by MMmdl.
 42 43  0  0  0  0  0  0  0  0  1 V2000
  145.0716  132.0190  150.0161 C   0  0  0  0  0  0  0  0  0  0  0  0
  144.0821  132.6739  150.8023 O   0  0  0  0  0  0  0  0  0  0  0  0
  144.3016  133.9848  151.1731 C   0  0  0  0  0  0  0  0  0  0  0  0
  143.3218  134.6398  151.9450 C   0  0  0  0  0  0  0  0  0  0  0  0
  143.5368  135.9776  152.3272 C   0  0  0  0  0  0  0  0  0  0  0  0
  144.7351  136.6185  151.9309 C   0  0  0  0  0  0  0  0  0  0  0  0
  145.0633  137.9674  152.2372 N   0  0  0  0  0  0  0  0  0  0  0  0
  146.2460  138.5932  152.1065 C   0  0  0  0  0  0  0  0  0  0  0  0
  147.2745  138.0883  151.6568 O   0  0  0  0  0  0  0  0  0  0  0  0
  146.1699  139.8669  152.5144 N   0  0  0  0  0  0  0  0  0  0  0  0
  147.2866  140.8024  152.4859 C   0  0  0  0  0  0  0  0  0  0  0  0
  147.5073  141.4310  153.8740 C   0  0  0  0  0  0  0  0  0  0  0  0
  148.9295  141.2283  154.4271 C   0  0  0  0  0  0  0  0  0  0  0  0
  149.8315  140.9066  153.6519 O   0  0  0  0  0  0  0  0  0  0  0  0
  149.1510  141.4136  155.7506 N   0  0  0  0  0  0  0  0  0  0  0  0
  148.0832  141.7148  156.7081 C   0  0  0  0  0  0  0  0  0  0  0  0
  147.9463  140.5191  157.6679 C   0  0  0  0  0  0  0  0  0  0  0  0
  149.1927  140.2805  158.3187 O   0  0  0  0  0  0  0  0  0  0  0  0
  150.2608  140.0209  157.4104 C   0  0  0  0  0  0  0  0  0  0  0  0
  150.4236  141.2129  156.4504 C   0  0  0  0  0  0  0  0  0  0  0  0
  145.6457  135.8786  151.1484 C   0  0  0  0  0  0  0  0  0  0  0  0
  145.4458  134.5961  150.7784 N   0  0  0  0  0  0  0  0  0  0  0  0
  144.7493  130.9989  149.8083 H   0  0  0  0  0  0  0  0  0  0  0  0
  146.0264  131.9639  150.5413 H   0  0  0  0  0  0  0  0  0  0  0  0
  145.2174  132.5209  149.0585 H   0  0  0  0  0  0  0  0  0  0  0  0
  142.4172  134.1261  152.2355 H   0  0  0  0  0  0  0  0  0  0  0  0
  142.7757  136.4827  152.9008 H   0  0  0  0  0  0  0  0  0  0  0  0
  144.2913  138.5393  152.5479 H   0  0  0  0  0  0  0  0  0  0  0  0
  145.2883  140.2101  152.8664 H   0  0  0  0  0  0  0  0  0  0  0  0
  148.1838  140.2723  152.1608 H   0  0  0  0  0  0  0  0  0  0  0  0
  147.0826  141.5801  151.7473 H   0  0  0  0  0  0  0  0  0  0  0  0
  147.3056  142.5014  153.8133 H   0  0  0  0  0  0  0  0  0  0  0  0
  146.7939  141.0039  154.5800 H   0  0  0  0  0  0  0  0  0  0  0  0
  148.3377  142.6179  157.2647 H   0  0  0  0  0  0  0  0  0  0  0  0
  147.1239  141.9156  156.2291 H   0  0  0  0  0  0  0  0  0  0  0  0
  147.1869  140.7251  158.4223 H   0  0  0  0  0  0  0  0  0  0  0  0
  147.6292  139.6239  157.1301 H   0  0  0  0  0  0  0  0  0  0  0  0
  151.1777  139.8654  157.9791 H   0  0  0  0  0  0  0  0  0  0  0  0
  150.0660  139.1002  156.8579 H   0  0  0  0  0  0  0  0  0  0  0  0
  151.2703  141.0402  155.7883 H   0  0  0  0  0  0  0  0  0  0  0  0
  150.6691  142.1142  157.0140 H   0  0  0  0  0  0  0  0  0  0  0  0
  146.5684  136.3273  150.8104 H   0  0  0  0  0  0  0  0  0  0  0  0
  1  2  1  0  0  0  0
  1 23  1  0  0  0  0
  1 24  1  0  0  0  0
  1 25  1  0  0  0  0
  2  3  1  0  0  0  0
  3 22  1  0  0  0  0
  3  4  2  0  0  0  0
  4  5  1  0  0  0  0
  4 26  1  0  0  0  0
  5  6  2  0  0  0  0
  5 27  1  0  0  0  0
  6  7  1  0  0  0  0
  6 21  1  0  0  0  0
  7  8  1  0  0  0  0
  7 28  1  0  0  0  0
  8  9  2  0  0  0  0
  8 10  1  0  0  0  0
 10 11  1  0  0  0  0
 10 29  1  0  0  0  0
 11 12  1  0  0  0  0
 11 30  1  0  0  0  0
 11 31  1  0  0  0  0
 12 13  1  0  0  0  0
 12 32  1  0  0  0  0
 12 33  1  0  0  0  0
 13 14  2  0  0  0  0
 13 15  1  0  0  0  0
 15 20  1  0  0  0  0
 15 16  1  0  0  0  0
 16 17  1  0  0  0  0
 16 34  1  0  0  0  0
 16 35  1  0  0  0  0
 17 18  1  0  0  0  0
 17 36  1  0  0  0  0
 17 37  1  0  0  0  0
 18 19  1  0  0  0  0
 19 20  1  0  0  0  0
 19 38  1  0  0  0  0
 19 39  1  0  0  0  0
 20 40  1  0  0  0  0
 20 41  1  0  0  0  0
 21 22  2  0  0  0  0
 21 42  1  0  0  0  0
M  END
> <s_m_source_file>
AV-unprocessed.smi

> <i_m_source_file_index>
1660

> <i_lp_mmshare_version>
43012

> <i_f3d_flags>
0

> <s_epik_input>
W0NIM11PYzFbY0hdW2NIXWMoW2NIXW4xKVtOSF1DKD1PKVtOSF1bQ0gyXVtDSDJdQyg9TylOMltDSDJdW0NIMl1PW0NIMl1bQ0gyXTI=

> <s_epik_cmdline>
J2VwaWtfcHl0aG9uJywgJy1waCcsICc3LjAnLCAnLXRuJywgJzgnLCAnLW1hJywgJzIwMCcsICctbWV0YWxfYmluZGluZycsICctaW1hZScsICc8aW5maWxlLm1hZT4nLCAnLW9tYWUnLCAnPG91dGZpbGUubWFlPic=

> <r_lp_tautomer_probability>
1

> <r_epik_Ionization_Penalty>
8.54597e-05

> <r_epik_Ionization_Penalty_Charging>
0

> <r_epik_Ionization_Penalty_Neutral>
8.54597e-05

> <r_epik_State_Penalty>
-0

> <r_epik_Charging_Adjusted_Penalty>
0

> <i_epik_Tot_Q>
0

> <i_epik_Tot_abs_Q>
0

> <r_epik_Metal_State_Penalty>
-0

> <b_epik_Metal_Only>
0

> <s_lp_Force_Field>
OPLS_2005

> <r_lp_Energy>
25.5639

> <b_lp_Chiralities_Consistent>
1

> <s_lp_Variant>
AV-unprocessed.smi:1660-1

> <Gold.Version>
5.8.1

> <Gold.Id.Protein>
6NUR|6NUR_protein|mol2

> <Gold.PLP.Fitness>
41.5925

> <Gold.PLP.PLP>
-27.6232

> <Gold.PLP.part.hbond>
-6.0370

> <Gold.PLP.part.metal>
0.0000

> <Gold.PLP.part.buried>
-1.9147

> <Gold.PLP.part.nonpolar>
-28.6303

> <Gold.PLP.part.repulsive>
8.8739

> <Gold.PLP.ligand.clash>
0.0000

> <Gold.PLP.ligand.torsion>
0.6644

> <Gold.PLP.Chemscore.Hbond>
4.0889

> <Gold.PLP.Chemscore.CHOScore>
0.9965

> <Gold.PLP.Chemscore.Metal>
0.0000

> <Gold.Chemscore.Hbonds>
donor molecule, donor type, donor heavy atom, donor atom, acceptor molecule, acceptor atom, score
      L1  H     7    28       P1 10175  0.80
      L1  H    10    29       P1 10175  0.88
      P1  H  7954  7966       L1     9  1.00
      P1  H  7989  7998       L1    14  0.37
      P1  H  8011  8017       L1    14  0.99
      L1  C    21    42       P1  7948  0.93

> <Gold.PLP.Chemscore.Internal.Correction>
0.0421

> <Gold.Rescore>
     Score         DG    S(hbond)    S(metal)    S(lipo)     H(rot)  DE(clash)    DE(int)     intcor
     11.60     -19.49       3.50        0.00      61.07       1.88       5.80       2.09       ----

> <Gold.Chemscore.Fitness>
11.6036

> <Gold.Chemscore.DG>
-19.4910

> <Gold.Chemscore.ZeroCoef>
-5.4800

> <Gold.Chemscore.Hbond>
3.4987

> <Gold.Chemscore.Metal>
0.0000

> <Gold.Chemscore.Lipo>
61.0719

> <Gold.Chemscore.Internal_Hbond>
0.0000

> <Gold.Chemscore.DEClash>
5.7963

> <Gold.Chemscore.DEInternal>
2.0912

> <Gold.Chemscore.Rot>
1.8828

> <Gold.Chemscore.Internal.Correction>
   9.000000E+99

> <Gold.Chemscore.Hbonds>
donor molecule, donor type, donor heavy atom, donor atom, acceptor molecule, acceptor atom, score
      L1  H     7    28       P1 10175  0.76
      L1  H    10    29       P1 10175  0.84
      P1  H  7954  7966       L1     9  0.97
      P1  H  7989  7998       L1    14  0.36
      P1  H  8011  8017       L1    14  0.31

> <Gold.Chemscore.Hbond.Weighted>
-11.6856

> <Gold.Chemscore.Metal.Weighted>
-0.0000

> <Gold.Chemscore.Lipo.Weighted>
-7.1454

> <Gold.Chemscore.Internal_Hbond.Weighted>
0.0000

> <Gold.Chemscore.DEClash.Weighted>
5.7963

> <Gold.Chemscore.DEInternal.Weighted>
2.0912

> <Gold.Chemscore.Rot.Weighted>
4.8200

> <Gold.Chemscore.Internal.Correction.Weighted>
   9.000000E+99

> <Gold.Protein.RotatedTorsions>
[ 6907 6896 6895 6894 ] final  127.58 input  -60.11 | X-H torsion
[ 7974 7965 7964 7962 ] final -177.43 input  175.53 | X-H torsion
[ 8008 7997 7996 7995 ] final  -36.88 input   59.86 | X-H torsion
[ 10167 10162 10161 10158 ] final -161.67 input  -65.29 | X-H torsion
[ 10718 10713 10712 10709 ] final -151.56 input   66.30 | X-H torsion
[ 10763 10752 10751 10750 ] final  -39.81 input  -60.55 | X-H torsion
[ 11005 11000 10999 10996 ] final   29.38 input  -57.11 | X-H torsion

> <Gold.Protein.ActiveResidues>
 VAL166  LYS551  ARG553  GLY616  TRP617  ASP618  TYR619  PRO620  LYS621  CYS622 
 ASP623  PHE694  ASN695  SER759  ASP760  ASP761  ALA762  ILE779  LEU786  VAL792 
 PHE793  MET794  SER795  GLU796  ALA797  LYS798  CYS799  TRP800  GLU811  SER814 

> <Gold.Protein.RotatedAtoms>
  152.3800  133.6532  159.6153 H   0  0  0  0  0  0  0  0  0  0  0  0  # atno 6907 bound_to 6896
  150.7733  133.9130  159.3384 H   0  0  0  0  0  0  0  0  0  0  0  0  # atno 6908 bound_to 6896
  151.6938  135.0943  160.0289 H   0  0  0  0  0  0  0  0  0  0  0  0  # atno 6909 bound_to 6896
  144.7128  140.1021  143.6416 H   0  0  0  0  0  0  0  0  0  0  0  0  # atno 7974 bound_to 7965
  154.4064  140.1619  156.2446 H   0  0  0  0  0  0  0  0  0  0  0  0  # atno 8008 bound_to 7997
  155.9171  140.3423  155.6121 H   0  0  0  0  0  0  0  0  0  0  0  0  # atno 8009 bound_to 7997
  155.7266  140.0775  157.2298 H   0  0  0  0  0  0  0  0  0  0  0  0  # atno 8010 bound_to 7997
  139.6448  144.0192  152.2119 H   0  0  0  0  0  0  0  0  0  0  0  0  # atno 10167 bound_to 10162
  156.4608  130.8212  151.2443 H   0  0  0  0  0  0  0  0  0  0  0  0  # atno 10718 bound_to 10713
  153.9355  135.6767  153.4745 H   0  0  0  0  0  0  0  0  0  0  0  0  # atno 10763 bound_to 10752
  153.0958  135.4852  154.8772 H   0  0  0  0  0  0  0  0  0  0  0  0  # atno 10764 bound_to 10752
  154.7405  135.3159  154.8694 H   0  0  0  0  0  0  0  0  0  0  0  0  # atno 10765 bound_to 10752
  140.3055  134.2708  155.7745 H   0  0  0  0  0  0  0  0  0  0  0  0  # atno 11005 bound_to 11000
  145.9529  139.2746  143.1201 LP  0  0  0  0  0  0  0  0  0  0  0  0  # atno 17320 bound_to 7965
  145.9304  140.9053  143.0359 LP  0  0  0  0  0  0  0  0  0  0  0  0  # atno 17321 bound_to 7965
  139.9891  144.6374  150.7830 LP  0  0  0  0  0  0  0  0  0  0  0  0  # atno 17342 bound_to 10162
  140.7509  143.2963  151.3195 LP  0  0  0  0  0  0  0  0  0  0  0  0  # atno 17343 bound_to 10162
  157.7498  131.0108  150.3319 LP  0  0  0  0  0  0  0  0  0  0  0  0  # atno 17370 bound_to 10713
  156.3718  130.3865  149.7169 LP  0  0  0  0  0  0  0  0  0  0  0  0  # atno 17371 bound_to 10713
  141.2119  133.7674  156.9830 LP  0  0  0  0  0  0  0  0  0  0  0  0  # atno 17394 bound_to 11000
  140.1071  134.9500  157.2010 LP  0  0  0  0  0  0  0  0  0  0  0  0  # atno 17395 bound_to 11000

$$$$
