AV-unprocessed.smi:290|AV-procd|sdf|2238|dock10
  -GOLD-   2262022113D 1   1.00000     0.00000
 Structure written by MMmdl.
 59 62  0  0  0  0  0  0  0  0  2 V2000
  153.4116  141.8440  160.4002 C   0  0  0  0  0  0  0  0  0  0  0  0
  152.1426  142.6448  160.0697 C   0  0  1  0  0  0  0  0  0  0  0  0
  152.4687  144.0300  160.1396 O   0  0  0  0  0  0  0  0  0  0  0  0
  151.6147  144.7399  159.2610 C   0  0  0  0  0  0  0  0  0  0  0  0
  151.5733  143.8279  158.0442 C   0  0  0  0  0  0  0  0  0  0  0  0
  151.5214  142.4308  158.6596 C   0  0  2  0  0  0  0  0  0  0  0  0
  150.1580  142.0886  158.8415 O   0  0  0  0  0  0  0  0  0  0  0  0
  152.1771  141.3382  157.7737 C   0  0  0  0  0  0  0  0  0  0  0  0
  151.3592  140.1434  157.6259 N   0  0  0  0  0  0  0  0  0  0  0  0
  151.0630  139.2234  158.6065 C   0  0  0  0  0  0  0  0  0  0  0  0
  150.3076  138.2288  158.2279 N   0  0  0  0  0  0  0  0  0  0  0  0
  150.0581  138.4857  156.8855 C   0  0  0  0  0  0  0  0  0  0  0  0
  149.3213  137.8216  155.8645 C   0  0  0  0  0  0  0  0  0  0  0  0
  148.6353  136.6701  156.0285 N   0  0  0  0  0  0  0  0  0  0  0  0
  149.4138  135.4381  155.9434 C   0  0  0  0  0  0  0  0  0  0  0  0
  148.8664  134.5098  157.0294 C   0  0  0  0  0  0  0  0  0  0  0  0
  148.3364  135.4925  158.0792 C   0  0  2  0  0  0  0  0  0  0  0  0
  147.3935  134.9211  159.0862 N   0  3  1  0  0  0  0  0  0  0  0  0
  147.9718  133.7663  159.8201 C   0  0  0  0  0  0  0  0  0  0  0  0
  146.8580  135.9580  160.0123 C   0  0  0  0  0  0  0  0  0  0  0  0
  147.6741  136.0943  161.3114 C   0  0  0  0  0  0  0  0  0  0  0  0
  147.4805  137.3699  161.8835 O   0  0  0  0  0  0  0  0  0  0  0  0
  147.7537  136.6164  157.1914 C   0  0  2  0  0  0  0  0  0  0  0  0
  146.3068  136.3750  156.7214 C   0  0  0  0  0  0  0  0  0  0  0  0
  149.2873  138.3861  154.6334 N   0  0  0  0  0  0  0  0  0  0  0  0
  149.9405  139.5296  154.4050 C   0  0  0  0  0  0  0  0  0  0  0  0
  150.6713  140.2574  155.2528 N   0  0  0  0  0  0  0  0  0  0  0  0
  150.7040  139.6916  156.4935 C   0  0  0  0  0  0  0  0  0  0  0  0
  149.1971  135.8847  158.6230 H   0  0  0  0  0  0  0  0  0  0  0  0
  147.7831  137.5639  157.7325 H   0  0  0  0  0  0  0  0  0  0  0  0
  153.2254  140.7704  160.3662 H   0  0  0  0  0  0  0  0  0  0  0  0
  153.7637  142.0821  161.4040 H   0  0  0  0  0  0  0  0  0  0  0  0
  154.2226  142.0736  159.7089 H   0  0  0  0  0  0  0  0  0  0  0  0
  151.4003  142.4462  160.8453 H   0  0  0  0  0  0  0  0  0  0  0  0
  150.6257  144.8475  159.7094 H   0  0  0  0  0  0  0  0  0  0  0  0
  152.0042  145.7320  159.0333 H   0  0  0  0  0  0  0  0  0  0  0  0
  150.7434  144.0471  157.3709 H   0  0  0  0  0  0  0  0  0  0  0  0
  152.4997  143.9561  157.4827 H   0  0  0  0  0  0  0  0  0  0  0  0
  150.0031  141.2461  158.4420 H   0  0  0  0  0  0  0  0  0  0  0  0
  152.3678  141.7250  156.7725 H   0  0  0  0  0  0  0  0  0  0  0  0
  153.1453  141.0434  158.1807 H   0  0  0  0  0  0  0  0  0  0  0  0
  151.4317  139.3115  159.6182 H   0  0  0  0  0  0  0  0  0  0  0  0
  149.3153  134.9894  154.9546 H   0  0  0  0  0  0  0  0  0  0  0  0
  150.4743  135.6304  156.1117 H   0  0  0  0  0  0  0  0  0  0  0  0
  148.0539  133.9045  156.6251 H   0  0  0  0  0  0  0  0  0  0  0  0
  149.6335  133.8374  157.4146 H   0  0  0  0  0  0  0  0  0  0  0  0
  148.8779  134.0585  160.3527 H   0  0  0  0  0  0  0  0  0  0  0  0
  148.2218  132.9489  159.1444 H   0  0  0  0  0  0  0  0  0  0  0  0
  147.2734  133.3534  160.5458 H   0  0  0  0  0  0  0  0  0  0  0  0
  146.8201  136.9169  159.4932 H   0  0  0  0  0  0  0  0  0  0  0  0
  145.8290  135.7293  160.2890 H   0  0  0  0  0  0  0  0  0  0  0  0
  147.4316  135.3239  162.0417 H   0  0  0  0  0  0  0  0  0  0  0  0
  148.7352  135.9838  161.0867 H   0  0  0  0  0  0  0  0  0  0  0  0
  147.2659  137.2614  162.7981 H   0  0  0  0  0  0  0  0  0  0  0  0
  145.6060  136.3830  157.5545 H   0  0  0  0  0  0  0  0  0  0  0  0
  146.2007  135.4217  156.2034 H   0  0  0  0  0  0  0  0  0  0  0  0
  145.9906  137.1592  156.0328 H   0  0  0  0  0  0  0  0  0  0  0  0
  149.8690  139.9165  153.3990 H   0  0  0  0  0  0  0  0  0  0  0  0
  146.6035  134.5688  158.5639 H   0  0  0  0  0  0  0  0  0  0  0  0
  1  2  1  0  0  0  0
  1 31  1  0  0  0  0
  1 32  1  0  0  0  0
  1 33  1  0  0  0  0
  2  6  1  0  0  0  0
  2  3  1  0  0  0  0
  2 34  1  0  0  0  0
  3  4  1  0  0  0  0
  4  5  1  0  0  0  0
  4 35  1  0  0  0  0
  4 36  1  0  0  0  0
  5  6  1  0  0  0  0
  5 37  1  0  0  0  0
  5 38  1  0  0  0  0
  6  7  1  0  0  0  0
  6  8  1  0  0  0  0
  7 39  1  0  0  0  0
  8  9  1  0  0  0  0
  8 40  1  0  0  0  0
  8 41  1  0  0  0  0
  9 28  1  0  0  0  0
  9 10  1  0  0  0  0
 10 11  2  0  0  0  0
 10 42  1  0  0  0  0
 11 12  1  0  0  0  0
 12 28  2  0  0  0  0
 12 13  1  0  0  0  0
 13 14  1  0  0  0  0
 13 25  2  0  0  0  0
 14 23  1  0  0  0  0
 14 15  1  0  0  0  0
 15 16  1  0  0  0  0
 15 43  1  0  0  0  0
 15 44  1  0  0  0  0
 16 17  1  0  0  0  0
 16 45  1  0  0  0  0
 16 46  1  0  0  0  0
 17 29  1  0  0  0  0
 17 18  1  0  0  0  0
 17 23  1  0  0  0  0
 18 19  1  0  0  0  0
 18 20  1  0  0  0  0
 18 59  1  0  0  0  0
 19 47  1  0  0  0  0
 19 48  1  0  0  0  0
 19 49  1  0  0  0  0
 20 21  1  0  0  0  0
 20 50  1  0  0  0  0
 20 51  1  0  0  0  0
 21 22  1  0  0  0  0
 21 52  1  0  0  0  0
 21 53  1  0  0  0  0
 22 54  1  0  0  0  0
 23 30  1  0  0  0  0
 23 24  1  0  0  0  0
 24 55  1  0  0  0  0
 24 56  1  0  0  0  0
 24 57  1  0  0  0  0
 25 26  1  0  0  0  0
 26 27  2  0  0  0  0
 26 58  1  0  0  0  0
 27 28  1  0  0  0  0
M  CHG  1  18   1
M  END
> <s_m_source_file>
AV-unprocessed.smi

> <i_m_source_file_index>
290

> <i_lp_mmshare_version>
43012

> <i_f3d_flags>
0

> <s_epik_input>
W0NIMl0xW0NIMl1PW0NAQEhdKFtDSDNdKVtDQEBdMShbT0hdKVtDSDJdbihbY0hdbjIpYyhjMjMpbltjSF1uYzNONFtDSDJdW0NIMl1bQ0BIXShbQ0BIXTRbQ0gzXSlOKFtDSDNdKVtDSDJdW0NIMl1bT0hd

> <s_epik_cmdline>
J2VwaWtfcHl0aG9uJywgJy1waCcsICc3LjAnLCAnLXRuJywgJzgnLCAnLW1hJywgJzIwMCcsICctbWV0YWxfYmluZGluZycsICctaW1hZScsICc8aW5maWxlLm1hZT4nLCAnLW9tYWUnLCAnPG91dGZpbGUubWFlPic=

> <r_lp_tautomer_probability>
1

> <r_epik_Ionization_Penalty>
0.0036983

> <r_epik_Ionization_Penalty_Charging>
0.0032725

> <r_epik_Ionization_Penalty_Neutral>
0.000425798

> <r_epik_State_Penalty>
-0

> <r_epik_Charging_Adjusted_Penalty>
0.0032725

> <i_epik_Tot_Q>
1

> <i_epik_Tot_abs_Q>
1

> <r_epik_Metal_State_Penalty>
-0

> <b_epik_Metal_Only>
0

> <s_lp_Force_Field>
OPLS_2005

> <r_lp_Energy>
65.2736

> <b_lp_Chiralities_Consistent>
1

> <s_lp_Variant>
AV-unprocessed.smi:290-24

> <Gold.Version>
5.8.1

> <Gold.Id.Protein>
6NUR|6NUR_protein|mol2

> <Gold.PLP.Fitness>
41.1825

> <Gold.PLP.PLP>
-36.7664

> <Gold.PLP.part.hbond>
-3.8681

> <Gold.PLP.part.metal>
0.0000

> <Gold.PLP.part.buried>
-6.2079

> <Gold.PLP.part.nonpolar>
-26.7688

> <Gold.PLP.part.repulsive>
0.3306

> <Gold.PLP.ligand.clash>
0.0000

> <Gold.PLP.ligand.torsion>
2.0260

> <Gold.PLP.Chemscore.Hbond>
1.7588

> <Gold.PLP.Chemscore.CHOScore>
1.0000

> <Gold.PLP.Chemscore.Metal>
0.0000

> <Gold.Chemscore.Hbonds>
donor molecule, donor type, donor heavy atom, donor atom, acceptor molecule, acceptor atom, score
      P1  H  6931  6943       L1    22  0.85
      P1  H  6934  6947       L1    22  0.69
      P1  H  7989  7998       L1    27  0.13
      L1  C    26    58       P1  7957  1.00

> <Gold.PLP.Chemscore.Internal.Correction>
0.1918

> <Gold.Rescore>
     Score         DG    S(hbond)    S(metal)    S(lipo)     H(rot)  DE(clash)    DE(int)     intcor
      8.73     -10.95       1.32        0.00      89.20       3.67       0.01       2.21       ----

> <Gold.Chemscore.Fitness>
8.7282

> <Gold.Chemscore.DG>
-10.9480

> <Gold.Chemscore.ZeroCoef>
-5.4800

> <Gold.Chemscore.Hbond>
1.3222

> <Gold.Chemscore.Metal>
0.0000

> <Gold.Chemscore.Lipo>
89.1993

> <Gold.Chemscore.Internal_Hbond>
0.0000

> <Gold.Chemscore.DEClash>
0.0095

> <Gold.Chemscore.DEInternal>
2.2103

> <Gold.Chemscore.Rot>
3.6658

> <Gold.Chemscore.Internal.Correction>
   9.000000E+99

> <Gold.Chemscore.Hbonds>
donor molecule, donor type, donor heavy atom, donor atom, acceptor molecule, acceptor atom, score
      P1  H  6931  6943       L1    22  0.25
      P1  H  6934  6947       L1    22  0.67

> <Gold.Chemscore.Hbond.Weighted>
-4.4161

> <Gold.Chemscore.Metal.Weighted>
-0.0000

> <Gold.Chemscore.Lipo.Weighted>
-10.4363

> <Gold.Chemscore.Internal_Hbond.Weighted>
0.0000

> <Gold.Chemscore.DEClash.Weighted>
0.0095

> <Gold.Chemscore.DEInternal.Weighted>
2.2103

> <Gold.Chemscore.Rot.Weighted>
9.3844

> <Gold.Chemscore.Internal.Correction.Weighted>
   9.000000E+99

> <Gold.Protein.RotatedTorsions>
[ 6907 6896 6895 6894 ] final -109.88 input  -60.11 | X-H torsion
[ 7974 7965 7964 7962 ] final  175.68 input  175.53 | X-H torsion
[ 8008 7997 7996 7995 ] final   54.14 input   59.86 | X-H torsion
[ 10167 10162 10161 10158 ] final  -26.52 input  -65.29 | X-H torsion
[ 10718 10713 10712 10709 ] final  125.64 input   66.30 | X-H torsion
[ 10763 10752 10751 10750 ] final  134.95 input  -60.55 | X-H torsion
[ 11005 11000 10999 10996 ] final  125.24 input  -57.11 | X-H torsion

> <Gold.Protein.ActiveResidues>
 VAL166  LYS551  ARG553  GLY616  TRP617  ASP618  TYR619  PRO620  LYS621  CYS622 
 ASP623  PHE694  ASN695  SER759  ASP760  ASP761  ALA762  ILE779  LEU786  VAL792 
 PHE793  MET794  SER795  GLU796  ALA797  LYS798  CYS799  TRP800  GLU811  SER814 

> <Gold.Protein.RotatedAtoms>
  150.7589  133.9464  159.3471 H   0  0  0  0  0  0  0  0  0  0  0  0  # atno 6907 bound_to 6896
  151.7377  135.0859  160.0320 H   0  0  0  0  0  0  0  0  0  0  0  0  # atno 6908 bound_to 6896
  152.3549  133.6187  159.6007 H   0  0  0  0  0  0  0  0  0  0  0  0  # atno 6909 bound_to 6896
  144.7197  139.9983  143.6440 H   0  0  0  0  0  0  0  0  0  0  0  0  # atno 7974 bound_to 7965
  155.4798  140.3468  155.4338 H   0  0  0  0  0  0  0  0  0  0  0  0  # atno 8008 bound_to 7997
  156.1047  140.1444  156.9449 H   0  0  0  0  0  0  0  0  0  0  0  0  # atno 8009 bound_to 7997
  154.4716  140.0899  156.7137 H   0  0  0  0  0  0  0  0  0  0  0  0  # atno 8010 bound_to 7997
  140.7282  143.4171  151.1011 H   0  0  0  0  0  0  0  0  0  0  0  0  # atno 10167 bound_to 10162
  157.5486  131.1095  150.8741 H   0  0  0  0  0  0  0  0  0  0  0  0  # atno 10718 bound_to 10713
  153.8319  135.3102  155.3419 H   0  0  0  0  0  0  0  0  0  0  0  0  # atno 10763 bound_to 10752
  154.7969  135.4750  154.0186 H   0  0  0  0  0  0  0  0  0  0  0  0  # atno 10764 bound_to 10752
  153.1629  135.6864  153.8808 H   0  0  0  0  0  0  0  0  0  0  0  0  # atno 10765 bound_to 10752
  139.9397  134.9636  156.8529 H   0  0  0  0  0  0  0  0  0  0  0  0  # atno 11005 bound_to 11000
  146.0356  139.3374  143.0729 LP  0  0  0  0  0  0  0  0  0  0  0  0  # atno 17320 bound_to 7965
  145.8399  140.9586  143.0805 LP  0  0  0  0  0  0  0  0  0  0  0  0  # atno 17321 bound_to 7965
  139.7812  143.8353  152.3138 LP  0  0  0  0  0  0  0  0  0  0  0  0  # atno 17342 bound_to 10162
  139.8305  144.7256  150.9457 LP  0  0  0  0  0  0  0  0  0  0  0  0  # atno 17343 bound_to 10162
  156.9272  130.5336  149.5279 LP  0  0  0  0  0  0  0  0  0  0  0  0  # atno 17370 bound_to 10713
  156.0557  130.5618  150.9085 LP  0  0  0  0  0  0  0  0  0  0  0  0  # atno 17371 bound_to 10713
  140.5984  134.0195  155.7527 LP  0  0  0  0  0  0  0  0  0  0  0  0  # atno 17394 bound_to 11000
  141.1026  133.9744  157.3052 LP  0  0  0  0  0  0  0  0  0  0  0  0  # atno 17395 bound_to 11000

$$$$
