AV-unprocessed.smi:1434|AV-procd|sdf|5855|dock3
  -GOLD-   22720 5523D 1   1.00000     0.00000
 Structure written by MMmdl.
 44 45  0  0  0  0  0  0  0  0  3 V2000
  153.2835  137.6533  158.5319 C   0  0  0  0  0  0  0  0  0  0  0  0
  153.9157  136.0541  157.8872 S   0  0  0  0  0  0  0  0  0  0  0  0
  155.0614  136.3927  157.0278 O   0  0  0  0  0  0  0  0  0  0  0  0
  154.1861  135.2258  159.0735 O   0  0  0  0  0  0  0  0  0  0  0  0
  152.6279  135.5446  157.0427 N   0  5  0  0  0  0  0  0  0  0  0  0
  151.5638  136.4794  156.7052 C   0  0  2  0  0  0  0  0  0  0  0  0
  150.3761  135.7516  156.0203 C   0  0  0  0  0  0  0  0  0  0  0  0
  149.3283  136.7188  155.4069 C   0  0  0  0  0  0  0  0  0  0  0  0
  149.9711  137.7930  154.5007 C   0  0  0  0  0  0  0  0  0  0  0  0
  151.0171  138.4758  155.2952 N   0  0  0  0  0  0  0  0  0  0  0  0
  151.0309  139.7972  155.6159 C   0  0  0  0  0  0  0  0  0  0  0  0
  150.4148  140.6557  154.9827 O   0  0  0  0  0  0  0  0  0  0  0  0
  151.8148  140.1169  156.6587 N   0  0  0  0  0  0  0  0  0  0  0  0
  152.0197  141.4717  157.1524 C   0  0  0  0  0  0  0  0  0  0  0  0
  152.1479  141.4799  158.6814 C   0  0  0  0  0  0  0  0  0  0  0  0
  152.2368  142.8871  159.2397 C   0  0  0  0  0  0  0  0  0  0  0  0
  152.1352  144.0294  158.4162 C   0  0  0  0  0  0  0  0  0  0  0  0
  152.2162  145.3102  159.0017 C   0  0  0  0  0  0  0  0  0  0  0  0
  152.3956  145.4218  160.3961 C   0  0  0  0  0  0  0  0  0  0  0  0
  152.4891  144.2480  161.1712 C   0  0  0  0  0  0  0  0  0  0  0  0
  152.4070  143.0389  160.5733 N   0  3  0  0  0  0  0  0  0  0  0  0
  152.0986  137.5576  155.7222 C   0  0  0  0  0  0  0  0  0  0  0  0
  154.0563  138.1295  159.1341 H   0  0  0  0  0  0  0  0  0  0  0  0
  152.4025  137.4735  159.1476 H   0  0  0  0  0  0  0  0  0  0  0  0
  153.0198  138.3031  157.6981 H   0  0  0  0  0  0  0  0  0  0  0  0
  151.1891  136.9954  157.5903 H   0  0  0  0  0  0  0  0  0  0  0  0
  150.7590  135.1125  155.2231 H   0  0  0  0  0  0  0  0  0  0  0  0
  149.8808  135.0877  156.7290 H   0  0  0  0  0  0  0  0  0  0  0  0
  148.5979  136.1465  154.8345 H   0  0  0  0  0  0  0  0  0  0  0  0
  148.7652  137.2096  156.2033 H   0  0  0  0  0  0  0  0  0  0  0  0
  150.4373  137.3198  153.6352 H   0  0  0  0  0  0  0  0  0  0  0  0
  149.2011  138.4500  154.0971 H   0  0  0  0  0  0  0  0  0  0  0  0
  152.3099  139.3714  157.1261 H   0  0  0  0  0  0  0  0  0  0  0  0
  152.9219  141.8915  156.7043 H   0  0  0  0  0  0  0  0  0  0  0  0
  151.1818  142.0957  156.8380 H   0  0  0  0  0  0  0  0  0  0  0  0
  151.2938  140.9730  159.1327 H   0  0  0  0  0  0  0  0  0  0  0  0
  153.0343  140.9203  158.9842 H   0  0  0  0  0  0  0  0  0  0  0  0
  151.9938  143.9282  157.3498 H   0  0  0  0  0  0  0  0  0  0  0  0
  152.1401  146.1963  158.3885 H   0  0  0  0  0  0  0  0  0  0  0  0
  152.4590  146.3934  160.8640 H   0  0  0  0  0  0  0  0  0  0  0  0
  152.6248  144.2392  162.2428 H   0  0  0  0  0  0  0  0  0  0  0  0
  152.9324  138.0867  156.1863 H   0  0  0  0  0  0  0  0  0  0  0  0
  152.5160  137.0813  154.8333 H   0  0  0  0  0  0  0  0  0  0  0  0
  152.4751  142.2030  161.1544 H   0  0  0  0  0  0  0  0  0  0  0  0
  1  2  1  0  0  0  0
  1 23  1  0  0  0  0
  1 24  1  0  0  0  0
  1 25  1  0  0  0  0
  2  3  2  0  0  0  0
  2  4  2  0  0  0  0
  2  5  1  0  0  0  0
  5  6  1  0  0  0  0
  6 22  1  0  0  0  0
  6  7  1  0  0  0  0
  6 26  1  0  0  0  0
  7  8  1  0  0  0  0
  7 27  1  0  0  0  0
  7 28  1  0  0  0  0
  8  9  1  0  0  0  0
  8 29  1  0  0  0  0
  8 30  1  0  0  0  0
  9 10  1  0  0  0  0
  9 31  1  0  0  0  0
  9 32  1  0  0  0  0
 10 11  1  0  0  0  0
 10 22  1  0  0  0  0
 11 12  2  0  0  0  0
 11 13  1  0  0  0  0
 13 14  1  0  0  0  0
 13 33  1  0  0  0  0
 14 15  1  0  0  0  0
 14 34  1  0  0  0  0
 14 35  1  0  0  0  0
 15 16  1  0  0  0  0
 15 36  1  0  0  0  0
 15 37  1  0  0  0  0
 16 21  1  0  0  0  0
 16 17  2  0  0  0  0
 17 18  1  0  0  0  0
 17 38  1  0  0  0  0
 18 19  2  0  0  0  0
 18 39  1  0  0  0  0
 19 20  1  0  0  0  0
 19 40  1  0  0  0  0
 20 21  2  0  0  0  0
 20 41  1  0  0  0  0
 21 44  1  0  0  0  0
 22 42  1  0  0  0  0
 22 43  1  0  0  0  0
M  CHG  1   5  -1
M  CHG  1  21   1
M  END
> <s_m_source_file>
AV-unprocessed.smi

> <i_m_source_file_index>
1434

> <i_lp_mmshare_version>
43012

> <i_f3d_flags>
0

> <s_epik_input>
W0NIM11TKD1PKSg9TylbTkhdW0NAQEhdMVtDSDJdW0NIMl1bQ0gyXU4oW0NIMl0xKUMoPU8pW05IXVtDSDJdW0NIMl1jMltjSF1bY0hdW2NIXVtjSF1uMg==

> <s_epik_cmdline>
J2VwaWtfcHl0aG9uJywgJy1waCcsICc3LjAnLCAnLXRuJywgJzgnLCAnLW1hJywgJzIwMCcsICctbWV0YWxfYmluZGluZycsICctaW1hZScsICc8aW5maWxlLm1hZT4nLCAnLW9tYWUnLCAnPG91dGZpbGUubWFlPic=

> <r_epik_Ionization_Penalty>
8.07847

> <r_epik_Ionization_Penalty_Charging>
8.0784

> <r_epik_Ionization_Penalty_Neutral>
6.25603e-05

> <r_epik_State_Penalty>
8.17261

> <r_epik_Charging_Adjusted_Penalty>
16.251

> <i_epik_Tot_Q>
0

> <i_epik_Tot_abs_Q>
2

> <r_epik_Metal_State_Penalty>
4.14042

> <b_epik_Metal_Only>
1

> <s_lp_Force_Field>
OPLS_2005

> <r_lp_Energy>
29.5402

> <b_lp_Chiralities_Consistent>
1

> <s_lp_Variant>
AV-unprocessed.smi:1434-7

> <Gold.Version>
5.8.1

> <Gold.Id.Protein>
6NUR|6NUR_protein|mol2

> <Gold.PLP.Fitness>
47.9309

> <Gold.PLP.PLP>
-37.5541

> <Gold.PLP.part.hbond>
-3.3108

> <Gold.PLP.part.metal>
0.0000

> <Gold.PLP.part.buried>
-6.0888

> <Gold.PLP.part.nonpolar>
-28.7998

> <Gold.PLP.part.repulsive>
0.3011

> <Gold.PLP.ligand.clash>
0.3628

> <Gold.PLP.ligand.torsion>
1.0471

> <Gold.PLP.Chemscore.Hbond>
3.9280

> <Gold.PLP.Chemscore.CHOScore>
0.0000

> <Gold.PLP.Chemscore.Metal>
0.0000

> <Gold.Chemscore.Hbonds>
donor molecule, donor type, donor heavy atom, donor atom, acceptor molecule, acceptor atom, score
      P1  H  6896  6907       L1     4  1.00
      P1  H  7989  7998       L1    12  0.91
      P1  H 10752 10764       L1     5  1.70

> <Gold.PLP.Chemscore.Internal.Correction>
1.0498

> <Gold.Rescore>
     Score         DG    S(hbond)    S(metal)    S(lipo)     H(rot)  DE(clash)    DE(int)     intcor
     17.13     -19.09       1.71        0.00     106.22       1.77       0.87       1.09       ----

> <Gold.Chemscore.Fitness>
17.1258

> <Gold.Chemscore.DG>
-19.0865

> <Gold.Chemscore.ZeroCoef>
-5.4800

> <Gold.Chemscore.Hbond>
1.7066

> <Gold.Chemscore.Metal>
0.0000

> <Gold.Chemscore.Lipo>
106.2200

> <Gold.Chemscore.Internal_Hbond>
0.0000

> <Gold.Chemscore.DEClash>
0.8717

> <Gold.Chemscore.DEInternal>
1.0890

> <Gold.Chemscore.Rot>
1.7661

> <Gold.Chemscore.Internal.Correction>
   9.000000E+99

> <Gold.Chemscore.Hbonds>
donor molecule, donor type, donor heavy atom, donor atom, acceptor molecule, acceptor atom, score
      P1  H  6896  6907       L1     4  0.79
      P1  H  7989  7998       L1    12  0.23
      P1  H 10752 10764       L1     5  0.04

> <Gold.Chemscore.Hbond.Weighted>
-5.6999

> <Gold.Chemscore.Metal.Weighted>
-0.0000

> <Gold.Chemscore.Lipo.Weighted>
-12.4277

> <Gold.Chemscore.Internal_Hbond.Weighted>
0.0000

> <Gold.Chemscore.DEClash.Weighted>
0.8717

> <Gold.Chemscore.DEInternal.Weighted>
1.0890

> <Gold.Chemscore.Rot.Weighted>
4.5211

> <Gold.Chemscore.Internal.Correction.Weighted>
   9.000000E+99

> <Gold.Protein.RotatedTorsions>
[ 6907 6896 6895 6894 ] final   67.49 input  -60.11 | X-H torsion
[ 7974 7965 7964 7962 ] final -108.18 input  175.53 | X-H torsion
[ 8008 7997 7996 7995 ] final  131.00 input   59.86 | X-H torsion
[ 10167 10162 10161 10158 ] final  153.11 input  -65.29 | X-H torsion
[ 10718 10713 10712 10709 ] final  -10.02 input   66.30 | X-H torsion
[ 10763 10752 10751 10750 ] final   -1.62 input  -60.55 | X-H torsion
[ 11005 11000 10999 10996 ] final  -44.86 input  -57.11 | X-H torsion

> <Gold.Protein.ActiveResidues>
 VAL166  LYS551  ARG553  GLY616  TRP617  ASP618  TYR619  PRO620  LYS621  CYS622 
 ASP623  PHE694  ASN695  SER759  ASP760  ASP761  ALA762  ILE779  LEU786  VAL792 
 PHE793  MET794  SER795  GLU796  ALA797  LYS798  CYS799  TRP800  GLU811  SER814 

> <Gold.Protein.RotatedAtoms>
  152.4555  134.5300  159.9807 H   0  0  0  0  0  0  0  0  0  0  0  0  # atno 6907 bound_to 6896
  151.5362  133.3435  159.2935 H   0  0  0  0  0  0  0  0  0  0  0  0  # atno 6908 bound_to 6896
  150.8498  134.7850  159.7062 H   0  0  0  0  0  0  0  0  0  0  0  0  # atno 6909 bound_to 6896
  145.1961  140.9036  143.3397 H   0  0  0  0  0  0  0  0  0  0  0  0  # atno 7974 bound_to 7965
  156.2963  140.2582  156.2854 H   0  0  0  0  0  0  0  0  0  0  0  0  # atno 8008 bound_to 7997
  154.9561  140.0393  157.2186 H   0  0  0  0  0  0  0  0  0  0  0  0  # atno 8009 bound_to 7997
  154.7990  140.2825  155.5940 H   0  0  0  0  0  0  0  0  0  0  0  0  # atno 8010 bound_to 7997
  139.4829  144.5301  151.7737 H   0  0  0  0  0  0  0  0  0  0  0  0  # atno 10167 bound_to 10162
  156.6795  130.5033  149.5975 H   0  0  0  0  0  0  0  0  0  0  0  0  # atno 10718 bound_to 10713
  153.3473  135.6984  153.6818 H   0  0  0  0  0  0  0  0  0  0  0  0  # atno 10763 bound_to 10752
  153.5558  135.3544  155.2779 H   0  0  0  0  0  0  0  0  0  0  0  0  # atno 10764 bound_to 10752
  154.8647  135.4237  154.2700 H   0  0  0  0  0  0  0  0  0  0  0  0  # atno 10765 bound_to 10752
  141.0478  133.6754  156.2932 H   0  0  0  0  0  0  0  0  0  0  0  0  # atno 11005 bound_to 11000
  144.9994  139.3613  143.6175 LP  0  0  0  0  0  0  0  0  0  0  0  0  # atno 17320 bound_to 7965
  146.3427  139.9210  142.8766 LP  0  0  0  0  0  0  0  0  0  0  0  0  # atno 17321 bound_to 7965
  140.4826  144.1427  150.5935 LP  0  0  0  0  0  0  0  0  0  0  0  0  # atno 17342 bound_to 10162
  140.4261  143.2589  151.9655 LP  0  0  0  0  0  0  0  0  0  0  0  0  # atno 17343 bound_to 10162
  156.1878  130.6540  151.1026 LP  0  0  0  0  0  0  0  0  0  0  0  0  # atno 17370 bound_to 10713
  157.7049  131.0761  150.6701 LP  0  0  0  0  0  0  0  0  0  0  0  0  # atno 17371 bound_to 10713
  140.6113  134.5456  157.5534 LP  0  0  0  0  0  0  0  0  0  0  0  0  # atno 17394 bound_to 11000
  139.9326  134.7935  156.0890 LP  0  0  0  0  0  0  0  0  0  0  0  0  # atno 17395 bound_to 11000

$$$$
