AV-unprocessed.smi:944|AV-procd|sdf|4232|dock7
  -GOLD-   22720 2143D 1   1.00000     0.00000
 Structure written by MMmdl.
 28 28  0  0  0  0  0  0  0  0  1 V2000
  158.4427  141.3333  159.1444 C   0  0  0  0  0  0  0  0  0  0  0  0
  157.3862  140.8581  160.0243 N   0  0  0  0  0  0  0  0  0  0  0  0
  156.5900  139.8146  159.7521 C   0  0  0  0  0  0  0  0  0  0  0  0
  156.6744  139.1572  158.7133 O   0  0  0  0  0  0  0  0  0  0  0  0
  155.5260  139.4778  160.8103 C   0  0  1  0  0  0  0  0  0  0  0  0
  156.2501  139.1758  162.1328 C   0  0  0  0  0  0  0  0  0  0  0  0
  154.6388  140.6187  161.0324 N   0  0  0  0  0  0  0  0  0  0  0  0
  153.6888  141.0401  160.1827 C   0  0  0  0  0  0  0  0  0  0  0  0
  153.4462  140.4794  159.1130 O   0  0  0  0  0  0  0  0  0  0  0  0
  152.9006  142.2796  160.6210 C   0  0  0  0  0  0  0  0  0  0  0  0
  152.2938  142.9785  159.5004 N   0  0  0  0  0  0  0  0  0  0  0  0
  152.3690  144.2590  159.1314 C   0  0  0  0  0  0  0  0  0  0  0  0
  151.6709  144.5441  158.0409 N   0  0  0  0  0  0  0  0  0  0  0  0
  151.1541  143.3082  157.7717 C   0  0  0  0  0  0  0  0  0  0  0  0
  151.4929  142.3355  158.6181 N   0  0  0  0  0  0  0  0  0  0  0  0
  158.9488  142.1856  159.5975 H   0  0  0  0  0  0  0  0  0  0  0  0
  158.0349  141.6504  158.1836 H   0  0  0  0  0  0  0  0  0  0  0  0
  159.1827  140.5512  158.9683 H   0  0  0  0  0  0  0  0  0  0  0  0
  157.2540  141.3498  160.8965 H   0  0  0  0  0  0  0  0  0  0  0  0
  154.9467  138.6052  160.5012 H   0  0  0  0  0  0  0  0  0  0  0  0
  156.9334  138.3318  162.0280 H   0  0  0  0  0  0  0  0  0  0  0  0
  155.5361  138.9177  162.9154 H   0  0  0  0  0  0  0  0  0  0  0  0
  156.8293  140.0313  162.4845 H   0  0  0  0  0  0  0  0  0  0  0  0
  154.7753  141.1392  161.8867 H   0  0  0  0  0  0  0  0  0  0  0  0
  152.1242  141.9818  161.3272 H   0  0  0  0  0  0  0  0  0  0  0  0
  153.5602  142.9764  161.1405 H   0  0  0  0  0  0  0  0  0  0  0  0
  152.9474  144.9957  159.6699 H   0  0  0  0  0  0  0  0  0  0  0  0
  150.5057  143.1204  156.9284 H   0  0  0  0  0  0  0  0  0  0  0  0
  1  2  1  0  0  0  0
  1 16  1  0  0  0  0
  1 17  1  0  0  0  0
  1 18  1  0  0  0  0
  2  3  1  0  0  0  0
  2 19  1  0  0  0  0
  3  4  2  0  0  0  0
  3  5  1  0  0  0  0
  5  6  1  0  0  0  0
  5  7  1  0  0  0  0
  5 20  1  0  0  0  0
  6 21  1  0  0  0  0
  6 22  1  0  0  0  0
  6 23  1  0  0  0  0
  7  8  1  0  0  0  0
  7 24  1  0  0  0  0
  8  9  2  0  0  0  0
  8 10  1  0  0  0  0
 10 11  1  0  0  0  0
 10 25  1  0  0  0  0
 10 26  1  0  0  0  0
 11 15  1  0  0  0  0
 11 12  1  0  0  0  0
 12 13  2  0  0  0  0
 12 27  1  0  0  0  0
 13 14  1  0  0  0  0
 14 15  2  0  0  0  0
 14 28  1  0  0  0  0
M  END
> <s_m_source_file>
AV-unprocessed.smi

> <i_m_source_file_index>
944

> <i_lp_mmshare_version>
43012

> <i_f3d_flags>
0

> <s_epik_input>
W0NIM11bTkhdQyg9TylbQ0BIXShbQ0gzXSlbTkhdQyg9TylbQ0gyXW4xW2NIXW5bY0hdbjE=

> <s_epik_cmdline>
J2VwaWtfcHl0aG9uJywgJy1waCcsICc3LjAnLCAnLXRuJywgJzgnLCAnLW1hJywgJzIwMCcsICctbWV0YWxfYmluZGluZycsICctaW1hZScsICc8aW5maWxlLm1hZT4nLCAnLW9tYWUnLCAnPG91dGZpbGUubWFlPic=

> <r_lp_tautomer_probability>
1

> <r_epik_Ionization_Penalty>
7.54354e-06

> <r_epik_Ionization_Penalty_Charging>
0

> <r_epik_Ionization_Penalty_Neutral>
7.54354e-06

> <r_epik_State_Penalty>
-0

> <r_epik_Charging_Adjusted_Penalty>
0

> <i_epik_Tot_Q>
0

> <i_epik_Tot_abs_Q>
0

> <r_epik_Metal_State_Penalty>
-0

> <b_epik_Metal_Only>
0

> <s_lp_Force_Field>
OPLS_2005

> <r_lp_Energy>
4.79019

> <b_lp_Chiralities_Consistent>
1

> <s_lp_Variant>
AV-unprocessed.smi:944-2

> <Gold.Version>
5.8.1

> <Gold.Id.Protein>
6NUR|6NUR_protein|mol2

> <Gold.PLP.Fitness>
33.6033

> <Gold.PLP.PLP>
-28.5953

> <Gold.PLP.part.hbond>
-2.2641

> <Gold.PLP.part.metal>
0.0000

> <Gold.PLP.part.buried>
-4.4438

> <Gold.PLP.part.nonpolar>
-22.6671

> <Gold.PLP.part.repulsive>
0.2590

> <Gold.PLP.ligand.clash>
0.0000

> <Gold.PLP.ligand.torsion>
0.5040

> <Gold.PLP.Chemscore.Hbond>
1.0000

> <Gold.PLP.Chemscore.CHOScore>
1.0000

> <Gold.PLP.Chemscore.Metal>
0.0000

> <Gold.Chemscore.Hbonds>
donor molecule, donor type, donor heavy atom, donor atom, acceptor molecule, acceptor atom, score
      P1  H  7997  8010       L1     4  1.00
      L1  C    14    28       P1  8028  0.82

> <Gold.PLP.Chemscore.Internal.Correction>
0.0160

> <Gold.Rescore>
     Score         DG    S(hbond)    S(metal)    S(lipo)     H(rot)  DE(clash)    DE(int)     intcor
      4.47      -5.38       0.96        0.00      31.84       2.74       0.00       0.91       ----

> <Gold.Chemscore.Fitness>
4.4688

> <Gold.Chemscore.DG>
-5.3800

> <Gold.Chemscore.ZeroCoef>
-5.4800

> <Gold.Chemscore.Hbond>
0.9568

> <Gold.Chemscore.Metal>
0.0000

> <Gold.Chemscore.Lipo>
31.8409

> <Gold.Chemscore.Internal_Hbond>
0.0000

> <Gold.Chemscore.DEClash>
0.0021

> <Gold.Chemscore.DEInternal>
0.9091

> <Gold.Chemscore.Rot>
2.7426

> <Gold.Chemscore.Internal.Correction>
   9.000000E+99

> <Gold.Chemscore.Hbonds>
donor molecule, donor type, donor heavy atom, donor atom, acceptor molecule, acceptor atom, score
      P1  H  7997  8010       L1     4  0.78

> <Gold.Chemscore.Hbond.Weighted>
-3.1956

> <Gold.Chemscore.Metal.Weighted>
-0.0000

> <Gold.Chemscore.Lipo.Weighted>
-3.7254

> <Gold.Chemscore.Internal_Hbond.Weighted>
0.0000

> <Gold.Chemscore.DEClash.Weighted>
0.0021

> <Gold.Chemscore.DEInternal.Weighted>
0.9091

> <Gold.Chemscore.Rot.Weighted>
7.0210

> <Gold.Chemscore.Internal.Correction.Weighted>
   9.000000E+99

> <Gold.Protein.RotatedTorsions>
[ 6907 6896 6895 6894 ] final  124.49 input  -60.11 | X-H torsion
[ 7974 7965 7964 7962 ] final  -57.69 input  175.53 | X-H torsion
[ 8008 7997 7996 7995 ] final  -40.82 input   59.86 | X-H torsion
[ 10167 10162 10161 10158 ] final  -32.60 input  -65.29 | X-H torsion
[ 10718 10713 10712 10709 ] final  114.57 input   66.30 | X-H torsion
[ 10763 10752 10751 10750 ] final  -85.40 input  -60.55 | X-H torsion
[ 11005 11000 10999 10996 ] final   95.03 input  -57.11 | X-H torsion

> <Gold.Protein.ActiveResidues>
 VAL166  LYS551  ARG553  GLY616  TRP617  ASP618  TYR619  PRO620  LYS621  CYS622 
 ASP623  PHE694  ASN695  SER759  ASP760  ASP761  ALA762  ILE779  LEU786  VAL792 
 PHE793  MET794  SER795  GLU796  ALA797  LYS798  CYS799  TRP800  GLU811  SER814 

> <Gold.Protein.RotatedAtoms>
  152.4073  133.6909  159.6367 H   0  0  0  0  0  0  0  0  0  0  0  0  # atno 6907 bound_to 6896
  150.7957  133.8686  159.3261 H   0  0  0  0  0  0  0  0  0  0  0  0  # atno 6908 bound_to 6896
  151.6437  135.1011  160.0198 H   0  0  0  0  0  0  0  0  0  0  0  0  # atno 6909 bound_to 6896
  145.8481  140.8371  143.0000 H   0  0  0  0  0  0  0  0  0  0  0  0  # atno 7974 bound_to 7965
  154.4009  140.1515  156.3090 H   0  0  0  0  0  0  0  0  0  0  0  0  # atno 8008 bound_to 7997
  155.8633  140.3452  155.5749 H   0  0  0  0  0  0  0  0  0  0  0  0  # atno 8009 bound_to 7997
  155.7856  140.0849  157.2026 H   0  0  0  0  0  0  0  0  0  0  0  0  # atno 8010 bound_to 7997
  140.7218  143.3683  151.1828 H   0  0  0  0  0  0  0  0  0  0  0  0  # atno 10167 bound_to 10162
  157.6273  131.1000  150.7204 H   0  0  0  0  0  0  0  0  0  0  0  0  # atno 10718 bound_to 10713
  154.6107  135.5486  153.7470 H   0  0  0  0  0  0  0  0  0  0  0  0  # atno 10763 bound_to 10752
  153.0194  135.6389  154.1582 H   0  0  0  0  0  0  0  0  0  0  0  0  # atno 10764 bound_to 10752
  154.1520  135.2902  155.3112 H   0  0  0  0  0  0  0  0  0  0  0  0  # atno 10765 bound_to 10752
  139.8793  134.8877  156.3951 H   0  0  0  0  0  0  0  0  0  0  0  0  # atno 11005 bound_to 11000
  144.6730  140.0911  143.7465 LP  0  0  0  0  0  0  0  0  0  0  0  0  # atno 17320 bound_to 7965
  145.9389  139.2656  143.1280 LP  0  0  0  0  0  0  0  0  0  0  0  0  # atno 17321 bound_to 7965
  139.7249  143.9165  152.2999 LP  0  0  0  0  0  0  0  0  0  0  0  0  # atno 17342 bound_to 10162
  139.8934  144.6952  150.8745 LP  0  0  0  0  0  0  0  0  0  0  0  0  # atno 17343 bound_to 10162
  156.7550  130.4780  149.5448 LP  0  0  0  0  0  0  0  0  0  0  0  0  # atno 17370 bound_to 10713
  156.1454  130.6273  151.0524 LP  0  0  0  0  0  0  0  0  0  0  0  0  # atno 17371 bound_to 10713
  140.9306  133.7582  156.0019 LP  0  0  0  0  0  0  0  0  0  0  0  0  # atno 17394 bound_to 11000
  140.8335  134.3150  157.5340 LP  0  0  0  0  0  0  0  0  0  0  0  0  # atno 17395 bound_to 11000

$$$$
