AV-unprocessed.smi:1560|AV-procd|sdf|6280|dock1
  -GOLD-   22720 6473D 1   1.00000     0.00000
 Structure written by MMmdl.
 46 47  0  0  0  0  0  0  0  0  2 V2000
  149.2596  141.8910  155.6676 C   0  0  0  0  0  0  0  0  0  0  0  0
  149.1589  141.1036  156.9866 C   0  0  0  0  0  0  0  0  0  0  0  0
  150.5110  140.8335  157.7220 C   0  0  2  0  0  0  0  0  0  0  0  0
  151.5228  140.4021  156.6260 C   0  0  0  0  0  0  0  0  0  0  0  0
  150.3215  139.6334  158.7072 C   0  0  0  0  0  0  0  0  0  0  0  0
  149.4166  138.6001  158.2059 N   0  0  0  0  0  0  0  0  0  0  0  0
  149.2280  137.3898  158.7526 C   0  0  0  0  0  0  0  0  0  0  0  0
  149.8599  136.9764  159.7252 O   0  0  0  0  0  0  0  0  0  0  0  0
  148.1597  136.5090  158.0961 C   0  0  0  0  0  0  0  0  0  0  0  0
  147.3095  135.8508  159.0998 N   0  0  0  0  0  0  0  0  0  0  0  0
  147.1746  134.4531  159.0312 C   0  0  0  0  0  0  0  0  0  0  0  0
  146.4288  133.7676  159.9187 C   0  0  0  0  0  0  0  0  0  0  0  0
  145.7504  134.5128  160.9722 C   0  0  0  0  0  0  0  0  0  0  0  0
  145.0632  133.9038  161.7898 O   0  0  0  0  0  0  0  0  0  0  0  0
  145.9147  135.8678  160.9980 N   0  5  0  0  0  0  0  0  0  0  0  0
  146.6784  136.5515  160.0906 C   0  0  0  0  0  0  0  0  0  0  0  0
  146.8173  137.7746  160.1355 O   0  0  0  0  0  0  0  0  0  0  0  0
  150.9895  142.0593  158.4222 N   0  0  0  0  0  0  0  0  0  0  0  0
  151.2066  143.2285  157.5622 C   0  0  0  0  0  0  0  0  0  0  0  0
  151.5576  144.4858  158.3762 C   0  0  0  0  0  0  0  0  0  0  0  0
  152.7041  144.2342  159.1800 O   0  0  0  0  0  0  0  0  0  0  0  0
  152.5138  143.1405  160.0697 C   0  0  0  0  0  0  0  0  0  0  0  0
  152.1764  141.8734  159.2661 C   0  0  0  0  0  0  0  0  0  0  0  0
  148.2692  142.0319  155.2344 H   0  0  0  0  0  0  0  0  0  0  0  0
  149.8630  141.3650  154.9284 H   0  0  0  0  0  0  0  0  0  0  0  0
  149.6929  142.8801  155.8144 H   0  0  0  0  0  0  0  0  0  0  0  0
  148.4633  141.6161  157.6513 H   0  0  0  0  0  0  0  0  0  0  0  0
  148.6657  140.1597  156.7544 H   0  0  0  0  0  0  0  0  0  0  0  0
  151.0992  139.6622  155.9455 H   0  0  0  0  0  0  0  0  0  0  0  0
  152.4184  139.9496  157.0520 H   0  0  0  0  0  0  0  0  0  0  0  0
  151.8439  141.2484  156.0182 H   0  0  0  0  0  0  0  0  0  0  0  0
  151.2720  139.1333  158.8874 H   0  0  0  0  0  0  0  0  0  0  0  0
  149.9804  139.9786  159.6832 H   0  0  0  0  0  0  0  0  0  0  0  0
  148.8453  138.8472  157.4109 H   0  0  0  0  0  0  0  0  0  0  0  0
  147.5481  137.0971  157.4087 H   0  0  0  0  0  0  0  0  0  0  0  0
  148.6625  135.7690  157.4720 H   0  0  0  0  0  0  0  0  0  0  0  0
  147.7156  133.9773  158.2265 H   0  0  0  0  0  0  0  0  0  0  0  0
  146.3383  132.6932  159.8546 H   0  0  0  0  0  0  0  0  0  0  0  0
  152.0142  143.0353  156.8563 H   0  0  0  0  0  0  0  0  0  0  0  0
  150.3178  143.4504  156.9742 H   0  0  0  0  0  0  0  0  0  0  0  0
  151.7682  145.3219  157.7090 H   0  0  0  0  0  0  0  0  0  0  0  0
  150.7191  144.7833  159.0078 H   0  0  0  0  0  0  0  0  0  0  0  0
  153.4247  142.9901  160.6492 H   0  0  0  0  0  0  0  0  0  0  0  0
  151.7171  143.3716  160.7789 H   0  0  0  0  0  0  0  0  0  0  0  0
  152.0307  141.0596  159.9737 H   0  0  0  0  0  0  0  0  0  0  0  0
  153.0387  141.6095  158.6543 H   0  0  0  0  0  0  0  0  0  0  0  0
  1  2  1  0  0  0  0
  1 24  1  0  0  0  0
  1 25  1  0  0  0  0
  1 26  1  0  0  0  0
  2  3  1  0  0  0  0
  2 27  1  0  0  0  0
  2 28  1  0  0  0  0
  3  4  1  0  0  0  0
  3  5  1  0  0  0  0
  3 18  1  0  0  0  0
  4 29  1  0  0  0  0
  4 30  1  0  0  0  0
  4 31  1  0  0  0  0
  5  6  1  0  0  0  0
  5 32  1  0  0  0  0
  5 33  1  0  0  0  0
  6  7  1  0  0  0  0
  6 34  1  0  0  0  0
  7  8  2  0  0  0  0
  7  9  1  0  0  0  0
  9 10  1  0  0  0  0
  9 35  1  0  0  0  0
  9 36  1  0  0  0  0
 10 16  1  0  0  0  0
 10 11  1  0  0  0  0
 11 12  2  0  0  0  0
 11 37  1  0  0  0  0
 12 13  1  0  0  0  0
 12 38  1  0  0  0  0
 13 14  2  0  0  0  0
 13 15  1  0  0  0  0
 15 16  1  0  0  0  0
 16 17  2  0  0  0  0
 18 23  1  0  0  0  0
 18 19  1  0  0  0  0
 19 20  1  0  0  0  0
 19 39  1  0  0  0  0
 19 40  1  0  0  0  0
 20 21  1  0  0  0  0
 20 41  1  0  0  0  0
 20 42  1  0  0  0  0
 21 22  1  0  0  0  0
 22 23  1  0  0  0  0
 22 43  1  0  0  0  0
 22 44  1  0  0  0  0
 23 45  1  0  0  0  0
 23 46  1  0  0  0  0
M  CHG  1  15  -1
M  END
> <s_m_source_file>
AV-unprocessed.smi

> <i_m_source_file_index>
1560

> <i_lp_mmshare_version>
43012

> <i_f3d_flags>
0

> <s_epik_input>
W0NIMl0xW0NIMl1PW0NIMl1bQ0gyXU4xW0NAQF0oW0NIM10pKFtDSDJdW0NIM10pW0NIMl1bTkhdQyg9TylbQ0gyXW4yW2NIXVtjSF1jKD1PKVtuSF1jMj1P

> <s_epik_cmdline>
J2VwaWtfcHl0aG9uJywgJy1waCcsICc3LjAnLCAnLXRuJywgJzgnLCAnLW1hJywgJzIwMCcsICctbWV0YWxfYmluZGluZycsICctaW1hZScsICc8aW5maWxlLm1hZT4nLCAnLW9tYWUnLCAnPG91dGZpbGUubWFlPic=

> <r_lp_tautomer_probability>
0.999537

> <r_epik_Ionization_Penalty>
3.35108

> <r_epik_Ionization_Penalty_Charging>
2.65778e-08

> <r_epik_Ionization_Penalty_Neutral>
3.35108

> <r_epik_State_Penalty>
3.36199

> <r_epik_Charging_Adjusted_Penalty>
3.36199

> <i_epik_Tot_Q>
-1

> <i_epik_Tot_abs_Q>
1

> <r_epik_Metal_State_Penalty>
0.748914

> <b_epik_Metal_Only>
1

> <s_lp_Force_Field>
OPLS_2005

> <r_lp_Energy>
50.983

> <b_lp_Chiralities_Consistent>
1

> <s_lp_Variant>
AV-unprocessed.smi:1560-6

> <Gold.Version>
5.8.1

> <Gold.Id.Protein>
6NUR|6NUR_protein|mol2

> <Gold.PLP.Fitness>
43.2953

> <Gold.PLP.PLP>
-37.3916

> <Gold.PLP.part.hbond>
-3.8768

> <Gold.PLP.part.metal>
0.0000

> <Gold.PLP.part.buried>
-5.2388

> <Gold.PLP.part.nonpolar>
-30.0382

> <Gold.PLP.part.repulsive>
0.2111

> <Gold.PLP.ligand.clash>
0.0000

> <Gold.PLP.ligand.torsion>
0.9142

> <Gold.PLP.Chemscore.Hbond>
2.5345

> <Gold.PLP.Chemscore.CHOScore>
0.0000

> <Gold.PLP.Chemscore.Metal>
0.0000

> <Gold.Chemscore.Hbonds>
donor molecule, donor type, donor heavy atom, donor atom, acceptor molecule, acceptor atom, score
      P1  H  6896  6907       L1     8  0.31
      P1  H  6934  6947       L1    17  0.96

> <Gold.PLP.Chemscore.Internal.Correction>
0.1285

> <Gold.Rescore>
     Score         DG    S(hbond)    S(metal)    S(lipo)     H(rot)  DE(clash)    DE(int)     intcor
     13.09     -15.11       1.96        0.00      79.19       2.42       0.73       1.29       ----

> <Gold.Chemscore.Fitness>
13.0904

> <Gold.Chemscore.DG>
-15.1103

> <Gold.Chemscore.ZeroCoef>
-5.4800

> <Gold.Chemscore.Hbond>
1.9638

> <Gold.Chemscore.Metal>
0.0000

> <Gold.Chemscore.Lipo>
79.1922

> <Gold.Chemscore.Internal_Hbond>
0.0000

> <Gold.Chemscore.DEClash>
0.7335

> <Gold.Chemscore.DEInternal>
1.2865

> <Gold.Chemscore.Rot>
2.4197

> <Gold.Chemscore.Internal.Correction>
   9.000000E+99

> <Gold.Chemscore.Hbonds>
donor molecule, donor type, donor heavy atom, donor atom, acceptor molecule, acceptor atom, score
      P1  H  6896  6907       L1     8  0.31
      P1  H  6934  6947       L1    17  0.89

> <Gold.Chemscore.Hbond.Weighted>
-6.5592

> <Gold.Chemscore.Metal.Weighted>
-0.0000

> <Gold.Chemscore.Lipo.Weighted>
-9.2655

> <Gold.Chemscore.Internal_Hbond.Weighted>
0.0000

> <Gold.Chemscore.DEClash.Weighted>
0.7335

> <Gold.Chemscore.DEInternal.Weighted>
1.2865

> <Gold.Chemscore.Rot.Weighted>
6.1943

> <Gold.Chemscore.Internal.Correction.Weighted>
   9.000000E+99

> <Gold.Protein.RotatedTorsions>
[ 6907 6896 6895 6894 ] final  -19.21 input  -60.11 | X-H torsion
[ 7974 7965 7964 7962 ] final  120.85 input  175.53 | X-H torsion
[ 8008 7997 7996 7995 ] final   99.40 input   59.86 | X-H torsion
[ 10167 10162 10161 10158 ] final  -15.04 input  -65.29 | X-H torsion
[ 10718 10713 10712 10709 ] final  -92.20 input   66.30 | X-H torsion
[ 10763 10752 10751 10750 ] final -108.24 input  -60.55 | X-H torsion
[ 11005 11000 10999 10996 ] final    8.60 input  -57.11 | X-H torsion

> <Gold.Protein.ActiveResidues>
 VAL166  LYS551  ARG553  GLY616  TRP617  ASP618  TYR619  PRO620  LYS621  CYS622 
 ASP623  PHE694  ASN695  SER759  ASP760  ASP761  ALA762  ILE779  LEU786  VAL792 
 PHE793  MET794  SER795  GLU796  ALA797  LYS798  CYS799  TRP800  GLU811  SER814 

> <Gold.Protein.RotatedAtoms>
  151.2665  135.0671  159.9117 H   0  0  0  0  0  0  0  0  0  0  0  0  # atno 6907 bound_to 6896
  152.5357  134.0175  159.7977 H   0  0  0  0  0  0  0  0  0  0  0  0  # atno 6908 bound_to 6896
  151.0407  133.5659  159.2682 H   0  0  0  0  0  0  0  0  0  0  0  0  # atno 6909 bound_to 6896
  145.1262  139.3357  143.4688 H   0  0  0  0  0  0  0  0  0  0  0  0  # atno 7974 bound_to 7965
  156.1101  140.3229  155.8061 H   0  0  0  0  0  0  0  0  0  0  0  0  # atno 8008 bound_to 7997
  155.4688  140.0545  157.2999 H   0  0  0  0  0  0  0  0  0  0  0  0  # atno 8009 bound_to 7997
  154.4754  140.2030  155.9905 H   0  0  0  0  0  0  0  0  0  0  0  0  # atno 8010 bound_to 7997
  140.7212  143.5259  150.9577 H   0  0  0  0  0  0  0  0  0  0  0  0  # atno 10167 bound_to 10162
  156.0000  130.4978  150.5590 H   0  0  0  0  0  0  0  0  0  0  0  0  # atno 10718 bound_to 10713
  154.8123  135.4645  154.0551 H   0  0  0  0  0  0  0  0  0  0  0  0  # atno 10763 bound_to 10752
  153.1971  135.6863  153.8285 H   0  0  0  0  0  0  0  0  0  0  0  0  # atno 10764 bound_to 10752
  153.7782  135.3260  155.3339 H   0  0  0  0  0  0  0  0  0  0  0  0  # atno 10765 bound_to 10752
  140.5352  134.0428  155.7886 H   0  0  0  0  0  0  0  0  0  0  0  0  # atno 11005 bound_to 11000
  146.3517  140.1242  142.8599 LP  0  0  0  0  0  0  0  0  0  0  0  0  # atno 17320 bound_to 7965
  145.0685  140.9139  143.4896 LP  0  0  0  0  0  0  0  0  0  0  0  0  # atno 17321 bound_to 7965
  139.8978  143.6873  152.3136 LP  0  0  0  0  0  0  0  0  0  0  0  0  # atno 17342 bound_to 10162
  139.7212  144.7602  151.0952 LP  0  0  0  0  0  0  0  0  0  0  0  0  # atno 17343 bound_to 10162
  157.3502  131.0732  151.1719 LP  0  0  0  0  0  0  0  0  0  0  0  0  # atno 17370 bound_to 10713
  157.2538  130.6626  149.5943 LP  0  0  0  0  0  0  0  0  0  0  0  0  # atno 17371 bound_to 10713
  141.1259  133.9384  157.2636 LP  0  0  0  0  0  0  0  0  0  0  0  0  # atno 17394 bound_to 11000
  139.9533  135.0171  156.9057 LP  0  0  0  0  0  0  0  0  0  0  0  0  # atno 17395 bound_to 11000

$$$$
