AV-unprocessed.smi:1971|AV-procd|sdf|7966|dock1
  -GOLD-   2272010133D 1   1.00000     0.00000
 Structure written by MMmdl.
 43 44  0  0  0  0  0  0  0  0  1 V2000
  152.0904  144.8632  158.8178 C   0  0  0  0  0  0  0  0  0  0  0  0
  152.0187  143.4133  159.3180 C   0  0  0  0  0  0  0  0  0  0  0  0
  152.1301  142.3969  158.2737 N   0  0  0  0  0  0  0  0  0  0  0  0
  150.9666  142.4233  157.3911 C   0  0  0  0  0  0  0  0  0  0  0  0
  151.0784  141.3737  156.2703 C   0  0  0  0  0  0  0  0  0  0  0  0
  151.2040  140.0079  156.7982 N   0  0  0  0  0  0  0  0  0  0  0  0
  151.3073  138.9948  155.7253 C   0  0  2  0  0  0  0  0  0  0  0  0
  152.5088  139.2197  154.7797 C   0  0  0  0  0  0  0  0  0  0  0  0
  150.0244  138.8520  154.8650 C   0  0  0  0  0  0  0  0  0  0  0  0
  149.8200  137.4849  154.3892 N   0  0  0  0  0  0  0  0  0  0  0  0
  150.1165  136.3678  155.0684 C   0  0  0  0  0  0  0  0  0  0  0  0
  150.6021  136.3672  156.1995 O   0  0  0  0  0  0  0  0  0  0  0  0
  149.8178  135.2716  154.3526 N   0  0  0  0  0  0  0  0  0  0  0  0
  149.9687  133.9163  154.7379 C   0  0  0  0  0  0  0  0  0  0  0  0
  150.6322  133.6348  155.8609 N   0  0  0  0  0  0  0  0  0  0  0  0
  150.6980  132.2592  156.1011 C   0  0  0  0  0  0  0  0  0  0  0  0
  150.0737  131.5006  155.1423 C   0  0  0  0  0  0  0  0  0  0  0  0
  149.3710  132.4880  153.8893 S   0  0  0  0  0  0  0  0  0  0  0  0
  152.3634  139.9910  157.7012 C   0  0  0  0  0  0  0  0  0  0  0  0
  152.2495  141.0444  158.8182 C   0  0  0  0  0  0  0  0  0  0  0  0
  151.8898  145.5593  159.6324 H   0  0  0  0  0  0  0  0  0  0  0  0
  151.3518  145.0469  158.0372 H   0  0  0  0  0  0  0  0  0  0  0  0
  153.0737  145.1093  158.4179 H   0  0  0  0  0  0  0  0  0  0  0  0
  152.7846  143.2518  160.0781 H   0  0  0  0  0  0  0  0  0  0  0  0
  151.0615  143.2911  159.8266 H   0  0  0  0  0  0  0  0  0  0  0  0
  150.0553  142.2494  157.9659 H   0  0  0  0  0  0  0  0  0  0  0  0
  150.8671  143.4125  156.9428 H   0  0  0  0  0  0  0  0  0  0  0  0
  150.1862  141.4626  155.6524 H   0  0  0  0  0  0  0  0  0  0  0  0
  151.9304  141.6079  155.6300 H   0  0  0  0  0  0  0  0  0  0  0  0
  151.4667  138.0241  156.1973 H   0  0  0  0  0  0  0  0  0  0  0  0
  152.4803  138.5322  153.9339 H   0  0  0  0  0  0  0  0  0  0  0  0
  153.4614  139.0464  155.2792 H   0  0  0  0  0  0  0  0  0  0  0  0
  152.5189  140.2338  154.3788 H   0  0  0  0  0  0  0  0  0  0  0  0
  149.1570  139.2000  155.4285 H   0  0  0  0  0  0  0  0  0  0  0  0
  150.0620  139.5107  153.9985 H   0  0  0  0  0  0  0  0  0  0  0  0
  149.4344  137.3860  153.4613 H   0  0  0  0  0  0  0  0  0  0  0  0
  149.4303  135.4221  153.4329 H   0  0  0  0  0  0  0  0  0  0  0  0
  151.2120  131.9048  156.9826 H   0  0  0  0  0  0  0  0  0  0  0  0
  149.9849  130.4254  155.0972 H   0  0  0  0  0  0  0  0  0  0  0  0
  152.4577  139.0193  158.1828 H   0  0  0  0  0  0  0  0  0  0  0  0
  153.2820  140.1525  157.1346 H   0  0  0  0  0  0  0  0  0  0  0  0
  153.1320  140.9706  159.4525 H   0  0  0  0  0  0  0  0  0  0  0  0
  151.3898  140.8168  159.4507 H   0  0  0  0  0  0  0  0  0  0  0  0
  1  2  1  0  0  0  0
  1 21  1  0  0  0  0
  1 22  1  0  0  0  0
  1 23  1  0  0  0  0
  2  3  1  0  0  0  0
  2 24  1  0  0  0  0
  2 25  1  0  0  0  0
  3 20  1  0  0  0  0
  3  4  1  0  0  0  0
  4  5  1  0  0  0  0
  4 26  1  0  0  0  0
  4 27  1  0  0  0  0
  5  6  1  0  0  0  0
  5 28  1  0  0  0  0
  5 29  1  0  0  0  0
  6  7  1  0  0  0  0
  6 19  1  0  0  0  0
  7  8  1  0  0  0  0
  7  9  1  0  0  0  0
  7 30  1  0  0  0  0
  8 31  1  0  0  0  0
  8 32  1  0  0  0  0
  8 33  1  0  0  0  0
  9 10  1  0  0  0  0
  9 34  1  0  0  0  0
  9 35  1  0  0  0  0
 10 11  1  0  0  0  0
 10 36  1  0  0  0  0
 11 12  2  0  0  0  0
 11 13  1  0  0  0  0
 13 14  1  0  0  0  0
 13 37  1  0  0  0  0
 14 18  1  0  0  0  0
 14 15  2  0  0  0  0
 15 16  1  0  0  0  0
 16 17  2  0  0  0  0
 16 38  1  0  0  0  0
 17 18  1  0  0  0  0
 17 39  1  0  0  0  0
 19 20  1  0  0  0  0
 19 40  1  0  0  0  0
 19 41  1  0  0  0  0
 20 42  1  0  0  0  0
 20 43  1  0  0  0  0
M  END
> <s_m_source_file>
AV-unprocessed.smi

> <i_m_source_file_index>
1971

> <i_lp_mmshare_version>
43012

> <i_f3d_flags>
0

> <s_epik_input>
W0NIM11bQ0gyXU4xW0NIMl1bQ0gyXU4oW0NIMl1bQ0gyXTEpW0NASF0oW0NIM10pW0NIMl1bTkhdQyg9TylbTkhdYzJuW2NIXVtjSF1zMg==

> <s_epik_cmdline>
J2VwaWtfcHl0aG9uJywgJy1waCcsICc3LjAnLCAnLXRuJywgJzgnLCAnLW1hJywgJzIwMCcsICctbWV0YWxfYmluZGluZycsICctaW1hZScsICc8aW5maWxlLm1hZT4nLCAnLW9tYWUnLCAnPG91dGZpbGUubWFlPic=

> <r_lp_tautomer_probability>
0.999

> <r_epik_Ionization_Penalty>
2.43994

> <r_epik_Ionization_Penalty_Charging>
0

> <r_epik_Ionization_Penalty_Neutral>
2.43994

> <r_epik_State_Penalty>
1.7682

> <r_epik_Charging_Adjusted_Penalty>
1.7682

> <i_epik_Tot_Q>
0

> <i_epik_Tot_abs_Q>
0

> <r_epik_Metal_State_Penalty>
1.80147

> <b_epik_Metal_Only>
0

> <s_lp_Force_Field>
OPLS_2005

> <r_lp_Energy>
42.0055

> <b_lp_Chiralities_Consistent>
1

> <s_lp_Variant>
AV-unprocessed.smi:1971-5

> <Gold.Version>
5.8.1

> <Gold.Id.Protein>
6NUR|6NUR_protein|mol2

> <Gold.PLP.Fitness>
42.8636

> <Gold.PLP.PLP>
-37.9959

> <Gold.PLP.part.hbond>
-2.1033

> <Gold.PLP.part.metal>
0.0000

> <Gold.PLP.part.buried>
-3.1610

> <Gold.PLP.part.nonpolar>
-32.6955

> <Gold.PLP.part.repulsive>
0.0943

> <Gold.PLP.ligand.clash>
0.0000

> <Gold.PLP.ligand.torsion>
0.5998

> <Gold.PLP.Chemscore.Hbond>
1.9920

> <Gold.PLP.Chemscore.CHOScore>
0.0000

> <Gold.PLP.Chemscore.Metal>
0.0000

> <Gold.Chemscore.Hbonds>
donor molecule, donor type, donor heavy atom, donor atom, acceptor molecule, acceptor atom, score
      L1  H    10    36       P1  7948  1.00
      L1  H    13    37       P1  7948  0.85

> <Gold.PLP.Chemscore.Internal.Correction>
0.0913

> <Gold.Rescore>
     Score         DG    S(hbond)    S(metal)    S(lipo)     H(rot)  DE(clash)    DE(int)     intcor
     13.58     -17.08       1.79        0.00      86.25       1.75       0.01       3.49       ----

> <Gold.Chemscore.Fitness>
13.5797

> <Gold.Chemscore.DG>
-17.0822

> <Gold.Chemscore.ZeroCoef>
-5.4800

> <Gold.Chemscore.Hbond>
1.7915

> <Gold.Chemscore.Metal>
0.0000

> <Gold.Chemscore.Lipo>
86.2533

> <Gold.Chemscore.Internal_Hbond>
0.0000

> <Gold.Chemscore.DEClash>
0.0086

> <Gold.Chemscore.DEInternal>
3.4939

> <Gold.Chemscore.Rot>
1.7473

> <Gold.Chemscore.Internal.Correction>
   9.000000E+99

> <Gold.Chemscore.Hbonds>
donor molecule, donor type, donor heavy atom, donor atom, acceptor molecule, acceptor atom, score
      L1  H    10    36       P1  7948  0.86
      L1  H    13    37       P1  7948  0.15

> <Gold.Chemscore.Hbond.Weighted>
-5.9836

> <Gold.Chemscore.Metal.Weighted>
-0.0000

> <Gold.Chemscore.Lipo.Weighted>
-10.0916

> <Gold.Chemscore.Internal_Hbond.Weighted>
0.0000

> <Gold.Chemscore.DEClash.Weighted>
0.0086

> <Gold.Chemscore.DEInternal.Weighted>
3.4939

> <Gold.Chemscore.Rot.Weighted>
4.4731

> <Gold.Chemscore.Internal.Correction.Weighted>
   9.000000E+99

> <Gold.Protein.RotatedTorsions>
[ 6907 6896 6895 6894 ] final -177.20 input  -60.11 | X-H torsion
[ 7974 7965 7964 7962 ] final   76.69 input  175.53 | X-H torsion
[ 8008 7997 7996 7995 ] final   99.27 input   59.86 | X-H torsion
[ 10167 10162 10161 10158 ] final -127.59 input  -65.29 | X-H torsion
[ 10718 10713 10712 10709 ] final   -9.81 input   66.30 | X-H torsion
[ 10763 10752 10751 10750 ] final  128.81 input  -60.55 | X-H torsion
[ 11005 11000 10999 10996 ] final  -38.99 input  -57.11 | X-H torsion

> <Gold.Protein.ActiveResidues>
 VAL166  LYS551  ARG553  GLY616  TRP617  ASP618  TYR619  PRO620  LYS621  CYS622 
 ASP623  PHE694  ASN695  SER759  ASP760  ASP761  ALA762  ILE779  LEU786  VAL792 
 PHE793  MET794  SER795  GLU796  ALA797  LYS798  CYS799  TRP800  GLU811  SER814 

> <Gold.Protein.RotatedAtoms>
  151.6171  133.3342  159.3079 H   0  0  0  0  0  0  0  0  0  0  0  0  # atno 6907 bound_to 6896
  150.8125  134.7292  159.6712 H   0  0  0  0  0  0  0  0  0  0  0  0  # atno 6908 bound_to 6896
  152.4222  134.5939  160.0033 H   0  0  0  0  0  0  0  0  0  0  0  0  # atno 6909 bound_to 6896
  145.6996  139.2578  143.1713 H   0  0  0  0  0  0  0  0  0  0  0  0  # atno 7974 bound_to 7965
  156.1088  140.3231  155.8043 H   0  0  0  0  0  0  0  0  0  0  0  0  # atno 8008 bound_to 7997
  155.4709  140.0546  157.2997 H   0  0  0  0  0  0  0  0  0  0  0  0  # atno 8009 bound_to 7997
  154.4746  140.2026  155.9925 H   0  0  0  0  0  0  0  0  0  0  0  0  # atno 8010 bound_to 7997
  139.9593  143.5968  152.2450 H   0  0  0  0  0  0  0  0  0  0  0  0  # atno 10167 bound_to 10162
  156.6827  130.5041  149.5966 H   0  0  0  0  0  0  0  0  0  0  0  0  # atno 10718 bound_to 10713
  153.7316  135.3238  155.3287 H   0  0  0  0  0  0  0  0  0  0  0  0  # atno 10763 bound_to 10752
  154.8324  135.4523  154.1116 H   0  0  0  0  0  0  0  0  0  0  0  0  # atno 10764 bound_to 10752
  153.2265  135.6954  153.8020 H   0  0  0  0  0  0  0  0  0  0  0  0  # atno 10765 bound_to 10752
  141.0069  133.6927  156.2127 H   0  0  0  0  0  0  0  0  0  0  0  0  # atno 11005 bound_to 11000
  146.0810  140.7764  142.9642 LP  0  0  0  0  0  0  0  0  0  0  0  0  # atno 17320 bound_to 7965
  144.6972  140.3488  143.7185 LP  0  0  0  0  0  0  0  0  0  0  0  0  # atno 17321 bound_to 7965
  139.6567  144.7662  151.2042 LP  0  0  0  0  0  0  0  0  0  0  0  0  # atno 17342 bound_to 10162
  140.7558  143.6075  150.8638 LP  0  0  0  0  0  0  0  0  0  0  0  0  # atno 17343 bound_to 10162
  156.1856  130.6527  151.1002 LP  0  0  0  0  0  0  0  0  0  0  0  0  # atno 17370 bound_to 10713
  157.7038  131.0765  150.6735 LP  0  0  0  0  0  0  0  0  0  0  0  0  # atno 17371 bound_to 10713
  140.6799  134.4779  157.5589 LP  0  0  0  0  0  0  0  0  0  0  0  0  # atno 17394 bound_to 11000
  139.9068  134.8431  156.1676 LP  0  0  0  0  0  0  0  0  0  0  0  0  # atno 17395 bound_to 11000

$$$$
