AV-unprocessed.smi:1047|AV-procd|sdf|4582|dock9
  -GOLD-   22720 3 53D 1   1.00000     0.00000
 Structure written by MMmdl.
 58 60  0  0  0  0  0  0  0  0  4 V2000
  145.8952  130.4001  152.3027 C   0  0  0  0  0  0  0  0  0  0  0  0
  146.9703  131.1306  153.1198 C   0  0  0  0  0  0  0  0  0  0  0  0
  147.5791  132.2638  152.3736 N   0  3  1  0  0  0  0  0  0  0  0  0
  146.5807  133.1832  151.7753 C   0  0  0  0  0  0  0  0  0  0  0  0
  145.9922  134.1308  152.8354 C   0  0  0  0  0  0  0  0  0  0  0  0
  147.0470  134.8486  153.4646 O   0  0  0  0  0  0  0  0  0  0  0  0
  147.9593  133.9984  154.1517 C   0  0  2  0  0  0  0  0  0  0  0  0
  148.9939  134.9003  154.8463 C   0  0  0  0  0  0  0  0  0  0  0  0
  148.6910  136.3340  154.6567 N   0  3  0  0  0  0  0  0  0  0  0  0
  149.4143  137.2296  155.5825 C   0  0  0  0  0  0  0  0  0  0  0  0
  150.6095  137.9067  154.8901 C   0  0  2  0  0  0  0  0  0  0  0  0
  151.3685  136.9133  154.2283 O   0  0  0  0  0  0  0  0  0  0  0  0
  151.5047  138.6607  155.8941 C   0  0  0  0  0  0  0  0  0  0  0  0
  151.1377  140.0777  156.0382 N   0  0  0  0  0  0  0  0  0  0  0  0
  150.3393  140.8517  155.2529 C   0  0  0  0  0  0  0  0  0  0  0  0
  150.3032  142.0965  155.8029 N   0  3  0  0  0  0  0  0  0  0  0  0
  151.0872  142.1192  156.9581 C   0  0  0  0  0  0  0  0  0  0  0  0
  151.3608  143.1483  157.8510 C   0  0  0  0  0  0  0  0  0  0  0  0
  152.2069  142.8477  158.9419 C   0  0  0  0  0  0  0  0  0  0  0  0
  152.5292  143.9512  159.9352 C   0  0  0  0  0  0  0  0  0  0  0  0
  152.7466  141.5462  159.1098 C   0  0  0  0  0  0  0  0  0  0  0  0
  153.6507  141.2330  160.2899 C   0  0  0  0  0  0  0  0  0  0  0  0
  152.4583  140.5135  158.1889 C   0  0  0  0  0  0  0  0  0  0  0  0
  151.6234  140.8262  157.1182 C   0  0  0  0  0  0  0  0  0  0  0  0
  148.6031  133.0312  153.1295 C   0  0  0  0  0  0  0  0  0  0  0  0
  145.4044  129.6397  152.9107 H   0  0  0  0  0  0  0  0  0  0  0  0
  146.3111  129.8952  151.4315 H   0  0  0  0  0  0  0  0  0  0  0  0
  145.1256  131.0909  151.9570 H   0  0  0  0  0  0  0  0  0  0  0  0
  146.4913  131.5161  154.0206 H   0  0  0  0  0  0  0  0  0  0  0  0
  147.7329  130.4294  153.4573 H   0  0  0  0  0  0  0  0  0  0  0  0
  147.0763  133.7717  151.0021 H   0  0  0  0  0  0  0  0  0  0  0  0
  145.7910  132.6238  151.2722 H   0  0  0  0  0  0  0  0  0  0  0  0
  145.3152  134.8434  152.3643 H   0  0  0  0  0  0  0  0  0  0  0  0
  145.4084  133.5843  153.5776 H   0  0  0  0  0  0  0  0  0  0  0  0
  147.4127  133.4436  154.9157 H   0  0  0  0  0  0  0  0  0  0  0  0
  149.0458  134.6693  155.9112 H   0  0  0  0  0  0  0  0  0  0  0  0
  149.9829  134.7029  154.4303 H   0  0  0  0  0  0  0  0  0  0  0  0
  148.9390  136.5955  153.7125 H   0  0  0  0  0  0  0  0  0  0  0  0
  148.7178  137.9889  155.9409 H   0  0  0  0  0  0  0  0  0  0  0  0
  149.7492  136.6668  156.4553 H   0  0  0  0  0  0  0  0  0  0  0  0
  150.2451  138.6125  154.1423 H   0  0  0  0  0  0  0  0  0  0  0  0
  151.1425  136.9243  153.3100 H   0  0  0  0  0  0  0  0  0  0  0  0
  151.4153  138.2071  156.8820 H   0  0  0  0  0  0  0  0  0  0  0  0
  152.5577  138.5864  155.6219 H   0  0  0  0  0  0  0  0  0  0  0  0
  149.8254  140.5367  154.3562 H   0  0  0  0  0  0  0  0  0  0  0  0
  150.9455  144.1365  157.7177 H   0  0  0  0  0  0  0  0  0  0  0  0
  152.1711  143.6875  160.9305 H   0  0  0  0  0  0  0  0  0  0  0  0
  152.0607  144.8937  159.6507 H   0  0  0  0  0  0  0  0  0  0  0  0
  153.6053  144.1180  159.9866 H   0  0  0  0  0  0  0  0  0  0  0  0
  153.9665  140.1892  160.2857 H   0  0  0  0  0  0  0  0  0  0  0  0
  153.1307  141.4188  161.2302 H   0  0  0  0  0  0  0  0  0  0  0  0
  154.5475  141.8523  160.2609 H   0  0  0  0  0  0  0  0  0  0  0  0
  152.8749  139.5256  158.3174 H   0  0  0  0  0  0  0  0  0  0  0  0
  149.3079  132.3598  153.6185 H   0  0  0  0  0  0  0  0  0  0  0  0
  149.1868  133.6060  152.4092 H   0  0  0  0  0  0  0  0  0  0  0  0
  147.6993  136.4785  154.7826 H   0  0  0  0  0  0  0  0  0  0  0  0
  148.0568  131.8349  151.5932 H   0  0  0  0  0  0  0  0  0  0  0  0
  149.7794  142.8720  155.4173 H   0  0  0  0  0  0  0  0  0  0  0  0
  1  2  1  0  0  0  0
  1 26  1  0  0  0  0
  1 27  1  0  0  0  0
  1 28  1  0  0  0  0
  2  3  1  0  0  0  0
  2 29  1  0  0  0  0
  2 30  1  0  0  0  0
  3 25  1  0  0  0  0
  3  4  1  0  0  0  0
  3 57  1  0  0  0  0
  4  5  1  0  0  0  0
  4 31  1  0  0  0  0
  4 32  1  0  0  0  0
  5  6  1  0  0  0  0
  5 33  1  0  0  0  0
  5 34  1  0  0  0  0
  6  7  1  0  0  0  0
  7  8  1  0  0  0  0
  7 25  1  0  0  0  0
  7 35  1  0  0  0  0
  8  9  1  0  0  0  0
  8 36  1  0  0  0  0
  8 37  1  0  0  0  0
  9 10  1  0  0  0  0
  9 38  1  0  0  0  0
  9 56  1  0  0  0  0
 10 11  1  0  0  0  0
 10 39  1  0  0  0  0
 10 40  1  0  0  0  0
 11 12  1  0  0  0  0
 11 13  1  0  0  0  0
 11 41  1  0  0  0  0
 12 42  1  0  0  0  0
 13 14  1  0  0  0  0
 13 43  1  0  0  0  0
 13 44  1  0  0  0  0
 14 24  1  0  0  0  0
 14 15  1  0  0  0  0
 15 16  2  0  0  0  0
 15 45  1  0  0  0  0
 16 17  1  0  0  0  0
 16 58  1  0  0  0  0
 17 24  2  0  0  0  0
 17 18  1  0  0  0  0
 18 19  2  0  0  0  0
 18 46  1  0  0  0  0
 19 20  1  0  0  0  0
 19 21  1  0  0  0  0
 20 47  1  0  0  0  0
 20 48  1  0  0  0  0
 20 49  1  0  0  0  0
 21 22  1  0  0  0  0
 21 23  2  0  0  0  0
 22 50  1  0  0  0  0
 22 51  1  0  0  0  0
 22 52  1  0  0  0  0
 23 24  1  0  0  0  0
 23 53  1  0  0  0  0
 25 54  1  0  0  0  0
 25 55  1  0  0  0  0
M  CHG  1   3   1
M  CHG  1   9   1
M  CHG  1  16   1
M  END
> <s_m_source_file>
AV-unprocessed.smi

> <i_m_source_file_index>
1047

> <i_lp_mmshare_version>
43012

> <i_f3d_flags>
0

> <s_epik_input>
W0NIM11bQ0gyXU4xW0NIMl1bQ0gyXU9bQ0BIXShbQ0gyXTEpW0NIMl1bTkhdW0NIMl1bQ0BIXShbT0hdKVtDSDJdbihbY0hdbjIpYyhjMjMpW2NIXWMoW0NIM10pYyhbY0hdMylbQ0gzXQ==

> <s_epik_cmdline>
J2VwaWtfcHl0aG9uJywgJy1waCcsICc3LjAnLCAnLXRuJywgJzgnLCAnLW1hJywgJzIwMCcsICctbWV0YWxfYmluZGluZycsICctaW1hZScsICc8aW5maWxlLm1hZT4nLCAnLW9tYWUnLCAnPG91dGZpbGUubWFlPic=

> <r_epik_Ionization_Penalty>
1.6114

> <r_epik_Ionization_Penalty_Charging>
1.61139

> <r_epik_Ionization_Penalty_Neutral>
5.04732e-06

> <r_epik_State_Penalty>
1.63724

> <r_epik_Charging_Adjusted_Penalty>
3.24864

> <i_epik_Tot_Q>
3

> <i_epik_Tot_abs_Q>
3

> <r_epik_Metal_State_Penalty>
5.64594

> <b_epik_Metal_Only>
0

> <s_lp_Force_Field>
OPLS_2005

> <r_lp_Energy>
42.8961

> <b_lp_Chiralities_Consistent>
1

> <s_lp_Variant>
AV-unprocessed.smi:1047-23

> <Gold.Version>
5.8.1

> <Gold.Id.Protein>
6NUR|6NUR_protein|mol2

> <Gold.PLP.Fitness>
67.4808

> <Gold.PLP.PLP>
-50.2720

> <Gold.PLP.part.hbond>
-5.0000

> <Gold.PLP.part.metal>
0.0000

> <Gold.PLP.part.buried>
-6.2091

> <Gold.PLP.part.nonpolar>
-40.5196

> <Gold.PLP.part.repulsive>
1.6501

> <Gold.PLP.ligand.clash>
0.0000

> <Gold.PLP.ligand.torsion>
1.7942

> <Gold.PLP.Chemscore.Hbond>
6.8960

> <Gold.PLP.Chemscore.CHOScore>
0.0000

> <Gold.PLP.Chemscore.Metal>
0.0000

> <Gold.Chemscore.Hbonds>
donor molecule, donor type, donor heavy atom, donor atom, acceptor molecule, acceptor atom, score
      L1  H     3    57       P1 10747  1.00
      L1  H     9    38       P1  7948  2.00
      L1  H    12    42       P1  7949  0.94
      L1  H    16    58       P1  8028  1.85
      P1  H 10752 10763       L1    12  1.00

> <Gold.PLP.Chemscore.Internal.Correction>
0.1092

> <Gold.Rescore>
     Score         DG    S(hbond)    S(metal)    S(lipo)     H(rot)  DE(clash)    DE(int)     intcor
     24.10     -26.19       3.83        0.00     128.56       2.78       0.27       1.82       ----

> <Gold.Chemscore.Fitness>
24.1021

> <Gold.Chemscore.DG>
-26.1914

> <Gold.Chemscore.ZeroCoef>
-5.4800

> <Gold.Chemscore.Hbond>
3.8320

> <Gold.Chemscore.Metal>
0.0000

> <Gold.Chemscore.Lipo>
128.5623

> <Gold.Chemscore.Internal_Hbond>
0.0000

> <Gold.Chemscore.DEClash>
0.2717

> <Gold.Chemscore.DEInternal>
1.8176

> <Gold.Chemscore.Rot>
2.7848

> <Gold.Chemscore.Internal.Correction>
   9.000000E+99

> <Gold.Chemscore.Hbonds>
donor molecule, donor type, donor heavy atom, donor atom, acceptor molecule, acceptor atom, score
      L1  H     3    57       P1 10747  1.00
      L1  H     9    38       P1  7948  0.95
      L1  H    12    42       P1  7949  0.38
      L1  H    16    58       P1  8028  0.84
      P1  H 10752 10763       L1    12  0.43

> <Gold.Chemscore.Hbond.Weighted>
-12.7987

> <Gold.Chemscore.Metal.Weighted>
-0.0000

> <Gold.Chemscore.Lipo.Weighted>
-15.0418

> <Gold.Chemscore.Internal_Hbond.Weighted>
0.0000

> <Gold.Chemscore.DEClash.Weighted>
0.2717

> <Gold.Chemscore.DEInternal.Weighted>
1.8176

> <Gold.Chemscore.Rot.Weighted>
7.1291

> <Gold.Chemscore.Internal.Correction.Weighted>
   9.000000E+99

> <Gold.Protein.RotatedTorsions>
[ 6907 6896 6895 6894 ] final -141.75 input  -60.11 | X-H torsion
[ 7974 7965 7964 7962 ] final   98.40 input  175.53 | X-H torsion
[ 8008 7997 7996 7995 ] final -171.55 input   59.86 | X-H torsion
[ 10167 10162 10161 10158 ] final   87.95 input  -65.29 | X-H torsion
[ 10718 10713 10712 10709 ] final -153.77 input   66.30 | X-H torsion
[ 10763 10752 10751 10750 ] final   43.93 input  -60.55 | X-H torsion
[ 11005 11000 10999 10996 ] final   15.33 input  -57.11 | X-H torsion

> <Gold.Protein.ActiveResidues>
 VAL166  LYS551  ARG553  GLY616  TRP617  ASP618  TYR619  PRO620  LYS621  CYS622 
 ASP623  PHE694  ASN695  SER759  ASP760  ASP761  ALA762  ILE779  LEU786  VAL792 
 PHE793  MET794  SER795  GLU796  ALA797  LYS798  CYS799  TRP800  GLU811  SER814 

> <Gold.Protein.RotatedAtoms>
  151.0780  133.5413  159.2622 H   0  0  0  0  0  0  0  0  0  0  0  0  # atno 6907 bound_to 6896
  151.2327  135.0560  159.9004 H   0  0  0  0  0  0  0  0  0  0  0  0  # atno 6908 bound_to 6896
  152.5420  134.0566  159.8187 H   0  0  0  0  0  0  0  0  0  0  0  0  # atno 6909 bound_to 6896
  145.4126  139.2332  143.3239 H   0  0  0  0  0  0  0  0  0  0  0  0  # atno 7974 bound_to 7965
  155.9330  140.1094  157.1117 H   0  0  0  0  0  0  0  0  0  0  0  0  # atno 8008 bound_to 7997
  154.4074  140.1234  156.4893 H   0  0  0  0  0  0  0  0  0  0  0  0  # atno 8009 bound_to 7997
  155.7056  140.3471  155.4954 H   0  0  0  0  0  0  0  0  0  0  0  0  # atno 8010 bound_to 7997
  139.8721  144.6487  150.8937 H   0  0  0  0  0  0  0  0  0  0  0  0  # atno 10167 bound_to 10162
  156.4903  130.8344  151.2567 H   0  0  0  0  0  0  0  0  0  0  0  0  # atno 10718 bound_to 10713
  152.9851  135.6086  154.3192 H   0  0  0  0  0  0  0  0  0  0  0  0  # atno 10763 bound_to 10752
  154.2903  135.2775  155.2659 H   0  0  0  0  0  0  0  0  0  0  0  0  # atno 10764 bound_to 10752
  154.4958  135.5880  153.6550 H   0  0  0  0  0  0  0  0  0  0  0  0  # atno 10765 bound_to 10752
  140.4595  134.1142  155.7714 H   0  0  0  0  0  0  0  0  0  0  0  0  # atno 11005 bound_to 11000
  146.2697  140.4840  142.8819 LP  0  0  0  0  0  0  0  0  0  0  0  0  # atno 17320 bound_to 7965
  144.8298  140.6689  143.6298 LP  0  0  0  0  0  0  0  0  0  0  0  0  # atno 17321 bound_to 7965
  140.7759  143.3655  151.1748 LP  0  0  0  0  0  0  0  0  0  0  0  0  # atno 17342 bound_to 10162
  139.7274  143.9127  152.3007 LP  0  0  0  0  0  0  0  0  0  0  0  0  # atno 17343 bound_to 10162
  157.7474  131.0015  150.2968 LP  0  0  0  0  0  0  0  0  0  0  0  0  # atno 17370 bound_to 10713
  156.3433  130.3819  149.7390 LP  0  0  0  0  0  0  0  0  0  0  0  0  # atno 17371 bound_to 10713
  141.1628  133.8761  157.1801 LP  0  0  0  0  0  0  0  0  0  0  0  0  # atno 17394 bound_to 11000
  139.9954  135.0048  157.0071 LP  0  0  0  0  0  0  0  0  0  0  0  0  # atno 17395 bound_to 11000

$$$$
