AV-unprocessed.smi:2684|AV-procd|sdf|10381|dock8
  -GOLD-   2272014413D 1   1.00000     0.00000
 Structure written by MMmdl.
 44 45  0  0  0  0  0  0  0  0  1 V2000
  151.9463  141.6035  158.0787 C   0  0  0  0  0  0  0  0  0  0  0  0
  151.2874  141.1872  156.7952 C   0  0  0  0  0  0  0  0  0  0  0  0
  151.7144  140.1832  155.8806 C   0  0  0  0  0  0  0  0  0  0  0  0
  150.9041  140.0544  154.8427 N   0  0  0  0  0  0  0  0  0  0  0  0
  149.9416  140.9788  155.0489 N   0  0  0  0  0  0  0  0  0  0  0  0
  148.8564  141.1231  154.0941 C   0  0  0  0  0  0  0  0  0  0  0  0
  147.8043  139.9909  154.1610 C   0  0  1  0  0  0  0  0  0  0  0  0
  146.5688  140.4485  154.9489 C   0  0  0  0  0  0  0  0  0  0  0  0
  147.3434  139.6158  152.8265 N   0  0  0  0  0  0  0  0  0  0  0  0
  146.2008  138.6916  152.8541 C   0  0  0  0  0  0  0  0  0  0  0  0
  146.2462  137.6381  151.7371 C   0  0  0  0  0  0  0  0  0  0  0  0
  146.7201  137.9184  150.6368 O   0  0  0  0  0  0  0  0  0  0  0  0
  145.7581  136.4097  151.9814 N   0  0  0  0  0  0  0  0  0  0  0  0
  145.7079  135.2747  151.0612 C   0  0  0  0  0  0  0  0  0  0  0  0
  144.2512  134.9040  150.7354 C   0  0  0  0  0  0  0  0  0  0  0  0
  144.1964  133.6227  149.8885 C   0  0  0  0  0  0  0  0  0  0  0  0
  144.8608  132.5617  150.5668 O   0  0  0  0  0  0  0  0  0  0  0  0
  146.2429  132.8218  150.7895 C   0  0  0  0  0  0  0  0  0  0  0  0
  146.4085  134.0598  151.6867 C   0  0  0  0  0  0  0  0  0  0  0  0
  150.1444  141.6710  156.2240 C   0  0  0  0  0  0  0  0  0  0  0  0
  152.2371  140.7416  158.6794 H   0  0  0  0  0  0  0  0  0  0  0  0
  151.2865  142.2155  158.6939 H   0  0  0  0  0  0  0  0  0  0  0  0
  152.8480  142.1876  157.8971 H   0  0  0  0  0  0  0  0  0  0  0  0
  152.5831  139.5443  155.9430 H   0  0  0  0  0  0  0  0  0  0  0  0
  148.3772  142.0833  154.2894 H   0  0  0  0  0  0  0  0  0  0  0  0
  149.2795  141.1920  153.0908 H   0  0  0  0  0  0  0  0  0  0  0  0
  148.2155  139.1247  154.6822 H   0  0  0  0  0  0  0  0  0  0  0  0
  146.8368  140.7237  155.9695 H   0  0  0  0  0  0  0  0  0  0  0  0
  145.8232  139.6548  155.0104 H   0  0  0  0  0  0  0  0  0  0  0  0
  146.0962  141.3156  154.4856 H   0  0  0  0  0  0  0  0  0  0  0  0
  148.1147  139.2483  152.2884 H   0  0  0  0  0  0  0  0  0  0  0  0
  146.1673  138.1843  153.8149 H   0  0  0  0  0  0  0  0  0  0  0  0
  145.2744  139.2582  152.7505 H   0  0  0  0  0  0  0  0  0  0  0  0
  145.3733  136.2495  152.9011 H   0  0  0  0  0  0  0  0  0  0  0  0
  146.2322  135.5135  150.1347 H   0  0  0  0  0  0  0  0  0  0  0  0
  143.6923  134.7468  151.6590 H   0  0  0  0  0  0  0  0  0  0  0  0
  143.7551  135.7186  150.2087 H   0  0  0  0  0  0  0  0  0  0  0  0
  143.1603  133.3328  149.7145 H   0  0  0  0  0  0  0  0  0  0  0  0
  144.6496  133.7853  148.9094 H   0  0  0  0  0  0  0  0  0  0  0  0
  146.6923  131.9507  151.2666 H   0  0  0  0  0  0  0  0  0  0  0  0
  146.7550  132.9608  149.8362 H   0  0  0  0  0  0  0  0  0  0  0  0
  147.4674  134.2706  151.8405 H   0  0  0  0  0  0  0  0  0  0  0  0
  145.9848  133.8494  152.6698 H   0  0  0  0  0  0  0  0  0  0  0  0
  149.4664  142.4451  156.5522 H   0  0  0  0  0  0  0  0  0  0  0  0
  1  2  1  0  0  0  0
  1 21  1  0  0  0  0
  1 22  1  0  0  0  0
  1 23  1  0  0  0  0
  2 20  2  0  0  0  0
  2  3  1  0  0  0  0
  3  4  2  0  0  0  0
  3 24  1  0  0  0  0
  4  5  1  0  0  0  0
  5  6  1  0  0  0  0
  5 20  1  0  0  0  0
  6  7  1  0  0  0  0
  6 25  1  0  0  0  0
  6 26  1  0  0  0  0
  7  8  1  0  0  0  0
  7  9  1  0  0  0  0
  7 27  1  0  0  0  0
  8 28  1  0  0  0  0
  8 29  1  0  0  0  0
  8 30  1  0  0  0  0
  9 10  1  0  0  0  0
  9 31  1  0  0  0  0
 10 11  1  0  0  0  0
 10 32  1  0  0  0  0
 10 33  1  0  0  0  0
 11 12  2  0  0  0  0
 11 13  1  0  0  0  0
 13 14  1  0  0  0  0
 13 34  1  0  0  0  0
 14 19  1  0  0  0  0
 14 15  1  0  0  0  0
 14 35  1  0  0  0  0
 15 16  1  0  0  0  0
 15 36  1  0  0  0  0
 15 37  1  0  0  0  0
 16 17  1  0  0  0  0
 16 38  1  0  0  0  0
 16 39  1  0  0  0  0
 17 18  1  0  0  0  0
 18 19  1  0  0  0  0
 18 40  1  0  0  0  0
 18 41  1  0  0  0  0
 19 42  1  0  0  0  0
 19 43  1  0  0  0  0
 20 44  1  0  0  0  0
M  END
> <s_m_source_file>
AV-unprocessed.smi

> <i_m_source_file_index>
2684

> <i_lp_mmshare_version>
43012

> <i_f3d_flags>
0

> <s_epik_input>
W0NIM11jMVtjSF1ubihbY0hdMSlbQ0gyXVtDQEhdKFtDSDNdKVtOSF1bQ0gyXUMoPU8pW05IXVtDSF0yW0NIMl1bQ0gyXU9bQ0gyXVtDSDJdMg==

> <s_epik_cmdline>
J2VwaWtfcHl0aG9uJywgJy1waCcsICc3LjAnLCAnLXRuJywgJzgnLCAnLW1hJywgJzIwMCcsICctbWV0YWxfYmluZGluZycsICctaW1hZScsICc8aW5maWxlLm1hZT4nLCAnLW9tYWUnLCAnPG91dGZpbGUubWFlPic=

> <r_lp_tautomer_probability>
1

> <r_epik_Ionization_Penalty>
0.968507

> <r_epik_Ionization_Penalty_Charging>
0

> <r_epik_Ionization_Penalty_Neutral>
0.968507

> <r_epik_State_Penalty>
1.01412

> <r_epik_Charging_Adjusted_Penalty>
1.01412

> <i_epik_Tot_Q>
0

> <i_epik_Tot_abs_Q>
0

> <r_epik_Metal_State_Penalty>
1.01401

> <b_epik_Metal_Only>
0

> <s_lp_Force_Field>
OPLS_2005

> <r_lp_Energy>
12.4601

> <b_lp_Chiralities_Consistent>
1

> <s_lp_Variant>
AV-unprocessed.smi:2684-4

> <Gold.Version>
5.8.1

> <Gold.Id.Protein>
6NUR|6NUR_protein|mol2

> <Gold.PLP.Fitness>
43.5712

> <Gold.PLP.PLP>
-34.9979

> <Gold.PLP.part.hbond>
-3.7615

> <Gold.PLP.part.metal>
0.0000

> <Gold.PLP.part.buried>
0.4055

> <Gold.PLP.part.nonpolar>
-33.0156

> <Gold.PLP.part.repulsive>
1.8367

> <Gold.PLP.ligand.clash>
0.0000

> <Gold.PLP.ligand.torsion>
1.4240

> <Gold.PLP.Chemscore.Hbond>
2.8000

> <Gold.PLP.Chemscore.CHOScore>
0.9917

> <Gold.PLP.Chemscore.Metal>
0.0000

> <Gold.Chemscore.Hbonds>
donor molecule, donor type, donor heavy atom, donor atom, acceptor molecule, acceptor atom, score
      L1  H     9    31       P1  7957  0.72
      P1  H  7954  7966       L1    12  1.00
      P1  H  7989  7998       L1     4  0.80
      L1  C    20    44       P1  8028  1.00

> <Gold.PLP.Chemscore.Internal.Correction>
0.0463

> <Gold.Rescore>
     Score         DG    S(hbond)    S(metal)    S(lipo)     H(rot)  DE(clash)    DE(int)     intcor
     14.36     -18.15       2.30        0.00      85.80       1.97       2.22       1.57       ----

> <Gold.Chemscore.Fitness>
14.3571

> <Gold.Chemscore.DG>
-18.1512

> <Gold.Chemscore.ZeroCoef>
-5.4800

> <Gold.Chemscore.Hbond>
2.3010

> <Gold.Chemscore.Metal>
0.0000

> <Gold.Chemscore.Lipo>
85.7977

> <Gold.Chemscore.Internal_Hbond>
0.0000

> <Gold.Chemscore.DEClash>
2.2213

> <Gold.Chemscore.DEInternal>
1.5729

> <Gold.Chemscore.Rot>
1.9736

> <Gold.Chemscore.Internal.Correction>
   9.000000E+99

> <Gold.Chemscore.Hbonds>
donor molecule, donor type, donor heavy atom, donor atom, acceptor molecule, acceptor atom, score
      L1  H     9    31       P1  7957  0.69
      P1  H  7954  7966       L1    12  0.96
      P1  H  7989  7998       L1     4  0.08

> <Gold.Chemscore.Hbond.Weighted>
-7.6852

> <Gold.Chemscore.Metal.Weighted>
-0.0000

> <Gold.Chemscore.Lipo.Weighted>
-10.0383

> <Gold.Chemscore.Internal_Hbond.Weighted>
0.0000

> <Gold.Chemscore.DEClash.Weighted>
2.2213

> <Gold.Chemscore.DEInternal.Weighted>
1.5729

> <Gold.Chemscore.Rot.Weighted>
5.0523

> <Gold.Chemscore.Internal.Correction.Weighted>
   9.000000E+99

> <Gold.Protein.RotatedTorsions>
[ 6907 6896 6895 6894 ] final  154.87 input  -60.11 | X-H torsion
[ 7974 7965 7964 7962 ] final  134.53 input  175.53 | X-H torsion
[ 8008 7997 7996 7995 ] final -164.36 input   59.86 | X-H torsion
[ 10167 10162 10161 10158 ] final  -67.42 input  -65.29 | X-H torsion
[ 10718 10713 10712 10709 ] final -155.61 input   66.30 | X-H torsion
[ 10763 10752 10751 10750 ] final -114.82 input  -60.55 | X-H torsion
[ 11005 11000 10999 10996 ] final  126.36 input  -57.11 | X-H torsion

> <Gold.Protein.ActiveResidues>
 VAL166  LYS551  ARG553  GLY616  TRP617  ASP618  TYR619  PRO620  LYS621  CYS622 
 ASP623  PHE694  ASN695  SER759  ASP760  ASP761  ALA762  ILE779  LEU786  VAL792 
 PHE793  MET794  SER795  GLU796  ALA797  LYS798  CYS799  TRP800  GLU811  SER814 

> <Gold.Protein.RotatedAtoms>
  152.0523  133.4024  159.4382 H   0  0  0  0  0  0  0  0  0  0  0  0  # atno 6907 bound_to 6896
  150.6869  134.3294  159.4829 H   0  0  0  0  0  0  0  0  0  0  0  0  # atno 6908 bound_to 6896
  152.1105  134.9277  160.0617 H   0  0  0  0  0  0  0  0  0  0  0  0  # atno 6909 bound_to 6896
  144.9754  139.4561  143.5412 H   0  0  0  0  0  0  0  0  0  0  0  0  # atno 7974 bound_to 7965
  155.8345  140.0939  157.1772 H   0  0  0  0  0  0  0  0  0  0  0  0  # atno 8008 bound_to 7997
  154.3980  140.1412  156.3715 H   0  0  0  0  0  0  0  0  0  0  0  0  # atno 8009 bound_to 7997
  155.8130  140.3449  155.5471 H   0  0  0  0  0  0  0  0  0  0  0  0  # atno 8010 bound_to 7997
  140.5584  143.2312  151.6776 H   0  0  0  0  0  0  0  0  0  0  0  0  # atno 10167 bound_to 10162
  156.5152  130.8453  151.2661 H   0  0  0  0  0  0  0  0  0  0  0  0  # atno 10718 bound_to 10713
  154.8456  135.4404  154.1566 H   0  0  0  0  0  0  0  0  0  0  0  0  # atno 10763 bound_to 10752
  153.2714  135.6945  153.7483 H   0  0  0  0  0  0  0  0  0  0  0  0  # atno 10764 bound_to 10752
  153.6722  135.3417  155.3131 H   0  0  0  0  0  0  0  0  0  0  0  0  # atno 10765 bound_to 10752
  139.9452  134.9630  156.8695 H   0  0  0  0  0  0  0  0  0  0  0  0  # atno 11005 bound_to 11000
  146.3394  139.8993  142.8797 LP  0  0  0  0  0  0  0  0  0  0  0  0  # atno 17320 bound_to 7965
  145.2498  141.0040  143.3887 LP  0  0  0  0  0  0  0  0  0  0  0  0  # atno 17321 bound_to 7965
  139.5058  144.3703  152.0477 LP  0  0  0  0  0  0  0  0  0  0  0  0  # atno 17342 bound_to 10162
  140.2827  144.3842  150.6114 LP  0  0  0  0  0  0  0  0  0  0  0  0  # atno 17343 bound_to 10162
  157.7445  130.9936  150.2678 LP  0  0  0  0  0  0  0  0  0  0  0  0  # atno 17370 bound_to 10713
  156.3202  130.3785  149.7582 LP  0  0  0  0  0  0  0  0  0  0  0  0  # atno 17371 bound_to 10713
  140.5852  134.0314  155.7479 LP  0  0  0  0  0  0  0  0  0  0  0  0  # atno 17394 bound_to 11000
  141.1100  133.9631  157.2927 LP  0  0  0  0  0  0  0  0  0  0  0  0  # atno 17395 bound_to 11000

$$$$
