AV-unprocessed.smi:2299|AV-procd|sdf|9229|dock6
  -GOLD-   2272012453D 1   1.00000     0.00000
 Structure written by MMmdl.
 43 44  0  0  0  0  0  0  0  0  2 V2000
  150.6956  141.6259  156.2779 C   0  0  0  0  0  0  0  0  0  0  0  0
  149.8910  140.4674  155.6710 C   0  0  0  0  0  0  0  0  0  0  0  0
  150.7791  139.5627  154.8014 C   0  0  0  0  0  0  0  0  0  0  0  0
  148.6889  140.9734  154.9213 C   0  0  0  0  0  0  0  0  0  0  0  0
  148.1993  142.2180  154.9943 N   0  3  0  0  0  0  0  0  0  0  0  0
  147.0847  142.3448  154.2124 C   0  0  0  0  0  0  0  0  0  0  0  0
  146.8678  141.1158  153.6492 C   0  0  0  0  0  0  0  0  0  0  0  0
  147.8594  140.2872  154.1117 N   0  0  0  0  0  0  0  0  0  0  0  0
  148.0139  138.8661  153.7691 C   0  0  0  0  0  0  0  0  0  0  0  0
  146.6516  138.1921  153.6023 C   0  0  0  0  0  0  0  0  0  0  0  0
  145.6750  138.6135  154.2213 O   0  0  0  0  0  0  0  0  0  0  0  0
  146.6059  137.1342  152.7767 N   0  0  0  0  0  0  0  0  0  0  0  0
  145.4252  136.3086  152.5140 C   0  0  1  0  0  0  0  0  0  0  0  0
  145.8324  135.2380  151.4754 C   0  0  0  0  0  0  0  0  0  0  0  0
  144.6469  134.6362  150.7017 C   0  0  0  0  0  0  0  0  0  0  0  0
  143.6622  133.8247  151.5564 C   0  0  0  0  0  0  0  0  0  0  0  0
  142.9530  134.6578  152.6372 C   0  0  0  0  0  0  0  0  0  0  0  0
  143.8098  134.9049  153.7898 N   0  0  0  0  0  0  0  0  0  0  0  0
  144.9511  135.6100  153.8105 C   0  0  0  0  0  0  0  0  0  0  0  0
  145.6100  135.6958  154.8474 O   0  0  0  0  0  0  0  0  0  0  0  0
  150.0805  142.2287  156.9464 H   0  0  0  0  0  0  0  0  0  0  0  0
  151.0866  142.2855  155.5023 H   0  0  0  0  0  0  0  0  0  0  0  0
  151.5416  141.2550  156.8569 H   0  0  0  0  0  0  0  0  0  0  0  0
  149.5071  139.8508  156.4832 H   0  0  0  0  0  0  0  0  0  0  0  0
  150.2108  138.7216  154.4028 H   0  0  0  0  0  0  0  0  0  0  0  0
  151.6064  139.1531  155.3817 H   0  0  0  0  0  0  0  0  0  0  0  0
  151.2072  140.1075  153.9591 H   0  0  0  0  0  0  0  0  0  0  0  0
  146.5424  143.2746  154.1205 H   0  0  0  0  0  0  0  0  0  0  0  0
  146.0989  140.7759  152.9705 H   0  0  0  0  0  0  0  0  0  0  0  0
  148.6029  138.7667  152.8576 H   0  0  0  0  0  0  0  0  0  0  0  0
  148.5855  138.3897  154.5672 H   0  0  0  0  0  0  0  0  0  0  0  0
  147.4595  136.8575  152.3140 H   0  0  0  0  0  0  0  0  0  0  0  0
  144.6286  136.9392  152.1143 H   0  0  0  0  0  0  0  0  0  0  0  0
  146.4940  135.6941  150.7372 H   0  0  0  0  0  0  0  0  0  0  0  0
  146.4192  134.4446  151.9420 H   0  0  0  0  0  0  0  0  0  0  0  0
  144.1091  135.4322  150.1849 H   0  0  0  0  0  0  0  0  0  0  0  0
  145.0387  133.9873  149.9179 H   0  0  0  0  0  0  0  0  0  0  0  0
  142.9059  133.4039  150.8929 H   0  0  0  0  0  0  0  0  0  0  0  0
  144.1693  132.9717  152.0096 H   0  0  0  0  0  0  0  0  0  0  0  0
  142.5776  135.5978  152.2301 H   0  0  0  0  0  0  0  0  0  0  0  0
  142.0818  134.1100  152.9969 H   0  0  0  0  0  0  0  0  0  0  0  0
  143.5232  134.4719  154.6560 H   0  0  0  0  0  0  0  0  0  0  0  0
  148.6062  142.9617  155.5475 H   0  0  0  0  0  0  0  0  0  0  0  0
  1  2  1  0  0  0  0
  1 21  1  0  0  0  0
  1 22  1  0  0  0  0
  1 23  1  0  0  0  0
  2  3  1  0  0  0  0
  2  4  1  0  0  0  0
  2 24  1  0  0  0  0
  3 25  1  0  0  0  0
  3 26  1  0  0  0  0
  3 27  1  0  0  0  0
  4  8  1  0  0  0  0
  4  5  2  0  0  0  0
  5  6  1  0  0  0  0
  5 43  1  0  0  0  0
  6  7  2  0  0  0  0
  6 28  1  0  0  0  0
  7  8  1  0  0  0  0
  7 29  1  0  0  0  0
  8  9  1  0  0  0  0
  9 10  1  0  0  0  0
  9 30  1  0  0  0  0
  9 31  1  0  0  0  0
 10 11  2  0  0  0  0
 10 12  1  0  0  0  0
 12 13  1  0  0  0  0
 12 32  1  0  0  0  0
 13 19  1  0  0  0  0
 13 14  1  0  0  0  0
 13 33  1  0  0  0  0
 14 15  1  0  0  0  0
 14 34  1  0  0  0  0
 14 35  1  0  0  0  0
 15 16  1  0  0  0  0
 15 36  1  0  0  0  0
 15 37  1  0  0  0  0
 16 17  1  0  0  0  0
 16 38  1  0  0  0  0
 16 39  1  0  0  0  0
 17 18  1  0  0  0  0
 17 40  1  0  0  0  0
 17 41  1  0  0  0  0
 18 19  1  0  0  0  0
 18 42  1  0  0  0  0
 19 20  2  0  0  0  0
M  CHG  1   5   1
M  END
> <s_m_source_file>
AV-unprocessed.smi

> <i_m_source_file_index>
2299

> <i_lp_mmshare_version>
43012

> <i_f3d_flags>
0

> <s_epik_input>
W0NIM11bQ0hdKFtDSDNdKWMxbltjSF1bY0hdbjFbQ0gyXUMoPU8pW05IXVtDQEBIXTJbQ0gyXVtDSDJdW0NIMl1bQ0gyXVtOSF1DMj1P

> <s_epik_cmdline>
J2VwaWtfcHl0aG9uJywgJy1waCcsICc3LjAnLCAnLXRuJywgJzgnLCAnLW1hJywgJzIwMCcsICctbWV0YWxfYmluZGluZycsICctaW1hZScsICc8aW5maWxlLm1hZT4nLCAnLW9tYWUnLCAnPG91dGZpbGUubWFlPic=

> <r_lp_tautomer_probability>
1

> <r_epik_Ionization_Penalty>
0.292878

> <r_epik_Ionization_Penalty_Charging>
0

> <r_epik_Ionization_Penalty_Neutral>
0.292878

> <r_epik_State_Penalty>
0.286008

> <r_epik_Charging_Adjusted_Penalty>
0.286008

> <i_epik_Tot_Q>
1

> <i_epik_Tot_abs_Q>
1

> <r_epik_Metal_State_Penalty>
0.563502

> <b_epik_Metal_Only>
0

> <s_lp_Force_Field>
OPLS_2005

> <r_lp_Energy>
15.0936

> <b_lp_Chiralities_Consistent>
1

> <s_lp_Variant>
AV-unprocessed.smi:2299-2

> <Gold.Version>
5.8.1

> <Gold.Id.Protein>
6NUR|6NUR_protein|mol2

> <Gold.PLP.Fitness>
42.9886

> <Gold.PLP.PLP>
-33.0990

> <Gold.PLP.part.hbond>
-2.0000

> <Gold.PLP.part.metal>
0.0000

> <Gold.PLP.part.buried>
-4.0333

> <Gold.PLP.part.nonpolar>
-28.4000

> <Gold.PLP.part.repulsive>
0.3706

> <Gold.PLP.ligand.clash>
0.0000

> <Gold.PLP.ligand.torsion>
1.0823

> <Gold.PLP.Chemscore.Hbond>
3.0000

> <Gold.PLP.Chemscore.CHOScore>
1.0000

> <Gold.PLP.Chemscore.Metal>
0.0000

> <Gold.Chemscore.Hbonds>
donor molecule, donor type, donor heavy atom, donor atom, acceptor molecule, acceptor atom, score
      L1  H     5    43       P1  8028  1.76
      L1  H    12    32       P1  7948  1.00
      L1  C     7    29       P1 10175  1.00

> <Gold.PLP.Chemscore.Internal.Correction>
0.0542

> <Gold.Rescore>
     Score         DG    S(hbond)    S(metal)    S(lipo)     H(rot)  DE(clash)    DE(int)     intcor
     13.18     -15.51       2.04        0.00      65.72       1.75       0.03       2.30       ----

> <Gold.Chemscore.Fitness>
13.1775

> <Gold.Chemscore.DG>
-15.5109

> <Gold.Chemscore.ZeroCoef>
-5.4800

> <Gold.Chemscore.Hbond>
2.0429

> <Gold.Chemscore.Metal>
0.0000

> <Gold.Chemscore.Lipo>
65.7239

> <Gold.Chemscore.Internal_Hbond>
0.0000

> <Gold.Chemscore.DEClash>
0.0345

> <Gold.Chemscore.DEInternal>
2.2989

> <Gold.Chemscore.Rot>
1.7508

> <Gold.Chemscore.Internal.Correction>
   9.000000E+99

> <Gold.Chemscore.Hbonds>
donor molecule, donor type, donor heavy atom, donor atom, acceptor molecule, acceptor atom, score
      L1  H     5    43       P1  8028  0.86
      L1  H    12    32       P1  7948  1.00

> <Gold.Chemscore.Hbond.Weighted>
-6.8233

> <Gold.Chemscore.Metal.Weighted>
-0.0000

> <Gold.Chemscore.Lipo.Weighted>
-7.6897

> <Gold.Chemscore.Internal_Hbond.Weighted>
0.0000

> <Gold.Chemscore.DEClash.Weighted>
0.0345

> <Gold.Chemscore.DEInternal.Weighted>
2.2989

> <Gold.Chemscore.Rot.Weighted>
4.4821

> <Gold.Chemscore.Internal.Correction.Weighted>
   9.000000E+99

> <Gold.Protein.RotatedTorsions>
[ 6907 6896 6895 6894 ] final -141.71 input  -60.11 | X-H torsion
[ 7974 7965 7964 7962 ] final   99.86 input  175.53 | X-H torsion
[ 8008 7997 7996 7995 ] final   30.18 input   59.86 | X-H torsion
[ 10167 10162 10161 10158 ] final   -9.15 input  -65.29 | X-H torsion
[ 10718 10713 10712 10709 ] final   29.11 input   66.30 | X-H torsion
[ 10763 10752 10751 10750 ] final  155.91 input  -60.55 | X-H torsion
[ 11005 11000 10999 10996 ] final -142.12 input  -57.11 | X-H torsion

> <Gold.Protein.ActiveResidues>
 VAL166  LYS551  ARG553  GLY616  TRP617  ASP618  TYR619  PRO620  LYS621  CYS622 
 ASP623  PHE694  ASN695  SER759  ASP760  ASP761  ALA762  ILE779  LEU786  VAL792 
 PHE793  MET794  SER795  GLU796  ALA797  LYS798  CYS799  TRP800  GLU811  SER814 

> <Gold.Protein.RotatedAtoms>
  151.0774  133.5417  159.2622 H   0  0  0  0  0  0  0  0  0  0  0  0  # atno 6907 bound_to 6896
  151.2333  135.0562  159.9006 H   0  0  0  0  0  0  0  0  0  0  0  0  # atno 6908 bound_to 6896
  152.5419  134.0560  159.8185 H   0  0  0  0  0  0  0  0  0  0  0  0  # atno 6909 bound_to 6896
  145.3932  139.2359  143.3340 H   0  0  0  0  0  0  0  0  0  0  0  0  # atno 7974 bound_to 7965
  155.0864  140.3215  155.4586 H   0  0  0  0  0  0  0  0  0  0  0  0  # atno 8008 bound_to 7997
  156.2754  140.2086  156.5937 H   0  0  0  0  0  0  0  0  0  0  0  0  # atno 8009 bound_to 7997
  154.6938  140.0514  157.0377 H   0  0  0  0  0  0  0  0  0  0  0  0  # atno 8010 bound_to 7997
  140.7079  143.5890  150.8913 H   0  0  0  0  0  0  0  0  0  0  0  0  # atno 10167 bound_to 10162
  157.2423  130.7075  149.6364 H   0  0  0  0  0  0  0  0  0  0  0  0  # atno 10718 bound_to 10713
  154.1760  135.2802  155.3067 H   0  0  0  0  0  0  0  0  0  0  0  0  # atno 10763 bound_to 10752
  154.6039  135.5520  153.7406 H   0  0  0  0  0  0  0  0  0  0  0  0  # atno 10764 bound_to 10752
  153.0151  135.6398  154.1899 H   0  0  0  0  0  0  0  0  0  0  0  0  # atno 10765 bound_to 10752
  140.8256  134.2578  157.4880 H   0  0  0  0  0  0  0  0  0  0  0  0  # atno 11005 bound_to 11000
  146.2787  140.4619  142.8785 LP  0  0  0  0  0  0  0  0  0  0  0  0  # atno 17320 bound_to 7965
  144.8425  140.6879  143.6220 LP  0  0  0  0  0  0  0  0  0  0  0  0  # atno 17321 bound_to 7965
  139.9615  143.6158  152.3001 LP  0  0  0  0  0  0  0  0  0  0  0  0  # atno 17342 bound_to 10162
  139.6712  144.7660  151.1779 LP  0  0  0  0  0  0  0  0  0  0  0  0  # atno 17343 bound_to 10162
  155.9669  130.4454  150.5500 LP  0  0  0  0  0  0  0  0  0  0  0  0  # atno 17370 bound_to 10713
  157.3366  131.0709  151.1820 LP  0  0  0  0  0  0  0  0  0  0  0  0  # atno 17371 bound_to 10713
  139.8706  134.9559  156.4220 LP  0  0  0  0  0  0  0  0  0  0  0  0  # atno 17394 bound_to 11000
  140.9052  133.7751  155.9727 LP  0  0  0  0  0  0  0  0  0  0  0  0  # atno 17395 bound_to 11000

$$$$
