AV-unprocessed.smi:218|AV-procd|sdf|1671|dock9
  -GOLD-   2262020 83D 1   1.00000     0.00000
 Structure written by MMmdl.
 54 57  0  0  0  0  0  0  0  0  1 V2000
  153.2047  143.1055  160.0197 C   0  0  0  0  0  0  0  0  0  0  0  0
  152.5615  142.8951  158.6436 C   0  0  0  0  0  0  0  0  0  0  0  0
  151.3647  143.8397  158.4381 C   0  0  0  0  0  0  0  0  0  0  0  0
  152.1338  141.5327  158.5877 O   0  0  0  0  0  0  0  0  0  0  0  0
  151.6439  141.0065  157.4077 C   0  0  0  0  0  0  0  0  0  0  0  0
  150.3546  141.3931  156.9877 C   0  0  0  0  0  0  0  0  0  0  0  0
  149.8400  140.8584  155.7896 C   0  0  0  0  0  0  0  0  0  0  0  0
  148.4647  141.2558  155.2985 C   0  0  0  0  0  0  0  0  0  0  0  0
  147.4778  140.2059  155.4905 N   0  0  0  0  0  0  0  0  0  0  0  0
  146.9779  139.5235  154.4388 C   0  0  0  0  0  0  0  0  0  0  0  0
  147.3611  139.9720  153.2194 N   0  0  0  0  0  0  0  0  0  0  0  0
  146.9238  139.3657  152.1126 C   0  0  0  0  0  0  0  0  0  0  0  0
  146.1121  138.3131  152.0046 N   0  0  0  0  0  0  0  0  0  0  0  0
  145.7206  137.8537  153.2281 C   0  0  0  0  0  0  0  0  0  0  0  0
  146.1028  138.3972  154.4884 C   0  0  0  0  0  0  0  0  0  0  0  0
  145.4986  137.6625  155.5040 N   0  0  0  0  0  0  0  0  0  0  0  0
  144.8070  136.7489  154.8790 C   0  0  0  0  0  0  0  0  0  0  0  0
  144.8921  136.7864  153.5067 N   0  0  0  0  0  0  0  0  0  0  0  0
  144.2200  135.8860  152.5236 C   0  0  1  0  0  0  0  0  0  0  0  0
  145.0986  135.6978  151.4597 O   0  0  0  0  0  0  0  0  0  0  0  0
  144.9959  134.3658  150.9807 C   0  0  2  0  0  0  0  0  0  0  0  0
  144.0745  134.3129  149.7435 C   0  0  0  0  0  0  0  0  0  0  0  0
  144.3984  133.2622  148.8564 O   0  0  0  0  0  0  0  0  0  0  0  0
  144.5608  133.5201  152.1871 C   0  0  1  0  0  0  0  0  0  0  0  0
  145.7060  132.9389  152.7796 O   0  0  0  0  0  0  0  0  0  0  0  0
  143.9079  134.5129  153.1510 C   0  0  2  0  0  0  0  0  0  0  0  0
  142.5149  134.2786  153.2020 O   0  0  0  0  0  0  0  0  0  0  0  0
  150.6357  139.9592  155.0529 C   0  0  0  0  0  0  0  0  0  0  0  0
  151.9109  139.6318  155.5524 C   0  0  0  0  0  0  0  0  0  0  0  0
  152.4090  140.1376  156.7006 N   0  0  0  0  0  0  0  0  0  0  0  0
  143.3340  136.4298  152.1917 H   0  0  0  0  0  0  0  0  0  0  0  0
  145.9906  134.0705  150.6424 H   0  0  0  0  0  0  0  0  0  0  0  0
  143.8948  132.7064  151.8960 H   0  0  0  0  0  0  0  0  0  0  0  0
  144.3161  134.4377  154.1604 H   0  0  0  0  0  0  0  0  0  0  0  0
  153.5675  144.1277  160.1317 H   0  0  0  0  0  0  0  0  0  0  0  0
  154.0536  142.4359  160.1594 H   0  0  0  0  0  0  0  0  0  0  0  0
  152.4932  142.9132  160.8232 H   0  0  0  0  0  0  0  0  0  0  0  0
  153.3294  143.0984  157.8957 H   0  0  0  0  0  0  0  0  0  0  0  0
  151.6741  144.8824  158.5131 H   0  0  0  0  0  0  0  0  0  0  0  0
  150.5940  143.6663  159.1895 H   0  0  0  0  0  0  0  0  0  0  0  0
  150.9067  143.7060  157.4584 H   0  0  0  0  0  0  0  0  0  0  0  0
  149.7730  142.0880  157.5759 H   0  0  0  0  0  0  0  0  0  0  0  0
  148.1448  142.1579  155.8217 H   0  0  0  0  0  0  0  0  0  0  0  0
  148.5353  141.5003  154.2380 H   0  0  0  0  0  0  0  0  0  0  0  0
  147.1761  140.0558  156.4422 H   0  0  0  0  0  0  0  0  0  0  0  0
  147.2755  139.7826  151.1803 H   0  0  0  0  0  0  0  0  0  0  0  0
  144.2143  136.0158  155.4069 H   0  0  0  0  0  0  0  0  0  0  0  0
  143.0309  134.2251  150.0469 H   0  0  0  0  0  0  0  0  0  0  0  0
  144.1632  135.2464  149.1872 H   0  0  0  0  0  0  0  0  0  0  0  0
  144.9570  133.6050  148.1753 H   0  0  0  0  0  0  0  0  0  0  0  0
  145.4803  132.0680  153.0717 H   0  0  0  0  0  0  0  0  0  0  0  0
  142.3680  133.4303  153.5913 H   0  0  0  0  0  0  0  0  0  0  0  0
  150.2820  139.5302  154.1268 H   0  0  0  0  0  0  0  0  0  0  0  0
  152.5489  138.9457  155.0154 H   0  0  0  0  0  0  0  0  0  0  0  0
  1  2  1  0  0  0  0
  1 35  1  0  0  0  0
  1 36  1  0  0  0  0
  1 37  1  0  0  0  0
  2  3  1  0  0  0  0
  2  4  1  0  0  0  0
  2 38  1  0  0  0  0
  3 39  1  0  0  0  0
  3 40  1  0  0  0  0
  3 41  1  0  0  0  0
  4  5  1  0  0  0  0
  5 30  1  0  0  0  0
  5  6  2  0  0  0  0
  6  7  1  0  0  0  0
  6 42  1  0  0  0  0
  7  8  1  0  0  0  0
  7 28  2  0  0  0  0
  8  9  1  0  0  0  0
  8 43  1  0  0  0  0
  8 44  1  0  0  0  0
  9 10  1  0  0  0  0
  9 45  1  0  0  0  0
 10 15  1  0  0  0  0
 10 11  2  0  0  0  0
 11 12  1  0  0  0  0
 12 13  2  0  0  0  0
 12 46  1  0  0  0  0
 13 14  1  0  0  0  0
 14 18  1  0  0  0  0
 14 15  2  0  0  0  0
 15 16  1  0  0  0  0
 16 17  2  0  0  0  0
 17 18  1  0  0  0  0
 17 47  1  0  0  0  0
 18 19  1  0  0  0  0
 19 31  1  0  0  0  0
 19 26  1  0  0  0  0
 19 20  1  0  0  0  0
 20 21  1  0  0  0  0
 21 32  1  0  0  0  0
 21 22  1  0  0  0  0
 21 24  1  0  0  0  0
 22 23  1  0  0  0  0
 22 48  1  0  0  0  0
 22 49  1  0  0  0  0
 23 50  1  0  0  0  0
 24 33  1  0  0  0  0
 24 25  1  0  0  0  0
 24 26  1  0  0  0  0
 25 51  1  0  0  0  0
 26 34  1  0  0  0  0
 26 27  1  0  0  0  0
 27 52  1  0  0  0  0
 28 29  1  0  0  0  0
 28 53  1  0  0  0  0
 29 30  2  0  0  0  0
 29 54  1  0  0  0  0
M  END
> <s_m_source_file>
AV-unprocessed.smi

> <i_m_source_file_index>
218

> <i_lp_mmshare_version>
43012

> <i_f3d_flags>
0

> <s_epik_input>
W0NIM11bQ0hdKFtDSDNdKU9jMVtjSF1jKFtjSF1bY0hdbjEpW0NIMl1bTkhdYyhuW2NIXW4yKWMoYzIzKW5bY0hdbjNbQ0BASF00T1tDQEhdKFtDSDJdW09IXSlbQ0BASF0oW09IXSlbQ0BIXTRbT0hd

> <s_epik_cmdline>
J2VwaWtfcHl0aG9uJywgJy1waCcsICc3LjAnLCAnLXRuJywgJzgnLCAnLW1hJywgJzIwMCcsICctbWV0YWxfYmluZGluZycsICctaW1hZScsICc8aW5maWxlLm1hZT4nLCAnLW9tYWUnLCAnPG91dGZpbGUubWFlPic=

> <r_lp_tautomer_probability>
1

> <r_epik_Ionization_Penalty>
0.00457014

> <r_epik_Ionization_Penalty_Charging>
0

> <r_epik_Ionization_Penalty_Neutral>
0.00457014

> <r_epik_State_Penalty>
-0

> <r_epik_Charging_Adjusted_Penalty>
0

> <i_epik_Tot_Q>
0

> <i_epik_Tot_abs_Q>
0

> <r_epik_Metal_State_Penalty>
-0

> <b_epik_Metal_Only>
0

> <s_epik_Chemistry_Notes>
This compound contains an acetal/aminal-like group ( X-CH(R)-Y where X, Y are N, S, or O) that may be acid/base labile, releasing an aldehyde.

> <s_lp_Force_Field>
OPLS_2005

> <r_lp_Energy>
37.7133

> <b_lp_Chiralities_Consistent>
1

> <s_lp_Variant>
AV-unprocessed.smi:218-10

> <Gold.Version>
5.8.1

> <Gold.Id.Protein>
6NUR|6NUR_protein|mol2

> <Gold.PLP.Fitness>
48.0334

> <Gold.PLP.PLP>
-39.8443

> <Gold.PLP.part.hbond>
-3.0000

> <Gold.PLP.part.metal>
0.0000

> <Gold.PLP.part.buried>
-2.5743

> <Gold.PLP.part.nonpolar>
-35.8769

> <Gold.PLP.part.repulsive>
1.7066

> <Gold.PLP.ligand.clash>
0.0000

> <Gold.PLP.ligand.torsion>
1.4616

> <Gold.PLP.Chemscore.Hbond>
2.9920

> <Gold.PLP.Chemscore.CHOScore>
0.6930

> <Gold.PLP.Chemscore.Metal>
0.0000

> <Gold.Chemscore.Hbonds>
donor molecule, donor type, donor heavy atom, donor atom, acceptor molecule, acceptor atom, score
      L1  H    23    50       P1  7921  1.00
      L1  H    27    52       P1 10957  0.94
      P1  H  7997  8010       L1    30  1.00
      L1  C    12    46       P1  7957  0.67

> <Gold.PLP.Chemscore.Internal.Correction>
0.0573

> <Gold.Rescore>
     Score         DG    S(hbond)    S(metal)    S(lipo)     H(rot)  DE(clash)    DE(int)     intcor
      8.69     -12.46       2.75        0.00      88.34       4.90       0.69       3.08       ----

> <Gold.Chemscore.Fitness>
8.6941

> <Gold.Chemscore.DG>
-12.4609

> <Gold.Chemscore.ZeroCoef>
-5.4800

> <Gold.Chemscore.Hbond>
2.7536

> <Gold.Chemscore.Metal>
0.0000

> <Gold.Chemscore.Lipo>
88.3378

> <Gold.Chemscore.Internal_Hbond>
0.0000

> <Gold.Chemscore.DEClash>
0.6888

> <Gold.Chemscore.DEInternal>
3.0780

> <Gold.Chemscore.Rot>
4.9029

> <Gold.Chemscore.Internal.Correction>
   9.000000E+99

> <Gold.Chemscore.Hbonds>
donor molecule, donor type, donor heavy atom, donor atom, acceptor molecule, acceptor atom, score
      L1  H    23    50       P1  7921  0.78
      L1  H    27    52       P1 10957  0.89
      P1  H  7997  8010       L1    30  0.49

> <Gold.Chemscore.Hbond.Weighted>
-9.1969

> <Gold.Chemscore.Metal.Weighted>
-0.0000

> <Gold.Chemscore.Lipo.Weighted>
-10.3355

> <Gold.Chemscore.Internal_Hbond.Weighted>
0.0000

> <Gold.Chemscore.DEClash.Weighted>
0.6888

> <Gold.Chemscore.DEInternal.Weighted>
3.0780

> <Gold.Chemscore.Rot.Weighted>
12.5515

> <Gold.Chemscore.Internal.Correction.Weighted>
   9.000000E+99

> <Gold.Protein.RotatedTorsions>
[ 6907 6896 6895 6894 ] final  -20.33 input  -60.11 | X-H torsion
[ 7974 7965 7964 7962 ] final  146.82 input  175.53 | X-H torsion
[ 8008 7997 7996 7995 ] final   71.23 input   59.86 | X-H torsion
[ 10167 10162 10161 10158 ] final  -48.50 input  -65.29 | X-H torsion
[ 10718 10713 10712 10709 ] final  137.60 input   66.30 | X-H torsion
[ 10763 10752 10751 10750 ] final  -89.10 input  -60.55 | X-H torsion
[ 11005 11000 10999 10996 ] final  -41.99 input  -57.11 | X-H torsion

> <Gold.Protein.ActiveResidues>
 VAL166  LYS551  ARG553  GLY616  TRP617  ASP618  TYR619  PRO620  LYS621  CYS622 
 ASP623  PHE694  ASN695  SER759  ASP760  ASP761  ALA762  ILE779  LEU786  VAL792 
 PHE793  MET794  SER795  GLU796  ALA797  LYS798  CYS799  TRP800  GLU811  SER814 

> <Gold.Protein.RotatedAtoms>
  151.2498  135.0618  159.9057 H   0  0  0  0  0  0  0  0  0  0  0  0  # atno 6907 bound_to 6896
  152.5381  134.0344  159.8050 H   0  0  0  0  0  0  0  0  0  0  0  0  # atno 6908 bound_to 6896
  151.0551  133.5542  159.2670 H   0  0  0  0  0  0  0  0  0  0  0  0  # atno 6909 bound_to 6896
  144.8641  139.5952  143.5917 H   0  0  0  0  0  0  0  0  0  0  0  0  # atno 7974 bound_to 7965
  155.7507  140.3488  155.5149 H   0  0  0  0  0  0  0  0  0  0  0  0  # atno 8008 bound_to 7997
  155.9007  140.1033  157.1373 H   0  0  0  0  0  0  0  0  0  0  0  0  # atno 8009 bound_to 7997
  154.4043  140.1286  156.4419 H   0  0  0  0  0  0  0  0  0  0  0  0  # atno 8010 bound_to 7997
  140.6728  143.2737  151.4080 H   0  0  0  0  0  0  0  0  0  0  0  0  # atno 10167 bound_to 10162
  157.4343  131.1051  151.0215 H   0  0  0  0  0  0  0  0  0  0  0  0  # atno 10718 bound_to 10713
  154.6516  135.5353  153.7909 H   0  0  0  0  0  0  0  0  0  0  0  0  # atno 10763 bound_to 10752
  153.0389  135.6484  154.1008 H   0  0  0  0  0  0  0  0  0  0  0  0  # atno 10764 bound_to 10752
  154.0924  135.2939  155.3248 H   0  0  0  0  0  0  0  0  0  0  0  0  # atno 10765 bound_to 10752
  141.0284  133.6831  156.2533 H   0  0  0  0  0  0  0  0  0  0  0  0  # atno 11005 bound_to 11000
  146.2882  139.7064  142.9180 LP  0  0  0  0  0  0  0  0  0  0  0  0  # atno 17320 bound_to 7965
  145.4256  141.0410  143.2939 LP  0  0  0  0  0  0  0  0  0  0  0  0  # atno 17321 bound_to 7965
  139.6005  144.1306  152.2192 LP  0  0  0  0  0  0  0  0  0  0  0  0  # atno 17342 bound_to 10162
  140.0689  144.5796  150.7207 LP  0  0  0  0  0  0  0  0  0  0  0  0  # atno 17343 bound_to 10162
  157.1100  130.6018  149.5480 LP  0  0  0  0  0  0  0  0  0  0  0  0  # atno 17370 bound_to 10713
  155.9925  130.4983  150.7341 LP  0  0  0  0  0  0  0  0  0  0  0  0  # atno 17371 bound_to 10713
  140.6450  134.5127  157.5573 LP  0  0  0  0  0  0  0  0  0  0  0  0  # atno 17394 bound_to 11000
  139.9191  134.8184  156.1268 LP  0  0  0  0  0  0  0  0  0  0  0  0  # atno 17395 bound_to 11000

$$$$
