AV-unprocessed.smi:2823|AV-procd|sdf|10884|dock4
  -GOLD-   2272015323D 1   1.00000     0.00000
 Structure written by MMmdl.
 42 43  0  0  0  0  0  0  0  0  1 V2000
  143.3181  133.3136  151.4967 C   0  0  0  0  0  0  0  0  0  0  0  0
  143.9025  134.6003  151.9697 C   0  0  0  0  0  0  0  0  0  0  0  0
  143.1307  135.5600  152.4674 N   0  0  0  0  0  0  0  0  0  0  0  0
  144.0425  136.5764  152.7889 O   0  0  0  0  0  0  0  0  0  0  0  0
  145.2604  136.0937  152.4400 C   0  0  0  0  0  0  0  0  0  0  0  0
  146.4623  136.8230  152.6063 N   0  0  0  0  0  0  0  0  0  0  0  0
  146.6551  137.8877  153.4007 C   0  0  0  0  0  0  0  0  0  0  0  0
  145.7943  138.3997  154.1168 O   0  0  0  0  0  0  0  0  0  0  0  0
  147.9189  138.3293  153.3251 N   0  0  0  0  0  0  0  0  0  0  0  0
  148.4801  139.4493  154.0822 C   0  0  0  0  0  0  0  0  0  0  0  0
  149.7094  139.0498  154.9554 C   0  0  0  0  0  0  0  0  0  0  0  0
  150.4271  140.3081  155.5545 C   0  0  0  0  0  0  0  0  0  0  0  0
  151.6064  140.4977  155.2460 O   0  0  0  0  0  0  0  0  0  0  0  0
  149.8011  141.1864  156.3848 N   0  0  0  0  0  0  0  0  0  0  0  0
  150.5593  142.3068  156.9520 C   0  0  0  0  0  0  0  0  0  0  0  0
  148.3978  141.1892  156.8080 C   0  0  0  0  0  0  0  0  0  0  0  0
  149.3910  137.9776  156.0295 C   0  0  0  0  0  0  0  0  0  0  0  0
  150.6976  137.2224  156.3062 C   0  0  0  0  0  0  0  0  0  0  0  0
  151.5487  137.3849  155.0449 C   0  0  0  0  0  0  0  0  0  0  0  0
  150.6912  138.2159  154.0849 C   0  0  0  0  0  0  0  0  0  0  0  0
  145.2371  134.8693  151.9233 N   0  0  0  0  0  0  0  0  0  0  0  0
  142.6230  133.4938  150.6762 H   0  0  0  0  0  0  0  0  0  0  0  0
  142.7796  132.8226  152.3078 H   0  0  0  0  0  0  0  0  0  0  0  0
  144.0999  132.6399  151.1444 H   0  0  0  0  0  0  0  0  0  0  0  0
  147.2537  136.4963  152.0722 H   0  0  0  0  0  0  0  0  0  0  0  0
  148.5518  137.8429  152.7071 H   0  0  0  0  0  0  0  0  0  0  0  0
  148.7243  140.2219  153.3592 H   0  0  0  0  0  0  0  0  0  0  0  0
  147.7088  139.9023  154.7074 H   0  0  0  0  0  0  0  0  0  0  0  0
  151.4546  141.9521  157.4654 H   0  0  0  0  0  0  0  0  0  0  0  0
  149.9795  142.8758  157.6803 H   0  0  0  0  0  0  0  0  0  0  0  0
  150.8665  142.9975  156.1655 H   0  0  0  0  0  0  0  0  0  0  0  0
  147.7453  140.5120  156.2695 H   0  0  0  0  0  0  0  0  0  0  0  0
  147.9707  142.1851  156.6850 H   0  0  0  0  0  0  0  0  0  0  0  0
  148.3334  140.9302  157.8653 H   0  0  0  0  0  0  0  0  0  0  0  0
  148.9734  138.3508  156.9603 H   0  0  0  0  0  0  0  0  0  0  0  0
  148.6571  137.2764  155.6296 H   0  0  0  0  0  0  0  0  0  0  0  0
  151.2149  137.6627  157.1597 H   0  0  0  0  0  0  0  0  0  0  0  0
  150.5098  136.1746  156.5422 H   0  0  0  0  0  0  0  0  0  0  0  0
  152.4731  137.9122  155.2836 H   0  0  0  0  0  0  0  0  0  0  0  0
  151.8224  136.4248  154.6063 H   0  0  0  0  0  0  0  0  0  0  0  0
  150.1260  137.5270  153.4551 H   0  0  0  0  0  0  0  0  0  0  0  0
  151.3000  138.8068  153.3992 H   0  0  0  0  0  0  0  0  0  0  0  0
  1  2  1  0  0  0  0
  1 22  1  0  0  0  0
  1 23  1  0  0  0  0
  1 24  1  0  0  0  0
  2 21  1  0  0  0  0
  2  3  2  0  0  0  0
  3  4  1  0  0  0  0
  4  5  1  0  0  0  0
  5  6  1  0  0  0  0
  5 21  2  0  0  0  0
  6  7  1  0  0  0  0
  6 25  1  0  0  0  0
  7  8  2  0  0  0  0
  7  9  1  0  0  0  0
  9 10  1  0  0  0  0
  9 26  1  0  0  0  0
 10 11  1  0  0  0  0
 10 27  1  0  0  0  0
 10 28  1  0  0  0  0
 11 20  1  0  0  0  0
 11 12  1  0  0  0  0
 11 17  1  0  0  0  0
 12 13  2  0  0  0  0
 12 14  1  0  0  0  0
 14 15  1  0  0  0  0
 14 16  1  0  0  0  0
 15 29  1  0  0  0  0
 15 30  1  0  0  0  0
 15 31  1  0  0  0  0
 16 32  1  0  0  0  0
 16 33  1  0  0  0  0
 16 34  1  0  0  0  0
 17 18  1  0  0  0  0
 17 35  1  0  0  0  0
 17 36  1  0  0  0  0
 18 19  1  0  0  0  0
 18 37  1  0  0  0  0
 18 38  1  0  0  0  0
 19 20  1  0  0  0  0
 19 39  1  0  0  0  0
 19 40  1  0  0  0  0
 20 41  1  0  0  0  0
 20 42  1  0  0  0  0
M  END
> <s_m_source_file>
AV-unprocessed.smi

> <i_m_source_file_index>
2823

> <i_lp_mmshare_version>
43012

> <i_f3d_flags>
0

> <s_epik_input>
W0NIM11jMW5vYyhuMSlbTkhdQyg9TylbTkhdW0NIMl1DMihDKD1PKU4oW0NIM10pW0NIM10pW0NIMl1bQ0gyXVtDSDJdW0NIMl0y

> <s_epik_cmdline>
J2VwaWtfcHl0aG9uJywgJy1waCcsICc3LjAnLCAnLXRuJywgJzgnLCAnLW1hJywgJzIwMCcsICctbWV0YWxfYmluZGluZycsICctaW1hZScsICc8aW5maWxlLm1hZT4nLCAnLW9tYWUnLCAnPG91dGZpbGUubWFlPic=

> <r_lp_tautomer_probability>
1

> <r_epik_Ionization_Penalty>
4.1201e-05

> <r_epik_Ionization_Penalty_Charging>
0

> <r_epik_Ionization_Penalty_Neutral>
4.1201e-05

> <r_epik_State_Penalty>
-0

> <r_epik_Charging_Adjusted_Penalty>
0

> <i_epik_Tot_Q>
0

> <i_epik_Tot_abs_Q>
0

> <r_epik_Metal_State_Penalty>
0.0212056

> <b_epik_Metal_Only>
0

> <s_lp_Force_Field>
OPLS_2005

> <r_lp_Energy>
33.0432

> <b_lp_Chiralities_Consistent>
1

> <s_lp_Variant>
AV-unprocessed.smi:2823-1

> <Gold.Version>
5.8.1

> <Gold.Id.Protein>
6NUR|6NUR_protein|mol2

> <Gold.PLP.Fitness>
34.4422

> <Gold.PLP.PLP>
-26.4946

> <Gold.PLP.part.hbond>
-3.3723

> <Gold.PLP.part.metal>
0.0000

> <Gold.PLP.part.buried>
-3.2400

> <Gold.PLP.part.nonpolar>
-20.5285

> <Gold.PLP.part.repulsive>
0.6375

> <Gold.PLP.ligand.clash>
0.0000

> <Gold.PLP.ligand.torsion>
0.2209

> <Gold.PLP.Chemscore.Hbond>
2.7280

> <Gold.PLP.Chemscore.CHOScore>
0.0000

> <Gold.PLP.Chemscore.Metal>
0.0000

> <Gold.Chemscore.Hbonds>
donor molecule, donor type, donor heavy atom, donor atom, acceptor molecule, acceptor atom, score
      L1  H     6    25       P1  7948  1.00
      L1  H     9    26       P1  7948  0.94
      P1  H  7989  7998       L1    13  0.82

> <Gold.PLP.Chemscore.Internal.Correction>
0.2052

> <Gold.Rescore>
     Score         DG    S(hbond)    S(metal)    S(lipo)     H(rot)  DE(clash)    DE(int)     intcor
     14.39     -15.98       2.83        0.00      46.88       1.74       0.04       1.55       ----

> <Gold.Chemscore.Fitness>
14.3919

> <Gold.Chemscore.DG>
-15.9820

> <Gold.Chemscore.ZeroCoef>
-5.4800

> <Gold.Chemscore.Hbond>
2.8325

> <Gold.Chemscore.Metal>
0.0000

> <Gold.Chemscore.Lipo>
46.8848

> <Gold.Chemscore.Internal_Hbond>
0.0000

> <Gold.Chemscore.DEClash>
0.0391

> <Gold.Chemscore.DEInternal>
1.5509

> <Gold.Chemscore.Rot>
1.7360

> <Gold.Chemscore.Internal.Correction>
   9.000000E+99

> <Gold.Chemscore.Hbonds>
donor molecule, donor type, donor heavy atom, donor atom, acceptor molecule, acceptor atom, score
      L1  H     6    25       P1  7948  0.97
      L1  H     9    26       P1  7948  0.92
      P1  H  7989  7998       L1    13  0.53

> <Gold.Chemscore.Hbond.Weighted>
-9.4607

> <Gold.Chemscore.Metal.Weighted>
-0.0000

> <Gold.Chemscore.Lipo.Weighted>
-5.4855

> <Gold.Chemscore.Internal_Hbond.Weighted>
0.0000

> <Gold.Chemscore.DEClash.Weighted>
0.0391

> <Gold.Chemscore.DEInternal.Weighted>
1.5509

> <Gold.Chemscore.Rot.Weighted>
4.4443

> <Gold.Chemscore.Internal.Correction.Weighted>
   9.000000E+99

> <Gold.Protein.RotatedTorsions>
[ 6907 6896 6895 6894 ] final -137.35 input  -60.11 | X-H torsion
[ 7974 7965 7964 7962 ] final  -33.60 input  175.53 | X-H torsion
[ 8008 7997 7996 7995 ] final -175.66 input   59.86 | X-H torsion
[ 10167 10162 10161 10158 ] final -142.44 input  -65.29 | X-H torsion
[ 10718 10713 10712 10709 ] final -110.85 input   66.30 | X-H torsion
[ 10763 10752 10751 10750 ] final  103.73 input  -60.55 | X-H torsion
[ 11005 11000 10999 10996 ] final   59.59 input  -57.11 | X-H torsion

> <Gold.Protein.ActiveResidues>
 VAL166  LYS551  ARG553  GLY616  TRP617  ASP618  TYR619  PRO620  LYS621  CYS622 
 ASP623  PHE694  ASN695  SER759  ASP760  ASP761  ALA762  ILE779  LEU786  VAL792 
 PHE793  MET794  SER795  GLU796  ALA797  LYS798  CYS799  TRP800  GLU811  SER814 

> <Gold.Protein.RotatedAtoms>
  151.0214  133.5873  159.2670 H   0  0  0  0  0  0  0  0  0  0  0  0  # atno 6907 bound_to 6896
  151.2988  135.0762  159.9241 H   0  0  0  0  0  0  0  0  0  0  0  0  # atno 6908 bound_to 6896
  152.5324  133.9899  159.7900 H   0  0  0  0  0  0  0  0  0  0  0  0  # atno 6909 bound_to 6896
  146.0897  140.5937  142.8870 H   0  0  0  0  0  0  0  0  0  0  0  0  # atno 7974 bound_to 7965
  155.9854  140.1190  157.0688 H   0  0  0  0  0  0  0  0  0  0  0  0  # atno 8008 bound_to 7997
  154.4195  140.1136  156.5560 H   0  0  0  0  0  0  0  0  0  0  0  0  # atno 8009 bound_to 7997
  155.6415  140.3473  155.4719 H   0  0  0  0  0  0  0  0  0  0  0  0  # atno 8010 bound_to 7997
  139.8088  143.7731  152.2662 H   0  0  0  0  0  0  0  0  0  0  0  0  # atno 10167 bound_to 10162
  156.0614  130.5837  150.8293 H   0  0  0  0  0  0  0  0  0  0  0  0  # atno 10718 bound_to 10713
  153.3565  135.3967  155.1686 H   0  0  0  0  0  0  0  0  0  0  0  0  # atno 10763 bound_to 10752
  154.8672  135.3669  154.5154 H   0  0  0  0  0  0  0  0  0  0  0  0  # atno 10764 bound_to 10752
  153.5610  135.7081  153.5607 H   0  0  0  0  0  0  0  0  0  0  0  0  # atno 10765 bound_to 10752
  140.0293  134.6036  155.9529 H   0  0  0  0  0  0  0  0  0  0  0  0  # atno 11005 bound_to 11000
  144.7351  140.4785  143.6909 LP  0  0  0  0  0  0  0  0  0  0  0  0  # atno 17320 bound_to 7965
  145.6062  139.1508  143.3101 LP  0  0  0  0  0  0  0  0  0  0  0  0  # atno 17321 bound_to 7965
  139.7874  144.7423  151.0003 LP  0  0  0  0  0  0  0  0  0  0  0  0  # atno 17342 bound_to 10162
  140.7818  143.4478  151.0457 LP  0  0  0  0  0  0  0  0  0  0  0  0  # atno 17343 bound_to 10162
  157.5625  131.0946  150.9538 LP  0  0  0  0  0  0  0  0  0  0  0  0  # atno 17370 bound_to 10713
  156.9773  130.5513  149.5294 LP  0  0  0  0  0  0  0  0  0  0  0  0  # atno 17371 bound_to 10713
  141.1821  133.6548  156.5064 LP  0  0  0  0  0  0  0  0  0  0  0  0  # atno 17394 bound_to 11000
  140.4253  134.7150  157.4912 LP  0  0  0  0  0  0  0  0  0  0  0  0  # atno 17395 bound_to 11000

$$$$
