AV-unprocessed.smi:290|AV-procd|sdf|2242|dock3
  -GOLD-   2262022123D 1   1.00000     0.00000
 Structure written by MMmdl.
 59 62  0  0  0  0  0  0  0  0  2 V2000
  153.1452  142.2168  160.3599 C   0  0  0  0  0  0  0  0  0  0  0  0
  151.9407  143.0965  159.9891 C   0  0  1  0  0  0  0  0  0  0  0  0
  152.4204  144.4245  159.7964 O   0  0  0  0  0  0  0  0  0  0  0  0
  151.5995  145.0734  158.8421 C   0  0  0  0  0  0  0  0  0  0  0  0
  151.3598  143.9748  157.8178 C   0  0  0  0  0  0  0  0  0  0  0  0
  151.1785  142.7302  158.6834 C   0  0  2  0  0  0  0  0  0  0  0  0
  149.8021  142.6243  159.0059 O   0  0  0  0  0  0  0  0  0  0  0  0
  151.6092  141.4157  157.9809 C   0  0  0  0  0  0  0  0  0  0  0  0
  150.6460  140.9361  157.0009 N   0  0  0  0  0  0  0  0  0  0  0  0
  150.0592  141.6719  155.9973 C   0  0  0  0  0  0  0  0  0  0  0  0
  149.2271  141.0126  155.2391 N   0  0  0  0  0  0  0  0  0  0  0  0
  149.2497  139.7181  155.7466 C   0  0  0  0  0  0  0  0  0  0  0  0
  148.5949  138.4987  155.4043 C   0  0  0  0  0  0  0  0  0  0  0  0
  147.7291  138.3585  154.3675 N   0  0  0  0  0  0  0  0  0  0  0  0
  147.1799  139.4896  153.6472 C   0  0  0  0  0  0  0  0  0  0  0  0
  146.6360  138.8599  152.3725 C   0  0  0  0  0  0  0  0  0  0  0  0
  146.1080  137.4877  152.8321 C   0  0  1  0  0  0  0  0  0  0  0  0
  146.0852  136.4713  151.7338 N   0  3  2  0  0  0  0  0  0  0  0  0
  145.6696  137.0677  150.4368 C   0  0  0  0  0  0  0  0  0  0  0  0
  145.3021  135.2436  152.0563 C   0  0  0  0  0  0  0  0  0  0  0  0
  145.8696  133.9641  151.4131 C   0  0  0  0  0  0  0  0  0  0  0  0
  147.2129  133.7777  151.8069 O   0  0  0  0  0  0  0  0  0  0  0  0
  147.0130  137.1274  154.0452 C   0  0  2  0  0  0  0  0  0  0  0  0
  146.1775  136.6397  155.2503 C   0  0  0  0  0  0  0  0  0  0  0  0
  148.8577  137.4120  156.1763 N   0  0  0  0  0  0  0  0  0  0  0  0
  149.7159  137.4968  157.1965 C   0  0  0  0  0  0  0  0  0  0  0  0
  150.4065  138.5569  157.6186 N   0  0  0  0  0  0  0  0  0  0  0  0
  150.1353  139.6573  156.8610 C   0  0  0  0  0  0  0  0  0  0  0  0
  145.0846  137.6307  153.1851 H   0  0  0  0  0  0  0  0  0  0  0  0
  147.7486  136.3793  153.7501 H   0  0  0  0  0  0  0  0  0  0  0  0
  152.8473  141.1814  160.5254 H   0  0  0  0  0  0  0  0  0  0  0  0
  153.6107  142.5720  161.2796 H   0  0  0  0  0  0  0  0  0  0  0  0
  153.9086  142.2341  159.5817 H   0  0  0  0  0  0  0  0  0  0  0  0
  151.2539  143.1134  160.8375 H   0  0  0  0  0  0  0  0  0  0  0  0
  150.6656  145.3893  159.3096 H   0  0  0  0  0  0  0  0  0  0  0  0
  152.0900  145.9494  158.4172 H   0  0  0  0  0  0  0  0  0  0  0  0
  150.5178  144.1806  157.1555 H   0  0  0  0  0  0  0  0  0  0  0  0
  152.2526  143.8740  157.1992 H   0  0  0  0  0  0  0  0  0  0  0  0
  149.3368  142.3183  158.2423 H   0  0  0  0  0  0  0  0  0  0  0  0
  152.5570  141.5552  157.4608 H   0  0  0  0  0  0  0  0  0  0  0  0
  151.7736  140.6260  158.7152 H   0  0  0  0  0  0  0  0  0  0  0  0
  150.2670  142.7212  155.8457 H   0  0  0  0  0  0  0  0  0  0  0  0
  146.3830  139.9463  154.2355 H   0  0  0  0  0  0  0  0  0  0  0  0
  147.9335  140.2473  153.4289 H   0  0  0  0  0  0  0  0  0  0  0  0
  145.8731  139.4805  151.9015 H   0  0  0  0  0  0  0  0  0  0  0  0
  147.4535  138.7305  151.6611 H   0  0  0  0  0  0  0  0  0  0  0  0
  144.6360  137.4136  150.4817 H   0  0  0  0  0  0  0  0  0  0  0  0
  145.7536  136.3575  149.6163 H   0  0  0  0  0  0  0  0  0  0  0  0
  146.2960  137.9144  150.1585 H   0  0  0  0  0  0  0  0  0  0  0  0
  145.2888  135.0626  153.1286 H   0  0  0  0  0  0  0  0  0  0  0  0
  144.2631  135.3888  151.7568 H   0  0  0  0  0  0  0  0  0  0  0  0
  145.2955  133.1019  151.7536 H   0  0  0  0  0  0  0  0  0  0  0  0
  145.7973  133.9673  150.3265 H   0  0  0  0  0  0  0  0  0  0  0  0
  147.6862  134.5827  151.6571 H   0  0  0  0  0  0  0  0  0  0  0  0
  145.5639  135.7752  155.0016 H   0  0  0  0  0  0  0  0  0  0  0  0
  145.5040  137.4220  155.6025 H   0  0  0  0  0  0  0  0  0  0  0  0
  146.8063  136.3512  156.0916 H   0  0  0  0  0  0  0  0  0  0  0  0
  149.8731  136.5844  157.7528 H   0  0  0  0  0  0  0  0  0  0  0  0
  147.0413  136.1649  151.6206 H   0  0  0  0  0  0  0  0  0  0  0  0
  1  2  1  0  0  0  0
  1 31  1  0  0  0  0
  1 32  1  0  0  0  0
  1 33  1  0  0  0  0
  2  6  1  0  0  0  0
  2  3  1  0  0  0  0
  2 34  1  0  0  0  0
  3  4  1  0  0  0  0
  4  5  1  0  0  0  0
  4 35  1  0  0  0  0
  4 36  1  0  0  0  0
  5  6  1  0  0  0  0
  5 37  1  0  0  0  0
  5 38  1  0  0  0  0
  6  7  1  0  0  0  0
  6  8  1  0  0  0  0
  7 39  1  0  0  0  0
  8  9  1  0  0  0  0
  8 40  1  0  0  0  0
  8 41  1  0  0  0  0
  9 28  1  0  0  0  0
  9 10  1  0  0  0  0
 10 11  2  0  0  0  0
 10 42  1  0  0  0  0
 11 12  1  0  0  0  0
 12 28  2  0  0  0  0
 12 13  1  0  0  0  0
 13 14  1  0  0  0  0
 13 25  2  0  0  0  0
 14 23  1  0  0  0  0
 14 15  1  0  0  0  0
 15 16  1  0  0  0  0
 15 43  1  0  0  0  0
 15 44  1  0  0  0  0
 16 17  1  0  0  0  0
 16 45  1  0  0  0  0
 16 46  1  0  0  0  0
 17 29  1  0  0  0  0
 17 18  1  0  0  0  0
 17 23  1  0  0  0  0
 18 19  1  0  0  0  0
 18 20  1  0  0  0  0
 18 59  1  0  0  0  0
 19 47  1  0  0  0  0
 19 48  1  0  0  0  0
 19 49  1  0  0  0  0
 20 21  1  0  0  0  0
 20 50  1  0  0  0  0
 20 51  1  0  0  0  0
 21 22  1  0  0  0  0
 21 52  1  0  0  0  0
 21 53  1  0  0  0  0
 22 54  1  0  0  0  0
 23 30  1  0  0  0  0
 23 24  1  0  0  0  0
 24 55  1  0  0  0  0
 24 56  1  0  0  0  0
 24 57  1  0  0  0  0
 25 26  1  0  0  0  0
 26 27  2  0  0  0  0
 26 58  1  0  0  0  0
 27 28  1  0  0  0  0
M  CHG  1  18   1
M  END
> <s_m_source_file>
AV-unprocessed.smi

> <i_m_source_file_index>
290

> <i_lp_mmshare_version>
43012

> <i_f3d_flags>
0

> <s_epik_input>
W0NIMl0xW0NIMl1PW0NAQEhdKFtDSDNdKVtDQEBdMShbT0hdKVtDSDJdbihbY0hdbjIpYyhjMjMpbltjSF1uYzNONFtDSDJdW0NIMl1bQ0BIXShbQ0BIXTRbQ0gzXSlOKFtDSDNdKVtDSDJdW0NIMl1bT0hd

> <s_epik_cmdline>
J2VwaWtfcHl0aG9uJywgJy1waCcsICc3LjAnLCAnLXRuJywgJzgnLCAnLW1hJywgJzIwMCcsICctbWV0YWxfYmluZGluZycsICctaW1hZScsICc8aW5maWxlLm1hZT4nLCAnLW9tYWUnLCAnPG91dGZpbGUubWFlPic=

> <r_lp_tautomer_probability>
1

> <r_epik_Ionization_Penalty>
0.0036983

> <r_epik_Ionization_Penalty_Charging>
0.0032725

> <r_epik_Ionization_Penalty_Neutral>
0.000425798

> <r_epik_State_Penalty>
-0

> <r_epik_Charging_Adjusted_Penalty>
0.0032725

> <i_epik_Tot_Q>
1

> <i_epik_Tot_abs_Q>
1

> <r_epik_Metal_State_Penalty>
-0

> <b_epik_Metal_Only>
0

> <s_lp_Force_Field>
OPLS_2005

> <r_lp_Energy>
64.6527

> <b_lp_Chiralities_Consistent>
1

> <s_lp_Variant>
AV-unprocessed.smi:290-28

> <Gold.Version>
5.8.1

> <Gold.Id.Protein>
6NUR|6NUR_protein|mol2

> <Gold.PLP.Fitness>
52.4550

> <Gold.PLP.PLP>
-42.4381

> <Gold.PLP.part.hbond>
-2.5520

> <Gold.PLP.part.metal>
0.0000

> <Gold.PLP.part.buried>
2.3233

> <Gold.PLP.part.nonpolar>
-41.5564

> <Gold.PLP.part.repulsive>
0.2399

> <Gold.PLP.ligand.clash>
0.0000

> <Gold.PLP.ligand.torsion>
1.0105

> <Gold.PLP.Chemscore.Hbond>
3.0000

> <Gold.PLP.Chemscore.CHOScore>
0.9220

> <Gold.PLP.Chemscore.Metal>
0.0000

> <Gold.Chemscore.Hbonds>
donor molecule, donor type, donor heavy atom, donor atom, acceptor molecule, acceptor atom, score
      L1  H    18    59       P1  7948  2.00
      L1  H    22    54       P1  7948  0.95
      L1  C    10    42       P1  8028  1.00

> <Gold.PLP.Chemscore.Internal.Correction>
0.2719

> <Gold.Rescore>
     Score         DG    S(hbond)    S(metal)    S(lipo)     H(rot)  DE(clash)    DE(int)     intcor
     11.45     -16.97       1.94        0.00     116.07       3.35       2.32       3.20       ----

> <Gold.Chemscore.Fitness>
11.4485

> <Gold.Chemscore.DG>
-16.9709

> <Gold.Chemscore.ZeroCoef>
-5.4800

> <Gold.Chemscore.Hbond>
1.9436

> <Gold.Chemscore.Metal>
0.0000

> <Gold.Chemscore.Lipo>
116.0656

> <Gold.Chemscore.Internal_Hbond>
0.0000

> <Gold.Chemscore.DEClash>
2.3202

> <Gold.Chemscore.DEInternal>
3.2022

> <Gold.Chemscore.Rot>
3.3518

> <Gold.Chemscore.Internal.Correction>
   9.000000E+99

> <Gold.Chemscore.Hbonds>
donor molecule, donor type, donor heavy atom, donor atom, acceptor molecule, acceptor atom, score
      L1  H    18    59       P1  7948  0.99
      L1  H    22    54       P1  7948  0.20

> <Gold.Chemscore.Hbond.Weighted>
-6.4918

> <Gold.Chemscore.Metal.Weighted>
-0.0000

> <Gold.Chemscore.Lipo.Weighted>
-13.5797

> <Gold.Chemscore.Internal_Hbond.Weighted>
0.0000

> <Gold.Chemscore.DEClash.Weighted>
2.3202

> <Gold.Chemscore.DEInternal.Weighted>
3.2022

> <Gold.Chemscore.Rot.Weighted>
8.5806

> <Gold.Chemscore.Internal.Correction.Weighted>
   9.000000E+99

> <Gold.Protein.RotatedTorsions>
[ 6907 6896 6895 6894 ] final   75.30 input  -60.11 | X-H torsion
[ 7974 7965 7964 7962 ] final -114.25 input  175.53 | X-H torsion
[ 8008 7997 7996 7995 ] final   23.55 input   59.86 | X-H torsion
[ 10167 10162 10161 10158 ] final  155.44 input  -65.29 | X-H torsion
[ 10718 10713 10712 10709 ] final  151.99 input   66.30 | X-H torsion
[ 10763 10752 10751 10750 ] final -176.13 input  -60.55 | X-H torsion
[ 11005 11000 10999 10996 ] final  156.35 input  -57.11 | X-H torsion

> <Gold.Protein.ActiveResidues>
 VAL166  LYS551  ARG553  GLY616  TRP617  ASP618  TYR619  PRO620  LYS621  CYS622 
 ASP623  PHE694  ASN695  SER759  ASP760  ASP761  ALA762  ILE779  LEU786  VAL792 
 PHE793  MET794  SER795  GLU796  ALA797  LYS798  CYS799  TRP800  GLU811  SER814 

> <Gold.Protein.RotatedAtoms>
  152.5019  134.4141  159.9458 H   0  0  0  0  0  0  0  0  0  0  0  0  # atno 6907 bound_to 6896
  151.4111  133.3721  159.2752 H   0  0  0  0  0  0  0  0  0  0  0  0  # atno 6908 bound_to 6896
  150.9291  134.8729  159.7599 H   0  0  0  0  0  0  0  0  0  0  0  0  # atno 6909 bound_to 6896
  145.1224  140.8677  143.3806 H   0  0  0  0  0  0  0  0  0  0  0  0  # atno 7974 bound_to 7965
  154.9827  140.3104  155.4939 H   0  0  0  0  0  0  0  0  0  0  0  0  # atno 8008 bound_to 7997
  156.2951  140.2263  156.4867 H   0  0  0  0  0  0  0  0  0  0  0  0  # atno 8009 bound_to 7997
  154.7774  140.0448  157.1088 H   0  0  0  0  0  0  0  0  0  0  0  0  # atno 8010 bound_to 7997
  139.4821  144.5098  151.8041 H   0  0  0  0  0  0  0  0  0  0  0  0  # atno 10167 bound_to 10162
  157.2635  131.0803  151.1649 H   0  0  0  0  0  0  0  0  0  0  0  0  # atno 10718 bound_to 10713
  154.5760  135.2832  155.0780 H   0  0  0  0  0  0  0  0  0  0  0  0  # atno 10763 bound_to 10752
  154.2134  135.6404  153.5126 H   0  0  0  0  0  0  0  0  0  0  0  0  # atno 10764 bound_to 10752
  153.0072  135.5497  154.6399 H   0  0  0  0  0  0  0  0  0  0  0  0  # atno 10765 bound_to 10752
  140.1666  134.8572  157.2640 H   0  0  0  0  0  0  0  0  0  0  0  0  # atno 11005 bound_to 11000
  145.0725  139.3020  143.5824 LP  0  0  0  0  0  0  0  0  0  0  0  0  # atno 17320 bound_to 7965
  146.3520  140.0205  142.8659 LP  0  0  0  0  0  0  0  0  0  0  0  0  # atno 17321 bound_to 7965
  140.4600  144.1735  150.5905 LP  0  0  0  0  0  0  0  0  0  0  0  0  # atno 17342 bound_to 10162
  140.4494  143.2493  151.9367 LP  0  0  0  0  0  0  0  0  0  0  0  0  # atno 17343 bound_to 10162
  157.3149  130.6908  149.6236 LP  0  0  0  0  0  0  0  0  0  0  0  0  # atno 17370 bound_to 10713
  155.9664  130.4352  150.5083 LP  0  0  0  0  0  0  0  0  0  0  0  0  # atno 17371 bound_to 10713
  140.2426  134.3777  155.7474 LP  0  0  0  0  0  0  0  0  0  0  0  0  # atno 17394 bound_to 11000
  141.2214  133.7273  156.8812 LP  0  0  0  0  0  0  0  0  0  0  0  0  # atno 17395 bound_to 11000

$$$$
