AV-unprocessed.smi:1794|AV-procd|sdf|7234|dock8
  -GOLD-   22720 8483D 1   1.00000     0.00000
 Structure written by MMmdl.
 55 57  0  0  0  0  0  0  0  0  2 V2000
  151.6632  138.2142  154.3328 C   0  0  0  0  0  0  0  0  0  0  0  0
  150.4154  138.2994  155.2440 C   0  0  0  0  0  0  0  0  0  0  0  0
  149.2084  138.6478  154.3346 C   0  0  0  0  0  0  0  0  0  0  0  0
  150.1462  136.8692  155.7994 C   0  0  0  0  0  0  0  0  0  0  0  0
  149.6938  135.9481  154.7574 N   0  0  0  0  0  0  0  0  0  0  0  0
  149.5866  134.6178  154.8769 C   0  0  0  0  0  0  0  0  0  0  0  0
  149.9484  133.9839  155.8679 O   0  0  0  0  0  0  0  0  0  0  0  0
  149.0079  134.0820  153.7904 N   0  0  0  0  0  0  0  0  0  0  0  0
  148.6108  132.7296  153.5970 C   0  0  0  0  0  0  0  0  0  0  0  0
  149.3599  131.6468  154.1229 C   0  0  0  0  0  0  0  0  0  0  0  0
  148.9286  130.3250  153.8996 C   0  0  0  0  0  0  0  0  0  0  0  0
  147.7613  130.1062  153.1462 C   0  0  0  0  0  0  0  0  0  0  0  0
  147.0798  131.1581  152.6463 N   0  3  0  0  0  0  0  0  0  0  0  0
  147.4463  132.4505  152.8317 C   0  0  0  0  0  0  0  0  0  0  0  0
  146.6714  133.4723  152.2444 N   0  0  0  0  0  0  0  0  0  0  0  0
  146.5606  133.3726  150.7915 C   0  0  0  0  0  0  0  0  0  0  0  0
  145.1402  133.8154  150.4335 C   0  0  0  0  0  0  0  0  0  0  0  0
  144.3488  133.4916  151.6949 C   0  0  0  0  0  0  0  0  0  0  0  0
  145.3581  133.7927  152.8010 C   0  0  0  0  0  0  0  0  0  0  0  0
  150.5666  139.2935  156.3436 N   0  0  0  0  0  0  0  0  0  0  0  0
  150.7452  140.6835  155.9091 C   0  0  0  0  0  0  0  0  0  0  0  0
  150.7642  141.6609  157.0978 C   0  0  0  0  0  0  0  0  0  0  0  0
  151.7810  141.2847  158.0192 O   0  0  0  0  0  0  0  0  0  0  0  0
  151.6142  139.9576  158.5029 C   0  0  0  0  0  0  0  0  0  0  0  0
  151.6163  138.9769  157.3194 C   0  0  0  0  0  0  0  0  0  0  0  0
  151.5073  137.5017  153.5219 H   0  0  0  0  0  0  0  0  0  0  0  0
  152.5469  137.8802  154.8763 H   0  0  0  0  0  0  0  0  0  0  0  0
  151.9011  139.1715  153.8694 H   0  0  0  0  0  0  0  0  0  0  0  0
  148.9835  137.8381  153.6396 H   0  0  0  0  0  0  0  0  0  0  0  0
  149.3971  139.5283  153.7202 H   0  0  0  0  0  0  0  0  0  0  0  0
  148.3050  138.8397  154.9148 H   0  0  0  0  0  0  0  0  0  0  0  0
  151.0644  136.4530  156.2157 H   0  0  0  0  0  0  0  0  0  0  0  0
  149.4530  136.8920  156.6409 H   0  0  0  0  0  0  0  0  0  0  0  0
  149.3720  136.3718  153.8996 H   0  0  0  0  0  0  0  0  0  0  0  0
  148.6854  134.7361  153.0928 H   0  0  0  0  0  0  0  0  0  0  0  0
  150.2660  131.8107  154.6867 H   0  0  0  0  0  0  0  0  0  0  0  0
  149.4891  129.4918  154.2975 H   0  0  0  0  0  0  0  0  0  0  0  0
  147.3588  129.1289  152.9228 H   0  0  0  0  0  0  0  0  0  0  0  0
  147.3051  133.9962  150.2955 H   0  0  0  0  0  0  0  0  0  0  0  0
  146.7207  132.3413  150.4715 H   0  0  0  0  0  0  0  0  0  0  0  0
  145.1221  134.8914  150.2543 H   0  0  0  0  0  0  0  0  0  0  0  0
  144.7515  133.3178  149.5445 H   0  0  0  0  0  0  0  0  0  0  0  0
  143.4312  134.0733  151.7864 H   0  0  0  0  0  0  0  0  0  0  0  0
  144.0849  132.4331  151.7078 H   0  0  0  0  0  0  0  0  0  0  0  0
  145.1154  133.2693  153.7257 H   0  0  0  0  0  0  0  0  0  0  0  0
  145.3485  134.8590  153.0301 H   0  0  0  0  0  0  0  0  0  0  0  0
  151.6749  140.7880  155.3495 H   0  0  0  0  0  0  0  0  0  0  0  0
  149.9391  140.9909  155.2456 H   0  0  0  0  0  0  0  0  0  0  0  0
  150.9574  142.6757  156.7500 H   0  0  0  0  0  0  0  0  0  0  0  0
  149.7962  141.6740  157.6011 H   0  0  0  0  0  0  0  0  0  0  0  0
  152.4275  139.7244  159.1898 H   0  0  0  0  0  0  0  0  0  0  0  0
  150.6839  139.8791  159.0678 H   0  0  0  0  0  0  0  0  0  0  0  0
  151.4968  137.9721  157.7163 H   0  0  0  0  0  0  0  0  0  0  0  0
  152.5959  139.0092  156.8419 H   0  0  0  0  0  0  0  0  0  0  0  0
  146.2429  130.9695  152.0944 H   0  0  0  0  0  0  0  0  0  0  0  0
  1  2  1  0  0  0  0
  1 26  1  0  0  0  0
  1 27  1  0  0  0  0
  1 28  1  0  0  0  0
  2  3  1  0  0  0  0
  2  4  1  0  0  0  0
  2 20  1  0  0  0  0
  3 29  1  0  0  0  0
  3 30  1  0  0  0  0
  3 31  1  0  0  0  0
  4  5  1  0  0  0  0
  4 32  1  0  0  0  0
  4 33  1  0  0  0  0
  5  6  1  0  0  0  0
  5 34  1  0  0  0  0
  6  7  2  0  0  0  0
  6  8  1  0  0  0  0
  8  9  1  0  0  0  0
  8 35  1  0  0  0  0
  9 14  1  0  0  0  0
  9 10  2  0  0  0  0
 10 11  1  0  0  0  0
 10 36  1  0  0  0  0
 11 12  2  0  0  0  0
 11 37  1  0  0  0  0
 12 13  1  0  0  0  0
 12 38  1  0  0  0  0
 13 14  2  0  0  0  0
 13 55  1  0  0  0  0
 14 15  1  0  0  0  0
 15 19  1  0  0  0  0
 15 16  1  0  0  0  0
 16 17  1  0  0  0  0
 16 39  1  0  0  0  0
 16 40  1  0  0  0  0
 17 18  1  0  0  0  0
 17 41  1  0  0  0  0
 17 42  1  0  0  0  0
 18 19  1  0  0  0  0
 18 43  1  0  0  0  0
 18 44  1  0  0  0  0
 19 45  1  0  0  0  0
 19 46  1  0  0  0  0
 20 25  1  0  0  0  0
 20 21  1  0  0  0  0
 21 22  1  0  0  0  0
 21 47  1  0  0  0  0
 21 48  1  0  0  0  0
 22 23  1  0  0  0  0
 22 49  1  0  0  0  0
 22 50  1  0  0  0  0
 23 24  1  0  0  0  0
 24 25  1  0  0  0  0
 24 51  1  0  0  0  0
 24 52  1  0  0  0  0
 25 53  1  0  0  0  0
 25 54  1  0  0  0  0
M  CHG  1  13   1
M  END
> <s_m_source_file>
AV-unprocessed.smi

> <i_m_source_file_index>
1794

> <i_lp_mmshare_version>
43012

> <i_f3d_flags>
0

> <s_epik_input>
W0NIMl0xW0NIMl1PW0NIMl1bQ0gyXU4xQyhbQ0gzXSkoW0NIM10pW0NIMl1bTkhdQyg9TylbTkhdYzJbY0hdW2NIXVtjSF1uYzJOM1tDSDJdW0NIMl1bQ0gyXVtDSDJdMw==

> <s_epik_cmdline>
J2VwaWtfcHl0aG9uJywgJy1waCcsICc3LjAnLCAnLXRuJywgJzgnLCAnLW1hJywgJzIwMCcsICctbWV0YWxfYmluZGluZycsICctaW1hZScsICc8aW5maWxlLm1hZT4nLCAnLW9tYWUnLCAnPG91dGZpbGUubWFlPic=

> <r_epik_Ionization_Penalty>
1.36967

> <r_epik_Ionization_Penalty_Charging>
1.10366

> <r_epik_Ionization_Penalty_Neutral>
0.266011

> <r_epik_State_Penalty>
1.45237

> <r_epik_Charging_Adjusted_Penalty>
2.55603

> <i_epik_Tot_Q>
1

> <i_epik_Tot_abs_Q>
1

> <r_epik_Metal_State_Penalty>
1.53539

> <b_epik_Metal_Only>
0

> <s_lp_Force_Field>
OPLS_2005

> <r_lp_Energy>
75.8074

> <b_lp_Chiralities_Consistent>
1

> <s_lp_Variant>
AV-unprocessed.smi:1794-3

> <Gold.Version>
5.8.1

> <Gold.Id.Protein>
6NUR|6NUR_protein|mol2

> <Gold.PLP.Fitness>
45.5088

> <Gold.PLP.PLP>
-40.4712

> <Gold.PLP.part.hbond>
-2.7972

> <Gold.PLP.part.metal>
0.0000

> <Gold.PLP.part.buried>
-5.1472

> <Gold.PLP.part.nonpolar>
-32.6945

> <Gold.PLP.part.repulsive>
0.1956

> <Gold.PLP.ligand.clash>
0.0000

> <Gold.PLP.ligand.torsion>
0.5826

> <Gold.PLP.Chemscore.Hbond>
2.0000

> <Gold.PLP.Chemscore.CHOScore>
0.0000

> <Gold.PLP.Chemscore.Metal>
0.0000

> <Gold.Chemscore.Hbonds>
donor molecule, donor type, donor heavy atom, donor atom, acceptor molecule, acceptor atom, score
      L1  H     5    34       P1  7948  0.92
      L1  H     8    35       P1  7948  1.00

> <Gold.PLP.Chemscore.Internal.Correction>
0.2028

> <Gold.Rescore>
     Score         DG    S(hbond)    S(metal)    S(lipo)     H(rot)  DE(clash)    DE(int)     intcor
     13.56     -15.26       0.91        0.00      92.31       1.58       0.07       1.63       ----

> <Gold.Chemscore.Fitness>
13.5598

> <Gold.Chemscore.DG>
-15.2644

> <Gold.Chemscore.ZeroCoef>
-5.4800

> <Gold.Chemscore.Hbond>
0.9071

> <Gold.Chemscore.Metal>
0.0000

> <Gold.Chemscore.Lipo>
92.3054

> <Gold.Chemscore.Internal_Hbond>
0.0000

> <Gold.Chemscore.DEClash>
0.0727

> <Gold.Chemscore.DEInternal>
1.6319

> <Gold.Chemscore.Rot>
1.5800

> <Gold.Chemscore.Internal.Correction>
   9.000000E+99

> <Gold.Chemscore.Hbonds>
donor molecule, donor type, donor heavy atom, donor atom, acceptor molecule, acceptor atom, score
      L1  H     5    34       P1  7948  0.73
      L1  H     8    35       P1  7948  0.29

> <Gold.Chemscore.Hbond.Weighted>
-3.0296

> <Gold.Chemscore.Metal.Weighted>
-0.0000

> <Gold.Chemscore.Lipo.Weighted>
-10.7997

> <Gold.Chemscore.Internal_Hbond.Weighted>
0.0000

> <Gold.Chemscore.DEClash.Weighted>
0.0727

> <Gold.Chemscore.DEInternal.Weighted>
1.6319

> <Gold.Chemscore.Rot.Weighted>
4.0449

> <Gold.Chemscore.Internal.Correction.Weighted>
   9.000000E+99

> <Gold.Protein.RotatedTorsions>
[ 6907 6896 6895 6894 ] final  176.57 input  -60.11 | X-H torsion
[ 7974 7965 7964 7962 ] final  -81.14 input  175.53 | X-H torsion
[ 8008 7997 7996 7995 ] final  -72.91 input   59.86 | X-H torsion
[ 10167 10162 10161 10158 ] final   72.93 input  -65.29 | X-H torsion
[ 10718 10713 10712 10709 ] final  161.55 input   66.30 | X-H torsion
[ 10763 10752 10751 10750 ] final -102.85 input  -60.55 | X-H torsion
[ 11005 11000 10999 10996 ] final  -27.36 input  -57.11 | X-H torsion

> <Gold.Protein.ActiveResidues>
 VAL166  LYS551  ARG553  GLY616  TRP617  ASP618  TYR619  PRO620  LYS621  CYS622 
 ASP623  PHE694  ASN695  SER759  ASP760  ASP761  ALA762  ILE779  LEU786  VAL792 
 PHE793  MET794  SER795  GLU796  ALA797  LYS798  CYS799  TRP800  GLU811  SER814 

> <Gold.Protein.RotatedAtoms>
  151.7180  133.3314  159.3307 H   0  0  0  0  0  0  0  0  0  0  0  0  # atno 6907 bound_to 6896
  150.7665  134.6473  159.6278 H   0  0  0  0  0  0  0  0  0  0  0  0  # atno 6908 bound_to 6896
  152.3670  134.6793  160.0240 H   0  0  0  0  0  0  0  0  0  0  0  0  # atno 6909 bound_to 6896
  145.5506  140.9497  143.1501 H   0  0  0  0  0  0  0  0  0  0  0  0  # atno 7974 bound_to 7965
  154.5204  140.0789  156.8160 H   0  0  0  0  0  0  0  0  0  0  0  0  # atno 8008 bound_to 7997
  155.3589  140.3417  155.4222 H   0  0  0  0  0  0  0  0  0  0  0  0  # atno 8009 bound_to 7997
  156.1674  140.1608  156.8494 H   0  0  0  0  0  0  0  0  0  0  0  0  # atno 8010 bound_to 7997
  140.0299  144.5474  150.7515 H   0  0  0  0  0  0  0  0  0  0  0  0  # atno 10167 bound_to 10162
  157.1349  131.0526  151.2354 H   0  0  0  0  0  0  0  0  0  0  0  0  # atno 10718 bound_to 10713
  154.7764  135.4845  153.9753 H   0  0  0  0  0  0  0  0  0  0  0  0  # atno 10763 bound_to 10752
  153.1435  135.6777  153.8998 H   0  0  0  0  0  0  0  0  0  0  0  0  # atno 10764 bound_to 10752
  153.8665  135.3149  155.3418 H   0  0  0  0  0  0  0  0  0  0  0  0  # atno 10765 bound_to 10752
  140.9113  133.7459  156.0674 H   0  0  0  0  0  0  0  0  0  0  0  0  # atno 11005 bound_to 11000
  144.7531  139.7143  143.7265 LP  0  0  0  0  0  0  0  0  0  0  0  0  # atno 17320 bound_to 7965
  146.1919  139.5164  142.9799 LP  0  0  0  0  0  0  0  0  0  0  0  0  # atno 17321 bound_to 7965
  140.7306  143.2685  151.3964 LP  0  0  0  0  0  0  0  0  0  0  0  0  # atno 17342 bound_to 10162
  139.6083  144.1152  152.2272 LP  0  0  0  0  0  0  0  0  0  0  0  0  # atno 17343 bound_to 10162
  157.4359  130.7517  149.7029 LP  0  0  0  0  0  0  0  0  0  0  0  0  # atno 17370 bound_to 10713
  155.9800  130.4034  150.3553 LP  0  0  0  0  0  0  0  0  0  0  0  0  # atno 17371 bound_to 10713
  140.8107  134.3403  157.5412 LP  0  0  0  0  0  0  0  0  0  0  0  0  # atno 17394 bound_to 11000
  139.8758  134.9252  156.3369 LP  0  0  0  0  0  0  0  0  0  0  0  0  # atno 17395 bound_to 11000

$$$$
