AV-unprocessed.smi:3223|AV-procd|sdf|12308|dock10
  -GOLD-   2272018153D 1   1.00000     0.00000
 Structure written by MMmdl.
 43 43  0  0  0  0  0  0  0  0  2 V2000
  151.2053  142.5251  158.2357 C   0  0  0  0  0  0  0  0  0  0  0  0
  150.7615  141.6637  157.0889 C   0  0  0  0  0  0  0  0  0  0  0  0
  151.4967  140.6356  156.4330 C   0  0  0  0  0  0  0  0  0  0  0  0
  150.8150  140.0602  155.4555 N   0  0  0  0  0  0  0  0  0  0  0  0
  149.6257  140.6989  155.4532 N   0  0  0  0  0  0  0  0  0  0  0  0
  148.6013  140.3133  154.5003 C   0  0  0  0  0  0  0  0  0  0  0  0
  148.7334  138.8467  154.0386 C   0  0  1  0  0  0  0  0  0  0  0  0
  148.0147  137.9045  155.0134 C   0  0  0  0  0  0  0  0  0  0  0  0
  148.1776  138.6601  152.6786 N   0  3  0  0  0  0  0  0  0  0  0  0
  146.7031  138.5947  152.6078 C   0  0  0  0  0  0  0  0  0  0  0  0
  146.2479  137.8808  151.3250 C   0  0  0  0  0  0  0  0  0  0  0  0
  145.6302  136.5088  151.6065 C   0  0  0  0  0  0  0  0  0  0  0  0
  144.4222  136.4058  151.8198 O   0  0  0  0  0  0  0  0  0  0  0  0
  146.4736  135.4643  151.6110 N   0  0  0  0  0  0  0  0  0  0  0  0
  146.1000  134.0740  151.8554 C   0  0  0  0  0  0  0  0  0  0  0  0
  147.3555  133.2062  152.0330 C   0  0  0  0  0  0  0  0  0  0  0  0
  145.2220  133.5709  150.7021 C   0  0  0  0  0  0  0  0  0  0  0  0
  149.5666  141.6725  156.4270 C   0  0  0  0  0  0  0  0  0  0  0  0
  152.2875  142.6572  158.2471 H   0  0  0  0  0  0  0  0  0  0  0  0
  150.9244  142.0908  159.1953 H   0  0  0  0  0  0  0  0  0  0  0  0
  150.7616  143.5198  158.1902 H   0  0  0  0  0  0  0  0  0  0  0  0
  152.4997  140.2920  156.6389 H   0  0  0  0  0  0  0  0  0  0  0  0
  147.6319  140.4679  154.9762 H   0  0  0  0  0  0  0  0  0  0  0  0
  148.6363  140.9911  153.6455 H   0  0  0  0  0  0  0  0  0  0  0  0
  149.7888  138.5679  154.0390 H   0  0  0  0  0  0  0  0  0  0  0  0
  148.4241  137.9942  156.0201 H   0  0  0  0  0  0  0  0  0  0  0  0
  148.1248  136.8636  154.7073 H   0  0  0  0  0  0  0  0  0  0  0  0
  146.9479  138.1253  155.0675 H   0  0  0  0  0  0  0  0  0  0  0  0
  148.4755  139.4392  152.1093 H   0  0  0  0  0  0  0  0  0  0  0  0
  146.3204  138.0760  153.4872 H   0  0  0  0  0  0  0  0  0  0  0  0
  146.3006  139.6084  152.6344 H   0  0  0  0  0  0  0  0  0  0  0  0
  145.5309  138.5053  150.7893 H   0  0  0  0  0  0  0  0  0  0  0  0
  147.0984  137.7368  150.6575 H   0  0  0  0  0  0  0  0  0  0  0  0
  147.4508  135.6441  151.4309 H   0  0  0  0  0  0  0  0  0  0  0  0
  145.5071  134.0177  152.7700 H   0  0  0  0  0  0  0  0  0  0  0  0
  147.0884  132.1672  152.2282 H   0  0  0  0  0  0  0  0  0  0  0  0
  147.9604  133.5512  152.8722 H   0  0  0  0  0  0  0  0  0  0  0  0
  147.9817  133.2258  151.1404 H   0  0  0  0  0  0  0  0  0  0  0  0
  144.9021  132.5428  150.8739 H   0  0  0  0  0  0  0  0  0  0  0  0
  145.7575  133.5980  149.7524 H   0  0  0  0  0  0  0  0  0  0  0  0
  144.3238  134.1805  150.5967 H   0  0  0  0  0  0  0  0  0  0  0  0
  148.6868  142.2830  156.5697 H   0  0  0  0  0  0  0  0  0  0  0  0
  148.5644  137.8119  152.2890 H   0  0  0  0  0  0  0  0  0  0  0  0
  1  2  1  0  0  0  0
  1 19  1  0  0  0  0
  1 20  1  0  0  0  0
  1 21  1  0  0  0  0
  2 18  2  0  0  0  0
  2  3  1  0  0  0  0
  3  4  2  0  0  0  0
  3 22  1  0  0  0  0
  4  5  1  0  0  0  0
  5  6  1  0  0  0  0
  5 18  1  0  0  0  0
  6  7  1  0  0  0  0
  6 23  1  0  0  0  0
  6 24  1  0  0  0  0
  7  8  1  0  0  0  0
  7  9  1  0  0  0  0
  7 25  1  0  0  0  0
  8 26  1  0  0  0  0
  8 27  1  0  0  0  0
  8 28  1  0  0  0  0
  9 10  1  0  0  0  0
  9 29  1  0  0  0  0
  9 43  1  0  0  0  0
 10 11  1  0  0  0  0
 10 30  1  0  0  0  0
 10 31  1  0  0  0  0
 11 12  1  0  0  0  0
 11 32  1  0  0  0  0
 11 33  1  0  0  0  0
 12 13  2  0  0  0  0
 12 14  1  0  0  0  0
 14 15  1  0  0  0  0
 14 34  1  0  0  0  0
 15 16  1  0  0  0  0
 15 17  1  0  0  0  0
 15 35  1  0  0  0  0
 16 36  1  0  0  0  0
 16 37  1  0  0  0  0
 16 38  1  0  0  0  0
 17 39  1  0  0  0  0
 17 40  1  0  0  0  0
 17 41  1  0  0  0  0
 18 42  1  0  0  0  0
M  CHG  1   9   1
M  END
> <s_m_source_file>
AV-unprocessed.smi

> <i_m_source_file_index>
3223

> <i_lp_mmshare_version>
43012

> <i_f3d_flags>
0

> <s_epik_input>
W0NIM11jMVtjSF1ubihbY0hdMSlbQ0gyXVtDQEhdKFtDSDNdKVtOSF1bQ0gyXVtDSDJdQyg9TylbTkhdW0NIXShbQ0gzXSlbQ0gzXQ==

> <s_epik_cmdline>
J2VwaWtfcHl0aG9uJywgJy1waCcsICc3LjAnLCAnLXRuJywgJzgnLCAnLW1hJywgJzIwMCcsICctbWV0YWxfYmluZGluZycsICctaW1hZScsICc8aW5maWxlLm1hZT4nLCAnLW9tYWUnLCAnPG91dGZpbGUubWFlPic=

> <r_lp_tautomer_probability>
1

> <r_epik_Ionization_Penalty>
0.0057861

> <r_epik_Ionization_Penalty_Charging>
0.00577767

> <r_epik_Ionization_Penalty_Neutral>
8.4224e-06

> <r_epik_State_Penalty>
0.00424195

> <r_epik_Charging_Adjusted_Penalty>
0.0100196

> <i_epik_Tot_Q>
1

> <i_epik_Tot_abs_Q>
1

> <r_epik_Metal_State_Penalty>
-0

> <b_epik_Metal_Only>
0

> <s_lp_Force_Field>
OPLS_2005

> <r_lp_Energy>
5.87618

> <b_lp_Chiralities_Consistent>
1

> <s_lp_Variant>
AV-unprocessed.smi:3223-2

> <Gold.Version>
5.8.1

> <Gold.Id.Protein>
6NUR|6NUR_protein|mol2

> <Gold.PLP.Fitness>
46.8130

> <Gold.PLP.PLP>
-33.2351

> <Gold.PLP.part.hbond>
-3.5745

> <Gold.PLP.part.metal>
0.0000

> <Gold.PLP.part.buried>
-1.0378

> <Gold.PLP.part.nonpolar>
-28.8240

> <Gold.PLP.part.repulsive>
0.4969

> <Gold.PLP.ligand.clash>
0.0000

> <Gold.PLP.ligand.torsion>
1.7099

> <Gold.PLP.Chemscore.Hbond>
4.8320

> <Gold.PLP.Chemscore.CHOScore>
0.7792

> <Gold.PLP.Chemscore.Metal>
0.0000

> <Gold.Chemscore.Hbonds>
donor molecule, donor type, donor heavy atom, donor atom, acceptor molecule, acceptor atom, score
      L1  H     9    29       P1  7957  0.93
      L1  H     9    43       P1  7948  2.00
      L1  H    14    34       P1  7948  1.00
      P1  H  7989  7998       L1     4  0.37
      L1  C    18    42       P1  8028  0.58

> <Gold.PLP.Chemscore.Internal.Correction>
0.1641

> <Gold.Rescore>
     Score         DG    S(hbond)    S(metal)    S(lipo)     H(rot)  DE(clash)    DE(int)     intcor
     16.39     -17.98       2.89        0.00      72.23       2.19       0.09       1.51       ----

> <Gold.Chemscore.Fitness>
16.3893

> <Gold.Chemscore.DG>
-17.9840

> <Gold.Chemscore.ZeroCoef>
-5.4800

> <Gold.Chemscore.Hbond>
2.8882

> <Gold.Chemscore.Metal>
0.0000

> <Gold.Chemscore.Lipo>
72.2312

> <Gold.Chemscore.Internal_Hbond>
0.0000

> <Gold.Chemscore.DEClash>
0.0869

> <Gold.Chemscore.DEInternal>
1.5078

> <Gold.Chemscore.Rot>
2.1850

> <Gold.Chemscore.Internal.Correction>
   9.000000E+99

> <Gold.Chemscore.Hbonds>
donor molecule, donor type, donor heavy atom, donor atom, acceptor molecule, acceptor atom, score
      L1  H     9    29       P1  7957  0.89
      L1  H     9    43       P1  7948  1.00
      L1  H    14    34       P1  7948  0.93
      P1  H  7989  7998       L1     4  0.04

> <Gold.Chemscore.Hbond.Weighted>
-9.6465

> <Gold.Chemscore.Metal.Weighted>
-0.0000

> <Gold.Chemscore.Lipo.Weighted>
-8.4511

> <Gold.Chemscore.Internal_Hbond.Weighted>
0.0000

> <Gold.Chemscore.DEClash.Weighted>
0.0869

> <Gold.Chemscore.DEInternal.Weighted>
1.5078

> <Gold.Chemscore.Rot.Weighted>
5.5936

> <Gold.Chemscore.Internal.Correction.Weighted>
   9.000000E+99

> <Gold.Protein.RotatedTorsions>
[ 6907 6896 6895 6894 ] final  107.09 input  -60.11 | X-H torsion
[ 7974 7965 7964 7962 ] final  115.47 input  175.53 | X-H torsion
[ 8008 7997 7996 7995 ] final   23.71 input   59.86 | X-H torsion
[ 10167 10162 10161 10158 ] final  -89.25 input  -65.29 | X-H torsion
[ 10718 10713 10712 10709 ] final  -82.04 input   66.30 | X-H torsion
[ 10763 10752 10751 10750 ] final   45.44 input  -60.55 | X-H torsion
[ 11005 11000 10999 10996 ] final   55.82 input  -57.11 | X-H torsion

> <Gold.Protein.ActiveResidues>
 VAL166  LYS551  ARG553  GLY616  TRP617  ASP618  TYR619  PRO620  LYS621  CYS622 
 ASP623  PHE694  ASN695  SER759  ASP760  ASP761  ALA762  ILE779  LEU786  VAL792 
 PHE793  MET794  SER795  GLU796  ALA797  LYS798  CYS799  TRP800  GLU811  SER814 

> <Gold.Protein.RotatedAtoms>
  152.5168  133.9286  159.7568 H   0  0  0  0  0  0  0  0  0  0  0  0  # atno 6907 bound_to 6896
  150.9641  133.6405  159.2756 H   0  0  0  0  0  0  0  0  0  0  0  0  # atno 6908 bound_to 6896
  151.3639  135.0915  159.9496 H   0  0  0  0  0  0  0  0  0  0  0  0  # atno 6909 bound_to 6896
  145.1915  139.2997  143.4365 H   0  0  0  0  0  0  0  0  0  0  0  0  # atno 7974 bound_to 7965
  154.9851  140.3107  155.4930 H   0  0  0  0  0  0  0  0  0  0  0  0  # atno 8008 bound_to 7997
  156.2948  140.2259  156.4892 H   0  0  0  0  0  0  0  0  0  0  0  0  # atno 8009 bound_to 7997
  154.7754  140.0449  157.1073 H   0  0  0  0  0  0  0  0  0  0  0  0  # atno 8010 bound_to 7997
  140.3667  143.2815  151.9550 H   0  0  0  0  0  0  0  0  0  0  0  0  # atno 10167 bound_to 10162
  156.0040  130.4622  150.4045 H   0  0  0  0  0  0  0  0  0  0  0  0  # atno 10718 bound_to 10713
  152.9824  135.6039  154.3436 H   0  0  0  0  0  0  0  0  0  0  0  0  # atno 10763 bound_to 10752
  154.3131  135.2771  155.2558 H   0  0  0  0  0  0  0  0  0  0  0  0  # atno 10764 bound_to 10752
  154.4758  135.5930  153.6410 H   0  0  0  0  0  0  0  0  0  0  0  0  # atno 10765 bound_to 10752
  140.0577  134.5647  155.9188 H   0  0  0  0  0  0  0  0  0  0  0  0  # atno 11005 bound_to 11000
  146.3435  140.2130  142.8590 LP  0  0  0  0  0  0  0  0  0  0  0  0  # atno 17320 bound_to 7965
  145.0036  140.8653  143.5266 LP  0  0  0  0  0  0  0  0  0  0  0  0  # atno 17321 bound_to 7965
  139.4808  144.5944  151.7716 LP  0  0  0  0  0  0  0  0  0  0  0  0  # atno 17342 bound_to 10162
  140.5074  144.1077  150.5986 LP  0  0  0  0  0  0  0  0  0  0  0  0  # atno 17343 bound_to 10162
  157.2112  131.0461  151.2598 LP  0  0  0  0  0  0  0  0  0  0  0  0  # atno 17370 bound_to 10713
  157.3887  130.7270  149.6682 LP  0  0  0  0  0  0  0  0  0  0  0  0  # atno 17371 bound_to 10713
  141.1959  133.6589  156.5667 LP  0  0  0  0  0  0  0  0  0  0  0  0  # atno 17394 bound_to 11000
  140.3818  134.7516  157.4666 LP  0  0  0  0  0  0  0  0  0  0  0  0  # atno 17395 bound_to 11000

$$$$
