AV-unprocessed.smi:1464|AV-procd|sdf|5947|dock4
  -GOLD-   22720 6 33D 1   1.00000     0.00000
 Structure written by MMmdl.
 41 42  0  0  0  0  0  0  0  0  1 V2000
  152.3057  144.0333  160.7705 C   0  0  0  0  0  0  0  0  0  0  0  0
  152.8814  143.5484  159.4240 C   0  0  2  0  0  0  0  0  0  0  0  0
  152.0464  144.0589  158.2322 C   0  0  0  0  0  0  0  0  0  0  0  0
  150.6966  143.3339  158.1166 C   0  0  0  0  0  0  0  0  0  0  0  0
  150.8907  141.8143  158.0264 C   0  0  0  0  0  0  0  0  0  0  0  0
  151.7182  141.2664  159.2053 C   0  0  1  0  0  0  0  0  0  0  0  0
  151.9270  139.8339  158.9985 N   0  0  0  0  0  0  0  0  0  0  0  0
  152.2775  139.2445  157.8446 C   0  0  0  0  0  0  0  0  0  0  0  0
  152.4473  139.8603  156.7912 O   0  0  0  0  0  0  0  0  0  0  0  0
  152.4308  137.7175  157.8955 C   0  0  0  0  0  0  0  0  0  0  0  0
  151.1678  137.0113  158.1542 N   0  0  0  0  0  0  0  0  0  0  0  0
  150.5593  137.3581  159.3509 N   0  0  0  0  0  0  0  0  0  0  0  0
  149.4394  136.8122  159.6862 C   0  0  0  0  0  0  0  0  0  0  0  0
  148.8701  137.1868  160.8782 O   0  0  0  0  0  0  0  0  0  0  0  0
  148.7989  135.8339  158.8354 C   0  0  0  0  0  0  0  0  0  0  0  0
  149.4010  135.4999  157.6731 C   0  0  0  0  0  0  0  0  0  0  0  0
  150.6714  136.1001  157.2617 C   0  0  0  0  0  0  0  0  0  0  0  0
  151.2433  135.8136  156.2101 O   0  0  0  0  0  0  0  0  0  0  0  0
  153.0742  142.0106  159.3328 C   0  0  2  0  0  0  0  0  0  0  0  0
  153.9622  141.4645  160.4687 C   0  0  0  0  0  0  0  0  0  0  0  0
  148.6475  136.3789  161.3144 H   0  0  0  0  0  0  0  0  0  0  0  0
  151.3366  143.5863  160.9900 H   0  0  0  0  0  0  0  0  0  0  0  0
  152.1735  145.1153  160.7691 H   0  0  0  0  0  0  0  0  0  0  0  0
  152.9727  143.7980  161.5995 H   0  0  0  0  0  0  0  0  0  0  0  0
  153.8678  144.0055  159.3336 H   0  0  0  0  0  0  0  0  0  0  0  0
  151.8862  145.1344  158.3149 H   0  0  0  0  0  0  0  0  0  0  0  0
  152.6093  143.9091  157.3100 H   0  0  0  0  0  0  0  0  0  0  0  0
  150.0671  143.5749  158.9735 H   0  0  0  0  0  0  0  0  0  0  0  0
  150.1615  143.6898  157.2359 H   0  0  0  0  0  0  0  0  0  0  0  0
  149.9171  141.3234  157.9943 H   0  0  0  0  0  0  0  0  0  0  0  0
  151.3869  141.5736  157.0850 H   0  0  0  0  0  0  0  0  0  0  0  0
  151.1439  141.4282  160.1187 H   0  0  0  0  0  0  0  0  0  0  0  0
  151.8019  139.2412  159.8063 H   0  0  0  0  0  0  0  0  0  0  0  0
  152.8690  137.3627  156.9606 H   0  0  0  0  0  0  0  0  0  0  0  0
  153.1622  137.4792  158.6699 H   0  0  0  0  0  0  0  0  0  0  0  0
  147.8615  135.3864  159.1312 H   0  0  0  0  0  0  0  0  0  0  0  0
  148.9338  134.7707  157.0279 H   0  0  0  0  0  0  0  0  0  0  0  0
  153.6238  141.8274  158.4078 H   0  0  0  0  0  0  0  0  0  0  0  0
  153.4411  141.4771  161.4262 H   0  0  0  0  0  0  0  0  0  0  0  0
  154.8733  142.0538  160.5741 H   0  0  0  0  0  0  0  0  0  0  0  0
  154.2673  140.4356  160.2773 H   0  0  0  0  0  0  0  0  0  0  0  0
  1  2  1  0  0  0  0
  1 22  1  0  0  0  0
  1 23  1  0  0  0  0
  1 24  1  0  0  0  0
  2 19  1  0  0  0  0
  2  3  1  0  0  0  0
  2 25  1  0  0  0  0
  3  4  1  0  0  0  0
  3 26  1  0  0  0  0
  3 27  1  0  0  0  0
  4  5  1  0  0  0  0
  4 28  1  0  0  0  0
  4 29  1  0  0  0  0
  5  6  1  0  0  0  0
  5 30  1  0  0  0  0
  5 31  1  0  0  0  0
  6  7  1  0  0  0  0
  6 19  1  0  0  0  0
  6 32  1  0  0  0  0
  7  8  1  0  0  0  0
  7 33  1  0  0  0  0
  8  9  2  0  0  0  0
  8 10  1  0  0  0  0
 10 34  1  0  0  0  0
 10 35  1  0  0  0  0
 10 11  1  0  0  0  0
 11 12  1  0  0  0  0
 11 17  1  0  0  0  0
 12 13  2  0  0  0  0
 13 14  1  0  0  0  0
 13 15  1  0  0  0  0
 14 21  1  0  0  0  0
 15 36  1  0  0  0  0
 15 16  2  0  0  0  0
 16 37  1  0  0  0  0
 16 17  1  0  0  0  0
 17 18  2  0  0  0  0
 19 20  1  0  0  0  0
 19 38  1  0  0  0  0
 20 39  1  0  0  0  0
 20 40  1  0  0  0  0
 20 41  1  0  0  0  0
M  END
> <s_m_source_file>
AV-unprocessed.smi

> <i_m_source_file_index>
1464

> <i_lp_mmshare_version>
43012

> <i_f3d_flags>
0

> <s_epik_input>
W0NIM11bQ0BASF0xW0NIMl1bQ0gyXVtDSDJdW0NASF0oW0NASF0xW0NIM10pW05IXUMoPU8pW0NIMl1uMltuSF1jKD1PKVtjSF1bY0hdYzI9Tw==

> <s_epik_cmdline>
J2VwaWtfcHl0aG9uJywgJy1waCcsICc3LjAnLCAnLXRuJywgJzgnLCAnLW1hJywgJzIwMCcsICctbWV0YWxfYmluZGluZycsICctaW1hZScsICc8aW5maWxlLm1hZT4nLCAnLW9tYWUnLCAnPG91dGZpbGUubWFlPic=

> <r_lp_tautomer_probability>
0.9996

> <r_epik_Ionization_Penalty>
2.10335

> <r_epik_Ionization_Penalty_Charging>
3.98079e-08

> <r_epik_Ionization_Penalty_Neutral>
2.10335

> <r_epik_State_Penalty>
1.67957

> <r_epik_Charging_Adjusted_Penalty>
1.67957

> <i_epik_Tot_Q>
0

> <i_epik_Tot_abs_Q>
0

> <r_epik_Metal_State_Penalty>
1.67957

> <b_epik_Metal_Only>
0

> <s_lp_Force_Field>
OPLS_2005

> <r_lp_Energy>
25.8074

> <b_lp_Chiralities_Consistent>
1

> <s_lp_Variant>
AV-unprocessed.smi:1464-13

> <Gold.Version>
5.8.1

> <Gold.Id.Protein>
6NUR|6NUR_protein|mol2

> <Gold.PLP.Fitness>
44.9387

> <Gold.PLP.PLP>
-37.1011

> <Gold.PLP.part.hbond>
-4.0000

> <Gold.PLP.part.metal>
0.0000

> <Gold.PLP.part.buried>
-3.9116

> <Gold.PLP.part.nonpolar>
-28.9807

> <Gold.PLP.part.repulsive>
0.1609

> <Gold.PLP.ligand.clash>
0.0000

> <Gold.PLP.ligand.torsion>
0.2630

> <Gold.PLP.Chemscore.Hbond>
2.7848

> <Gold.PLP.Chemscore.CHOScore>
0.0000

> <Gold.PLP.Chemscore.Metal>
0.0000

> <Gold.Chemscore.Hbonds>
donor molecule, donor type, donor heavy atom, donor atom, acceptor molecule, acceptor atom, score
      P1  H  6931  6943       L1    14  0.70
      P1  H  7997  8009       L1     9  1.00
      P1  H 10752 10765       L1    18  0.36

> <Gold.PLP.Chemscore.Internal.Correction>
0.0092

> <Gold.Rescore>
     Score         DG    S(hbond)    S(metal)    S(lipo)     H(rot)  DE(clash)    DE(int)     intcor
     17.46     -20.03       2.87        0.00      91.17       2.22       0.00       2.57       ----

> <Gold.Chemscore.Fitness>
17.4582

> <Gold.Chemscore.DG>
-20.0283

> <Gold.Chemscore.ZeroCoef>
-5.4800

> <Gold.Chemscore.Hbond>
2.8655

> <Gold.Chemscore.Metal>
0.0000

> <Gold.Chemscore.Lipo>
91.1712

> <Gold.Chemscore.Internal_Hbond>
0.0000

> <Gold.Chemscore.DEClash>
0.0000

> <Gold.Chemscore.DEInternal>
2.5701

> <Gold.Chemscore.Rot>
2.2224

> <Gold.Chemscore.Internal.Correction>
   9.000000E+99

> <Gold.Chemscore.Hbonds>
donor molecule, donor type, donor heavy atom, donor atom, acceptor molecule, acceptor atom, score
      P1  H  6931  6943       L1    14  0.51
      P1  H  6934  6947       L1    14  0.01
      P1  H  7997  8009       L1     9  0.78
      P1  H 10752 10765       L1    18  0.37

> <Gold.Chemscore.Hbond.Weighted>
-9.5706

> <Gold.Chemscore.Metal.Weighted>
-0.0000

> <Gold.Chemscore.Lipo.Weighted>
-10.6670

> <Gold.Chemscore.Internal_Hbond.Weighted>
0.0000

> <Gold.Chemscore.DEClash.Weighted>
0.0000

> <Gold.Chemscore.DEInternal.Weighted>
2.5701

> <Gold.Chemscore.Rot.Weighted>
5.6893

> <Gold.Chemscore.Internal.Correction.Weighted>
   9.000000E+99

> <Gold.Protein.RotatedTorsions>
[ 6907 6896 6895 6894 ] final  102.33 input  -60.11 | X-H torsion
[ 7974 7965 7964 7962 ] final  -26.33 input  175.53 | X-H torsion
[ 8008 7997 7996 7995 ] final -168.06 input   59.86 | X-H torsion
[ 10167 10162 10161 10158 ] final  127.19 input  -65.29 | X-H torsion
[ 10718 10713 10712 10709 ] final  -52.73 input   66.30 | X-H torsion
[ 10763 10752 10751 10750 ] final -141.61 input  -60.55 | X-H torsion
[ 11005 11000 10999 10996 ] final  119.86 input  -57.11 | X-H torsion

> <Gold.Protein.ActiveResidues>
 VAL166  LYS551  ARG553  GLY616  TRP617  ASP618  TYR619  PRO620  LYS621  CYS622 
 ASP623  PHE694  ASN695  SER759  ASP760  ASP761  ALA762  ILE779  LEU786  VAL792 
 PHE793  MET794  SER795  GLU796  ALA797  LYS798  CYS799  TRP800  GLU811  SER814 

> <Gold.Protein.RotatedAtoms>
  152.5326  133.9991  159.7886 H   0  0  0  0  0  0  0  0  0  0  0  0  # atno 6907 bound_to 6896
  151.0213  133.5866  159.2678 H   0  0  0  0  0  0  0  0  0  0  0  0  # atno 6908 bound_to 6896
  151.2904  135.0747  159.9255 H   0  0  0  0  0  0  0  0  0  0  0  0  # atno 6909 bound_to 6896
  146.1432  140.5005  142.8643 H   0  0  0  0  0  0  0  0  0  0  0  0  # atno 7974 bound_to 7965
  155.8863  140.1017  157.1450 H   0  0  0  0  0  0  0  0  0  0  0  0  # atno 8008 bound_to 7997
  154.4010  140.1319  156.4323 H   0  0  0  0  0  0  0  0  0  0  0  0  # atno 8009 bound_to 7997
  155.7585  140.3463  155.5188 H   0  0  0  0  0  0  0  0  0  0  0  0  # atno 8010 bound_to 7997
  139.5591  144.6869  151.4095 H   0  0  0  0  0  0  0  0  0  0  0  0  # atno 10167 bound_to 10162
  156.1596  130.4150  149.9814 H   0  0  0  0  0  0  0  0  0  0  0  0  # atno 10718 bound_to 10713
  154.8539  135.3519  154.5895 H   0  0  0  0  0  0  0  0  0  0  0  0  # atno 10763 bound_to 10752
  153.6505  135.6994  153.5215 H   0  0  0  0  0  0  0  0  0  0  0  0  # atno 10764 bound_to 10752
  153.2898  135.4238  155.1114 H   0  0  0  0  0  0  0  0  0  0  0  0  # atno 10765 bound_to 10752
  139.9162  134.9631  156.7719 H   0  0  0  0  0  0  0  0  0  0  0  0  # atno 11005 bound_to 11000
  144.7817  140.5853  143.6601 LP  0  0  0  0  0  0  0  0  0  0  0  0  # atno 17320 bound_to 7965
  145.4997  139.1484  143.3664 LP  0  0  0  0  0  0  0  0  0  0  0  0  # atno 17321 bound_to 7965
  140.6868  143.7954  150.7198 LP  0  0  0  0  0  0  0  0  0  0  0  0  # atno 17342 bound_to 10162
  140.1425  143.4429  152.2184 LP  0  0  0  0  0  0  0  0  0  0  0  0  # atno 17343 bound_to 10162
  156.7647  130.9164  151.3642 LP  0  0  0  0  0  0  0  0  0  0  0  0  # atno 17370 bound_to 10713
  157.6722  130.9061  150.0067 LP  0  0  0  0  0  0  0  0  0  0  0  0  # atno 17371 bound_to 10713
  140.6614  133.9642  155.7807 LP  0  0  0  0  0  0  0  0  0  0  0  0  # atno 17394 bound_to 11000
  141.0641  134.0303  157.3619 LP  0  0  0  0  0  0  0  0  0  0  0  0  # atno 17395 bound_to 11000

$$$$
