AV-unprocessed.smi:1613|AV-procd|sdf|6479|dock5
  -GOLD-   22720 7143D 1   1.00000     0.00000
 Structure written by MMmdl.
 53 55  0  0  0  0  0  0  0  0  2 V2000
  146.5857  139.3875  152.4685 O   0  0  0  0  0  0  0  0  0  0  0  0
  146.5389  138.9573  153.6197 C   0  0  0  0  0  0  0  0  0  0  0  0
  146.5528  137.4378  153.8646 C   0  0  0  0  0  0  0  0  0  0  0  0
  145.4883  136.6958  153.1612 N   0  0  0  0  0  0  0  0  0  0  0  0
  145.7645  136.2428  151.8599 C   0  0  0  0  0  0  0  0  0  0  0  0
  144.8373  135.5850  151.1489 C   0  0  0  0  0  0  0  0  0  0  0  0
  143.5402  135.3729  151.8045 C   0  0  0  0  0  0  0  0  0  0  0  0
  143.2860  135.7834  152.9903 N   0  0  0  0  0  0  0  0  0  0  0  0
  144.2611  136.4708  153.7364 C   0  0  0  0  0  0  0  0  0  0  0  0
  144.0190  136.8758  154.8735 O   0  0  0  0  0  0  0  0  0  0  0  0
  146.5026  139.7570  154.6975 N   0  0  0  0  0  0  0  0  0  0  0  0
  146.6071  141.2128  154.7091 C   0  0  2  0  0  0  0  0  0  0  0  0
  147.8442  141.6914  153.9228 C   0  0  0  0  0  0  0  0  0  0  0  0
  149.1522  141.2361  154.5949 C   0  0  0  0  0  0  0  0  0  0  0  0
  149.2165  141.6909  156.0078 N   0  3  2  0  0  0  0  0  0  0  0  0
  150.5227  141.4399  156.6745 C   0  0  0  0  0  0  0  0  0  0  0  0
  150.8704  142.4154  157.8317 C   0  0  0  0  0  0  0  0  0  0  0  0
  151.4527  143.7356  157.2850 C   0  0  0  0  0  0  0  0  0  0  0  0
  151.7970  144.7195  158.4148 C   0  0  0  0  0  0  0  0  0  0  0  0
  152.7716  144.0912  159.4214 C   0  0  0  0  0  0  0  0  0  0  0  0
  152.2178  142.7704  159.9745 C   0  0  0  0  0  0  0  0  0  0  0  0
  151.8649  141.7945  158.8401 C   0  0  0  0  0  0  0  0  0  0  0  0
  148.0430  141.2582  156.8133 C   0  0  0  0  0  0  0  0  0  0  0  0
  146.7211  141.7086  156.1611 C   0  0  0  0  0  0  0  0  0  0  0  0
  147.5343  137.0589  153.5760 H   0  0  0  0  0  0  0  0  0  0  0  0
  146.4836  137.2576  154.9390 H   0  0  0  0  0  0  0  0  0  0  0  0
  146.7538  136.4658  151.4873 H   0  0  0  0  0  0  0  0  0  0  0  0
  144.9828  135.2123  150.1459 H   0  0  0  0  0  0  0  0  0  0  0  0
  142.7968  134.8369  151.2090 H   0  0  0  0  0  0  0  0  0  0  0  0
  146.4484  139.3037  155.5983 H   0  0  0  0  0  0  0  0  0  0  0  0
  145.7042  141.6307  154.2606 H   0  0  0  0  0  0  0  0  0  0  0  0
  147.8097  141.3306  152.8942 H   0  0  0  0  0  0  0  0  0  0  0  0
  147.8319  142.7801  153.8595 H   0  0  0  0  0  0  0  0  0  0  0  0
  149.2277  140.1499  154.5477 H   0  0  0  0  0  0  0  0  0  0  0  0
  150.0031  141.6391  154.0448 H   0  0  0  0  0  0  0  0  0  0  0  0
  150.5417  140.4098  157.0322 H   0  0  0  0  0  0  0  0  0  0  0  0
  151.2916  141.4834  155.9019 H   0  0  0  0  0  0  0  0  0  0  0  0
  149.9633  142.6774  158.3746 H   0  0  0  0  0  0  0  0  0  0  0  0
  152.3477  143.5294  156.6965 H   0  0  0  0  0  0  0  0  0  0  0  0
  150.7388  144.2050  156.6072 H   0  0  0  0  0  0  0  0  0  0  0  0
  152.2306  145.6286  157.9969 H   0  0  0  0  0  0  0  0  0  0  0  0
  150.8840  145.0216  158.9286 H   0  0  0  0  0  0  0  0  0  0  0  0
  153.7320  143.9109  158.9370 H   0  0  0  0  0  0  0  0  0  0  0  0
  152.9629  144.7869  160.2389 H   0  0  0  0  0  0  0  0  0  0  0  0
  152.9483  142.3137  160.6430 H   0  0  0  0  0  0  0  0  0  0  0  0
  151.3325  142.9692  160.5782 H   0  0  0  0  0  0  0  0  0  0  0  0
  151.4587  140.8816  159.2731 H   0  0  0  0  0  0  0  0  0  0  0  0
  152.7802  141.5035  158.3226 H   0  0  0  0  0  0  0  0  0  0  0  0
  148.0441  140.1751  156.9364 H   0  0  0  0  0  0  0  0  0  0  0  0
  148.1122  141.6845  157.8147 H   0  0  0  0  0  0  0  0  0  0  0  0
  146.6638  142.7977  156.1765 H   0  0  0  0  0  0  0  0  0  0  0  0
  145.8747  141.3524  156.7497 H   0  0  0  0  0  0  0  0  0  0  0  0
  149.1417  142.6972  155.9623 H   0  0  0  0  0  0  0  0  0  0  0  0
  1  2  2  0  0  0  0
  2  3  1  0  0  0  0
  2 11  1  0  0  0  0
  3  4  1  0  0  0  0
  3 25  1  0  0  0  0
  3 26  1  0  0  0  0
  4  9  1  0  0  0  0
  4  5  1  0  0  0  0
  5  6  2  0  0  0  0
  5 27  1  0  0  0  0
  6  7  1  0  0  0  0
  6 28  1  0  0  0  0
  7  8  2  0  0  0  0
  7 29  1  0  0  0  0
  8  9  1  0  0  0  0
  9 10  2  0  0  0  0
 11 12  1  0  0  0  0
 11 30  1  0  0  0  0
 12 24  1  0  0  0  0
 12 13  1  0  0  0  0
 12 31  1  0  0  0  0
 13 14  1  0  0  0  0
 13 32  1  0  0  0  0
 13 33  1  0  0  0  0
 14 15  1  0  0  0  0
 14 34  1  0  0  0  0
 14 35  1  0  0  0  0
 15 16  1  0  0  0  0
 15 23  1  0  0  0  0
 15 53  1  0  0  0  0
 16 17  1  0  0  0  0
 16 36  1  0  0  0  0
 16 37  1  0  0  0  0
 17 22  1  0  0  0  0
 17 18  1  0  0  0  0
 17 38  1  0  0  0  0
 18 19  1  0  0  0  0
 18 39  1  0  0  0  0
 18 40  1  0  0  0  0
 19 20  1  0  0  0  0
 19 41  1  0  0  0  0
 19 42  1  0  0  0  0
 20 21  1  0  0  0  0
 20 43  1  0  0  0  0
 20 44  1  0  0  0  0
 21 22  1  0  0  0  0
 21 45  1  0  0  0  0
 21 46  1  0  0  0  0
 22 47  1  0  0  0  0
 22 48  1  0  0  0  0
 23 24  1  0  0  0  0
 23 49  1  0  0  0  0
 23 50  1  0  0  0  0
 24 51  1  0  0  0  0
 24 52  1  0  0  0  0
M  CHG  1  15   1
M  END
> <s_m_source_file>
AV-unprocessed.smi

> <i_m_source_file_index>
1613

> <i_lp_mmshare_version>
43012

> <i_f3d_flags>
0

> <s_epik_input>
Tz1jMW5bY0hdW2NIXVtjSF1uMVtDSDJdQyg9TylbTkhdW0NIXTJbQ0gyXVtDSDJdTihbQ0gyXVtDSDJdMilbQ0gyXVtDSF0zW0NIMl1bQ0gyXVtDSDJdW0NIMl1bQ0gyXTM=

> <s_epik_cmdline>
J2VwaWtfcHl0aG9uJywgJy1waCcsICc3LjAnLCAnLXRuJywgJzgnLCAnLW1hJywgJzIwMCcsICctbWV0YWxfYmluZGluZycsICctaW1hZScsICc8aW5maWxlLm1hZT4nLCAnLW9tYWUnLCAnPG91dGZpbGUubWFlPic=

> <r_lp_tautomer_probability>
1

> <r_epik_Ionization_Penalty>
0.00530026

> <r_epik_Ionization_Penalty_Charging>
0.00529416

> <r_epik_Ionization_Penalty_Neutral>
6.10215e-06

> <r_epik_State_Penalty>
0.00386377

> <r_epik_Charging_Adjusted_Penalty>
0.00915793

> <i_epik_Tot_Q>
1

> <i_epik_Tot_abs_Q>
1

> <r_epik_Metal_State_Penalty>
-0

> <b_epik_Metal_Only>
0

> <s_lp_Force_Field>
OPLS_2005

> <r_lp_Energy>
26.8521

> <b_lp_Chiralities_Consistent>
1

> <s_lp_Variant>
AV-unprocessed.smi:1613-2

> <Gold.Version>
5.8.1

> <Gold.Id.Protein>
6NUR|6NUR_protein|mol2

> <Gold.PLP.Fitness>
50.7072

> <Gold.PLP.PLP>
-41.0282

> <Gold.PLP.part.hbond>
-1.0000

> <Gold.PLP.part.metal>
0.0000

> <Gold.PLP.part.buried>
-1.9295

> <Gold.PLP.part.nonpolar>
-38.8396

> <Gold.PLP.part.repulsive>
0.7637

> <Gold.PLP.ligand.clash>
0.0000

> <Gold.PLP.ligand.torsion>
0.9185

> <Gold.PLP.Chemscore.Hbond>
2.0000

> <Gold.PLP.Chemscore.CHOScore>
1.8082

> <Gold.PLP.Chemscore.Metal>
0.0000

> <Gold.Chemscore.Hbonds>
donor molecule, donor type, donor heavy atom, donor atom, acceptor molecule, acceptor atom, score
      L1  H    15    53       P1  8028  1.85
      L1  C     5    27       P1  7948  1.00
      L1  C     7    29       P1 10186  0.47

> <Gold.PLP.Chemscore.Internal.Correction>
0.0913

> <Gold.Rescore>
     Score         DG    S(hbond)    S(metal)    S(lipo)     H(rot)  DE(clash)    DE(int)     intcor
     16.71     -18.39       1.00        0.00     122.09       1.84       0.79       0.89       ----

> <Gold.Chemscore.Fitness>
16.7089

> <Gold.Chemscore.DG>
-18.3891

> <Gold.Chemscore.ZeroCoef>
-5.4800

> <Gold.Chemscore.Hbond>
0.9998

> <Gold.Chemscore.Metal>
0.0000

> <Gold.Chemscore.Lipo>
122.0895

> <Gold.Chemscore.Internal_Hbond>
0.0000

> <Gold.Chemscore.DEClash>
0.7886

> <Gold.Chemscore.DEInternal>
0.8916

> <Gold.Chemscore.Rot>
1.8417

> <Gold.Chemscore.Internal.Correction>
   9.000000E+99

> <Gold.Chemscore.Hbonds>
donor molecule, donor type, donor heavy atom, donor atom, acceptor molecule, acceptor atom, score
      L1  H    15    53       P1  8028  0.89

> <Gold.Chemscore.Hbond.Weighted>
-3.3393

> <Gold.Chemscore.Metal.Weighted>
-0.0000

> <Gold.Chemscore.Lipo.Weighted>
-14.2845

> <Gold.Chemscore.Internal_Hbond.Weighted>
0.0000

> <Gold.Chemscore.DEClash.Weighted>
0.7886

> <Gold.Chemscore.DEInternal.Weighted>
0.8916

> <Gold.Chemscore.Rot.Weighted>
4.7147

> <Gold.Chemscore.Internal.Correction.Weighted>
   9.000000E+99

> <Gold.Protein.RotatedTorsions>
[ 6907 6896 6895 6894 ] final -127.56 input  -60.11 | X-H torsion
[ 7974 7965 7964 7962 ] final  -55.00 input  175.53 | X-H torsion
[ 8008 7997 7996 7995 ] final  -80.47 input   59.86 | X-H torsion
[ 10167 10162 10161 10158 ] final  -35.80 input  -65.29 | X-H torsion
[ 10718 10713 10712 10709 ] final  -30.05 input   66.30 | X-H torsion
[ 10763 10752 10751 10750 ] final  -23.74 input  -60.55 | X-H torsion
[ 11005 11000 10999 10996 ] final  131.03 input  -57.11 | X-H torsion

> <Gold.Protein.ActiveResidues>
 VAL166  LYS551  ARG553  GLY616  TRP617  ASP618  TYR619  PRO620  LYS621  CYS622 
 ASP623  PHE694  ASN695  SER759  ASP760  ASP761  ALA762  ILE779  LEU786  VAL792 
 PHE793  MET794  SER795  GLU796  ALA797  LYS798  CYS799  TRP800  GLU811  SER814 

> <Gold.Protein.RotatedAtoms>
  150.9086  133.7026  159.2860 H   0  0  0  0  0  0  0  0  0  0  0  0  # atno 6907 bound_to 6896
  151.4521  135.1029  159.9710 H   0  0  0  0  0  0  0  0  0  0  0  0  # atno 6908 bound_to 6896
  152.4917  133.8469  159.7237 H   0  0  0  0  0  0  0  0  0  0  0  0  # atno 6909 bound_to 6896
  145.8792  140.8158  142.9849 H   0  0  0  0  0  0  0  0  0  0  0  0  # atno 7974 bound_to 7965
  154.5887  140.0662  156.9208 H   0  0  0  0  0  0  0  0  0  0  0  0  # atno 8008 bound_to 7997
  155.2334  140.3339  155.4282 H   0  0  0  0  0  0  0  0  0  0  0  0  # atno 8009 bound_to 7997
  156.2240  140.1811  156.7391 H   0  0  0  0  0  0  0  0  0  0  0  0  # atno 8010 bound_to 7997
  140.7157  143.3452  151.2271 H   0  0  0  0  0  0  0  0  0  0  0  0  # atno 10167 bound_to 10162
  156.4047  130.4397  149.7296 H   0  0  0  0  0  0  0  0  0  0  0  0  # atno 10718 bound_to 10713
  153.6726  135.6971  153.5142 H   0  0  0  0  0  0  0  0  0  0  0  0  # atno 10763 bound_to 10752
  153.2546  135.4264  155.0831 H   0  0  0  0  0  0  0  0  0  0  0  0  # atno 10764 bound_to 10752
  154.8422  135.3540  154.6270 H   0  0  0  0  0  0  0  0  0  0  0  0  # atno 10765 bound_to 10752
  139.9706  134.9578  156.9379 H   0  0  0  0  0  0  0  0  0  0  0  0  # atno 11005 bound_to 11000
  144.6727  140.1357  143.7440 LP  0  0  0  0  0  0  0  0  0  0  0  0  # atno 17320 bound_to 7965
  145.9044  139.2450  143.1474 LP  0  0  0  0  0  0  0  0  0  0  0  0  # atno 17321 bound_to 7965
  139.6970  143.9596  152.2887 LP  0  0  0  0  0  0  0  0  0  0  0  0  # atno 17342 bound_to 10162
  139.9277  144.6761  150.8395 LP  0  0  0  0  0  0  0  0  0  0  0  0  # atno 17343 bound_to 10162
  156.4299  130.7810  151.2829 LP  0  0  0  0  0  0  0  0  0  0  0  0  # atno 17370 bound_to 10713
  157.7505  131.0157  150.3515 LP  0  0  0  0  0  0  0  0  0  0  0  0  # atno 17371 bound_to 10713
  140.5302  134.0821  155.7314 LP  0  0  0  0  0  0  0  0  0  0  0  0  # atno 17394 bound_to 11000
  141.1386  133.9179  157.2378 LP  0  0  0  0  0  0  0  0  0  0  0  0  # atno 17395 bound_to 11000

$$$$
