AV-unprocessed.smi:1843|AV-procd|sdf|7504|dock7
  -GOLD-   22720 9203D 1   1.00000     0.00000
 Structure written by MMmdl.
 36 38  0  0  0  0  0  0  0  0  2 V2000
  149.4874  140.6212  156.3914 O   0  0  0  0  0  0  0  0  0  0  0  0
  150.6565  140.6023  155.9994 C   0  0  0  0  0  0  0  0  0  0  0  0
  151.1460  139.8659  154.9760 N   0  5  0  0  0  0  0  0  0  0  0  0
  150.9411  138.5386  154.9448 C   0  0  0  0  0  0  0  0  0  0  0  0
  151.8945  137.6734  154.5718 N   0  0  0  0  0  0  0  0  0  0  0  0
  151.4764  136.3514  154.6135 N   0  0  0  0  0  0  0  0  0  0  0  0
  150.2121  136.2356  155.0264 C   0  0  0  0  0  0  0  0  0  0  0  0
  149.5315  134.9136  155.1537 C   0  0  0  0  0  0  0  0  0  0  0  0
  150.3330  133.6326  155.1770 C   0  0  0  0  0  0  0  0  0  0  0  0
  149.4544  133.9459  153.9930 C   0  0  0  0  0  0  0  0  0  0  0  0
  149.4278  137.7605  155.4072 S   0  0  0  0  0  0  0  0  0  0  0  0
  151.5789  141.3632  156.6056 N   0  0  0  0  0  0  0  0  0  0  0  0
  151.3508  142.2510  157.7445 C   0  0  2  0  0  0  0  0  0  0  0  0
  151.6200  143.7091  157.3093 C   0  0  0  0  0  0  0  0  0  0  0  0
  151.5528  144.6904  158.4883 C   0  0  0  0  0  0  0  0  0  0  0  0
  152.5241  144.2767  159.6013 C   0  0  0  0  0  0  0  0  0  0  0  0
  152.2267  142.8476  160.0743 C   0  0  0  0  0  0  0  0  0  0  0  0
  152.2790  141.8384  158.9112 C   0  0  1  0  0  0  0  0  0  0  0  0
  151.8740  140.5837  159.4218 O   0  0  0  0  0  0  0  0  0  0  0  0
  148.6686  134.9879  155.8125 H   0  0  0  0  0  0  0  0  0  0  0  0
  151.4095  133.7070  155.0357 H   0  0  0  0  0  0  0  0  0  0  0  0
  150.0043  132.8485  155.8559 H   0  0  0  0  0  0  0  0  0  0  0  0
  148.5385  133.3695  153.8809 H   0  0  0  0  0  0  0  0  0  0  0  0
  149.9509  134.2160  153.0632 H   0  0  0  0  0  0  0  0  0  0  0  0
  152.5234  141.3116  156.2533 H   0  0  0  0  0  0  0  0  0  0  0  0
  150.3140  142.1703  158.0775 H   0  0  0  0  0  0  0  0  0  0  0  0
  152.6062  143.7775  156.8473 H   0  0  0  0  0  0  0  0  0  0  0  0
  150.9032  144.0106  156.5446 H   0  0  0  0  0  0  0  0  0  0  0  0
  151.7862  145.6988  158.1459 H   0  0  0  0  0  0  0  0  0  0  0  0
  150.5355  144.7235  158.8804 H   0  0  0  0  0  0  0  0  0  0  0  0
  153.5510  144.3397  159.2385 H   0  0  0  0  0  0  0  0  0  0  0  0
  152.4472  144.9698  160.4396 H   0  0  0  0  0  0  0  0  0  0  0  0
  152.9385  142.5614  160.8495 H   0  0  0  0  0  0  0  0  0  0  0  0
  151.2396  142.8255  160.5388 H   0  0  0  0  0  0  0  0  0  0  0  0
  153.3076  141.7548  158.5568 H   0  0  0  0  0  0  0  0  0  0  0  0
  152.5987  140.2058  159.8961 H   0  0  0  0  0  0  0  0  0  0  0  0
  1  2  2  0  0  0  0
  2  3  1  0  0  0  0
  2 12  1  0  0  0  0
  3  4  1  0  0  0  0
  4 11  1  0  0  0  0
  4  5  2  0  0  0  0
  5  6  1  0  0  0  0
  6  7  2  0  0  0  0
  7  8  1  0  0  0  0
  7 11  1  0  0  0  0
  8 10  1  0  0  0  0
  8  9  1  0  0  0  0
  8 20  1  0  0  0  0
  9 10  1  0  0  0  0
  9 21  1  0  0  0  0
  9 22  1  0  0  0  0
 10 23  1  0  0  0  0
 10 24  1  0  0  0  0
 12 13  1  0  0  0  0
 12 25  1  0  0  0  0
 13 18  1  0  0  0  0
 13 14  1  0  0  0  0
 13 26  1  0  0  0  0
 14 15  1  0  0  0  0
 14 27  1  0  0  0  0
 14 28  1  0  0  0  0
 15 16  1  0  0  0  0
 15 29  1  0  0  0  0
 15 30  1  0  0  0  0
 16 17  1  0  0  0  0
 16 31  1  0  0  0  0
 16 32  1  0  0  0  0
 17 18  1  0  0  0  0
 17 33  1  0  0  0  0
 17 34  1  0  0  0  0
 18 19  1  0  0  0  0
 18 35  1  0  0  0  0
 19 36  1  0  0  0  0
M  CHG  1   3  -1
M  END
> <s_m_source_file>
AV-unprocessed.smi

> <i_m_source_file_index>
1843

> <i_lp_mmshare_version>
43012

> <i_f3d_flags>
0

> <s_epik_input>
W09IXVtDQEBIXTFbQ0gyXVtDSDJdW0NIMl1bQ0gyXVtDQEhdMVtOSF1DKD1PKVtOSF1jMm5uYyhzMilbQ0hdM1tDSDJdW0NIMl0z

> <s_epik_cmdline>
J2VwaWtfcHl0aG9uJywgJy1waCcsICc3LjAnLCAnLXRuJywgJzgnLCAnLW1hJywgJzIwMCcsICctbWV0YWxfYmluZGluZycsICctaW1hZScsICc8aW5maWxlLm1hZT4nLCAnLW9tYWUnLCAnPG91dGZpbGUubWFlPic=

> <r_lp_tautomer_probability>
1

> <r_epik_Ionization_Penalty>
4.7996

> <r_epik_Ionization_Penalty_Charging>
4.64516

> <r_epik_Ionization_Penalty_Neutral>
0.154442

> <r_epik_State_Penalty>
4.64493

> <r_epik_Charging_Adjusted_Penalty>
9.29009

> <i_epik_Tot_Q>
-1

> <i_epik_Tot_abs_Q>
1

> <r_epik_Metal_State_Penalty>
0.896144

> <b_epik_Metal_Only>
1

> <s_lp_Force_Field>
OPLS_2005

> <r_lp_Energy>
6.98885

> <b_lp_Chiralities_Consistent>
1

> <s_lp_Variant>
AV-unprocessed.smi:1843-5

> <Gold.Version>
5.8.1

> <Gold.Id.Protein>
6NUR|6NUR_protein|mol2

> <Gold.PLP.Fitness>
40.0914

> <Gold.PLP.PLP>
-36.0517

> <Gold.PLP.part.hbond>
-2.7178

> <Gold.PLP.part.metal>
0.0000

> <Gold.PLP.part.buried>
-4.7307

> <Gold.PLP.part.nonpolar>
-28.6398

> <Gold.PLP.part.repulsive>
0.4863

> <Gold.PLP.ligand.clash>
0.0000

> <Gold.PLP.ligand.torsion>
1.0481

> <Gold.PLP.Chemscore.Hbond>
2.0000

> <Gold.PLP.Chemscore.CHOScore>
0.0000

> <Gold.PLP.Chemscore.Metal>
0.0000

> <Gold.Chemscore.Hbonds>
donor molecule, donor type, donor heavy atom, donor atom, acceptor molecule, acceptor atom, score
      P1  H  7989  7998       L1     3  1.00
      P1  H 10752 10764       L1     6  0.95

> <Gold.PLP.Chemscore.Internal.Correction>
0.1358

> <Gold.Rescore>
     Score         DG    S(hbond)    S(metal)    S(lipo)     H(rot)  DE(clash)    DE(int)     intcor
     15.31     -17.66       1.75        0.00      91.70       1.72       0.31       2.04       ----

> <Gold.Chemscore.Fitness>
15.3083

> <Gold.Chemscore.DG>
-17.6583

> <Gold.Chemscore.ZeroCoef>
-5.4800

> <Gold.Chemscore.Hbond>
1.7491

> <Gold.Chemscore.Metal>
0.0000

> <Gold.Chemscore.Lipo>
91.7023

> <Gold.Chemscore.Internal_Hbond>
0.0000

> <Gold.Chemscore.DEClash>
0.3090

> <Gold.Chemscore.DEInternal>
2.0410

> <Gold.Chemscore.Rot>
1.7160

> <Gold.Chemscore.Internal.Correction>
   9.000000E+99

> <Gold.Chemscore.Hbonds>
donor molecule, donor type, donor heavy atom, donor atom, acceptor molecule, acceptor atom, score
      P1  H  7989  7998       L1     3  0.88
      P1  H 10752 10764       L1     6  0.21

> <Gold.Chemscore.Hbond.Weighted>
-5.8421

> <Gold.Chemscore.Metal.Weighted>
-0.0000

> <Gold.Chemscore.Lipo.Weighted>
-10.7292

> <Gold.Chemscore.Internal_Hbond.Weighted>
0.0000

> <Gold.Chemscore.DEClash.Weighted>
0.3090

> <Gold.Chemscore.DEInternal.Weighted>
2.0410

> <Gold.Chemscore.Rot.Weighted>
4.3930

> <Gold.Chemscore.Internal.Correction.Weighted>
   9.000000E+99

> <Gold.Protein.RotatedTorsions>
[ 6907 6896 6895 6894 ] final   97.70 input  -60.11 | X-H torsion
[ 7974 7965 7964 7962 ] final   37.58 input  175.53 | X-H torsion
[ 8008 7997 7996 7995 ] final -100.32 input   59.86 | X-H torsion
[ 10167 10162 10161 10158 ] final  -97.63 input  -65.29 | X-H torsion
[ 10718 10713 10712 10709 ] final -133.70 input   66.30 | X-H torsion
[ 10763 10752 10751 10750 ] final  -65.90 input  -60.55 | X-H torsion
[ 11005 11000 10999 10996 ] final -154.23 input  -57.11 | X-H torsion

> <Gold.Protein.ActiveResidues>
 VAL166  LYS551  ARG553  GLY616  TRP617  ASP618  TYR619  PRO620  LYS621  CYS622 
 ASP623  PHE694  ASN695  SER759  ASP760  ASP761  ALA762  ILE779  LEU786  VAL792 
 PHE793  MET794  SER795  GLU796  ALA797  LYS798  CYS799  TRP800  GLU811  SER814 

> <Gold.Protein.RotatedAtoms>
  152.5420  134.0693  159.8186 H   0  0  0  0  0  0  0  0  0  0  0  0  # atno 6907 bound_to 6896
  151.0810  133.5383  159.2628 H   0  0  0  0  0  0  0  0  0  0  0  0  # atno 6908 bound_to 6896
  151.2210  135.0527  159.9003 H   0  0  0  0  0  0  0  0  0  0  0  0  # atno 6909 bound_to 6896
  146.1127  139.5877  142.9342 H   0  0  0  0  0  0  0  0  0  0  0  0  # atno 7974 bound_to 7965
  154.8269  140.0442  157.1450 H   0  0  0  0  0  0  0  0  0  0  0  0  # atno 8008 bound_to 7997
  154.9196  140.3025  155.5203 H   0  0  0  0  0  0  0  0  0  0  0  0  # atno 8009 bound_to 7997
  156.2984  140.2343  156.4244 H   0  0  0  0  0  0  0  0  0  0  0  0  # atno 8010 bound_to 7997
  140.2814  143.3279  152.0437 H   0  0  0  0  0  0  0  0  0  0  0  0  # atno 10167 bound_to 10162
  156.2477  130.7134  151.1021 H   0  0  0  0  0  0  0  0  0  0  0  0  # atno 10718 bound_to 10713
  154.3519  135.6134  153.5647 H   0  0  0  0  0  0  0  0  0  0  0  0  # atno 10763 bound_to 10752
  152.9798  135.5794  154.4733 H   0  0  0  0  0  0  0  0  0  0  0  0  # atno 10764 bound_to 10752
  154.4456  135.2851  155.1794 H   0  0  0  0  0  0  0  0  0  0  0  0  # atno 10765 bound_to 10752
  140.6996  134.3952  157.5211 H   0  0  0  0  0  0  0  0  0  0  0  0  # atno 11005 bound_to 11000
  145.5631  141.0402  143.2215 LP  0  0  0  0  0  0  0  0  0  0  0  0  # atno 17320 bound_to 7965
  144.7525  139.7157  143.7267 LP  0  0  0  0  0  0  0  0  0  0  0  0  # atno 17321 bound_to 7965
  139.4961  144.6589  151.6510 LP  0  0  0  0  0  0  0  0  0  0  0  0  # atno 17342 bound_to 10162
  140.5808  143.9949  150.6267 LP  0  0  0  0  0  0  0  0  0  0  0  0  # atno 17343 bound_to 10162
  157.7202  131.0686  150.6167 LP  0  0  0  0  0  0  0  0  0  0  0  0  # atno 17370 bound_to 10713
  156.6245  130.4415  149.5809 LP  0  0  0  0  0  0  0  0  0  0  0  0  # atno 17371 bound_to 10713
  139.8900  134.8815  156.2390 LP  0  0  0  0  0  0  0  0  0  0  0  0  # atno 17394 bound_to 11000
  141.0175  133.7060  156.1212 LP  0  0  0  0  0  0  0  0  0  0  0  0  # atno 17395 bound_to 11000

$$$$
