AV-unprocessed.smi:1593|AV-procd|sdf|6413|dock6
  -GOLD-   22720 7 43D 1   1.00000     0.00000
 Structure written by MMmdl.
 36 37  0  0  0  0  0  0  0  0  3 V2000
  153.1177  142.3173  160.8657 C   0  0  0  0  0  0  0  0  0  0  0  0
  152.4315  142.2483  159.5448 C   0  0  0  0  0  0  0  0  0  0  0  0
  152.2540  141.2402  158.6397 C   0  0  0  0  0  0  0  0  0  0  0  0
  151.5067  141.8644  157.6055 C   0  0  0  0  0  0  0  0  0  0  0  0
  151.1039  141.1297  156.4591 N   0  0  0  0  0  0  0  0  0  0  0  0
  151.6541  140.0198  155.9334 C   0  0  0  0  0  0  0  0  0  0  0  0
  152.6173  139.4775  156.4887 O   0  0  0  0  0  0  0  0  0  0  0  0
  151.0265  139.6262  154.7911 N   0  5  0  0  0  0  0  0  0  0  0  0
  150.7762  138.2356  154.4191 C   0  0  0  0  0  0  0  0  0  0  0  0
  149.4389  137.7679  155.0248 C   0  0  0  0  0  0  0  0  0  0  0  0
  149.0955  136.3814  154.6105 N   0  3  0  0  0  0  0  0  0  0  0  0
  150.0941  135.3787  155.0546 C   0  0  0  0  0  0  0  0  0  0  0  0
  149.7267  133.9844  154.5190 C   0  0  0  0  0  0  0  0  0  0  0  0
  148.4179  133.6338  154.9515 O   0  0  0  0  0  0  0  0  0  0  0  0
  147.4355  134.5417  154.4680 C   0  0  0  0  0  0  0  0  0  0  0  0
  147.7280  135.9518  155.0062 C   0  0  0  0  0  0  0  0  0  0  0  0
  151.2526  143.1400  157.8578 N   0  0  0  0  0  0  0  0  0  0  0  0
  151.8437  143.3923  159.1013 O   0  0  0  0  0  0  0  0  0  0  0  0
  153.5479  141.3518  161.1325 H   0  0  0  0  0  0  0  0  0  0  0  0
  152.4169  142.6035  161.6501 H   0  0  0  0  0  0  0  0  0  0  0  0
  153.9224  143.0522  160.8451 H   0  0  0  0  0  0  0  0  0  0  0  0
  152.6023  140.2205  158.7089 H   0  0  0  0  0  0  0  0  0  0  0  0
  150.3072  141.4995  155.9626 H   0  0  0  0  0  0  0  0  0  0  0  0
  150.7356  138.1004  153.3374 H   0  0  0  0  0  0  0  0  0  0  0  0
  151.5723  137.5783  154.7710 H   0  0  0  0  0  0  0  0  0  0  0  0
  149.5284  137.8127  156.1117 H   0  0  0  0  0  0  0  0  0  0  0  0
  148.6282  138.4494  154.7610 H   0  0  0  0  0  0  0  0  0  0  0  0
  151.0854  135.6567  154.6944 H   0  0  0  0  0  0  0  0  0  0  0  0
  150.1390  135.3639  156.1448 H   0  0  0  0  0  0  0  0  0  0  0  0
  149.7819  133.9593  153.4293 H   0  0  0  0  0  0  0  0  0  0  0  0
  150.4323  133.2412  154.8907 H   0  0  0  0  0  0  0  0  0  0  0  0
  147.4213  134.5358  153.3768 H   0  0  0  0  0  0  0  0  0  0  0  0
  146.4524  134.2089  154.8013 H   0  0  0  0  0  0  0  0  0  0  0  0
  147.6416  135.9600  156.0939 H   0  0  0  0  0  0  0  0  0  0  0  0
  146.9828  136.6493  154.6226 H   0  0  0  0  0  0  0  0  0  0  0  0
  149.1263  136.3804  153.6009 H   0  0  0  0  0  0  0  0  0  0  0  0
  1  2  1  0  0  0  0
  1 19  1  0  0  0  0
  1 20  1  0  0  0  0
  1 21  1  0  0  0  0
  2 18  1  0  0  0  0
  2  3  2  0  0  0  0
  3  4  1  0  0  0  0
  3 22  1  0  0  0  0
  4  5  1  0  0  0  0
  4 17  2  0  0  0  0
  5  6  1  0  0  0  0
  5 23  1  0  0  0  0
  6  7  2  0  0  0  0
  6  8  1  0  0  0  0
  8  9  1  0  0  0  0
  9 10  1  0  0  0  0
  9 24  1  0  0  0  0
  9 25  1  0  0  0  0
 10 11  1  0  0  0  0
 10 26  1  0  0  0  0
 10 27  1  0  0  0  0
 11 16  1  0  0  0  0
 11 12  1  0  0  0  0
 11 36  1  0  0  0  0
 12 13  1  0  0  0  0
 12 28  1  0  0  0  0
 12 29  1  0  0  0  0
 13 14  1  0  0  0  0
 13 30  1  0  0  0  0
 13 31  1  0  0  0  0
 14 15  1  0  0  0  0
 15 16  1  0  0  0  0
 15 32  1  0  0  0  0
 15 33  1  0  0  0  0
 16 34  1  0  0  0  0
 16 35  1  0  0  0  0
 17 18  1  0  0  0  0
M  CHG  1   8  -1
M  CHG  1  11   1
M  END
> <s_m_source_file>
AV-unprocessed.smi

> <i_m_source_file_index>
1593

> <i_lp_mmshare_version>
43012

> <i_f3d_flags>
0

> <s_epik_input>
W0NIM11jMVtjSF1jKG5vMSlbTkhdQyg9TylbTkhdW0NIMl1bQ0gyXU4yW0NIMl1bQ0gyXU9bQ0gyXVtDSDJdMg==

> <s_epik_cmdline>
J2VwaWtfcHl0aG9uJywgJy1waCcsICc3LjAnLCAnLXRuJywgJzgnLCAnLW1hJywgJzIwMCcsICctbWV0YWxfYmluZGluZycsICctaW1hZScsICc8aW5maWxlLm1hZT4nLCAnLW9tYWUnLCAnPG91dGZpbGUubWFlPic=

> <r_epik_Ionization_Penalty>
6.79272

> <r_epik_Ionization_Penalty_Charging>
6.79272

> <r_epik_Ionization_Penalty_Neutral>
5.6208e-06

> <r_epik_State_Penalty>
7.45901

> <r_epik_Charging_Adjusted_Penalty>
14.2517

> <i_epik_Tot_Q>
0

> <i_epik_Tot_abs_Q>
2

> <r_epik_Metal_State_Penalty>
3.38639

> <b_epik_Metal_Only>
1

> <s_lp_Force_Field>
OPLS_2005

> <r_lp_Energy>
12.9182

> <b_lp_Chiralities_Consistent>
1

> <s_lp_Variant>
AV-unprocessed.smi:1593-5

> <Gold.Version>
5.8.1

> <Gold.Id.Protein>
6NUR|6NUR_protein|mol2

> <Gold.PLP.Fitness>
40.6409

> <Gold.PLP.PLP>
-29.8157

> <Gold.PLP.part.hbond>
-3.0000

> <Gold.PLP.part.metal>
0.0000

> <Gold.PLP.part.buried>
-6.8200

> <Gold.PLP.part.nonpolar>
-20.8376

> <Gold.PLP.part.repulsive>
0.3452

> <Gold.PLP.ligand.clash>
0.0000

> <Gold.PLP.ligand.torsion>
0.6115

> <Gold.PLP.Chemscore.Hbond>
4.0000

> <Gold.PLP.Chemscore.CHOScore>
0.0000

> <Gold.PLP.Chemscore.Metal>
0.0000

> <Gold.Chemscore.Hbonds>
donor molecule, donor type, donor heavy atom, donor atom, acceptor molecule, acceptor atom, score
      L1  H    11    36       P1  7948  2.00
      P1  H  7989  7998       L1     8  1.00
      P1  H  7997  8009       L1     7  1.00

> <Gold.PLP.Chemscore.Internal.Correction>
0.0482

> <Gold.Rescore>
     Score         DG    S(hbond)    S(metal)    S(lipo)     H(rot)  DE(clash)    DE(int)     intcor
     15.38     -17.40       2.79        0.00      57.60       1.62       0.02       2.00       ----

> <Gold.Chemscore.Fitness>
15.3791

> <Gold.Chemscore.DG>
-17.3970

> <Gold.Chemscore.ZeroCoef>
-5.4800

> <Gold.Chemscore.Hbond>
2.7942

> <Gold.Chemscore.Metal>
0.0000

> <Gold.Chemscore.Lipo>
57.5955

> <Gold.Chemscore.Internal_Hbond>
0.0000

> <Gold.Chemscore.DEClash>
0.0186

> <Gold.Chemscore.DEInternal>
1.9992

> <Gold.Chemscore.Rot>
1.6228

> <Gold.Chemscore.Internal.Correction>
   9.000000E+99

> <Gold.Chemscore.Hbonds>
donor molecule, donor type, donor heavy atom, donor atom, acceptor molecule, acceptor atom, score
      L1  H    11    36       P1  7948  0.97
      P1  H  7989  7998       L1     8  0.44
      P1  H  7997  8009       L1     7  1.00

> <Gold.Chemscore.Hbond.Weighted>
-9.3326

> <Gold.Chemscore.Metal.Weighted>
-0.0000

> <Gold.Chemscore.Lipo.Weighted>
-6.7387

> <Gold.Chemscore.Internal_Hbond.Weighted>
0.0000

> <Gold.Chemscore.DEClash.Weighted>
0.0186

> <Gold.Chemscore.DEInternal.Weighted>
1.9992

> <Gold.Chemscore.Rot.Weighted>
4.1542

> <Gold.Chemscore.Internal.Correction.Weighted>
   9.000000E+99

> <Gold.Protein.RotatedTorsions>
[ 6907 6896 6895 6894 ] final -103.38 input  -60.11 | X-H torsion
[ 7974 7965 7964 7962 ] final  107.91 input  175.53 | X-H torsion
[ 8008 7997 7996 7995 ] final -178.82 input   59.86 | X-H torsion
[ 10167 10162 10161 10158 ] final  -80.39 input  -65.29 | X-H torsion
[ 10718 10713 10712 10709 ] final   65.46 input   66.30 | X-H torsion
[ 10763 10752 10751 10750 ] final  -19.30 input  -60.55 | X-H torsion
[ 11005 11000 10999 10996 ] final  -73.00 input  -57.11 | X-H torsion

> <Gold.Protein.ActiveResidues>
 VAL166  LYS551  ARG553  GLY616  TRP617  ASP618  TYR619  PRO620  LYS621  CYS622 
 ASP623  PHE694  ASN695  SER759  ASP760  ASP761  ALA762  ILE779  LEU786  VAL792 
 PHE793  MET794  SER795  GLU796  ALA797  LYS798  CYS799  TRP800  GLU811  SER814 

> <Gold.Protein.RotatedAtoms>
  150.7238  134.0438  159.3774 H   0  0  0  0  0  0  0  0  0  0  0  0  # atno 6907 bound_to 6896
  151.8412  135.0587  160.0457 H   0  0  0  0  0  0  0  0  0  0  0  0  # atno 6908 bound_to 6896
  152.2861  133.5480  159.5564 H   0  0  0  0  0  0  0  0  0  0  0  0  # atno 6909 bound_to 6896
  145.2875  139.2611  143.3882 H   0  0  0  0  0  0  0  0  0  0  0  0  # atno 7974 bound_to 7965
  156.0234  140.1266  157.0334 H   0  0  0  0  0  0  0  0  0  0  0  0  # atno 8008 bound_to 7997
  154.4320  140.1064  156.6065 H   0  0  0  0  0  0  0  0  0  0  0  0  # atno 8009 bound_to 7997
  155.5912  140.3469  155.4569 H   0  0  0  0  0  0  0  0  0  0  0  0  # atno 8010 bound_to 7997
  140.4507  143.2484  151.8493 H   0  0  0  0  0  0  0  0  0  0  0  0  # atno 10167 bound_to 10162
  157.6107  130.9215  149.9979 H   0  0  0  0  0  0  0  0  0  0  0  0  # atno 10718 bound_to 10713
  153.6027  135.6999  153.5378 H   0  0  0  0  0  0  0  0  0  0  0  0  # atno 10763 bound_to 10752
  153.3083  135.4108  155.1313 H   0  0  0  0  0  0  0  0  0  0  0  0  # atno 10764 bound_to 10752
  154.8579  135.3666  154.5563 H   0  0  0  0  0  0  0  0  0  0  0  0  # atno 10765 bound_to 10752
  141.1616  133.6864  156.7144 H   0  0  0  0  0  0  0  0  0  0  0  0  # atno 11005 bound_to 11000
  146.3196  140.3358  142.8644 LP  0  0  0  0  0  0  0  0  0  0  0  0  # atno 17320 bound_to 7965
  144.9201  140.7858  143.5754 LP  0  0  0  0  0  0  0  0  0  0  0  0  # atno 17321 bound_to 7965
  139.4796  144.5123  151.8916 LP  0  0  0  0  0  0  0  0  0  0  0  0  # atno 17342 bound_to 10162
  140.4210  144.2243  150.5887 LP  0  0  0  0  0  0  0  0  0  0  0  0  # atno 17343 bound_to 10162
  156.1208  130.3646  149.9890 LP  0  0  0  0  0  0  0  0  0  0  0  0  # atno 17370 bound_to 10713
  156.7970  130.9277  151.3646 LP  0  0  0  0  0  0  0  0  0  0  0  0  # atno 17371 bound_to 10713
  140.2863  134.8277  157.3977 LP  0  0  0  0  0  0  0  0  0  0  0  0  # atno 17394 bound_to 11000
  140.1388  134.4999  155.8048 LP  0  0  0  0  0  0  0  0  0  0  0  0  # atno 17395 bound_to 11000

$$$$
