AV-unprocessed.smi:1843|AV-procd|sdf|7506|dock10
  -GOLD-   22720 9213D 1   1.00000     0.00000
 Structure written by MMmdl.
 36 38  0  0  0  0  0  0  0  0  2 V2000
  154.7037  140.9608  160.1023 O   0  0  0  0  0  0  0  0  0  0  0  0
  153.7087  140.5617  159.4929 C   0  0  0  0  0  0  0  0  0  0  0  0
  153.4581  139.2873  159.1158 N   0  5  0  0  0  0  0  0  0  0  0  0
  153.7023  138.2753  159.9647 C   0  0  0  0  0  0  0  0  0  0  0  0
  153.4602  136.9959  159.6458 N   0  0  0  0  0  0  0  0  0  0  0  0
  153.7866  136.1104  160.6626 N   0  0  0  0  0  0  0  0  0  0  0  0
  154.2824  136.7338  161.7340 C   0  0  0  0  0  0  0  0  0  0  0  0
  154.7105  135.9983  162.9596 C   0  0  0  0  0  0  0  0  0  0  0  0
  154.0233  136.2089  164.2911 C   0  0  0  0  0  0  0  0  0  0  0  0
  155.4273  136.7152  164.0807 C   0  0  0  0  0  0  0  0  0  0  0  0
  154.3861  138.4802  161.5770 S   0  0  0  0  0  0  0  0  0  0  0  0
  152.7493  141.4276  159.1360 N   0  0  0  0  0  0  0  0  0  0  0  0
  152.7487  142.8675  159.3891 C   0  0  2  0  0  0  0  0  0  0  0  0
  152.2452  143.1621  160.8153 C   0  0  0  0  0  0  0  0  0  0  0  0
  152.2451  144.6718  161.1040 C   0  0  0  0  0  0  0  0  0  0  0  0
  151.4170  145.4403  160.0618 C   0  0  0  0  0  0  0  0  0  0  0  0
  151.9003  145.1468  158.6296 C   0  0  0  0  0  0  0  0  0  0  0  0
  151.9307  143.6368  158.3224 C   0  0  2  0  0  0  0  0  0  0  0  0
  150.6023  143.1509  158.2575 O   0  0  0  0  0  0  0  0  0  0  0  0
  155.0333  134.9898  162.7088 H   0  0  0  0  0  0  0  0  0  0  0  0
  153.2309  136.9524  164.3505 H   0  0  0  0  0  0  0  0  0  0  0  0
  153.8934  135.3382  164.9305 H   0  0  0  0  0  0  0  0  0  0  0  0
  156.2345  136.1841  164.5806 H   0  0  0  0  0  0  0  0  0  0  0  0
  155.5624  137.7910  163.9889 H   0  0  0  0  0  0  0  0  0  0  0  0
  151.9523  141.0542  158.6419 H   0  0  0  0  0  0  0  0  0  0  0  0
  153.7821  143.2159  159.3370 H   0  0  0  0  0  0  0  0  0  0  0  0
  151.2378  142.7650  160.9466 H   0  0  0  0  0  0  0  0  0  0  0  0
  152.8745  142.6512  161.5450 H   0  0  0  0  0  0  0  0  0  0  0  0
  151.8510  144.8585  162.1031 H   0  0  0  0  0  0  0  0  0  0  0  0
  153.2705  145.0436  161.1018 H   0  0  0  0  0  0  0  0  0  0  0  0
  150.3656  145.1665  160.1585 H   0  0  0  0  0  0  0  0  0  0  0  0
  151.4737  146.5110  160.2589 H   0  0  0  0  0  0  0  0  0  0  0  0
  151.2698  145.6668  157.9076 H   0  0  0  0  0  0  0  0  0  0  0  0
  152.9042  145.5546  158.5046 H   0  0  0  0  0  0  0  0  0  0  0  0
  152.3771  143.4878  157.3386 H   0  0  0  0  0  0  0  0  0  0  0  0
  150.5938  142.2717  158.6057 H   0  0  0  0  0  0  0  0  0  0  0  0
  1  2  2  0  0  0  0
  2  3  1  0  0  0  0
  2 12  1  0  0  0  0
  3  4  1  0  0  0  0
  4 11  1  0  0  0  0
  4  5  2  0  0  0  0
  5  6  1  0  0  0  0
  6  7  2  0  0  0  0
  7  8  1  0  0  0  0
  7 11  1  0  0  0  0
  8 10  1  0  0  0  0
  8  9  1  0  0  0  0
  8 20  1  0  0  0  0
  9 10  1  0  0  0  0
  9 21  1  0  0  0  0
  9 22  1  0  0  0  0
 10 23  1  0  0  0  0
 10 24  1  0  0  0  0
 12 13  1  0  0  0  0
 12 25  1  0  0  0  0
 13 18  1  0  0  0  0
 13 14  1  0  0  0  0
 13 26  1  0  0  0  0
 14 15  1  0  0  0  0
 14 27  1  0  0  0  0
 14 28  1  0  0  0  0
 15 16  1  0  0  0  0
 15 29  1  0  0  0  0
 15 30  1  0  0  0  0
 16 17  1  0  0  0  0
 16 31  1  0  0  0  0
 16 32  1  0  0  0  0
 17 18  1  0  0  0  0
 17 33  1  0  0  0  0
 17 34  1  0  0  0  0
 18 19  1  0  0  0  0
 18 35  1  0  0  0  0
 19 36  1  0  0  0  0
M  CHG  1   3  -1
M  END
> <s_m_source_file>
AV-unprocessed.smi

> <i_m_source_file_index>
1843

> <i_lp_mmshare_version>
43012

> <i_f3d_flags>
0

> <s_epik_input>
W09IXVtDQEBIXTFbQ0gyXVtDSDJdW0NIMl1bQ0gyXVtDQEhdMVtOSF1DKD1PKVtOSF1jMm5uYyhzMilbQ0hdM1tDSDJdW0NIMl0z

> <s_epik_cmdline>
J2VwaWtfcHl0aG9uJywgJy1waCcsICc3LjAnLCAnLXRuJywgJzgnLCAnLW1hJywgJzIwMCcsICctbWV0YWxfYmluZGluZycsICctaW1hZScsICc8aW5maWxlLm1hZT4nLCAnLW9tYWUnLCAnPG91dGZpbGUubWFlPic=

> <r_lp_tautomer_probability>
1

> <r_epik_Ionization_Penalty>
4.7996

> <r_epik_Ionization_Penalty_Charging>
4.64516

> <r_epik_Ionization_Penalty_Neutral>
0.154442

> <r_epik_State_Penalty>
4.64493

> <r_epik_Charging_Adjusted_Penalty>
9.29009

> <i_epik_Tot_Q>
-1

> <i_epik_Tot_abs_Q>
1

> <r_epik_Metal_State_Penalty>
0.896144

> <b_epik_Metal_Only>
1

> <s_lp_Force_Field>
OPLS_2005

> <r_lp_Energy>
9.09011

> <b_lp_Chiralities_Consistent>
1

> <s_lp_Variant>
AV-unprocessed.smi:1843-7

> <Gold.Version>
5.8.1

> <Gold.Id.Protein>
6NUR|6NUR_protein|mol2

> <Gold.PLP.Fitness>
42.3809

> <Gold.PLP.PLP>
-41.7871

> <Gold.PLP.part.hbond>
-1.0000

> <Gold.PLP.part.metal>
0.0000

> <Gold.PLP.part.buried>
-6.6005

> <Gold.PLP.part.nonpolar>
-34.4198

> <Gold.PLP.part.repulsive>
0.0951

> <Gold.PLP.ligand.clash>
0.0000

> <Gold.PLP.ligand.torsion>
0.7646

> <Gold.PLP.Chemscore.Hbond>
0.6500

> <Gold.PLP.Chemscore.CHOScore>
0.0000

> <Gold.PLP.Chemscore.Metal>
0.0000

> <Gold.Chemscore.Hbonds>
donor molecule, donor type, donor heavy atom, donor atom, acceptor molecule, acceptor atom, score
      P1  H  6896  6907       L1     6  0.59

> <Gold.PLP.Chemscore.Internal.Correction>
0.1731

> <Gold.Rescore>
     Score         DG    S(hbond)    S(metal)    S(lipo)     H(rot)  DE(clash)    DE(int)     intcor
     13.46     -15.91       0.60        0.00     109.51       1.72       0.32       2.13       ----

> <Gold.Chemscore.Fitness>
13.4561

> <Gold.Chemscore.DG>
-15.9076

> <Gold.Chemscore.ZeroCoef>
-5.4800

> <Gold.Chemscore.Hbond>
0.6012

> <Gold.Chemscore.Metal>
0.0000

> <Gold.Chemscore.Lipo>
109.5100

> <Gold.Chemscore.Internal_Hbond>
0.0000

> <Gold.Chemscore.DEClash>
0.3197

> <Gold.Chemscore.DEInternal>
2.1318

> <Gold.Chemscore.Rot>
1.7160

> <Gold.Chemscore.Internal.Correction>
   9.000000E+99

> <Gold.Chemscore.Hbonds>
donor molecule, donor type, donor heavy atom, donor atom, acceptor molecule, acceptor atom, score
      P1  H  6896  6907       L1     6  0.04

> <Gold.Chemscore.Hbond.Weighted>
-2.0079

> <Gold.Chemscore.Metal.Weighted>
-0.0000

> <Gold.Chemscore.Lipo.Weighted>
-12.8127

> <Gold.Chemscore.Internal_Hbond.Weighted>
0.0000

> <Gold.Chemscore.DEClash.Weighted>
0.3197

> <Gold.Chemscore.DEInternal.Weighted>
2.1318

> <Gold.Chemscore.Rot.Weighted>
4.3930

> <Gold.Chemscore.Internal.Correction.Weighted>
   9.000000E+99

> <Gold.Protein.RotatedTorsions>
[ 6907 6896 6895 6894 ] final   54.32 input  -60.11 | X-H torsion
[ 7974 7965 7964 7962 ] final  -94.47 input  175.53 | X-H torsion
[ 8008 7997 7996 7995 ] final -169.62 input   59.86 | X-H torsion
[ 10167 10162 10161 10158 ] final  150.95 input  -65.29 | X-H torsion
[ 10718 10713 10712 10709 ] final  -72.57 input   66.30 | X-H torsion
[ 10763 10752 10751 10750 ] final  103.86 input  -60.55 | X-H torsion
[ 11005 11000 10999 10996 ] final  -77.36 input  -57.11 | X-H torsion

> <Gold.Protein.ActiveResidues>
 VAL166  LYS551  ARG553  GLY616  TRP617  ASP618  TYR619  PRO620  LYS621  CYS622 
 ASP623  PHE694  ASN695  SER759  ASP760  ASP761  ALA762  ILE779  LEU786  VAL792 
 PHE793  MET794  SER795  GLU796  ALA797  LYS798  CYS799  TRP800  GLU811  SER814 

> <Gold.Protein.RotatedAtoms>
  152.3427  134.7113  160.0258 H   0  0  0  0  0  0  0  0  0  0  0  0  # atno 6907 bound_to 6896
  151.7493  133.3321  159.3395 H   0  0  0  0  0  0  0  0  0  0  0  0  # atno 6908 bound_to 6896
  150.7490  134.6140  159.6145 H   0  0  0  0  0  0  0  0  0  0  0  0  # atno 6909 bound_to 6896
  145.3728  140.9507  143.2437 H   0  0  0  0  0  0  0  0  0  0  0  0  # atno 7974 bound_to 7965
  155.9074  140.1051  157.1305 H   0  0  0  0  0  0  0  0  0  0  0  0  # atno 8008 bound_to 7997
  154.4034  140.1281  156.4577 H   0  0  0  0  0  0  0  0  0  0  0  0  # atno 8009 bound_to 7997
  155.7351  140.3468  155.5080 H   0  0  0  0  0  0  0  0  0  0  0  0  # atno 8010 bound_to 7997
  139.4845  144.5481  151.7449 H   0  0  0  0  0  0  0  0  0  0  0  0  # atno 10167 bound_to 10162
  156.0315  130.4375  150.2612 H   0  0  0  0  0  0  0  0  0  0  0  0  # atno 10718 bound_to 10713
  153.3582  135.3962  155.1698 H   0  0  0  0  0  0  0  0  0  0  0  0  # atno 10763 bound_to 10752
  154.8674  135.3673  154.5133 H   0  0  0  0  0  0  0  0  0  0  0  0  # atno 10764 bound_to 10752
  153.5590  135.7081  153.5616 H   0  0  0  0  0  0  0  0  0  0  0  0  # atno 10765 bound_to 10752
  141.1660  133.7019  156.7809 H   0  0  0  0  0  0  0  0  0  0  0  0  # atno 11005 bound_to 11000
  144.8564  139.5243  143.6833 LP  0  0  0  0  0  0  0  0  0  0  0  0  # atno 17320 bound_to 7965
  146.2877  139.7051  142.9183 LP  0  0  0  0  0  0  0  0  0  0  0  0  # atno 17321 bound_to 7965
  140.5030  144.1140  150.5976 LP  0  0  0  0  0  0  0  0  0  0  0  0  # atno 17342 bound_to 10162
  140.4040  143.2690  151.9914 LP  0  0  0  0  0  0  0  0  0  0  0  0  # atno 17343 bound_to 10162
  157.0714  131.0118  151.3189 LP  0  0  0  0  0  0  0  0  0  0  0  0  # atno 17370 bound_to 10713
  157.4996  130.7872  149.7591 LP  0  0  0  0  0  0  0  0  0  0  0  0  # atno 17371 bound_to 10713
  140.2395  134.8624  157.3559 LP  0  0  0  0  0  0  0  0  0  0  0  0  # atno 17394 bound_to 11000
  140.1810  134.4490  155.7772 LP  0  0  0  0  0  0  0  0  0  0  0  0  # atno 17395 bound_to 11000

$$$$
