AV-unprocessed.smi:3254|AV-procd|sdf|12453|dock2
  -GOLD-   2272018343D 1   1.00000     0.00000
 Structure written by MMmdl.
 37 38  0  0  0  0  0  0  0  0  2 V2000
  147.8839  138.2050  155.1347 C   0  0  0  0  0  0  0  0  0  0  0  0
  149.0952  138.0532  154.2044 C   0  0  0  0  0  0  0  0  0  0  0  0
  150.3010  138.6230  154.7987 N   0  0  0  0  0  0  0  0  0  0  0  0
  150.3804  140.0430  155.0975 C   0  0  0  0  0  0  0  0  0  0  0  0
  151.7002  140.2309  155.8771 C   0  0  1  0  0  0  0  0  0  0  0  0
  151.4624  140.5599  157.3594 C   0  0  0  0  0  0  0  0  0  0  0  0
  150.3485  140.3986  157.8584 O   0  0  0  0  0  0  0  0  0  0  0  0
  152.5188  141.0225  158.0445 N   0  0  0  0  0  0  0  0  0  0  0  0
  152.5155  141.3997  159.4550 C   0  0  0  0  0  0  0  0  0  0  0  0
  153.0878  142.8121  159.6564 C   0  0  0  0  0  0  0  0  0  0  0  0
  152.0664  143.8576  159.5382 N   0  0  0  0  0  0  0  0  0  0  0  0
  151.8172  144.8784  160.4194 C   0  0  0  0  0  0  0  0  0  0  0  0
  150.7797  145.6043  159.8934 C   0  0  0  0  0  0  0  0  0  0  0  0
  150.4425  144.9992  158.7123 N   0  3  0  0  0  0  0  0  0  0  0  0
  151.2278  143.9388  158.4967 C   0  0  0  0  0  0  0  0  0  0  0  0
  152.4578  138.8985  155.7084 C   0  0  0  0  0  0  0  0  0  0  0  0
  151.4328  137.9686  155.0806 C   0  0  0  0  0  0  0  0  0  0  0  0
  151.6493  136.7740  154.8830 O   0  0  0  0  0  0  0  0  0  0  0  0
  146.9856  137.7970  154.6713 H   0  0  0  0  0  0  0  0  0  0  0  0
  147.6934  139.2541  155.3629 H   0  0  0  0  0  0  0  0  0  0  0  0
  148.0373  137.6796  156.0777 H   0  0  0  0  0  0  0  0  0  0  0  0
  149.2622  136.9993  153.9769 H   0  0  0  0  0  0  0  0  0  0  0  0
  148.8918  138.5445  153.2521 H   0  0  0  0  0  0  0  0  0  0  0  0
  150.3987  140.6079  154.1646 H   0  0  0  0  0  0  0  0  0  0  0  0
  149.5009  140.3642  155.6588 H   0  0  0  0  0  0  0  0  0  0  0  0
  152.2759  141.0390  155.4223 H   0  0  0  0  0  0  0  0  0  0  0  0
  153.3901  141.1294  157.5462 H   0  0  0  0  0  0  0  0  0  0  0  0
  151.4937  141.3441  159.8319 H   0  0  0  0  0  0  0  0  0  0  0  0
  153.1033  140.6969  160.0475 H   0  0  0  0  0  0  0  0  0  0  0  0
  153.5268  142.8990  160.6509 H   0  0  0  0  0  0  0  0  0  0  0  0
  153.8855  143.0138  158.9396 H   0  0  0  0  0  0  0  0  0  0  0  0
  152.3812  145.0082  161.3318 H   0  0  0  0  0  0  0  0  0  0  0  0
  150.2706  146.4835  160.2606 H   0  0  0  0  0  0  0  0  0  0  0  0
  151.1899  143.2784  157.6487 H   0  0  0  0  0  0  0  0  0  0  0  0
  153.3069  139.0110  155.0335 H   0  0  0  0  0  0  0  0  0  0  0  0
  152.8265  138.4807  156.6468 H   0  0  0  0  0  0  0  0  0  0  0  0
  149.7080  145.3100  158.0888 H   0  0  0  0  0  0  0  0  0  0  0  0
  1  2  1  0  0  0  0
  1 19  1  0  0  0  0
  1 20  1  0  0  0  0
  1 21  1  0  0  0  0
  2  3  1  0  0  0  0
  2 22  1  0  0  0  0
  2 23  1  0  0  0  0
  3 17  1  0  0  0  0
  3  4  1  0  0  0  0
  4  5  1  0  0  0  0
  4 24  1  0  0  0  0
  4 25  1  0  0  0  0
  5  6  1  0  0  0  0
  5 16  1  0  0  0  0
  5 26  1  0  0  0  0
  6  7  2  0  0  0  0
  6  8  1  0  0  0  0
  8  9  1  0  0  0  0
  8 27  1  0  0  0  0
  9 10  1  0  0  0  0
  9 28  1  0  0  0  0
  9 29  1  0  0  0  0
 10 11  1  0  0  0  0
 10 30  1  0  0  0  0
 10 31  1  0  0  0  0
 11 15  1  0  0  0  0
 11 12  1  0  0  0  0
 12 13  2  0  0  0  0
 12 32  1  0  0  0  0
 13 14  1  0  0  0  0
 13 33  1  0  0  0  0
 14 15  2  0  0  0  0
 14 37  1  0  0  0  0
 15 34  1  0  0  0  0
 16 17  1  0  0  0  0
 16 35  1  0  0  0  0
 16 36  1  0  0  0  0
 17 18  2  0  0  0  0
M  CHG  1  14   1
M  END
> <s_m_source_file>
AV-unprocessed.smi

> <i_m_source_file_index>
3254

> <i_lp_mmshare_version>
43012

> <i_f3d_flags>
0

> <s_epik_input>
W0NIM11bQ0gyXU4xW0NIMl1bQ0BIXShbQ0gyXUMxPU8pQyg9TylbTkhdW0NIMl1bQ0gyXW4yW2NIXVtjSF1uW2NIXTI=

> <s_epik_cmdline>
J2VwaWtfcHl0aG9uJywgJy1waCcsICc3LjAnLCAnLXRuJywgJzgnLCAnLW1hJywgJzIwMCcsICctbWV0YWxfYmluZGluZycsICctaW1hZScsICc8aW5maWxlLm1hZT4nLCAnLW9tYWUnLCAnPG91dGZpbGUubWFlPic=

> <r_lp_tautomer_probability>
1

> <r_epik_Ionization_Penalty>
0.274742

> <r_epik_Ionization_Penalty_Charging>
0

> <r_epik_Ionization_Penalty_Neutral>
0.274742

> <r_epik_State_Penalty>
0.267046

> <r_epik_Charging_Adjusted_Penalty>
0.267046

> <i_epik_Tot_Q>
1

> <i_epik_Tot_abs_Q>
1

> <r_epik_Metal_State_Penalty>
0.550456

> <b_epik_Metal_Only>
0

> <s_lp_Force_Field>
OPLS_2005

> <r_lp_Energy>
18.3055

> <b_lp_Chiralities_Consistent>
1

> <s_lp_Variant>
AV-unprocessed.smi:3254-1

> <Gold.Version>
5.8.1

> <Gold.Id.Protein>
6NUR|6NUR_protein|mol2

> <Gold.PLP.Fitness>
43.4179

> <Gold.PLP.PLP>
-35.7761

> <Gold.PLP.part.hbond>
-1.9994

> <Gold.PLP.part.metal>
0.0000

> <Gold.PLP.part.buried>
0.6325

> <Gold.PLP.part.nonpolar>
-34.1001

> <Gold.PLP.part.repulsive>
0.4239

> <Gold.PLP.ligand.clash>
0.0000

> <Gold.PLP.ligand.torsion>
0.6627

> <Gold.PLP.Chemscore.Hbond>
2.9825

> <Gold.PLP.Chemscore.CHOScore>
0.0000

> <Gold.PLP.Chemscore.Metal>
0.0000

> <Gold.Chemscore.Hbonds>
donor molecule, donor type, donor heavy atom, donor atom, acceptor molecule, acceptor atom, score
      L1  H    14    37       P1  8029  1.82
      P1  H 10752 10765       L1    18  1.00

> <Gold.PLP.Chemscore.Internal.Correction>
0.0199

> <Gold.Rescore>
     Score         DG    S(hbond)    S(metal)    S(lipo)     H(rot)  DE(clash)    DE(int)     intcor
     12.79     -13.84       1.88        0.00      67.75       2.28       0.35       0.70       ----

> <Gold.Chemscore.Fitness>
12.7930

> <Gold.Chemscore.DG>
-13.8433

> <Gold.Chemscore.ZeroCoef>
-5.4800

> <Gold.Chemscore.Hbond>
1.8765

> <Gold.Chemscore.Metal>
0.0000

> <Gold.Chemscore.Lipo>
67.7467

> <Gold.Chemscore.Internal_Hbond>
0.0000

> <Gold.Chemscore.DEClash>
0.3516

> <Gold.Chemscore.DEInternal>
0.6986

> <Gold.Chemscore.Rot>
2.2776

> <Gold.Chemscore.Internal.Correction>
   9.000000E+99

> <Gold.Chemscore.Hbonds>
donor molecule, donor type, donor heavy atom, donor atom, acceptor molecule, acceptor atom, score
      L1  H    14    37       P1  8029  0.22
      P1  H 10752 10765       L1    18  0.99

> <Gold.Chemscore.Hbond.Weighted>
-6.2676

> <Gold.Chemscore.Metal.Weighted>
-0.0000

> <Gold.Chemscore.Lipo.Weighted>
-7.9264

> <Gold.Chemscore.Internal_Hbond.Weighted>
0.0000

> <Gold.Chemscore.DEClash.Weighted>
0.3516

> <Gold.Chemscore.DEInternal.Weighted>
0.6986

> <Gold.Chemscore.Rot.Weighted>
5.8307

> <Gold.Chemscore.Internal.Correction.Weighted>
   9.000000E+99

> <Gold.Protein.RotatedTorsions>
[ 6907 6896 6895 6894 ] final   -8.71 input  -60.11 | X-H torsion
[ 7974 7965 7964 7962 ] final  106.56 input  175.53 | X-H torsion
[ 8008 7997 7996 7995 ] final  161.64 input   59.86 | X-H torsion
[ 10167 10162 10161 10158 ] final  -51.74 input  -65.29 | X-H torsion
[ 10718 10713 10712 10709 ] final   15.22 input   66.30 | X-H torsion
[ 10763 10752 10751 10750 ] final  166.41 input  -60.55 | X-H torsion
[ 11005 11000 10999 10996 ] final   28.70 input  -57.11 | X-H torsion

> <Gold.Protein.ActiveResidues>
 VAL166  LYS551  ARG553  GLY616  TRP617  ASP618  TYR619  PRO620  LYS621  CYS622 
 ASP623  PHE694  ASN695  SER759  ASP760  ASP761  ALA762  ILE779  LEU786  VAL792 
 PHE793  MET794  SER795  GLU796  ALA797  LYS798  CYS799  TRP800  GLU811  SER814 

> <Gold.Protein.RotatedAtoms>
  151.4293  135.1007  159.9637 H   0  0  0  0  0  0  0  0  0  0  0  0  # atno 6907 bound_to 6896
  152.4962  133.8633  159.7272 H   0  0  0  0  0  0  0  0  0  0  0  0  # atno 6908 bound_to 6896
  150.9167  133.6872  159.2869 H   0  0  0  0  0  0  0  0  0  0  0  0  # atno 6909 bound_to 6896
  145.3051  139.2557  143.3793 H   0  0  0  0  0  0  0  0  0  0  0  0  # atno 7974 bound_to 7965
  156.2089  140.1772  156.7740 H   0  0  0  0  0  0  0  0  0  0  0  0  # atno 8008 bound_to 7997
  154.5694  140.0685  156.8970 H   0  0  0  0  0  0  0  0  0  0  0  0  # atno 8009 bound_to 7997
  155.2701  140.3342  155.4268 H   0  0  0  0  0  0  0  0  0  0  0  0  # atno 8010 bound_to 7997
  140.6573  143.2609  151.4547 H   0  0  0  0  0  0  0  0  0  0  0  0  # atno 10167 bound_to 10162
  157.0504  130.6267  149.5767 H   0  0  0  0  0  0  0  0  0  0  0  0  # atno 10718 bound_to 10713
  154.3386  135.2754  155.2434 H   0  0  0  0  0  0  0  0  0  0  0  0  # atno 10763 bound_to 10752
  154.4715  135.5882  153.6328 H   0  0  0  0  0  0  0  0  0  0  0  0  # atno 10764 bound_to 10752
  152.9859  135.6089  154.3585 H   0  0  0  0  0  0  0  0  0  0  0  0  # atno 10765 bound_to 10752
  140.3127  134.2631  155.7731 H   0  0  0  0  0  0  0  0  0  0  0  0  # atno 11005 bound_to 11000
  146.3138  140.3574  142.8661 LP  0  0  0  0  0  0  0  0  0  0  0  0  # atno 17320 bound_to 7965
  144.9062  140.7702  143.5836 LP  0  0  0  0  0  0  0  0  0  0  0  0  # atno 17321 bound_to 7965
  139.5798  144.1735  152.1953 LP  0  0  0  0  0  0  0  0  0  0  0  0  # atno 17342 bound_to 10162
  140.1057  144.5501  150.6959 LP  0  0  0  0  0  0  0  0  0  0  0  0  # atno 17343 bound_to 10162
  156.0009  130.5088  150.7660 LP  0  0  0  0  0  0  0  0  0  0  0  0  # atno 17370 bound_to 10713
  157.5034  131.0920  151.0286 LP  0  0  0  0  0  0  0  0  0  0  0  0  # atno 17371 bound_to 10713
  141.2104  133.7719  156.9931 LP  0  0  0  0  0  0  0  0  0  0  0  0  # atno 17394 bound_to 11000
  140.1010  134.9535  157.1923 LP  0  0  0  0  0  0  0  0  0  0  0  0  # atno 17395 bound_to 11000

$$$$
