AV-unprocessed.smi:102|AV-procd|sdf|945|dock6
  -GOLD-   2262017463D 1   1.00000     0.00000
 Structure written by MMmdl.
 44 45  0  0  0  0  0  0  0  0  1 V2000
  152.8341  143.2178  160.5982 C   0  0  0  0  0  0  0  0  0  0  0  0
  151.9028  143.4494  159.4154 C   0  0  0  0  0  0  0  0  0  0  0  0
  152.2979  143.9929  158.3839 O   0  0  0  0  0  0  0  0  0  0  0  0
  150.6589  143.0038  159.6448 O   0  0  0  0  0  0  0  0  0  0  0  0
  149.6813  143.0947  158.6198 C   0  0  0  0  0  0  0  0  0  0  0  0
  149.7964  141.8992  157.6657 C   0  0  2  0  0  0  0  0  0  0  0  0
  151.0811  141.8635  157.0595 O   0  0  0  0  0  0  0  0  0  0  0  0
  150.9921  141.1414  155.8757 C   0  0  1  0  0  0  0  0  0  0  0  0
  151.3410  139.6856  156.1816 N   0  0  0  0  0  0  0  0  0  0  0  0
  150.7305  138.9601  157.2013 C   0  0  0  0  0  0  0  0  0  0  0  0
  151.0899  137.7000  157.5398 C   0  0  0  0  0  0  0  0  0  0  0  0
  150.4420  137.0702  158.5347 F   0  0  0  0  0  0  0  0  0  0  0  0
  152.1882  137.0300  156.8537 C   0  0  0  0  0  0  0  0  0  0  0  0
  152.5783  135.8860  157.0777 O   0  0  0  0  0  0  0  0  0  0  0  0
  152.8185  137.8118  155.8835 N   0  0  0  0  0  0  0  0  0  0  0  0
  152.4642  139.1160  155.5341 C   0  0  0  0  0  0  0  0  0  0  0  0
  153.1274  139.7151  154.6886 O   0  0  0  0  0  0  0  0  0  0  0  0
  149.5843  141.4056  155.2949 C   0  0  1  0  0  0  0  0  0  0  0  0
  149.0230  140.2874  154.6109 O   0  0  0  0  0  0  0  0  0  0  0  0
  147.8537  140.4066  153.9608 C   0  0  0  0  0  0  0  0  0  0  0  0
  147.3976  139.0910  153.3451 C   0  0  0  0  0  0  0  0  0  0  0  0
  147.1947  141.4388  153.8380 O   0  0  0  0  0  0  0  0  0  0  0  0
  148.7795  141.8896  156.5099 C   0  0  1  0  0  0  0  0  0  0  0  0
  147.6885  141.0363  156.8421 O   0  0  0  0  0  0  0  0  0  0  0  0
  146.8530  141.3567  157.8456 C   0  0  0  0  0  0  0  0  0  0  0  0
  145.4414  140.8365  157.6116 C   0  0  0  0  0  0  0  0  0  0  0  0
  147.1426  142.0029  158.8524 O   0  0  0  0  0  0  0  0  0  0  0  0
  153.6068  137.4030  155.4028 H   0  0  0  0  0  0  0  0  0  0  0  0
  152.5078  142.3583  161.1848 H   0  0  0  0  0  0  0  0  0  0  0  0
  152.8459  144.0951  161.2451 H   0  0  0  0  0  0  0  0  0  0  0  0
  153.8501  143.0310  160.2499 H   0  0  0  0  0  0  0  0  0  0  0  0
  148.6846  143.1255  159.0617 H   0  0  0  0  0  0  0  0  0  0  0  0
  149.8209  144.0225  158.0631 H   0  0  0  0  0  0  0  0  0  0  0  0
  149.6970  140.9845  158.2512 H   0  0  0  0  0  0  0  0  0  0  0  0
  151.7445  141.4885  155.1666 H   0  0  0  0  0  0  0  0  0  0  0  0
  149.9314  139.3998  157.7738 H   0  0  0  0  0  0  0  0  0  0  0  0
  149.6677  142.2520  154.6110 H   0  0  0  0  0  0  0  0  0  0  0  0
  147.4396  138.2899  154.0837 H   0  0  0  0  0  0  0  0  0  0  0  0
  148.0408  138.8249  152.5062 H   0  0  0  0  0  0  0  0  0  0  0  0
  146.3724  139.1733  152.9831 H   0  0  0  0  0  0  0  0  0  0  0  0
  148.4284  142.9044  156.3181 H   0  0  0  0  0  0  0  0  0  0  0  0
  145.4611  139.7664  157.4030 H   0  0  0  0  0  0  0  0  0  0  0  0
  144.9866  141.3475  156.7628 H   0  0  0  0  0  0  0  0  0  0  0  0
  144.8198  141.0054  158.4914 H   0  0  0  0  0  0  0  0  0  0  0  0
  1  2  1  0  0  0  0
  1 29  1  0  0  0  0
  1 30  1  0  0  0  0
  1 31  1  0  0  0  0
  2  3  2  0  0  0  0
  2  4  1  0  0  0  0
  4  5  1  0  0  0  0
  5  6  1  0  0  0  0
  5 32  1  0  0  0  0
  5 33  1  0  0  0  0
  6 23  1  0  0  0  0
  6  7  1  0  0  0  0
  6 34  1  0  0  0  0
  7  8  1  0  0  0  0
  8  9  1  0  0  0  0
  8 18  1  0  0  0  0
  8 35  1  0  0  0  0
  9 16  1  0  0  0  0
  9 10  1  0  0  0  0
 10 11  2  0  0  0  0
 10 36  1  0  0  0  0
 11 12  1  0  0  0  0
 11 13  1  0  0  0  0
 13 14  2  0  0  0  0
 13 15  1  0  0  0  0
 15 28  1  0  0  0  0
 15 16  1  0  0  0  0
 16 17  2  0  0  0  0
 18 19  1  0  0  0  0
 18 23  1  0  0  0  0
 18 37  1  0  0  0  0
 19 20  1  0  0  0  0
 20 21  1  0  0  0  0
 20 22  2  0  0  0  0
 21 38  1  0  0  0  0
 21 39  1  0  0  0  0
 21 40  1  0  0  0  0
 23 24  1  0  0  0  0
 23 41  1  0  0  0  0
 24 25  1  0  0  0  0
 25 26  1  0  0  0  0
 25 27  2  0  0  0  0
 26 42  1  0  0  0  0
 26 43  1  0  0  0  0
 26 44  1  0  0  0  0
M  END
> <s_m_source_file>
AV-unprocessed.smi

> <i_m_source_file_index>
102

> <i_lp_mmshare_version>
43012

> <i_f3d_flags>
0

> <s_epik_input>
W0NIM11DKD1PKU9bQ0gyXVtDQEBIXTFPW0NASF0oW0NAQEhdKE9DKD1PKVtDSDNdKVtDQEhdMU9DKD1PKVtDSDNdKW4yW2NIXWMoRiljKD1PKVtuSF1jMj1P

> <s_epik_cmdline>
J2VwaWtfcHl0aG9uJywgJy1waCcsICc3LjAnLCAnLXRuJywgJzgnLCAnLW1hJywgJzIwMCcsICctbWV0YWxfYmluZGluZycsICctaW1hZScsICc8aW5maWxlLm1hZT4nLCAnLW9tYWUnLCAnPG91dGZpbGUubWFlPic=

> <r_lp_tautomer_probability>
0.999537

> <r_epik_Ionization_Penalty>
0.058267

> <r_epik_Ionization_Penalty_Charging>
0.058267

> <r_epik_Ionization_Penalty_Neutral>
6.57791e-16

> <r_epik_State_Penalty>
0.0503774

> <r_epik_Charging_Adjusted_Penalty>
0.108644

> <i_epik_Tot_Q>
0

> <i_epik_Tot_abs_Q>
0

> <r_epik_Metal_State_Penalty>
2.6644

> <b_epik_Metal_Only>
0

> <s_epik_Chemistry_Notes>
This compound has an ester and may undergo hydrolysis at high or low pH. This compound contains an acetal/aminal-like group ( X-CH(R)-Y where X, Y are N, S, or O) that may be acid/base labile, releasing an aldehyde.

> <s_lp_Force_Field>
OPLS_2005

> <r_lp_Energy>
14.9607

> <b_lp_Chiralities_Consistent>
1

> <s_lp_Variant>
AV-unprocessed.smi:102-1

> <Gold.Version>
5.8.1

> <Gold.Id.Protein>
6NUR|6NUR_protein|mol2

> <Gold.PLP.Fitness>
42.2557

> <Gold.PLP.PLP>
-35.7007

> <Gold.PLP.part.hbond>
-5.0000

> <Gold.PLP.part.metal>
0.0000

> <Gold.PLP.part.buried>
-5.3535

> <Gold.PLP.part.nonpolar>
-27.2362

> <Gold.PLP.part.repulsive>
0.9517

> <Gold.PLP.ligand.clash>
0.0000

> <Gold.PLP.ligand.torsion>
0.6162

> <Gold.PLP.Chemscore.Hbond>
2.5309

> <Gold.PLP.Chemscore.CHOScore>
0.0000

> <Gold.PLP.Chemscore.Metal>
0.0000

> <Gold.Chemscore.Hbonds>
donor molecule, donor type, donor heavy atom, donor atom, acceptor molecule, acceptor atom, score
      P1  H  6934  6946       L1    27  0.37
      P1  H  7989  7998       L1    17  0.18
      P1  H  7997  8009       L1    17  0.90
      P1  H 10752 10764       L1    14  0.96

> <Gold.PLP.Chemscore.Internal.Correction>
0.1947

> <Gold.Rescore>
     Score         DG    S(hbond)    S(metal)    S(lipo)     H(rot)  DE(clash)    DE(int)     intcor
      1.75      -6.48       1.84        0.00      44.69       4.05       1.42       3.32       ----

> <Gold.Chemscore.Fitness>
1.7499

> <Gold.Chemscore.DG>
-6.4845

> <Gold.Chemscore.ZeroCoef>
-5.4800

> <Gold.Chemscore.Hbond>
1.8410

> <Gold.Chemscore.Metal>
0.0000

> <Gold.Chemscore.Lipo>
44.6897

> <Gold.Chemscore.Internal_Hbond>
0.0000

> <Gold.Chemscore.DEClash>
1.4151

> <Gold.Chemscore.DEInternal>
3.3195

> <Gold.Chemscore.Rot>
4.0520

> <Gold.Chemscore.Internal.Correction>
   9.000000E+99

> <Gold.Chemscore.Hbonds>
donor molecule, donor type, donor heavy atom, donor atom, acceptor molecule, acceptor atom, score
      P1  H  6934  6946       L1    27  0.31
      P1  H  7989  7998       L1    17  0.11
      P1  H  7997  8009       L1    17  0.18
      P1  H 10752 10764       L1    14  0.36

> <Gold.Chemscore.Hbond.Weighted>
-6.1490

> <Gold.Chemscore.Metal.Weighted>
-0.0000

> <Gold.Chemscore.Lipo.Weighted>
-5.2287

> <Gold.Chemscore.Internal_Hbond.Weighted>
0.0000

> <Gold.Chemscore.DEClash.Weighted>
1.4151

> <Gold.Chemscore.DEInternal.Weighted>
3.3195

> <Gold.Chemscore.Rot.Weighted>
10.3732

> <Gold.Chemscore.Internal.Correction.Weighted>
   9.000000E+99

> <Gold.Protein.RotatedTorsions>
[ 6907 6896 6895 6894 ] final -162.26 input  -60.11 | X-H torsion
[ 7974 7965 7964 7962 ] final -178.97 input  175.53 | X-H torsion
[ 8008 7997 7996 7995 ] final -128.89 input   59.86 | X-H torsion
[ 10167 10162 10161 10158 ] final -134.89 input  -65.29 | X-H torsion
[ 10718 10713 10712 10709 ] final -170.80 input   66.30 | X-H torsion
[ 10763 10752 10751 10750 ] final   -2.37 input  -60.55 | X-H torsion
[ 11005 11000 10999 10996 ] final -111.26 input  -57.11 | X-H torsion

> <Gold.Protein.ActiveResidues>
 VAL166  LYS551  ARG553  GLY616  TRP617  ASP618  TYR619  PRO620  LYS621  CYS622 
 ASP623  PHE694  ASN695  SER759  ASP760  ASP761  ALA762  ILE779  LEU786  VAL792 
 PHE793  MET794  SER795  GLU796  ALA797  LYS798  CYS799  TRP800  GLU811  SER814 

> <Gold.Protein.RotatedAtoms>
  151.3775  133.3833  159.2706 H   0  0  0  0  0  0  0  0  0  0  0  0  # atno 6907 bound_to 6896
  150.9603  134.8993  159.7737 H   0  0  0  0  0  0  0  0  0  0  0  0  # atno 6908 bound_to 6896
  152.5147  134.3734  159.9378 H   0  0  0  0  0  0  0  0  0  0  0  0  # atno 6909 bound_to 6896
  144.7134  140.0787  143.6426 H   0  0  0  0  0  0  0  0  0  0  0  0  # atno 7974 bound_to 7965
  155.2701  140.0439  157.3006 H   0  0  0  0  0  0  0  0  0  0  0  0  # atno 8008 bound_to 7997
  154.5658  140.2359  155.8234 H   0  0  0  0  0  0  0  0  0  0  0  0  # atno 8009 bound_to 7997
  156.2084  140.3006  155.9686 H   0  0  0  0  0  0  0  0  0  0  0  0  # atno 8010 bound_to 7997
  139.8834  143.6811  152.2624 H   0  0  0  0  0  0  0  0  0  0  0  0  # atno 10167 bound_to 10162
  156.7315  130.9308  151.3104 H   0  0  0  0  0  0  0  0  0  0  0  0  # atno 10718 bound_to 10713
  153.3572  135.6988  153.6741 H   0  0  0  0  0  0  0  0  0  0  0  0  # atno 10763 bound_to 10752
  153.5444  135.3566  155.2733 H   0  0  0  0  0  0  0  0  0  0  0  0  # atno 10764 bound_to 10752
  154.8662  135.4211  154.2821 H   0  0  0  0  0  0  0  0  0  0  0  0  # atno 10765 bound_to 10752
  141.0744  133.9325  157.2419 H   0  0  0  0  0  0  0  0  0  0  0  0  # atno 11005 bound_to 11000
  145.9720  139.2877  143.1093 LP  0  0  0  0  0  0  0  0  0  0  0  0  # atno 17320 bound_to 7965
  145.9105  140.9183  143.0456 LP  0  0  0  0  0  0  0  0  0  0  0  0  # atno 17321 bound_to 7965
  139.7175  144.7609  151.1010 LP  0  0  0  0  0  0  0  0  0  0  0  0  # atno 17342 bound_to 10162
  140.7740  143.5250  150.9491 LP  0  0  0  0  0  0  0  0  0  0  0  0  # atno 17343 bound_to 10162
  157.6856  130.9183  150.0379 LP  0  0  0  0  0  0  0  0  0  0  0  0  # atno 17370 bound_to 10713
  156.1525  130.3642  149.9417 LP  0  0  0  0  0  0  0  0  0  0  0  0  # atno 17371 bound_to 10713
  139.9557  135.0166  156.9120 LP  0  0  0  0  0  0  0  0  0  0  0  0  # atno 17394 bound_to 11000
  140.5604  134.0540  155.7397 LP  0  0  0  0  0  0  0  0  0  0  0  0  # atno 17395 bound_to 11000

$$$$
