AV-unprocessed.smi:719|AV-procd|sdf|3494|dock10
  -GOLD-   22720 0493D 1   1.00000     0.00000
 Structure written by MMmdl.
 41 43  0  0  0  0  0  0  0  0  1 V2000
  147.3203  139.2486  151.2389 C   0  0  0  0  0  0  0  0  0  0  0  0
  147.0347  139.4851  152.7259 C   0  0  0  0  0  0  0  0  0  0  0  0
  148.1588  140.2022  153.4144 C   0  0  0  0  0  0  0  0  0  0  0  0
  149.2790  139.4777  153.8332 N   0  0  0  0  0  0  0  0  0  0  0  0
  150.1919  140.2422  154.4357 C   0  0  0  0  0  0  0  0  0  0  0  0
  151.4917  139.7225  154.9512 C   0  0  0  0  0  0  0  0  0  0  0  0
  151.3790  139.1891  156.3887 C   0  0  0  0  0  0  0  0  0  0  0  0
  151.3333  140.2700  157.3667 N   0  0  0  0  0  0  0  0  0  0  0  0
  152.2542  140.4916  158.3171 C   0  0  0  0  0  0  0  0  0  0  0  0
  153.2596  139.7928  158.4528 O   0  0  0  0  0  0  0  0  0  0  0  0
  151.9514  141.6635  159.1926 C   0  0  2  0  0  0  0  0  0  0  0  0
  152.8879  142.8555  159.1110 C   0  0  1  0  0  0  0  0  0  0  0  0
  152.4707  144.2411  159.5472 C   0  0  0  0  0  0  0  0  0  0  0  0
  151.9012  144.0785  160.9672 C   0  0  0  0  0  0  0  0  0  0  0  0
  152.5309  142.7903  161.5253 C   0  0  0  0  0  0  0  0  0  0  0  0
  152.9237  141.9691  160.3186 C   0  0  1  0  0  0  0  0  0  0  0  0
  149.7406  141.9399  154.4952 S   0  0  0  0  0  0  0  0  0  0  0  0
  148.2438  141.5476  153.6880 C   0  0  0  0  0  0  0  0  0  0  0  0
  147.2441  142.6106  153.3731 C   0  0  0  0  0  0  0  0  0  0  0  0
  146.4870  138.7336  150.7606 H   0  0  0  0  0  0  0  0  0  0  0  0
  148.2126  138.6374  151.1011 H   0  0  0  0  0  0  0  0  0  0  0  0
  147.4747  140.1917  150.7138 H   0  0  0  0  0  0  0  0  0  0  0  0
  146.1068  140.0484  152.8279 H   0  0  0  0  0  0  0  0  0  0  0  0
  146.8522  138.5258  153.2116 H   0  0  0  0  0  0  0  0  0  0  0  0
  151.8372  138.9371  154.2783 H   0  0  0  0  0  0  0  0  0  0  0  0
  152.2318  140.5220  154.9034 H   0  0  0  0  0  0  0  0  0  0  0  0
  150.4669  138.6010  156.4944 H   0  0  0  0  0  0  0  0  0  0  0  0
  152.2095  138.5177  156.6141 H   0  0  0  0  0  0  0  0  0  0  0  0
  150.5395  140.8927  157.3215 H   0  0  0  0  0  0  0  0  0  0  0  0
  150.8979  141.8725  159.3735 H   0  0  0  0  0  0  0  0  0  0  0  0
  153.7178  142.8070  158.4077 H   0  0  0  0  0  0  0  0  0  0  0  0
  153.3518  144.8834  159.5631 H   0  0  0  0  0  0  0  0  0  0  0  0
  151.7477  144.6694  158.8527 H   0  0  0  0  0  0  0  0  0  0  0  0
  152.0957  144.9468  161.5974 H   0  0  0  0  0  0  0  0  0  0  0  0
  150.8191  143.9543  160.9090 H   0  0  0  0  0  0  0  0  0  0  0  0
  153.4297  143.0246  162.0969 H   0  0  0  0  0  0  0  0  0  0  0  0
  151.8493  142.2362  162.1711 H   0  0  0  0  0  0  0  0  0  0  0  0
  153.7800  141.3096  160.4513 H   0  0  0  0  0  0  0  0  0  0  0  0
  146.9714  142.5847  152.3178 H   0  0  0  0  0  0  0  0  0  0  0  0
  147.6390  143.6030  153.5923 H   0  0  0  0  0  0  0  0  0  0  0  0
  146.3364  142.4729  153.9608 H   0  0  0  0  0  0  0  0  0  0  0  0
  1  2  1  0  0  0  0
  1 20  1  0  0  0  0
  1 21  1  0  0  0  0
  1 22  1  0  0  0  0
  2  3  1  0  0  0  0
  2 23  1  0  0  0  0
  2 24  1  0  0  0  0
  3 18  2  0  0  0  0
  3  4  1  0  0  0  0
  4  5  2  0  0  0  0
  5  6  1  0  0  0  0
  5 17  1  0  0  0  0
  6  7  1  0  0  0  0
  6 25  1  0  0  0  0
  6 26  1  0  0  0  0
  7  8  1  0  0  0  0
  7 27  1  0  0  0  0
  7 28  1  0  0  0  0
  8  9  1  0  0  0  0
  8 29  1  0  0  0  0
  9 10  2  0  0  0  0
  9 11  1  0  0  0  0
 11 16  1  0  0  0  0
 11 12  1  0  0  0  0
 11 30  1  0  0  0  0
 12 16  1  0  0  0  0
 12 13  1  0  0  0  0
 12 31  1  0  0  0  0
 13 14  1  0  0  0  0
 13 32  1  0  0  0  0
 13 33  1  0  0  0  0
 14 15  1  0  0  0  0
 14 34  1  0  0  0  0
 14 35  1  0  0  0  0
 15 16  1  0  0  0  0
 15 36  1  0  0  0  0
 15 37  1  0  0  0  0
 16 38  1  0  0  0  0
 17 18  1  0  0  0  0
 18 19  1  0  0  0  0
 19 39  1  0  0  0  0
 19 40  1  0  0  0  0
 19 41  1  0  0  0  0
M  END
> <s_m_source_file>
AV-unprocessed.smi

> <i_m_source_file_index>
719

> <i_lp_mmshare_version>
43012

> <i_f3d_flags>
0

> <s_epik_input>
W0NIM11bQ0gyXWMxbmMoc2MxW0NIM10pW0NIMl1bQ0gyXVtOSF1DKD1PKVtDQEhdMltDQEhdKFtDQEBIXTIzKVtDSDJdW0NIMl1bQ0gyXTM=

> <s_epik_cmdline>
J2VwaWtfcHl0aG9uJywgJy1waCcsICc3LjAnLCAnLXRuJywgJzgnLCAnLW1hJywgJzIwMCcsICctbWV0YWxfYmluZGluZycsICctaW1hZScsICc8aW5maWxlLm1hZT4nLCAnLW9tYWUnLCAnPG91dGZpbGUubWFlPic=

> <r_epik_Ionization_Penalty>
0.00247473

> <r_epik_Ionization_Penalty_Charging>
0

> <r_epik_Ionization_Penalty_Neutral>
0.00247473

> <r_epik_State_Penalty>
0.00171502

> <r_epik_Charging_Adjusted_Penalty>
0.00171502

> <i_epik_Tot_Q>
0

> <i_epik_Tot_abs_Q>
0

> <r_epik_Metal_State_Penalty>
-0

> <b_epik_Metal_Only>
0

> <s_lp_Force_Field>
OPLS_2005

> <r_lp_Energy>
19.4586

> <b_lp_Chiralities_Consistent>
1

> <s_lp_Variant>
AV-unprocessed.smi:719-2

> <Gold.Version>
5.8.1

> <Gold.Id.Protein>
6NUR|6NUR_protein|mol2

> <Gold.PLP.Fitness>
49.1695

> <Gold.PLP.PLP>
-47.6291

> <Gold.PLP.part.hbond>
-1.0000

> <Gold.PLP.part.metal>
0.0000

> <Gold.PLP.part.buried>
1.0048

> <Gold.PLP.part.nonpolar>
-45.6513

> <Gold.PLP.part.repulsive>
0.2367

> <Gold.PLP.ligand.clash>
0.0000

> <Gold.PLP.ligand.torsion>
0.7716

> <Gold.PLP.Chemscore.Hbond>
1.0000

> <Gold.PLP.Chemscore.CHOScore>
0.0000

> <Gold.PLP.Chemscore.Metal>
0.0000

> <Gold.Chemscore.Hbonds>
donor molecule, donor type, donor heavy atom, donor atom, acceptor molecule, acceptor atom, score
      P1  H  7997  8010       L1    10  1.00

> <Gold.PLP.Chemscore.Internal.Correction>
0.0835

> <Gold.Rescore>
     Score         DG    S(hbond)    S(metal)    S(lipo)     H(rot)  DE(clash)    DE(int)     intcor
     19.72     -20.43       0.98        0.00     130.96       1.42       0.09       0.62       ----

> <Gold.Chemscore.Fitness>
19.7223

> <Gold.Chemscore.DG>
-20.4310

> <Gold.Chemscore.ZeroCoef>
-5.4800

> <Gold.Chemscore.Hbond>
0.9779

> <Gold.Chemscore.Metal>
0.0000

> <Gold.Chemscore.Lipo>
130.9591

> <Gold.Chemscore.Internal_Hbond>
0.0000

> <Gold.Chemscore.DEClash>
0.0863

> <Gold.Chemscore.DEInternal>
0.6224

> <Gold.Chemscore.Rot>
1.4209

> <Gold.Chemscore.Internal.Correction>
   9.000000E+99

> <Gold.Chemscore.Hbonds>
donor molecule, donor type, donor heavy atom, donor atom, acceptor molecule, acceptor atom, score
      P1  H  7997  8010       L1    10  0.74

> <Gold.Chemscore.Hbond.Weighted>
-3.2663

> <Gold.Chemscore.Metal.Weighted>
-0.0000

> <Gold.Chemscore.Lipo.Weighted>
-15.3222

> <Gold.Chemscore.Internal_Hbond.Weighted>
0.0000

> <Gold.Chemscore.DEClash.Weighted>
0.0863

> <Gold.Chemscore.DEInternal.Weighted>
0.6224

> <Gold.Chemscore.Rot.Weighted>
3.6376

> <Gold.Chemscore.Internal.Correction.Weighted>
   9.000000E+99

> <Gold.Protein.RotatedTorsions>
[ 6907 6896 6895 6894 ] final -173.92 input  -60.11 | X-H torsion
[ 7974 7965 7964 7962 ] final   24.21 input  175.53 | X-H torsion
[ 8008 7997 7996 7995 ] final   43.12 input   59.86 | X-H torsion
[ 10167 10162 10161 10158 ] final   95.67 input  -65.29 | X-H torsion
[ 10718 10713 10712 10709 ] final  -49.08 input   66.30 | X-H torsion
[ 10763 10752 10751 10750 ] final -167.42 input  -60.55 | X-H torsion
[ 11005 11000 10999 10996 ] final -167.67 input  -57.11 | X-H torsion

> <Gold.Protein.ActiveResidues>
 VAL166  LYS551  ARG553  GLY616  TRP617  ASP618  TYR619  PRO620  LYS621  CYS622 
 ASP623  PHE694  ASN695  SER759  ASP760  ASP761  ALA762  ILE779  LEU786  VAL792 
 PHE793  MET794  SER795  GLU796  ALA797  LYS798  CYS799  TRP800  GLU811  SER814 

> <Gold.Protein.RotatedAtoms>
  151.5640  133.3399  159.2976 H   0  0  0  0  0  0  0  0  0  0  0  0  # atno 6907 bound_to 6896
  150.8406  134.7699  159.6940 H   0  0  0  0  0  0  0  0  0  0  0  0  # atno 6908 bound_to 6896
  152.4474  134.5473  159.9908 H   0  0  0  0  0  0  0  0  0  0  0  0  # atno 6909 bound_to 6896
  146.1948  139.7636  142.8805 H   0  0  0  0  0  0  0  0  0  0  0  0  # atno 7974 bound_to 7965
  155.2975  140.3383  155.4249 H   0  0  0  0  0  0  0  0  0  0  0  0  # atno 8008 bound_to 7997
  156.2017  140.1735  156.7925 H   0  0  0  0  0  0  0  0  0  0  0  0  # atno 8009 bound_to 7997
  154.5567  140.0695  156.8739 H   0  0  0  0  0  0  0  0  0  0  0  0  # atno 8010 bound_to 7997
  139.7967  144.6830  150.9819 H   0  0  0  0  0  0  0  0  0  0  0  0  # atno 10167 bound_to 10162
  156.1927  130.4153  149.9349 H   0  0  0  0  0  0  0  0  0  0  0  0  # atno 10718 bound_to 10713
  154.6734  135.2943  154.9712 H   0  0  0  0  0  0  0  0  0  0  0  0  # atno 10763 bound_to 10752
  154.0731  135.6615  153.4831 H   0  0  0  0  0  0  0  0  0  0  0  0  # atno 10764 bound_to 10752
  153.0501  135.5179  154.7741 H   0  0  0  0  0  0  0  0  0  0  0  0  # atno 10765 bound_to 10752
  140.5506  134.5432  157.5121 H   0  0  0  0  0  0  0  0  0  0  0  0  # atno 11005 bound_to 11000
  145.3678  141.0337  143.3248 LP  0  0  0  0  0  0  0  0  0  0  0  0  # atno 17320 bound_to 7965
  144.8558  139.5251  143.6835 LP  0  0  0  0  0  0  0  0  0  0  0  0  # atno 17321 bound_to 7965
  140.7820  143.4324  151.0674 LP  0  0  0  0  0  0  0  0  0  0  0  0  # atno 17342 bound_to 10162
  139.7998  143.8100  152.3161 LP  0  0  0  0  0  0  0  0  0  0  0  0  # atno 17343 bound_to 10162
  156.7084  130.8960  151.3607 LP  0  0  0  0  0  0  0  0  0  0  0  0  # atno 17370 bound_to 10713
  157.6939  130.9261  150.0589 LP  0  0  0  0  0  0  0  0  0  0  0  0  # atno 17371 bound_to 10713
  139.9457  134.7706  156.0568 LP  0  0  0  0  0  0  0  0  0  0  0  0  # atno 17394 bound_to 11000
  141.1174  133.6623  156.3127 LP  0  0  0  0  0  0  0  0  0  0  0  0  # atno 17395 bound_to 11000

$$$$
