AV-unprocessed.smi:2385|AV-procd|sdf|9466|dock6
  -GOLD-   2272013 93D 1   1.00000     0.00000
 Structure written by MMmdl.
 50 52  0  0  0  0  0  0  0  0  2 V2000
  153.8004  141.9127  161.3822 C   0  0  0  0  0  0  0  0  0  0  0  0
  152.7577  142.0707  160.2953 C   0  0  0  0  0  0  0  0  0  0  0  0
  152.5701  141.0801  159.3127 C   0  0  0  0  0  0  0  0  0  0  0  0
  151.5849  141.2805  158.3265 C   0  0  0  0  0  0  0  0  0  0  0  0
  150.8127  142.4640  158.3449 C   0  0  0  0  0  0  0  0  0  0  0  0
  149.8462  142.5680  157.3090 N   0  0  0  0  0  0  0  0  0  0  0  0
  149.3098  141.5797  156.5714 C   0  0  0  0  0  0  0  0  0  0  0  0
  149.5631  140.3808  156.6922 O   0  0  0  0  0  0  0  0  0  0  0  0
  148.4459  142.0625  155.6658 N   0  0  0  0  0  0  0  0  0  0  0  0
  147.6787  141.2565  154.7159 C   0  0  2  0  0  0  0  0  0  0  0  0
  147.0532  142.1165  153.6004 C   0  0  0  0  0  0  0  0  0  0  0  0
  145.9106  143.0019  154.1273 C   0  0  0  0  0  0  0  0  0  0  0  0
  144.8637  142.1910  154.8029 N   0  3  2  0  0  0  0  0  0  0  0  0
  143.6855  143.0095  155.1958 C   0  0  0  0  0  0  0  0  0  0  0  0
  144.0497  144.4713  155.5305 C   0  0  1  0  0  0  0  0  0  0  0  0
  143.7691  145.4960  154.4340 C   0  0  0  0  0  0  0  0  0  0  0  0
  143.2952  146.7466  155.1826 C   0  0  0  0  0  0  0  0  0  0  0  0
  143.4212  146.4333  156.5618 O   0  0  0  0  0  0  0  0  0  0  0  0
  143.2399  145.0356  156.6963 C   0  0  0  0  0  0  0  0  0  0  0  0
  145.4338  141.3981  155.9248 C   0  0  0  0  0  0  0  0  0  0  0  0
  146.5703  140.4770  155.4432 C   0  0  0  0  0  0  0  0  0  0  0  0
  151.0007  143.4123  159.2964 N   0  0  0  0  0  0  0  0  0  0  0  0
  151.9451  143.2196  160.2409 C   0  0  0  0  0  0  0  0  0  0  0  0
  154.3235  140.9601  161.2950 H   0  0  0  0  0  0  0  0  0  0  0  0
  153.3303  141.9548  162.3651 H   0  0  0  0  0  0  0  0  0  0  0  0
  154.5369  142.7141  161.3180 H   0  0  0  0  0  0  0  0  0  0  0  0
  153.1677  140.1801  159.3110 H   0  0  0  0  0  0  0  0  0  0  0  0
  151.4284  140.5297  157.5652 H   0  0  0  0  0  0  0  0  0  0  0  0
  149.5311  143.5046  157.1047 H   0  0  0  0  0  0  0  0  0  0  0  0
  148.2946  143.0603  155.6439 H   0  0  0  0  0  0  0  0  0  0  0  0
  148.3609  140.5339  154.2641 H   0  0  0  0  0  0  0  0  0  0  0  0
  147.8112  142.7331  153.1162 H   0  0  0  0  0  0  0  0  0  0  0  0
  146.6624  141.4598  152.8219 H   0  0  0  0  0  0  0  0  0  0  0  0
  146.2976  143.7514  154.8196 H   0  0  0  0  0  0  0  0  0  0  0  0
  145.4734  143.5436  153.2877 H   0  0  0  0  0  0  0  0  0  0  0  0
  142.9017  142.9524  154.4389 H   0  0  0  0  0  0  0  0  0  0  0  0
  143.2524  142.5776  156.0992 H   0  0  0  0  0  0  0  0  0  0  0  0
  145.1036  144.5317  155.8079 H   0  0  0  0  0  0  0  0  0  0  0  0
  144.6626  145.6986  153.8429 H   0  0  0  0  0  0  0  0  0  0  0  0
  142.9864  145.1566  153.7542 H   0  0  0  0  0  0  0  0  0  0  0  0
  143.8821  147.6307  154.9324 H   0  0  0  0  0  0  0  0  0  0  0  0
  142.2495  146.9573  154.9545 H   0  0  0  0  0  0  0  0  0  0  0  0
  142.1802  144.7924  156.6011 H   0  0  0  0  0  0  0  0  0  0  0  0
  143.5903  144.6787  157.6651 H   0  0  0  0  0  0  0  0  0  0  0  0
  145.7973  142.0729  156.7013 H   0  0  0  0  0  0  0  0  0  0  0  0
  144.6642  140.7818  156.3840 H   0  0  0  0  0  0  0  0  0  0  0  0
  146.1568  139.7284  154.7657 H   0  0  0  0  0  0  0  0  0  0  0  0
  146.9872  139.9238  156.2858 H   0  0  0  0  0  0  0  0  0  0  0  0
  152.0540  144.0052  160.9742 H   0  0  0  0  0  0  0  0  0  0  0  0
  144.5348  141.5328  154.1110 H   0  0  0  0  0  0  0  0  0  0  0  0
  1  2  1  0  0  0  0
  1 24  1  0  0  0  0
  1 25  1  0  0  0  0
  1 26  1  0  0  0  0
  2 23  1  0  0  0  0
  2  3  2  0  0  0  0
  3  4  1  0  0  0  0
  3 27  1  0  0  0  0
  4  5  2  0  0  0  0
  4 28  1  0  0  0  0
  5  6  1  0  0  0  0
  5 22  1  0  0  0  0
  6  7  1  0  0  0  0
  6 29  1  0  0  0  0
  7  8  2  0  0  0  0
  7  9  1  0  0  0  0
  9 10  1  0  0  0  0
  9 30  1  0  0  0  0
 10 21  1  0  0  0  0
 10 11  1  0  0  0  0
 10 31  1  0  0  0  0
 11 12  1  0  0  0  0
 11 32  1  0  0  0  0
 11 33  1  0  0  0  0
 12 13  1  0  0  0  0
 12 34  1  0  0  0  0
 12 35  1  0  0  0  0
 13 14  1  0  0  0  0
 13 20  1  0  0  0  0
 13 50  1  0  0  0  0
 14 15  1  0  0  0  0
 14 36  1  0  0  0  0
 14 37  1  0  0  0  0
 15 19  1  0  0  0  0
 15 16  1  0  0  0  0
 15 38  1  0  0  0  0
 16 17  1  0  0  0  0
 16 39  1  0  0  0  0
 16 40  1  0  0  0  0
 17 18  1  0  0  0  0
 17 41  1  0  0  0  0
 17 42  1  0  0  0  0
 18 19  1  0  0  0  0
 19 43  1  0  0  0  0
 19 44  1  0  0  0  0
 20 21  1  0  0  0  0
 20 45  1  0  0  0  0
 20 46  1  0  0  0  0
 21 47  1  0  0  0  0
 21 48  1  0  0  0  0
 22 23  2  0  0  0  0
 23 49  1  0  0  0  0
M  CHG  1  13   1
M  END
> <s_m_source_file>
AV-unprocessed.smi

> <i_m_source_file_index>
2385

> <i_lp_mmshare_version>
43012

> <i_f3d_flags>
0

> <s_epik_input>
W0NIM11jMVtjSF1bY0hdYyhuW2NIXTEpW05IXUMoPU8pW05IXVtDSF0yW0NIMl1bQ0gyXU4oW0NIMl1bQ0gyXTIpW0NIMl1bQ0BASF0zW0NIMl1bQ0gyXU9bQ0gyXTM=

> <s_epik_cmdline>
J2VwaWtfcHl0aG9uJywgJy1waCcsICc3LjAnLCAnLXRuJywgJzgnLCAnLW1hJywgJzIwMCcsICctbWV0YWxfYmluZGluZycsICctaW1hZScsICc8aW5maWxlLm1hZT4nLCAnLW9tYWUnLCAnPG91dGZpbGUubWFlPic=

> <r_epik_Ionization_Penalty>
0.00752367

> <r_epik_Ionization_Penalty_Charging>
0.00747775

> <r_epik_Ionization_Penalty_Neutral>
4.59207e-05

> <r_epik_State_Penalty>
0.00558817

> <r_epik_Charging_Adjusted_Penalty>
0.0130659

> <i_epik_Tot_Q>
1

> <i_epik_Tot_abs_Q>
1

> <r_epik_Metal_State_Penalty>
-0

> <b_epik_Metal_Only>
0

> <s_lp_Force_Field>
OPLS_2005

> <r_lp_Energy>
36.5339

> <b_lp_Chiralities_Consistent>
1

> <s_lp_Variant>
AV-unprocessed.smi:2385-4

> <Gold.Version>
5.8.1

> <Gold.Id.Protein>
6NUR|6NUR_protein|mol2

> <Gold.PLP.Fitness>
48.8441

> <Gold.PLP.PLP>
-39.4252

> <Gold.PLP.part.hbond>
-3.0000

> <Gold.PLP.part.metal>
0.0000

> <Gold.PLP.part.buried>
-5.4240

> <Gold.PLP.part.nonpolar>
-32.0574

> <Gold.PLP.part.repulsive>
0.2265

> <Gold.PLP.ligand.clash>
0.0000

> <Gold.PLP.ligand.torsion>
1.2172

> <Gold.PLP.Chemscore.Hbond>
3.9440

> <Gold.PLP.Chemscore.CHOScore>
0.0000

> <Gold.PLP.Chemscore.Metal>
0.0000

> <Gold.Chemscore.Hbonds>
donor molecule, donor type, donor heavy atom, donor atom, acceptor molecule, acceptor atom, score
      L1  H     6    29       P1  8028  0.91
      L1  H     9    30       P1  8028  1.00
      L1  H    13    50       P1 10175  1.69

> <Gold.PLP.Chemscore.Internal.Correction>
0.0213

> <Gold.Rescore>
     Score         DG    S(hbond)    S(metal)    S(lipo)     H(rot)  DE(clash)    DE(int)     intcor
     19.33     -22.09       2.66        0.00      96.77       1.41       0.07       2.70       ----

> <Gold.Chemscore.Fitness>
19.3278

> <Gold.Chemscore.DG>
-22.0940

> <Gold.Chemscore.ZeroCoef>
-5.4800

> <Gold.Chemscore.Hbond>
2.6616

> <Gold.Chemscore.Metal>
0.0000

> <Gold.Chemscore.Lipo>
96.7738

> <Gold.Chemscore.Internal_Hbond>
0.0000

> <Gold.Chemscore.DEClash>
0.0668

> <Gold.Chemscore.DEInternal>
2.6994

> <Gold.Chemscore.Rot>
1.4056

> <Gold.Chemscore.Internal.Correction>
   9.000000E+99

> <Gold.Chemscore.Hbonds>
donor molecule, donor type, donor heavy atom, donor atom, acceptor molecule, acceptor atom, score
      L1  H     6    29       P1  8028  0.78
      L1  H     9    30       P1  8028  0.93
      L1  H    13    50       P1 10175  0.21

> <Gold.Chemscore.Hbond.Weighted>
-8.8897

> <Gold.Chemscore.Metal.Weighted>
-0.0000

> <Gold.Chemscore.Lipo.Weighted>
-11.3225

> <Gold.Chemscore.Internal_Hbond.Weighted>
0.0000

> <Gold.Chemscore.DEClash.Weighted>
0.0668

> <Gold.Chemscore.DEInternal.Weighted>
2.6994

> <Gold.Chemscore.Rot.Weighted>
3.5982

> <Gold.Chemscore.Internal.Correction.Weighted>
   9.000000E+99

> <Gold.Protein.RotatedTorsions>
[ 6907 6896 6895 6894 ] final  157.43 input  -60.11 | X-H torsion
[ 7974 7965 7964 7962 ] final -159.97 input  175.53 | X-H torsion
[ 8008 7997 7996 7995 ] final  -63.32 input   59.86 | X-H torsion
[ 10167 10162 10161 10158 ] final -141.86 input  -65.29 | X-H torsion
[ 10718 10713 10712 10709 ] final -129.77 input   66.30 | X-H torsion
[ 10763 10752 10751 10750 ] final   37.52 input  -60.55 | X-H torsion
[ 11005 11000 10999 10996 ] final   49.74 input  -57.11 | X-H torsion

> <Gold.Protein.ActiveResidues>
 VAL166  LYS551  ARG553  GLY616  TRP617  ASP618  TYR619  PRO620  LYS621  CYS622 
 ASP623  PHE694  ASN695  SER759  ASP760  ASP761  ALA762  ILE779  LEU786  VAL792 
 PHE793  MET794  SER795  GLU796  ALA797  LYS798  CYS799  TRP800  GLU811  SER814 

> <Gold.Protein.RotatedAtoms>
  152.0152  133.3877  159.4235 H   0  0  0  0  0  0  0  0  0  0  0  0  # atno 6907 bound_to 6896
  150.6895  134.3687  159.4991 H   0  0  0  0  0  0  0  0  0  0  0  0  # atno 6908 bound_to 6896
  152.1453  134.9030  160.0602 H   0  0  0  0  0  0  0  0  0  0  0  0  # atno 6909 bound_to 6896
  144.7445  140.3609  143.6096 H   0  0  0  0  0  0  0  0  0  0  0  0  # atno 7974 bound_to 7965
  154.4548  140.0977  156.6725 H   0  0  0  0  0  0  0  0  0  0  0  0  # atno 8008 bound_to 7997
  155.5173  140.3478  155.4381 H   0  0  0  0  0  0  0  0  0  0  0  0  # atno 8009 bound_to 7997
  156.0755  140.1360  156.9766 H   0  0  0  0  0  0  0  0  0  0  0  0  # atno 8010 bound_to 7997
  139.8144  143.7658  152.2664 H   0  0  0  0  0  0  0  0  0  0  0  0  # atno 10167 bound_to 10162
  156.2079  130.6899  151.0615 H   0  0  0  0  0  0  0  0  0  0  0  0  # atno 10718 bound_to 10713
  153.0034  135.6275  154.2158 H   0  0  0  0  0  0  0  0  0  0  0  0  # atno 10763 bound_to 10752
  154.1901  135.2809  155.3026 H   0  0  0  0  0  0  0  0  0  0  0  0  # atno 10764 bound_to 10752
  154.5766  135.5660  153.7205 H   0  0  0  0  0  0  0  0  0  0  0  0  # atno 10765 bound_to 10752
  140.1077  134.4997  155.8705 H   0  0  0  0  0  0  0  0  0  0  0  0  # atno 11005 bound_to 11000
  145.7178  139.1701  143.2502 LP  0  0  0  0  0  0  0  0  0  0  0  0  # atno 17320 bound_to 7965
  146.1299  140.7199  142.9417 LP  0  0  0  0  0  0  0  0  0  0  0  0  # atno 17321 bound_to 7965
  139.7817  144.7442  151.0078 LP  0  0  0  0  0  0  0  0  0  0  0  0  # atno 17342 bound_to 10162
  140.7816  143.4535  151.0379 LP  0  0  0  0  0  0  0  0  0  0  0  0  # atno 17343 bound_to 10162
  157.7022  131.0771  150.6783 LP  0  0  0  0  0  0  0  0  0  0  0  0  # atno 17370 bound_to 10713
  156.6842  130.4576  149.5619 LP  0  0  0  0  0  0  0  0  0  0  0  0  # atno 17371 bound_to 10713
  141.2122  133.6717  156.6643 LP  0  0  0  0  0  0  0  0  0  0  0  0  # atno 17394 bound_to 11000
  140.3134  134.8068  157.4194 LP  0  0  0  0  0  0  0  0  0  0  0  0  # atno 17395 bound_to 11000

$$$$
