AV-unprocessed.smi:1236|AV-procd|sdf|5181|dock5
  -GOLD-   22720 4263D 1   1.00000     0.00000
 Structure written by MMmdl.
 40 41  0  0  0  0  0  0  0  0  2 V2000
  149.1372  139.2917  154.4362 C   0  0  0  0  0  0  0  0  0  0  0  0
  148.0506  140.2909  154.8561 C   0  0  2  0  0  0  0  0  0  0  0  0
  147.2031  140.7392  153.6423 C   0  0  0  0  0  0  0  0  0  0  0  0
  146.0621  141.6120  154.0180 N   0  3  0  0  0  0  0  0  0  0  0  0
  145.5867  141.3881  155.4028 C   0  0  0  0  0  0  0  0  0  0  0  0
  144.3531  142.2622  155.6879 C   0  0  0  0  0  0  0  0  0  0  0  0
  144.6709  143.6300  155.4604 O   0  0  0  0  0  0  0  0  0  0  0  0
  145.0559  143.8715  154.1123 C   0  0  0  0  0  0  0  0  0  0  0  0
  146.3163  143.0543  153.7853 C   0  0  0  0  0  0  0  0  0  0  0  0
  148.6844  141.4322  155.5191 N   0  0  0  0  0  0  0  0  0  0  0  0
  149.6321  141.3664  156.4670 C   0  0  0  0  0  0  0  0  0  0  0  0
  150.0701  140.3058  156.9136 O   0  0  0  0  0  0  0  0  0  0  0  0
  150.0169  142.5930  156.8601 N   0  0  0  0  0  0  0  0  0  0  0  0
  150.9455  142.9344  157.8795 C   0  0  0  0  0  0  0  0  0  0  0  0
  151.2844  144.3047  157.9470 C   0  0  0  0  0  0  0  0  0  0  0  0
  152.1937  144.7462  158.9276 C   0  0  0  0  0  0  0  0  0  0  0  0
  152.7411  143.8044  159.8168 C   0  0  0  0  0  0  0  0  0  0  0  0
  152.3503  142.4595  159.6821 C   0  0  0  0  0  0  0  0  0  0  0  0
  151.4773  142.0346  158.7442 N   0  0  0  0  0  0  0  0  0  0  0  0
  148.6976  138.4051  153.9783 H   0  0  0  0  0  0  0  0  0  0  0  0
  149.7209  138.9607  155.2959 H   0  0  0  0  0  0  0  0  0  0  0  0
  149.8267  139.7315  153.7147 H   0  0  0  0  0  0  0  0  0  0  0  0
  147.4095  139.7747  155.5721 H   0  0  0  0  0  0  0  0  0  0  0  0
  147.8561  141.2812  152.9562 H   0  0  0  0  0  0  0  0  0  0  0  0
  146.8339  139.8749  153.0880 H   0  0  0  0  0  0  0  0  0  0  0  0
  145.3295  140.3374  155.5430 H   0  0  0  0  0  0  0  0  0  0  0  0
  146.3862  141.6216  156.1078 H   0  0  0  0  0  0  0  0  0  0  0  0
  143.5116  141.9633  155.0608 H   0  0  0  0  0  0  0  0  0  0  0  0
  144.0377  142.1404  156.7242 H   0  0  0  0  0  0  0  0  0  0  0  0
  144.2392  143.6161  153.4348 H   0  0  0  0  0  0  0  0  0  0  0  0
  145.2543  144.9357  153.9859 H   0  0  0  0  0  0  0  0  0  0  0  0
  147.1495  143.3873  154.4060 H   0  0  0  0  0  0  0  0  0  0  0  0
  146.6016  143.2286  152.7482 H   0  0  0  0  0  0  0  0  0  0  0  0
  148.3883  142.3483  155.2144 H   0  0  0  0  0  0  0  0  0  0  0  0
  149.5851  143.3740  156.3883 H   0  0  0  0  0  0  0  0  0  0  0  0
  150.8548  145.0154  157.2557 H   0  0  0  0  0  0  0  0  0  0  0  0
  152.4655  145.7892  158.9956 H   0  0  0  0  0  0  0  0  0  0  0  0
  153.4420  144.1048  160.5817 H   0  0  0  0  0  0  0  0  0  0  0  0
  152.7471  141.7051  160.3448 H   0  0  0  0  0  0  0  0  0  0  0  0
  145.2963  141.3513  153.4127 H   0  0  0  0  0  0  0  0  0  0  0  0
  1  2  1  0  0  0  0
  1 20  1  0  0  0  0
  1 21  1  0  0  0  0
  1 22  1  0  0  0  0
  2  3  1  0  0  0  0
  2 10  1  0  0  0  0
  2 23  1  0  0  0  0
  3  4  1  0  0  0  0
  3 24  1  0  0  0  0
  3 25  1  0  0  0  0
  4  9  1  0  0  0  0
  4  5  1  0  0  0  0
  4 40  1  0  0  0  0
  5  6  1  0  0  0  0
  5 26  1  0  0  0  0
  5 27  1  0  0  0  0
  6  7  1  0  0  0  0
  6 28  1  0  0  0  0
  6 29  1  0  0  0  0
  7  8  1  0  0  0  0
  8  9  1  0  0  0  0
  8 30  1  0  0  0  0
  8 31  1  0  0  0  0
  9 32  1  0  0  0  0
  9 33  1  0  0  0  0
 10 11  1  0  0  0  0
 10 34  1  0  0  0  0
 11 12  2  0  0  0  0
 11 13  1  0  0  0  0
 13 14  1  0  0  0  0
 13 35  1  0  0  0  0
 14 19  1  0  0  0  0
 14 15  2  0  0  0  0
 15 16  1  0  0  0  0
 15 36  1  0  0  0  0
 16 17  2  0  0  0  0
 16 37  1  0  0  0  0
 17 18  1  0  0  0  0
 17 38  1  0  0  0  0
 18 19  2  0  0  0  0
 18 39  1  0  0  0  0
M  CHG  1   4   1
M  END
> <s_m_source_file>
AV-unprocessed.smi

> <i_m_source_file_index>
1236

> <i_lp_mmshare_version>
43012

> <i_f3d_flags>
0

> <s_epik_input>
W0NIMl0xW0NIMl1PW0NIMl1bQ0gyXU4xW0NIMl1bQ0BASF0oW0NIM10pW05IXUMoPU8pW05IXWMyW2NIXVtjSF1bY0hdW2NIXW4y

> <s_epik_cmdline>
J2VwaWtfcHl0aG9uJywgJy1waCcsICc3LjAnLCAnLXRuJywgJzgnLCAnLW1hJywgJzIwMCcsICctbWV0YWxfYmluZGluZycsICctaW1hZScsICc8aW5maWxlLm1hZT4nLCAnLW9tYWUnLCAnPG91dGZpbGUubWFlPic=

> <r_epik_Ionization_Penalty>
0.602564

> <r_epik_Ionization_Penalty_Charging>
0.602531

> <r_epik_Ionization_Penalty_Neutral>
3.36306e-05

> <r_epik_State_Penalty>
0.617039

> <r_epik_Charging_Adjusted_Penalty>
1.21957

> <i_epik_Tot_Q>
1

> <i_epik_Tot_abs_Q>
1

> <r_epik_Metal_State_Penalty>
0.617041

> <b_epik_Metal_Only>
0

> <s_lp_Force_Field>
OPLS_2005

> <r_lp_Energy>
24.2739

> <b_lp_Chiralities_Consistent>
1

> <s_lp_Variant>
AV-unprocessed.smi:1236-3

> <Gold.Version>
5.8.1

> <Gold.Id.Protein>
6NUR|6NUR_protein|mol2

> <Gold.PLP.Fitness>
44.7234

> <Gold.PLP.PLP>
-37.0863

> <Gold.PLP.part.hbond>
-2.1043

> <Gold.PLP.part.metal>
0.0000

> <Gold.PLP.part.buried>
-6.9785

> <Gold.PLP.part.nonpolar>
-30.9436

> <Gold.PLP.part.repulsive>
0.2975

> <Gold.PLP.ligand.clash>
0.0000

> <Gold.PLP.ligand.torsion>
0.6647

> <Gold.PLP.Chemscore.Hbond>
2.9825

> <Gold.PLP.Chemscore.CHOScore>
0.0000

> <Gold.PLP.Chemscore.Metal>
0.0000

> <Gold.Chemscore.Hbonds>
donor molecule, donor type, donor heavy atom, donor atom, acceptor molecule, acceptor atom, score
      L1  H     4    40       P1 10175  1.76
      L1  H    13    35       P1  8028  1.00

> <Gold.PLP.Chemscore.Internal.Correction>
0.0191

> <Gold.Rescore>
     Score         DG    S(hbond)    S(metal)    S(lipo)     H(rot)  DE(clash)    DE(int)     intcor
     14.36     -17.60       1.86        0.00      84.47       1.56       0.01       3.22       ----

> <Gold.Chemscore.Fitness>
14.3596

> <Gold.Chemscore.DG>
-17.5951

> <Gold.Chemscore.ZeroCoef>
-5.4800

> <Gold.Chemscore.Hbond>
1.8627

> <Gold.Chemscore.Metal>
0.0000

> <Gold.Chemscore.Lipo>
84.4740

> <Gold.Chemscore.Internal_Hbond>
0.0000

> <Gold.Chemscore.DEClash>
0.0144

> <Gold.Chemscore.DEInternal>
3.2211

> <Gold.Chemscore.Rot>
1.5584

> <Gold.Chemscore.Internal.Correction>
   9.000000E+99

> <Gold.Chemscore.Hbonds>
donor molecule, donor type, donor heavy atom, donor atom, acceptor molecule, acceptor atom, score
      L1  H     4    40       P1 10175  0.16
      L1  H    10    34       P1  8028  0.04
      L1  H    13    35       P1  8028  1.00

> <Gold.Chemscore.Hbond.Weighted>
-6.2213

> <Gold.Chemscore.Metal.Weighted>
-0.0000

> <Gold.Chemscore.Lipo.Weighted>
-9.8835

> <Gold.Chemscore.Internal_Hbond.Weighted>
0.0000

> <Gold.Chemscore.DEClash.Weighted>
0.0144

> <Gold.Chemscore.DEInternal.Weighted>
3.2211

> <Gold.Chemscore.Rot.Weighted>
3.9896

> <Gold.Chemscore.Internal.Correction.Weighted>
   9.000000E+99

> <Gold.Protein.RotatedTorsions>
[ 6907 6896 6895 6894 ] final   -3.90 input  -60.11 | X-H torsion
[ 7974 7965 7964 7962 ] final  165.15 input  175.53 | X-H torsion
[ 8008 7997 7996 7995 ] final -156.40 input   59.86 | X-H torsion
[ 10167 10162 10161 10158 ] final   91.31 input  -65.29 | X-H torsion
[ 10718 10713 10712 10709 ] final  -50.34 input   66.30 | X-H torsion
[ 10763 10752 10751 10750 ] final  -47.71 input  -60.55 | X-H torsion
[ 11005 11000 10999 10996 ] final   67.23 input  -57.11 | X-H torsion

> <Gold.Protein.ActiveResidues>
 VAL166  LYS551  ARG553  GLY616  TRP617  ASP618  TYR619  PRO620  LYS621  CYS622 
 ASP623  PHE694  ASN695  SER759  ASP760  ASP761  ALA762  ILE779  LEU786  VAL792 
 PHE793  MET794  SER795  GLU796  ALA797  LYS798  CYS799  TRP800  GLU811  SER814 

> <Gold.Protein.RotatedAtoms>
  151.5064  135.1063  159.9842 H   0  0  0  0  0  0  0  0  0  0  0  0  # atno 6907 bound_to 6896
  152.4680  133.7962  159.6939 H   0  0  0  0  0  0  0  0  0  0  0  0  # atno 6908 bound_to 6896
  150.8674  133.7491  159.2998 H   0  0  0  0  0  0  0  0  0  0  0  0  # atno 6909 bound_to 6896
  144.7515  139.8428  143.6364 H   0  0  0  0  0  0  0  0  0  0  0  0  # atno 7974 bound_to 7965
  155.7165  140.0785  157.2349 H   0  0  0  0  0  0  0  0  0  0  0  0  # atno 8008 bound_to 7997
  154.4051  140.1620  156.2409 H   0  0  0  0  0  0  0  0  0  0  0  0  # atno 8009 bound_to 7997
  155.9235  140.3396  155.6194 H   0  0  0  0  0  0  0  0  0  0  0  0  # atno 8010 bound_to 7997
  139.8387  144.6652  150.9310 H   0  0  0  0  0  0  0  0  0  0  0  0  # atno 10167 bound_to 10162
  156.1809  130.4150  149.9508 H   0  0  0  0  0  0  0  0  0  0  0  0  # atno 10718 bound_to 10713
  154.0658  135.6611  153.4818 H   0  0  0  0  0  0  0  0  0  0  0  0  # atno 10763 bound_to 10752
  153.0409  135.5145  154.7614 H   0  0  0  0  0  0  0  0  0  0  0  0  # atno 10764 bound_to 10752
  154.6665  135.3023  154.9765 H   0  0  0  0  0  0  0  0  0  0  0  0  # atno 10765 bound_to 10752
  139.9783  134.6785  156.0311 H   0  0  0  0  0  0  0  0  0  0  0  0  # atno 11005 bound_to 11000
  146.1471  139.4543  143.0072 LP  0  0  0  0  0  0  0  0  0  0  0  0  # atno 17320 bound_to 7965
  145.6928  141.0159  143.1546 LP  0  0  0  0  0  0  0  0  0  0  0  0  # atno 17321 bound_to 7965
  140.7800  143.3933  151.1273 LP  0  0  0  0  0  0  0  0  0  0  0  0  # atno 17342 bound_to 10162
  139.7581  143.8677  152.3093 LP  0  0  0  0  0  0  0  0  0  0  0  0  # atno 17343 bound_to 10162
  156.7279  130.9032  151.3623 LP  0  0  0  0  0  0  0  0  0  0  0  0  # atno 17370 bound_to 10713
  157.6867  130.9193  150.0406 LP  0  0  0  0  0  0  0  0  0  0  0  0  # atno 17371 bound_to 10713
  141.1458  133.6556  156.3863 LP  0  0  0  0  0  0  0  0  0  0  0  0  # atno 17394 bound_to 11000
  140.5148  134.6360  157.5297 LP  0  0  0  0  0  0  0  0  0  0  0  0  # atno 17395 bound_to 11000

$$$$
