AV-unprocessed.smi:2679|AV-procd|sdf|10370|dock10
  -GOLD-   2272014403D 1   1.00000     0.00000
 Structure written by MMmdl.
 39 40  0  0  0  0  0  0  0  0  1 V2000
  155.3404  135.1042  159.3044 C   0  0  0  0  0  0  0  0  0  0  0  0
  154.6973  136.2888  159.9502 C   0  0  0  0  0  0  0  0  0  0  0  0
  153.4547  136.2778  160.4378 N   0  0  0  0  0  0  0  0  0  0  0  0
  153.2457  137.5455  160.9343 N   0  0  0  0  0  0  0  0  0  0  0  0
  154.3798  138.2108  160.7034 C   0  0  0  0  0  0  0  0  0  0  0  0
  154.6276  139.8952  161.1509 S   0  0  0  0  0  0  0  0  0  0  0  0
  153.1006  140.5692  160.4319 C   0  0  2  0  0  0  0  0  0  0  0  0
  152.9501  140.0213  159.0733 C   0  0  0  0  0  0  0  0  0  0  0  0
  152.8322  139.5910  158.0055 N   0  0  0  0  0  0  0  0  0  0  0  0
  153.0870  142.1144  160.4680 C   0  0  0  0  0  0  0  0  0  0  0  0
  152.7771  142.6485  161.8859 C   0  0  0  0  0  0  0  0  0  0  0  0
  152.7583  144.1847  161.9318 C   0  0  0  0  0  0  0  0  0  0  0  0
  151.7601  144.7603  160.9177 C   0  0  0  0  0  0  0  0  0  0  0  0
  152.0606  144.2474  159.5026 C   0  0  0  0  0  0  0  0  0  0  0  0
  152.0812  142.7108  159.4567 C   0  0  0  0  0  0  0  0  0  0  0  0
  155.3290  137.4725  160.0925 N   0  0  0  0  0  0  0  0  0  0  0  0
  156.6761  137.8560  159.6902 C   0  0  0  0  0  0  0  0  0  0  0  0
  156.6463  139.0112  158.6875 C   0  0  0  0  0  0  0  0  0  0  0  0
  157.2474  140.1478  159.0482 N   0  0  0  0  0  0  0  0  0  0  0  0
  156.0840  138.8809  157.6025 O   0  0  0  0  0  0  0  0  0  0  0  0
  154.6378  134.2720  159.2492 H   0  0  0  0  0  0  0  0  0  0  0  0
  156.2087  134.7852  159.8813 H   0  0  0  0  0  0  0  0  0  0  0  0
  155.6598  135.3521  158.2922 H   0  0  0  0  0  0  0  0  0  0  0  0
  152.2539  140.1982  161.0106 H   0  0  0  0  0  0  0  0  0  0  0  0
  154.0811  142.4623  160.1831 H   0  0  0  0  0  0  0  0  0  0  0  0
  151.8124  142.2632  162.2189 H   0  0  0  0  0  0  0  0  0  0  0  0
  153.5133  142.2865  162.6032 H   0  0  0  0  0  0  0  0  0  0  0  0
  152.5030  144.5230  162.9365 H   0  0  0  0  0  0  0  0  0  0  0  0
  153.7572  144.5686  161.7209 H   0  0  0  0  0  0  0  0  0  0  0  0
  150.7450  144.4790  161.2014 H   0  0  0  0  0  0  0  0  0  0  0  0
  151.7966  145.8499  160.9351 H   0  0  0  0  0  0  0  0  0  0  0  0
  151.3160  144.6295  158.8036 H   0  0  0  0  0  0  0  0  0  0  0  0
  153.0241  144.6355  159.1698 H   0  0  0  0  0  0  0  0  0  0  0  0
  152.3267  142.3969  158.4423 H   0  0  0  0  0  0  0  0  0  0  0  0
  151.0819  142.3259  159.6644 H   0  0  0  0  0  0  0  0  0  0  0  0
  157.2527  138.1236  160.5768 H   0  0  0  0  0  0  0  0  0  0  0  0
  157.1803  137.0001  159.2414 H   0  0  0  0  0  0  0  0  0  0  0  0
  157.2583  140.9373  158.4190 H   0  0  0  0  0  0  0  0  0  0  0  0
  157.6946  140.2122  159.9514 H   0  0  0  0  0  0  0  0  0  0  0  0
  1  2  1  0  0  0  0
  1 21  1  0  0  0  0
  1 22  1  0  0  0  0
  1 23  1  0  0  0  0
  2 16  1  0  0  0  0
  2  3  2  0  0  0  0
  3  4  1  0  0  0  0
  4  5  2  0  0  0  0
  5  6  1  0  0  0  0
  5 16  1  0  0  0  0
  6  7  1  0  0  0  0
  7  8  1  0  0  0  0
  7 10  1  0  0  0  0
  7 24  1  0  0  0  0
  8  9  3  0  0  0  0
 10 15  1  0  0  0  0
 10 11  1  0  0  0  0
 10 25  1  0  0  0  0
 11 12  1  0  0  0  0
 11 26  1  0  0  0  0
 11 27  1  0  0  0  0
 12 13  1  0  0  0  0
 12 28  1  0  0  0  0
 12 29  1  0  0  0  0
 13 14  1  0  0  0  0
 13 30  1  0  0  0  0
 13 31  1  0  0  0  0
 14 15  1  0  0  0  0
 14 32  1  0  0  0  0
 14 33  1  0  0  0  0
 15 34  1  0  0  0  0
 15 35  1  0  0  0  0
 16 17  1  0  0  0  0
 17 18  1  0  0  0  0
 17 36  1  0  0  0  0
 17 37  1  0  0  0  0
 18 19  1  0  0  0  0
 18 20  2  0  0  0  0
 19 38  1  0  0  0  0
 19 39  1  0  0  0  0
M  END
> <s_m_source_file>
AV-unprocessed.smi

> <i_m_source_file_index>
2679

> <i_lp_mmshare_version>
43012

> <i_f3d_flags>
0

> <s_epik_input>
W0NIM11jMW5uYyhuMVtDSDJdQyg9TylbTkgyXSlTW0NASF0oQyNOKVtDSF0yW0NIMl1bQ0gyXVtDSDJdW0NIMl1bQ0gyXTI=

> <s_epik_cmdline>
J2VwaWtfcHl0aG9uJywgJy1waCcsICc3LjAnLCAnLXRuJywgJzgnLCAnLW1hJywgJzIwMCcsICctbWV0YWxfYmluZGluZycsICctaW1hZScsICc8aW5maWxlLm1hZT4nLCAnLW9tYWUnLCAnPG91dGZpbGUubWFlPic=

> <r_lp_tautomer_probability>
1

> <r_epik_Ionization_Penalty>
1.94949e-07

> <r_epik_Ionization_Penalty_Charging>
0

> <r_epik_Ionization_Penalty_Neutral>
1.94949e-07

> <r_epik_State_Penalty>
-0

> <r_epik_Charging_Adjusted_Penalty>
0

> <i_epik_Tot_Q>
0

> <i_epik_Tot_abs_Q>
0

> <r_epik_Metal_State_Penalty>
-0

> <b_epik_Metal_Only>
0

> <s_lp_Force_Field>
OPLS_2005

> <r_lp_Energy>
7.74931

> <b_lp_Chiralities_Consistent>
1

> <s_lp_Variant>
AV-unprocessed.smi:2679-1

> <Gold.Version>
5.8.1

> <Gold.Id.Protein>
6NUR|6NUR_protein|mol2

> <Gold.PLP.Fitness>
44.2247

> <Gold.PLP.PLP>
-36.2019

> <Gold.PLP.part.hbond>
-3.0000

> <Gold.PLP.part.metal>
0.0000

> <Gold.PLP.part.buried>
-4.3393

> <Gold.PLP.part.nonpolar>
-28.4825

> <Gold.PLP.part.repulsive>
0.1359

> <Gold.PLP.ligand.clash>
0.0000

> <Gold.PLP.ligand.torsion>
0.5216

> <Gold.PLP.Chemscore.Hbond>
3.0000

> <Gold.PLP.Chemscore.CHOScore>
0.0000

> <Gold.PLP.Chemscore.Metal>
0.0000

> <Gold.Chemscore.Hbonds>
donor molecule, donor type, donor heavy atom, donor atom, acceptor molecule, acceptor atom, score
      P1  H  6896  6909       L1     3  1.00
      P1  H  7997  8009       L1    20  0.27
      P1  H  7997  8010       L1     9  0.88

> <Gold.PLP.Chemscore.Internal.Correction>
0.0659

> <Gold.Rescore>
     Score         DG    S(hbond)    S(metal)    S(lipo)     H(rot)  DE(clash)    DE(int)     intcor
     18.41     -18.71       2.89        0.00      86.79       2.57       0.00       0.30       ----

> <Gold.Chemscore.Fitness>
18.4091

> <Gold.Chemscore.DG>
-18.7137

> <Gold.Chemscore.ZeroCoef>
-5.4800

> <Gold.Chemscore.Hbond>
2.8939

> <Gold.Chemscore.Metal>
0.0000

> <Gold.Chemscore.Lipo>
86.7910

> <Gold.Chemscore.Internal_Hbond>
0.0000

> <Gold.Chemscore.DEClash>
0.0038

> <Gold.Chemscore.DEInternal>
0.3008

> <Gold.Chemscore.Rot>
2.5728

> <Gold.Chemscore.Internal.Correction>
   9.000000E+99

> <Gold.Chemscore.Hbonds>
donor molecule, donor type, donor heavy atom, donor atom, acceptor molecule, acceptor atom, score
      P1  H  6896  6909       L1     3  0.98
      P1  H  7997  8009       L1    20  0.18
      P1  H  7997  8010       L1     9  0.72

> <Gold.Chemscore.Hbond.Weighted>
-9.6656

> <Gold.Chemscore.Metal.Weighted>
-0.0000

> <Gold.Chemscore.Lipo.Weighted>
-10.1545

> <Gold.Chemscore.Internal_Hbond.Weighted>
0.0000

> <Gold.Chemscore.DEClash.Weighted>
0.0038

> <Gold.Chemscore.DEInternal.Weighted>
0.3008

> <Gold.Chemscore.Rot.Weighted>
6.5865

> <Gold.Chemscore.Internal.Correction.Weighted>
   9.000000E+99

> <Gold.Protein.RotatedTorsions>
[ 6907 6896 6895 6894 ] final  164.86 input  -60.11 | X-H torsion
[ 7974 7965 7964 7962 ] final -111.09 input  175.53 | X-H torsion
[ 8008 7997 7996 7995 ] final   54.24 input   59.86 | X-H torsion
[ 10167 10162 10161 10158 ] final -122.36 input  -65.29 | X-H torsion
[ 10718 10713 10712 10709 ] final  -91.66 input   66.30 | X-H torsion
[ 10763 10752 10751 10750 ] final   65.22 input  -60.55 | X-H torsion
[ 11005 11000 10999 10996 ] final  -30.28 input  -57.11 | X-H torsion

> <Gold.Protein.ActiveResidues>
 VAL166  LYS551  ARG553  GLY616  TRP617  ASP618  TYR619  PRO620  LYS621  CYS622 
 ASP623  PHE694  ASN695  SER759  ASP760  ASP761  ALA762  ILE779  LEU786  VAL792 
 PHE793  MET794  SER795  GLU796  ALA797  LYS798  CYS799  TRP800  GLU811  SER814 

> <Gold.Protein.RotatedAtoms>
  151.9034  133.3543  159.3838 H   0  0  0  0  0  0  0  0  0  0  0  0  # atno 6907 bound_to 6896
  150.7075  134.4805  159.5477 H   0  0  0  0  0  0  0  0  0  0  0  0  # atno 6908 bound_to 6896
  152.2398  134.8240  160.0513 H   0  0  0  0  0  0  0  0  0  0  0  0  # atno 6909 bound_to 6896
  145.1603  140.8875  143.3594 H   0  0  0  0  0  0  0  0  0  0  0  0  # atno 7974 bound_to 7965
  155.4815  140.3468  155.4340 H   0  0  0  0  0  0  0  0  0  0  0  0  # atno 8008 bound_to 7997
  156.1036  140.1442  156.9463 H   0  0  0  0  0  0  0  0  0  0  0  0  # atno 8009 bound_to 7997
  154.4709  140.0901  156.7121 H   0  0  0  0  0  0  0  0  0  0  0  0  # atno 8010 bound_to 7997
  140.0151  143.5402  152.2246 H   0  0  0  0  0  0  0  0  0  0  0  0  # atno 10167 bound_to 10162
  155.9995  130.4957  150.5508 H   0  0  0  0  0  0  0  0  0  0  0  0  # atno 10718 bound_to 10713
  153.0087  135.5365  154.6632 H   0  0  0  0  0  0  0  0  0  0  0  0  # atno 10763 bound_to 10752
  154.5836  135.2852  155.0710 H   0  0  0  0  0  0  0  0  0  0  0  0  # atno 10764 bound_to 10752
  154.1830  135.6513  153.5092 H   0  0  0  0  0  0  0  0  0  0  0  0  # atno 10765 bound_to 10752
  140.9369  133.7303  156.1019 H   0  0  0  0  0  0  0  0  0  0  0  0  # atno 11005 bound_to 11000
  145.0338  139.3318  143.6011 LP  0  0  0  0  0  0  0  0  0  0  0  0  # atno 17320 bound_to 7965
  146.3483  139.9685  142.8709 LP  0  0  0  0  0  0  0  0  0  0  0  0  # atno 17321 bound_to 7965
  139.6178  144.7623  151.2807 LP  0  0  0  0  0  0  0  0  0  0  0  0  # atno 17342 bound_to 10162
  140.7365  143.6704  150.8087 LP  0  0  0  0  0  0  0  0  0  0  0  0  # atno 17343 bound_to 10162
  157.3431  131.0720  151.1772 LP  0  0  0  0  0  0  0  0  0  0  0  0  # atno 17370 bound_to 10713
  157.2614  130.6660  149.5976 LP  0  0  0  0  0  0  0  0  0  0  0  0  # atno 17371 bound_to 10713
  140.7786  134.3751  157.5492 LP  0  0  0  0  0  0  0  0  0  0  0  0  # atno 17394 bound_to 11000
  139.8810  134.9068  156.2929 LP  0  0  0  0  0  0  0  0  0  0  0  0  # atno 17395 bound_to 11000

$$$$
