AV-unprocessed.smi:37|AV-procd|sdf|321|dock3
  -GOLD-   2262016143D 1   1.00000     0.00000
 Structure written by MMmdl.
 43 44  0  0  0  0  0  0  0  0  2 V2000
  146.7524  139.9215  154.0176 C   0  0  0  0  0  0  0  0  0  0  0  0
  147.5312  140.4223  155.2417 C   0  0  0  0  0  0  0  0  0  0  0  0
  148.8717  141.0506  154.8653 C   0  0  0  0  0  0  0  0  0  0  0  0
  148.9432  141.9717  154.0518 O   0  0  0  0  0  0  0  0  0  0  0  0
  149.9065  140.4743  155.4943 O   0  0  0  0  0  0  0  0  0  0  0  0
  151.2239  140.9456  155.2691 C   0  0  0  0  0  0  0  0  0  0  0  0
  152.0065  140.9057  156.5883 C   0  0  2  0  0  0  0  0  0  0  0  0
  152.4542  139.5786  156.8723 O   0  0  0  0  0  0  0  0  0  0  0  0
  152.2667  139.2704  158.2258 C   0  0  2  0  0  0  0  0  0  0  0  0
  151.1307  138.2750  158.3748 N   0  0  0  0  0  0  0  0  0  0  0  0
  149.8310  138.5929  158.0137 C   0  0  0  0  0  0  0  0  0  0  0  0
  148.8267  137.7040  158.1551 C   0  0  0  0  0  0  0  0  0  0  0  0
  147.5770  138.0445  157.7965 F   0  0  0  0  0  0  0  0  0  0  0  0
  149.1068  136.3757  158.6957 C   0  0  0  0  0  0  0  0  0  0  0  0
  148.1855  135.5721  158.8305 O   0  0  0  0  0  0  0  0  0  0  0  0
  150.3967  136.0831  159.0299 N   0  5  0  0  0  0  0  0  0  0  0  0
  151.4167  136.9790  158.8871 C   0  0  0  0  0  0  0  0  0  0  0  0
  152.5830  136.7222  159.1858 O   0  0  0  0  0  0  0  0  0  0  0  0
  151.9171  140.5853  158.9302 C   0  0  1  0  0  0  0  0  0  0  0  0
  153.6088  141.5040  159.4587 Br  0  0  0  0  0  0  0  0  0  0  0  0
  151.2083  141.3417  157.8218 C   0  0  1  0  0  0  0  0  0  0  0  0
  151.2486  142.7450  158.0551 O   0  0  0  0  0  0  0  0  0  0  0  0
  150.7039  143.2715  159.1658 C   0  0  0  0  0  0  0  0  0  0  0  0
  149.7521  142.8038  159.7935 O   0  0  0  0  0  0  0  0  0  0  0  0
  151.4026  144.5662  159.5846 C   0  0  0  0  0  0  0  0  0  0  0  0
  152.6132  144.9211  158.7087 C   0  0  0  0  0  0  0  0  0  0  0  0
  145.8301  139.4293  154.3262 H   0  0  0  0  0  0  0  0  0  0  0  0
  147.3354  139.2011  153.4431 H   0  0  0  0  0  0  0  0  0  0  0  0
  146.4793  140.7423  153.3536 H   0  0  0  0  0  0  0  0  0  0  0  0
  146.9390  141.1584  155.7859 H   0  0  0  0  0  0  0  0  0  0  0  0
  147.7125  139.5939  155.9270 H   0  0  0  0  0  0  0  0  0  0  0  0
  151.7216  140.3452  154.5067 H   0  0  0  0  0  0  0  0  0  0  0  0
  151.1710  141.9706  154.9000 H   0  0  0  0  0  0  0  0  0  0  0  0
  152.9073  141.5150  156.4980 H   0  0  0  0  0  0  0  0  0  0  0  0
  153.1447  138.7625  158.6285 H   0  0  0  0  0  0  0  0  0  0  0  0
  149.5965  139.5633  157.6071 H   0  0  0  0  0  0  0  0  0  0  0  0
  151.3112  140.4435  159.8252 H   0  0  0  0  0  0  0  0  0  0  0  0
  150.1861  140.9660  157.7515 H   0  0  0  0  0  0  0  0  0  0  0  0
  150.6743  145.3767  159.5516 H   0  0  0  0  0  0  0  0  0  0  0  0
  151.7189  144.4681  160.6233 H   0  0  0  0  0  0  0  0  0  0  0  0
  153.0687  145.8529  159.0434 H   0  0  0  0  0  0  0  0  0  0  0  0
  152.3268  145.0515  157.6646 H   0  0  0  0  0  0  0  0  0  0  0  0
  153.3780  144.1451  158.7563 H   0  0  0  0  0  0  0  0  0  0  0  0
  1  2  1  0  0  0  0
  1 27  1  0  0  0  0
  1 28  1  0  0  0  0
  1 29  1  0  0  0  0
  2  3  1  0  0  0  0
  2 30  1  0  0  0  0
  2 31  1  0  0  0  0
  3  4  2  0  0  0  0
  3  5  1  0  0  0  0
  5  6  1  0  0  0  0
  6  7  1  0  0  0  0
  6 32  1  0  0  0  0
  6 33  1  0  0  0  0
  7 21  1  0  0  0  0
  7  8  1  0  0  0  0
  7 34  1  0  0  0  0
  8  9  1  0  0  0  0
  9 10  1  0  0  0  0
  9 19  1  0  0  0  0
  9 35  1  0  0  0  0
 10 17  1  0  0  0  0
 10 11  1  0  0  0  0
 11 12  2  0  0  0  0
 11 36  1  0  0  0  0
 12 13  1  0  0  0  0
 12 14  1  0  0  0  0
 14 15  2  0  0  0  0
 14 16  1  0  0  0  0
 16 17  1  0  0  0  0
 17 18  2  0  0  0  0
 19 20  1  0  0  0  0
 19 21  1  0  0  0  0
 19 37  1  0  0  0  0
 21 22  1  0  0  0  0
 21 38  1  0  0  0  0
 22 23  1  0  0  0  0
 23 24  2  0  0  0  0
 23 25  1  0  0  0  0
 25 26  1  0  0  0  0
 25 39  1  0  0  0  0
 25 40  1  0  0  0  0
 26 41  1  0  0  0  0
 26 42  1  0  0  0  0
 26 43  1  0  0  0  0
M  CHG  1  16  -1
M  END
> <s_m_source_file>
AV-unprocessed.smi

> <i_m_source_file_index>
37

> <i_lp_mmshare_version>
43012

> <i_f3d_flags>
0

> <s_epik_input>
W0NIM11bQ0gyXUMoPU8pT1tDSDJdW0NAQEhdMU9bQ0BASF0objJbY0hdYyhGKWMoPU8pW25IXWMyPU8pW0NAQEhdKEJyKVtDQEhdMU9DKD1PKVtDSDJdW0NIM10=

> <s_epik_cmdline>
J2VwaWtfcHl0aG9uJywgJy1waCcsICc3LjAnLCAnLXRuJywgJzgnLCAnLW1hJywgJzIwMCcsICctbWV0YWxfYmluZGluZycsICctaW1hZScsICc8aW5maWxlLm1hZT4nLCAnLW9tYWUnLCAnPG91dGZpbGUubWFlPic=

> <r_epik_Ionization_Penalty>
1.08158

> <r_epik_Ionization_Penalty_Charging>
9.05154e-09

> <r_epik_Ionization_Penalty_Neutral>
1.08158

> <r_epik_State_Penalty>
1.13706

> <r_epik_Charging_Adjusted_Penalty>
1.13706

> <i_epik_Tot_Q>
-1

> <i_epik_Tot_abs_Q>
1

> <r_epik_Metal_State_Penalty>
0.00343535

> <b_epik_Metal_Only>
0

> <s_epik_Chemistry_Notes>
This compound has an ester and may undergo hydrolysis at high or low pH. This compound contains an acetal/aminal-like group ( X-CH(R)-Y where X, Y are N, S, or O) that may be acid/base labile, releasing an aldehyde.

> <s_lp_Force_Field>
OPLS_2005

> <r_lp_Energy>
31.9514

> <b_lp_Chiralities_Consistent>
1

> <s_lp_Variant>
AV-unprocessed.smi:37-19

> <Gold.Version>
5.8.1

> <Gold.Id.Protein>
6NUR|6NUR_protein|mol2

> <Gold.PLP.Fitness>
43.9205

> <Gold.PLP.PLP>
-37.0371

> <Gold.PLP.part.hbond>
-5.1088

> <Gold.PLP.part.metal>
0.0000

> <Gold.PLP.part.buried>
-3.9035

> <Gold.PLP.part.nonpolar>
-27.4944

> <Gold.PLP.part.repulsive>
0.4640

> <Gold.PLP.ligand.clash>
0.0000

> <Gold.PLP.ligand.torsion>
0.9242

> <Gold.PLP.Chemscore.Hbond>
2.8740

> <Gold.PLP.Chemscore.CHOScore>
0.0000

> <Gold.PLP.Chemscore.Metal>
0.0000

> <Gold.Chemscore.Hbonds>
donor molecule, donor type, donor heavy atom, donor atom, acceptor molecule, acceptor atom, score
      P1  H  6896  6907       L1    18  0.37
      P1  H  6896  6909       L1    16  1.68
      P1  H  7997  8009       L1     8  0.16
      P1  H  8011  8017       L1     4  0.43

> <Gold.PLP.Chemscore.Internal.Correction>
0.1098

> <Gold.Rescore>
     Score         DG    S(hbond)    S(metal)    S(lipo)     H(rot)  DE(clash)    DE(int)     intcor
      7.32     -11.95       1.75        0.00      76.66       3.27       2.66       1.96       ----

> <Gold.Chemscore.Fitness>
7.3215

> <Gold.Chemscore.DG>
-11.9452

> <Gold.Chemscore.ZeroCoef>
-5.4800

> <Gold.Chemscore.Hbond>
1.7544

> <Gold.Chemscore.Metal>
0.0000

> <Gold.Chemscore.Lipo>
76.6557

> <Gold.Chemscore.Internal_Hbond>
0.0000

> <Gold.Chemscore.DEClash>
2.6601

> <Gold.Chemscore.DEInternal>
1.9637

> <Gold.Chemscore.Rot>
3.2669

> <Gold.Chemscore.Internal.Correction>
   9.000000E+99

> <Gold.Chemscore.Hbonds>
donor molecule, donor type, donor heavy atom, donor atom, acceptor molecule, acceptor atom, score
      P1  H  6896  6907       L1    18  0.11
      P1  H  6896  6909       L1    16  0.71
      P1  H  6933  6944       L1    24  0.02
      P1  H  8011  8017       L1     4  0.41

> <Gold.Chemscore.Hbond.Weighted>
-5.8599

> <Gold.Chemscore.Metal.Weighted>
-0.0000

> <Gold.Chemscore.Lipo.Weighted>
-8.9687

> <Gold.Chemscore.Internal_Hbond.Weighted>
0.0000

> <Gold.Chemscore.DEClash.Weighted>
2.6601

> <Gold.Chemscore.DEInternal.Weighted>
1.9637

> <Gold.Chemscore.Rot.Weighted>
8.3634

> <Gold.Chemscore.Internal.Correction.Weighted>
   9.000000E+99

> <Gold.Protein.RotatedTorsions>
[ 6907 6896 6895 6894 ] final   56.81 input  -60.11 | X-H torsion
[ 7974 7965 7964 7962 ] final -175.28 input  175.53 | X-H torsion
[ 8008 7997 7996 7995 ] final -144.20 input   59.86 | X-H torsion
[ 10167 10162 10161 10158 ] final -176.35 input  -65.29 | X-H torsion
[ 10718 10713 10712 10709 ] final  -67.18 input   66.30 | X-H torsion
[ 10763 10752 10751 10750 ] final   15.33 input  -60.55 | X-H torsion
[ 11005 11000 10999 10996 ] final   50.82 input  -57.11 | X-H torsion

> <Gold.Protein.ActiveResidues>
 VAL166  LYS551  ARG553  GLY616  TRP617  ASP618  TYR619  PRO620  LYS621  CYS622 
 ASP623  PHE694  ASN695  SER759  ASP760  ASP761  ALA762  ILE779  LEU786  VAL792 
 PHE793  MET794  SER795  GLU796  ALA797  LYS798  CYS799  TRP800  GLU811  SER814 

> <Gold.Protein.RotatedAtoms>
  152.3672  134.6787  160.0187 H   0  0  0  0  0  0  0  0  0  0  0  0  # atno 6907 bound_to 6896
  151.7091  133.3306  159.3294 H   0  0  0  0  0  0  0  0  0  0  0  0  # atno 6908 bound_to 6896
  150.7647  134.6482  159.6318 H   0  0  0  0  0  0  0  0  0  0  0  0  # atno 6909 bound_to 6896
  144.7128  140.1344  143.6396 H   0  0  0  0  0  0  0  0  0  0  0  0  # atno 7974 bound_to 7965
  155.5230  140.0593  157.2903 H   0  0  0  0  0  0  0  0  0  0  0  0  # atno 8008 bound_to 7997
  154.4511  140.1949  156.0463 H   0  0  0  0  0  0  0  0  0  0  0  0  # atno 8009 bound_to 7997
  156.0705  140.3260  155.7574 H   0  0  0  0  0  0  0  0  0  0  0  0  # atno 8010 bound_to 7997
  139.5534  144.2050  152.1117 H   0  0  0  0  0  0  0  0  0  0  0  0  # atno 10167 bound_to 10162
  156.0571  130.4274  150.1817 H   0  0  0  0  0  0  0  0  0  0  0  0  # atno 10718 bound_to 10713
  153.1536  135.6783  153.8846 H   0  0  0  0  0  0  0  0  0  0  0  0  # atno 10763 bound_to 10752
  153.8265  135.3123  155.3416 H   0  0  0  0  0  0  0  0  0  0  0  0  # atno 10764 bound_to 10752
  154.7880  135.4851  154.0077 H   0  0  0  0  0  0  0  0  0  0  0  0  # atno 10765 bound_to 10752
  140.0985  134.5113  155.8784 H   0  0  0  0  0  0  0  0  0  0  0  0  # atno 11005 bound_to 11000
  145.9258  139.2574  143.1354 LP  0  0  0  0  0  0  0  0  0  0  0  0  # atno 17320 bound_to 7965
  145.9574  140.8862  143.0228 LP  0  0  0  0  0  0  0  0  0  0  0  0  # atno 17321 bound_to 7965
  140.1550  144.5079  150.6665 LP  0  0  0  0  0  0  0  0  0  0  0  0  # atno 17342 bound_to 10162
  140.6802  143.2323  151.5404 LP  0  0  0  0  0  0  0  0  0  0  0  0  # atno 17343 bound_to 10162
  156.9891  130.9888  151.3419 LP  0  0  0  0  0  0  0  0  0  0  0  0  # atno 17370 bound_to 10713
  157.5551  130.8208  149.8193 LP  0  0  0  0  0  0  0  0  0  0  0  0  # atno 17371 bound_to 10713
  141.2099  133.6689  156.6470 LP  0  0  0  0  0  0  0  0  0  0  0  0  # atno 17394 bound_to 11000
  140.3253  134.7974  157.4284 LP  0  0  0  0  0  0  0  0  0  0  0  0  # atno 17395 bound_to 11000

$$$$
