AV-unprocessed.smi:2032|AV-procd|sdf|8241|dock7
  -GOLD-   2272010513D 1   1.00000     0.00000
 Structure written by MMmdl.
 43 44  0  0  0  0  0  0  0  0  2 V2000
  143.6843  144.4813  154.6205 C   0  0  0  0  0  0  0  0  0  0  0  0
  145.0125  143.9618  155.1823 C   0  0  2  0  0  0  0  0  0  0  0  0
  145.7429  143.0412  154.1880 C   0  0  0  0  0  0  0  0  0  0  0  0
  147.0007  142.5030  154.7749 N   0  3  2  0  0  0  0  0  0  0  0  0
  147.7833  141.6726  153.8010 C   0  0  2  0  0  0  0  0  0  0  0  0
  147.0508  140.3779  153.3707 C   0  0  0  0  0  0  0  0  0  0  0  0
  149.1829  141.3263  154.3806 C   0  0  0  0  0  0  0  0  0  0  0  0
  149.6310  142.2586  155.4116 N   0  0  0  0  0  0  0  0  0  0  0  0
  150.5293  141.9735  156.3654 C   0  0  0  0  0  0  0  0  0  0  0  0
  151.0801  140.8770  156.4690 O   0  0  0  0  0  0  0  0  0  0  0  0
  150.7400  143.0299  157.1696 N   0  0  0  0  0  0  0  0  0  0  0  0
  151.5600  143.1010  158.3261 C   0  0  0  0  0  0  0  0  0  0  0  0
  151.6491  144.1725  159.1228 N   0  0  0  0  0  0  0  0  0  0  0  0
  152.5417  143.9679  160.1781 C   0  0  0  0  0  0  0  0  0  0  0  0
  153.1277  142.7264  160.1689 C   0  0  0  0  0  0  0  0  0  0  0  0
  152.5805  141.7599  158.8250 S   0  0  0  0  0  0  0  0  0  0  0  0
  146.6934  141.8414  156.0731 C   0  0  0  0  0  0  0  0  0  0  0  0
  145.9202  142.7855  157.0138 C   0  0  2  0  0  0  0  0  0  0  0  0
  145.5192  142.0932  158.3213 C   0  0  0  0  0  0  0  0  0  0  0  0
  144.7348  143.2291  156.3677 O   0  0  0  0  0  0  0  0  0  0  0  0
  143.8427  145.0615  153.7109 H   0  0  0  0  0  0  0  0  0  0  0  0
  143.1816  145.1260  155.3420 H   0  0  0  0  0  0  0  0  0  0  0  0
  143.0080  143.6602  154.3803 H   0  0  0  0  0  0  0  0  0  0  0  0
  145.6441  144.8186  155.4245 H   0  0  0  0  0  0  0  0  0  0  0  0
  145.0933  142.2120  153.9027 H   0  0  0  0  0  0  0  0  0  0  0  0
  145.9428  143.6089  153.2816 H   0  0  0  0  0  0  0  0  0  0  0  0
  147.9125  142.2727  152.8991 H   0  0  0  0  0  0  0  0  0  0  0  0
  147.6551  139.7764  152.6922 H   0  0  0  0  0  0  0  0  0  0  0  0
  146.1299  140.5897  152.8275 H   0  0  0  0  0  0  0  0  0  0  0  0
  146.8060  139.7530  154.2303 H   0  0  0  0  0  0  0  0  0  0  0  0
  149.2153  140.3262  154.8101 H   0  0  0  0  0  0  0  0  0  0  0  0
  149.9235  141.3342  153.5803 H   0  0  0  0  0  0  0  0  0  0  0  0
  149.2298  143.1851  155.3957 H   0  0  0  0  0  0  0  0  0  0  0  0
  150.2448  143.8784  156.9381 H   0  0  0  0  0  0  0  0  0  0  0  0
  152.7014  144.7623  160.8924 H   0  0  0  0  0  0  0  0  0  0  0  0
  153.8461  142.3244  160.8678 H   0  0  0  0  0  0  0  0  0  0  0  0
  146.1185  140.9316  155.8908 H   0  0  0  0  0  0  0  0  0  0  0  0
  147.6102  141.5530  156.5862 H   0  0  0  0  0  0  0  0  0  0  0  0
  146.5412  143.6494  157.2578 H   0  0  0  0  0  0  0  0  0  0  0  0
  146.3963  141.7391  158.8634 H   0  0  0  0  0  0  0  0  0  0  0  0
  144.8735  141.2351  158.1324 H   0  0  0  0  0  0  0  0  0  0  0  0
  144.9796  142.7783  158.9755 H   0  0  0  0  0  0  0  0  0  0  0  0
  147.5829  143.2965  155.0019 H   0  0  0  0  0  0  0  0  0  0  0  0
  1  2  1  0  0  0  0
  1 21  1  0  0  0  0
  1 22  1  0  0  0  0
  1 23  1  0  0  0  0
  2 20  1  0  0  0  0
  2  3  1  0  0  0  0
  2 24  1  0  0  0  0
  3  4  1  0  0  0  0
  3 25  1  0  0  0  0
  3 26  1  0  0  0  0
  4  5  1  0  0  0  0
  4 17  1  0  0  0  0
  4 43  1  0  0  0  0
  5  6  1  0  0  0  0
  5  7  1  0  0  0  0
  5 27  1  0  0  0  0
  6 28  1  0  0  0  0
  6 29  1  0  0  0  0
  6 30  1  0  0  0  0
  7  8  1  0  0  0  0
  7 31  1  0  0  0  0
  7 32  1  0  0  0  0
  8  9  1  0  0  0  0
  8 33  1  0  0  0  0
  9 10  2  0  0  0  0
  9 11  1  0  0  0  0
 11 12  1  0  0  0  0
 11 34  1  0  0  0  0
 12 16  1  0  0  0  0
 12 13  2  0  0  0  0
 13 14  1  0  0  0  0
 14 15  2  0  0  0  0
 14 35  1  0  0  0  0
 15 16  1  0  0  0  0
 15 36  1  0  0  0  0
 17 18  1  0  0  0  0
 17 37  1  0  0  0  0
 17 38  1  0  0  0  0
 18 19  1  0  0  0  0
 18 20  1  0  0  0  0
 18 39  1  0  0  0  0
 19 40  1  0  0  0  0
 19 41  1  0  0  0  0
 19 42  1  0  0  0  0
M  CHG  1   4   1
M  END
> <s_m_source_file>
AV-unprocessed.smi

> <i_m_source_file_index>
2032

> <i_lp_mmshare_version>
43012

> <i_f3d_flags>
0

> <s_epik_input>
W0NIM11bQ0BASF0xW0NIMl1OKFtDSDJdW0NASF0oTzEpW0NIM10pW0NASF0oW0NIM10pW0NIMl1bTkhdQyg9TylbTkhdYzJuW2NIXVtjSF1zMg==

> <s_epik_cmdline>
J2VwaWtfcHl0aG9uJywgJy1waCcsICc3LjAnLCAnLXRuJywgJzgnLCAnLW1hJywgJzIwMCcsICctbWV0YWxfYmluZGluZycsICctaW1hZScsICc8aW5maWxlLm1hZT4nLCAnLW9tYWUnLCAnPG91dGZpbGUubWFlPic=

> <r_lp_tautomer_probability>
0.999

> <r_epik_Ionization_Penalty>
0.695838

> <r_epik_Ionization_Penalty_Charging>
0.695697

> <r_epik_Ionization_Penalty_Neutral>
0.000141198

> <r_epik_State_Penalty>
0.717972

> <r_epik_Charging_Adjusted_Penalty>
1.41367

> <i_epik_Tot_Q>
1

> <i_epik_Tot_abs_Q>
1

> <r_epik_Metal_State_Penalty>
0.756405

> <b_epik_Metal_Only>
0

> <s_lp_Force_Field>
OPLS_2005

> <r_lp_Energy>
16.7575

> <b_lp_Chiralities_Consistent>
1

> <s_lp_Variant>
AV-unprocessed.smi:2032-11

> <Gold.Version>
5.8.1

> <Gold.Id.Protein>
6NUR|6NUR_protein|mol2

> <Gold.PLP.Fitness>
49.0589

> <Gold.PLP.PLP>
-38.5544

> <Gold.PLP.part.hbond>
-3.0000

> <Gold.PLP.part.metal>
0.0000

> <Gold.PLP.part.buried>
-7.2050

> <Gold.PLP.part.nonpolar>
-28.2871

> <Gold.PLP.part.repulsive>
0.4933

> <Gold.PLP.ligand.clash>
0.0000

> <Gold.PLP.ligand.torsion>
0.6532

> <Gold.PLP.Chemscore.Hbond>
3.9199

> <Gold.PLP.Chemscore.CHOScore>
0.0000

> <Gold.PLP.Chemscore.Metal>
0.0000

> <Gold.Chemscore.Hbonds>
donor molecule, donor type, donor heavy atom, donor atom, acceptor molecule, acceptor atom, score
      L1  H     4    43       P1  8028  2.00
      L1  H     8    33       P1  8028  1.00
      L1  H    11    34       P1  8028  0.91

> <Gold.PLP.Chemscore.Internal.Correction>
0.0512

> <Gold.Rescore>
     Score         DG    S(hbond)    S(metal)    S(lipo)     H(rot)  DE(clash)    DE(int)     intcor
     17.04     -19.38       2.52        0.00      82.20       1.61       0.47       1.87       ----

> <Gold.Chemscore.Fitness>
17.0360

> <Gold.Chemscore.DG>
-19.3831

> <Gold.Chemscore.ZeroCoef>
-5.4800

> <Gold.Chemscore.Hbond>
2.5179

> <Gold.Chemscore.Metal>
0.0000

> <Gold.Chemscore.Lipo>
82.2014

> <Gold.Chemscore.Internal_Hbond>
0.0000

> <Gold.Chemscore.DEClash>
0.4745

> <Gold.Chemscore.DEInternal>
1.8726

> <Gold.Chemscore.Rot>
1.6110

> <Gold.Chemscore.Internal.Correction>
   9.000000E+99

> <Gold.Chemscore.Hbonds>
donor molecule, donor type, donor heavy atom, donor atom, acceptor molecule, acceptor atom, score
      L1  H     4    43       P1  8028  0.34
      L1  H     8    33       P1  8028  0.98
      L1  H    11    34       P1  8028  0.83

> <Gold.Chemscore.Hbond.Weighted>
-8.4097

> <Gold.Chemscore.Metal.Weighted>
-0.0000

> <Gold.Chemscore.Lipo.Weighted>
-9.6176

> <Gold.Chemscore.Internal_Hbond.Weighted>
0.0000

> <Gold.Chemscore.DEClash.Weighted>
0.4745

> <Gold.Chemscore.DEInternal.Weighted>
1.8726

> <Gold.Chemscore.Rot.Weighted>
4.1242

> <Gold.Chemscore.Internal.Correction.Weighted>
   9.000000E+99

> <Gold.Protein.RotatedTorsions>
[ 6907 6896 6895 6894 ] final  125.96 input  -60.11 | X-H torsion
[ 7974 7965 7964 7962 ] final -150.21 input  175.53 | X-H torsion
[ 8008 7997 7996 7995 ] final   28.38 input   59.86 | X-H torsion
[ 10167 10162 10161 10158 ] final   -0.03 input  -65.29 | X-H torsion
[ 10718 10713 10712 10709 ] final   62.42 input   66.30 | X-H torsion
[ 10763 10752 10751 10750 ] final -147.47 input  -60.55 | X-H torsion
[ 11005 11000 10999 10996 ] final  177.03 input  -57.11 | X-H torsion

> <Gold.Protein.ActiveResidues>
 VAL166  LYS551  ARG553  GLY616  TRP617  ASP618  TYR619  PRO620  LYS621  CYS622 
 ASP623  PHE694  ASN695  SER759  ASP760  ASP761  ALA762  ILE779  LEU786  VAL792 
 PHE793  MET794  SER795  GLU796  ALA797  LYS798  CYS799  TRP800  GLU811  SER814 

> <Gold.Protein.RotatedAtoms>
  152.3946  133.6727  159.6265 H   0  0  0  0  0  0  0  0  0  0  0  0  # atno 6907 bound_to 6896
  150.7847  133.8897  159.3318 H   0  0  0  0  0  0  0  0  0  0  0  0  # atno 6908 bound_to 6896
  151.6676  135.0982  160.0243 H   0  0  0  0  0  0  0  0  0  0  0  0  # atno 6909 bound_to 6896
  144.7921  140.4963  143.5765 H   0  0  0  0  0  0  0  0  0  0  0  0  # atno 7974 bound_to 7965
  155.0578  140.3187  155.4670 H   0  0  0  0  0  0  0  0  0  0  0  0  # atno 8008 bound_to 7997
  156.2820  140.2134  156.5649 H   0  0  0  0  0  0  0  0  0  0  0  0  # atno 8009 bound_to 7997
  154.7157  140.0494  157.0580 H   0  0  0  0  0  0  0  0  0  0  0  0  # atno 8010 bound_to 7997
  140.6749  143.6943  150.8002 H   0  0  0  0  0  0  0  0  0  0  0  0  # atno 10167 bound_to 10162
  157.5900  130.9049  149.9586 H   0  0  0  0  0  0  0  0  0  0  0  0  # atno 10718 bound_to 10713
  154.8284  135.3359  154.6823 H   0  0  0  0  0  0  0  0  0  0  0  0  # atno 10763 bound_to 10752
  153.7446  135.6943  153.4963 H   0  0  0  0  0  0  0  0  0  0  0  0  # atno 10764 bound_to 10752
  153.2219  135.4446  155.0450 H   0  0  0  0  0  0  0  0  0  0  0  0  # atno 10765 bound_to 10752
  140.3796  134.6958  157.4443 H   0  0  0  0  0  0  0  0  0  0  0  0  # atno 11005 bound_to 11000
  145.5767  139.1486  143.3258 LP  0  0  0  0  0  0  0  0  0  0  0  0  # atno 17320 bound_to 7965
  146.2177  140.5898  142.9031 LP  0  0  0  0  0  0  0  0  0  0  0  0  # atno 17321 bound_to 7965
  140.0635  143.5132  152.2616 LP  0  0  0  0  0  0  0  0  0  0  0  0  # atno 17342 bound_to 10162
  139.6037  144.7590  151.3112 LP  0  0  0  0  0  0  0  0  0  0  0  0  # atno 17343 bound_to 10162
  156.0953  130.3660  150.0318 LP  0  0  0  0  0  0  0  0  0  0  0  0  # atno 17370 bound_to 10713
  156.8442  130.9436  151.3630 LP  0  0  0  0  0  0  0  0  0  0  0  0  # atno 17371 bound_to 10713
  140.0488  134.6160  155.8887 LP  0  0  0  0  0  0  0  0  0  0  0  0  # atno 17394 bound_to 11000
  141.1928  133.6576  156.5517 LP  0  0  0  0  0  0  0  0  0  0  0  0  # atno 17395 bound_to 11000

$$$$
