AV-unprocessed.smi:544|AV-procd|sdf|2877|dock9
  -GOLD-   2262023373D 1   1.00000     0.00000
 Structure written by MMmdl.
 49 51  0  0  0  0  0  0  0  0  1 V2000
  148.2652  132.8092  152.9689 C   0  0  0  0  0  0  0  0  0  0  0  0
  149.1833  133.1762  154.1366 C   0  0  0  0  0  0  0  0  0  0  0  0
  148.3858  133.6469  155.2080 O   0  0  0  0  0  0  0  0  0  0  0  0
  149.1493  134.1053  156.3097 C   0  0  0  0  0  0  0  0  0  0  0  0
  148.3133  135.0845  157.1477 C   0  0  0  0  0  0  0  0  0  0  0  0
  149.1305  136.1087  157.7929 N   0  0  0  0  0  0  0  0  0  0  0  0
  149.1299  136.4917  159.0960 C   0  0  0  0  0  0  0  0  0  0  0  0
  148.2794  135.8960  160.0207 N   0  0  0  0  0  0  0  0  0  0  0  0
  147.3391  136.6248  160.8664 C   0  0  0  0  0  0  0  0  0  0  0  0
  147.4436  136.1796  162.3343 C   0  0  0  0  0  0  0  0  0  0  0  0
  147.2020  134.6684  162.4550 C   0  0  0  0  0  0  0  0  0  0  0  0
  148.1298  133.9000  161.4966 C   0  0  1  0  0  0  0  0  0  0  0  0
  147.8511  132.3913  161.5294 C   0  0  0  0  0  0  0  0  0  0  0  0
  147.9999  134.4638  160.0667 C   0  0  0  0  0  0  0  0  0  0  0  0
  149.9805  137.4760  159.3959 N   0  0  0  0  0  0  0  0  0  0  0  0
  150.5833  137.7417  158.1745 C   0  0  0  0  0  0  0  0  0  0  0  0
  150.0820  136.9384  157.2014 C   0  0  0  0  0  0  0  0  0  0  0  0
  150.5254  137.0189  155.8046 C   0  0  0  0  0  0  0  0  0  0  0  0
  150.0799  136.3029  154.9103 O   0  0  0  0  0  0  0  0  0  0  0  0
  151.4709  137.9686  155.6021 N   0  0  0  0  0  0  0  0  0  0  0  0
  152.0158  138.8111  156.5324 C   0  0  0  0  0  0  0  0  0  0  0  0
  152.8609  139.6383  156.1912 O   0  0  0  0  0  0  0  0  0  0  0  0
  151.5840  138.6943  157.8294 N   0  0  0  0  0  0  0  0  0  0  0  0
  152.1313  139.5661  158.8706 C   0  0  0  0  0  0  0  0  0  0  0  0
  151.8077  138.0698  154.6559 H   0  0  0  0  0  0  0  0  0  0  0  0
  148.8418  132.4402  152.1207 H   0  0  0  0  0  0  0  0  0  0  0  0
  147.6926  133.6748  152.6349 H   0  0  0  0  0  0  0  0  0  0  0  0
  147.5584  132.0309  153.2577 H   0  0  0  0  0  0  0  0  0  0  0  0
  149.7577  132.3030  154.4486 H   0  0  0  0  0  0  0  0  0  0  0  0
  149.8907  133.9465  153.8269 H   0  0  0  0  0  0  0  0  0  0  0  0
  149.4628  133.2559  156.9176 H   0  0  0  0  0  0  0  0  0  0  0  0
  150.0534  134.6035  155.9572 H   0  0  0  0  0  0  0  0  0  0  0  0
  147.5649  135.5736  156.5246 H   0  0  0  0  0  0  0  0  0  0  0  0
  147.7535  134.5362  157.9042 H   0  0  0  0  0  0  0  0  0  0  0  0
  147.5254  137.6953  160.7829 H   0  0  0  0  0  0  0  0  0  0  0  0
  146.3266  136.4606  160.4957 H   0  0  0  0  0  0  0  0  0  0  0  0
  148.4306  136.4278  162.7262 H   0  0  0  0  0  0  0  0  0  0  0  0
  146.7222  136.7252  162.9430 H   0  0  0  0  0  0  0  0  0  0  0  0
  147.3625  134.3444  163.4837 H   0  0  0  0  0  0  0  0  0  0  0  0
  146.1603  134.4485  162.2164 H   0  0  0  0  0  0  0  0  0  0  0  0
  149.1580  134.0517  161.8275 H   0  0  0  0  0  0  0  0  0  0  0  0
  146.8343  132.1693  161.2039 H   0  0  0  0  0  0  0  0  0  0  0  0
  147.9748  131.9907  162.5359 H   0  0  0  0  0  0  0  0  0  0  0  0
  148.5352  131.8526  160.8734 H   0  0  0  0  0  0  0  0  0  0  0  0
  146.9981  134.2834  159.6750 H   0  0  0  0  0  0  0  0  0  0  0  0
  148.6917  133.9459  159.4011 H   0  0  0  0  0  0  0  0  0  0  0  0
  153.2186  139.6265  158.8055 H   0  0  0  0  0  0  0  0  0  0  0  0
  151.8946  139.2109  159.8732 H   0  0  0  0  0  0  0  0  0  0  0  0
  151.7267  140.5735  158.7696 H   0  0  0  0  0  0  0  0  0  0  0  0
  1  2  1  0  0  0  0
  1 26  1  0  0  0  0
  1 27  1  0  0  0  0
  1 28  1  0  0  0  0
  2  3  1  0  0  0  0
  2 29  1  0  0  0  0
  2 30  1  0  0  0  0
  3  4  1  0  0  0  0
  4  5  1  0  0  0  0
  4 31  1  0  0  0  0
  4 32  1  0  0  0  0
  5  6  1  0  0  0  0
  5 33  1  0  0  0  0
  5 34  1  0  0  0  0
  6 17  1  0  0  0  0
  6  7  1  0  0  0  0
  7  8  1  0  0  0  0
  7 15  2  0  0  0  0
  8 14  1  0  0  0  0
  8  9  1  0  0  0  0
  9 10  1  0  0  0  0
  9 35  1  0  0  0  0
  9 36  1  0  0  0  0
 10 11  1  0  0  0  0
 10 37  1  0  0  0  0
 10 38  1  0  0  0  0
 11 12  1  0  0  0  0
 11 39  1  0  0  0  0
 11 40  1  0  0  0  0
 12 13  1  0  0  0  0
 12 14  1  0  0  0  0
 12 41  1  0  0  0  0
 13 42  1  0  0  0  0
 13 43  1  0  0  0  0
 13 44  1  0  0  0  0
 14 45  1  0  0  0  0
 14 46  1  0  0  0  0
 15 16  1  0  0  0  0
 16 23  1  0  0  0  0
 16 17  2  0  0  0  0
 17 18  1  0  0  0  0
 18 19  2  0  0  0  0
 18 20  1  0  0  0  0
 20 25  1  0  0  0  0
 20 21  1  0  0  0  0
 21 22  2  0  0  0  0
 21 23  1  0  0  0  0
 23 24  1  0  0  0  0
 24 47  1  0  0  0  0
 24 48  1  0  0  0  0
 24 49  1  0  0  0  0
M  END
> <s_m_source_file>
AV-unprocessed.smi

> <i_m_source_file_index>
544

> <i_lp_mmshare_version>
43012

> <i_f3d_flags>
0

> <s_epik_input>
W0NIM11uMWMoPU8pW25IXWMoPU8pYyhjMTIpbihbQ0gyXVtDSDJdT1tDSDJdW0NIM10pYyhuMilOM1tDSDJdW0NIMl1bQ0gyXVtDQEBIXShbQ0gzXSlbQ0gyXTM=

> <s_epik_cmdline>
J2VwaWtfcHl0aG9uJywgJy1waCcsICc3LjAnLCAnLXRuJywgJzgnLCAnLW1hJywgJzIwMCcsICctbWV0YWxfYmluZGluZycsICctaW1hZScsICc8aW5maWxlLm1hZT4nLCAnLW9tYWUnLCAnPG91dGZpbGUubWFlPic=

> <r_lp_tautomer_probability>
1

> <r_epik_Ionization_Penalty>
0.000382477

> <r_epik_Ionization_Penalty_Charging>
0.000119472

> <r_epik_Ionization_Penalty_Neutral>
0.000263005

> <r_epik_State_Penalty>
-0

> <r_epik_Charging_Adjusted_Penalty>
0.000119472

> <i_epik_Tot_Q>
0

> <i_epik_Tot_abs_Q>
0

> <r_epik_Metal_State_Penalty>
0.0919313

> <b_epik_Metal_Only>
0

> <s_lp_Force_Field>
OPLS_2005

> <r_lp_Energy>
37.8306

> <b_lp_Chiralities_Consistent>
1

> <s_lp_Variant>
AV-unprocessed.smi:544-1

> <Gold.Version>
5.8.1

> <Gold.Id.Protein>
6NUR|6NUR_protein|mol2

> <Gold.PLP.Fitness>
37.6361

> <Gold.PLP.PLP>
-36.1234

> <Gold.PLP.part.hbond>
-1.7621

> <Gold.PLP.part.metal>
0.0000

> <Gold.PLP.part.buried>
-5.6432

> <Gold.PLP.part.nonpolar>
-28.5853

> <Gold.PLP.part.repulsive>
0.2725

> <Gold.PLP.ligand.clash>
0.0000

> <Gold.PLP.ligand.torsion>
1.2192

> <Gold.PLP.Chemscore.Hbond>
1.0000

> <Gold.PLP.Chemscore.CHOScore>
0.0000

> <Gold.PLP.Chemscore.Metal>
0.0000

> <Gold.Chemscore.Hbonds>
donor molecule, donor type, donor heavy atom, donor atom, acceptor molecule, acceptor atom, score
      P1  H  7997  8010       L1    22  1.00

> <Gold.PLP.Chemscore.Internal.Correction>
0.9513

> <Gold.Rescore>
     Score         DG    S(hbond)    S(metal)    S(lipo)     H(rot)  DE(clash)    DE(int)     intcor
     10.71     -12.86       1.00        0.00      69.07       1.58       0.01       2.13       ----

> <Gold.Chemscore.Fitness>
10.7112

> <Gold.Chemscore.DG>
-12.8554

> <Gold.Chemscore.ZeroCoef>
-5.4800

> <Gold.Chemscore.Hbond>
1.0003

> <Gold.Chemscore.Metal>
0.0000

> <Gold.Chemscore.Lipo>
69.0665

> <Gold.Chemscore.Internal_Hbond>
0.0000

> <Gold.Chemscore.DEClash>
0.0103

> <Gold.Chemscore.DEInternal>
2.1340

> <Gold.Chemscore.Rot>
1.5806

> <Gold.Chemscore.Internal.Correction>
   9.000000E+99

> <Gold.Chemscore.Hbonds>
donor molecule, donor type, donor heavy atom, donor atom, acceptor molecule, acceptor atom, score
      P1  H  7997  8010       L1    22  0.97

> <Gold.Chemscore.Hbond.Weighted>
-3.3409

> <Gold.Chemscore.Metal.Weighted>
-0.0000

> <Gold.Chemscore.Lipo.Weighted>
-8.0808

> <Gold.Chemscore.Internal_Hbond.Weighted>
0.0000

> <Gold.Chemscore.DEClash.Weighted>
0.0103

> <Gold.Chemscore.DEInternal.Weighted>
2.1340

> <Gold.Chemscore.Rot.Weighted>
4.0463

> <Gold.Chemscore.Internal.Correction.Weighted>
   9.000000E+99

> <Gold.Protein.RotatedTorsions>
[ 6907 6896 6895 6894 ] final -163.48 input  -60.11 | X-H torsion
[ 7974 7965 7964 7962 ] final -171.78 input  175.53 | X-H torsion
[ 8008 7997 7996 7995 ] final   88.05 input   59.86 | X-H torsion
[ 10167 10162 10161 10158 ] final   63.34 input  -65.29 | X-H torsion
[ 10718 10713 10712 10709 ] final -110.47 input   66.30 | X-H torsion
[ 10763 10752 10751 10750 ] final   39.30 input  -60.55 | X-H torsion
[ 11005 11000 10999 10996 ] final  -87.28 input  -57.11 | X-H torsion

> <Gold.Protein.ActiveResidues>
 VAL166  LYS551  ARG553  GLY616  TRP617  ASP618  TYR619  PRO620  LYS621  CYS622 
 ASP623  PHE694  ASN695  SER759  ASP760  ASP761  ALA762  ILE779  LEU786  VAL792 
 PHE793  MET794  SER795  GLU796  ALA797  LYS798  CYS799  TRP800  GLU811  SER814 

> <Gold.Protein.RotatedAtoms>
  151.3967  133.3771  159.2727 H   0  0  0  0  0  0  0  0  0  0  0  0  # atno 6907 bound_to 6896
  150.9464  134.8870  159.7655 H   0  0  0  0  0  0  0  0  0  0  0  0  # atno 6908 bound_to 6896
  152.5093  134.3920  159.9439 H   0  0  0  0  0  0  0  0  0  0  0  0  # atno 6909 bound_to 6896
  144.7153  140.1871  143.6352 H   0  0  0  0  0  0  0  0  0  0  0  0  # atno 7974 bound_to 7965
  155.9830  140.3375  155.6680 H   0  0  0  0  0  0  0  0  0  0  0  0  # atno 8008 bound_to 7997
  155.6524  140.0707  157.2600 H   0  0  0  0  0  0  0  0  0  0  0  0  # atno 8009 bound_to 7997
  154.4197  140.1723  156.1676 H   0  0  0  0  0  0  0  0  0  0  0  0  # atno 8010 bound_to 7997
  140.1341  144.4615  150.6848 H   0  0  0  0  0  0  0  0  0  0  0  0  # atno 10167 bound_to 10162
  156.0593  130.5817  150.8242 H   0  0  0  0  0  0  0  0  0  0  0  0  # atno 10718 bound_to 10713
  152.9972  135.6224  154.2443 H   0  0  0  0  0  0  0  0  0  0  0  0  # atno 10763 bound_to 10752
  154.2183  135.2797  155.2935 H   0  0  0  0  0  0  0  0  0  0  0  0  # atno 10764 bound_to 10752
  154.5550  135.5722  153.7014 H   0  0  0  0  0  0  0  0  0  0  0  0  # atno 10765 bound_to 10752
  141.1619  133.7502  156.9283 H   0  0  0  0  0  0  0  0  0  0  0  0  # atno 11005 bound_to 11000
  145.8802  139.2319  143.1609 LP  0  0  0  0  0  0  0  0  0  0  0  0  # atno 17320 bound_to 7965
  146.0002  140.8527  143.0022 LP  0  0  0  0  0  0  0  0  0  0  0  0  # atno 17321 bound_to 7965
  140.6800  143.2322  151.5410 LP  0  0  0  0  0  0  0  0  0  0  0  0  # atno 17342 bound_to 10162
  139.5505  144.2409  152.1521 LP  0  0  0  0  0  0  0  0  0  0  0  0  # atno 17343 bound_to 10162
  157.5589  131.0945  150.9588 LP  0  0  0  0  0  0  0  0  0  0  0  0  # atno 17370 bound_to 10713
  156.9831  130.5534  149.5297 LP  0  0  0  0  0  0  0  0  0  0  0  0  # atno 17371 bound_to 10713
  140.1404  134.9297  157.2458 LP  0  0  0  0  0  0  0  0  0  0  0  0  # atno 17394 bound_to 11000
  140.2844  134.3313  155.7333 LP  0  0  0  0  0  0  0  0  0  0  0  0  # atno 17395 bound_to 11000

$$$$
