AV-unprocessed.smi:650|AV-procd|sdf|3183|dock2
  -GOLD-   22720 0113D 1   1.00000     0.00000
 Structure written by MMmdl.
 43 44  0  0  0  0  0  0  0  0  2 V2000
  153.5379  142.0245  160.9426 C   0  0  0  0  0  0  0  0  0  0  0  0
  152.7612  142.5651  159.7912 C   0  0  0  0  0  0  0  0  0  0  0  0
  151.9198  141.9850  158.8843 C   0  0  0  0  0  0  0  0  0  0  0  0
  151.5281  143.0780  158.0665 C   0  0  0  0  0  0  0  0  0  0  0  0
  150.6340  142.8903  156.9819 N   0  0  0  0  0  0  0  0  0  0  0  0
  150.2260  141.7262  156.4491 C   0  0  0  0  0  0  0  0  0  0  0  0
  150.5631  140.6083  156.8404 O   0  0  0  0  0  0  0  0  0  0  0  0
  149.3884  141.9282  155.4220 N   0  0  0  0  0  0  0  0  0  0  0  0
  148.7683  140.8724  154.6284 C   0  0  0  0  0  0  0  0  0  0  0  0
  147.3720  141.2706  154.0918 C   0  0  2  0  0  0  0  0  0  0  0  0
  146.2495  140.9474  155.0947 C   0  0  0  0  0  0  0  0  0  0  0  0
  145.9503  139.4393  155.1708 C   0  0  0  0  0  0  0  0  0  0  0  0
  145.6268  138.8828  153.8319 N   0  3  2  0  0  0  0  0  0  0  0  0
  145.2144  137.4576  153.9018 C   0  0  0  0  0  0  0  0  0  0  0  0
  144.4805  136.9912  152.6334 C   0  0  0  0  0  0  0  0  0  0  0  0
  143.3082  137.7555  152.4471 O   0  0  0  0  0  0  0  0  0  0  0  0
  146.7180  139.1330  152.8531 C   0  0  0  0  0  0  0  0  0  0  0  0
  147.0201  140.6366  152.7305 C   0  0  0  0  0  0  0  0  0  0  0  0
  152.0802  144.2220  158.4399 N   0  0  0  0  0  0  0  0  0  0  0  0
  152.8724  143.8995  159.5481 O   0  0  0  0  0  0  0  0  0  0  0  0
  153.8017  140.9800  160.7766 H   0  0  0  0  0  0  0  0  0  0  0  0
  152.9555  142.0847  161.8619 H   0  0  0  0  0  0  0  0  0  0  0  0
  154.4609  142.5858  161.0889 H   0  0  0  0  0  0  0  0  0  0  0  0
  151.6328  140.9460  158.8199 H   0  0  0  0  0  0  0  0  0  0  0  0
  150.2711  143.7341  156.5642 H   0  0  0  0  0  0  0  0  0  0  0  0
  149.1699  142.8803  155.1663 H   0  0  0  0  0  0  0  0  0  0  0  0
  149.4465  140.6352  153.8095 H   0  0  0  0  0  0  0  0  0  0  0  0
  148.6950  139.9647  155.2299 H   0  0  0  0  0  0  0  0  0  0  0  0
  147.3785  142.3532  153.9575 H   0  0  0  0  0  0  0  0  0  0  0  0
  146.5052  141.3291  156.0839 H   0  0  0  0  0  0  0  0  0  0  0  0
  145.3417  141.4732  154.7955 H   0  0  0  0  0  0  0  0  0  0  0  0
  146.7963  138.8996  155.5983 H   0  0  0  0  0  0  0  0  0  0  0  0
  145.1071  139.2818  155.8445 H   0  0  0  0  0  0  0  0  0  0  0  0
  146.0911  136.8343  154.0843 H   0  0  0  0  0  0  0  0  0  0  0  0
  144.5506  137.3049  154.7543 H   0  0  0  0  0  0  0  0  0  0  0  0
  145.1074  137.0546  151.7447 H   0  0  0  0  0  0  0  0  0  0  0  0
  144.1920  135.9452  152.7397 H   0  0  0  0  0  0  0  0  0  0  0  0
  143.5014  138.6594  152.6474 H   0  0  0  0  0  0  0  0  0  0  0  0
  147.6138  138.5870  153.1523 H   0  0  0  0  0  0  0  0  0  0  0  0
  146.4380  138.7542  151.8711 H   0  0  0  0  0  0  0  0  0  0  0  0
  146.1422  141.1388  152.3219 H   0  0  0  0  0  0  0  0  0  0  0  0
  147.8177  140.8015  152.0059 H   0  0  0  0  0  0  0  0  0  0  0  0
  144.8164  139.3911  153.5065 H   0  0  0  0  0  0  0  0  0  0  0  0
  1  2  1  0  0  0  0
  1 21  1  0  0  0  0
  1 22  1  0  0  0  0
  1 23  1  0  0  0  0
  2 20  1  0  0  0  0
  2  3  2  0  0  0  0
  3  4  1  0  0  0  0
  3 24  1  0  0  0  0
  4  5  1  0  0  0  0
  4 19  2  0  0  0  0
  5  6  1  0  0  0  0
  5 25  1  0  0  0  0
  6  7  2  0  0  0  0
  6  8  1  0  0  0  0
  8  9  1  0  0  0  0
  8 26  1  0  0  0  0
  9 10  1  0  0  0  0
  9 27  1  0  0  0  0
  9 28  1  0  0  0  0
 10 18  1  0  0  0  0
 10 11  1  0  0  0  0
 10 29  1  0  0  0  0
 11 12  1  0  0  0  0
 11 30  1  0  0  0  0
 11 31  1  0  0  0  0
 12 13  1  0  0  0  0
 12 32  1  0  0  0  0
 12 33  1  0  0  0  0
 13 14  1  0  0  0  0
 13 17  1  0  0  0  0
 13 43  1  0  0  0  0
 14 15  1  0  0  0  0
 14 34  1  0  0  0  0
 14 35  1  0  0  0  0
 15 16  1  0  0  0  0
 15 36  1  0  0  0  0
 15 37  1  0  0  0  0
 16 38  1  0  0  0  0
 17 18  1  0  0  0  0
 17 39  1  0  0  0  0
 17 40  1  0  0  0  0
 18 41  1  0  0  0  0
 18 42  1  0  0  0  0
 19 20  1  0  0  0  0
M  CHG  1  13   1
M  END
> <s_m_source_file>
AV-unprocessed.smi

> <i_m_source_file_index>
650

> <i_lp_mmshare_version>
43012

> <i_f3d_flags>
0

> <s_epik_input>
W0NIM11jMVtjSF1jKG5vMSlbTkhdQyg9TylbTkhdW0NIMl1bQ0hdMltDSDJdW0NIMl1OKFtDSDJdW0NIMl0yKVtDSDJdW0NIMl1bT0hd

> <s_epik_cmdline>
J2VwaWtfcHl0aG9uJywgJy1waCcsICc3LjAnLCAnLXRuJywgJzgnLCAnLW1hJywgJzIwMCcsICctbWV0YWxfYmluZGluZycsICctaW1hZScsICc8aW5maWxlLm1hZT4nLCAnLW9tYWUnLCAnPG91dGZpbGUubWFlPic=

> <r_epik_Ionization_Penalty>
0.00179437

> <r_epik_Ionization_Penalty_Charging>
0.00177223

> <r_epik_Ionization_Penalty_Neutral>
2.21418e-05

> <r_epik_State_Penalty>
0.00120075

> <r_epik_Charging_Adjusted_Penalty>
0.00297297

> <i_epik_Tot_Q>
1

> <i_epik_Tot_abs_Q>
1

> <r_epik_Metal_State_Penalty>
-0

> <b_epik_Metal_Only>
0

> <s_lp_Force_Field>
OPLS_2005

> <r_lp_Energy>
17.0512

> <b_lp_Chiralities_Consistent>
1

> <s_lp_Variant>
AV-unprocessed.smi:650-2

> <Gold.Version>
5.8.1

> <Gold.Id.Protein>
6NUR|6NUR_protein|mol2

> <Gold.PLP.Fitness>
50.0445

> <Gold.PLP.PLP>
-36.3360

> <Gold.PLP.part.hbond>
-5.0000

> <Gold.PLP.part.metal>
0.0000

> <Gold.PLP.part.buried>
-5.7843

> <Gold.PLP.part.nonpolar>
-26.2371

> <Gold.PLP.part.repulsive>
0.2786

> <Gold.PLP.ligand.clash>
0.0000

> <Gold.PLP.ligand.torsion>
0.6790

> <Gold.PLP.Chemscore.Hbond>
5.0000

> <Gold.PLP.Chemscore.CHOScore>
0.0000

> <Gold.PLP.Chemscore.Metal>
0.0000

> <Gold.Chemscore.Hbonds>
donor molecule, donor type, donor heavy atom, donor atom, acceptor molecule, acceptor atom, score
      L1  H     5    25       P1  8028  1.00
      L1  H     8    26       P1  8028  1.00
      L1  H    13    43       P1 10175  2.00
      L1  H    16    38       P1 10175  1.00

> <Gold.PLP.Chemscore.Internal.Correction>
0.0665

> <Gold.Rescore>
     Score         DG    S(hbond)    S(metal)    S(lipo)     H(rot)  DE(clash)    DE(int)     intcor
     18.74     -20.81       3.96        0.00      73.85       2.55       0.14       1.94       ----

> <Gold.Chemscore.Fitness>
18.7355

> <Gold.Chemscore.DG>
-20.8108

> <Gold.Chemscore.ZeroCoef>
-5.4800

> <Gold.Chemscore.Hbond>
3.9571

> <Gold.Chemscore.Metal>
0.0000

> <Gold.Chemscore.Lipo>
73.8477

> <Gold.Chemscore.Internal_Hbond>
0.0000

> <Gold.Chemscore.DEClash>
0.1388

> <Gold.Chemscore.DEInternal>
1.9365

> <Gold.Chemscore.Rot>
2.5492

> <Gold.Chemscore.Internal.Correction>
   9.000000E+99

> <Gold.Chemscore.Hbonds>
donor molecule, donor type, donor heavy atom, donor atom, acceptor molecule, acceptor atom, score
      L1  H     5    25       P1  8028  0.97
      L1  H     8    26       P1  8028  0.95
      L1  H    13    43       P1 10175  1.00
      L1  H    16    38       P1 10175  1.00

> <Gold.Chemscore.Hbond.Weighted>
-13.2166

> <Gold.Chemscore.Metal.Weighted>
-0.0000

> <Gold.Chemscore.Lipo.Weighted>
-8.6402

> <Gold.Chemscore.Internal_Hbond.Weighted>
0.0000

> <Gold.Chemscore.DEClash.Weighted>
0.1388

> <Gold.Chemscore.DEInternal.Weighted>
1.9365

> <Gold.Chemscore.Rot.Weighted>
6.5260

> <Gold.Chemscore.Internal.Correction.Weighted>
   9.000000E+99

> <Gold.Protein.RotatedTorsions>
[ 6907 6896 6895 6894 ] final   88.68 input  -60.11 | X-H torsion
[ 7974 7965 7964 7962 ] final   89.85 input  175.53 | X-H torsion
[ 8008 7997 7996 7995 ] final -167.62 input   59.86 | X-H torsion
[ 10167 10162 10161 10158 ] final  -40.49 input  -65.29 | X-H torsion
[ 10718 10713 10712 10709 ] final -104.32 input   66.30 | X-H torsion
[ 10763 10752 10751 10750 ] final   74.75 input  -60.55 | X-H torsion
[ 11005 11000 10999 10996 ] final   61.98 input  -57.11 | X-H torsion

> <Gold.Protein.ActiveResidues>
 VAL166  LYS551  ARG553  GLY616  TRP617  ASP618  TYR619  PRO620  LYS621  CYS622 
 ASP623  PHE694  ASN695  SER759  ASP760  ASP761  ALA762  ILE779  LEU786  VAL792 
 PHE793  MET794  SER795  GLU796  ALA797  LYS798  CYS799  TRP800  GLU811  SER814 

> <Gold.Protein.RotatedAtoms>
  152.5428  134.2083  159.8739 H   0  0  0  0  0  0  0  0  0  0  0  0  # atno 6907 bound_to 6896
  151.2068  133.4572  159.2605 H   0  0  0  0  0  0  0  0  0  0  0  0  # atno 6908 bound_to 6896
  151.0936  134.9943  159.8470 H   0  0  0  0  0  0  0  0  0  0  0  0  # atno 6909 bound_to 6896
  145.5269  139.2281  143.2640 H   0  0  0  0  0  0  0  0  0  0  0  0  # atno 7974 bound_to 7965
  155.8802  140.1008  157.1490 H   0  0  0  0  0  0  0  0  0  0  0  0  # atno 8008 bound_to 7997
  154.4004  140.1330  156.4251 H   0  0  0  0  0  0  0  0  0  0  0  0  # atno 8009 bound_to 7997
  155.7651  140.3462  155.5220 H   0  0  0  0  0  0  0  0  0  0  0  0  # atno 8010 bound_to 7997
  140.7032  143.3150  151.2932 H   0  0  0  0  0  0  0  0  0  0  0  0  # atno 10167 bound_to 10162
  156.0300  130.5509  150.7379 H   0  0  0  0  0  0  0  0  0  0  0  0  # atno 10718 bound_to 10713
  153.0608  135.5014  154.8088 H   0  0  0  0  0  0  0  0  0  0  0  0  # atno 10763 bound_to 10752
  154.6879  135.2979  154.9524 H   0  0  0  0  0  0  0  0  0  0  0  0  # atno 10764 bound_to 10752
  154.0288  135.6732  153.4831 H   0  0  0  0  0  0  0  0  0  0  0  0  # atno 10765 bound_to 10752
  140.0123  134.6277  155.9761 H   0  0  0  0  0  0  0  0  0  0  0  0  # atno 11005 bound_to 11000
  146.2069  140.6084  142.9077 LP  0  0  0  0  0  0  0  0  0  0  0  0  # atno 17320 bound_to 7965
  144.7646  140.5501  143.6712 LP  0  0  0  0  0  0  0  0  0  0  0  0  # atno 17321 bound_to 7965
  139.6586  144.0231  152.2677 LP  0  0  0  0  0  0  0  0  0  0  0  0  # atno 17342 bound_to 10162
  139.9790  144.6441  150.7918 LP  0  0  0  0  0  0  0  0  0  0  0  0  # atno 17343 bound_to 10162
  157.4955  131.0914  151.0376 LP  0  0  0  0  0  0  0  0  0  0  0  0  # atno 17370 bound_to 10713
  157.0771  130.5888  149.5413 LP  0  0  0  0  0  0  0  0  0  0  0  0  # atno 17371 bound_to 10713
  141.1719  133.6538  156.4685 LP  0  0  0  0  0  0  0  0  0  0  0  0  # atno 17394 bound_to 11000
  140.4532  134.6910  157.5049 LP  0  0  0  0  0  0  0  0  0  0  0  0  # atno 17395 bound_to 11000

$$$$
