AV-unprocessed.smi:2693|AV-procd|sdf|10400|dock2
  -GOLD-   2272014433D 1   1.00000     0.00000
 Structure written by MMmdl.
 45 47  0  0  0  0  0  0  0  0  1 V2000
  149.1719  129.4961  153.6234 C   0  0  0  0  0  0  0  0  0  0  0  0
  150.1564  130.3118  154.3287 N   0  0  0  0  0  0  0  0  0  0  0  0
  151.3069  129.6292  154.9140 C   0  0  0  0  0  0  0  0  0  0  0  0
  149.9967  131.6953  154.4502 C   0  0  0  0  0  0  0  0  0  0  0  0
  150.6882  132.3140  155.4164 N   0  0  0  0  0  0  0  0  0  0  0  0
  150.5371  133.6498  155.5429 C   0  0  0  0  0  0  0  0  0  0  0  0
  149.6771  134.3838  154.6912 C   0  0  0  0  0  0  0  0  0  0  0  0
  149.4684  135.7883  154.7404 N   0  0  0  0  0  0  0  0  0  0  0  0
  149.5240  136.6110  155.8012 C   0  0  0  0  0  0  0  0  0  0  0  0
  149.7545  136.2691  156.9603 O   0  0  0  0  0  0  0  0  0  0  0  0
  149.2864  137.8777  155.4381 N   0  0  0  0  0  0  0  0  0  0  0  0
  149.2731  139.0248  156.3476 C   0  0  1  0  0  0  0  0  0  0  0  0
  150.6865  139.4818  156.7793 C   0  0  1  0  0  0  0  0  0  0  0  0
  151.9331  138.6705  156.5193 C   0  0  0  0  0  0  0  0  0  0  0  0
  152.4840  139.2949  155.2340 C   0  0  0  0  0  0  0  0  0  0  0  0
  151.3693  139.9604  154.6437 O   0  0  0  0  0  0  0  0  0  0  0  0
  150.6044  140.5448  155.6955 C   0  0  1  0  0  0  0  0  0  0  0  0
  149.0735  140.3743  155.6084 C   0  0  0  0  0  0  0  0  0  0  0  0
  148.4664  140.3610  154.1987 C   0  0  0  0  0  0  0  0  0  0  0  0
  148.2836  141.4160  156.4067 C   0  0  0  0  0  0  0  0  0  0  0  0
  149.0075  133.6330  153.7045 C   0  0  0  0  0  0  0  0  0  0  0  0
  149.1660  132.2980  153.5896 N   0  0  0  0  0  0  0  0  0  0  0  0
  149.0815  129.8210  152.5865 H   0  0  0  0  0  0  0  0  0  0  0  0
  148.1945  129.5843  154.0986 H   0  0  0  0  0  0  0  0  0  0  0  0
  149.4447  128.4410  153.6179 H   0  0  0  0  0  0  0  0  0  0  0  0
  152.2351  130.0214  154.4972 H   0  0  0  0  0  0  0  0  0  0  0  0
  151.2851  128.5561  154.7237 H   0  0  0  0  0  0  0  0  0  0  0  0
  151.3264  129.7752  155.9945 H   0  0  0  0  0  0  0  0  0  0  0  0
  151.1265  134.1080  156.3209 H   0  0  0  0  0  0  0  0  0  0  0  0
  149.2158  136.2175  153.8621 H   0  0  0  0  0  0  0  0  0  0  0  0
  149.1079  138.0709  154.4633 H   0  0  0  0  0  0  0  0  0  0  0  0
  148.5921  138.9084  157.1929 H   0  0  0  0  0  0  0  0  0  0  0  0
  150.6585  139.9335  157.7721 H   0  0  0  0  0  0  0  0  0  0  0  0
  152.6535  138.7512  157.3337 H   0  0  0  0  0  0  0  0  0  0  0  0
  151.7168  137.6114  156.3844 H   0  0  0  0  0  0  0  0  0  0  0  0
  153.2533  140.0327  155.4670 H   0  0  0  0  0  0  0  0  0  0  0  0
  152.9131  138.5558  154.5575 H   0  0  0  0  0  0  0  0  0  0  0  0
  150.9649  141.5269  156.0052 H   0  0  0  0  0  0  0  0  0  0  0  0
  148.4611  141.3576  153.7562 H   0  0  0  0  0  0  0  0  0  0  0  0
  147.4367  140.0023  154.2126 H   0  0  0  0  0  0  0  0  0  0  0  0
  149.0225  139.7195  153.5150 H   0  0  0  0  0  0  0  0  0  0  0  0
  148.3652  142.4085  155.9623 H   0  0  0  0  0  0  0  0  0  0  0  0
  148.6434  141.4951  157.4330 H   0  0  0  0  0  0  0  0  0  0  0  0
  147.2242  141.1626  156.4562 H   0  0  0  0  0  0  0  0  0  0  0  0
  148.3370  134.1045  153.0009 H   0  0  0  0  0  0  0  0  0  0  0  0
  1  2  1  0  0  0  0
  1 23  1  0  0  0  0
  1 24  1  0  0  0  0
  1 25  1  0  0  0  0
  2  3  1  0  0  0  0
  2  4  1  0  0  0  0
  3 26  1  0  0  0  0
  3 27  1  0  0  0  0
  3 28  1  0  0  0  0
  4 22  1  0  0  0  0
  4  5  2  0  0  0  0
  5  6  1  0  0  0  0
  6  7  2  0  0  0  0
  6 29  1  0  0  0  0
  7  8  1  0  0  0  0
  7 21  1  0  0  0  0
  8  9  1  0  0  0  0
  8 30  1  0  0  0  0
  9 10  2  0  0  0  0
  9 11  1  0  0  0  0
 11 12  1  0  0  0  0
 11 31  1  0  0  0  0
 12 18  1  0  0  0  0
 12 13  1  0  0  0  0
 12 32  1  0  0  0  0
 13 17  1  0  0  0  0
 13 14  1  0  0  0  0
 13 33  1  0  0  0  0
 14 15  1  0  0  0  0
 14 34  1  0  0  0  0
 14 35  1  0  0  0  0
 15 16  1  0  0  0  0
 15 36  1  0  0  0  0
 15 37  1  0  0  0  0
 16 17  1  0  0  0  0
 17 18  1  0  0  0  0
 17 38  1  0  0  0  0
 18 19  1  0  0  0  0
 18 20  1  0  0  0  0
 19 39  1  0  0  0  0
 19 40  1  0  0  0  0
 19 41  1  0  0  0  0
 20 42  1  0  0  0  0
 20 43  1  0  0  0  0
 20 44  1  0  0  0  0
 21 22  2  0  0  0  0
 21 45  1  0  0  0  0
M  END
> <s_m_source_file>
AV-unprocessed.smi

> <i_m_source_file_index>
2693

> <i_lp_mmshare_version>
43012

> <i_f3d_flags>
0

> <s_epik_input>
W0NIM11OKFtDSDNdKWMxbltjSF1jKFtjSF1uMSlbTkhdQyg9TylbTkhdW0NASF0yQyhbQ0gzXSkoW0NIM10pW0NAQEhdKFtDQEhdMjMpT1tDSDJdW0NIMl0z

> <s_epik_cmdline>
J2VwaWtfcHl0aG9uJywgJy1waCcsICc3LjAnLCAnLXRuJywgJzgnLCAnLW1hJywgJzIwMCcsICctbWV0YWxfYmluZGluZycsICctaW1hZScsICc8aW5maWxlLm1hZT4nLCAnLW9tYWUnLCAnPG91dGZpbGUubWFlPic=

> <r_lp_tautomer_probability>
1

> <r_epik_Ionization_Penalty>
0.00031779

> <r_epik_Ionization_Penalty_Charging>
0

> <r_epik_Ionization_Penalty_Neutral>
0.00031779

> <r_epik_State_Penalty>
-0

> <r_epik_Charging_Adjusted_Penalty>
0

> <i_epik_Tot_Q>
0

> <i_epik_Tot_abs_Q>
0

> <r_epik_Metal_State_Penalty>
-0

> <b_epik_Metal_Only>
0

> <s_lp_Force_Field>
OPLS_2005

> <r_lp_Energy>
31.917

> <b_lp_Chiralities_Consistent>
1

> <s_lp_Variant>
AV-unprocessed.smi:2693-4

> <Gold.Version>
5.8.1

> <Gold.Id.Protein>
6NUR|6NUR_protein|mol2

> <Gold.PLP.Fitness>
39.3041

> <Gold.PLP.PLP>
-31.5770

> <Gold.PLP.part.hbond>
-1.9751

> <Gold.PLP.part.metal>
0.0000

> <Gold.PLP.part.buried>
-4.3132

> <Gold.PLP.part.nonpolar>
-26.3853

> <Gold.PLP.part.repulsive>
0.2224

> <Gold.PLP.ligand.clash>
0.0000

> <Gold.PLP.ligand.torsion>
0.4553

> <Gold.PLP.Chemscore.Hbond>
2.0000

> <Gold.PLP.Chemscore.CHOScore>
0.8164

> <Gold.PLP.Chemscore.Metal>
0.0000

> <Gold.Chemscore.Hbonds>
donor molecule, donor type, donor heavy atom, donor atom, acceptor molecule, acceptor atom, score
      L1  H     8    30       P1  7948  1.00
      P1  H  7989  7998       L1    16  0.88
      L1  C    21    45       P1  7948  0.74

> <Gold.PLP.Chemscore.Internal.Correction>
0.1884

> <Gold.Rescore>
     Score         DG    S(hbond)    S(metal)    S(lipo)     H(rot)  DE(clash)    DE(int)     intcor
     15.93     -16.38       1.81        0.00      63.48       1.00       0.00       0.45       ----

> <Gold.Chemscore.Fitness>
15.9336

> <Gold.Chemscore.DG>
-16.3808

> <Gold.Chemscore.ZeroCoef>
-5.4800

> <Gold.Chemscore.Hbond>
1.8065

> <Gold.Chemscore.Metal>
0.0000

> <Gold.Chemscore.Lipo>
63.4797

> <Gold.Chemscore.Internal_Hbond>
0.0000

> <Gold.Chemscore.DEClash>
0.0000

> <Gold.Chemscore.DEInternal>
0.4473

> <Gold.Chemscore.Rot>
1.0000

> <Gold.Chemscore.Internal.Correction>
   9.000000E+99

> <Gold.Chemscore.Hbonds>
donor molecule, donor type, donor heavy atom, donor atom, acceptor molecule, acceptor atom, score
      L1  H     8    30       P1  7948  0.87
      P1  H  7989  7998       L1    16  0.73

> <Gold.Chemscore.Hbond.Weighted>
-6.0337

> <Gold.Chemscore.Metal.Weighted>
-0.0000

> <Gold.Chemscore.Lipo.Weighted>
-7.4271

> <Gold.Chemscore.Internal_Hbond.Weighted>
0.0000

> <Gold.Chemscore.DEClash.Weighted>
0.0000

> <Gold.Chemscore.DEInternal.Weighted>
0.4473

> <Gold.Chemscore.Rot.Weighted>
2.5600

> <Gold.Chemscore.Internal.Correction.Weighted>
   9.000000E+99

> <Gold.Protein.RotatedTorsions>
[ 6907 6896 6895 6894 ] final   56.88 input  -60.11 | X-H torsion
[ 7974 7965 7964 7962 ] final -115.91 input  175.53 | X-H torsion
[ 8008 7997 7996 7995 ] final   46.04 input   59.86 | X-H torsion
[ 10167 10162 10161 10158 ] final -110.23 input  -65.29 | X-H torsion
[ 10718 10713 10712 10709 ] final  107.19 input   66.30 | X-H torsion
[ 10763 10752 10751 10750 ] final   83.65 input  -60.55 | X-H torsion
[ 11005 11000 10999 10996 ] final  107.16 input  -57.11 | X-H torsion

> <Gold.Protein.ActiveResidues>
 VAL166  LYS551  ARG553  GLY616  TRP617  ASP618  TYR619  PRO620  LYS621  CYS622 
 ASP623  PHE694  ASN695  SER759  ASP760  ASP761  ALA762  ILE779  LEU786  VAL792 
 PHE793  MET794  SER795  GLU796  ALA797  LYS798  CYS799  TRP800  GLU811  SER814 

> <Gold.Protein.RotatedAtoms>
  152.3678  134.6778  160.0185 H   0  0  0  0  0  0  0  0  0  0  0  0  # atno 6907 bound_to 6896
  151.7081  133.3306  159.3292 H   0  0  0  0  0  0  0  0  0  0  0  0  # atno 6908 bound_to 6896
  150.7651  134.6491  159.6323 H   0  0  0  0  0  0  0  0  0  0  0  0  # atno 6909 bound_to 6896
  145.1028  140.8563  143.3916 H   0  0  0  0  0  0  0  0  0  0  0  0  # atno 7974 bound_to 7965
  155.3458  140.3410  155.4239 H   0  0  0  0  0  0  0  0  0  0  0  0  # atno 8008 bound_to 7997
  156.1789  140.1657  156.8346 H   0  0  0  0  0  0  0  0  0  0  0  0  # atno 8009 bound_to 7997
  154.5312  140.0745  156.8331 H   0  0  0  0  0  0  0  0  0  0  0  0  # atno 8010 bound_to 7997
  140.1467  143.4233  152.1524 H   0  0  0  0  0  0  0  0  0  0  0  0  # atno 10167 bound_to 10162
  157.6638  131.0867  150.6119 H   0  0  0  0  0  0  0  0  0  0  0  0  # atno 10718 bound_to 10713
  153.1310  135.4683  154.9348 H   0  0  0  0  0  0  0  0  0  0  0  0  # atno 10763 bound_to 10752
  154.7664  135.3146  154.8280 H   0  0  0  0  0  0  0  0  0  0  0  0  # atno 10764 bound_to 10752
  153.8823  135.6893  153.4820 H   0  0  0  0  0  0  0  0  0  0  0  0  # atno 10765 bound_to 10752
  139.8824  134.9392  156.5777 H   0  0  0  0  0  0  0  0  0  0  0  0  # atno 11005 bound_to 11000
  145.0935  139.2873  143.5722 LP  0  0  0  0  0  0  0  0  0  0  0  0  # atno 17320 bound_to 7965
  146.3529  140.0480  142.8638 LP  0  0  0  0  0  0  0  0  0  0  0  0  # atno 17321 bound_to 7965
  139.5445  144.7286  151.4626 LP  0  0  0  0  0  0  0  0  0  0  0  0  # atno 17342 bound_to 10162
  140.6727  143.8258  150.7020 LP  0  0  0  0  0  0  0  0  0  0  0  0  # atno 17343 bound_to 10162
  156.6421  130.4461  149.5749 LP  0  0  0  0  0  0  0  0  0  0  0  0  # atno 17370 bound_to 10713
  156.2201  130.6732  151.1360 LP  0  0  0  0  0  0  0  0  0  0  0  0  # atno 17371 bound_to 10713
  140.8051  133.8474  155.8760 LP  0  0  0  0  0  0  0  0  0  0  0  0  # atno 17394 bound_to 11000
  140.9558  134.1720  157.4693 LP  0  0  0  0  0  0  0  0  0  0  0  0  # atno 17395 bound_to 11000

$$$$
