AV-unprocessed.smi:2402|AV-procd|sdf|9508|dock6
  -GOLD-   2272013133D 1   1.00000     0.00000
 Structure written by MMmdl.
 38 39  0  0  0  0  0  0  0  0  1 V2000
  150.6986  140.8157  154.9012 C   0  0  0  0  0  0  0  0  0  0  0  0
  149.3856  140.7127  154.1538 C   0  0  0  0  0  0  0  0  0  0  0  0
  148.6241  141.8619  153.8673 C   0  0  0  0  0  0  0  0  0  0  0  0
  147.4114  141.6984  153.1693 C   0  0  0  0  0  0  0  0  0  0  0  0
  146.5386  142.8894  152.8332 C   0  0  0  0  0  0  0  0  0  0  0  0
  146.9515  140.4958  152.7628 N   0  0  0  0  0  0  0  0  0  0  0  0
  147.6776  139.3822  153.0314 C   0  0  0  0  0  0  0  0  0  0  0  0
  147.2832  138.0727  152.6480 N   0  0  0  0  0  0  0  0  0  0  0  0
  146.0385  137.5703  152.5653 C   0  0  0  0  0  0  0  0  0  0  0  0
  145.0020  138.1874  152.8133 O   0  0  0  0  0  0  0  0  0  0  0  0
  146.0565  136.2903  152.1662 N   0  0  0  0  0  0  0  0  0  0  0  0
  144.8699  135.4678  151.9571 C   0  0  1  0  0  0  0  0  0  0  0  0
  144.7596  135.0507  150.5160 C   0  0  0  0  0  0  0  0  0  0  0  0
  144.6361  133.7331  150.3709 C   0  0  0  0  0  0  0  0  0  0  0  0
  144.6444  132.9970  151.6849 C   0  0  1  0  0  0  0  0  0  0  0  0
  145.6717  131.8533  151.7054 C   0  0  0  0  0  0  0  0  0  0  0  0
  146.9609  132.3510  151.4161 O   0  0  0  0  0  0  0  0  0  0  0  0
  144.9272  134.1179  152.7190 C   0  0  0  0  0  0  0  0  0  0  0  0
  148.9035  139.4579  153.7301 C   0  0  0  0  0  0  0  0  0  0  0  0
  143.9702  136.0265  152.2201 H   0  0  0  0  0  0  0  0  0  0  0  0
  143.6414  132.5954  151.8357 H   0  0  0  0  0  0  0  0  0  0  0  0
  150.8793  141.8338  155.2477 H   0  0  0  0  0  0  0  0  0  0  0  0
  151.5251  140.5237  154.2531 H   0  0  0  0  0  0  0  0  0  0  0  0
  150.6924  140.1567  155.7696 H   0  0  0  0  0  0  0  0  0  0  0  0
  148.9596  142.8416  154.1751 H   0  0  0  0  0  0  0  0  0  0  0  0
  147.0060  143.8237  153.1449 H   0  0  0  0  0  0  0  0  0  0  0  0
  145.5753  142.8058  153.3373 H   0  0  0  0  0  0  0  0  0  0  0  0
  146.3613  142.9395  151.7586 H   0  0  0  0  0  0  0  0  0  0  0  0
  148.0363  137.4485  152.4002 H   0  0  0  0  0  0  0  0  0  0  0  0
  146.9501  135.8565  151.9867 H   0  0  0  0  0  0  0  0  0  0  0  0
  144.7641  135.7667  149.7072 H   0  0  0  0  0  0  0  0  0  0  0  0
  144.5264  133.2212  149.4264 H   0  0  0  0  0  0  0  0  0  0  0  0
  145.6972  131.3824  152.6887 H   0  0  0  0  0  0  0  0  0  0  0  0
  145.4106  131.0795  150.9826 H   0  0  0  0  0  0  0  0  0  0  0  0
  147.4804  131.6497  151.0537 H   0  0  0  0  0  0  0  0  0  0  0  0
  145.9096  133.9751  153.1721 H   0  0  0  0  0  0  0  0  0  0  0  0
  144.2030  134.0949  153.5339 H   0  0  0  0  0  0  0  0  0  0  0  0
  149.4720  138.5630  153.9392 H   0  0  0  0  0  0  0  0  0  0  0  0
  1  2  1  0  0  0  0
  1 22  1  0  0  0  0
  1 23  1  0  0  0  0
  1 24  1  0  0  0  0
  2 19  1  0  0  0  0
  2  3  2  0  0  0  0
  3  4  1  0  0  0  0
  3 25  1  0  0  0  0
  4  5  1  0  0  0  0
  4  6  2  0  0  0  0
  5 26  1  0  0  0  0
  5 27  1  0  0  0  0
  5 28  1  0  0  0  0
  6  7  1  0  0  0  0
  7  8  1  0  0  0  0
  7 19  2  0  0  0  0
  8  9  1  0  0  0  0
  8 29  1  0  0  0  0
  9 10  2  0  0  0  0
  9 11  1  0  0  0  0
 11 12  1  0  0  0  0
 11 30  1  0  0  0  0
 12 20  1  0  0  0  0
 12 18  1  0  0  0  0
 12 13  1  0  0  0  0
 13 14  2  0  0  0  0
 13 31  1  0  0  0  0
 14 15  1  0  0  0  0
 14 32  1  0  0  0  0
 15 21  1  0  0  0  0
 15 16  1  0  0  0  0
 15 18  1  0  0  0  0
 16 17  1  0  0  0  0
 16 33  1  0  0  0  0
 16 34  1  0  0  0  0
 17 35  1  0  0  0  0
 18 36  1  0  0  0  0
 18 37  1  0  0  0  0
 19 38  1  0  0  0  0
M  END
> <s_m_source_file>
AV-unprocessed.smi

> <i_m_source_file_index>
2402

> <i_lp_mmshare_version>
43012

> <i_f3d_flags>
0

> <s_epik_input>
W0NIM11jMVtjSF1jKFtDSDNdKW5jKFtjSF0xKVtOSF1DKD1PKVtOSF1bQ0BASF0yW0NIXT1bQ0hdW0NAQEhdKFtDSDJdMilbQ0gyXVtPSF0=

> <s_epik_cmdline>
J2VwaWtfcHl0aG9uJywgJy1waCcsICc3LjAnLCAnLXRuJywgJzgnLCAnLW1hJywgJzIwMCcsICctbWV0YWxfYmluZGluZycsICctaW1hZScsICc8aW5maWxlLm1hZT4nLCAnLW9tYWUnLCAnPG91dGZpbGUubWFlPic=

> <r_lp_tautomer_probability>
1

> <r_epik_Ionization_Penalty>
0.000257495

> <r_epik_Ionization_Penalty_Charging>
0

> <r_epik_Ionization_Penalty_Neutral>
0.000257495

> <r_epik_State_Penalty>
-0

> <r_epik_Charging_Adjusted_Penalty>
0

> <i_epik_Tot_Q>
0

> <i_epik_Tot_abs_Q>
0

> <r_epik_Metal_State_Penalty>
-0

> <b_epik_Metal_Only>
0

> <s_lp_Force_Field>
OPLS_2005

> <r_lp_Energy>
18.3393

> <b_lp_Chiralities_Consistent>
1

> <s_lp_Variant>
AV-unprocessed.smi:2402-4

> <Gold.Version>
5.8.1

> <Gold.Id.Protein>
6NUR|6NUR_protein|mol2

> <Gold.PLP.Fitness>
43.0465

> <Gold.PLP.PLP>
-34.8337

> <Gold.PLP.part.hbond>
-3.0000

> <Gold.PLP.part.metal>
0.0000

> <Gold.PLP.part.buried>
-2.8963

> <Gold.PLP.part.nonpolar>
-29.5620

> <Gold.PLP.part.repulsive>
2.1311

> <Gold.PLP.ligand.clash>
0.0000

> <Gold.PLP.ligand.torsion>
0.2684

> <Gold.PLP.Chemscore.Hbond>
2.9120

> <Gold.PLP.Chemscore.CHOScore>
0.0000

> <Gold.PLP.Chemscore.Metal>
0.0000

> <Gold.Chemscore.Hbonds>
donor molecule, donor type, donor heavy atom, donor atom, acceptor molecule, acceptor atom, score
      L1  H     8    29       P1  7948  1.00
      L1  H    11    30       P1  7948  0.88
      L1  H    17    35       P1 10747  1.00

> <Gold.PLP.Chemscore.Internal.Correction>
0.0137

> <Gold.Rescore>
     Score         DG    S(hbond)    S(metal)    S(lipo)     H(rot)  DE(clash)    DE(int)     intcor
     17.63     -19.05       2.94        0.00      71.06       1.78       0.14       1.28       ----

> <Gold.Chemscore.Fitness>
17.6282

> <Gold.Chemscore.DG>
-19.0473

> <Gold.Chemscore.ZeroCoef>
-5.4800

> <Gold.Chemscore.Hbond>
2.9406

> <Gold.Chemscore.Metal>
0.0000

> <Gold.Chemscore.Lipo>
71.0582

> <Gold.Chemscore.Internal_Hbond>
0.0000

> <Gold.Chemscore.DEClash>
0.1401

> <Gold.Chemscore.DEInternal>
1.2790

> <Gold.Chemscore.Rot>
1.7844

> <Gold.Chemscore.Internal.Correction>
   9.000000E+99

> <Gold.Chemscore.Hbonds>
donor molecule, donor type, donor heavy atom, donor atom, acceptor molecule, acceptor atom, score
      L1  H     8    29       P1  7948  0.99
      L1  H    11    30       P1  7948  0.82
      L1  H    17    35       P1 10747  0.98

> <Gold.Chemscore.Hbond.Weighted>
-9.8216

> <Gold.Chemscore.Metal.Weighted>
-0.0000

> <Gold.Chemscore.Lipo.Weighted>
-8.3138

> <Gold.Chemscore.Internal_Hbond.Weighted>
0.0000

> <Gold.Chemscore.DEClash.Weighted>
0.1401

> <Gold.Chemscore.DEInternal.Weighted>
1.2790

> <Gold.Chemscore.Rot.Weighted>
4.5681

> <Gold.Chemscore.Internal.Correction.Weighted>
   9.000000E+99

> <Gold.Protein.RotatedTorsions>
[ 6907 6896 6895 6894 ] final  177.67 input  -60.11 | X-H torsion
[ 7974 7965 7964 7962 ] final  117.00 input  175.53 | X-H torsion
[ 8008 7997 7996 7995 ] final  121.23 input   59.86 | X-H torsion
[ 10167 10162 10161 10158 ] final    0.17 input  -65.29 | X-H torsion
[ 10718 10713 10712 10709 ] final   85.49 input   66.30 | X-H torsion
[ 10763 10752 10751 10750 ] final   -7.59 input  -60.55 | X-H torsion
[ 11005 11000 10999 10996 ] final -151.38 input  -57.11 | X-H torsion

> <Gold.Protein.ActiveResidues>
 VAL166  LYS551  ARG553  GLY616  TRP617  ASP618  TYR619  PRO620  LYS621  CYS622 
 ASP623  PHE694  ASN695  SER759  ASP760  ASP761  ALA762  ILE779  LEU786  VAL792 
 PHE793  MET794  SER795  GLU796  ALA797  LYS798  CYS799  TRP800  GLU811  SER814 

> <Gold.Protein.RotatedAtoms>
  151.7002  133.3311  159.3264 H   0  0  0  0  0  0  0  0  0  0  0  0  # atno 6907 bound_to 6896
  150.7739  134.6622  159.6355 H   0  0  0  0  0  0  0  0  0  0  0  0  # atno 6908 bound_to 6896
  152.3774  134.6645  160.0207 H   0  0  0  0  0  0  0  0  0  0  0  0  # atno 6909 bound_to 6896
  145.1727  139.3092  143.4459 H   0  0  0  0  0  0  0  0  0  0  0  0  # atno 7974 bound_to 7965
  156.2677  140.2813  156.1275 H   0  0  0  0  0  0  0  0  0  0  0  0  # atno 8008 bound_to 7997
  155.1090  140.0390  157.2736 H   0  0  0  0  0  0  0  0  0  0  0  0  # atno 8009 bound_to 7997
  154.6757  140.2597  155.6966 H   0  0  0  0  0  0  0  0  0  0  0  0  # atno 8010 bound_to 7997
  140.6740  143.6967  150.7984 H   0  0  0  0  0  0  0  0  0  0  0  0  # atno 10167 bound_to 10162
  157.6915  131.0177  150.2830 H   0  0  0  0  0  0  0  0  0  0  0  0  # atno 10718 bound_to 10713
  153.4285  135.7011  153.6246 H   0  0  0  0  0  0  0  0  0  0  0  0  # atno 10763 bound_to 10752
  153.4671  135.3723  155.2371 H   0  0  0  0  0  0  0  0  0  0  0  0  # atno 10764 bound_to 10752
  154.8725  135.4034  154.3665 H   0  0  0  0  0  0  0  0  0  0  0  0  # atno 10765 bound_to 10752
  140.7302  134.3629  157.5168 H   0  0  0  0  0  0  0  0  0  0  0  0  # atno 11005 bound_to 11000
  146.3466  140.1879  142.8589 LP  0  0  0  0  0  0  0  0  0  0  0  0  # atno 17320 bound_to 7965
  145.0216  140.8798  143.5163 LP  0  0  0  0  0  0  0  0  0  0  0  0  # atno 17321 bound_to 7965
  140.0657  143.5110  152.2605 LP  0  0  0  0  0  0  0  0  0  0  0  0  # atno 17342 bound_to 10162
  139.6023  144.7586  151.3142 LP  0  0  0  0  0  0  0  0  0  0  0  0  # atno 17343 bound_to 10162
  156.3374  130.3810  149.7438 LP  0  0  0  0  0  0  0  0  0  0  0  0  # atno 17370 bound_to 10713
  156.4959  130.8106  151.3113 LP  0  0  0  0  0  0  0  0  0  0  0  0  # atno 17371 bound_to 10713
  139.8828  134.9013  156.2808 LP  0  0  0  0  0  0  0  0  0  0  0  0  # atno 17394 bound_to 11000
  140.9927  133.7199  156.0839 LP  0  0  0  0  0  0  0  0  0  0  0  0  # atno 17395 bound_to 11000

$$$$
