AV-unprocessed.smi:2178|AV-procd|sdf|8852|dock2
  -GOLD-   2272012 43D 1   1.00000     0.00000
 Structure written by MMmdl.
 46 48  0  0  0  0  0  0  0  0  1 V2000
  151.8962  144.1633  157.9802 C   0  0  0  0  0  0  0  0  0  0  0  0
  152.3331  143.7839  159.3834 C   0  0  0  0  0  0  0  0  0  0  0  0
  152.1363  144.6991  160.4378 C   0  0  0  0  0  0  0  0  0  0  0  0
  152.5505  144.3774  161.7435 C   0  0  0  0  0  0  0  0  0  0  0  0
  153.1689  143.1402  162.0007 C   0  0  0  0  0  0  0  0  0  0  0  0
  153.3684  142.2157  160.9548 C   0  0  0  0  0  0  0  0  0  0  0  0
  154.0435  140.8879  161.2436 C   0  0  0  0  0  0  0  0  0  0  0  0
  152.9371  142.5302  159.6451 C   0  0  0  0  0  0  0  0  0  0  0  0
  153.1339  141.6270  158.6327 O   0  0  0  0  0  0  0  0  0  0  0  0
  152.3488  140.4501  158.7568 C   0  0  0  0  0  0  0  0  0  0  0  0
  151.1691  140.5347  157.7769 C   0  0  2  0  0  0  0  0  0  0  0  0
  150.3456  139.4003  157.9657 O   0  0  0  0  0  0  0  0  0  0  0  0
  151.6425  140.5788  156.3101 C   0  0  0  0  0  0  0  0  0  0  0  0
  150.6665  140.0149  155.3869 N   0  0  0  0  0  0  0  0  0  0  0  0
  150.7675  138.8758  154.6562 C   0  0  0  0  0  0  0  0  0  0  0  0
  151.9738  137.9898  154.7181 C   0  0  0  0  0  0  0  0  0  0  0  0
  151.7786  136.7568  154.0597 O   0  0  0  0  0  0  0  0  0  0  0  0
  149.7209  138.5876  153.8821 N   0  0  0  0  0  0  0  0  0  0  0  0
  148.8583  139.6360  154.1355 C   0  0  0  0  0  0  0  0  0  0  0  0
  147.5715  139.9102  153.6196 C   0  0  0  0  0  0  0  0  0  0  0  0
  146.8675  141.0608  154.0315 C   0  0  0  0  0  0  0  0  0  0  0  0
  147.4387  141.9512  154.9636 C   0  0  0  0  0  0  0  0  0  0  0  0
  148.7194  141.6963  155.4905 C   0  0  0  0  0  0  0  0  0  0  0  0
  149.4187  140.5470  155.0753 C   0  0  0  0  0  0  0  0  0  0  0  0
  151.9191  145.2450  157.8455 H   0  0  0  0  0  0  0  0  0  0  0  0
  150.8785  143.8191  157.7961 H   0  0  0  0  0  0  0  0  0  0  0  0
  152.5513  143.7210  157.2291 H   0  0  0  0  0  0  0  0  0  0  0  0
  151.6691  145.6542  160.2478 H   0  0  0  0  0  0  0  0  0  0  0  0
  152.3994  145.0829  162.5473 H   0  0  0  0  0  0  0  0  0  0  0  0
  153.4907  142.9047  163.0047 H   0  0  0  0  0  0  0  0  0  0  0  0
  154.8250  140.6867  160.5103 H   0  0  0  0  0  0  0  0  0  0  0  0
  153.3161  140.0770  161.2038 H   0  0  0  0  0  0  0  0  0  0  0  0
  154.5027  140.8839  162.2327 H   0  0  0  0  0  0  0  0  0  0  0  0
  152.9766  139.5951  158.5011 H   0  0  0  0  0  0  0  0  0  0  0  0
  152.0022  140.2919  159.7792 H   0  0  0  0  0  0  0  0  0  0  0  0
  150.5844  141.4294  157.9923 H   0  0  0  0  0  0  0  0  0  0  0  0
  150.5073  138.7906  157.2622 H   0  0  0  0  0  0  0  0  0  0  0  0
  151.8528  141.6055  156.0103 H   0  0  0  0  0  0  0  0  0  0  0  0
  152.5826  140.0370  156.1984 H   0  0  0  0  0  0  0  0  0  0  0  0
  152.8194  138.5009  154.2562 H   0  0  0  0  0  0  0  0  0  0  0  0
  152.2491  137.8064  155.7561 H   0  0  0  0  0  0  0  0  0  0  0  0
  151.5628  136.9304  153.1563 H   0  0  0  0  0  0  0  0  0  0  0  0
  147.1256  139.2336  152.9057 H   0  0  0  0  0  0  0  0  0  0  0  0
  145.8848  141.2608  153.6302 H   0  0  0  0  0  0  0  0  0  0  0  0
  146.8930  142.8303  155.2733 H   0  0  0  0  0  0  0  0  0  0  0  0
  149.1595  142.3774  156.2033 H   0  0  0  0  0  0  0  0  0  0  0  0
  1  2  1  0  0  0  0
  1 25  1  0  0  0  0
  1 26  1  0  0  0  0
  1 27  1  0  0  0  0
  2  8  1  0  0  0  0
  2  3  2  0  0  0  0
  3  4  1  0  0  0  0
  3 28  1  0  0  0  0
  4  5  2  0  0  0  0
  4 29  1  0  0  0  0
  5  6  1  0  0  0  0
  5 30  1  0  0  0  0
  6  7  1  0  0  0  0
  6  8  2  0  0  0  0
  7 31  1  0  0  0  0
  7 32  1  0  0  0  0
  7 33  1  0  0  0  0
  8  9  1  0  0  0  0
  9 10  1  0  0  0  0
 10 11  1  0  0  0  0
 10 34  1  0  0  0  0
 10 35  1  0  0  0  0
 11 12  1  0  0  0  0
 11 13  1  0  0  0  0
 11 36  1  0  0  0  0
 12 37  1  0  0  0  0
 13 14  1  0  0  0  0
 13 38  1  0  0  0  0
 13 39  1  0  0  0  0
 14 24  1  0  0  0  0
 14 15  1  0  0  0  0
 15 16  1  0  0  0  0
 15 18  2  0  0  0  0
 16 17  1  0  0  0  0
 16 40  1  0  0  0  0
 16 41  1  0  0  0  0
 17 42  1  0  0  0  0
 18 19  1  0  0  0  0
 19 24  2  0  0  0  0
 19 20  1  0  0  0  0
 20 21  2  0  0  0  0
 20 43  1  0  0  0  0
 21 22  1  0  0  0  0
 21 44  1  0  0  0  0
 22 23  2  0  0  0  0
 22 45  1  0  0  0  0
 23 24  1  0  0  0  0
 23 46  1  0  0  0  0
M  END
> <s_m_source_file>
AV-unprocessed.smi

> <i_m_source_file_index>
2178

> <i_lp_mmshare_version>
43012

> <i_f3d_flags>
0

> <s_epik_input>
W0NIM11jMVtjSF1bY0hdW2NIXWMoW0NIM10pYzFPW0NIMl1bQ0BIXShbT0hdKVtDSDJdbihjKG4yKVtDSDJdW09IXSljKGMyMylbY0hdW2NIXVtjSF1bY0hdMw==

> <s_epik_cmdline>
J2VwaWtfcHl0aG9uJywgJy1waCcsICc3LjAnLCAnLXRuJywgJzgnLCAnLW1hJywgJzIwMCcsICctbWV0YWxfYmluZGluZycsICctaW1hZScsICc8aW5maWxlLm1hZT4nLCAnLW9tYWUnLCAnPG91dGZpbGUubWFlPic=

> <r_lp_tautomer_probability>
1

> <r_epik_Ionization_Penalty>
0.0555874

> <r_epik_Ionization_Penalty_Charging>
0

> <r_epik_Ionization_Penalty_Neutral>
0.0555874

> <r_epik_State_Penalty>
0.0478234

> <r_epik_Charging_Adjusted_Penalty>
0.0478234

> <i_epik_Tot_Q>
0

> <i_epik_Tot_abs_Q>
0

> <r_epik_Metal_State_Penalty>
4.98044e-05

> <b_epik_Metal_Only>
0

> <s_lp_Force_Field>
OPLS_2005

> <r_lp_Energy>
19.7692

> <b_lp_Chiralities_Consistent>
1

> <s_lp_Variant>
AV-unprocessed.smi:2178-1

> <Gold.Version>
5.8.1

> <Gold.Id.Protein>
6NUR|6NUR_protein|mol2

> <Gold.PLP.Fitness>
61.3355

> <Gold.PLP.PLP>
-57.3882

> <Gold.PLP.part.hbond>
-2.0000

> <Gold.PLP.part.metal>
0.0000

> <Gold.PLP.part.buried>
0.8049

> <Gold.PLP.part.nonpolar>
-55.8436

> <Gold.PLP.part.repulsive>
1.2064

> <Gold.PLP.ligand.clash>
0.0000

> <Gold.PLP.ligand.torsion>
0.8615

> <Gold.PLP.Chemscore.Hbond>
1.8480

> <Gold.PLP.Chemscore.CHOScore>
0.0000

> <Gold.PLP.Chemscore.Metal>
0.0000

> <Gold.Chemscore.Hbonds>
donor molecule, donor type, donor heavy atom, donor atom, acceptor molecule, acceptor atom, score
      L1  H    17    42       P1  7949  0.82
      P1  H 10752 10763       L1    17  1.00

> <Gold.PLP.Chemscore.Internal.Correction>
0.1264

> <Gold.Rescore>
     Score         DG    S(hbond)    S(metal)    S(lipo)     H(rot)  DE(clash)    DE(int)     intcor
     18.42     -21.30       1.61        0.00     153.99       2.96       1.97       0.92       ----

> <Gold.Chemscore.Fitness>
18.4160

> <Gold.Chemscore.DG>
-21.3018

> <Gold.Chemscore.ZeroCoef>
-5.4800

> <Gold.Chemscore.Hbond>
1.6086

> <Gold.Chemscore.Metal>
0.0000

> <Gold.Chemscore.Lipo>
153.9883

> <Gold.Chemscore.Internal_Hbond>
0.0000

> <Gold.Chemscore.DEClash>
1.9682

> <Gold.Chemscore.DEInternal>
0.9176

> <Gold.Chemscore.Rot>
2.9561

> <Gold.Chemscore.Internal.Correction>
   9.000000E+99

> <Gold.Chemscore.Hbonds>
donor molecule, donor type, donor heavy atom, donor atom, acceptor molecule, acceptor atom, score
      L1  H    17    42       P1  7949  0.76
      P1  H 10752 10763       L1    17  0.80

> <Gold.Chemscore.Hbond.Weighted>
-5.3728

> <Gold.Chemscore.Metal.Weighted>
-0.0000

> <Gold.Chemscore.Lipo.Weighted>
-18.0166

> <Gold.Chemscore.Internal_Hbond.Weighted>
0.0000

> <Gold.Chemscore.DEClash.Weighted>
1.9682

> <Gold.Chemscore.DEInternal.Weighted>
0.9176

> <Gold.Chemscore.Rot.Weighted>
7.5677

> <Gold.Chemscore.Internal.Correction.Weighted>
   9.000000E+99

> <Gold.Protein.RotatedTorsions>
[ 6907 6896 6895 6894 ] final -152.44 input  -60.11 | X-H torsion
[ 7974 7965 7964 7962 ] final   89.95 input  175.53 | X-H torsion
[ 8008 7997 7996 7995 ] final   -4.60 input   59.86 | X-H torsion
[ 10167 10162 10161 10158 ] final -120.03 input  -65.29 | X-H torsion
[ 10718 10713 10712 10709 ] final -133.58 input   66.30 | X-H torsion
[ 10763 10752 10751 10750 ] final   50.77 input  -60.55 | X-H torsion
[ 11005 11000 10999 10996 ] final   -7.28 input  -57.11 | X-H torsion

> <Gold.Protein.ActiveResidues>
 VAL166  LYS551  ARG553  GLY616  TRP617  ASP618  TYR619  PRO620  LYS621  CYS622 
 ASP623  PHE694  ASN695  SER759  ASP760  ASP761  ALA762  ILE779  LEU786  VAL792 
 PHE793  MET794  SER795  GLU796  ALA797  LYS798  CYS799  TRP800  GLU811  SER814 

> <Gold.Protein.RotatedAtoms>
  151.2279  133.4466  159.2602 H   0  0  0  0  0  0  0  0  0  0  0  0  # atno 6907 bound_to 6896
  151.0822  134.9865  159.8372 H   0  0  0  0  0  0  0  0  0  0  0  0  # atno 6908 bound_to 6896
  152.5425  134.2218  159.8843 H   0  0  0  0  0  0  0  0  0  0  0  0  # atno 6909 bound_to 6896
  145.5255  139.2281  143.2648 H   0  0  0  0  0  0  0  0  0  0  0  0  # atno 7974 bound_to 7965
  154.6126  140.2480  155.7650 H   0  0  0  0  0  0  0  0  0  0  0  0  # atno 8008 bound_to 7997
  156.2379  140.2943  156.0314 H   0  0  0  0  0  0  0  0  0  0  0  0  # atno 8009 bound_to 7997
  155.2028  140.0395  157.2910 H   0  0  0  0  0  0  0  0  0  0  0  0  # atno 8010 bound_to 7997
  140.0403  143.5160  152.2133 H   0  0  0  0  0  0  0  0  0  0  0  0  # atno 10167 bound_to 10162
  156.2464  130.7127  151.1008 H   0  0  0  0  0  0  0  0  0  0  0  0  # atno 10718 bound_to 10713
  152.9784  135.5868  154.4306 H   0  0  0  0  0  0  0  0  0  0  0  0  # atno 10763 bound_to 10752
  154.3920  135.2768  155.2151 H   0  0  0  0  0  0  0  0  0  0  0  0  # atno 10764 bound_to 10752
  154.4019  135.6101  153.5956 H   0  0  0  0  0  0  0  0  0  0  0  0  # atno 10765 bound_to 10752
  140.7110  133.8908  155.8751 H   0  0  0  0  0  0  0  0  0  0  0  0  # atno 11005 bound_to 11000
  146.2078  140.6069  142.9073 LP  0  0  0  0  0  0  0  0  0  0  0  0  # atno 17320 bound_to 7965
  144.7653  140.5516  143.6707 LP  0  0  0  0  0  0  0  0  0  0  0  0  # atno 17321 bound_to 7965
  139.6018  144.7585  151.3154 LP  0  0  0  0  0  0  0  0  0  0  0  0  # atno 17342 bound_to 10162
  140.7263  143.6994  150.7857 LP  0  0  0  0  0  0  0  0  0  0  0  0  # atno 17343 bound_to 10162
  157.7196  131.0689  150.6187 LP  0  0  0  0  0  0  0  0  0  0  0  0  # atno 17370 bound_to 10713
  156.6264  130.4420  149.5803 LP  0  0  0  0  0  0  0  0  0  0  0  0  # atno 17371 bound_to 10713
  141.0084  134.1054  157.4246 LP  0  0  0  0  0  0  0  0  0  0  0  0  # atno 17394 bound_to 11000
  139.8871  135.0087  156.6543 LP  0  0  0  0  0  0  0  0  0  0  0  0  # atno 17395 bound_to 11000

$$$$
