AV-unprocessed.smi:3289|AV-procd|sdf|12609|dock9
  -GOLD-   2272018543D 1   1.00000     0.00000
 Structure written by MMmdl.
 39 40  0  0  0  0  0  0  0  0  1 V2000
  151.4450  142.1617  157.3232 C   0  0  0  0  0  0  0  0  0  0  0  0
  150.3808  141.5726  156.3863 C   0  0  0  0  0  0  0  0  0  0  0  0
  148.9807  141.5996  157.0178 C   0  0  0  0  0  0  0  0  0  0  0  0
  150.7550  140.1888  155.9274 C   0  0  0  0  0  0  0  0  0  0  0  0
  150.9445  139.8738  154.6479 N   0  0  0  0  0  0  0  0  0  0  0  0
  151.2677  138.5229  154.6511 C   0  0  0  0  0  0  0  0  0  0  0  0
  151.2545  138.0571  155.9424 C   0  0  0  0  0  0  0  0  0  0  0  0
  150.9158  139.1322  156.7557 N   0  0  0  0  0  0  0  0  0  0  0  0
  150.7761  139.0690  158.2053 C   0  0  0  0  0  0  0  0  0  0  0  0
  150.1897  137.7367  158.6894 C   0  0  0  0  0  0  0  0  0  0  0  0
  150.9229  136.8164  159.0535 O   0  0  0  0  0  0  0  0  0  0  0  0
  148.8507  137.6531  158.6932 N   0  0  0  0  0  0  0  0  0  0  0  0
  148.0823  136.4827  159.1022 C   0  0  0  0  0  0  0  0  0  0  0  0
  148.3109  136.1460  160.5853 C   0  0  2  0  0  0  0  0  0  0  0  0
  147.5261  134.9247  161.0621 C   0  0  0  0  0  0  0  0  0  0  0  0
  147.4209  135.1879  162.5467 C   0  0  0  0  0  0  0  0  0  0  0  0
  147.2048  136.6974  162.5767 C   0  0  0  0  0  0  0  0  0  0  0  0
  147.8754  137.2110  161.4289 O   0  0  0  0  0  0  0  0  0  0  0  0
  152.4200  142.1935  156.8361 H   0  0  0  0  0  0  0  0  0  0  0  0
  151.5458  141.5687  158.2329 H   0  0  0  0  0  0  0  0  0  0  0  0
  151.1897  143.1801  157.6171 H   0  0  0  0  0  0  0  0  0  0  0  0
  150.3311  142.2283  155.5191 H   0  0  0  0  0  0  0  0  0  0  0  0
  148.2290  141.2332  156.3180 H   0  0  0  0  0  0  0  0  0  0  0  0
  148.6982  142.6130  157.3036 H   0  0  0  0  0  0  0  0  0  0  0  0
  148.9341  140.9775  157.9122 H   0  0  0  0  0  0  0  0  0  0  0  0
  151.4815  137.9958  153.7331 H   0  0  0  0  0  0  0  0  0  0  0  0
  151.4502  137.0724  156.3407 H   0  0  0  0  0  0  0  0  0  0  0  0
  151.7444  139.2440  158.6741 H   0  0  0  0  0  0  0  0  0  0  0  0
  150.1284  139.8876  158.5229 H   0  0  0  0  0  0  0  0  0  0  0  0
  148.3250  138.4565  158.3807 H   0  0  0  0  0  0  0  0  0  0  0  0
  147.0194  136.6219  158.8971 H   0  0  0  0  0  0  0  0  0  0  0  0
  148.4067  135.6448  158.4848 H   0  0  0  0  0  0  0  0  0  0  0  0
  149.3726  135.9806  160.7757 H   0  0  0  0  0  0  0  0  0  0  0  0
  146.5302  134.9079  160.6167 H   0  0  0  0  0  0  0  0  0  0  0  0
  148.0216  133.9820  160.8278 H   0  0  0  0  0  0  0  0  0  0  0  0
  146.6161  134.6319  163.0278 H   0  0  0  0  0  0  0  0  0  0  0  0
  148.3591  134.9311  163.0404 H   0  0  0  0  0  0  0  0  0  0  0  0
  146.1434  136.9330  162.4899 H   0  0  0  0  0  0  0  0  0  0  0  0
  147.5789  137.1529  163.4938 H   0  0  0  0  0  0  0  0  0  0  0  0
  1  2  1  0  0  0  0
  1 19  1  0  0  0  0
  1 20  1  0  0  0  0
  1 21  1  0  0  0  0
  2  3  1  0  0  0  0
  2  4  1  0  0  0  0
  2 22  1  0  0  0  0
  3 23  1  0  0  0  0
  3 24  1  0  0  0  0
  3 25  1  0  0  0  0
  4  8  1  0  0  0  0
  4  5  2  0  0  0  0
  5  6  1  0  0  0  0
  6  7  2  0  0  0  0
  6 26  1  0  0  0  0
  7  8  1  0  0  0  0
  7 27  1  0  0  0  0
  8  9  1  0  0  0  0
  9 10  1  0  0  0  0
  9 28  1  0  0  0  0
  9 29  1  0  0  0  0
 10 11  2  0  0  0  0
 10 12  1  0  0  0  0
 12 13  1  0  0  0  0
 12 30  1  0  0  0  0
 13 14  1  0  0  0  0
 13 31  1  0  0  0  0
 13 32  1  0  0  0  0
 14 18  1  0  0  0  0
 14 15  1  0  0  0  0
 14 33  1  0  0  0  0
 15 16  1  0  0  0  0
 15 34  1  0  0  0  0
 15 35  1  0  0  0  0
 16 17  1  0  0  0  0
 16 36  1  0  0  0  0
 16 37  1  0  0  0  0
 17 18  1  0  0  0  0
 17 38  1  0  0  0  0
 17 39  1  0  0  0  0
M  END
> <s_m_source_file>
AV-unprocessed.smi

> <i_m_source_file_index>
3289

> <i_lp_mmshare_version>
43012

> <i_f3d_flags>
0

> <s_epik_input>
W0NIM11bQ0hdKFtDSDNdKWMxbltjSF1bY0hdbjFbQ0gyXUMoPU8pW05IXVtDSDJdW0NAQEhdMltDSDJdW0NIMl1bQ0gyXU8y

> <s_epik_cmdline>
J2VwaWtfcHl0aG9uJywgJy1waCcsICc3LjAnLCAnLXRuJywgJzgnLCAnLW1hJywgJzIwMCcsICctbWV0YWxfYmluZGluZycsICctaW1hZScsICc8aW5maWxlLm1hZT4nLCAnLW9tYWUnLCAnPG91dGZpbGUubWFlPic=

> <r_lp_tautomer_probability>
1

> <r_epik_Ionization_Penalty>
0.587725

> <r_epik_Ionization_Penalty_Charging>
0.587725

> <r_epik_Ionization_Penalty_Neutral>
1.43432e-07

> <r_epik_State_Penalty>
0.601029

> <r_epik_Charging_Adjusted_Penalty>
1.18875

> <i_epik_Tot_Q>
0

> <i_epik_Tot_abs_Q>
0

> <r_epik_Metal_State_Penalty>
0.297663

> <b_epik_Metal_Only>
0

> <s_lp_Force_Field>
OPLS_2005

> <r_lp_Energy>
18.7222

> <b_lp_Chiralities_Consistent>
1

> <s_lp_Variant>
AV-unprocessed.smi:3289-3

> <Gold.Version>
5.8.1

> <Gold.Id.Protein>
6NUR|6NUR_protein|mol2

> <Gold.PLP.Fitness>
44.6504

> <Gold.PLP.PLP>
-34.6667

> <Gold.PLP.part.hbond>
-4.0000

> <Gold.PLP.part.metal>
0.0000

> <Gold.PLP.part.buried>
-6.0351

> <Gold.PLP.part.nonpolar>
-25.3179

> <Gold.PLP.part.repulsive>
0.2349

> <Gold.PLP.ligand.clash>
0.0000

> <Gold.PLP.ligand.torsion>
0.7242

> <Gold.PLP.Chemscore.Hbond>
3.7920

> <Gold.PLP.Chemscore.CHOScore>
0.0000

> <Gold.PLP.Chemscore.Metal>
0.0000

> <Gold.Chemscore.Hbonds>
donor molecule, donor type, donor heavy atom, donor atom, acceptor molecule, acceptor atom, score
      P1  H  6896  6908       L1    11  1.00
      P1  H  6931  6943       L1    18  1.00
      P1  H  6934  6947       L1    18  0.70
      P1  H  7989  7998       L1     5  1.00

> <Gold.PLP.Chemscore.Internal.Correction>
0.0561

> <Gold.Rescore>
     Score         DG    S(hbond)    S(metal)    S(lipo)     H(rot)  DE(clash)    DE(int)     intcor
     18.98     -19.63       3.08        0.00      70.58       1.72       0.01       0.64       ----

> <Gold.Chemscore.Fitness>
18.9773

> <Gold.Chemscore.DG>
-19.6307

> <Gold.Chemscore.ZeroCoef>
-5.4800

> <Gold.Chemscore.Hbond>
3.0808

> <Gold.Chemscore.Metal>
0.0000

> <Gold.Chemscore.Lipo>
70.5773

> <Gold.Chemscore.Internal_Hbond>
0.0000

> <Gold.Chemscore.DEClash>
0.0086

> <Gold.Chemscore.DEInternal>
0.6448

> <Gold.Chemscore.Rot>
1.7175

> <Gold.Chemscore.Internal.Correction>
   9.000000E+99

> <Gold.Chemscore.Hbonds>
donor molecule, donor type, donor heavy atom, donor atom, acceptor molecule, acceptor atom, score
      P1  H  6896  6908       L1    11  0.99
      P1  H  6931  6943       L1    18  0.62
      P1  H  6934  6947       L1    18  0.53
      P1  H  7989  7998       L1     5  0.97

> <Gold.Chemscore.Hbond.Weighted>
-10.2899

> <Gold.Chemscore.Metal.Weighted>
-0.0000

> <Gold.Chemscore.Lipo.Weighted>
-8.2575

> <Gold.Chemscore.Internal_Hbond.Weighted>
0.0000

> <Gold.Chemscore.DEClash.Weighted>
0.0086

> <Gold.Chemscore.DEInternal.Weighted>
0.6448

> <Gold.Chemscore.Rot.Weighted>
4.3967

> <Gold.Chemscore.Internal.Correction.Weighted>
   9.000000E+99

> <Gold.Protein.RotatedTorsions>
[ 6907 6896 6895 6894 ] final -145.59 input  -60.11 | X-H torsion
[ 7974 7965 7964 7962 ] final -158.31 input  175.53 | X-H torsion
[ 8008 7997 7996 7995 ] final  -11.89 input   59.86 | X-H torsion
[ 10167 10162 10161 10158 ] final  -41.24 input  -65.29 | X-H torsion
[ 10718 10713 10712 10709 ] final -163.60 input   66.30 | X-H torsion
[ 10763 10752 10751 10750 ] final  -10.94 input  -60.55 | X-H torsion
[ 11005 11000 10999 10996 ] final -140.33 input  -57.11 | X-H torsion

> <Gold.Protein.ActiveResidues>
 VAL166  LYS551  ARG553  GLY616  TRP617  ASP618  TYR619  PRO620  LYS621  CYS622 
 ASP623  PHE694  ASN695  SER759  ASP760  ASP761  ALA762  ILE779  LEU786  VAL792 
 PHE793  MET794  SER795  GLU796  ALA797  LYS798  CYS799  TRP800  GLU811  SER814 

> <Gold.Protein.RotatedAtoms>
  151.1299  133.5044  159.2599 H   0  0  0  0  0  0  0  0  0  0  0  0  # atno 6907 bound_to 6896
  151.1769  135.0343  159.8785 H   0  0  0  0  0  0  0  0  0  0  0  0  # atno 6908 bound_to 6896
  152.5459  134.1156  159.8430 H   0  0  0  0  0  0  0  0  0  0  0  0  # atno 6909 bound_to 6896
  144.7511  140.3846  143.6047 H   0  0  0  0  0  0  0  0  0  0  0  0  # atno 7974 bound_to 7965
  154.5425  140.2290  155.8618 H   0  0  0  0  0  0  0  0  0  0  0  0  # atno 8008 bound_to 7997
  156.1872  140.3086  155.9223 H   0  0  0  0  0  0  0  0  0  0  0  0  # atno 8009 bound_to 7997
  155.3230  140.0441  157.3030 H   0  0  0  0  0  0  0  0  0  0  0  0  # atno 8010 bound_to 7997
  140.7009  143.3106  151.3038 H   0  0  0  0  0  0  0  0  0  0  0  0  # atno 10167 bound_to 10162
  156.6270  130.8914  151.2970 H   0  0  0  0  0  0  0  0  0  0  0  0  # atno 10718 bound_to 10713
  153.4765  135.7017  153.5963 H   0  0  0  0  0  0  0  0  0  0  0  0  # atno 10763 bound_to 10752
  153.4194  135.3829  155.2102 H   0  0  0  0  0  0  0  0  0  0  0  0  # atno 10764 bound_to 10752
  154.8723  135.3924  154.4209 H   0  0  0  0  0  0  0  0  0  0  0  0  # atno 10765 bound_to 10752
  140.8433  134.2375  157.4799 H   0  0  0  0  0  0  0  0  0  0  0  0  # atno 11005 bound_to 11000
  145.6941  139.1646  143.2630 LP  0  0  0  0  0  0  0  0  0  0  0  0  # atno 17320 bound_to 7965
  146.1462  140.6989  142.9343 LP  0  0  0  0  0  0  0  0  0  0  0  0  # atno 17321 bound_to 7965
  139.6527  144.0332  152.2638 LP  0  0  0  0  0  0  0  0  0  0  0  0  # atno 17342 bound_to 10162
  139.9874  144.6386  150.7846 LP  0  0  0  0  0  0  0  0  0  0  0  0  # atno 17343 bound_to 10162
  157.7211  130.9560  150.1443 LP  0  0  0  0  0  0  0  0  0  0  0  0  # atno 17370 bound_to 10713
  156.2265  130.3678  149.8494 LP  0  0  0  0  0  0  0  0  0  0  0  0  # atno 17371 bound_to 10713
  139.8703  134.9646  156.4502 LP  0  0  0  0  0  0  0  0  0  0  0  0  # atno 17394 bound_to 11000
  140.8871  133.7875  155.9530 LP  0  0  0  0  0  0  0  0  0  0  0  0  # atno 17395 bound_to 11000

$$$$
