AV-unprocessed.smi:3220|AV-procd|sdf|12298|dock2
  -GOLD-   2272018143D 1   1.00000     0.00000
 Structure written by MMmdl.
 33 34  0  0  0  0  0  0  0  0  1 V2000
  152.7446  139.4197  159.6538 C   0  0  0  0  0  0  0  0  0  0  0  0
  152.1073  140.8051  159.4812 C   0  0  1  0  0  0  0  0  0  0  0  0
  153.1798  141.9159  159.4590 C   0  0  0  0  0  0  0  0  0  0  0  0
  152.6094  143.2515  159.4640 N   0  0  0  0  0  0  0  0  0  0  0  0
  152.5871  144.1788  158.4431 C   0  0  0  0  0  0  0  0  0  0  0  0
  151.9305  145.2811  158.9102 C   0  0  0  0  0  0  0  0  0  0  0  0
  151.5886  144.9296  160.2461 C   0  0  0  0  0  0  0  0  0  0  0  0
  152.0001  143.7161  160.5761 N   0  0  0  0  0  0  0  0  0  0  0  0
  151.3227  140.8134  158.2468 N   0  0  0  0  0  0  0  0  0  0  0  0
  151.7062  140.2987  157.0677 C   0  0  0  0  0  0  0  0  0  0  0  0
  152.8031  139.7690  156.8851 O   0  0  0  0  0  0  0  0  0  0  0  0
  150.6859  140.3951  155.9233 C   0  0  2  0  0  0  0  0  0  0  0  0
  149.3887  139.6061  156.1910 C   0  0  0  0  0  0  0  0  0  0  0  0
  149.3114  138.6100  155.0466 C   0  0  0  0  0  0  0  0  0  0  0  0
  150.7617  138.4887  154.6021 C   0  0  0  0  0  0  0  0  0  0  0  0
  151.2493  139.8144  154.7478 O   0  0  0  0  0  0  0  0  0  0  0  0
  153.3204  139.3658  160.5781 H   0  0  0  0  0  0  0  0  0  0  0  0
  153.4183  139.1853  158.8286 H   0  0  0  0  0  0  0  0  0  0  0  0
  151.9836  138.6398  159.6959 H   0  0  0  0  0  0  0  0  0  0  0  0
  151.4508  140.9647  160.3388 H   0  0  0  0  0  0  0  0  0  0  0  0
  153.8305  141.8262  160.3302 H   0  0  0  0  0  0  0  0  0  0  0  0
  153.8211  141.8121  158.5824 H   0  0  0  0  0  0  0  0  0  0  0  0
  153.0285  143.9762  157.4783 H   0  0  0  0  0  0  0  0  0  0  0  0
  151.7243  146.1981  158.3786 H   0  0  0  0  0  0  0  0  0  0  0  0
  151.0583  145.5167  160.9813 H   0  0  0  0  0  0  0  0  0  0  0  0
  150.4069  141.2359  158.2965 H   0  0  0  0  0  0  0  0  0  0  0  0
  150.4592  141.4416  155.7132 H   0  0  0  0  0  0  0  0  0  0  0  0
  149.4164  139.0797  157.1468 H   0  0  0  0  0  0  0  0  0  0  0  0
  148.5141  140.2571  156.2089 H   0  0  0  0  0  0  0  0  0  0  0  0
  148.8747  137.6549  155.3392 H   0  0  0  0  0  0  0  0  0  0  0  0
  148.7119  139.0240  154.2349 H   0  0  0  0  0  0  0  0  0  0  0  0
  151.3163  137.8126  155.2545 H   0  0  0  0  0  0  0  0  0  0  0  0
  150.8603  138.1339  153.5760 H   0  0  0  0  0  0  0  0  0  0  0  0
  1  2  1  0  0  0  0
  1 17  1  0  0  0  0
  1 18  1  0  0  0  0
  1 19  1  0  0  0  0
  2  3  1  0  0  0  0
  2  9  1  0  0  0  0
  2 20  1  0  0  0  0
  3  4  1  0  0  0  0
  3 21  1  0  0  0  0
  3 22  1  0  0  0  0
  4  8  1  0  0  0  0
  4  5  1  0  0  0  0
  5  6  2  0  0  0  0
  5 23  1  0  0  0  0
  6  7  1  0  0  0  0
  6 24  1  0  0  0  0
  7  8  2  0  0  0  0
  7 25  1  0  0  0  0
  9 10  1  0  0  0  0
  9 26  1  0  0  0  0
 10 11  2  0  0  0  0
 10 12  1  0  0  0  0
 12 16  1  0  0  0  0
 12 13  1  0  0  0  0
 12 27  1  0  0  0  0
 13 14  1  0  0  0  0
 13 28  1  0  0  0  0
 13 29  1  0  0  0  0
 14 15  1  0  0  0  0
 14 30  1  0  0  0  0
 14 31  1  0  0  0  0
 15 16  1  0  0  0  0
 15 32  1  0  0  0  0
 15 33  1  0  0  0  0
M  END
> <s_m_source_file>
AV-unprocessed.smi

> <i_m_source_file_index>
3220

> <i_lp_mmshare_version>
43012

> <i_f3d_flags>
0

> <s_epik_input>
bjFbY0hdW2NIXVtjSF1uMVtDSDJdW0NAQEhdKFtDSDNdKVtOSF1DKD1PKVtDQEBIXTJbQ0gyXVtDSDJdW0NIMl1PMg==

> <s_epik_cmdline>
J2VwaWtfcHl0aG9uJywgJy1waCcsICc3LjAnLCAnLXRuJywgJzgnLCAnLW1hJywgJzIwMCcsICctbWV0YWxfYmluZGluZycsICctaW1hZScsICc8aW5maWxlLm1hZT4nLCAnLW9tYWUnLCAnPG91dGZpbGUubWFlPic=

> <r_lp_tautomer_probability>
1

> <r_epik_Ionization_Penalty>
0.00033363

> <r_epik_Ionization_Penalty_Charging>
0

> <r_epik_Ionization_Penalty_Neutral>
0.00033363

> <r_epik_State_Penalty>
-0

> <r_epik_Charging_Adjusted_Penalty>
0

> <i_epik_Tot_Q>
0

> <i_epik_Tot_abs_Q>
0

> <r_epik_Metal_State_Penalty>
-0

> <b_epik_Metal_Only>
0

> <s_lp_Force_Field>
OPLS_2005

> <r_lp_Energy>
18.0853

> <b_lp_Chiralities_Consistent>
1

> <s_lp_Variant>
AV-unprocessed.smi:3220-2

> <Gold.Version>
5.8.1

> <Gold.Id.Protein>
6NUR|6NUR_protein|mol2

> <Gold.PLP.Fitness>
42.4565

> <Gold.PLP.PLP>
-37.2033

> <Gold.PLP.part.hbond>
-1.9667

> <Gold.PLP.part.metal>
0.0000

> <Gold.PLP.part.buried>
-5.3175

> <Gold.PLP.part.nonpolar>
-31.1652

> <Gold.PLP.part.repulsive>
0.2609

> <Gold.PLP.ligand.clash>
0.0000

> <Gold.PLP.ligand.torsion>
0.3713

> <Gold.PLP.Chemscore.Hbond>
1.9913

> <Gold.PLP.Chemscore.CHOScore>
0.0000

> <Gold.PLP.Chemscore.Metal>
0.0000

> <Gold.Chemscore.Hbonds>
donor molecule, donor type, donor heavy atom, donor atom, acceptor molecule, acceptor atom, score
      P1  H  7989  7998       L1    16  1.00
      P1  H  7997  8008       L1    11  1.00

> <Gold.PLP.Chemscore.Internal.Correction>
0.0220

> <Gold.Rescore>
     Score         DG    S(hbond)    S(metal)    S(lipo)     H(rot)  DE(clash)    DE(int)     intcor
     16.42     -17.97       1.96        0.00      86.40       1.62       0.00       1.55       ----

> <Gold.Chemscore.Fitness>
16.4164

> <Gold.Chemscore.DG>
-17.9719

> <Gold.Chemscore.ZeroCoef>
-5.4800

> <Gold.Chemscore.Hbond>
1.9566

> <Gold.Chemscore.Metal>
0.0000

> <Gold.Chemscore.Lipo>
86.3990

> <Gold.Chemscore.Internal_Hbond>
0.0000

> <Gold.Chemscore.DEClash>
0.0021

> <Gold.Chemscore.DEInternal>
1.5534

> <Gold.Chemscore.Rot>
1.6219

> <Gold.Chemscore.Internal.Correction>
   9.000000E+99

> <Gold.Chemscore.Hbonds>
donor molecule, donor type, donor heavy atom, donor atom, acceptor molecule, acceptor atom, score
      P1  H  7989  7998       L1    16  0.94
      P1  H  7997  8008       L1    11  0.99

> <Gold.Chemscore.Hbond.Weighted>
-6.5352

> <Gold.Chemscore.Metal.Weighted>
-0.0000

> <Gold.Chemscore.Lipo.Weighted>
-10.1087

> <Gold.Chemscore.Internal_Hbond.Weighted>
0.0000

> <Gold.Chemscore.DEClash.Weighted>
0.0021

> <Gold.Chemscore.DEInternal.Weighted>
1.5534

> <Gold.Chemscore.Rot.Weighted>
4.1520

> <Gold.Chemscore.Internal.Correction.Weighted>
   9.000000E+99

> <Gold.Protein.RotatedTorsions>
[ 6907 6896 6895 6894 ] final -162.89 input  -60.11 | X-H torsion
[ 7974 7965 7964 7962 ] final  100.80 input  175.53 | X-H torsion
[ 8008 7997 7996 7995 ] final  -52.13 input   59.86 | X-H torsion
[ 10167 10162 10161 10158 ] final   93.73 input  -65.29 | X-H torsion
[ 10718 10713 10712 10709 ] final -139.96 input   66.30 | X-H torsion
[ 10763 10752 10751 10750 ] final  106.41 input  -60.55 | X-H torsion
[ 11005 11000 10999 10996 ] final  -97.00 input  -57.11 | X-H torsion

> <Gold.Protein.ActiveResidues>
 VAL166  LYS551  ARG553  GLY616  TRP617  ASP618  TYR619  PRO620  LYS621  CYS622 
 ASP623  PHE694  ASN695  SER759  ASP760  ASP761  ALA762  ILE779  LEU786  VAL792 
 PHE793  MET794  SER795  GLU796  ALA797  LYS798  CYS799  TRP800  GLU811  SER814 

> <Gold.Protein.RotatedAtoms>
  151.3873  133.3800  159.2716 H   0  0  0  0  0  0  0  0  0  0  0  0  # atno 6907 bound_to 6896
  150.9531  134.8930  159.7695 H   0  0  0  0  0  0  0  0  0  0  0  0  # atno 6908 bound_to 6896
  152.5120  134.3830  159.9410 H   0  0  0  0  0  0  0  0  0  0  0  0  # atno 6909 bound_to 6896
  145.3807  139.2380  143.3405 H   0  0  0  0  0  0  0  0  0  0  0  0  # atno 7974 bound_to 7965
  154.4099  140.1231  156.4942 H   0  0  0  0  0  0  0  0  0  0  0  0  # atno 8008 bound_to 7997
  155.6960  140.3495  155.4893 H   0  0  0  0  0  0  0  0  0  0  0  0  # atno 8009 bound_to 7997
  155.9427  140.1090  157.1032 H   0  0  0  0  0  0  0  0  0  0  0  0  # atno 8010 bound_to 7997
  139.8151  144.6756  150.9590 H   0  0  0  0  0  0  0  0  0  0  0  0  # atno 10167 bound_to 10162
  156.3168  130.7512  151.1601 H   0  0  0  0  0  0  0  0  0  0  0  0  # atno 10718 bound_to 10713
  153.3926  135.3878  155.1933 H   0  0  0  0  0  0  0  0  0  0  0  0  # atno 10763 bound_to 10752
  154.8721  135.3752  154.4719 H   0  0  0  0  0  0  0  0  0  0  0  0  # atno 10764 bound_to 10752
  153.5207  135.7087  153.5794 H   0  0  0  0  0  0  0  0  0  0  0  0  # atno 10765 bound_to 10752
  141.1393  133.8138  157.0647 H   0  0  0  0  0  0  0  0  0  0  0  0  # atno 11005 bound_to 11000
  146.2843  140.4474  142.8764 LP  0  0  0  0  0  0  0  0  0  0  0  0  # atno 17320 bound_to 7965
  144.8509  140.7000  143.6168 LP  0  0  0  0  0  0  0  0  0  0  0  0  # atno 17321 bound_to 7965
  140.7816  143.4146  151.0938 LP  0  0  0  0  0  0  0  0  0  0  0  0  # atno 17342 bound_to 10162
  139.7810  143.8355  152.3137 LP  0  0  0  0  0  0  0  0  0  0  0  0  # atno 17343 bound_to 10162
  157.7403  131.0518  150.5173 LP  0  0  0  0  0  0  0  0  0  0  0  0  # atno 17370 bound_to 10713
  156.5320  130.4187  149.6197 LP  0  0  0  0  0  0  0  0  0  0  0  0  # atno 17371 bound_to 10713
  140.0549  134.9786  157.1203 LP  0  0  0  0  0  0  0  0  0  0  0  0  # atno 17394 bound_to 11000
  140.3934  134.2160  155.7165 LP  0  0  0  0  0  0  0  0  0  0  0  0  # atno 17395 bound_to 11000

$$$$
