AV-unprocessed.smi:36|AV-procd|sdf|279|dock9
  -GOLD-   2262016 53D 1   1.00000     0.00000
 Structure written by MMmdl.
 64 67  0  0  0  0  0  0  0  0  1 V2000
  148.7741  130.0255  157.3413 C   0  0  0  0  0  0  0  0  0  0  0  0
  150.3069  129.9169  157.2860 C   0  0  0  0  0  0  0  0  0  0  0  0
  150.9403  131.0050  158.1699 C   0  0  0  0  0  0  0  0  0  0  0  0
  150.7518  128.5287  157.7761 C   0  0  0  0  0  0  0  0  0  0  0  0
  150.8992  130.1588  155.4859 Si  0  0  0  0  0  0  0  0  0  0  0  0
  152.7932  130.0853  155.3598 C   0  0  0  0  0  0  0  0  0  0  0  0
  150.1223  128.8619  154.3335 C   0  0  0  0  0  0  0  0  0  0  0  0
  150.3987  131.6956  154.9881 O   0  0  0  0  0  0  0  0  0  0  0  0
  149.0480  132.1025  154.8920 C   0  0  0  0  0  0  0  0  0  0  0  0
  148.9832  133.5427  154.3629 C   0  0  2  0  0  0  0  0  0  0  0  0
  149.4515  134.4413  155.3690 O   0  0  0  0  0  0  0  0  0  0  0  0
  148.3793  135.2184  155.7914 C   0  0  1  0  0  0  0  0  0  0  0  0
  148.8931  136.5203  156.2987 N   0  0  0  0  0  0  0  0  0  0  0  0
  148.6348  137.1520  157.4960 C   0  0  0  0  0  0  0  0  0  0  0  0
  149.2313  138.3035  157.6566 N   0  0  0  0  0  0  0  0  0  0  0  0
  149.9588  138.4731  156.4849 C   0  0  0  0  0  0  0  0  0  0  0  0
  150.8204  139.4902  155.9980 C   0  0  0  0  0  0  0  0  0  0  0  0
  151.0565  140.5959  156.7427 N   0  0  0  0  0  0  0  0  0  0  0  0
  152.1178  140.8168  157.7097 C   0  0  0  0  0  0  0  0  0  0  0  0
  152.9884  139.9746  157.9315 O   0  0  0  0  0  0  0  0  0  0  0  0
  152.1398  142.1653  158.3689 C   0  0  0  0  0  0  0  0  0  0  0  0
  151.5892  143.2844  157.7045 C   0  0  0  0  0  0  0  0  0  0  0  0
  151.6155  144.5567  158.3081 C   0  0  0  0  0  0  0  0  0  0  0  0
  152.1992  144.7225  159.5780 C   0  0  0  0  0  0  0  0  0  0  0  0
  152.7615  143.6158  160.2418 C   0  0  0  0  0  0  0  0  0  0  0  0
  152.7362  142.3427  159.6391 C   0  0  0  0  0  0  0  0  0  0  0  0
  151.3756  139.3042  154.7710 N   0  0  0  0  0  0  0  0  0  0  0  0
  151.1033  138.2005  154.0681 C   0  0  0  0  0  0  0  0  0  0  0  0
  150.3146  137.1750  154.3971 N   0  0  0  0  0  0  0  0  0  0  0  0
  149.7564  137.3563  155.6284 C   0  0  0  0  0  0  0  0  0  0  0  0
  147.5143  135.4166  154.5577 C   0  0  0  0  0  0  0  0  0  0  0  0
  147.5700  134.0199  153.9728 C   0  0  1  0  0  0  0  0  0  0  0  0
  147.3729  134.0453  152.5743 O   0  0  0  0  0  0  0  0  0  0  0  0
  148.4044  129.8931  158.3588 H   0  0  0  0  0  0  0  0  0  0  0  0
  148.2992  129.2671  156.7181 H   0  0  0  0  0  0  0  0  0  0  0  0
  148.4317  131.0000  156.9924 H   0  0  0  0  0  0  0  0  0  0  0  0
  150.6365  132.0027  157.8525 H   0  0  0  0  0  0  0  0  0  0  0  0
  152.0292  130.9651  158.1289 H   0  0  0  0  0  0  0  0  0  0  0  0
  150.6456  130.8897  159.2135 H   0  0  0  0  0  0  0  0  0  0  0  0
  150.4541  128.3592  158.8113 H   0  0  0  0  0  0  0  0  0  0  0  0
  151.8357  128.4186  157.7226 H   0  0  0  0  0  0  0  0  0  0  0  0
  150.3102  127.7342  157.1735 H   0  0  0  0  0  0  0  0  0  0  0  0
  153.1787  129.1159  155.6744 H   0  0  0  0  0  0  0  0  0  0  0  0
  153.2665  130.8426  155.9844 H   0  0  0  0  0  0  0  0  0  0  0  0
  153.1317  130.2529  154.3376 H   0  0  0  0  0  0  0  0  0  0  0  0
  150.4168  127.8509  154.6141 H   0  0  0  0  0  0  0  0  0  0  0  0
  150.4255  129.0110  153.2976 H   0  0  0  0  0  0  0  0  0  0  0  0
  149.0337  128.9002  154.3605 H   0  0  0  0  0  0  0  0  0  0  0  0
  148.5226  131.4252  154.2182 H   0  0  0  0  0  0  0  0  0  0  0  0
  148.5573  132.0345  155.8634 H   0  0  0  0  0  0  0  0  0  0  0  0
  149.6624  133.6435  153.5150 H   0  0  0  0  0  0  0  0  0  0  0  0
  147.8587  134.7508  156.6289 H   0  0  0  0  0  0  0  0  0  0  0  0
  147.9838  136.7331  158.2495 H   0  0  0  0  0  0  0  0  0  0  0  0
  150.4103  141.3610  156.6153 H   0  0  0  0  0  0  0  0  0  0  0  0
  151.1377  143.1739  156.7287 H   0  0  0  0  0  0  0  0  0  0  0  0
  151.1876  145.4055  157.7954 H   0  0  0  0  0  0  0  0  0  0  0  0
  152.2190  145.6984  160.0406 H   0  0  0  0  0  0  0  0  0  0  0  0
  153.2150  143.7437  161.2137 H   0  0  0  0  0  0  0  0  0  0  0  0
  153.1815  141.5091  160.1627 H   0  0  0  0  0  0  0  0  0  0  0  0
  151.5848  138.1305  153.1041 H   0  0  0  0  0  0  0  0  0  0  0  0
  146.5102  135.7517  154.8200 H   0  0  0  0  0  0  0  0  0  0  0  0
  147.9871  136.1478  153.8994 H   0  0  0  0  0  0  0  0  0  0  0  0
  146.8018  133.4018  154.4376 H   0  0  0  0  0  0  0  0  0  0  0  0
  147.9025  134.7370  152.2082 H   0  0  0  0  0  0  0  0  0  0  0  0
  1  2  1  0  0  0  0
  1 34  1  0  0  0  0
  1 35  1  0  0  0  0
  1 36  1  0  0  0  0
  2  3  1  0  0  0  0
  2  4  1  0  0  0  0
  2  5  1  0  0  0  0
  3 37  1  0  0  0  0
  3 38  1  0  0  0  0
  3 39  1  0  0  0  0
  4 40  1  0  0  0  0
  4 41  1  0  0  0  0
  4 42  1  0  0  0  0
  5  6  1  0  0  0  0
  5  7  1  0  0  0  0
  5  8  1  0  0  0  0
  6 43  1  0  0  0  0
  6 44  1  0  0  0  0
  6 45  1  0  0  0  0
  7 46  1  0  0  0  0
  7 47  1  0  0  0  0
  7 48  1  0  0  0  0
  8  9  1  0  0  0  0
  9 10  1  0  0  0  0
  9 49  1  0  0  0  0
  9 50  1  0  0  0  0
 10 32  1  0  0  0  0
 10 11  1  0  0  0  0
 10 51  1  0  0  0  0
 11 12  1  0  0  0  0
 12 13  1  0  0  0  0
 12 31  1  0  0  0  0
 12 52  1  0  0  0  0
 13 30  1  0  0  0  0
 13 14  1  0  0  0  0
 14 15  2  0  0  0  0
 14 53  1  0  0  0  0
 15 16  1  0  0  0  0
 16 30  2  0  0  0  0
 16 17  1  0  0  0  0
 17 18  1  0  0  0  0
 17 27  2  0  0  0  0
 18 19  1  0  0  0  0
 18 54  1  0  0  0  0
 19 20  2  0  0  0  0
 19 21  1  0  0  0  0
 21 26  1  0  0  0  0
 21 22  2  0  0  0  0
 22 23  1  0  0  0  0
 22 55  1  0  0  0  0
 23 24  2  0  0  0  0
 23 56  1  0  0  0  0
 24 25  1  0  0  0  0
 24 57  1  0  0  0  0
 25 26  2  0  0  0  0
 25 58  1  0  0  0  0
 26 59  1  0  0  0  0
 27 28  1  0  0  0  0
 28 29  2  0  0  0  0
 28 60  1  0  0  0  0
 29 30  1  0  0  0  0
 31 32  1  0  0  0  0
 31 61  1  0  0  0  0
 31 62  1  0  0  0  0
 32 33  1  0  0  0  0
 32 63  1  0  0  0  0
 33 64  1  0  0  0  0
M  END
> <s_m_source_file>
AV-unprocessed.smi

> <i_m_source_file_index>
36

> <i_lp_mmshare_version>
43012

> <i_f3d_flags>
0

> <s_epik_input>
W0NIM11DKFtDSDNdKShbQ0gzXSlbU2ldKFtDSDNdKShbQ0gzXSlPW0NIMl1bQ0BASF0xT1tDQEhdKFtDSDJdW0NASF0xW09IXSluKFtjSF1uMiljKGMyMyluW2NIXW5jM1tOSF1DKD1PKWM0W2NIXVtjSF1bY0hdW2NIXVtjSF00

> <s_epik_cmdline>
J2VwaWtfcHl0aG9uJywgJy1waCcsICc3LjAnLCAnLXRuJywgJzgnLCAnLW1hJywgJzIwMCcsICctbWV0YWxfYmluZGluZycsICctaW1hZScsICc8aW5maWxlLm1hZT4nLCAnLW9tYWUnLCAnPG91dGZpbGUubWFlPic=

> <r_lp_tautomer_probability>
1

> <r_epik_Ionization_Penalty>
0.00150433

> <r_epik_Ionization_Penalty_Charging>
0

> <r_epik_Ionization_Penalty_Neutral>
0.00150433

> <r_epik_State_Penalty>
0.00724046

> <r_epik_Charging_Adjusted_Penalty>
0.00724046

> <i_epik_Tot_Q>
0

> <i_epik_Tot_abs_Q>
0

> <r_epik_Metal_State_Penalty>
0.323355

> <b_epik_Metal_Only>
0

> <s_epik_Chemistry_Notes>
This compound contains an acetal/aminal-like group ( X-CH(R)-Y where X, Y are N, S, or O) that may be acid/base labile, releasing an aldehyde.

> <s_lp_Force_Field>
OPLS_2005

> <r_lp_Energy>
30.8875

> <b_lp_Chiralities_Consistent>
1

> <s_lp_Variant>
AV-unprocessed.smi:36-1

> <Gold.Version>
5.8.1

> <Gold.Id.Protein>
6NUR|6NUR_protein|mol2

> <Gold.PLP.Fitness>
52.3762

> <Gold.PLP.PLP>
-44.3067

> <Gold.PLP.part.hbond>
-3.0000

> <Gold.PLP.part.metal>
0.0000

> <Gold.PLP.part.buried>
-5.9928

> <Gold.PLP.part.nonpolar>
-35.4039

> <Gold.PLP.part.repulsive>
1.3098

> <Gold.PLP.ligand.clash>
0.0000

> <Gold.PLP.ligand.torsion>
1.2289

> <Gold.PLP.Chemscore.Hbond>
3.0000

> <Gold.PLP.Chemscore.CHOScore>
0.4651

> <Gold.PLP.Chemscore.Metal>
0.0000

> <Gold.Chemscore.Hbonds>
donor molecule, donor type, donor heavy atom, donor atom, acceptor molecule, acceptor atom, score
      L1  H    33    64       P1  7948  1.00
      P1  H  7989  7998       L1    27  1.00
      P1  H  7997  8008       L1    20  1.00
      L1  C    28    60       P1  7949  0.46

> <Gold.PLP.Chemscore.Internal.Correction>
0.1321

> <Gold.Rescore>
     Score         DG    S(hbond)    S(metal)    S(lipo)     H(rot)  DE(clash)    DE(int)     intcor
     16.96     -18.28       2.32        0.00     102.40       2.70       0.14       1.18       ----

> <Gold.Chemscore.Fitness>
16.9600

> <Gold.Chemscore.DG>
-18.2823

> <Gold.Chemscore.ZeroCoef>
-5.4800

> <Gold.Chemscore.Hbond>
2.3187

> <Gold.Chemscore.Metal>
0.0000

> <Gold.Chemscore.Lipo>
102.3970

> <Gold.Chemscore.Internal_Hbond>
0.0000

> <Gold.Chemscore.DEClash>
0.1430

> <Gold.Chemscore.DEInternal>
1.1792

> <Gold.Chemscore.Rot>
2.7041

> <Gold.Chemscore.Internal.Correction>
   9.000000E+99

> <Gold.Chemscore.Hbonds>
donor molecule, donor type, donor heavy atom, donor atom, acceptor molecule, acceptor atom, score
      L1  H    33    64       P1  7948  0.55
      P1  H  7989  7998       L1    27  0.64
      P1  H  7997  8008       L1    20  0.94

> <Gold.Chemscore.Hbond.Weighted>
-7.7443

> <Gold.Chemscore.Metal.Weighted>
-0.0000

> <Gold.Chemscore.Lipo.Weighted>
-11.9805

> <Gold.Chemscore.Internal_Hbond.Weighted>
0.0000

> <Gold.Chemscore.DEClash.Weighted>
0.1430

> <Gold.Chemscore.DEInternal.Weighted>
1.1792

> <Gold.Chemscore.Rot.Weighted>
6.9225

> <Gold.Chemscore.Internal.Correction.Weighted>
   9.000000E+99

> <Gold.Protein.RotatedTorsions>
[ 6907 6896 6895 6894 ] final   73.50 input  -60.11 | X-H torsion
[ 7974 7965 7964 7962 ] final  -73.69 input  175.53 | X-H torsion
[ 8008 7997 7996 7995 ] final  -89.28 input   59.86 | X-H torsion
[ 10167 10162 10161 10158 ] final -116.41 input  -65.29 | X-H torsion
[ 10718 10713 10712 10709 ] final  174.69 input   66.30 | X-H torsion
[ 10763 10752 10751 10750 ] final  -87.10 input  -60.55 | X-H torsion
[ 11005 11000 10999 10996 ] final  -39.43 input  -57.11 | X-H torsion

> <Gold.Protein.ActiveResidues>
 VAL166  LYS551  ARG553  GLY616  TRP617  ASP618  TYR619  PRO620  LYS621  CYS622 
 ASP623  PHE694  ASN695  SER759  ASP760  ASP761  ALA762  ILE779  LEU786  VAL792 
 PHE793  MET794  SER795  GLU796  ALA797  LYS798  CYS799  TRP800  GLU811  SER814 

> <Gold.Protein.RotatedAtoms>
  152.4926  134.4412  159.9543 H   0  0  0  0  0  0  0  0  0  0  0  0  # atno 6907 bound_to 6896
  151.4397  133.3641  159.2788 H   0  0  0  0  0  0  0  0  0  0  0  0  # atno 6908 bound_to 6896
  150.9096  134.8536  159.7476 H   0  0  0  0  0  0  0  0  0  0  0  0  # atno 6909 bound_to 6896
  145.6489  140.9288  143.0995 H   0  0  0  0  0  0  0  0  0  0  0  0  # atno 7974 bound_to 7965
  154.6848  140.0543  157.0303 H   0  0  0  0  0  0  0  0  0  0  0  0  # atno 8008 bound_to 7997
  155.0900  140.3218  155.4557 H   0  0  0  0  0  0  0  0  0  0  0  0  # atno 8009 bound_to 7997
  156.2707  140.2049  156.6028 H   0  0  0  0  0  0  0  0  0  0  0  0  # atno 8010 bound_to 7997
  140.0795  143.4801  152.1934 H   0  0  0  0  0  0  0  0  0  0  0  0  # atno 10167 bound_to 10162
  156.9459  131.0016  151.2959 H   0  0  0  0  0  0  0  0  0  0  0  0  # atno 10718 bound_to 10713
  154.6299  135.5425  153.7668 H   0  0  0  0  0  0  0  0  0  0  0  0  # atno 10763 bound_to 10752
  153.0279  135.6433  154.1317 H   0  0  0  0  0  0  0  0  0  0  0  0  # atno 10764 bound_to 10752
  154.1247  135.2918  155.3180 H   0  0  0  0  0  0  0  0  0  0  0  0  # atno 10765 bound_to 10752
  141.0102  133.6912  156.2186 H   0  0  0  0  0  0  0  0  0  0  0  0  # atno 11005 bound_to 11000
  144.7130  139.8301  143.7408 LP  0  0  0  0  0  0  0  0  0  0  0  0  # atno 17320 bound_to 7965
  146.1220  139.4240  143.0222 LP  0  0  0  0  0  0  0  0  0  0  0  0  # atno 17321 bound_to 7965
  139.5788  144.7500  151.3694 LP  0  0  0  0  0  0  0  0  0  0  0  0  # atno 17342 bound_to 10162
  140.7085  143.7452  150.7524 LP  0  0  0  0  0  0  0  0  0  0  0  0  # atno 17343 bound_to 10162
  157.5754  130.8339  149.8448 LP  0  0  0  0  0  0  0  0  0  0  0  0  # atno 17370 bound_to 10713
  156.0384  130.3745  150.1500 LP  0  0  0  0  0  0  0  0  0  0  0  0  # atno 17371 bound_to 10713
  140.6747  134.4831  157.5588 LP  0  0  0  0  0  0  0  0  0  0  0  0  # atno 17394 bound_to 11000
  139.9085  134.8396  156.1614 LP  0  0  0  0  0  0  0  0  0  0  0  0  # atno 17395 bound_to 11000

$$$$
