AV-unprocessed.smi:1749|AV-procd|sdf|7049|dock3
  -GOLD-   22720 8263D 1   1.00000     0.00000
 Structure written by MMmdl.
 31 32  0  0  0  0  0  0  0  0  2 V2000
  152.0219  145.4940  160.0712 C   0  0  0  0  0  0  0  0  0  0  0  0
  152.2016  144.2236  159.2283 C   0  0  1  0  0  0  0  0  0  0  0  0
  152.2141  142.9592  160.1086 C   0  0  0  0  0  0  0  0  0  0  0  0
  152.3980  141.6885  159.2645 C   0  0  0  0  0  0  0  0  0  0  0  0
  151.3200  141.5831  158.1755 C   0  0  0  0  0  0  0  0  0  0  0  0
  151.2993  142.8378  157.2836 C   0  0  1  0  0  0  0  0  0  0  0  0
  150.2273  142.7127  156.3004 N   0  0  0  0  0  0  0  0  0  0  0  0
  150.0607  141.7066  155.4192 C   0  0  0  0  0  0  0  0  0  0  0  0
  150.8860  140.7944  155.3933 O   0  0  0  0  0  0  0  0  0  0  0  0
  148.9787  141.7549  154.5978 N   0  5  0  0  0  0  0  0  0  0  0  0
  148.4110  140.6499  154.0798 C   0  0  0  0  0  0  0  0  0  0  0  0
  147.2785  140.6904  153.3594 N   0  0  0  0  0  0  0  0  0  0  0  0
  146.8629  139.4390  152.9248 N   0  0  0  0  0  0  0  0  0  0  0  0
  147.7030  138.4834  153.3212 C   0  0  0  0  0  0  0  0  0  0  0  0
  149.0774  139.0250  154.2608 S   0  0  0  0  0  0  0  0  0  0  0  0
  151.1186  144.1109  158.1371 C   0  0  0  0  0  0  0  0  0  0  0  0
  151.0683  145.4885  160.5999 H   0  0  0  0  0  0  0  0  0  0  0  0
  152.0506  146.3864  159.4454 H   0  0  0  0  0  0  0  0  0  0  0  0
  152.8143  145.5872  160.8141 H   0  0  0  0  0  0  0  0  0  0  0  0
  153.1700  144.2958  158.7309 H   0  0  0  0  0  0  0  0  0  0  0  0
  153.0136  143.0257  160.8472 H   0  0  0  0  0  0  0  0  0  0  0  0
  151.2807  142.8904  160.6692 H   0  0  0  0  0  0  0  0  0  0  0  0
  153.3854  141.6962  158.8012 H   0  0  0  0  0  0  0  0  0  0  0  0
  152.3645  140.8078  159.9063 H   0  0  0  0  0  0  0  0  0  0  0  0
  151.4969  140.6949  157.5677 H   0  0  0  0  0  0  0  0  0  0  0  0
  150.3442  141.4471  158.6449 H   0  0  0  0  0  0  0  0  0  0  0  0
  152.2545  142.8953  156.7583 H   0  0  0  0  0  0  0  0  0  0  0  0
  149.5398  143.4517  156.2892 H   0  0  0  0  0  0  0  0  0  0  0  0
  147.5134  137.4537  153.0577 H   0  0  0  0  0  0  0  0  0  0  0  0
  150.1308  144.1047  158.6006 H   0  0  0  0  0  0  0  0  0  0  0  0
  151.1519  144.9940  157.4977 H   0  0  0  0  0  0  0  0  0  0  0  0
  1  2  1  0  0  0  0
  1 17  1  0  0  0  0
  1 18  1  0  0  0  0
  1 19  1  0  0  0  0
  2 16  1  0  0  0  0
  2  3  1  0  0  0  0
  2 20  1  0  0  0  0
  3  4  1  0  0  0  0
  3 21  1  0  0  0  0
  3 22  1  0  0  0  0
  4  5  1  0  0  0  0
  4 23  1  0  0  0  0
  4 24  1  0  0  0  0
  5  6  1  0  0  0  0
  5 25  1  0  0  0  0
  5 26  1  0  0  0  0
  6  7  1  0  0  0  0
  6 16  1  0  0  0  0
  6 27  1  0  0  0  0
  7  8  1  0  0  0  0
  7 28  1  0  0  0  0
  8  9  2  0  0  0  0
  8 10  1  0  0  0  0
 10 11  1  0  0  0  0
 11 15  1  0  0  0  0
 11 12  2  0  0  0  0
 12 13  1  0  0  0  0
 13 14  2  0  0  0  0
 14 15  1  0  0  0  0
 14 29  1  0  0  0  0
 16 30  1  0  0  0  0
 16 31  1  0  0  0  0
M  CHG  1  10  -1
M  END
> <s_m_source_file>
AV-unprocessed.smi

> <i_m_source_file_index>
1749

> <i_lp_mmshare_version>
43012

> <i_f3d_flags>
0

> <s_epik_input>
W0NIM11bQ0BASF0xW0NIMl1bQ0gyXVtDSDJdW0NASF0oW0NIMl0xKVtOSF1DKD1PKVtOSF1jMm5uW2NIXXMy

> <s_epik_cmdline>
J2VwaWtfcHl0aG9uJywgJy1waCcsICc3LjAnLCAnLXRuJywgJzgnLCAnLW1hJywgJzIwMCcsICctbWV0YWxfYmluZGluZycsICctaW1hZScsICc8aW5maWxlLm1hZT4nLCAnLW9tYWUnLCAnPG91dGZpbGUubWFlPic=

> <r_lp_tautomer_probability>
1

> <r_epik_Ionization_Penalty>
4.55442

> <r_epik_Ionization_Penalty_Charging>
4.5081

> <r_epik_Ionization_Penalty_Neutral>
0.0463156

> <r_epik_State_Penalty>
4.50781

> <r_epik_Charging_Adjusted_Penalty>
9.01591

> <i_epik_Tot_Q>
-1

> <i_epik_Tot_abs_Q>
1

> <r_epik_Metal_State_Penalty>
0.823335

> <b_epik_Metal_Only>
1

> <s_lp_Force_Field>
OPLS_2005

> <r_lp_Energy>
8.86437

> <b_lp_Chiralities_Consistent>
1

> <s_lp_Variant>
AV-unprocessed.smi:1749-6

> <Gold.Version>
5.8.1

> <Gold.Id.Protein>
6NUR|6NUR_protein|mol2

> <Gold.PLP.Fitness>
40.0266

> <Gold.PLP.PLP>
-32.4112

> <Gold.PLP.part.hbond>
-2.4413

> <Gold.PLP.part.metal>
0.0000

> <Gold.PLP.part.buried>
-2.6294

> <Gold.PLP.part.nonpolar>
-27.9009

> <Gold.PLP.part.repulsive>
0.7444

> <Gold.PLP.ligand.clash>
0.0000

> <Gold.PLP.ligand.torsion>
0.1690

> <Gold.PLP.Chemscore.Hbond>
1.8089

> <Gold.PLP.Chemscore.CHOScore>
0.8383

> <Gold.PLP.Chemscore.Metal>
0.0000

> <Gold.Chemscore.Hbonds>
donor molecule, donor type, donor heavy atom, donor atom, acceptor molecule, acceptor atom, score
      L1  H     7    28       P1  8028  1.00
      P1  H  7989  7998       L1     9  0.82
      L1  C    14    29       P1  7948  0.84

> <Gold.PLP.Chemscore.Internal.Correction>
0.0117

> <Gold.Rescore>
     Score         DG    S(hbond)    S(metal)    S(lipo)     H(rot)  DE(clash)    DE(int)     intcor
     14.91     -17.80       1.46        0.00      85.38       1.00       0.13       2.76       ----

> <Gold.Chemscore.Fitness>
14.9084

> <Gold.Chemscore.DG>
-17.7996

> <Gold.Chemscore.ZeroCoef>
-5.4800

> <Gold.Chemscore.Hbond>
1.4641

> <Gold.Chemscore.Metal>
0.0000

> <Gold.Chemscore.Lipo>
85.3802

> <Gold.Chemscore.Internal_Hbond>
0.0000

> <Gold.Chemscore.DEClash>
0.1321

> <Gold.Chemscore.DEInternal>
2.7591

> <Gold.Chemscore.Rot>
1.0000

> <Gold.Chemscore.Internal.Correction>
   9.000000E+99

> <Gold.Chemscore.Hbonds>
donor molecule, donor type, donor heavy atom, donor atom, acceptor molecule, acceptor atom, score
      L1  H     7    28       P1  8028  0.92
      P1  H  7989  7998       L1     9  0.30

> <Gold.Chemscore.Hbond.Weighted>
-4.8902

> <Gold.Chemscore.Metal.Weighted>
-0.0000

> <Gold.Chemscore.Lipo.Weighted>
-9.9895

> <Gold.Chemscore.Internal_Hbond.Weighted>
0.0000

> <Gold.Chemscore.DEClash.Weighted>
0.1321

> <Gold.Chemscore.DEInternal.Weighted>
2.7591

> <Gold.Chemscore.Rot.Weighted>
2.5600

> <Gold.Chemscore.Internal.Correction.Weighted>
   9.000000E+99

> <Gold.Protein.RotatedTorsions>
[ 6907 6896 6895 6894 ] final  140.17 input  -60.11 | X-H torsion
[ 7974 7965 7964 7962 ] final  -25.07 input  175.53 | X-H torsion
[ 8008 7997 7996 7995 ] final   -6.53 input   59.86 | X-H torsion
[ 10167 10162 10161 10158 ] final -108.88 input  -65.29 | X-H torsion
[ 10718 10713 10712 10709 ] final   40.45 input   66.30 | X-H torsion
[ 10763 10752 10751 10750 ] final -114.75 input  -60.55 | X-H torsion
[ 11005 11000 10999 10996 ] final   45.65 input  -57.11 | X-H torsion

> <Gold.Protein.ActiveResidues>
 VAL166  LYS551  ARG553  GLY616  TRP617  ASP618  TYR619  PRO620  LYS621  CYS622 
 ASP623  PHE694  ASN695  SER759  ASP760  ASP761  ALA762  ILE779  LEU786  VAL792 
 PHE793  MET794  SER795  GLU796  ALA797  LYS798  CYS799  TRP800  GLU811  SER814 

> <Gold.Protein.RotatedAtoms>
  152.2463  133.5177  159.5298 H   0  0  0  0  0  0  0  0  0  0  0  0  # atno 6907 bound_to 6896
  150.7079  134.1021  159.3978 H   0  0  0  0  0  0  0  0  0  0  0  0  # atno 6908 bound_to 6896
  151.8941  135.0404  160.0551 H   0  0  0  0  0  0  0  0  0  0  0  0  # atno 6909 bound_to 6896
  146.1515  140.4836  142.8609 H   0  0  0  0  0  0  0  0  0  0  0  0  # atno 7974 bound_to 7965
  154.5928  140.2430  155.7897 H   0  0  0  0  0  0  0  0  0  0  0  0  # atno 8008 bound_to 7997
  156.2259  140.2982  156.0020 H   0  0  0  0  0  0  0  0  0  0  0  0  # atno 8009 bound_to 7997
  155.2344  140.0405  157.2957 H   0  0  0  0  0  0  0  0  0  0  0  0  # atno 8010 bound_to 7997
  140.1613  143.4118  152.1423 H   0  0  0  0  0  0  0  0  0  0  0  0  # atno 10167 bound_to 10162
  157.3822  130.7760  149.7202 H   0  0  0  0  0  0  0  0  0  0  0  0  # atno 10718 bound_to 10713
  154.8453  135.4406  154.1554 H   0  0  0  0  0  0  0  0  0  0  0  0  # atno 10763 bound_to 10752
  153.2704  135.6944  153.7492 H   0  0  0  0  0  0  0  0  0  0  0  0  # atno 10764 bound_to 10752
  153.6734  135.3415  155.3134 H   0  0  0  0  0  0  0  0  0  0  0  0  # atno 10765 bound_to 10752
  140.1440  134.4546  155.8429 H   0  0  0  0  0  0  0  0  0  0  0  0  # atno 11005 bound_to 11000
  144.7910  140.6031  143.6542 LP  0  0  0  0  0  0  0  0  0  0  0  0  # atno 17320 bound_to 7965
  145.4812  139.1495  143.3761 LP  0  0  0  0  0  0  0  0  0  0  0  0  # atno 17321 bound_to 7965
  139.5380  144.7228  151.4829 LP  0  0  0  0  0  0  0  0  0  0  0  0  # atno 17342 bound_to 10162
  140.6641  143.8435  150.6921 LP  0  0  0  0  0  0  0  0  0  0  0  0  # atno 17343 bound_to 10162
  155.9778  130.4058  150.3686 LP  0  0  0  0  0  0  0  0  0  0  0  0  # atno 17370 bound_to 10713
  157.1792  131.0388  151.2757 LP  0  0  0  0  0  0  0  0  0  0  0  0  # atno 17371 bound_to 10713
  141.2190  133.6845  156.7299 LP  0  0  0  0  0  0  0  0  0  0  0  0  # atno 17394 bound_to 11000
  140.2687  134.8410  157.3826 LP  0  0  0  0  0  0  0  0  0  0  0  0  # atno 17395 bound_to 11000

$$$$
