AV-unprocessed.smi:946|AV-procd|sdf|4236|dock4
  -GOLD-   22720 2143D 1   1.00000     0.00000
 Structure written by MMmdl.
 42 43  0  0  0  0  0  0  0  0  1 V2000
  152.9382  138.7329  154.7332 C   0  0  0  0  0  0  0  0  0  0  0  0
  151.9633  138.1287  155.7539 C   0  0  2  0  0  0  0  0  0  0  0  0
  150.6435  138.4107  155.2984 O   0  0  0  0  0  0  0  0  0  0  0  0
  150.4176  139.7475  154.8674 C   0  0  0  0  0  0  0  0  0  0  0  0
  148.9218  139.9176  154.5717 C   0  0  1  0  0  0  0  0  0  0  0  0
  148.5776  141.3550  154.1350 C   0  0  0  0  0  0  0  0  0  0  0  0
  147.0934  141.4639  153.7659 C   0  0  0  0  0  0  0  0  0  0  0  0
  146.7384  140.3933  152.7289 C   0  0  0  0  0  0  0  0  0  0  0  0
  147.1850  139.0064  153.2183 C   0  0  0  0  0  0  0  0  0  0  0  0
  148.5775  139.0224  153.5161 O   0  0  0  0  0  0  0  0  0  0  0  0
  152.1828  138.7281  157.1519 C   0  0  0  0  0  0  0  0  0  0  0  0
  152.2778  137.9809  158.1262 O   0  0  0  0  0  0  0  0  0  0  0  0
  152.2702  140.0707  157.2056 N   0  0  0  0  0  0  0  0  0  0  0  0
  152.4577  140.8951  158.3463 C   0  0  0  0  0  0  0  0  0  0  0  0
  153.1282  140.2806  159.4266 C   0  0  0  0  0  0  0  0  0  0  0  0
  153.3668  141.0174  160.6022 C   0  0  0  0  0  0  0  0  0  0  0  0
  152.9277  142.3514  160.6690 C   0  0  0  0  0  0  0  0  0  0  0  0
  152.2628  142.8936  159.5486 C   0  0  0  0  0  0  0  0  0  0  0  0
  151.7533  144.3280  159.5385 C   0  0  0  0  0  0  0  0  0  0  0  0
  151.9273  144.9219  160.7199 F   0  0  0  0  0  0  0  0  0  0  0  0
  152.4066  145.0308  158.6132 F   0  0  0  0  0  0  0  0  0  0  0  0
  150.4520  144.3402  159.2485 F   0  0  0  0  0  0  0  0  0  0  0  0
  152.0367  142.1815  158.4215 N   0  0  0  0  0  0  0  0  0  0  0  0
  153.9748  138.5534  155.0210 H   0  0  0  0  0  0  0  0  0  0  0  0
  152.7991  139.8102  154.6331 H   0  0  0  0  0  0  0  0  0  0  0  0
  152.7889  138.2904  153.7481 H   0  0  0  0  0  0  0  0  0  0  0  0
  152.1171  137.0481  155.7794 H   0  0  0  0  0  0  0  0  0  0  0  0
  150.7162  140.4283  155.6659 H   0  0  0  0  0  0  0  0  0  0  0  0
  151.0070  139.9993  153.9849 H   0  0  0  0  0  0  0  0  0  0  0  0
  148.3521  139.6670  155.4686 H   0  0  0  0  0  0  0  0  0  0  0  0
  148.8147  142.0608  154.9319 H   0  0  0  0  0  0  0  0  0  0  0  0
  149.1890  141.6355  153.2763 H   0  0  0  0  0  0  0  0  0  0  0  0
  146.4821  141.3270  154.6588 H   0  0  0  0  0  0  0  0  0  0  0  0
  146.8674  142.4582  153.3800 H   0  0  0  0  0  0  0  0  0  0  0  0
  145.6659  140.3979  152.5330 H   0  0  0  0  0  0  0  0  0  0  0  0
  147.2308  140.6212  151.7827 H   0  0  0  0  0  0  0  0  0  0  0  0
  146.6176  138.7020  154.0990 H   0  0  0  0  0  0  0  0  0  0  0  0
  146.9991  138.2594  152.4465 H   0  0  0  0  0  0  0  0  0  0  0  0
  152.1780  140.5586  156.3269 H   0  0  0  0  0  0  0  0  0  0  0  0
  153.4616  139.2551  159.3588 H   0  0  0  0  0  0  0  0  0  0  0  0
  153.8798  140.5659  161.4387 H   0  0  0  0  0  0  0  0  0  0  0  0
  153.1012  142.9358  161.5604 H   0  0  0  0  0  0  0  0  0  0  0  0
  1  2  1  0  0  0  0
  1 24  1  0  0  0  0
  1 25  1  0  0  0  0
  1 26  1  0  0  0  0
  2  3  1  0  0  0  0
  2 11  1  0  0  0  0
  2 27  1  0  0  0  0
  3  4  1  0  0  0  0
  4  5  1  0  0  0  0
  4 28  1  0  0  0  0
  4 29  1  0  0  0  0
  5 10  1  0  0  0  0
  5  6  1  0  0  0  0
  5 30  1  0  0  0  0
  6  7  1  0  0  0  0
  6 31  1  0  0  0  0
  6 32  1  0  0  0  0
  7  8  1  0  0  0  0
  7 33  1  0  0  0  0
  7 34  1  0  0  0  0
  8  9  1  0  0  0  0
  8 35  1  0  0  0  0
  8 36  1  0  0  0  0
  9 10  1  0  0  0  0
  9 37  1  0  0  0  0
  9 38  1  0  0  0  0
 11 12  2  0  0  0  0
 11 13  1  0  0  0  0
 13 14  1  0  0  0  0
 13 39  1  0  0  0  0
 14 23  1  0  0  0  0
 14 15  2  0  0  0  0
 15 16  1  0  0  0  0
 15 40  1  0  0  0  0
 16 17  2  0  0  0  0
 16 41  1  0  0  0  0
 17 18  1  0  0  0  0
 17 42  1  0  0  0  0
 18 19  1  0  0  0  0
 18 23  2  0  0  0  0
 19 20  1  0  0  0  0
 19 21  1  0  0  0  0
 19 22  1  0  0  0  0
M  END
> <s_m_source_file>
AV-unprocessed.smi

> <i_m_source_file_index>
946

> <i_lp_mmshare_version>
43012

> <i_f3d_flags>
0

> <s_epik_input>
TzFbQ0gyXVtDSDJdW0NIMl1bQ0gyXVtDQEhdMVtDSDJdT1tDQEBIXShbQ0gzXSlDKD1PKVtOSF1jMltjSF1bY0hdW2NIXWMobjIpQyhGKShGKUY=

> <s_epik_cmdline>
J2VwaWtfcHl0aG9uJywgJy1waCcsICc3LjAnLCAnLXRuJywgJzgnLCAnLW1hJywgJzIwMCcsICctbWV0YWxfYmluZGluZycsICctaW1hZScsICc8aW5maWxlLm1hZT4nLCAnLW9tYWUnLCAnPG91dGZpbGUubWFlPic=

> <r_lp_tautomer_probability>
1

> <r_epik_Ionization_Penalty>
1.32683e-06

> <r_epik_Ionization_Penalty_Charging>
0

> <r_epik_Ionization_Penalty_Neutral>
1.32683e-06

> <r_epik_State_Penalty>
-0

> <r_epik_Charging_Adjusted_Penalty>
0

> <i_epik_Tot_Q>
0

> <i_epik_Tot_abs_Q>
0

> <r_epik_Metal_State_Penalty>
-0

> <b_epik_Metal_Only>
0

> <s_lp_Force_Field>
OPLS_2005

> <r_lp_Energy>
15.6569

> <b_lp_Chiralities_Consistent>
1

> <s_lp_Variant>
AV-unprocessed.smi:946-3

> <Gold.Version>
5.8.1

> <Gold.Id.Protein>
6NUR|6NUR_protein|mol2

> <Gold.PLP.Fitness>
47.0368

> <Gold.PLP.PLP>
-49.1643

> <Gold.PLP.part.hbond>
0.0000

> <Gold.PLP.part.metal>
0.0000

> <Gold.PLP.part.buried>
-4.4782

> <Gold.PLP.part.nonpolar>
-46.8824

> <Gold.PLP.part.repulsive>
3.0753

> <Gold.PLP.ligand.clash>
1.0684

> <Gold.PLP.ligand.torsion>
0.5673

> <Gold.PLP.Chemscore.Hbond>
0.0000

> <Gold.PLP.Chemscore.CHOScore>
0.0000

> <Gold.PLP.Chemscore.Metal>
0.0000

> <Gold.PLP.Chemscore.Internal.Correction>
0.0755

> <Gold.Rescore>
     Score         DG    S(hbond)    S(metal)    S(lipo)     H(rot)  DE(clash)    DE(int)     intcor
     10.66     -13.79       0.00        0.00     109.48       1.76       0.91       2.23       ----

> <Gold.Chemscore.Fitness>
10.6599

> <Gold.Chemscore.DG>
-13.7941

> <Gold.Chemscore.ZeroCoef>
-5.4800

> <Gold.Chemscore.Hbond>
0.0000

> <Gold.Chemscore.Metal>
0.0000

> <Gold.Chemscore.Lipo>
109.4763

> <Gold.Chemscore.Internal_Hbond>
0.0000

> <Gold.Chemscore.DEClash>
0.9091

> <Gold.Chemscore.DEInternal>
2.2251

> <Gold.Chemscore.Rot>
1.7557

> <Gold.Chemscore.Internal.Correction>
   9.000000E+99

> <Gold.Chemscore.Hbond.Weighted>
-0.0000

> <Gold.Chemscore.Metal.Weighted>
-0.0000

> <Gold.Chemscore.Lipo.Weighted>
-12.8087

> <Gold.Chemscore.Internal_Hbond.Weighted>
0.0000

> <Gold.Chemscore.DEClash.Weighted>
0.9091

> <Gold.Chemscore.DEInternal.Weighted>
2.2251

> <Gold.Chemscore.Rot.Weighted>
4.4946

> <Gold.Chemscore.Internal.Correction.Weighted>
   9.000000E+99

> <Gold.Protein.RotatedTorsions>
[ 6907 6896 6895 6894 ] final -171.36 input  -60.11 | X-H torsion
[ 7974 7965 7964 7962 ] final   25.28 input  175.53 | X-H torsion
[ 8008 7997 7996 7995 ] final  158.97 input   59.86 | X-H torsion
[ 10167 10162 10161 10158 ] final    9.51 input  -65.29 | X-H torsion
[ 10718 10713 10712 10709 ] final   10.08 input   66.30 | X-H torsion
[ 10763 10752 10751 10750 ] final   60.23 input  -60.55 | X-H torsion
[ 11005 11000 10999 10996 ] final  145.11 input  -57.11 | X-H torsion

> <Gold.Protein.ActiveResidues>
 VAL166  LYS551  ARG553  GLY616  TRP617  ASP618  TYR619  PRO620  LYS621  CYS622 
 ASP623  PHE694  ASN695  SER759  ASP760  ASP761  ALA762  ILE779  LEU786  VAL792 
 PHE793  MET794  SER795  GLU796  ALA797  LYS798  CYS799  TRP800  GLU811  SER814 

> <Gold.Protein.RotatedAtoms>
  151.5225  133.3464  159.2903 H   0  0  0  0  0  0  0  0  0  0  0  0  # atno 6907 bound_to 6896
  150.8643  134.8005  159.7118 H   0  0  0  0  0  0  0  0  0  0  0  0  # atno 6908 bound_to 6896
  152.4653  134.5099  159.9802 H   0  0  0  0  0  0  0  0  0  0  0  0  # atno 6909 bound_to 6896
  146.1896  139.7487  142.8841 H   0  0  0  0  0  0  0  0  0  0  0  0  # atno 7974 bound_to 7965
  156.2269  140.1844  156.7340 H   0  0  0  0  0  0  0  0  0  0  0  0  # atno 8008 bound_to 7997
  154.5956  140.0644  156.9327 H   0  0  0  0  0  0  0  0  0  0  0  0  # atno 8009 bound_to 7997
  155.2261  140.3311  155.4312 H   0  0  0  0  0  0  0  0  0  0  0  0  # atno 8010 bound_to 7997
  140.6251  143.8119  150.7223 H   0  0  0  0  0  0  0  0  0  0  0  0  # atno 10167 bound_to 10162
  156.9758  130.5986  149.5672 H   0  0  0  0  0  0  0  0  0  0  0  0  # atno 10718 bound_to 10713
  152.9915  135.5543  154.5841 H   0  0  0  0  0  0  0  0  0  0  0  0  # atno 10763 bound_to 10752
  154.5216  135.2808  155.1260 H   0  0  0  0  0  0  0  0  0  0  0  0  # atno 10764 bound_to 10752
  154.2611  135.6381  153.5327 H   0  0  0  0  0  0  0  0  0  0  0  0  # atno 10765 bound_to 10752
  140.0686  134.9164  157.1306 H   0  0  0  0  0  0  0  0  0  0  0  0  # atno 11005 bound_to 11000
  145.3833  141.0361  143.3165 LP  0  0  0  0  0  0  0  0  0  0  0  0  # atno 17320 bound_to 7965
  144.8461  139.5394  143.6878 LP  0  0  0  0  0  0  0  0  0  0  0  0  # atno 17321 bound_to 7965
  140.1718  143.4188  152.1995 LP  0  0  0  0  0  0  0  0  0  0  0  0  # atno 17342 bound_to 10162
  139.5472  144.7308  151.4545 LP  0  0  0  0  0  0  0  0  0  0  0  0  # atno 17343 bound_to 10162
  156.0264  130.5358  150.8418 LP  0  0  0  0  0  0  0  0  0  0  0  0  # atno 17370 bound_to 10713
  157.5561  131.0945  150.9627 LP  0  0  0  0  0  0  0  0  0  0  0  0  # atno 17371 bound_to 10713
  140.3661  134.2441  155.7182 LP  0  0  0  0  0  0  0  0  0  0  0  0  # atno 17394 bound_to 11000
  141.2003  133.7991  157.0497 LP  0  0  0  0  0  0  0  0  0  0  0  0  # atno 17395 bound_to 11000

$$$$
