AV-unprocessed.smi:1981|AV-procd|sdf|8019|dock1
  -GOLD-   2272010213D 1   1.00000     0.00000
 Structure written by MMmdl.
 45 46  0  0  0  0  0  0  0  0  1 V2000
  154.6235  139.8981  159.7383 C   0  0  0  0  0  0  0  0  0  0  0  0
  154.8041  138.9902  158.6656 O   0  0  0  0  0  0  0  0  0  0  0  0
  153.5894  138.3839  158.2591 C   0  0  0  0  0  0  0  0  0  0  0  0
  153.8586  137.5028  157.0302 C   0  0  0  0  0  0  0  0  0  0  0  0
  152.7363  137.5386  156.0875 N   0  0  0  0  0  0  0  0  0  0  0  0
  151.9520  136.3976  156.1022 N   0  0  0  0  0  0  0  0  0  0  0  0
  150.9243  136.3044  155.3215 C   0  0  0  0  0  0  0  0  0  0  0  0
  150.0559  135.0948  155.3084 C   0  0  0  0  0  0  0  0  0  0  0  0
  150.0452  134.2910  156.2422 O   0  0  0  0  0  0  0  0  0  0  0  0
  149.2929  134.9476  154.2102 N   0  0  0  0  0  0  0  0  0  0  0  0
  148.3617  133.8514  153.9652 C   0  0  0  0  0  0  0  0  0  0  0  0
  148.7782  133.0494  152.7100 C   0  0  0  0  0  0  0  0  0  0  0  0
  147.6968  132.0286  152.3134 C   0  0  0  0  0  0  0  0  0  0  0  0
  146.4273  132.7380  152.1196 N   0  0  0  0  0  0  0  0  0  0  0  0
  145.8756  132.9308  150.8974 C   0  0  0  0  0  0  0  0  0  0  0  0
  144.5981  133.7645  150.7759 C   0  0  0  0  0  0  0  0  0  0  0  0
  146.3630  132.4661  149.8667 O   0  0  0  0  0  0  0  0  0  0  0  0
  145.9411  133.3250  153.3743 C   0  0  0  0  0  0  0  0  0  0  0  0
  146.9304  134.4141  153.8258 C   0  0  0  0  0  0  0  0  0  0  0  0
  150.5748  137.3887  154.4192 C   0  0  0  0  0  0  0  0  0  0  0  0
  151.3459  138.4982  154.4206 C   0  0  0  0  0  0  0  0  0  0  0  0
  152.5105  138.6312  155.2975 C   0  0  0  0  0  0  0  0  0  0  0  0
  153.2206  139.6358  155.3261 O   0  0  0  0  0  0  0  0  0  0  0  0
  155.5831  140.3343  160.0155 H   0  0  0  0  0  0  0  0  0  0  0  0
  154.2164  139.3953  160.6165 H   0  0  0  0  0  0  0  0  0  0  0  0
  153.9524  140.7107  159.4576 H   0  0  0  0  0  0  0  0  0  0  0  0
  153.1855  137.7793  159.0729 H   0  0  0  0  0  0  0  0  0  0  0  0
  152.8521  139.1523  158.0213 H   0  0  0  0  0  0  0  0  0  0  0  0
  154.7815  137.8165  156.5393 H   0  0  0  0  0  0  0  0  0  0  0  0
  154.0377  136.4758  157.3540 H   0  0  0  0  0  0  0  0  0  0  0  0
  149.3644  135.6531  153.4910 H   0  0  0  0  0  0  0  0  0  0  0  0
  148.3707  133.1775  154.8240 H   0  0  0  0  0  0  0  0  0  0  0  0
  148.9481  133.7310  151.8749 H   0  0  0  0  0  0  0  0  0  0  0  0
  149.7239  132.5357  152.8854 H   0  0  0  0  0  0  0  0  0  0  0  0
  148.0132  131.4772  151.4271 H   0  0  0  0  0  0  0  0  0  0  0  0
  147.5794  131.2820  153.1002 H   0  0  0  0  0  0  0  0  0  0  0  0
  144.7541  134.7705  151.1663 H   0  0  0  0  0  0  0  0  0  0  0  0
  143.7772  133.2952  151.3185 H   0  0  0  0  0  0  0  0  0  0  0  0
  144.2976  133.8564  149.7315 H   0  0  0  0  0  0  0  0  0  0  0  0
  144.9375  133.7413  153.3020 H   0  0  0  0  0  0  0  0  0  0  0  0
  145.8763  132.5441  154.1334 H   0  0  0  0  0  0  0  0  0  0  0  0
  146.6039  134.8441  154.7733 H   0  0  0  0  0  0  0  0  0  0  0  0
  146.9207  135.2270  153.0977 H   0  0  0  0  0  0  0  0  0  0  0  0
  149.7208  137.3178  153.7612 H   0  0  0  0  0  0  0  0  0  0  0  0
  151.0971  139.3124  153.7559 H   0  0  0  0  0  0  0  0  0  0  0  0
  1  2  1  0  0  0  0
  1 24  1  0  0  0  0
  1 25  1  0  0  0  0
  1 26  1  0  0  0  0
  2  3  1  0  0  0  0
  3  4  1  0  0  0  0
  3 27  1  0  0  0  0
  3 28  1  0  0  0  0
  4  5  1  0  0  0  0
  4 29  1  0  0  0  0
  4 30  1  0  0  0  0
  5 22  1  0  0  0  0
  5  6  1  0  0  0  0
  6  7  2  0  0  0  0
  7  8  1  0  0  0  0
  7 20  1  0  0  0  0
  8  9  2  0  0  0  0
  8 10  1  0  0  0  0
 10 11  1  0  0  0  0
 10 31  1  0  0  0  0
 11 19  1  0  0  0  0
 11 12  1  0  0  0  0
 11 32  1  0  0  0  0
 12 13  1  0  0  0  0
 12 33  1  0  0  0  0
 12 34  1  0  0  0  0
 13 14  1  0  0  0  0
 13 35  1  0  0  0  0
 13 36  1  0  0  0  0
 14 15  1  0  0  0  0
 14 18  1  0  0  0  0
 15 16  1  0  0  0  0
 15 17  2  0  0  0  0
 16 37  1  0  0  0  0
 16 38  1  0  0  0  0
 16 39  1  0  0  0  0
 18 19  1  0  0  0  0
 18 40  1  0  0  0  0
 18 41  1  0  0  0  0
 19 42  1  0  0  0  0
 19 43  1  0  0  0  0
 20 21  2  0  0  0  0
 20 44  1  0  0  0  0
 21 22  1  0  0  0  0
 21 45  1  0  0  0  0
 22 23  2  0  0  0  0
M  END
> <s_m_source_file>
AV-unprocessed.smi

> <i_m_source_file_index>
1981

> <i_lp_mmshare_version>
43012

> <i_f3d_flags>
0

> <s_epik_input>
W0NIM11PW0NIMl1bQ0gyXW4xbmMoW2NIXVtjSF1jMT1PKUMoPU8pW05IXVtDSF0yW0NIMl1bQ0gyXU4oQyg9TylbQ0gzXSlbQ0gyXVtDSDJdMg==

> <s_epik_cmdline>
J2VwaWtfcHl0aG9uJywgJy1waCcsICc3LjAnLCAnLXRuJywgJzgnLCAnLW1hJywgJzIwMCcsICctbWV0YWxfYmluZGluZycsICctaW1hZScsICc8aW5maWxlLm1hZT4nLCAnLW9tYWUnLCAnPG91dGZpbGUubWFlPic=

> <r_lp_tautomer_probability>
1

> <r_epik_Ionization_Penalty>
2.32097e-06

> <r_epik_Ionization_Penalty_Charging>
6.14723e-09

> <r_epik_Ionization_Penalty_Neutral>
2.31482e-06

> <r_epik_State_Penalty>
-0

> <r_epik_Charging_Adjusted_Penalty>
6.14723e-09

> <i_epik_Tot_Q>
0

> <i_epik_Tot_abs_Q>
0

> <r_epik_Metal_State_Penalty>
-0

> <b_epik_Metal_Only>
0

> <s_lp_Force_Field>
OPLS_2005

> <r_lp_Energy>
40.8399

> <b_lp_Chiralities_Consistent>
1

> <s_lp_Variant>
AV-unprocessed.smi:1981-1

> <Gold.Version>
5.8.1

> <Gold.Id.Protein>
6NUR|6NUR_protein|mol2

> <Gold.PLP.Fitness>
41.7439

> <Gold.PLP.PLP>
-33.1675

> <Gold.PLP.part.hbond>
-3.7458

> <Gold.PLP.part.metal>
0.0000

> <Gold.PLP.part.buried>
-2.2633

> <Gold.PLP.part.nonpolar>
-27.4464

> <Gold.PLP.part.repulsive>
0.1982

> <Gold.PLP.ligand.clash>
0.0000

> <Gold.PLP.ligand.torsion>
0.6085

> <Gold.PLP.Chemscore.Hbond>
3.2321

> <Gold.PLP.Chemscore.CHOScore>
0.0000

> <Gold.PLP.Chemscore.Metal>
0.0000

> <Gold.Chemscore.Hbonds>
donor molecule, donor type, donor heavy atom, donor atom, acceptor molecule, acceptor atom, score
      L1  H    10    31       P1  7948  0.99
      P1  H  7997  8008       L1    23  0.99
      P1  H  7997  8010       L1     2  1.00
      P1  H 10752 10763       L1     6  0.54

> <Gold.PLP.Chemscore.Internal.Correction>
0.0972

> <Gold.Rescore>
     Score         DG    S(hbond)    S(metal)    S(lipo)     H(rot)  DE(clash)    DE(int)     intcor
     16.61     -17.38       2.55        0.00      65.84       1.69       0.27       0.50       ----

> <Gold.Chemscore.Fitness>
16.6051

> <Gold.Chemscore.DG>
-17.3798

> <Gold.Chemscore.ZeroCoef>
-5.4800

> <Gold.Chemscore.Hbond>
2.5488

> <Gold.Chemscore.Metal>
0.0000

> <Gold.Chemscore.Lipo>
65.8400

> <Gold.Chemscore.Internal_Hbond>
0.0000

> <Gold.Chemscore.DEClash>
0.2718

> <Gold.Chemscore.DEInternal>
0.5029

> <Gold.Chemscore.Rot>
1.6861

> <Gold.Chemscore.Internal.Correction>
   9.000000E+99

> <Gold.Chemscore.Hbonds>
donor molecule, donor type, donor heavy atom, donor atom, acceptor molecule, acceptor atom, score
      L1  H    10    31       P1  7948  0.33
      P1  H  7997  8008       L1    23  0.89
      P1  H  7997  8010       L1     2  0.13
      P1  H 10752 10763       L1     6  0.01

> <Gold.Chemscore.Hbond.Weighted>
-8.5130

> <Gold.Chemscore.Metal.Weighted>
-0.0000

> <Gold.Chemscore.Lipo.Weighted>
-7.7033

> <Gold.Chemscore.Internal_Hbond.Weighted>
0.0000

> <Gold.Chemscore.DEClash.Weighted>
0.2718

> <Gold.Chemscore.DEInternal.Weighted>
0.5029

> <Gold.Chemscore.Rot.Weighted>
4.3164

> <Gold.Chemscore.Internal.Correction.Weighted>
   9.000000E+99

> <Gold.Protein.RotatedTorsions>
[ 6907 6896 6895 6894 ] final  117.13 input  -60.11 | X-H torsion
[ 7974 7965 7964 7962 ] final   48.07 input  175.53 | X-H torsion
[ 8008 7997 7996 7995 ] final   -0.56 input   59.86 | X-H torsion
[ 10167 10162 10161 10158 ] final   21.32 input  -65.29 | X-H torsion
[ 10718 10713 10712 10709 ] final  138.58 input   66.30 | X-H torsion
[ 10763 10752 10751 10750 ] final   91.16 input  -60.55 | X-H torsion
[ 11005 11000 10999 10996 ] final  166.91 input  -57.11 | X-H torsion

> <Gold.Protein.ActiveResidues>
 VAL166  LYS551  ARG553  GLY616  TRP617  ASP618  TYR619  PRO620  LYS621  CYS622 
 ASP623  PHE694  ASN695  SER759  ASP760  ASP761  ALA762  ILE779  LEU786  VAL792 
 PHE793  MET794  SER795  GLU796  ALA797  LYS798  CYS799  TRP800  GLU811  SER814 

> <Gold.Protein.RotatedAtoms>
  152.4632  133.7866  159.6879 H   0  0  0  0  0  0  0  0  0  0  0  0  # atno 6907 bound_to 6896
  150.8585  133.7669  159.3007 H   0  0  0  0  0  0  0  0  0  0  0  0  # atno 6908 bound_to 6896
  151.5242  135.1070  159.9938 H   0  0  0  0  0  0  0  0  0  0  0  0  # atno 6909 bound_to 6896
  146.0238  139.4683  142.9880 H   0  0  0  0  0  0  0  0  0  0  0  0  # atno 7974 bound_to 7965
  154.6566  140.2581  155.7154 H   0  0  0  0  0  0  0  0  0  0  0  0  # atno 8008 bound_to 7997
  156.2599  140.2857  156.0943 H   0  0  0  0  0  0  0  0  0  0  0  0  # atno 8009 bound_to 7997
  155.1371  140.0379  157.2779 H   0  0  0  0  0  0  0  0  0  0  0  0  # atno 8010 bound_to 7997
  140.5436  143.9634  150.6534 H   0  0  0  0  0  0  0  0  0  0  0  0  # atno 10167 bound_to 10162
  157.4238  131.1041  151.0325 H   0  0  0  0  0  0  0  0  0  0  0  0  # atno 10718 bound_to 10713
  153.2052  135.4408  155.0315 H   0  0  0  0  0  0  0  0  0  0  0  0  # atno 10763 bound_to 10752
  154.8170  135.3319  154.7151 H   0  0  0  0  0  0  0  0  0  0  0  0  # atno 10764 bound_to 10752
  153.7593  135.6992  153.4984 H   0  0  0  0  0  0  0  0  0  0  0  0  # atno 10765 bound_to 10752
  140.2713  134.7824  157.3678 H   0  0  0  0  0  0  0  0  0  0  0  0  # atno 11005 bound_to 11000
  145.7150  141.0094  143.1433 LP  0  0  0  0  0  0  0  0  0  0  0  0  # atno 17320 bound_to 7965
  144.7001  139.8802  143.7446 LP  0  0  0  0  0  0  0  0  0  0  0  0  # atno 17321 bound_to 7965
  140.3041  143.3241  152.0943 LP  0  0  0  0  0  0  0  0  0  0  0  0  # atno 17342 bound_to 10162
  139.4998  144.6678  151.6315 LP  0  0  0  0  0  0  0  0  0  0  0  0  # atno 17343 bound_to 10162
  157.1246  130.6076  149.5513 LP  0  0  0  0  0  0  0  0  0  0  0  0  # atno 17370 bound_to 10713
  155.9889  130.4935  150.7192 LP  0  0  0  0  0  0  0  0  0  0  0  0  # atno 17371 bound_to 10713
  140.1370  134.5021  155.8061 LP  0  0  0  0  0  0  0  0  0  0  0  0  # atno 17394 bound_to 11000
  141.2177  133.6811  156.7142 LP  0  0  0  0  0  0  0  0  0  0  0  0  # atno 17395 bound_to 11000

$$$$
