AV-unprocessed.smi:921|AV-procd|sdf|4169|dock9
  -GOLD-   22720 2 73D 1   1.00000     0.00000
 Structure written by MMmdl.
 39 41  0  0  0  0  0  0  0  0  1 V2000
  151.2926  137.4674  153.4841 N   0  0  0  0  0  0  0  0  0  0  0  0
  151.5749  137.4227  154.7891 C   0  0  0  0  0  0  0  0  0  0  0  0
  151.8828  136.3763  155.3560 O   0  0  0  0  0  0  0  0  0  0  0  0
  151.4923  138.7399  155.5701 C   0  0  0  0  0  0  0  0  0  0  0  0
  150.3140  139.5456  155.0790 C   0  0  0  0  0  0  0  0  0  0  0  0
  149.4219  139.0367  154.2228 N   0  0  0  0  0  0  0  0  0  0  0  0
  148.5342  140.0770  154.0408 C   0  0  0  0  0  0  0  0  0  0  0  0
  147.3753  140.1664  153.2369 C   0  0  0  0  0  0  0  0  0  0  0  0
  146.6128  141.3527  153.2138 C   0  0  0  0  0  0  0  0  0  0  0  0
  146.9969  142.4627  153.9936 C   0  0  0  0  0  0  0  0  0  0  0  0
  148.1471  142.3927  154.8029 C   0  0  0  0  0  0  0  0  0  0  0  0
  148.9052  141.2065  154.8211 C   0  0  0  0  0  0  0  0  0  0  0  0
  150.0585  140.8163  155.4953 N   0  0  0  0  0  0  0  0  0  0  0  0
  150.7881  141.6462  156.4472 C   0  0  0  0  0  0  0  0  0  0  0  0
  150.7046  141.1167  157.8923 C   0  0  2  0  0  0  0  0  0  0  0  0
  149.3524  140.9867  158.2838 O   0  0  0  0  0  0  0  0  0  0  0  0
  151.4992  141.9987  158.8454 C   0  0  0  0  0  0  0  0  0  0  0  0
  151.1828  143.3694  158.9778 C   0  0  0  0  0  0  0  0  0  0  0  0
  151.9222  144.1904  159.8508 C   0  0  0  0  0  0  0  0  0  0  0  0
  151.6110  145.5026  159.9726 F   0  0  0  0  0  0  0  0  0  0  0  0
  152.9861  143.6477  160.5955 C   0  0  0  0  0  0  0  0  0  0  0  0
  153.3117  142.2845  160.4635 C   0  0  0  0  0  0  0  0  0  0  0  0
  152.5740  141.4614  159.5901 C   0  0  0  0  0  0  0  0  0  0  0  0
  152.9083  140.1540  159.4692 F   0  0  0  0  0  0  0  0  0  0  0  0
  151.3483  136.6245  152.9314 H   0  0  0  0  0  0  0  0  0  0  0  0
  151.0379  138.3435  153.0518 H   0  0  0  0  0  0  0  0  0  0  0  0
  151.3748  138.5481  156.6373 H   0  0  0  0  0  0  0  0  0  0  0  0
  152.4332  139.2700  155.4414 H   0  0  0  0  0  0  0  0  0  0  0  0
  147.0728  139.3213  152.6365 H   0  0  0  0  0  0  0  0  0  0  0  0
  145.7292  141.4111  152.5953 H   0  0  0  0  0  0  0  0  0  0  0  0
  146.4076  143.3676  153.9708 H   0  0  0  0  0  0  0  0  0  0  0  0
  148.4436  143.2411  155.4017 H   0  0  0  0  0  0  0  0  0  0  0  0
  151.8324  141.6661  156.1328 H   0  0  0  0  0  0  0  0  0  0  0  0
  150.4517  142.6798  156.3807 H   0  0  0  0  0  0  0  0  0  0  0  0
  151.1232  140.1101  157.9195 H   0  0  0  0  0  0  0  0  0  0  0  0
  148.8671  141.7211  157.9402 H   0  0  0  0  0  0  0  0  0  0  0  0
  150.3723  143.7977  158.4062 H   0  0  0  0  0  0  0  0  0  0  0  0
  153.5541  144.2767  161.2649 H   0  0  0  0  0  0  0  0  0  0  0  0
  154.1307  141.8696  161.0321 H   0  0  0  0  0  0  0  0  0  0  0  0
  1  2  1  0  0  0  0
  1 25  1  0  0  0  0
  1 26  1  0  0  0  0
  2  3  2  0  0  0  0
  2  4  1  0  0  0  0
  4  5  1  0  0  0  0
  4 27  1  0  0  0  0
  4 28  1  0  0  0  0
  5 13  1  0  0  0  0
  5  6  2  0  0  0  0
  6  7  1  0  0  0  0
  7 12  2  0  0  0  0
  7  8  1  0  0  0  0
  8  9  2  0  0  0  0
  8 29  1  0  0  0  0
  9 10  1  0  0  0  0
  9 30  1  0  0  0  0
 10 11  2  0  0  0  0
 10 31  1  0  0  0  0
 11 12  1  0  0  0  0
 11 32  1  0  0  0  0
 12 13  1  0  0  0  0
 13 14  1  0  0  0  0
 14 15  1  0  0  0  0
 14 33  1  0  0  0  0
 14 34  1  0  0  0  0
 15 16  1  0  0  0  0
 15 17  1  0  0  0  0
 15 35  1  0  0  0  0
 16 36  1  0  0  0  0
 17 23  1  0  0  0  0
 17 18  2  0  0  0  0
 18 19  1  0  0  0  0
 18 37  1  0  0  0  0
 19 20  1  0  0  0  0
 19 21  2  0  0  0  0
 21 22  1  0  0  0  0
 21 38  1  0  0  0  0
 22 23  2  0  0  0  0
 22 39  1  0  0  0  0
 23 24  1  0  0  0  0
M  END
> <s_m_source_file>
AV-unprocessed.smi

> <i_m_source_file_index>
921

> <i_lp_mmshare_version>
43012

> <i_f3d_flags>
0

> <s_epik_input>
W2NIXTFbY0hdW2NIXVtjSF1jKGMxMiluKGMobjIpW0NIMl1DKD1PKVtOSDJdKVtDSDJdW0NASF0oW09IXSljM1tjSF1jKEYpW2NIXVtjSF1jM0Y=

> <s_epik_cmdline>
J2VwaWtfcHl0aG9uJywgJy1waCcsICc3LjAnLCAnLXRuJywgJzgnLCAnLW1hJywgJzIwMCcsICctbWV0YWxfYmluZGluZycsICctaW1hZScsICc8aW5maWxlLm1hZT4nLCAnLW9tYWUnLCAnPG91dGZpbGUubWFlPic=

> <r_epik_Ionization_Penalty>
0.0366909

> <r_epik_Ionization_Penalty_Charging>
0

> <r_epik_Ionization_Penalty_Neutral>
0.0366909

> <r_epik_State_Penalty>
0.0306642

> <r_epik_Charging_Adjusted_Penalty>
0.0306642

> <i_epik_Tot_Q>
0

> <i_epik_Tot_abs_Q>
0

> <r_epik_Metal_State_Penalty>
0.028853

> <b_epik_Metal_Only>
0

> <s_lp_Force_Field>
OPLS_2005

> <r_lp_Energy>
14.0365

> <b_lp_Chiralities_Consistent>
1

> <s_lp_Variant>
AV-unprocessed.smi:921-1

> <Gold.Version>
5.8.1

> <Gold.Id.Protein>
6NUR|6NUR_protein|mol2

> <Gold.PLP.Fitness>
53.1000

> <Gold.PLP.PLP>
-48.0454

> <Gold.PLP.part.hbond>
-2.9511

> <Gold.PLP.part.metal>
0.0000

> <Gold.PLP.part.buried>
1.3866

> <Gold.PLP.part.nonpolar>
-46.3719

> <Gold.PLP.part.repulsive>
0.3837

> <Gold.PLP.ligand.clash>
0.0000

> <Gold.PLP.ligand.torsion>
0.4327

> <Gold.PLP.Chemscore.Hbond>
1.9600

> <Gold.PLP.Chemscore.CHOScore>
0.0000

> <Gold.PLP.Chemscore.Metal>
0.0000

> <Gold.Chemscore.Hbonds>
donor molecule, donor type, donor heavy atom, donor atom, acceptor molecule, acceptor atom, score
      L1  H     1    25       P1  7949  0.93
      P1  H 10752 10763       L1     3  0.98

> <Gold.PLP.Chemscore.Internal.Correction>
0.0399

> <Gold.Rescore>
     Score         DG    S(hbond)    S(metal)    S(lipo)     H(rot)  DE(clash)    DE(int)     intcor
     13.33     -17.68       1.74        0.00     122.67       3.11       2.08       2.26       ----

> <Gold.Chemscore.Fitness>
13.3324

> <Gold.Chemscore.DG>
-17.6792

> <Gold.Chemscore.ZeroCoef>
-5.4800

> <Gold.Chemscore.Hbond>
1.7408

> <Gold.Chemscore.Metal>
0.0000

> <Gold.Chemscore.Lipo>
122.6654

> <Gold.Chemscore.Internal_Hbond>
0.0000

> <Gold.Chemscore.DEClash>
2.0821

> <Gold.Chemscore.DEInternal>
2.2647

> <Gold.Chemscore.Rot>
3.1121

> <Gold.Chemscore.Internal.Correction>
   9.000000E+99

> <Gold.Chemscore.Hbonds>
donor molecule, donor type, donor heavy atom, donor atom, acceptor molecule, acceptor atom, score
      L1  H     1    25       P1  7949  0.69
      P1  H 10752 10763       L1     3  0.75

> <Gold.Chemscore.Hbond.Weighted>
-5.8144

> <Gold.Chemscore.Metal.Weighted>
-0.0000

> <Gold.Chemscore.Lipo.Weighted>
-14.3519

> <Gold.Chemscore.Internal_Hbond.Weighted>
0.0000

> <Gold.Chemscore.DEClash.Weighted>
2.0821

> <Gold.Chemscore.DEInternal.Weighted>
2.2647

> <Gold.Chemscore.Rot.Weighted>
7.9670

> <Gold.Chemscore.Internal.Correction.Weighted>
   9.000000E+99

> <Gold.Protein.RotatedTorsions>
[ 6907 6896 6895 6894 ] final  -52.87 input  -60.11 | X-H torsion
[ 7974 7965 7964 7962 ] final -165.36 input  175.53 | X-H torsion
[ 8008 7997 7996 7995 ] final  -52.74 input   59.86 | X-H torsion
[ 10167 10162 10161 10158 ] final  112.56 input  -65.29 | X-H torsion
[ 10718 10713 10712 10709 ] final  172.15 input   66.30 | X-H torsion
[ 10763 10752 10751 10750 ] final   57.78 input  -60.55 | X-H torsion
[ 11005 11000 10999 10996 ] final   70.36 input  -57.11 | X-H torsion

> <Gold.Protein.ActiveResidues>
 VAL166  LYS551  ARG553  GLY616  TRP617  ASP618  TYR619  PRO620  LYS621  CYS622 
 ASP623  PHE694  ASN695  SER759  ASP760  ASP761  ALA762  ILE779  LEU786  VAL792 
 PHE793  MET794  SER795  GLU796  ALA797  LYS798  CYS799  TRP800  GLU811  SER814 

> <Gold.Protein.RotatedAtoms>
  150.8478  134.7793  159.6984 H   0  0  0  0  0  0  0  0  0  0  0  0  # atno 6907 bound_to 6896
  152.4550  134.5307  159.9820 H   0  0  0  0  0  0  0  0  0  0  0  0  # atno 6908 bound_to 6896
  151.5434  133.3391  159.2975 H   0  0  0  0  0  0  0  0  0  0  0  0  # atno 6909 bound_to 6896
  144.7272  140.2825  143.6233 H   0  0  0  0  0  0  0  0  0  0  0  0  # atno 7974 bound_to 7965
  154.4114  140.1216  156.5041 H   0  0  0  0  0  0  0  0  0  0  0  0  # atno 8008 bound_to 7997
  155.6865  140.3495  155.4857 H   0  0  0  0  0  0  0  0  0  0  0  0  # atno 8009 bound_to 7997
  155.9506  140.1104  157.0970 H   0  0  0  0  0  0  0  0  0  0  0  0  # atno 8010 bound_to 7997
  139.6526  144.7128  151.2018 H   0  0  0  0  0  0  0  0  0  0  0  0  # atno 10167 bound_to 10162
  156.9831  131.0125  151.2876 H   0  0  0  0  0  0  0  0  0  0  0  0  # atno 10718 bound_to 10713
  152.9857  135.5630  154.5446 H   0  0  0  0  0  0  0  0  0  0  0  0  # atno 10763 bound_to 10752
  154.4894  135.2792  155.1510 H   0  0  0  0  0  0  0  0  0  0  0  0  # atno 10764 bound_to 10752
  154.2986  135.6312  153.5468 H   0  0  0  0  0  0  0  0  0  0  0  0  # atno 10765 bound_to 10752
  139.9602  134.7074  156.0663 H   0  0  0  0  0  0  0  0  0  0  0  0  # atno 11005 bound_to 11000
  145.7935  139.1936  143.2089 LP  0  0  0  0  0  0  0  0  0  0  0  0  # atno 17320 bound_to 7965
  146.0736  140.7842  142.9676 LP  0  0  0  0  0  0  0  0  0  0  0  0  # atno 17321 bound_to 7965
  140.7545  143.6124  150.8592 LP  0  0  0  0  0  0  0  0  0  0  0  0  # atno 17342 bound_to 10162
  139.9774  143.5989  152.2954 LP  0  0  0  0  0  0  0  0  0  0  0  0  # atno 17343 bound_to 10162
  157.5512  130.8183  149.8148 LP  0  0  0  0  0  0  0  0  0  0  0  0  # atno 17370 bound_to 10713
  156.0236  130.3787  150.1887 LP  0  0  0  0  0  0  0  0  0  0  0  0  # atno 17371 bound_to 10713
  141.1278  133.6594  156.3383 LP  0  0  0  0  0  0  0  0  0  0  0  0  # atno 17394 bound_to 11000
  140.5518  134.6020  157.5410 LP  0  0  0  0  0  0  0  0  0  0  0  0  # atno 17395 bound_to 11000

$$$$
