AV-unprocessed.smi:2226|AV-procd|sdf|9015|dock7
  -GOLD-   2272012223D 1   1.00000     0.00000
 Structure written by MMmdl.
 40 42  0  0  0  0  0  0  0  0  2 V2000
  146.8078  139.1899  152.5018 C   0  0  0  0  0  0  0  0  0  0  0  0
  146.4101  140.2043  153.5069 N   0  3  1  0  0  0  0  0  0  0  0  0
  146.1928  139.6749  154.8743 C   0  0  2  0  0  0  0  0  0  0  0  0
  145.3921  140.7114  155.6969 C   0  0  0  0  0  0  0  0  0  0  0  0
  146.0027  142.1266  155.6898 C   0  0  0  0  0  0  0  0  0  0  0  0
  146.5323  142.5353  154.3021 C   0  0  0  0  0  0  0  0  0  0  0  0
  147.2788  141.4041  153.5582 C   0  0  1  0  0  0  0  0  0  0  0  0
  148.6849  141.0642  154.1140 C   0  0  0  0  0  0  0  0  0  0  0  0
  148.7167  140.1804  155.3900 C   0  0  1  0  0  0  0  0  0  0  0  0
  148.9049  140.9540  156.6152 N   0  0  0  0  0  0  0  0  0  0  0  0
  149.9948  141.6608  156.9511 C   0  0  0  0  0  0  0  0  0  0  0  0
  150.9840  141.7155  156.2135 O   0  0  0  0  0  0  0  0  0  0  0  0
  149.7940  142.2842  158.1738 N   0  0  0  0  0  0  0  0  0  0  0  0
  150.6408  143.1722  158.5975 C   0  0  0  0  0  0  0  0  0  0  0  0
  151.8113  143.7013  158.0600 N   0  0  0  0  0  0  0  0  0  0  0  0
  152.3049  144.6243  158.9391 C   0  0  0  0  0  0  0  0  0  0  0  0
  151.4848  144.6772  159.9841 C   0  0  0  0  0  0  0  0  0  0  0  0
  150.4583  143.7993  159.8042 O   0  0  0  0  0  0  0  0  0  0  0  0
  147.5213  139.2045  155.5179 C   0  0  0  0  0  0  0  0  0  0  0  0
  147.7848  138.7566  152.7153 H   0  0  0  0  0  0  0  0  0  0  0  0
  146.8464  139.6360  151.5077 H   0  0  0  0  0  0  0  0  0  0  0  0
  146.0788  138.3798  152.4709 H   0  0  0  0  0  0  0  0  0  0  0  0
  145.5511  138.7967  154.7892 H   0  0  0  0  0  0  0  0  0  0  0  0
  144.3882  140.7756  155.2750 H   0  0  0  0  0  0  0  0  0  0  0  0
  145.2612  140.3654  156.7227 H   0  0  0  0  0  0  0  0  0  0  0  0
  145.2523  142.8466  156.0183 H   0  0  0  0  0  0  0  0  0  0  0  0
  146.7907  142.2035  156.4309 H   0  0  0  0  0  0  0  0  0  0  0  0
  145.6807  142.8384  153.6914 H   0  0  0  0  0  0  0  0  0  0  0  0
  147.1656  143.4186  154.3885 H   0  0  0  0  0  0  0  0  0  0  0  0
  147.4162  141.7560  152.5345 H   0  0  0  0  0  0  0  0  0  0  0  0
  149.2211  140.5230  153.3338 H   0  0  0  0  0  0  0  0  0  0  0  0
  149.2618  141.9792  154.2537 H   0  0  0  0  0  0  0  0  0  0  0  0
  149.6069  139.5520  155.3174 H   0  0  0  0  0  0  0  0  0  0  0  0
  148.1347  140.9571  157.2685 H   0  0  0  0  0  0  0  0  0  0  0  0
  152.2575  143.4721  157.1835 H   0  0  0  0  0  0  0  0  0  0  0  0
  153.2161  145.1593  158.7158 H   0  0  0  0  0  0  0  0  0  0  0  0
  151.4924  145.2591  160.8939 H   0  0  0  0  0  0  0  0  0  0  0  0
  147.3583  138.9277  156.5606 H   0  0  0  0  0  0  0  0  0  0  0  0
  147.8081  138.2720  155.0306 H   0  0  0  0  0  0  0  0  0  0  0  0
  145.5076  140.5348  153.1964 H   0  0  0  0  0  0  0  0  0  0  0  0
  1  2  1  0  0  0  0
  1 20  1  0  0  0  0
  1 21  1  0  0  0  0
  1 22  1  0  0  0  0
  2  7  1  0  0  0  0
  2  3  1  0  0  0  0
  2 40  1  0  0  0  0
  3 19  1  0  0  0  0
  3  4  1  0  0  0  0
  3 23  1  0  0  0  0
  4  5  1  0  0  0  0
  4 24  1  0  0  0  0
  4 25  1  0  0  0  0
  5  6  1  0  0  0  0
  5 26  1  0  0  0  0
  5 27  1  0  0  0  0
  6  7  1  0  0  0  0
  6 28  1  0  0  0  0
  6 29  1  0  0  0  0
  7  8  1  0  0  0  0
  7 30  1  0  0  0  0
  8  9  1  0  0  0  0
  8 31  1  0  0  0  0
  8 32  1  0  0  0  0
  9 10  1  0  0  0  0
  9 19  1  0  0  0  0
  9 33  1  0  0  0  0
 10 34  1  0  0  0  0
 10 11  1  0  0  0  0
 11 13  1  0  0  0  0
 11 12  2  0  0  0  0
 13 14  2  0  0  0  0
 14 18  1  0  0  0  0
 14 15  1  0  0  0  0
 15 35  1  0  0  0  0
 15 16  1  0  0  0  0
 16 36  1  0  0  0  0
 16 17  2  0  0  0  0
 17 37  1  0  0  0  0
 17 18  1  0  0  0  0
 19 38  1  0  0  0  0
 19 39  1  0  0  0  0
M  CHG  1   2   1
M  END
> <s_m_source_file>
AV-unprocessed.smi

> <i_m_source_file_index>
2226

> <i_lp_mmshare_version>
43012

> <i_f3d_flags>
0

> <s_epik_input>
W0NIMl0xW0NIMl1bQ0gyXVtDQEhdKE4oW0NIM10pW0NIXTEyKVtDSDJdW0NASF0oW0NIMl0yKVtOSF1DKD1PKVtOSF1jM25bY0hdW2NIXW8z

> <s_epik_cmdline>
J2VwaWtfcHl0aG9uJywgJy1waCcsICc3LjAnLCAnLXRuJywgJzgnLCAnLW1hJywgJzIwMCcsICctbWV0YWxfYmluZGluZycsICctaW1hZScsICc8aW5maWxlLm1hZT4nLCAnLW9tYWUnLCAnPG91dGZpbGUubWFlPic=

> <r_lp_tautomer_probability>
0.107061

> <r_epik_Ionization_Penalty>
1.08307

> <r_epik_Ionization_Penalty_Charging>
1.08272

> <r_epik_Ionization_Penalty_Neutral>
0.000345913

> <r_epik_State_Penalty>
2.5744

> <r_epik_Charging_Adjusted_Penalty>
3.65713

> <i_epik_Tot_Q>
1

> <i_epik_Tot_abs_Q>
1

> <r_epik_Metal_State_Penalty>
3.72133

> <b_epik_Metal_Only>
0

> <s_lp_Force_Field>
OPLS_2005

> <r_lp_Energy>
59.8055

> <b_lp_Chiralities_Consistent>
1

> <s_lp_Variant>
AV-unprocessed.smi:2226-15

> <Gold.Version>
5.8.1

> <Gold.Id.Protein>
6NUR|6NUR_protein|mol2

> <Gold.PLP.Fitness>
38.0158

> <Gold.PLP.PLP>
-32.2301

> <Gold.PLP.part.hbond>
-1.0346

> <Gold.PLP.part.metal>
0.0000

> <Gold.PLP.part.buried>
-6.0503

> <Gold.PLP.part.nonpolar>
-25.4776

> <Gold.PLP.part.repulsive>
0.3450

> <Gold.PLP.ligand.clash>
0.0000

> <Gold.PLP.ligand.torsion>
0.1331

> <Gold.PLP.Chemscore.Hbond>
2.0000

> <Gold.PLP.Chemscore.CHOScore>
0.0000

> <Gold.PLP.Chemscore.Metal>
0.0000

> <Gold.Chemscore.Hbonds>
donor molecule, donor type, donor heavy atom, donor atom, acceptor molecule, acceptor atom, score
      L1  H     2    40       P1 10175  2.00

> <Gold.PLP.Chemscore.Internal.Correction>
0.0520

> <Gold.Rescore>
     Score         DG    S(hbond)    S(metal)    S(lipo)     H(rot)  DE(clash)    DE(int)     intcor
     14.23     -14.41       0.98        0.00      70.16       1.00       0.08       0.11       ----

> <Gold.Chemscore.Fitness>
14.2286

> <Gold.Chemscore.DG>
-14.4145

> <Gold.Chemscore.ZeroCoef>
-5.4800

> <Gold.Chemscore.Hbond>
0.9838

> <Gold.Chemscore.Metal>
0.0000

> <Gold.Chemscore.Lipo>
70.1586

> <Gold.Chemscore.Internal_Hbond>
0.0000

> <Gold.Chemscore.DEClash>
0.0796

> <Gold.Chemscore.DEInternal>
0.1063

> <Gold.Chemscore.Rot>
1.0000

> <Gold.Chemscore.Internal.Correction>
   9.000000E+99

> <Gold.Chemscore.Hbonds>
donor molecule, donor type, donor heavy atom, donor atom, acceptor molecule, acceptor atom, score
      L1  H     2    40       P1 10175  0.89

> <Gold.Chemscore.Hbond.Weighted>
-3.2860

> <Gold.Chemscore.Metal.Weighted>
-0.0000

> <Gold.Chemscore.Lipo.Weighted>
-8.2086

> <Gold.Chemscore.Internal_Hbond.Weighted>
0.0000

> <Gold.Chemscore.DEClash.Weighted>
0.0796

> <Gold.Chemscore.DEInternal.Weighted>
0.1063

> <Gold.Chemscore.Rot.Weighted>
2.5600

> <Gold.Chemscore.Internal.Correction.Weighted>
   9.000000E+99

> <Gold.Protein.RotatedTorsions>
[ 6907 6896 6895 6894 ] final   45.31 input  -60.11 | X-H torsion
[ 7974 7965 7964 7962 ] final   30.14 input  175.53 | X-H torsion
[ 8008 7997 7996 7995 ] final  -51.31 input   59.86 | X-H torsion
[ 10167 10162 10161 10158 ] final -131.55 input  -65.29 | X-H torsion
[ 10718 10713 10712 10709 ] final  -87.93 input   66.30 | X-H torsion
[ 10763 10752 10751 10750 ] final    6.80 input  -60.55 | X-H torsion
[ 11005 11000 10999 10996 ] final -119.63 input  -57.11 | X-H torsion

> <Gold.Protein.ActiveResidues>
 VAL166  LYS551  ARG553  GLY616  TRP617  ASP618  TYR619  PRO620  LYS621  CYS622 
 ASP623  PHE694  ASN695  SER759  ASP760  ASP761  ALA762  ILE779  LEU786  VAL792 
 PHE793  MET794  SER795  GLU796  ALA797  LYS798  CYS799  TRP800  GLU811  SER814 

> <Gold.Protein.RotatedAtoms>
  152.2430  134.8210  160.0457 H   0  0  0  0  0  0  0  0  0  0  0  0  # atno 6907 bound_to 6896
  151.8918  133.3512  159.3809 H   0  0  0  0  0  0  0  0  0  0  0  0  # atno 6908 bound_to 6896
  150.7059  134.4843  159.5529 H   0  0  0  0  0  0  0  0  0  0  0  0  # atno 6909 bound_to 6896
  146.1629  139.6828  142.9021 H   0  0  0  0  0  0  0  0  0  0  0  0  # atno 7974 bound_to 7965
  154.4080  140.1251  156.4807 H   0  0  0  0  0  0  0  0  0  0  0  0  # atno 8008 bound_to 7997
  155.7087  140.3494  155.4945 H   0  0  0  0  0  0  0  0  0  0  0  0  # atno 8009 bound_to 7997
  155.9320  140.1071  157.1115 H   0  0  0  0  0  0  0  0  0  0  0  0  # atno 8010 bound_to 7997
  139.9177  143.6419  152.2561 H   0  0  0  0  0  0  0  0  0  0  0  0  # atno 10167 bound_to 10162
  155.9984  130.4817  150.4941 H   0  0  0  0  0  0  0  0  0  0  0  0  # atno 10718 bound_to 10713
  153.2435  135.6906  153.7756 H   0  0  0  0  0  0  0  0  0  0  0  0  # atno 10763 bound_to 10752
  153.6877  135.3318  155.3195 H   0  0  0  0  0  0  0  0  0  0  0  0  # atno 10764 bound_to 10752
  154.8365  135.4537  154.1366 H   0  0  0  0  0  0  0  0  0  0  0  0  # atno 10765 bound_to 10752
  141.0201  134.0136  157.3294 H   0  0  0  0  0  0  0  0  0  0  0  0  # atno 11005 bound_to 11000
  145.4541  141.0430  143.2788 LP  0  0  0  0  0  0  0  0  0  0  0  0  # atno 17320 bound_to 7965
  144.8052  139.6064  143.7054 LP  0  0  0  0  0  0  0  0  0  0  0  0  # atno 17321 bound_to 7965
  139.6888  144.7649  151.1476 LP  0  0  0  0  0  0  0  0  0  0  0  0  # atno 17342 bound_to 10162
  140.7670  143.5619  150.9090 LP  0  0  0  0  0  0  0  0  0  0  0  0  # atno 17343 bound_to 10162
  157.2933  131.0630  151.2119 LP  0  0  0  0  0  0  0  0  0  0  0  0  # atno 17370 bound_to 10713
  157.3124  130.6896  149.6223 LP  0  0  0  0  0  0  0  0  0  0  0  0  # atno 17371 bound_to 10713
  139.9141  135.0194  156.7811 LP  0  0  0  0  0  0  0  0  0  0  0  0  # atno 17394 bound_to 11000
  140.6587  133.9665  155.7793 LP  0  0  0  0  0  0  0  0  0  0  0  0  # atno 17395 bound_to 11000

$$$$
