AV-unprocessed.smi:3147|AV-procd|sdf|11988|dock8
  -GOLD-   2272017393D 1   1.00000     0.00000
 Structure written by MMmdl.
 37 38  0  0  0  0  0  0  0  0  2 V2000
  152.0638  145.2531  158.8242 C   0  0  0  0  0  0  0  0  0  0  0  0
  151.7760  143.8505  158.4044 C   0  0  0  0  0  0  0  0  0  0  0  0
  150.7567  143.5511  157.5392 N   0  3  0  0  0  0  0  0  0  0  0  0
  150.7010  142.2377  157.3155 C   0  0  0  0  0  0  0  0  0  0  0  0
  151.6816  141.6818  158.0352 N   0  0  0  0  0  0  0  0  0  0  0  0
  151.9248  140.2308  158.0196 C   0  0  0  0  0  0  0  0  0  0  0  0
  152.0140  139.6589  156.5996 C   0  0  0  0  0  0  0  0  0  0  0  0
  153.0165  139.8362  155.9059 O   0  0  0  0  0  0  0  0  0  0  0  0
  150.9440  138.9687  156.1787 N   0  0  0  0  0  0  0  0  0  0  0  0
  150.8075  138.3546  154.8627 C   0  0  0  0  0  0  0  0  0  0  0  0
  149.6777  139.0051  154.0465 C   0  0  1  0  0  0  0  0  0  0  0  0
  148.2786  138.5859  154.4905 C   0  0  0  0  0  0  0  0  0  0  0  0
  147.4417  139.7307  153.9670 C   0  0  0  0  0  0  0  0  0  0  0  0
  148.3580  140.9303  154.1984 C   0  0  0  0  0  0  0  0  0  0  0  0
  149.6902  140.4211  154.2040 O   0  0  0  0  0  0  0  0  0  0  0  0
  152.3742  142.6525  158.7247 C   0  0  0  0  0  0  0  0  0  0  0  0
  153.5351  142.3420  159.6141 C   0  0  0  0  0  0  0  0  0  0  0  0
  152.9167  145.2880  159.5016 H   0  0  0  0  0  0  0  0  0  0  0  0
  151.1997  145.6780  159.3354 H   0  0  0  0  0  0  0  0  0  0  0  0
  152.2908  145.8674  157.9525 H   0  0  0  0  0  0  0  0  0  0  0  0
  150.0037  141.7270  156.6755 H   0  0  0  0  0  0  0  0  0  0  0  0
  152.8502  140.0278  158.5594 H   0  0  0  0  0  0  0  0  0  0  0  0
  151.1179  139.7414  158.5677 H   0  0  0  0  0  0  0  0  0  0  0  0
  150.1612  138.8698  156.8090 H   0  0  0  0  0  0  0  0  0  0  0  0
  151.7530  138.4260  154.3226 H   0  0  0  0  0  0  0  0  0  0  0  0
  150.6085  137.2911  154.9983 H   0  0  0  0  0  0  0  0  0  0  0  0
  149.7920  138.7812  152.9846 H   0  0  0  0  0  0  0  0  0  0  0  0
  147.9774  137.6174  154.0904 H   0  0  0  0  0  0  0  0  0  0  0  0
  148.2148  138.5430  155.5787 H   0  0  0  0  0  0  0  0  0  0  0  0
  147.2574  139.5994  152.9000 H   0  0  0  0  0  0  0  0  0  0  0  0
  146.4792  139.8253  154.4703 H   0  0  0  0  0  0  0  0  0  0  0  0
  148.2297  141.6967  153.4333 H   0  0  0  0  0  0  0  0  0  0  0  0
  148.1574  141.3850  155.1689 H   0  0  0  0  0  0  0  0  0  0  0  0
  154.0442  143.2557  159.9188 H   0  0  0  0  0  0  0  0  0  0  0  0
  154.2548  141.7098  159.0936 H   0  0  0  0  0  0  0  0  0  0  0  0
  153.1945  141.8212  160.5089 H   0  0  0  0  0  0  0  0  0  0  0  0
  150.1327  144.2304  157.1221 H   0  0  0  0  0  0  0  0  0  0  0  0
  1  2  1  0  0  0  0
  1 18  1  0  0  0  0
  1 19  1  0  0  0  0
  1 20  1  0  0  0  0
  2 16  2  0  0  0  0
  2  3  1  0  0  0  0
  3  4  2  0  0  0  0
  3 37  1  0  0  0  0
  4  5  1  0  0  0  0
  4 21  1  0  0  0  0
  5  6  1  0  0  0  0
  5 16  1  0  0  0  0
  6  7  1  0  0  0  0
  6 22  1  0  0  0  0
  6 23  1  0  0  0  0
  7  8  2  0  0  0  0
  7  9  1  0  0  0  0
  9 10  1  0  0  0  0
  9 24  1  0  0  0  0
 10 11  1  0  0  0  0
 10 25  1  0  0  0  0
 10 26  1  0  0  0  0
 11 15  1  0  0  0  0
 11 12  1  0  0  0  0
 11 27  1  0  0  0  0
 12 13  1  0  0  0  0
 12 28  1  0  0  0  0
 12 29  1  0  0  0  0
 13 14  1  0  0  0  0
 13 30  1  0  0  0  0
 13 31  1  0  0  0  0
 14 15  1  0  0  0  0
 14 32  1  0  0  0  0
 14 33  1  0  0  0  0
 16 17  1  0  0  0  0
 17 34  1  0  0  0  0
 17 35  1  0  0  0  0
 17 36  1  0  0  0  0
M  CHG  1   3   1
M  END
> <s_m_source_file>
AV-unprocessed.smi

> <i_m_source_file_index>
3147

> <i_lp_mmshare_version>
43012

> <i_f3d_flags>
0

> <s_epik_input>
W0NIM11jMW5bY0hdbihjMVtDSDNdKVtDSDJdQyg9TylbTkhdW0NIMl1bQ0BASF0yW0NIMl1bQ0gyXVtDSDJdTzI=

> <s_epik_cmdline>
J2VwaWtfcHl0aG9uJywgJy1waCcsICc3LjAnLCAnLXRuJywgJzgnLCAnLW1hJywgJzIwMCcsICctbWV0YWxfYmluZGluZycsICctaW1hZScsICc8aW5maWxlLm1hZT4nLCAnLW9tYWUnLCAnPG91dGZpbGUubWFlPic=

> <r_lp_tautomer_probability>
1

> <r_epik_Ionization_Penalty>
0.131257

> <r_epik_Ionization_Penalty_Charging>
0

> <r_epik_Ionization_Penalty_Neutral>
0.131257

> <r_epik_State_Penalty>
0.12065

> <r_epik_Charging_Adjusted_Penalty>
0.12065

> <i_epik_Tot_Q>
1

> <i_epik_Tot_abs_Q>
1

> <r_epik_Metal_State_Penalty>
0.448684

> <b_epik_Metal_Only>
0

> <s_lp_Force_Field>
OPLS_2005

> <r_lp_Energy>
19.5729

> <b_lp_Chiralities_Consistent>
1

> <s_lp_Variant>
AV-unprocessed.smi:3147-2

> <Gold.Version>
5.8.1

> <Gold.Id.Protein>
6NUR|6NUR_protein|mol2

> <Gold.PLP.Fitness>
47.5246

> <Gold.PLP.PLP>
-36.9329

> <Gold.PLP.part.hbond>
-2.8139

> <Gold.PLP.part.metal>
0.0000

> <Gold.PLP.part.buried>
-3.5822

> <Gold.PLP.part.nonpolar>
-30.8682

> <Gold.PLP.part.repulsive>
0.3693

> <Gold.PLP.ligand.clash>
0.0000

> <Gold.PLP.ligand.torsion>
0.4336

> <Gold.PLP.Chemscore.Hbond>
3.8160

> <Gold.PLP.Chemscore.CHOScore>
0.0000

> <Gold.PLP.Chemscore.Metal>
0.0000

> <Gold.Chemscore.Hbonds>
donor molecule, donor type, donor heavy atom, donor atom, acceptor molecule, acceptor atom, score
      L1  H     3    37       P1  8028  2.00
      P1  H  7989  7998       L1    15  0.62
      P1  H  7997  8008       L1     8  0.74

> <Gold.PLP.Chemscore.Internal.Correction>
0.0109

> <Gold.Rescore>
     Score         DG    S(hbond)    S(metal)    S(lipo)     H(rot)  DE(clash)    DE(int)     intcor
     19.11     -19.89       2.67        0.00      85.41       1.76       0.41       0.37       ----

> <Gold.Chemscore.Fitness>
19.1092

> <Gold.Chemscore.DG>
-19.8919

> <Gold.Chemscore.ZeroCoef>
-5.4800

> <Gold.Chemscore.Hbond>
2.6704

> <Gold.Chemscore.Metal>
0.0000

> <Gold.Chemscore.Lipo>
85.4056

> <Gold.Chemscore.Internal_Hbond>
0.0000

> <Gold.Chemscore.DEClash>
0.4104

> <Gold.Chemscore.DEInternal>
0.3724

> <Gold.Chemscore.Rot>
1.7577

> <Gold.Chemscore.Internal.Correction>
   9.000000E+99

> <Gold.Chemscore.Hbonds>
donor molecule, donor type, donor heavy atom, donor atom, acceptor molecule, acceptor atom, score
      L1  H     3    37       P1  8028  0.76
      P1  H  7989  7998       L1    15  0.19
      P1  H  7997  8008       L1     8  0.69

> <Gold.Chemscore.Hbond.Weighted>
-8.9193

> <Gold.Chemscore.Metal.Weighted>
-0.0000

> <Gold.Chemscore.Lipo.Weighted>
-9.9925

> <Gold.Chemscore.Internal_Hbond.Weighted>
0.0000

> <Gold.Chemscore.DEClash.Weighted>
0.4104

> <Gold.Chemscore.DEInternal.Weighted>
0.3724

> <Gold.Chemscore.Rot.Weighted>
4.4998

> <Gold.Chemscore.Internal.Correction.Weighted>
   9.000000E+99

> <Gold.Protein.RotatedTorsions>
[ 6907 6896 6895 6894 ] final   11.84 input  -60.11 | X-H torsion
[ 7974 7965 7964 7962 ] final  166.73 input  175.53 | X-H torsion
[ 8008 7997 7996 7995 ] final  -62.17 input   59.86 | X-H torsion
[ 10167 10162 10161 10158 ] final -141.58 input  -65.29 | X-H torsion
[ 10718 10713 10712 10709 ] final  126.41 input   66.30 | X-H torsion
[ 10763 10752 10751 10750 ] final  121.30 input  -60.55 | X-H torsion
[ 11005 11000 10999 10996 ] final  154.64 input  -57.11 | X-H torsion

> <Gold.Protein.ActiveResidues>
 VAL166  LYS551  ARG553  GLY616  TRP617  ASP618  TYR619  PRO620  LYS621  CYS622 
 ASP623  PHE694  ASN695  SER759  ASP760  ASP761  ALA762  ILE779  LEU786  VAL792 
 PHE793  MET794  SER795  GLU796  ALA797  LYS798  CYS799  TRP800  GLU811  SER814 

> <Gold.Protein.RotatedAtoms>
  151.7608  135.0810  160.0344 H   0  0  0  0  0  0  0  0  0  0  0  0  # atno 6907 bound_to 6896
  152.3354  133.6002  159.5847 H   0  0  0  0  0  0  0  0  0  0  0  0  # atno 6908 bound_to 6896
  150.7447  133.9720  159.3590 H   0  0  0  0  0  0  0  0  0  0  0  0  # atno 6909 bound_to 6896
  144.7451  139.8658  143.6385 H   0  0  0  0  0  0  0  0  0  0  0  0  # atno 7974 bound_to 7965
  154.4486  140.1002  156.6546 H   0  0  0  0  0  0  0  0  0  0  0  0  # atno 8008 bound_to 7997
  155.5360  140.3482  155.4418 H   0  0  0  0  0  0  0  0  0  0  0  0  # atno 8009 bound_to 7997
  156.0631  140.1331  156.9907 H   0  0  0  0  0  0  0  0  0  0  0  0  # atno 8010 bound_to 7997
  139.8171  143.7624  152.2665 H   0  0  0  0  0  0  0  0  0  0  0  0  # atno 10167 bound_to 10162
  157.5421  131.1096  150.8841 H   0  0  0  0  0  0  0  0  0  0  0  0  # atno 10718 bound_to 10713
  153.6120  135.3429  155.2982 H   0  0  0  0  0  0  0  0  0  0  0  0  # atno 10763 bound_to 10752
  154.8617  135.4252  154.2299 H   0  0  0  0  0  0  0  0  0  0  0  0  # atno 10764 bound_to 10752
  153.3152  135.7034  153.7152 H   0  0  0  0  0  0  0  0  0  0  0  0  # atno 10765 bound_to 10752
  140.1507  134.8676  157.2451 H   0  0  0  0  0  0  0  0  0  0  0  0  # atno 11005 bound_to 11000
  146.1315  139.4352  143.0165 LP  0  0  0  0  0  0  0  0  0  0  0  0  # atno 17320 bound_to 7965
  145.7155  141.0092  143.1430 LP  0  0  0  0  0  0  0  0  0  0  0  0  # atno 17321 bound_to 7965
  139.7791  144.7450  151.0114 LP  0  0  0  0  0  0  0  0  0  0  0  0  # atno 17342 bound_to 10162
  140.7815  143.4561  151.0343 LP  0  0  0  0  0  0  0  0  0  0  0  0  # atno 17343 bound_to 10162
  156.9391  130.5378  149.5280 LP  0  0  0  0  0  0  0  0  0  0  0  0  # atno 17370 bound_to 10713
  156.0505  130.5575  150.8979 LP  0  0  0  0  0  0  0  0  0  0  0  0  # atno 17371 bound_to 10713
  140.2608  134.3574  155.7407 LP  0  0  0  0  0  0  0  0  0  0  0  0  # atno 17394 bound_to 11000
  141.2198  133.7368  156.9076 LP  0  0  0  0  0  0  0  0  0  0  0  0  # atno 17395 bound_to 11000

$$$$
