AV-unprocessed.smi:3055|AV-procd|sdf|11642|dock9
  -GOLD-   2272017 33D 1   1.00000     0.00000
 Structure written by MMmdl.
 48 50  0  0  0  0  0  0  0  0  3 V2000
  150.2817  140.5128  154.6163 O   0  0  0  0  0  0  0  0  0  0  0  0
  149.5490  140.6567  155.5957 C   0  0  0  0  0  0  0  0  0  0  0  0
  149.8254  141.5404  156.5676 N   0  0  0  0  0  0  0  0  0  0  0  0
  150.9856  142.4224  156.5797 C   0  0  0  0  0  0  0  0  0  0  0  0
  151.7326  142.3433  157.9200 C   0  0  0  0  0  0  0  0  0  0  0  0
  151.6731  143.6019  158.6697 N   0  0  0  0  0  0  0  0  0  0  0  0
  152.0856  143.8187  159.9592 C   0  0  0  0  0  0  0  0  0  0  0  0
  151.8385  145.1396  160.2319 C   0  0  0  0  0  0  0  0  0  0  0  0
  151.2872  145.6731  159.0976 N   0  3  0  0  0  0  0  0  0  0  0  0
  151.1884  144.7367  158.1483 C   0  0  0  0  0  0  0  0  0  0  0  0
  148.4208  139.9284  155.7932 N   0  0  0  0  0  0  0  0  0  0  0  0
  147.5190  140.0202  156.9523 C   0  0  0  0  0  0  0  0  0  0  0  0
  146.2728  140.8169  156.5315 C   0  0  0  0  0  0  0  0  0  0  0  0
  145.5950  140.1785  155.3029 C   0  0  0  0  0  0  0  0  0  0  0  0
  146.5961  139.9066  154.1485 C   0  0  2  0  0  0  0  0  0  0  0  0
  145.9604  139.1628  153.0250 N   0  3  0  0  0  0  0  0  0  0  0  0
  146.7827  139.0317  151.8023 C   0  0  0  0  0  0  0  0  0  0  0  0
  146.1939  137.8426  151.0524 C   0  0  0  0  0  0  0  0  0  0  0  0
  145.8147  136.8874  152.1770 C   0  0  0  0  0  0  0  0  0  0  0  0
  145.4809  137.7986  153.3659 C   0  0  0  0  0  0  0  0  0  0  0  0
  147.8158  139.1370  154.7146 C   0  0  0  0  0  0  0  0  0  0  0  0
  149.1850  141.6081  157.3446 H   0  0  0  0  0  0  0  0  0  0  0  0
  151.6552  142.1664  155.7568 H   0  0  0  0  0  0  0  0  0  0  0  0
  150.6511  143.4468  156.4100 H   0  0  0  0  0  0  0  0  0  0  0  0
  151.2906  141.5695  158.5489 H   0  0  0  0  0  0  0  0  0  0  0  0
  152.7784  142.0706  157.7698 H   0  0  0  0  0  0  0  0  0  0  0  0
  152.5124  143.0371  160.5711 H   0  0  0  0  0  0  0  0  0  0  0  0
  152.0100  145.7241  161.1241 H   0  0  0  0  0  0  0  0  0  0  0  0
  150.7937  144.8720  157.1570 H   0  0  0  0  0  0  0  0  0  0  0  0
  147.2308  139.0154  157.2651 H   0  0  0  0  0  0  0  0  0  0  0  0
  147.9726  140.4748  157.8330 H   0  0  0  0  0  0  0  0  0  0  0  0
  145.5657  140.8734  157.3596 H   0  0  0  0  0  0  0  0  0  0  0  0
  146.5589  141.8436  156.2983 H   0  0  0  0  0  0  0  0  0  0  0  0
  145.1317  139.2386  155.6069 H   0  0  0  0  0  0  0  0  0  0  0  0
  144.7850  140.8289  154.9728 H   0  0  0  0  0  0  0  0  0  0  0  0
  146.9387  140.8675  153.7595 H   0  0  0  0  0  0  0  0  0  0  0  0
  146.7709  139.9420  151.2022 H   0  0  0  0  0  0  0  0  0  0  0  0
  147.8173  138.8158  152.0747 H   0  0  0  0  0  0  0  0  0  0  0  0
  145.3006  138.1510  150.5075 H   0  0  0  0  0  0  0  0  0  0  0  0
  146.8912  137.4031  150.3385 H   0  0  0  0  0  0  0  0  0  0  0  0
  144.9891  136.2288  151.9063 H   0  0  0  0  0  0  0  0  0  0  0  0
  146.6710  136.2591  152.4268 H   0  0  0  0  0  0  0  0  0  0  0  0
  145.9545  137.4126  154.2698 H   0  0  0  0  0  0  0  0  0  0  0  0
  144.4059  137.8354  153.5452 H   0  0  0  0  0  0  0  0  0  0  0  0
  148.5413  138.9050  153.9344 H   0  0  0  0  0  0  0  0  0  0  0  0
  147.4999  138.1694  155.1078 H   0  0  0  0  0  0  0  0  0  0  0  0
  145.1404  139.6844  152.7496 H   0  0  0  0  0  0  0  0  0  0  0  0
  150.9983  146.6373  158.9895 H   0  0  0  0  0  0  0  0  0  0  0  0
  1  2  2  0  0  0  0
  2  3  1  0  0  0  0
  2 11  1  0  0  0  0
  3  4  1  0  0  0  0
  3 22  1  0  0  0  0
  4  5  1  0  0  0  0
  4 23  1  0  0  0  0
  4 24  1  0  0  0  0
  5  6  1  0  0  0  0
  5 25  1  0  0  0  0
  5 26  1  0  0  0  0
  6 10  1  0  0  0  0
  6  7  1  0  0  0  0
  7  8  2  0  0  0  0
  7 27  1  0  0  0  0
  8  9  1  0  0  0  0
  8 28  1  0  0  0  0
  9 10  2  0  0  0  0
  9 48  1  0  0  0  0
 10 29  1  0  0  0  0
 11 21  1  0  0  0  0
 11 12  1  0  0  0  0
 12 13  1  0  0  0  0
 12 30  1  0  0  0  0
 12 31  1  0  0  0  0
 13 14  1  0  0  0  0
 13 32  1  0  0  0  0
 13 33  1  0  0  0  0
 14 15  1  0  0  0  0
 14 34  1  0  0  0  0
 14 35  1  0  0  0  0
 15 16  1  0  0  0  0
 15 21  1  0  0  0  0
 15 36  1  0  0  0  0
 16 20  1  0  0  0  0
 16 17  1  0  0  0  0
 16 47  1  0  0  0  0
 17 18  1  0  0  0  0
 17 37  1  0  0  0  0
 17 38  1  0  0  0  0
 18 19  1  0  0  0  0
 18 39  1  0  0  0  0
 18 40  1  0  0  0  0
 19 20  1  0  0  0  0
 19 41  1  0  0  0  0
 19 42  1  0  0  0  0
 20 43  1  0  0  0  0
 20 44  1  0  0  0  0
 21 45  1  0  0  0  0
 21 46  1  0  0  0  0
M  CHG  1   9   1
M  CHG  1  16   1
M  END
> <s_m_source_file>
AV-unprocessed.smi

> <i_m_source_file_index>
3055

> <i_lp_mmshare_version>
43012

> <i_f3d_flags>
0

> <s_epik_input>
W2NIXTFuW2NIXVtjSF1uMVtDSDJdW0NIMl1bTkhdQyg9TylOMltDSDJdW0NIMl1bQ0gyXVtDQEhdKFtDSDJdMilOM1tDSDJdW0NIMl1bQ0gyXVtDSDJdMw==

> <s_epik_cmdline>
J2VwaWtfcHl0aG9uJywgJy1waCcsICc3LjAnLCAnLXRuJywgJzgnLCAnLW1hJywgJzIwMCcsICctbWV0YWxfYmluZGluZycsICctaW1hZScsICc8aW5maWxlLm1hZT4nLCAnLW9tYWUnLCAnPG91dGZpbGUubWFlPic=

> <r_lp_tautomer_probability>
1

> <r_epik_Ionization_Penalty>
0.259176

> <r_epik_Ionization_Penalty_Charging>
0.00125522

> <r_epik_Ionization_Penalty_Neutral>
0.257921

> <r_epik_State_Penalty>
0.249312

> <r_epik_Charging_Adjusted_Penalty>
0.250567

> <i_epik_Tot_Q>
2

> <i_epik_Tot_abs_Q>
2

> <r_epik_Metal_State_Penalty>
0.53666

> <b_epik_Metal_Only>
0

> <s_lp_Force_Field>
OPLS_2005

> <r_lp_Energy>
60.4865

> <b_lp_Chiralities_Consistent>
1

> <s_lp_Variant>
AV-unprocessed.smi:3055-2

> <Gold.Version>
5.8.1

> <Gold.Id.Protein>
6NUR|6NUR_protein|mol2

> <Gold.PLP.Fitness>
45.1823

> <Gold.PLP.PLP>
-34.2482

> <Gold.PLP.part.hbond>
-2.0000

> <Gold.PLP.part.metal>
0.0000

> <Gold.PLP.part.buried>
-0.8425

> <Gold.PLP.part.nonpolar>
-31.8376

> <Gold.PLP.part.repulsive>
0.7052

> <Gold.PLP.ligand.clash>
0.0000

> <Gold.PLP.ligand.torsion>
0.5665

> <Gold.PLP.Chemscore.Hbond>
3.0000

> <Gold.PLP.Chemscore.CHOScore>
1.0000

> <Gold.PLP.Chemscore.Metal>
0.0000

> <Gold.Chemscore.Hbonds>
donor molecule, donor type, donor heavy atom, donor atom, acceptor molecule, acceptor atom, score
      L1  H    16    47       P1 10175  2.00
      P1  H  7989  7998       L1     1  0.94
      L1  C    10    29       P1  8028  1.00

> <Gold.PLP.Chemscore.Internal.Correction>
0.0671

> <Gold.Rescore>
     Score         DG    S(hbond)    S(metal)    S(lipo)     H(rot)  DE(clash)    DE(int)     intcor
     14.49     -17.07       1.94        0.00      84.60       1.87       2.04       0.55       ----

> <Gold.Chemscore.Fitness>
14.4875

> <Gold.Chemscore.DG>
-17.0719

> <Gold.Chemscore.ZeroCoef>
-5.4800

> <Gold.Chemscore.Hbond>
1.9430

> <Gold.Chemscore.Metal>
0.0000

> <Gold.Chemscore.Lipo>
84.5961

> <Gold.Chemscore.Internal_Hbond>
0.0000

> <Gold.Chemscore.DEClash>
2.0394

> <Gold.Chemscore.DEInternal>
0.5450

> <Gold.Chemscore.Rot>
1.8732

> <Gold.Chemscore.Internal.Correction>
   9.000000E+99

> <Gold.Chemscore.Hbonds>
donor molecule, donor type, donor heavy atom, donor atom, acceptor molecule, acceptor atom, score
      L1  H    16    47       P1 10175  1.00
      P1  H  7989  7998       L1     1  0.91

> <Gold.Chemscore.Hbond.Weighted>
-6.4896

> <Gold.Chemscore.Metal.Weighted>
-0.0000

> <Gold.Chemscore.Lipo.Weighted>
-9.8977

> <Gold.Chemscore.Internal_Hbond.Weighted>
0.0000

> <Gold.Chemscore.DEClash.Weighted>
2.0394

> <Gold.Chemscore.DEInternal.Weighted>
0.5450

> <Gold.Chemscore.Rot.Weighted>
4.7954

> <Gold.Chemscore.Internal.Correction.Weighted>
   9.000000E+99

> <Gold.Protein.RotatedTorsions>
[ 6907 6896 6895 6894 ] final   45.81 input  -60.11 | X-H torsion
[ 7974 7965 7964 7962 ] final  -20.97 input  175.53 | X-H torsion
[ 8008 7997 7996 7995 ] final -164.98 input   59.86 | X-H torsion
[ 10167 10162 10161 10158 ] final  160.04 input  -65.29 | X-H torsion
[ 10718 10713 10712 10709 ] final  -74.72 input   66.30 | X-H torsion
[ 10763 10752 10751 10750 ] final   62.30 input  -60.55 | X-H torsion
[ 11005 11000 10999 10996 ] final -134.90 input  -57.11 | X-H torsion

> <Gold.Protein.ActiveResidues>
 VAL166  LYS551  ARG553  GLY616  TRP617  ASP618  TYR619  PRO620  LYS621  CYS622 
 ASP623  PHE694  ASN695  SER759  ASP760  ASP761  ALA762  ILE779  LEU786  VAL792 
 PHE793  MET794  SER795  GLU796  ALA797  LYS798  CYS799  TRP800  GLU811  SER814 

> <Gold.Protein.RotatedAtoms>
  152.2490  134.8152  160.0448 H   0  0  0  0  0  0  0  0  0  0  0  0  # atno 6907 bound_to 6896
  151.8839  133.3496  159.3783 H   0  0  0  0  0  0  0  0  0  0  0  0  # atno 6908 bound_to 6896
  150.7078  134.4918  159.5563 H   0  0  0  0  0  0  0  0  0  0  0  0  # atno 6909 bound_to 6896
  146.1759  140.4277  142.8514 H   0  0  0  0  0  0  0  0  0  0  0  0  # atno 7974 bound_to 7965
  155.8432  140.0951  157.1721 H   0  0  0  0  0  0  0  0  0  0  0  0  # atno 8008 bound_to 7997
  154.3982  140.1397  156.3816 H   0  0  0  0  0  0  0  0  0  0  0  0  # atno 8009 bound_to 7997
  155.8041  140.3452  155.5422 H   0  0  0  0  0  0  0  0  0  0  0  0  # atno 8010 bound_to 7997
  139.4837  144.4672  151.8625 H   0  0  0  0  0  0  0  0  0  0  0  0  # atno 10167 bound_to 10162
  156.0232  130.4424  150.2935 H   0  0  0  0  0  0  0  0  0  0  0  0  # atno 10718 bound_to 10713
  152.9978  135.5470  154.6171 H   0  0  0  0  0  0  0  0  0  0  0  0  # atno 10763 bound_to 10752
  154.5478  135.2824  155.1038 H   0  0  0  0  0  0  0  0  0  0  0  0  # atno 10764 bound_to 10752
  154.2290  135.6437  153.5222 H   0  0  0  0  0  0  0  0  0  0  0  0  # atno 10765 bound_to 10752
  140.8947  134.1766  157.4503 H   0  0  0  0  0  0  0  0  0  0  0  0  # atno 11005 bound_to 11000
  144.8235  140.6589  143.6337 LP  0  0  0  0  0  0  0  0  0  0  0  0  # atno 17320 bound_to 7965
  145.4214  139.1563  143.4072 LP  0  0  0  0  0  0  0  0  0  0  0  0  # atno 17321 bound_to 7965
  140.4138  144.2334  150.5888 LP  0  0  0  0  0  0  0  0  0  0  0  0  # atno 17342 bound_to 10162
  140.4940  143.2338  151.8776 LP  0  0  0  0  0  0  0  0  0  0  0  0  # atno 17343 bound_to 10162
  157.1038  131.0203  151.3075 LP  0  0  0  0  0  0  0  0  0  0  0  0  # atno 17370 bound_to 10713
  157.4758  130.7736  149.7367 LP  0  0  0  0  0  0  0  0  0  0  0  0  # atno 17371 bound_to 10713
  139.8734  134.9873  156.5363 LP  0  0  0  0  0  0  0  0  0  0  0  0  # atno 17394 bound_to 11000
  140.8303  133.8284  155.8978 LP  0  0  0  0  0  0  0  0  0  0  0  0  # atno 17395 bound_to 11000

$$$$
