AV-unprocessed.smi:2524|AV-procd|sdf|9925|dock6
  -GOLD-   2272013563D 1   1.00000     0.00000
 Structure written by MMmdl.
 36 37  0  0  0  0  0  0  0  0  3 V2000
  145.7060  135.6579  162.0633 C   0  0  0  0  0  0  0  0  0  0  0  0
  146.4919  134.6340  162.4285 C   0  0  0  0  0  0  0  0  0  0  0  0
  147.4663  133.9303  161.5074 C   0  0  0  0  0  0  0  0  0  0  0  0
  147.5059  134.5760  160.1171 C   0  0  0  0  0  0  0  0  0  0  0  0
  148.0484  136.3407  160.2199 S   0  0  0  0  0  0  0  0  0  0  0  0
  146.9963  137.1352  159.5633 O   0  0  0  0  0  0  0  0  0  0  0  0
  148.2635  136.5936  161.6527 O   0  0  0  0  0  0  0  0  0  0  0  0
  149.4581  136.3148  159.4105 N   0  5  0  0  0  0  0  0  0  0  0  0
  149.6587  137.1270  158.2163 C   0  0  0  0  0  0  0  0  0  0  0  0
  150.7956  138.1573  158.3802 C   0  0  0  0  0  0  0  0  0  0  0  0
  150.3821  139.4983  157.8181 C   0  0  0  0  0  0  0  0  0  0  0  0
  149.0145  139.8415  157.6798 C   0  0  0  0  0  0  0  0  0  0  0  0
  148.6574  141.0939  157.1407 C   0  0  0  0  0  0  0  0  0  0  0  0
  149.6198  141.9573  156.7521 N   0  3  0  0  0  0  0  0  0  0  0  0
  150.9362  141.6761  156.8545 C   0  0  0  0  0  0  0  0  0  0  0  0
  151.3501  140.4385  157.3872 C   0  0  0  0  0  0  0  0  0  0  0  0
  151.7157  138.1527  159.5929 C   0  0  0  0  0  0  0  0  0  0  0  0
  152.2579  137.7606  158.2392 C   0  0  0  0  0  0  0  0  0  0  0  0
  145.7258  136.0489  161.0567 H   0  0  0  0  0  0  0  0  0  0  0  0
  145.0307  136.1184  162.7692 H   0  0  0  0  0  0  0  0  0  0  0  0
  146.4457  134.2691  163.4442 H   0  0  0  0  0  0  0  0  0  0  0  0
  148.4632  133.9402  161.9499 H   0  0  0  0  0  0  0  0  0  0  0  0
  147.1678  132.8848  161.4269 H   0  0  0  0  0  0  0  0  0  0  0  0
  148.2012  134.0465  159.4654 H   0  0  0  0  0  0  0  0  0  0  0  0
  146.5197  134.5402  159.6551 H   0  0  0  0  0  0  0  0  0  0  0  0
  149.9001  136.5099  157.3499 H   0  0  0  0  0  0  0  0  0  0  0  0
  148.7487  137.6664  157.9517 H   0  0  0  0  0  0  0  0  0  0  0  0
  148.2456  139.1489  157.9908 H   0  0  0  0  0  0  0  0  0  0  0  0
  147.6385  141.4277  157.0096 H   0  0  0  0  0  0  0  0  0  0  0  0
  151.6141  142.4429  156.5093 H   0  0  0  0  0  0  0  0  0  0  0  0
  152.4032  140.2115  157.4696 H   0  0  0  0  0  0  0  0  0  0  0  0
  152.0355  139.1127  159.9928 H   0  0  0  0  0  0  0  0  0  0  0  0
  151.6450  137.3548  160.3309 H   0  0  0  0  0  0  0  0  0  0  0  0
  152.5290  136.7133  158.1132 H   0  0  0  0  0  0  0  0  0  0  0  0
  152.9324  138.4652  157.7565 H   0  0  0  0  0  0  0  0  0  0  0  0
  149.3408  142.8588  156.3641 H   0  0  0  0  0  0  0  0  0  0  0  0
  1  2  2  0  0  0  0
  1 19  1  0  0  0  0
  1 20  1  0  0  0  0
  2  3  1  0  0  0  0
  2 21  1  0  0  0  0
  3  4  1  0  0  0  0
  3 22  1  0  0  0  0
  3 23  1  0  0  0  0
  4  5  1  0  0  0  0
  4 24  1  0  0  0  0
  4 25  1  0  0  0  0
  5  6  2  0  0  0  0
  5  7  2  0  0  0  0
  5  8  1  0  0  0  0
  8  9  1  0  0  0  0
  9 10  1  0  0  0  0
  9 26  1  0  0  0  0
  9 27  1  0  0  0  0
 10 18  1  0  0  0  0
 10 11  1  0  0  0  0
 10 17  1  0  0  0  0
 11 16  1  0  0  0  0
 11 12  2  0  0  0  0
 12 13  1  0  0  0  0
 12 28  1  0  0  0  0
 13 14  2  0  0  0  0
 13 29  1  0  0  0  0
 14 15  1  0  0  0  0
 14 36  1  0  0  0  0
 15 16  2  0  0  0  0
 15 30  1  0  0  0  0
 16 31  1  0  0  0  0
 17 18  1  0  0  0  0
 17 32  1  0  0  0  0
 17 33  1  0  0  0  0
 18 34  1  0  0  0  0
 18 35  1  0  0  0  0
M  CHG  1   8  -1
M  CHG  1  14   1
M  END
> <s_m_source_file>
AV-unprocessed.smi

> <i_m_source_file_index>
2524

> <i_lp_mmshare_version>
43012

> <i_f3d_flags>
0

> <s_epik_input>
W0NIMl09W0NIXVtDSDJdW0NIMl1TKD1PKSg9TylbTkhdW0NIMl1DMShbQ0gyXVtDSDJdMSljMltjSF1bY0hdbltjSF1bY0hdMg==

> <s_epik_cmdline>
J2VwaWtfcHl0aG9uJywgJy1waCcsICc3LjAnLCAnLXRuJywgJzgnLCAnLW1hJywgJzIwMCcsICctbWV0YWxfYmluZGluZycsICctaW1hZScsICc8aW5maWxlLm1hZT4nLCAnLW9tYWUnLCAnPG91dGZpbGUubWFlPic=

> <r_epik_Ionization_Penalty>
7.77019

> <r_epik_Ionization_Penalty_Charging>
7.77019

> <r_epik_Ionization_Penalty_Neutral>
0

> <r_epik_State_Penalty>
8.15763

> <r_epik_Charging_Adjusted_Penalty>
15.9278

> <i_epik_Tot_Q>
0

> <i_epik_Tot_abs_Q>
2

> <r_epik_Metal_State_Penalty>
4.11642

> <b_epik_Metal_Only>
1

> <s_lp_Force_Field>
OPLS_2005

> <r_lp_Energy>
17.0566

> <b_lp_Chiralities_Consistent>
1

> <s_lp_Variant>
AV-unprocessed.smi:2524-4

> <Gold.Version>
5.8.1

> <Gold.Id.Protein>
6NUR|6NUR_protein|mol2

> <Gold.PLP.Fitness>
46.3127

> <Gold.PLP.PLP>
-29.3700

> <Gold.PLP.part.hbond>
-3.9974

> <Gold.PLP.part.metal>
0.0000

> <Gold.PLP.part.buried>
-5.1305

> <Gold.PLP.part.nonpolar>
-21.1552

> <Gold.PLP.part.repulsive>
0.0303

> <Gold.PLP.ligand.clash>
0.0000

> <Gold.PLP.ligand.torsion>
1.7584

> <Gold.PLP.Chemscore.Hbond>
6.0000

> <Gold.PLP.Chemscore.CHOScore>
0.0000

> <Gold.PLP.Chemscore.Metal>
0.0000

> <Gold.Chemscore.Hbonds>
donor molecule, donor type, donor heavy atom, donor atom, acceptor molecule, acceptor atom, score
      L1  H    14    36       P1  8028  1.95
      P1  H  6896  6909       L1     8  2.00
      P1  H  6931  6943       L1     7  1.00
      P1  H  6934  6947       L1     6  0.22

> <Gold.PLP.Chemscore.Internal.Correction>
2.4595

> <Gold.Rescore>
     Score         DG    S(hbond)    S(metal)    S(lipo)     H(rot)  DE(clash)    DE(int)     intcor
     16.50     -19.67       3.24        0.00      66.05       1.70       0.22       2.95       ----

> <Gold.Chemscore.Fitness>
16.4962

> <Gold.Chemscore.DG>
-19.6686

> <Gold.Chemscore.ZeroCoef>
-5.4800

> <Gold.Chemscore.Hbond>
3.2390

> <Gold.Chemscore.Metal>
0.0000

> <Gold.Chemscore.Lipo>
66.0486

> <Gold.Chemscore.Internal_Hbond>
0.0000

> <Gold.Chemscore.DEClash>
0.2213

> <Gold.Chemscore.DEInternal>
2.9512

> <Gold.Chemscore.Rot>
1.7020

> <Gold.Chemscore.Internal.Correction>
   9.000000E+99

> <Gold.Chemscore.Hbonds>
donor molecule, donor type, donor heavy atom, donor atom, acceptor molecule, acceptor atom, score
      L1  H    14    36       P1  8028  0.91
      P1  H  6896  6909       L1     8  0.84
      P1  H  6931  6943       L1     7  0.78
      P1  H  6934  6947       L1     6  0.04

> <Gold.Chemscore.Hbond.Weighted>
-10.8182

> <Gold.Chemscore.Metal.Weighted>
-0.0000

> <Gold.Chemscore.Lipo.Weighted>
-7.7277

> <Gold.Chemscore.Internal_Hbond.Weighted>
0.0000

> <Gold.Chemscore.DEClash.Weighted>
0.2213

> <Gold.Chemscore.DEInternal.Weighted>
2.9512

> <Gold.Chemscore.Rot.Weighted>
4.3572

> <Gold.Chemscore.Internal.Correction.Weighted>
   9.000000E+99

> <Gold.Protein.RotatedTorsions>
[ 6907 6896 6895 6894 ] final   77.92 input  -60.11 | X-H torsion
[ 7974 7965 7964 7962 ] final  -32.82 input  175.53 | X-H torsion
[ 8008 7997 7996 7995 ] final   58.68 input   59.86 | X-H torsion
[ 10167 10162 10161 10158 ] final  127.39 input  -65.29 | X-H torsion
[ 10718 10713 10712 10709 ] final  156.72 input   66.30 | X-H torsion
[ 10763 10752 10751 10750 ] final  133.13 input  -60.55 | X-H torsion
[ 11005 11000 10999 10996 ] final -164.91 input  -57.11 | X-H torsion

> <Gold.Protein.ActiveResidues>
 VAL166  LYS551  ARG553  GLY616  TRP617  ASP618  TYR619  PRO620  LYS621  CYS622 
 ASP623  PHE694  ASN695  SER759  ASP760  ASP761  ALA762  ILE779  LEU786  VAL792 
 PHE793  MET794  SER795  GLU796  ALA797  LYS798  CYS799  TRP800  GLU811  SER814 

> <Gold.Protein.RotatedAtoms>
  152.5138  134.3743  159.9328 H   0  0  0  0  0  0  0  0  0  0  0  0  # atno 6907 bound_to 6896
  151.3698  133.3853  159.2706 H   0  0  0  0  0  0  0  0  0  0  0  0  # atno 6908 bound_to 6896
  150.9587  134.8997  159.7775 H   0  0  0  0  0  0  0  0  0  0  0  0  # atno 6909 bound_to 6896
  146.0960  140.5840  142.8843 H   0  0  0  0  0  0  0  0  0  0  0  0  # atno 7974 bound_to 7965
  155.5539  140.3487  155.4475 H   0  0  0  0  0  0  0  0  0  0  0  0  # atno 8008 bound_to 7997
  156.0563  140.1329  157.0018 H   0  0  0  0  0  0  0  0  0  0  0  0  # atno 8009 bound_to 7997
  154.4458  140.0994  156.6436 H   0  0  0  0  0  0  0  0  0  0  0  0  # atno 8010 bound_to 7997
  139.5581  144.6863  151.4123 H   0  0  0  0  0  0  0  0  0  0  0  0  # atno 10167 bound_to 10162
  157.2012  131.0676  151.2024 H   0  0  0  0  0  0  0  0  0  0  0  0  # atno 10718 bound_to 10713
  153.8021  135.3140  155.3391 H   0  0  0  0  0  0  0  0  0  0  0  0  # atno 10763 bound_to 10752
  154.8085  135.4682  154.0457 H   0  0  0  0  0  0  0  0  0  0  0  0  # atno 10764 bound_to 10752
  153.1808  135.6893  153.8568 H   0  0  0  0  0  0  0  0  0  0  0  0  # atno 10765 bound_to 10752
  140.5816  134.5136  157.5179 H   0  0  0  0  0  0  0  0  0  0  0  0  # atno 11005 bound_to 11000
  144.7395  140.4904  143.6879 LP  0  0  0  0  0  0  0  0  0  0  0  0  # atno 17320 bound_to 7965
  145.5948  139.1498  143.3162 LP  0  0  0  0  0  0  0  0  0  0  0  0  # atno 17321 bound_to 7965
  140.6857  143.7979  150.7183 LP  0  0  0  0  0  0  0  0  0  0  0  0  # atno 17342 bound_to 10162
  140.1446  143.4411  152.2171 LP  0  0  0  0  0  0  0  0  0  0  0  0  # atno 17343 bound_to 10162
  157.3765  130.7208  149.6600 LP  0  0  0  0  0  0  0  0  0  0  0  0  # atno 17370 bound_to 10713
  155.9700  130.4184  150.4326 LP  0  0  0  0  0  0  0  0  0  0  0  0  # atno 17371 bound_to 10713
  139.9314  134.7956  156.0919 LP  0  0  0  0  0  0  0  0  0  0  0  0  # atno 17394 bound_to 11000
  141.0992  133.6683  156.2716 LP  0  0  0  0  0  0  0  0  0  0  0  0  # atno 17395 bound_to 11000

$$$$
