AV-unprocessed.smi:697|AV-procd|sdf|3390|dock9
  -GOLD-   22720 0373D 1   1.00000     0.00000
 Structure written by MMmdl.
 44 45  0  0  0  0  0  0  0  0  1 V2000
  149.5544  141.4260  157.4670 C   0  0  0  0  0  0  0  0  0  0  0  0
  149.6928  140.0472  157.1459 O   0  0  0  0  0  0  0  0  0  0  0  0
  150.1767  139.7198  155.8359 C   0  0  2  0  0  0  0  0  0  0  0  0
  151.5646  140.3314  155.6079 C   0  0  0  0  0  0  0  0  0  0  0  0
  149.0716  139.9427  154.7852 C   0  0  0  0  0  0  0  0  0  0  0  0
  148.5418  138.5594  155.1580 C   0  0  1  0  0  0  0  0  0  0  0  0
  148.0454  137.8118  154.0071 N   0  0  0  0  0  0  0  0  0  0  0  0
  146.8796  137.1520  153.9819 C   0  0  0  0  0  0  0  0  0  0  0  0
  146.0944  137.1331  154.9297 O   0  0  0  0  0  0  0  0  0  0  0  0
  146.7161  136.5066  152.8126 N   0  0  0  0  0  0  0  0  0  0  0  0
  145.6408  135.7093  152.3873 C   0  0  0  0  0  0  0  0  0  0  0  0
  145.7656  134.5519  151.6866 C   0  0  0  0  0  0  0  0  0  0  0  0
  144.6110  133.7687  151.2789 C   0  0  0  0  0  0  0  0  0  0  0  0
  144.7650  132.4479  150.5405 C   0  0  0  0  0  0  0  0  0  0  0  0
  144.6876  131.4122  151.3773 F   0  0  0  0  0  0  0  0  0  0  0  0
  143.7977  132.3213  149.6330 F   0  0  0  0  0  0  0  0  0  0  0  0
  145.9372  132.3876  149.9083 F   0  0  0  0  0  0  0  0  0  0  0  0
  143.4064  134.2337  151.6585 C   0  0  0  0  0  0  0  0  0  0  0  0
  143.2698  135.4212  152.3808 N   0  0  0  0  0  0  0  0  0  0  0  0
  144.3063  136.1930  152.7779 C   0  0  0  0  0  0  0  0  0  0  0  0
  144.1036  137.2231  153.4200 O   0  0  0  0  0  0  0  0  0  0  0  0
  149.9783  138.1856  155.6060 C   0  0  0  0  0  0  0  0  0  0  0  0
  150.8889  137.5401  154.5440 C   0  0  0  0  0  0  0  0  0  0  0  0
  150.0803  137.2848  156.8420 C   0  0  0  0  0  0  0  0  0  0  0  0
  142.3313  135.7075  152.6198 H   0  0  0  0  0  0  0  0  0  0  0  0
  149.0433  141.5171  158.4252 H   0  0  0  0  0  0  0  0  0  0  0  0
  148.9670  141.9683  156.7270 H   0  0  0  0  0  0  0  0  0  0  0  0
  150.5230  141.9143  157.5733 H   0  0  0  0  0  0  0  0  0  0  0  0
  151.9981  140.0118  154.6610 H   0  0  0  0  0  0  0  0  0  0  0  0
  152.2578  140.0445  156.3987 H   0  0  0  0  0  0  0  0  0  0  0  0
  151.5291  141.4198  155.5705 H   0  0  0  0  0  0  0  0  0  0  0  0
  148.3761  140.7571  154.9846 H   0  0  0  0  0  0  0  0  0  0  0  0
  149.4613  140.0027  153.7675 H   0  0  0  0  0  0  0  0  0  0  0  0
  147.8364  138.6113  155.9907 H   0  0  0  0  0  0  0  0  0  0  0  0
  148.6374  137.7766  153.1903 H   0  0  0  0  0  0  0  0  0  0  0  0
  147.4881  136.5515  152.1633 H   0  0  0  0  0  0  0  0  0  0  0  0
  146.7377  134.1690  151.4206 H   0  0  0  0  0  0  0  0  0  0  0  0
  142.4691  133.7401  151.4475 H   0  0  0  0  0  0  0  0  0  0  0  0
  150.5752  136.5224  154.3088 H   0  0  0  0  0  0  0  0  0  0  0  0
  151.9232  137.4862  154.8853 H   0  0  0  0  0  0  0  0  0  0  0  0
  150.8890  138.0968  153.6066 H   0  0  0  0  0  0  0  0  0  0  0  0
  149.8477  136.2469  156.6015 H   0  0  0  0  0  0  0  0  0  0  0  0
  149.3849  137.5852  157.6258 H   0  0  0  0  0  0  0  0  0  0  0  0
  151.0825  137.3084  157.2705 H   0  0  0  0  0  0  0  0  0  0  0  0
  1  2  1  0  0  0  0
  1 26  1  0  0  0  0
  1 27  1  0  0  0  0
  1 28  1  0  0  0  0
  2  3  1  0  0  0  0
  3 22  1  0  0  0  0
  3  4  1  0  0  0  0
  3  5  1  0  0  0  0
  4 29  1  0  0  0  0
  4 30  1  0  0  0  0
  4 31  1  0  0  0  0
  5  6  1  0  0  0  0
  5 32  1  0  0  0  0
  5 33  1  0  0  0  0
  6  7  1  0  0  0  0
  6 22  1  0  0  0  0
  6 34  1  0  0  0  0
  7  8  1  0  0  0  0
  7 35  1  0  0  0  0
  8  9  2  0  0  0  0
  8 10  1  0  0  0  0
 10 11  1  0  0  0  0
 10 36  1  0  0  0  0
 11 20  1  0  0  0  0
 11 12  2  0  0  0  0
 12 13  1  0  0  0  0
 12 37  1  0  0  0  0
 13 14  1  0  0  0  0
 13 18  2  0  0  0  0
 14 15  1  0  0  0  0
 14 16  1  0  0  0  0
 14 17  1  0  0  0  0
 18 19  1  0  0  0  0
 18 38  1  0  0  0  0
 19 25  1  0  0  0  0
 19 20  1  0  0  0  0
 20 21  2  0  0  0  0
 22 23  1  0  0  0  0
 22 24  1  0  0  0  0
 23 39  1  0  0  0  0
 23 40  1  0  0  0  0
 23 41  1  0  0  0  0
 24 42  1  0  0  0  0
 24 43  1  0  0  0  0
 24 44  1  0  0  0  0
M  END
> <s_m_source_file>
AV-unprocessed.smi

> <i_m_source_file_index>
697

> <i_lp_mmshare_version>
43012

> <i_f3d_flags>
0

> <s_epik_input>
W0NIM11PW0NAQF0xKFtDSDNdKVtDSDJdW0NASF0oQzEoW0NIM10pW0NIM10pW05IXUMoPU8pW05IXWMyW2NIXWMoQyhGKShGKUYpW2NIXVtuSF1jMj1P

> <s_epik_cmdline>
J2VwaWtfcHl0aG9uJywgJy1waCcsICc3LjAnLCAnLXRuJywgJzgnLCAnLW1hJywgJzIwMCcsICctbWV0YWxfYmluZGluZycsICctaW1hZScsICc8aW5maWxlLm1hZT4nLCAnLW9tYWUnLCAnPG91dGZpbGUubWFlPic=

> <r_lp_tautomer_probability>
1

> <r_epik_Ionization_Penalty>
0.0036482

> <r_epik_Ionization_Penalty_Charging>
0.00362828

> <r_epik_Ionization_Penalty_Neutral>
1.99208e-05

> <r_epik_State_Penalty>
-0

> <r_epik_Charging_Adjusted_Penalty>
0.00362828

> <i_epik_Tot_Q>
0

> <i_epik_Tot_abs_Q>
0

> <r_epik_Metal_State_Penalty>
0.369362

> <b_epik_Metal_Only>
0

> <s_lp_Force_Field>
OPLS_2005

> <r_lp_Energy>
34.8139

> <b_lp_Chiralities_Consistent>
1

> <s_lp_Variant>
AV-unprocessed.smi:697-2

> <Gold.Version>
5.8.1

> <Gold.Id.Protein>
6NUR|6NUR_protein|mol2

> <Gold.PLP.Fitness>
38.5612

> <Gold.PLP.PLP>
-33.6317

> <Gold.PLP.part.hbond>
-1.7153

> <Gold.PLP.part.metal>
0.0000

> <Gold.PLP.part.buried>
-3.8772

> <Gold.PLP.part.nonpolar>
-28.7705

> <Gold.PLP.part.repulsive>
0.2164

> <Gold.PLP.ligand.clash>
0.0000

> <Gold.PLP.ligand.torsion>
1.3955

> <Gold.PLP.Chemscore.Hbond>
1.5816

> <Gold.PLP.Chemscore.CHOScore>
0.8576

> <Gold.PLP.Chemscore.Metal>
0.0000

> <Gold.Chemscore.Hbonds>
donor molecule, donor type, donor heavy atom, donor atom, acceptor molecule, acceptor atom, score
      L1  H     7    35       P1  7948  0.60
      L1  H    10    36       P1  7948  0.95
      L1  C    18    38       P1 10186  0.85

> <Gold.PLP.Chemscore.Internal.Correction>
0.4029

> <Gold.Rescore>
     Score         DG    S(hbond)    S(metal)    S(lipo)     H(rot)  DE(clash)    DE(int)     intcor
      9.75     -15.65       1.84        0.00      63.11       1.31       0.16       5.74       ----

> <Gold.Chemscore.Fitness>
9.7512

> <Gold.Chemscore.DG>
-15.6499

> <Gold.Chemscore.ZeroCoef>
-5.4800

> <Gold.Chemscore.Hbond>
1.8354

> <Gold.Chemscore.Metal>
0.0000

> <Gold.Chemscore.Lipo>
63.1075

> <Gold.Chemscore.Internal_Hbond>
0.0000

> <Gold.Chemscore.DEClash>
0.1592

> <Gold.Chemscore.DEInternal>
5.7396

> <Gold.Chemscore.Rot>
1.3062

> <Gold.Chemscore.Internal.Correction>
   9.000000E+99

> <Gold.Chemscore.Hbonds>
donor molecule, donor type, donor heavy atom, donor atom, acceptor molecule, acceptor atom, score
      L1  H     7    35       P1  7948  0.57
      L1  H    10    36       P1  7948  0.86

> <Gold.Chemscore.Hbond.Weighted>
-6.1304

> <Gold.Chemscore.Metal.Weighted>
-0.0000

> <Gold.Chemscore.Lipo.Weighted>
-7.3836

> <Gold.Chemscore.Internal_Hbond.Weighted>
0.0000

> <Gold.Chemscore.DEClash.Weighted>
0.1592

> <Gold.Chemscore.DEInternal.Weighted>
5.7396

> <Gold.Chemscore.Rot.Weighted>
3.3440

> <Gold.Chemscore.Internal.Correction.Weighted>
   9.000000E+99

> <Gold.Protein.RotatedTorsions>
[ 6907 6896 6895 6894 ] final -167.21 input  -60.11 | X-H torsion
[ 7974 7965 7964 7962 ] final  -97.42 input  175.53 | X-H torsion
[ 8008 7997 7996 7995 ] final -102.25 input   59.86 | X-H torsion
[ 10167 10162 10161 10158 ] final   23.76 input  -65.29 | X-H torsion
[ 10718 10713 10712 10709 ] final  -74.47 input   66.30 | X-H torsion
[ 10763 10752 10751 10750 ] final  -89.19 input  -60.55 | X-H torsion
[ 11005 11000 10999 10996 ] final -111.54 input  -57.11 | X-H torsion

> <Gold.Protein.ActiveResidues>
 VAL166  LYS551  ARG553  GLY616  TRP617  ASP618  TYR619  PRO620  LYS621  CYS622 
 ASP623  PHE694  ASN695  SER759  ASP760  ASP761  ALA762  ILE779  LEU786  VAL792 
 PHE793  MET794  SER795  GLU796  ALA797  LYS798  CYS799  TRP800  GLU811  SER814 

> <Gold.Protein.RotatedAtoms>
  151.4560  133.3605  159.2801 H   0  0  0  0  0  0  0  0  0  0  0  0  # atno 6907 bound_to 6896
  150.9058  134.8475  159.7402 H   0  0  0  0  0  0  0  0  0  0  0  0  # atno 6908 bound_to 6896
  152.4905  134.4485  159.9618 H   0  0  0  0  0  0  0  0  0  0  0  0  # atno 6909 bound_to 6896
  145.3340  140.9447  143.2645 H   0  0  0  0  0  0  0  0  0  0  0  0  # atno 7974 bound_to 7965
  154.8540  140.0429  157.1623 H   0  0  0  0  0  0  0  0  0  0  0  0  # atno 8008 bound_to 7997
  154.8911  140.2986  155.5349 H   0  0  0  0  0  0  0  0  0  0  0  0  # atno 8009 bound_to 7997
  156.2997  140.2393  156.3927 H   0  0  0  0  0  0  0  0  0  0  0  0  # atno 8010 bound_to 7997
  140.5243  143.9950  150.6432 H   0  0  0  0  0  0  0  0  0  0  0  0  # atno 10167 bound_to 10162
  156.0241  130.4418  150.2897 H   0  0  0  0  0  0  0  0  0  0  0  0  # atno 10718 bound_to 10713
  154.6526  135.5350  153.7920 H   0  0  0  0  0  0  0  0  0  0  0  0  # atno 10763 bound_to 10752
  153.0395  135.6486  154.0993 H   0  0  0  0  0  0  0  0  0  0  0  0  # atno 10764 bound_to 10752
  154.0909  135.2940  155.3251 H   0  0  0  0  0  0  0  0  0  0  0  0  # atno 10765 bound_to 10752
  141.0728  133.9351  157.2450 H   0  0  0  0  0  0  0  0  0  0  0  0  # atno 11005 bound_to 11000
  144.8842  139.4862  143.6708 LP  0  0  0  0  0  0  0  0  0  0  0  0  # atno 17320 bound_to 7965
  146.3034  139.7500  142.9074 LP  0  0  0  0  0  0  0  0  0  0  0  0  # atno 17321 bound_to 7965
  140.3307  143.3079  152.0690 LP  0  0  0  0  0  0  0  0  0  0  0  0  # atno 17342 bound_to 10162
  139.4933  144.6511  151.6674 LP  0  0  0  0  0  0  0  0  0  0  0  0  # atno 17343 bound_to 10162
  157.1000  131.0193  151.3089 LP  0  0  0  0  0  0  0  0  0  0  0  0  # atno 17370 bound_to 10713
  157.4787  130.7752  149.7393 LP  0  0  0  0  0  0  0  0  0  0  0  0  # atno 17371 bound_to 10713
  139.9541  135.0169  156.9078 LP  0  0  0  0  0  0  0  0  0  0  0  0  # atno 17394 bound_to 11000
  140.5637  134.0510  155.7407 LP  0  0  0  0  0  0  0  0  0  0  0  0  # atno 17395 bound_to 11000

$$$$
