AV-unprocessed.smi:3155|AV-procd|sdf|12026|dock8
  -GOLD-   2272017443D 1   1.00000     0.00000
 Structure written by MMmdl.
 38 39  0  0  0  0  0  0  0  0  2 V2000
  151.5688  143.6970  157.7256 C   0  0  0  0  0  0  0  0  0  0  0  0
  151.1175  142.2676  157.3666 C   0  0  1  0  0  0  0  0  0  0  0  0
  151.3398  141.2737  158.5255 C   0  0  0  0  0  0  0  0  0  0  0  0
  152.1366  141.8279  159.6052 N   0  0  0  0  0  0  0  0  0  0  0  0
  153.4068  141.4710  160.0073 C   0  0  0  0  0  0  0  0  0  0  0  0
  153.7412  142.2769  161.0575 C   0  0  0  0  0  0  0  0  0  0  0  0
  152.5998  143.1104  161.2219 C   0  0  0  0  0  0  0  0  0  0  0  0
  151.6424  142.8410  160.3489 N   0  0  0  0  0  0  0  0  0  0  0  0
  149.6926  142.2412  156.9683 N   0  3  0  0  0  0  0  0  0  0  0  0
  149.2900  141.0960  156.1218 C   0  0  0  0  0  0  0  0  0  0  0  0
  148.5631  141.5415  154.8450 C   0  0  0  0  0  0  0  0  0  0  0  0
  149.0917  141.3594  153.7472 O   0  0  0  0  0  0  0  0  0  0  0  0
  147.3543  142.1268  154.9715 N   0  0  0  0  0  0  0  0  0  0  0  0
  146.7049  142.3703  156.2582 C   0  0  0  0  0  0  0  0  0  0  0  0
  145.5074  143.2706  155.9541 C   0  0  0  0  0  0  0  0  0  0  0  0
  145.1713  142.9635  154.5014 C   0  0  0  0  0  0  0  0  0  0  0  0
  146.5175  142.6050  153.8712 C   0  0  0  0  0  0  0  0  0  0  0  0
  152.6259  143.7268  157.9906 H   0  0  0  0  0  0  0  0  0  0  0  0
  151.0045  144.0883  158.5726 H   0  0  0  0  0  0  0  0  0  0  0  0
  151.4374  144.3854  156.8914 H   0  0  0  0  0  0  0  0  0  0  0  0
  151.7055  141.9221  156.5149 H   0  0  0  0  0  0  0  0  0  0  0  0
  150.3817  140.9508  158.9356 H   0  0  0  0  0  0  0  0  0  0  0  0
  151.8419  140.3753  158.1631 H   0  0  0  0  0  0  0  0  0  0  0  0
  153.9599  140.6810  159.5208 H   0  0  0  0  0  0  0  0  0  0  0  0
  154.6622  142.2739  161.6215 H   0  0  0  0  0  0  0  0  0  0  0  0
  152.4402  143.8985  161.9433 H   0  0  0  0  0  0  0  0  0  0  0  0
  149.1387  142.1903  157.8118 H   0  0  0  0  0  0  0  0  0  0  0  0
  150.1702  140.5164  155.8445 H   0  0  0  0  0  0  0  0  0  0  0  0
  148.6284  140.4454  156.6949 H   0  0  0  0  0  0  0  0  0  0  0  0
  146.3719  141.4176  156.6727 H   0  0  0  0  0  0  0  0  0  0  0  0
  147.3783  142.8369  156.9789 H   0  0  0  0  0  0  0  0  0  0  0  0
  144.6676  143.0997  156.6285 H   0  0  0  0  0  0  0  0  0  0  0  0
  145.8026  144.3165  156.0473 H   0  0  0  0  0  0  0  0  0  0  0  0
  144.5055  142.1003  154.4571 H   0  0  0  0  0  0  0  0  0  0  0  0
  144.6751  143.7930  153.9967 H   0  0  0  0  0  0  0  0  0  0  0  0
  146.9779  143.4899  153.4296 H   0  0  0  0  0  0  0  0  0  0  0  0
  146.3926  141.8568  153.0875 H   0  0  0  0  0  0  0  0  0  0  0  0
  149.4643  143.1025  156.4925 H   0  0  0  0  0  0  0  0  0  0  0  0
  1  2  1  0  0  0  0
  1 18  1  0  0  0  0
  1 19  1  0  0  0  0
  1 20  1  0  0  0  0
  2  3  1  0  0  0  0
  2  9  1  0  0  0  0
  2 21  1  0  0  0  0
  3  4  1  0  0  0  0
  3 22  1  0  0  0  0
  3 23  1  0  0  0  0
  4  8  1  0  0  0  0
  4  5  1  0  0  0  0
  5  6  2  0  0  0  0
  5 24  1  0  0  0  0
  6  7  1  0  0  0  0
  6 25  1  0  0  0  0
  7  8  2  0  0  0  0
  7 26  1  0  0  0  0
  9 10  1  0  0  0  0
  9 27  1  0  0  0  0
  9 38  1  0  0  0  0
 10 11  1  0  0  0  0
 10 28  1  0  0  0  0
 10 29  1  0  0  0  0
 11 12  2  0  0  0  0
 11 13  1  0  0  0  0
 13 17  1  0  0  0  0
 13 14  1  0  0  0  0
 14 15  1  0  0  0  0
 14 30  1  0  0  0  0
 14 31  1  0  0  0  0
 15 16  1  0  0  0  0
 15 32  1  0  0  0  0
 15 33  1  0  0  0  0
 16 17  1  0  0  0  0
 16 34  1  0  0  0  0
 16 35  1  0  0  0  0
 17 36  1  0  0  0  0
 17 37  1  0  0  0  0
M  CHG  1   9   1
M  END
> <s_m_source_file>
AV-unprocessed.smi

> <i_m_source_file_index>
3155

> <i_lp_mmshare_version>
43012

> <i_f3d_flags>
0

> <s_epik_input>
bjFbY0hdW2NIXVtjSF1uMVtDSDJdW0NAQEhdKFtDSDNdKVtOSF1bQ0gyXUMoPU8pTjJbQ0gyXVtDSDJdW0NIMl1bQ0gyXTI=

> <s_epik_cmdline>
J2VwaWtfcHl0aG9uJywgJy1waCcsICc3LjAnLCAnLXRuJywgJzgnLCAnLW1hJywgJzIwMCcsICctbWV0YWxfYmluZGluZycsICctaW1hZScsICc8aW5maWxlLm1hZT4nLCAnLW9tYWUnLCAnPG91dGZpbGUubWFlPic=

> <r_lp_tautomer_probability>
1

> <r_epik_Ionization_Penalty>
0.120138

> <r_epik_Ionization_Penalty_Charging>
0.120135

> <r_epik_Ionization_Penalty_Neutral>
3.43791e-06

> <r_epik_State_Penalty>
0.109683

> <r_epik_Charging_Adjusted_Penalty>
0.229818

> <i_epik_Tot_Q>
1

> <i_epik_Tot_abs_Q>
1

> <r_epik_Metal_State_Penalty>
0.109693

> <b_epik_Metal_Only>
0

> <s_lp_Force_Field>
OPLS_2005

> <r_lp_Energy>
27.7776

> <b_lp_Chiralities_Consistent>
1

> <s_lp_Variant>
AV-unprocessed.smi:3155-2

> <Gold.Version>
5.8.1

> <Gold.Id.Protein>
6NUR|6NUR_protein|mol2

> <Gold.PLP.Fitness>
45.3182

> <Gold.PLP.PLP>
-39.3917

> <Gold.PLP.part.hbond>
-3.8943

> <Gold.PLP.part.metal>
0.0000

> <Gold.PLP.part.buried>
-4.8396

> <Gold.PLP.part.nonpolar>
-31.6366

> <Gold.PLP.part.repulsive>
1.7041

> <Gold.PLP.ligand.clash>
0.0000

> <Gold.PLP.ligand.torsion>
1.3231

> <Gold.PLP.Chemscore.Hbond>
2.8480

> <Gold.PLP.Chemscore.CHOScore>
0.0000

> <Gold.PLP.Chemscore.Metal>
0.0000

> <Gold.Chemscore.Hbonds>
donor molecule, donor type, donor heavy atom, donor atom, acceptor molecule, acceptor atom, score
      L1  H     9    38       P1  8028  2.00
      P1  H  8011  8017       L1    12  0.83

> <Gold.PLP.Chemscore.Internal.Correction>
0.0288

> <Gold.Rescore>
     Score         DG    S(hbond)    S(metal)    S(lipo)     H(rot)  DE(clash)    DE(int)     intcor
     13.18     -16.48       1.83        0.00      81.97       1.84       0.55       2.75       ----

> <Gold.Chemscore.Fitness>
13.1821

> <Gold.Chemscore.DG>
-16.4810

> <Gold.Chemscore.ZeroCoef>
-5.4800

> <Gold.Chemscore.Hbond>
1.8301

> <Gold.Chemscore.Metal>
0.0000

> <Gold.Chemscore.Lipo>
81.9664

> <Gold.Chemscore.Internal_Hbond>
0.0000

> <Gold.Chemscore.DEClash>
0.5464

> <Gold.Chemscore.DEInternal>
2.7524

> <Gold.Chemscore.Rot>
1.8366

> <Gold.Chemscore.Internal.Correction>
   9.000000E+99

> <Gold.Chemscore.Hbonds>
donor molecule, donor type, donor heavy atom, donor atom, acceptor molecule, acceptor atom, score
      L1  H     9    38       P1  8028  1.00
      P1  H  8011  8017       L1    12  0.81

> <Gold.Chemscore.Hbond.Weighted>
-6.1125

> <Gold.Chemscore.Metal.Weighted>
-0.0000

> <Gold.Chemscore.Lipo.Weighted>
-9.5901

> <Gold.Chemscore.Internal_Hbond.Weighted>
0.0000

> <Gold.Chemscore.DEClash.Weighted>
0.5464

> <Gold.Chemscore.DEInternal.Weighted>
2.7524

> <Gold.Chemscore.Rot.Weighted>
4.7017

> <Gold.Chemscore.Internal.Correction.Weighted>
   9.000000E+99

> <Gold.Protein.RotatedTorsions>
[ 6907 6896 6895 6894 ] final -156.78 input  -60.11 | X-H torsion
[ 7974 7965 7964 7962 ] final   25.62 input  175.53 | X-H torsion
[ 8008 7997 7996 7995 ] final  -35.22 input   59.86 | X-H torsion
[ 10167 10162 10161 10158 ] final  150.92 input  -65.29 | X-H torsion
[ 10718 10713 10712 10709 ] final  160.11 input   66.30 | X-H torsion
[ 10763 10752 10751 10750 ] final  102.01 input  -60.55 | X-H torsion
[ 11005 11000 10999 10996 ] final  -84.01 input  -57.11 | X-H torsion

> <Gold.Protein.ActiveResidues>
 VAL166  LYS551  ARG553  GLY616  TRP617  ASP618  TYR619  PRO620  LYS621  CYS622 
 ASP623  PHE694  ASN695  SER759  ASP760  ASP761  ALA762  ILE779  LEU786  VAL792 
 PHE793  MET794  SER795  GLU796  ALA797  LYS798  CYS799  TRP800  GLU811  SER814 

> <Gold.Protein.RotatedAtoms>
  151.2928  133.4157  159.2634 H   0  0  0  0  0  0  0  0  0  0  0  0  # atno 6907 bound_to 6896
  151.0262  134.9506  159.8097 H   0  0  0  0  0  0  0  0  0  0  0  0  # atno 6908 bound_to 6896
  152.5335  134.2890  159.9088 H   0  0  0  0  0  0  0  0  0  0  0  0  # atno 6909 bound_to 6896
  146.1879  139.7441  142.8853 H   0  0  0  0  0  0  0  0  0  0  0  0  # atno 7974 bound_to 7965
  154.4101  140.1663  156.2176 H   0  0  0  0  0  0  0  0  0  0  0  0  # atno 8008 bound_to 7997
  155.9391  140.3409  155.6289 H   0  0  0  0  0  0  0  0  0  0  0  0  # atno 8009 bound_to 7997
  155.7011  140.0745  157.2400 H   0  0  0  0  0  0  0  0  0  0  0  0  # atno 8010 bound_to 7997
  139.4845  144.5483  151.7445 H   0  0  0  0  0  0  0  0  0  0  0  0  # atno 10167 bound_to 10162
  157.1549  131.0573  151.2261 H   0  0  0  0  0  0  0  0  0  0  0  0  # atno 10718 bound_to 10713
  153.3340  135.4025  155.1518 H   0  0  0  0  0  0  0  0  0  0  0  0  # atno 10763 bound_to 10752
  154.8629  135.3617  154.5433 H   0  0  0  0  0  0  0  0  0  0  0  0  # atno 10764 bound_to 10752
  153.5873  135.7075  153.5497 H   0  0  0  0  0  0  0  0  0  0  0  0  # atno 10765 bound_to 10752
  141.1654  133.7324  156.8805 H   0  0  0  0  0  0  0  0  0  0  0  0  # atno 11005 bound_to 11000
  145.3882  141.0368  143.3139 LP  0  0  0  0  0  0  0  0  0  0  0  0  # atno 17320 bound_to 7965
  144.8432  139.5439  143.6891 LP  0  0  0  0  0  0  0  0  0  0  0  0  # atno 17321 bound_to 7965
  140.5033  144.1136  150.5976 LP  0  0  0  0  0  0  0  0  0  0  0  0  # atno 17342 bound_to 10162
  140.4036  143.2691  151.9918 LP  0  0  0  0  0  0  0  0  0  0  0  0  # atno 17343 bound_to 10162
  157.4186  130.7425  149.6895 LP  0  0  0  0  0  0  0  0  0  0  0  0  # atno 17370 bound_to 10713
  155.9764  130.4076  150.3783 LP  0  0  0  0  0  0  0  0  0  0  0  0  # atno 17371 bound_to 10713
  140.1718  134.9094  157.2842 LP  0  0  0  0  0  0  0  0  0  0  0  0  # atno 17394 bound_to 11000
  140.2493  134.3702  155.7448 LP  0  0  0  0  0  0  0  0  0  0  0  0  # atno 17395 bound_to 11000

$$$$
