AV-unprocessed.smi:2975|AV-procd|sdf|11355|dock5
  -GOLD-   2272016273D 1   1.00000     0.00000
 Structure written by MMmdl.
 39 41  0  0  0  0  0  0  0  0  1 V2000
  152.9827  138.3327  154.5189 C   0  0  0  0  0  0  0  0  0  0  0  0
  151.6304  137.7302  154.9216 C   0  0  2  0  0  0  0  0  0  0  0  0
  151.4561  136.5231  154.2068 O   0  0  0  0  0  0  0  0  0  0  0  0
  150.4986  138.6967  154.6987 C   0  0  0  0  0  0  0  0  0  0  0  0
  149.3962  138.3587  154.0258 N   0  0  0  0  0  0  0  0  0  0  0  0
  148.6499  139.5198  154.0537 C   0  0  0  0  0  0  0  0  0  0  0  0
  147.3722  139.8034  153.5208 C   0  0  0  0  0  0  0  0  0  0  0  0
  146.8007  141.0827  153.6803 C   0  0  0  0  0  0  0  0  0  0  0  0
  147.4972  142.0943  154.3726 C   0  0  0  0  0  0  0  0  0  0  0  0
  148.7724  141.8329  154.9096 C   0  0  0  0  0  0  0  0  0  0  0  0
  149.3383  140.5542  154.7476 C   0  0  0  0  0  0  0  0  0  0  0  0
  150.5426  139.9799  155.1413 N   0  0  0  0  0  0  0  0  0  0  0  0
  151.6035  140.6453  155.8809 C   0  0  0  0  0  0  0  0  0  0  0  0
  151.0393  141.6500  156.8925 C   0  0  0  0  0  0  0  0  0  0  0  0
  151.8721  141.6487  158.0428 O   0  0  0  0  0  0  0  0  0  0  0  0
  151.8357  142.7462  158.8766 C   0  0  0  0  0  0  0  0  0  0  0  0
  151.2291  143.9829  158.5374 C   0  0  0  0  0  0  0  0  0  0  0  0
  151.2376  145.0556  159.4500 C   0  0  0  0  0  0  0  0  0  0  0  0
  151.8493  144.9084  160.7085 C   0  0  0  0  0  0  0  0  0  0  0  0
  152.4538  143.6857  161.0538 C   0  0  0  0  0  0  0  0  0  0  0  0
  152.4464  142.6124  160.1421 C   0  0  0  0  0  0  0  0  0  0  0  0
  153.0315  141.4403  160.4870 F   0  0  0  0  0  0  0  0  0  0  0  0
  153.1892  139.2426  155.0829 H   0  0  0  0  0  0  0  0  0  0  0  0
  153.0030  138.5878  153.4586 H   0  0  0  0  0  0  0  0  0  0  0  0
  153.7985  137.6348  154.7097 H   0  0  0  0  0  0  0  0  0  0  0  0
  151.6646  137.4513  155.9740 H   0  0  0  0  0  0  0  0  0  0  0  0
  151.3387  136.7316  153.2927 H   0  0  0  0  0  0  0  0  0  0  0  0
  146.8304  139.0347  152.9899 H   0  0  0  0  0  0  0  0  0  0  0  0
  145.8229  141.2883  153.2699 H   0  0  0  0  0  0  0  0  0  0  0  0
  147.0517  143.0712  154.4912 H   0  0  0  0  0  0  0  0  0  0  0  0
  149.3079  142.6056  155.4408 H   0  0  0  0  0  0  0  0  0  0  0  0
  152.2231  139.8990  156.3783 H   0  0  0  0  0  0  0  0  0  0  0  0
  152.2564  141.1558  155.1720 H   0  0  0  0  0  0  0  0  0  0  0  0
  151.0121  142.6449  156.4446 H   0  0  0  0  0  0  0  0  0  0  0  0
  150.0207  141.3709  157.1666 H   0  0  0  0  0  0  0  0  0  0  0  0
  150.7508  144.1353  157.5821 H   0  0  0  0  0  0  0  0  0  0  0  0
  150.7736  145.9935  159.1824 H   0  0  0  0  0  0  0  0  0  0  0  0
  151.8551  145.7319  161.4074 H   0  0  0  0  0  0  0  0  0  0  0  0
  152.9240  143.5700  162.0194 H   0  0  0  0  0  0  0  0  0  0  0  0
  1  2  1  0  0  0  0
  1 23  1  0  0  0  0
  1 24  1  0  0  0  0
  1 25  1  0  0  0  0
  2  3  1  0  0  0  0
  2  4  1  0  0  0  0
  2 26  1  0  0  0  0
  3 27  1  0  0  0  0
  4 12  1  0  0  0  0
  4  5  2  0  0  0  0
  5  6  1  0  0  0  0
  6 11  2  0  0  0  0
  6  7  1  0  0  0  0
  7  8  2  0  0  0  0
  7 28  1  0  0  0  0
  8  9  1  0  0  0  0
  8 29  1  0  0  0  0
  9 10  2  0  0  0  0
  9 30  1  0  0  0  0
 10 11  1  0  0  0  0
 10 31  1  0  0  0  0
 11 12  1  0  0  0  0
 12 13  1  0  0  0  0
 13 14  1  0  0  0  0
 13 32  1  0  0  0  0
 13 33  1  0  0  0  0
 14 15  1  0  0  0  0
 14 34  1  0  0  0  0
 14 35  1  0  0  0  0
 15 16  1  0  0  0  0
 16 21  1  0  0  0  0
 16 17  2  0  0  0  0
 17 18  1  0  0  0  0
 17 36  1  0  0  0  0
 18 19  2  0  0  0  0
 18 37  1  0  0  0  0
 19 20  1  0  0  0  0
 19 38  1  0  0  0  0
 20 21  2  0  0  0  0
 20 39  1  0  0  0  0
 21 22  1  0  0  0  0
M  END
> <s_m_source_file>
AV-unprocessed.smi

> <i_m_source_file_index>
2975

> <i_lp_mmshare_version>
43012

> <i_f3d_flags>
0

> <s_epik_input>
W2NIXTFbY0hdW2NIXVtjSF1jKGMxMiluKGMobjIpW0NASF0oW0NIM10pW09IXSlbQ0gyXVtDSDJdT2MzW2NIXVtjSF1bY0hdW2NIXWMzRg==

> <s_epik_cmdline>
J2VwaWtfcHl0aG9uJywgJy1waCcsICc3LjAnLCAnLXRuJywgJzgnLCAnLW1hJywgJzIwMCcsICctbWV0YWxfYmluZGluZycsICctaW1hZScsICc8aW5maWxlLm1hZT4nLCAnLW9tYWUnLCAnPG91dGZpbGUubWFlPic=

> <r_lp_tautomer_probability>
1

> <r_epik_Ionization_Penalty>
0.0404035

> <r_epik_Ionization_Penalty_Charging>
0

> <r_epik_Ionization_Penalty_Neutral>
0.0404035

> <r_epik_State_Penalty>
0.0340039

> <r_epik_Charging_Adjusted_Penalty>
0.0340039

> <i_epik_Tot_Q>
0

> <i_epik_Tot_abs_Q>
0

> <r_epik_Metal_State_Penalty>
3.49976e-05

> <b_epik_Metal_Only>
0

> <s_lp_Force_Field>
OPLS_2005

> <r_lp_Energy>
15.721

> <b_lp_Chiralities_Consistent>
1

> <s_lp_Variant>
AV-unprocessed.smi:2975-1

> <Gold.Version>
5.8.1

> <Gold.Id.Protein>
6NUR|6NUR_protein|mol2

> <Gold.PLP.Fitness>
58.9823

> <Gold.PLP.PLP>
-55.0261

> <Gold.PLP.part.hbond>
-2.0000

> <Gold.PLP.part.metal>
0.0000

> <Gold.PLP.part.buried>
-0.0971

> <Gold.PLP.part.nonpolar>
-51.7307

> <Gold.PLP.part.repulsive>
0.7029

> <Gold.PLP.ligand.clash>
0.0000

> <Gold.PLP.ligand.torsion>
0.9958

> <Gold.PLP.Chemscore.Hbond>
1.9760

> <Gold.PLP.Chemscore.CHOScore>
0.0000

> <Gold.PLP.Chemscore.Metal>
0.0000

> <Gold.Chemscore.Hbonds>
donor molecule, donor type, donor heavy atom, donor atom, acceptor molecule, acceptor atom, score
      L1  H     3    27       P1  7949  0.90
      P1  H 10752 10763       L1     3  1.00

> <Gold.PLP.Chemscore.Internal.Correction>
0.0198

> <Gold.Rescore>
     Score         DG    S(hbond)    S(metal)    S(lipo)     H(rot)  DE(clash)    DE(int)     intcor
     16.10     -18.33       0.98        0.00     130.10       2.21       0.37       1.85       ----

> <Gold.Chemscore.Fitness>
16.1006

> <Gold.Chemscore.DG>
-18.3253

> <Gold.Chemscore.ZeroCoef>
-5.4800

> <Gold.Chemscore.Hbond>
0.9792

> <Gold.Chemscore.Metal>
0.0000

> <Gold.Chemscore.Lipo>
130.1024

> <Gold.Chemscore.Internal_Hbond>
0.0000

> <Gold.Chemscore.DEClash>
0.3735

> <Gold.Chemscore.DEInternal>
1.8512

> <Gold.Chemscore.Rot>
2.2060

> <Gold.Chemscore.Internal.Correction>
   9.000000E+99

> <Gold.Chemscore.Hbonds>
donor molecule, donor type, donor heavy atom, donor atom, acceptor molecule, acceptor atom, score
      L1  H     3    27       P1  7949  0.65
      P1  H 10752 10763       L1     3  0.29

> <Gold.Chemscore.Hbond.Weighted>
-3.2707

> <Gold.Chemscore.Metal.Weighted>
-0.0000

> <Gold.Chemscore.Lipo.Weighted>
-15.2220

> <Gold.Chemscore.Internal_Hbond.Weighted>
0.0000

> <Gold.Chemscore.DEClash.Weighted>
0.3735

> <Gold.Chemscore.DEInternal.Weighted>
1.8512

> <Gold.Chemscore.Rot.Weighted>
5.6473

> <Gold.Chemscore.Internal.Correction.Weighted>
   9.000000E+99

> <Gold.Protein.RotatedTorsions>
[ 6907 6896 6895 6894 ] final  -91.06 input  -60.11 | X-H torsion
[ 7974 7965 7964 7962 ] final  -81.39 input  175.53 | X-H torsion
[ 8008 7997 7996 7995 ] final -114.45 input   59.86 | X-H torsion
[ 10167 10162 10161 10158 ] final  -59.40 input  -65.29 | X-H torsion
[ 10718 10713 10712 10709 ] final   17.32 input   66.30 | X-H torsion
[ 10763 10752 10751 10750 ] final   39.10 input  -60.55 | X-H torsion
[ 11005 11000 10999 10996 ] final -143.30 input  -57.11 | X-H torsion

> <Gold.Protein.ActiveResidues>
 VAL166  LYS551  ARG553  GLY616  TRP617  ASP618  TYR619  PRO620  LYS621  CYS622 
 ASP623  PHE694  ASN695  SER759  ASP760  ASP761  ALA762  ILE779  LEU786  VAL792 
 PHE793  MET794  SER795  GLU796  ALA797  LYS798  CYS799  TRP800  GLU811  SER814 

> <Gold.Protein.RotatedAtoms>
  150.6888  134.2336  159.4444 H   0  0  0  0  0  0  0  0  0  0  0  0  # atno 6907 bound_to 6896
  152.0285  134.9779  160.0581 H   0  0  0  0  0  0  0  0  0  0  0  0  # atno 6908 bound_to 6896
  152.1328  133.4383  159.4766 H   0  0  0  0  0  0  0  0  0  0  0  0  # atno 6909 bound_to 6896
  145.5472  140.9501  143.1519 H   0  0  0  0  0  0  0  0  0  0  0  0  # atno 7974 bound_to 7965
  155.0365  140.0392  157.2493 H   0  0  0  0  0  0  0  0  0  0  0  0  # atno 8008 bound_to 7997
  154.7252  140.2720  155.6481 H   0  0  0  0  0  0  0  0  0  0  0  0  # atno 8009 bound_to 7997
  156.2827  140.2695  156.1936 H   0  0  0  0  0  0  0  0  0  0  0  0  # atno 8010 bound_to 7997
  140.6137  143.2395  151.5647 H   0  0  0  0  0  0  0  0  0  0  0  0  # atno 10167 bound_to 10162
  157.0804  130.6385  149.5825 H   0  0  0  0  0  0  0  0  0  0  0  0  # atno 10718 bound_to 10713
  152.9978  135.6230  154.2410 H   0  0  0  0  0  0  0  0  0  0  0  0  # atno 10763 bound_to 10752
  154.2151  135.2798  155.2946 H   0  0  0  0  0  0  0  0  0  0  0  0  # atno 10764 bound_to 10752
  154.5575  135.5715  153.7035 H   0  0  0  0  0  0  0  0  0  0  0  0  # atno 10765 bound_to 10752
  140.8138  134.2712  157.4929 H   0  0  0  0  0  0  0  0  0  0  0  0  # atno 11005 bound_to 11000
  144.7547  139.7104  143.7259 LP  0  0  0  0  0  0  0  0  0  0  0  0  # atno 17320 bound_to 7965
  146.1941  139.5197  142.9786 LP  0  0  0  0  0  0  0  0  0  0  0  0  # atno 17321 bound_to 7965
  139.5382  144.2722  152.1295 LP  0  0  0  0  0  0  0  0  0  0  0  0  # atno 17342 bound_to 10162
  140.1927  144.4736  150.6471 LP  0  0  0  0  0  0  0  0  0  0  0  0  # atno 17343 bound_to 10162
  155.9925  130.4983  150.7343 LP  0  0  0  0  0  0  0  0  0  0  0  0  # atno 17370 bound_to 10713
  157.4805  131.0902  151.0542 LP  0  0  0  0  0  0  0  0  0  0  0  0  # atno 17371 bound_to 10713
  139.8712  134.9498  156.4036 LP  0  0  0  0  0  0  0  0  0  0  0  0  # atno 17394 bound_to 11000
  140.9170  133.7672  155.9860 LP  0  0  0  0  0  0  0  0  0  0  0  0  # atno 17395 bound_to 11000

$$$$
