AV-unprocessed.smi:1076|AV-procd|sdf|4698|dock2
  -GOLD-   22720 3213D 1   1.00000     0.00000
 Structure written by MMmdl.
 45 46  0  0  0  0  0  0  0  0  2 V2000
  150.3915  141.8188  158.0887 C   0  0  0  0  0  0  0  0  0  0  0  0
  150.1855  141.1547  156.7579 C   0  0  0  0  0  0  0  0  0  0  0  0
  151.1673  140.8515  155.7722 C   0  0  0  0  0  0  0  0  0  0  0  0
  150.6577  140.2573  154.7055 N   0  0  0  0  0  0  0  0  0  0  0  0
  149.3369  140.1634  154.9707 N   0  0  0  0  0  0  0  0  0  0  0  0
  148.4503  139.5403  154.0043 C   0  0  0  0  0  0  0  0  0  0  0  0
  147.1320  140.3188  153.8135 C   0  0  1  0  0  0  0  0  0  0  0  0
  147.3616  141.8280  153.9678 C   0  0  0  0  0  0  0  0  0  0  0  0
  146.5417  140.0460  152.4841 N   0  3  0  0  0  0  0  0  0  0  0  0
  146.4028  138.6123  152.1424 C   0  0  0  0  0  0  0  0  0  0  0  0
  145.4205  137.8855  153.0822 C   0  0  0  0  0  0  0  0  0  0  0  0
  144.7982  136.6007  152.5031 C   0  0  0  0  0  0  0  0  0  0  0  0
  145.5396  135.7454  152.0162 O   0  0  0  0  0  0  0  0  0  0  0  0
  143.4540  136.4429  152.5564 N   0  0  0  0  0  0  0  0  0  0  0  0
  142.7743  135.2083  152.1553 C   0  0  0  0  0  0  0  0  0  0  0  0
  142.1369  134.5820  153.4094 C   0  0  0  0  0  0  0  0  0  0  0  0
  141.2420  135.5142  154.0127 O   0  0  0  0  0  0  0  0  0  0  0  0
  141.8691  136.7415  154.3787 C   0  0  0  0  0  0  0  0  0  0  0  0
  142.4946  137.3905  153.1315 C   0  0  0  0  0  0  0  0  0  0  0  0
  149.0240  140.6981  156.2021 C   0  0  0  0  0  0  0  0  0  0  0  0
  151.2634  142.4733  158.0836 H   0  0  0  0  0  0  0  0  0  0  0  0
  150.5433  141.0873  158.8827 H   0  0  0  0  0  0  0  0  0  0  0  0
  149.5343  142.4294  158.3726 H   0  0  0  0  0  0  0  0  0  0  0  0
  152.2301  141.0426  155.8013 H   0  0  0  0  0  0  0  0  0  0  0  0
  148.9846  139.4741  153.0555 H   0  0  0  0  0  0  0  0  0  0  0  0
  148.2499  138.5142  154.3172 H   0  0  0  0  0  0  0  0  0  0  0  0
  146.4273  140.0165  154.5905 H   0  0  0  0  0  0  0  0  0  0  0  0
  147.7794  142.0646  154.9469 H   0  0  0  0  0  0  0  0  0  0  0  0
  146.4257  142.3792  153.8691 H   0  0  0  0  0  0  0  0  0  0  0  0
  148.0516  142.2054  153.2121 H   0  0  0  0  0  0  0  0  0  0  0  0
  145.6185  140.4557  152.4563 H   0  0  0  0  0  0  0  0  0  0  0  0
  146.0429  138.5196  151.1176 H   0  0  0  0  0  0  0  0  0  0  0  0
  147.3838  138.1352  152.1705 H   0  0  0  0  0  0  0  0  0  0  0  0
  145.9412  137.6453  154.0103 H   0  0  0  0  0  0  0  0  0  0  0  0
  144.6108  138.5697  153.3385 H   0  0  0  0  0  0  0  0  0  0  0  0
  142.0057  135.4392  151.4164 H   0  0  0  0  0  0  0  0  0  0  0  0
  143.4422  134.4875  151.6819 H   0  0  0  0  0  0  0  0  0  0  0  0
  141.5824  133.6821  153.1428 H   0  0  0  0  0  0  0  0  0  0  0  0
  142.9033  134.2849  154.1271 H   0  0  0  0  0  0  0  0  0  0  0  0
  141.1217  137.4039  154.8153 H   0  0  0  0  0  0  0  0  0  0  0  0
  142.6250  136.5614  155.1447 H   0  0  0  0  0  0  0  0  0  0  0  0
  142.9264  138.3558  153.3909 H   0  0  0  0  0  0  0  0  0  0  0  0
  141.7185  137.6053  152.3953 H   0  0  0  0  0  0  0  0  0  0  0  0
  148.0116  140.7068  156.5787 H   0  0  0  0  0  0  0  0  0  0  0  0
  147.1143  140.4975  151.7849 H   0  0  0  0  0  0  0  0  0  0  0  0
  1  2  1  0  0  0  0
  1 21  1  0  0  0  0
  1 22  1  0  0  0  0
  1 23  1  0  0  0  0
  2 20  2  0  0  0  0
  2  3  1  0  0  0  0
  3  4  2  0  0  0  0
  3 24  1  0  0  0  0
  4  5  1  0  0  0  0
  5  6  1  0  0  0  0
  5 20  1  0  0  0  0
  6  7  1  0  0  0  0
  6 25  1  0  0  0  0
  6 26  1  0  0  0  0
  7  8  1  0  0  0  0
  7  9  1  0  0  0  0
  7 27  1  0  0  0  0
  8 28  1  0  0  0  0
  8 29  1  0  0  0  0
  8 30  1  0  0  0  0
  9 10  1  0  0  0  0
  9 31  1  0  0  0  0
  9 45  1  0  0  0  0
 10 11  1  0  0  0  0
 10 32  1  0  0  0  0
 10 33  1  0  0  0  0
 11 12  1  0  0  0  0
 11 34  1  0  0  0  0
 11 35  1  0  0  0  0
 12 13  2  0  0  0  0
 12 14  1  0  0  0  0
 14 19  1  0  0  0  0
 14 15  1  0  0  0  0
 15 16  1  0  0  0  0
 15 36  1  0  0  0  0
 15 37  1  0  0  0  0
 16 17  1  0  0  0  0
 16 38  1  0  0  0  0
 16 39  1  0  0  0  0
 17 18  1  0  0  0  0
 18 19  1  0  0  0  0
 18 40  1  0  0  0  0
 18 41  1  0  0  0  0
 19 42  1  0  0  0  0
 19 43  1  0  0  0  0
 20 44  1  0  0  0  0
M  CHG  1   9   1
M  END
> <s_m_source_file>
AV-unprocessed.smi

> <i_m_source_file_index>
1076

> <i_lp_mmshare_version>
43012

> <i_f3d_flags>
0

> <s_epik_input>
W0NIM11jMVtjSF1ubihbY0hdMSlbQ0gyXVtDQEhdKFtDSDNdKVtOSF1bQ0gyXVtDSDJdQyg9TylOMltDSDJdW0NIMl1PW0NIMl1bQ0gyXTI=

> <s_epik_cmdline>
J2VwaWtfcHl0aG9uJywgJy1waCcsICc3LjAnLCAnLXRuJywgJzgnLCAnLW1hJywgJzIwMCcsICctbWV0YWxfYmluZGluZycsICctaW1hZScsICc8aW5maWxlLm1hZT4nLCAnLW9tYWUnLCAnPG91dGZpbGUubWFlPic=

> <r_lp_tautomer_probability>
1

> <r_epik_Ionization_Penalty>
0.00797518

> <r_epik_Ionization_Penalty_Charging>
0.0079672

> <r_epik_Ionization_Penalty_Neutral>
7.97619e-06

> <r_epik_State_Penalty>
0.00597998

> <r_epik_Charging_Adjusted_Penalty>
0.0139472

> <i_epik_Tot_Q>
1

> <i_epik_Tot_abs_Q>
1

> <r_epik_Metal_State_Penalty>
0.00598062

> <b_epik_Metal_Only>
0

> <s_lp_Force_Field>
OPLS_2005

> <r_lp_Energy>
23.7914

> <b_lp_Chiralities_Consistent>
1

> <s_lp_Variant>
AV-unprocessed.smi:1076-2

> <Gold.Version>
5.8.1

> <Gold.Id.Protein>
6NUR|6NUR_protein|mol2

> <Gold.PLP.Fitness>
42.9901

> <Gold.PLP.PLP>
-34.3009

> <Gold.PLP.part.hbond>
-3.1700

> <Gold.PLP.part.metal>
0.0000

> <Gold.PLP.part.buried>
-5.4555

> <Gold.PLP.part.nonpolar>
-27.2679

> <Gold.PLP.part.repulsive>
0.3711

> <Gold.PLP.ligand.clash>
0.0000

> <Gold.PLP.ligand.torsion>
0.7516

> <Gold.PLP.Chemscore.Hbond>
3.3639

> <Gold.PLP.Chemscore.CHOScore>
0.0000

> <Gold.PLP.Chemscore.Metal>
0.0000

> <Gold.Chemscore.Hbonds>
donor molecule, donor type, donor heavy atom, donor atom, acceptor molecule, acceptor atom, score
      L1  H     9    31       P1 10175  2.00
      P1  H  7989  7998       L1     4  1.00
      P1  H 11000 11005       L1    17  0.34

> <Gold.PLP.Chemscore.Internal.Correction>
0.1007

> <Gold.Rescore>
     Score         DG    S(hbond)    S(metal)    S(lipo)     H(rot)  DE(clash)    DE(int)     intcor
     13.51     -14.41       1.80        0.00      68.30       1.98       0.22       0.68       ----

> <Gold.Chemscore.Fitness>
13.5069

> <Gold.Chemscore.DG>
-14.4084

> <Gold.Chemscore.ZeroCoef>
-5.4800

> <Gold.Chemscore.Hbond>
1.8012

> <Gold.Chemscore.Metal>
0.0000

> <Gold.Chemscore.Lipo>
68.2972

> <Gold.Chemscore.Internal_Hbond>
0.0000

> <Gold.Chemscore.DEClash>
0.2166

> <Gold.Chemscore.DEInternal>
0.6850

> <Gold.Chemscore.Rot>
1.9837

> <Gold.Chemscore.Internal.Correction>
   9.000000E+99

> <Gold.Chemscore.Hbonds>
donor molecule, donor type, donor heavy atom, donor atom, acceptor molecule, acceptor atom, score
      L1  H     9    31       P1 10175  0.49
      P1  H  7989  7998       L1     4  0.30
      P1  H 11000 11005       L1    17  0.14

> <Gold.Chemscore.Hbond.Weighted>
-6.0159

> <Gold.Chemscore.Metal.Weighted>
-0.0000

> <Gold.Chemscore.Lipo.Weighted>
-7.9908

> <Gold.Chemscore.Internal_Hbond.Weighted>
0.0000

> <Gold.Chemscore.DEClash.Weighted>
0.2166

> <Gold.Chemscore.DEInternal.Weighted>
0.6850

> <Gold.Chemscore.Rot.Weighted>
5.0782

> <Gold.Chemscore.Internal.Correction.Weighted>
   9.000000E+99

> <Gold.Protein.RotatedTorsions>
[ 6907 6896 6895 6894 ] final  148.36 input  -60.11 | X-H torsion
[ 7974 7965 7964 7962 ] final -153.87 input  175.53 | X-H torsion
[ 8008 7997 7996 7995 ] final  107.44 input   59.86 | X-H torsion
[ 10167 10162 10161 10158 ] final   10.48 input  -65.29 | X-H torsion
[ 10718 10713 10712 10709 ] final   97.49 input   66.30 | X-H torsion
[ 10763 10752 10751 10750 ] final -166.07 input  -60.55 | X-H torsion
[ 11005 11000 10999 10996 ] final   32.75 input  -57.11 | X-H torsion

> <Gold.Protein.ActiveResidues>
 VAL166  LYS551  ARG553  GLY616  TRP617  ASP618  TYR619  PRO620  LYS621  CYS622 
 ASP623  PHE694  ASN695  SER759  ASP760  ASP761  ALA762  ILE779  LEU786  VAL792 
 PHE793  MET794  SER795  GLU796  ALA797  LYS798  CYS799  TRP800  GLU811  SER814 

> <Gold.Protein.RotatedAtoms>
  152.1424  133.4472  159.4773 H   0  0  0  0  0  0  0  0  0  0  0  0  # atno 6907 bound_to 6896
  150.6887  134.2289  159.4435 H   0  0  0  0  0  0  0  0  0  0  0  0  # atno 6908 bound_to 6896
  152.0180  134.9838  160.0620 H   0  0  0  0  0  0  0  0  0  0  0  0  # atno 6909 bound_to 6896
  144.7718  140.4466  143.5901 H   0  0  0  0  0  0  0  0  0  0  0  0  # atno 7974 bound_to 7965
  156.1824  140.3094  155.9174 H   0  0  0  0  0  0  0  0  0  0  0  0  # atno 8008 bound_to 7997
  155.3354  140.0463  157.3060 H   0  0  0  0  0  0  0  0  0  0  0  0  # atno 8009 bound_to 7997
  154.5358  140.2245  155.8736 H   0  0  0  0  0  0  0  0  0  0  0  0  # atno 8010 bound_to 7997
  140.6191  143.8243  150.7154 H   0  0  0  0  0  0  0  0  0  0  0  0  # atno 10167 bound_to 10162
  157.6911  131.0611  150.4652 H   0  0  0  0  0  0  0  0  0  0  0  0  # atno 10718 bound_to 10713
  154.6869  135.2964  154.9535 H   0  0  0  0  0  0  0  0  0  0  0  0  # atno 10763 bound_to 10752
  154.0511  135.6644  153.4804 H   0  0  0  0  0  0  0  0  0  0  0  0  # atno 10764 bound_to 10752
  153.0585  135.5130  154.7941 H   0  0  0  0  0  0  0  0  0  0  0  0  # atno 10765 bound_to 10752
  140.2702  134.3090  155.7830 H   0  0  0  0  0  0  0  0  0  0  0  0  # atno 11005 bound_to 11000
  145.6301  139.1535  143.2974 LP  0  0  0  0  0  0  0  0  0  0  0  0  # atno 17320 bound_to 7965
  146.1870  140.6405  142.9163 LP  0  0  0  0  0  0  0  0  0  0  0  0  # atno 17321 bound_to 7965
  140.1829  143.4100  152.1920 LP  0  0  0  0  0  0  0  0  0  0  0  0  # atno 17342 bound_to 10162
  139.5424  144.7268  151.4692 LP  0  0  0  0  0  0  0  0  0  0  0  0  # atno 17343 bound_to 10162
  156.4993  130.4113  149.6362 LP  0  0  0  0  0  0  0  0  0  0  0  0  # atno 17370 bound_to 10713
  156.3343  130.7348  151.2283 LP  0  0  0  0  0  0  0  0  0  0  0  0  # atno 17371 bound_to 10713
  141.2178  133.7462  156.9323 LP  0  0  0  0  0  0  0  0  0  0  0  0  # atno 17394 bound_to 11000
  140.1380  134.9312  157.2428 LP  0  0  0  0  0  0  0  0  0  0  0  0  # atno 17395 bound_to 11000

$$$$
