AV-unprocessed.smi:176|AV-procd|sdf|1435|dock6
  -GOLD-   2262019223D 1   1.00000     0.00000
 Structure written by MMmdl.
 57 61  0  0  0  0  0  0  0  0  1 V2000
  146.1853  131.8928  151.4197 O   0  0  0  0  0  0  0  0  0  0  0  0
  145.2316  131.7425  150.3867 C   0  0  0  0  0  0  0  0  0  0  0  0
  144.4463  133.0372  150.1044 C   0  0  0  0  0  0  0  0  0  0  0  0
  143.6867  132.7656  148.7888 C   0  0  0  0  0  0  0  0  0  0  0  0
  143.4909  133.9226  148.0015 O   0  0  0  0  0  0  0  0  0  0  0  0
  143.6106  133.6048  151.2752 C   0  0  0  0  0  0  0  0  0  0  0  0
  144.1268  135.0165  150.9693 C   0  0  0  0  0  0  0  0  0  0  0  0
  144.4239  135.9469  152.0195 N   0  0  0  0  0  0  0  0  0  0  0  0
  145.6405  136.5337  152.2867 C   0  0  0  0  0  0  0  0  0  0  0  0
  145.6641  137.3159  153.3312 N   0  0  0  0  0  0  0  0  0  0  0  0
  144.3736  137.2403  153.8427 C   0  0  0  0  0  0  0  0  0  0  0  0
  143.7144  137.8228  154.9630 C   0  0  0  0  0  0  0  0  0  0  0  0
  144.3260  138.6954  155.8053 N   0  0  0  0  0  0  0  0  0  0  0  0
  143.5533  139.1944  156.9429 C   0  0  0  0  0  0  0  0  0  0  0  0
  144.4740  139.8558  157.9809 C   0  0  0  0  0  0  0  0  0  0  0  0
  145.3749  140.9485  157.3635 C   0  0  2  0  0  0  0  0  0  0  0  0
  146.3223  141.2834  158.3624 O   0  0  0  0  0  0  0  0  0  0  0  0
  144.5900  142.2370  157.0138 C   0  0  0  0  0  0  0  0  0  0  0  0
  145.4705  143.2943  156.3236 C   0  0  0  0  0  0  0  0  0  0  0  0
  146.1712  142.7214  155.0829 C   0  0  0  0  0  0  0  0  0  0  0  0
  146.9804  141.4599  155.4292 C   0  0  0  0  0  0  0  0  0  0  0  0
  146.1254  140.3798  156.1279 C   0  0  2  0  0  0  0  0  0  0  0  0
  145.1518  139.7008  155.1390 C   0  0  0  0  0  0  0  0  0  0  0  0
  142.4162  137.4738  155.1725 N   0  0  0  0  0  0  0  0  0  0  0  0
  141.8010  136.6257  154.3433 C   0  0  0  0  0  0  0  0  0  0  0  0
  142.2862  136.0208  153.2580 N   0  0  0  0  0  0  0  0  0  0  0  0
  143.5888  136.3621  153.0423 C   0  0  0  0  0  0  0  0  0  0  0  0
  145.2530  134.3540  150.1674 C   0  0  0  0  0  0  0  0  0  0  0  0
  147.0386  131.6767  151.0755 H   0  0  0  0  0  0  0  0  0  0  0  0
  145.7606  131.4086  149.4934 H   0  0  0  0  0  0  0  0  0  0  0  0
  144.5578  130.9343  150.6730 H   0  0  0  0  0  0  0  0  0  0  0  0
  144.2233  132.0388  148.1778 H   0  0  0  0  0  0  0  0  0  0  0  0
  142.7047  132.3368  148.9915 H   0  0  0  0  0  0  0  0  0  0  0  0
  144.3305  134.2130  147.6790 H   0  0  0  0  0  0  0  0  0  0  0  0
  142.5319  133.4919  151.1633 H   0  0  0  0  0  0  0  0  0  0  0  0
  143.9340  133.2475  152.2536 H   0  0  0  0  0  0  0  0  0  0  0  0
  143.4397  135.5378  150.3020 H   0  0  0  0  0  0  0  0  0  0  0  0
  146.5165  136.3685  151.6767 H   0  0  0  0  0  0  0  0  0  0  0  0
  142.8049  139.9054  156.5912 H   0  0  0  0  0  0  0  0  0  0  0  0
  143.0146  138.3726  157.4167 H   0  0  0  0  0  0  0  0  0  0  0  0
  143.8787  140.2669  158.7970 H   0  0  0  0  0  0  0  0  0  0  0  0
  145.0977  139.0774  158.4237 H   0  0  0  0  0  0  0  0  0  0  0  0
  147.0367  141.7485  157.9548 H   0  0  0  0  0  0  0  0  0  0  0  0
  143.7569  141.9984  156.3523 H   0  0  0  0  0  0  0  0  0  0  0  0
  144.1435  142.6627  157.9134 H   0  0  0  0  0  0  0  0  0  0  0  0
  144.8620  144.1536  156.0407 H   0  0  0  0  0  0  0  0  0  0  0  0
  146.2178  143.6684  157.0245 H   0  0  0  0  0  0  0  0  0  0  0  0
  145.4310  142.4924  154.3161 H   0  0  0  0  0  0  0  0  0  0  0  0
  146.8310  143.4744  154.6515 H   0  0  0  0  0  0  0  0  0  0  0  0
  147.4357  141.0512  154.5264 H   0  0  0  0  0  0  0  0  0  0  0  0
  147.8094  141.7400  156.0803 H   0  0  0  0  0  0  0  0  0  0  0  0
  146.8056  139.5993  156.4738 H   0  0  0  0  0  0  0  0  0  0  0  0
  145.7234  139.2636  154.3214 H   0  0  0  0  0  0  0  0  0  0  0  0
  144.4872  140.4368  154.6862 H   0  0  0  0  0  0  0  0  0  0  0  0
  140.7716  136.4026  154.5819 H   0  0  0  0  0  0  0  0  0  0  0  0
  146.1754  134.2750  150.7443 H   0  0  0  0  0  0  0  0  0  0  0  0
  145.4448  134.8198  149.2002 H   0  0  0  0  0  0  0  0  0  0  0  0
  1  2  1  0  0  0  0
  1 29  1  0  0  0  0
  2  3  1  0  0  0  0
  2 30  1  0  0  0  0
  2 31  1  0  0  0  0
  3 28  1  0  0  0  0
  3  4  1  0  0  0  0
  3  6  1  0  0  0  0
  4  5  1  0  0  0  0
  4 32  1  0  0  0  0
  4 33  1  0  0  0  0
  5 34  1  0  0  0  0
  6  7  1  0  0  0  0
  6 35  1  0  0  0  0
  6 36  1  0  0  0  0
  7  8  1  0  0  0  0
  7 28  1  0  0  0  0
  7 37  1  0  0  0  0
  8 27  1  0  0  0  0
  8  9  1  0  0  0  0
  9 10  2  0  0  0  0
  9 38  1  0  0  0  0
 10 11  1  0  0  0  0
 11 27  2  0  0  0  0
 11 12  1  0  0  0  0
 12 13  1  0  0  0  0
 12 24  2  0  0  0  0
 13 23  1  0  0  0  0
 13 14  1  0  0  0  0
 14 15  1  0  0  0  0
 14 39  1  0  0  0  0
 14 40  1  0  0  0  0
 15 16  1  0  0  0  0
 15 41  1  0  0  0  0
 15 42  1  0  0  0  0
 16 22  1  0  0  0  0
 16 17  1  0  0  0  0
 16 18  1  0  0  0  0
 17 43  1  0  0  0  0
 18 19  1  0  0  0  0
 18 44  1  0  0  0  0
 18 45  1  0  0  0  0
 19 20  1  0  0  0  0
 19 46  1  0  0  0  0
 19 47  1  0  0  0  0
 20 21  1  0  0  0  0
 20 48  1  0  0  0  0
 20 49  1  0  0  0  0
 21 22  1  0  0  0  0
 21 50  1  0  0  0  0
 21 51  1  0  0  0  0
 22 23  1  0  0  0  0
 22 52  1  0  0  0  0
 23 53  1  0  0  0  0
 23 54  1  0  0  0  0
 24 25  1  0  0  0  0
 25 26  2  0  0  0  0
 25 55  1  0  0  0  0
 26 27  1  0  0  0  0
 28 56  1  0  0  0  0
 28 57  1  0  0  0  0
M  END
> <s_m_source_file>
AV-unprocessed.smi

> <i_m_source_file_index>
176

> <i_lp_mmshare_version>
43012

> <i_f3d_flags>
0

> <s_epik_input>
W09IXVtDSDJdQzEoW0NIMl1bT0hdKVtDSDJdW0NIXShbQ0gyXTEpbihbY0hdbjIpYyhjMjMpbltjSF1uYzNOKFtDSDJdW0NIMl00KVtDSDJdW0NAQEhdKFtDQF00NVtPSF0pW0NIMl1bQ0gyXVtDSDJdW0NIMl01

> <s_epik_cmdline>
J2VwaWtfcHl0aG9uJywgJy1waCcsICc3LjAnLCAnLXRuJywgJzgnLCAnLW1hJywgJzIwMCcsICctbWV0YWxfYmluZGluZycsICctaW1hZScsICc8aW5maWxlLm1hZT4nLCAnLW9tYWUnLCAnPG91dGZpbGUubWFlPic=

> <r_lp_tautomer_probability>
1

> <r_epik_Ionization_Penalty>
0.00642876

> <r_epik_Ionization_Penalty_Charging>
0

> <r_epik_Ionization_Penalty_Neutral>
0.00642876

> <r_epik_State_Penalty>
0.00467813

> <r_epik_Charging_Adjusted_Penalty>
0.00467813

> <i_epik_Tot_Q>
0

> <i_epik_Tot_abs_Q>
0

> <r_epik_Metal_State_Penalty>
-0

> <b_epik_Metal_Only>
0

> <s_lp_Force_Field>
OPLS_2005

> <r_lp_Energy>
56.0126

> <b_lp_Chiralities_Consistent>
1

> <s_lp_Variant>
AV-unprocessed.smi:176-3

> <Gold.Version>
5.8.1

> <Gold.Id.Protein>
6NUR|6NUR_protein|mol2

> <Gold.PLP.Fitness>
46.9552

> <Gold.PLP.PLP>
-33.0129

> <Gold.PLP.part.hbond>
-5.9484

> <Gold.PLP.part.metal>
0.0000

> <Gold.PLP.part.buried>
-3.2857

> <Gold.PLP.part.nonpolar>
-25.4762

> <Gold.PLP.part.repulsive>
0.3626

> <Gold.PLP.ligand.clash>
0.0000

> <Gold.PLP.ligand.torsion>
1.1666

> <Gold.PLP.Chemscore.Hbond>
3.2015

> <Gold.PLP.Chemscore.CHOScore>
1.9742

> <Gold.PLP.Chemscore.Metal>
0.0000

> <Gold.Chemscore.Hbonds>
donor molecule, donor type, donor heavy atom, donor atom, acceptor molecule, acceptor atom, score
      L1  H     1    29       P1 10747  0.46
      L1  H     5    34       P1  7921  1.00
      P1  H 10192 10197       L1     5  0.81
      L1  C     9    38       P1  7948  1.00

> <Gold.PLP.Chemscore.Internal.Correction>
0.7483

> <Gold.Rescore>
     Score         DG    S(hbond)    S(metal)    S(lipo)     H(rot)  DE(clash)    DE(int)     intcor
     10.36     -13.39       2.94        0.00      64.75       3.71       1.45       1.58       ----

> <Gold.Chemscore.Fitness>
10.3616

> <Gold.Chemscore.DG>
-13.3869

> <Gold.Chemscore.ZeroCoef>
-5.4800

> <Gold.Chemscore.Hbond>
2.9433

> <Gold.Chemscore.Metal>
0.0000

> <Gold.Chemscore.Lipo>
64.7539

> <Gold.Chemscore.Internal_Hbond>
0.0000

> <Gold.Chemscore.DEClash>
1.4462

> <Gold.Chemscore.DEInternal>
1.5791

> <Gold.Chemscore.Rot>
3.7109

> <Gold.Chemscore.Internal.Correction>
   9.000000E+99

> <Gold.Chemscore.Hbonds>
donor molecule, donor type, donor heavy atom, donor atom, acceptor molecule, acceptor atom, score
      L1  H     1    29       P1 10747  0.46
      L1  H     5    34       P1  7921  1.00
      P1  H  6934  6946       L1    17  0.02
      P1  H 10192 10197       L1     5  0.53

> <Gold.Chemscore.Hbond.Weighted>
-9.8307

> <Gold.Chemscore.Metal.Weighted>
-0.0000

> <Gold.Chemscore.Lipo.Weighted>
-7.5762

> <Gold.Chemscore.Internal_Hbond.Weighted>
0.0000

> <Gold.Chemscore.DEClash.Weighted>
1.4462

> <Gold.Chemscore.DEInternal.Weighted>
1.5791

> <Gold.Chemscore.Rot.Weighted>
9.5000

> <Gold.Chemscore.Internal.Correction.Weighted>
   9.000000E+99

> <Gold.Protein.RotatedTorsions>
[ 6907 6896 6895 6894 ] final   18.80 input  -60.11 | X-H torsion
[ 7974 7965 7964 7962 ] final   13.07 input  175.53 | X-H torsion
[ 8008 7997 7996 7995 ] final -170.03 input   59.86 | X-H torsion
[ 10167 10162 10161 10158 ] final -104.10 input  -65.29 | X-H torsion
[ 10718 10713 10712 10709 ] final  -84.93 input   66.30 | X-H torsion
[ 10763 10752 10751 10750 ] final  115.74 input  -60.55 | X-H torsion
[ 11005 11000 10999 10996 ] final -131.50 input  -57.11 | X-H torsion

> <Gold.Protein.ActiveResidues>
 VAL166  LYS551  ARG553  GLY616  TRP617  ASP618  TYR619  PRO620  LYS621  CYS622 
 ASP623  PHE694  ASN695  SER759  ASP760  ASP761  ALA762  ILE779  LEU786  VAL792 
 PHE793  MET794  SER795  GLU796  ALA797  LYS798  CYS799  TRP800  GLU811  SER814 

> <Gold.Protein.RotatedAtoms>
  151.8709  135.0489  160.0478 H   0  0  0  0  0  0  0  0  0  0  0  0  # atno 6907 bound_to 6896
  152.2589  133.5275  159.5378 H   0  0  0  0  0  0  0  0  0  0  0  0  # atno 6908 bound_to 6896
  150.7109  134.0774  159.3928 H   0  0  0  0  0  0  0  0  0  0  0  0  # atno 6909 bound_to 6896
  146.2337  139.9243  142.8505 H   0  0  0  0  0  0  0  0  0  0  0  0  # atno 7974 bound_to 7965
  155.9129  140.1060  157.1266 H   0  0  0  0  0  0  0  0  0  0  0  0  # atno 8008 bound_to 7997
  154.4042  140.1271  156.4645 H   0  0  0  0  0  0  0  0  0  0  0  0  # atno 8009 bound_to 7997
  155.7289  140.3468  155.5052 H   0  0  0  0  0  0  0  0  0  0  0  0  # atno 8010 bound_to 7997
  140.2129  143.3733  152.1035 H   0  0  0  0  0  0  0  0  0  0  0  0  # atno 10167 bound_to 10162
  156.0001  130.4714  150.4485 H   0  0  0  0  0  0  0  0  0  0  0  0  # atno 10718 bound_to 10713
  153.5267  135.3586  155.2657 H   0  0  0  0  0  0  0  0  0  0  0  0  # atno 10763 bound_to 10752
  154.8730  135.4058  154.3197 H   0  0  0  0  0  0  0  0  0  0  0  0  # atno 10764 bound_to 10752
  153.3878  135.7070  153.6584 H   0  0  0  0  0  0  0  0  0  0  0  0  # atno 10765 bound_to 10752
  140.9253  134.1391  157.4280 H   0  0  0  0  0  0  0  0  0  0  0  0  # atno 11005 bound_to 11000
  145.2106  140.9894  143.4103 LP  0  0  0  0  0  0  0  0  0  0  0  0  # atno 17320 bound_to 7965
  144.9695  139.3895  143.6316 LP  0  0  0  0  0  0  0  0  0  0  0  0  # atno 17321 bound_to 7965
  139.5173  144.6990  151.5548 LP  0  0  0  0  0  0  0  0  0  0  0  0  # atno 17342 bound_to 10162
  140.6311  143.9075  150.6606 LP  0  0  0  0  0  0  0  0  0  0  0  0  # atno 17343 bound_to 10162
  157.2520  131.0548  151.2373 LP  0  0  0  0  0  0  0  0  0  0  0  0  # atno 17370 bound_to 10713
  157.3519  130.7086  149.6446 LP  0  0  0  0  0  0  0  0  0  0  0  0  # atno 17371 bound_to 10713
  139.8784  134.9986  156.5908 LP  0  0  0  0  0  0  0  0  0  0  0  0  # atno 17394 bound_to 11000
  140.7934  133.8563  155.8665 LP  0  0  0  0  0  0  0  0  0  0  0  0  # atno 17395 bound_to 11000

$$$$
