AV-unprocessed.smi:702|AV-procd|sdf|3423|dock2
  -GOLD-   22720 0403D 1   1.00000     0.00000
 Structure written by MMmdl.
 50 52  0  0  0  0  0  0  0  0  2 V2000
  145.4277  138.5651  154.3642 C   0  0  0  0  0  0  0  0  0  0  0  0
  146.7756  137.8188  154.4105 C   0  0  1  0  0  0  0  0  0  0  0  0
  146.8153  136.8638  153.2963 N   0  0  0  0  0  0  0  0  0  0  0  0
  145.9066  135.9172  153.0173 C   0  0  0  0  0  0  0  0  0  0  0  0
  144.8826  135.7347  153.6745 O   0  0  0  0  0  0  0  0  0  0  0  0
  146.2816  135.1907  151.9503 N   0  0  0  0  0  0  0  0  0  0  0  0
  145.6212  134.0788  151.3614 C   0  0  0  0  0  0  0  0  0  0  0  0
  144.2562  133.8896  151.6721 C   0  0  0  0  0  0  0  0  0  0  0  0
  143.5631  132.7919  151.1226 C   0  0  0  0  0  0  0  0  0  0  0  0
  144.2095  131.9256  150.3133 N   0  3  0  0  0  0  0  0  0  0  0  0
  145.5162  132.0560  149.9996 C   0  0  0  0  0  0  0  0  0  0  0  0
  146.2613  133.1343  150.5190 C   0  0  0  0  0  0  0  0  0  0  0  0
  148.0283  138.7747  154.4277 C   0  0  0  0  0  0  0  0  0  0  0  0
  149.3049  137.9951  154.4136 N   0  0  0  0  0  0  0  0  0  0  0  0
  149.4366  136.9743  155.4664 C   0  0  0  0  0  0  0  0  0  0  0  0
  150.7185  136.1397  155.3111 C   0  0  0  0  0  0  0  0  0  0  0  0
  151.8497  137.0005  155.3212 O   0  0  0  0  0  0  0  0  0  0  0  0
  151.8016  137.9643  154.2774 C   0  0  0  0  0  0  0  0  0  0  0  0
  150.5252  138.8138  154.4044 C   0  0  0  0  0  0  0  0  0  0  0  0
  147.9240  139.7782  153.2343 C   0  0  0  0  0  0  0  0  0  0  0  0
  147.5496  141.1442  153.8136 C   0  0  0  0  0  0  0  0  0  0  0  0
  148.1475  141.1332  155.2124 C   0  0  0  0  0  0  0  0  0  0  0  0
  147.9358  139.6957  155.6896 C   0  0  0  0  0  0  0  0  0  0  0  0
  145.3022  139.2226  155.2243 H   0  0  0  0  0  0  0  0  0  0  0  0
  144.5939  137.8624  154.3756 H   0  0  0  0  0  0  0  0  0  0  0  0
  145.3307  139.1741  153.4655 H   0  0  0  0  0  0  0  0  0  0  0  0
  146.7760  137.2317  155.3273 H   0  0  0  0  0  0  0  0  0  0  0  0
  147.6242  136.9243  152.6954 H   0  0  0  0  0  0  0  0  0  0  0  0
  147.1862  135.4137  151.5613 H   0  0  0  0  0  0  0  0  0  0  0  0
  143.7391  134.5818  152.3210 H   0  0  0  0  0  0  0  0  0  0  0  0
  142.5193  132.5818  151.3061 H   0  0  0  0  0  0  0  0  0  0  0  0
  145.9263  131.2959  149.3507 H   0  0  0  0  0  0  0  0  0  0  0  0
  147.3091  133.2079  150.2711 H   0  0  0  0  0  0  0  0  0  0  0  0
  149.4465  137.4347  156.4531 H   0  0  0  0  0  0  0  0  0  0  0  0
  148.5954  136.2849  155.4567 H   0  0  0  0  0  0  0  0  0  0  0  0
  150.8075  135.4267  156.1309 H   0  0  0  0  0  0  0  0  0  0  0  0
  150.6960  135.5629  154.3852 H   0  0  0  0  0  0  0  0  0  0  0  0
  152.6856  138.5991  154.3383 H   0  0  0  0  0  0  0  0  0  0  0  0
  151.8350  137.4633  153.3086 H   0  0  0  0  0  0  0  0  0  0  0  0
  150.5277  139.5091  153.5686 H   0  0  0  0  0  0  0  0  0  0  0  0
  150.5831  139.4133  155.3133 H   0  0  0  0  0  0  0  0  0  0  0  0
  148.8700  139.8859  152.7073 H   0  0  0  0  0  0  0  0  0  0  0  0
  147.2116  139.4620  152.4719 H   0  0  0  0  0  0  0  0  0  0  0  0
  147.9180  141.9716  153.2067 H   0  0  0  0  0  0  0  0  0  0  0  0
  146.4648  141.2365  153.8772 H   0  0  0  0  0  0  0  0  0  0  0  0
  149.2126  141.3609  155.1599 H   0  0  0  0  0  0  0  0  0  0  0  0
  147.6835  141.8669  155.8720 H   0  0  0  0  0  0  0  0  0  0  0  0
  146.9539  139.6545  156.1590 H   0  0  0  0  0  0  0  0  0  0  0  0
  148.6246  139.4174  156.4872 H   0  0  0  0  0  0  0  0  0  0  0  0
  143.6905  131.1365  149.9266 H   0  0  0  0  0  0  0  0  0  0  0  0
  1  2  1  0  0  0  0
  1 24  1  0  0  0  0
  1 25  1  0  0  0  0
  1 26  1  0  0  0  0
  2  3  1  0  0  0  0
  2 13  1  0  0  0  0
  2 27  1  0  0  0  0
  3  4  1  0  0  0  0
  3 28  1  0  0  0  0
  4  5  2  0  0  0  0
  4  6  1  0  0  0  0
  6  7  1  0  0  0  0
  6 29  1  0  0  0  0
  7 12  1  0  0  0  0
  7  8  2  0  0  0  0
  8  9  1  0  0  0  0
  8 30  1  0  0  0  0
  9 10  2  0  0  0  0
  9 31  1  0  0  0  0
 10 11  1  0  0  0  0
 10 50  1  0  0  0  0
 11 12  2  0  0  0  0
 11 32  1  0  0  0  0
 12 33  1  0  0  0  0
 13 23  1  0  0  0  0
 13 14  1  0  0  0  0
 13 20  1  0  0  0  0
 14 19  1  0  0  0  0
 14 15  1  0  0  0  0
 15 16  1  0  0  0  0
 15 34  1  0  0  0  0
 15 35  1  0  0  0  0
 16 17  1  0  0  0  0
 16 36  1  0  0  0  0
 16 37  1  0  0  0  0
 17 18  1  0  0  0  0
 18 19  1  0  0  0  0
 18 38  1  0  0  0  0
 18 39  1  0  0  0  0
 19 40  1  0  0  0  0
 19 41  1  0  0  0  0
 20 21  1  0  0  0  0
 20 42  1  0  0  0  0
 20 43  1  0  0  0  0
 21 22  1  0  0  0  0
 21 44  1  0  0  0  0
 21 45  1  0  0  0  0
 22 23  1  0  0  0  0
 22 46  1  0  0  0  0
 22 47  1  0  0  0  0
 23 48  1  0  0  0  0
 23 49  1  0  0  0  0
M  CHG  1  10   1
M  END
> <s_m_source_file>
AV-unprocessed.smi

> <i_m_source_file_index>
702

> <i_lp_mmshare_version>
43012

> <i_f3d_flags>
0

> <s_epik_input>
W0NIMl0xW0NIMl1PW0NIMl1bQ0gyXU4xQzIoW0NIMl1bQ0gyXVtDSDJdW0NIMl0yKVtDQEhdKFtDSDNdKVtOSF1DKD1PKVtOSF1jM1tjSF1bY0hdbltjSF1bY0hdMw==

> <s_epik_cmdline>
J2VwaWtfcHl0aG9uJywgJy1waCcsICc3LjAnLCAnLXRuJywgJzgnLCAnLW1hJywgJzIwMCcsICctbWV0YWxfYmluZGluZycsICctaW1hZScsICc8aW5maWxlLm1hZT4nLCAnLW9tYWUnLCAnPG91dGZpbGUubWFlPic=

> <r_epik_Ionization_Penalty>
1.54019

> <r_epik_Ionization_Penalty_Charging>
1.02845

> <r_epik_Ionization_Penalty_Neutral>
0.511739

> <r_epik_State_Penalty>
1.62583

> <r_epik_Charging_Adjusted_Penalty>
2.65428

> <i_epik_Tot_Q>
1

> <i_epik_Tot_abs_Q>
1

> <r_epik_Metal_State_Penalty>
1.71803

> <b_epik_Metal_Only>
0

> <s_lp_Force_Field>
OPLS_2005

> <r_lp_Energy>
72.2563

> <b_lp_Chiralities_Consistent>
1

> <s_lp_Variant>
AV-unprocessed.smi:702-8

> <Gold.Version>
5.8.1

> <Gold.Id.Protein>
6NUR|6NUR_protein|mol2

> <Gold.PLP.Fitness>
40.1298

> <Gold.PLP.PLP>
-32.5002

> <Gold.PLP.part.hbond>
-3.0000

> <Gold.PLP.part.metal>
0.0000

> <Gold.PLP.part.buried>
-3.3782

> <Gold.PLP.part.nonpolar>
-27.8693

> <Gold.PLP.part.repulsive>
0.6523

> <Gold.PLP.ligand.clash>
0.0000

> <Gold.PLP.ligand.torsion>
0.1858

> <Gold.PLP.Chemscore.Hbond>
2.6260

> <Gold.PLP.Chemscore.CHOScore>
0.0000

> <Gold.PLP.Chemscore.Metal>
0.0000

> <Gold.Chemscore.Hbonds>
donor molecule, donor type, donor heavy atom, donor atom, acceptor molecule, acceptor atom, score
      L1  H     3    28       P1  7948  1.00
      L1  H     6    29       P1  7948  0.98
      P1  H 10752 10765       L1    17  0.55

> <Gold.PLP.Chemscore.Internal.Correction>
0.1231

> <Gold.Rescore>
     Score         DG    S(hbond)    S(metal)    S(lipo)     H(rot)  DE(clash)    DE(int)     intcor
     15.56     -18.58       1.92        0.00      88.54       1.44       0.06       2.95       ----

> <Gold.Chemscore.Fitness>
15.5582

> <Gold.Chemscore.DG>
-18.5752

> <Gold.Chemscore.ZeroCoef>
-5.4800

> <Gold.Chemscore.Hbond>
1.9225

> <Gold.Chemscore.Metal>
0.0000

> <Gold.Chemscore.Lipo>
88.5391

> <Gold.Chemscore.Internal_Hbond>
0.0000

> <Gold.Chemscore.DEClash>
0.0626

> <Gold.Chemscore.DEInternal>
2.9544

> <Gold.Chemscore.Rot>
1.4394

> <Gold.Chemscore.Internal.Correction>
   9.000000E+99

> <Gold.Chemscore.Hbonds>
donor molecule, donor type, donor heavy atom, donor atom, acceptor molecule, acceptor atom, score
      L1  H     3    28       P1  7948  0.97
      L1  H     6    29       P1  7948  0.90
      P1  H 10752 10765       L1    17  0.02

> <Gold.Chemscore.Hbond.Weighted>
-6.4210

> <Gold.Chemscore.Metal.Weighted>
-0.0000

> <Gold.Chemscore.Lipo.Weighted>
-10.3591

> <Gold.Chemscore.Internal_Hbond.Weighted>
0.0000

> <Gold.Chemscore.DEClash.Weighted>
0.0626

> <Gold.Chemscore.DEInternal.Weighted>
2.9544

> <Gold.Chemscore.Rot.Weighted>
3.6848

> <Gold.Chemscore.Internal.Correction.Weighted>
   9.000000E+99

> <Gold.Protein.RotatedTorsions>
[ 6907 6896 6895 6894 ] final -108.09 input  -60.11 | X-H torsion
[ 7974 7965 7964 7962 ] final   47.75 input  175.53 | X-H torsion
[ 8008 7997 7996 7995 ] final -139.32 input   59.86 | X-H torsion
[ 10167 10162 10161 10158 ] final  -72.40 input  -65.29 | X-H torsion
[ 10718 10713 10712 10709 ] final   68.29 input   66.30 | X-H torsion
[ 10763 10752 10751 10750 ] final -177.61 input  -60.55 | X-H torsion
[ 11005 11000 10999 10996 ] final  160.22 input  -57.11 | X-H torsion

> <Gold.Protein.ActiveResidues>
 VAL166  LYS551  ARG553  GLY616  TRP617  ASP618  TYR619  PRO620  LYS621  CYS622 
 ASP623  PHE694  ASN695  SER759  ASP760  ASP761  ALA762  ILE779  LEU786  VAL792 
 PHE793  MET794  SER795  GLU796  ALA797  LYS798  CYS799  TRP800  GLU811  SER814 

> <Gold.Protein.RotatedAtoms>
  150.7481  133.9730  159.3551 H   0  0  0  0  0  0  0  0  0  0  0  0  # atno 6907 bound_to 6896
  151.7665  135.0795  160.0363 H   0  0  0  0  0  0  0  0  0  0  0  0  # atno 6908 bound_to 6896
  152.3368  133.5984  159.5884 H   0  0  0  0  0  0  0  0  0  0  0  0  # atno 6909 bound_to 6896
  146.0268  139.4716  142.9862 H   0  0  0  0  0  0  0  0  0  0  0  0  # atno 7974 bound_to 7965
  155.4428  140.0533  157.3008 H   0  0  0  0  0  0  0  0  0  0  0  0  # atno 8008 bound_to 7997
  154.4810  140.2081  155.9720 H   0  0  0  0  0  0  0  0  0  0  0  0  # atno 8009 bound_to 7997
  156.1206  140.3189  155.8207 H   0  0  0  0  0  0  0  0  0  0  0  0  # atno 8010 bound_to 7997
  140.5196  143.2333  151.7454 H   0  0  0  0  0  0  0  0  0  0  0  0  # atno 10167 bound_to 10162
  157.6281  130.9366  150.0358 H   0  0  0  0  0  0  0  0  0  0  0  0  # atno 10718 bound_to 10713
  154.5580  135.2818  155.0946 H   0  0  0  0  0  0  0  0  0  0  0  0  # atno 10763 bound_to 10752
  154.2366  135.6364  153.5197 H   0  0  0  0  0  0  0  0  0  0  0  0  # atno 10764 bound_to 10752
  153.0021  135.5550  154.6165 H   0  0  0  0  0  0  0  0  0  0  0  0  # atno 10765 bound_to 10752
  140.2038  134.8318  157.3047 H   0  0  0  0  0  0  0  0  0  0  0  0  # atno 11005 bound_to 11000
  145.7104  141.0108  143.1456 LP  0  0  0  0  0  0  0  0  0  0  0  0  # atno 17320 bound_to 7965
  144.7013  139.8750  143.7443 LP  0  0  0  0  0  0  0  0  0  0  0  0  # atno 17321 bound_to 7965
  139.4919  144.4274  151.9910 LP  0  0  0  0  0  0  0  0  0  0  0  0  # atno 17342 bound_to 10162
  140.3370  144.3248  150.5975 LP  0  0  0  0  0  0  0  0  0  0  0  0  # atno 17343 bound_to 10162
  156.1465  130.3642  149.9502 LP  0  0  0  0  0  0  0  0  0  0  0  0  # atno 17370 bound_to 10713
  156.7531  130.9123  151.3638 LP  0  0  0  0  0  0  0  0  0  0  0  0  # atno 17371 bound_to 10713
  140.2025  134.4237  155.7655 LP  0  0  0  0  0  0  0  0  0  0  0  0  # atno 17394 bound_to 11000
  141.2227  133.7079  156.8207 LP  0  0  0  0  0  0  0  0  0  0  0  0  # atno 17395 bound_to 11000

$$$$
