AV-unprocessed.smi:1116|AV-procd|sdf|4809|dock7
  -GOLD-   22720 3363D 1   1.00000     0.00000
 Structure written by MMmdl.
 35 36  0  0  0  0  0  0  0  0  2 V2000
  152.9395  142.8073  161.2884 C   0  0  0  0  0  0  0  0  0  0  0  0
  152.4003  143.1188  159.9344 C   0  0  0  0  0  0  0  0  0  0  0  0
  152.0332  142.1862  159.0515 N   0  0  0  0  0  0  0  0  0  0  0  0
  151.5633  142.7342  157.8536 C   0  0  0  0  0  0  0  0  0  0  0  0
  151.1169  141.8352  156.7412 C   0  0  0  0  0  0  0  0  0  0  0  0
  150.8943  140.3902  157.2185 C   0  0  0  0  0  0  0  0  0  0  0  0
  149.8968  139.7010  156.4089 N   0  0  0  0  0  0  0  0  0  0  0  0
  150.0087  139.4413  155.0974 C   0  0  0  0  0  0  0  0  0  0  0  0
  150.9831  139.7732  154.4217 O   0  0  0  0  0  0  0  0  0  0  0  0
  148.8390  138.6980  154.4503 C   0  0  0  0  0  0  0  0  0  0  0  0
  147.9154  139.6419  153.6580 C   0  0  0  0  0  0  0  0  0  0  0  0
  146.5287  139.0260  153.3778 C   0  0  2  0  0  0  0  0  0  0  0  0
  146.1602  138.0622  154.4006 N   0  5  0  0  0  0  0  0  0  0  0  0
  145.9426  136.8660  153.8051 C   0  0  0  0  0  0  0  0  0  0  0  0
  145.6039  135.8116  154.3380 O   0  0  0  0  0  0  0  0  0  0  0  0
  146.1507  136.9488  152.4870 N   0  0  0  0  0  0  0  0  0  0  0  0
  146.5163  138.1737  152.1230 C   0  0  0  0  0  0  0  0  0  0  0  0
  146.7940  138.5656  150.9905 O   0  0  0  0  0  0  0  0  0  0  0  0
  151.5757  144.1068  157.8451 C   0  0  0  0  0  0  0  0  0  0  0  0
  152.1839  144.7607  159.3408 S   0  0  0  0  0  0  0  0  0  0  0  0
  153.0797  141.7327  161.4095 H   0  0  0  0  0  0  0  0  0  0  0  0
  152.2474  143.1583  162.0540 H   0  0  0  0  0  0  0  0  0  0  0  0
  153.9000  143.3030  161.4303 H   0  0  0  0  0  0  0  0  0  0  0  0
  150.1988  142.2241  156.2993 H   0  0  0  0  0  0  0  0  0  0  0  0
  151.8581  141.8417  155.9409 H   0  0  0  0  0  0  0  0  0  0  0  0
  151.8269  139.8297  157.1474 H   0  0  0  0  0  0  0  0  0  0  0  0
  150.5996  140.3727  158.2692 H   0  0  0  0  0  0  0  0  0  0  0  0
  149.0603  139.3896  156.8815 H   0  0  0  0  0  0  0  0  0  0  0  0
  149.2241  137.9152  153.7953 H   0  0  0  0  0  0  0  0  0  0  0  0
  148.2720  138.1939  155.2335 H   0  0  0  0  0  0  0  0  0  0  0  0
  147.7896  140.5668  154.2236 H   0  0  0  0  0  0  0  0  0  0  0  0
  148.3932  139.9274  152.7185 H   0  0  0  0  0  0  0  0  0  0  0  0
  145.7856  139.8161  153.2616 H   0  0  0  0  0  0  0  0  0  0  0  0
  146.0519  136.1729  151.8495 H   0  0  0  0  0  0  0  0  0  0  0  0
  151.2673  144.7698  157.0503 H   0  0  0  0  0  0  0  0  0  0  0  0
  1  2  1  0  0  0  0
  1 21  1  0  0  0  0
  1 22  1  0  0  0  0
  1 23  1  0  0  0  0
  2 20  1  0  0  0  0
  2  3  2  0  0  0  0
  3  4  1  0  0  0  0
  4  5  1  0  0  0  0
  4 19  2  0  0  0  0
  5  6  1  0  0  0  0
  5 24  1  0  0  0  0
  5 25  1  0  0  0  0
  6  7  1  0  0  0  0
  6 26  1  0  0  0  0
  6 27  1  0  0  0  0
  7  8  1  0  0  0  0
  7 28  1  0  0  0  0
  8  9  2  0  0  0  0
  8 10  1  0  0  0  0
 10 11  1  0  0  0  0
 10 29  1  0  0  0  0
 10 30  1  0  0  0  0
 11 12  1  0  0  0  0
 11 31  1  0  0  0  0
 11 32  1  0  0  0  0
 12 17  1  0  0  0  0
 12 13  1  0  0  0  0
 12 33  1  0  0  0  0
 13 14  1  0  0  0  0
 14 15  2  0  0  0  0
 14 16  1  0  0  0  0
 16 17  1  0  0  0  0
 16 34  1  0  0  0  0
 17 18  2  0  0  0  0
 19 20  1  0  0  0  0
 19 35  1  0  0  0  0
M  CHG  1  13  -1
M  END
> <s_m_source_file>
AV-unprocessed.smi

> <i_m_source_file_index>
1116

> <i_lp_mmshare_version>
43012

> <i_f3d_flags>
0

> <s_epik_input>
W0NIM11jMW5jKFtjSF1zMSlbQ0gyXVtDSDJdW05IXUMoPU8pW0NIMl1bQ0gyXVtDQEBIXTJbTkhdQyg9TylbTkhdQzI9Tw==

> <s_epik_cmdline>
J2VwaWtfcHl0aG9uJywgJy1waCcsICc3LjAnLCAnLXRuJywgJzgnLCAnLW1hJywgJzIwMCcsICctbWV0YWxfYmluZGluZycsICctaW1hZScsICc8aW5maWxlLm1hZT4nLCAnLW9tYWUnLCAnPG91dGZpbGUubWFlPic=

> <r_lp_tautomer_probability>
1

> <r_epik_Ionization_Penalty>
5.7962

> <r_epik_Ionization_Penalty_Charging>
5.79516

> <r_epik_Ionization_Penalty_Neutral>
0.00104588

> <r_epik_State_Penalty>
5.80096

> <r_epik_Charging_Adjusted_Penalty>
11.5961

> <i_epik_Tot_Q>
-1

> <i_epik_Tot_abs_Q>
1

> <r_epik_Metal_State_Penalty>
2.1448

> <b_epik_Metal_Only>
1

> <s_lp_Force_Field>
OPLS_2005

> <r_lp_Energy>
4.59195

> <b_lp_Chiralities_Consistent>
1

> <s_lp_Variant>
AV-unprocessed.smi:1116-3

> <Gold.Version>
5.8.1

> <Gold.Id.Protein>
6NUR|6NUR_protein|mol2

> <Gold.PLP.Fitness>
42.7670

> <Gold.PLP.PLP>
-35.8508

> <Gold.PLP.part.hbond>
-3.0000

> <Gold.PLP.part.metal>
0.0000

> <Gold.PLP.part.buried>
-3.9223

> <Gold.PLP.part.nonpolar>
-31.4208

> <Gold.PLP.part.repulsive>
0.6547

> <Gold.PLP.ligand.clash>
0.0000

> <Gold.PLP.ligand.torsion>
1.0435

> <Gold.PLP.Chemscore.Hbond>
1.9913

> <Gold.PLP.Chemscore.CHOScore>
0.9868

> <Gold.PLP.Chemscore.Metal>
0.0000

> <Gold.Chemscore.Hbonds>
donor molecule, donor type, donor heavy atom, donor atom, acceptor molecule, acceptor atom, score
      P1  H  7954  7966       L1    18  1.00
      P1  H  7989  7998       L1     9  1.00
      L1  C    19    35       P1  8028  0.52

> <Gold.PLP.Chemscore.Internal.Correction>
0.0690

> <Gold.Rescore>
     Score         DG    S(hbond)    S(metal)    S(lipo)     H(rot)  DE(clash)    DE(int)     intcor
     14.06     -15.14       1.93        0.00      88.17       2.77       0.28       0.80       ----

> <Gold.Chemscore.Fitness>
14.0645

> <Gold.Chemscore.DG>
-15.1448

> <Gold.Chemscore.ZeroCoef>
-5.4800

> <Gold.Chemscore.Hbond>
1.9274

> <Gold.Chemscore.Metal>
0.0000

> <Gold.Chemscore.Lipo>
88.1729

> <Gold.Chemscore.Internal_Hbond>
0.0000

> <Gold.Chemscore.DEClash>
0.2798

> <Gold.Chemscore.DEInternal>
0.8005

> <Gold.Chemscore.Rot>
2.7691

> <Gold.Chemscore.Internal.Correction>
   9.000000E+99

> <Gold.Chemscore.Hbonds>
donor molecule, donor type, donor heavy atom, donor atom, acceptor molecule, acceptor atom, score
      P1  H  7954  7966       L1    18  0.94
      P1  H  7989  7998       L1     9  0.97

> <Gold.Chemscore.Hbond.Weighted>
-6.4375

> <Gold.Chemscore.Metal.Weighted>
-0.0000

> <Gold.Chemscore.Lipo.Weighted>
-10.3162

> <Gold.Chemscore.Internal_Hbond.Weighted>
0.0000

> <Gold.Chemscore.DEClash.Weighted>
0.2798

> <Gold.Chemscore.DEInternal.Weighted>
0.8005

> <Gold.Chemscore.Rot.Weighted>
7.0889

> <Gold.Chemscore.Internal.Correction.Weighted>
   9.000000E+99

> <Gold.Protein.RotatedTorsions>
[ 6907 6896 6895 6894 ] final  -49.17 input  -60.11 | X-H torsion
[ 7974 7965 7964 7962 ] final    8.34 input  175.53 | X-H torsion
[ 8008 7997 7996 7995 ] final -143.17 input   59.86 | X-H torsion
[ 10167 10162 10161 10158 ] final  150.69 input  -65.29 | X-H torsion
[ 10718 10713 10712 10709 ] final -117.00 input   66.30 | X-H torsion
[ 10763 10752 10751 10750 ] final  121.17 input  -60.55 | X-H torsion
[ 11005 11000 10999 10996 ] final  -45.87 input  -57.11 | X-H torsion

> <Gold.Protein.ActiveResidues>
 VAL166  LYS551  ARG553  GLY616  TRP617  ASP618  TYR619  PRO620  LYS621  CYS622 
 ASP623  PHE694  ASN695  SER759  ASP760  ASP761  ALA762  ILE779  LEU786  VAL792 
 PHE793  MET794  SER795  GLU796  ALA797  LYS798  CYS799  TRP800  GLU811  SER814 

> <Gold.Protein.RotatedAtoms>
  150.8832  134.8226  159.7239 H   0  0  0  0  0  0  0  0  0  0  0  0  # atno 6907 bound_to 6896
  152.4791  134.4763  159.9661 H   0  0  0  0  0  0  0  0  0  0  0  0  # atno 6908 bound_to 6896
  151.4835  133.3502  159.2877 H   0  0  0  0  0  0  0  0  0  0  0  0  # atno 6909 bound_to 6896
  146.2417  139.9948  142.8422 H   0  0  0  0  0  0  0  0  0  0  0  0  # atno 7974 bound_to 7965
  155.5062  140.0579  157.2931 H   0  0  0  0  0  0  0  0  0  0  0  0  # atno 8008 bound_to 7997
  154.4568  140.1977  156.0305 H   0  0  0  0  0  0  0  0  0  0  0  0  # atno 8009 bound_to 7997
  156.0815  140.3246  155.7704 H   0  0  0  0  0  0  0  0  0  0  0  0  # atno 8010 bound_to 7997
  139.4847  144.5502  151.7414 H   0  0  0  0  0  0  0  0  0  0  0  0  # atno 10167 bound_to 10162
  156.1003  130.6166  150.9108 H   0  0  0  0  0  0  0  0  0  0  0  0  # atno 10718 bound_to 10713
  153.6099  135.3432  155.2975 H   0  0  0  0  0  0  0  0  0  0  0  0  # atno 10763 bound_to 10752
  154.8620  135.4247  154.2321 H   0  0  0  0  0  0  0  0  0  0  0  0  # atno 10764 bound_to 10752
  153.3169  135.7035  153.7137 H   0  0  0  0  0  0  0  0  0  0  0  0  # atno 10765 bound_to 10752
  141.0543  133.6731  156.3074 H   0  0  0  0  0  0  0  0  0  0  0  0  # atno 11005 bound_to 11000
  145.1470  140.9602  143.4455 LP  0  0  0  0  0  0  0  0  0  0  0  0  # atno 17320 bound_to 7965
  145.0241  139.3398  143.6057 LP  0  0  0  0  0  0  0  0  0  0  0  0  # atno 17321 bound_to 7965
  140.5055  144.1105  150.5981 LP  0  0  0  0  0  0  0  0  0  0  0  0  # atno 17342 bound_to 10162
  140.4013  143.2702  151.9945 LP  0  0  0  0  0  0  0  0  0  0  0  0  # atno 17343 bound_to 10162
  157.6172  131.0932  150.8689 LP  0  0  0  0  0  0  0  0  0  0  0  0  # atno 17370 bound_to 10713
  156.8819  130.5182  149.5290 LP  0  0  0  0  0  0  0  0  0  0  0  0  # atno 17371 bound_to 10713
  140.5995  134.5569  157.5515 LP  0  0  0  0  0  0  0  0  0  0  0  0  # atno 17394 bound_to 11000
  139.9376  134.7845  156.0761 LP  0  0  0  0  0  0  0  0  0  0  0  0  # atno 17395 bound_to 11000

$$$$
