AV-unprocessed.smi:142|AV-procd|sdf|1190|dock6
  -GOLD-   2262018343D 1   1.00000     0.00000
 Structure written by MMmdl.
 52 55  0  0  0  0  0  0  0  0  1 V2000
  154.7654  138.4892  161.3568 C   0  0  0  0  0  0  0  0  0  0  0  0
  154.7577  139.4602  160.1685 C   0  0  1  0  0  0  0  0  0  0  0  0
  154.1947  138.7878  158.9997 N   0  0  0  0  0  0  0  0  0  0  0  0
  152.9236  138.3740  158.8856 C   0  0  0  0  0  0  0  0  0  0  0  0
  152.0678  138.5752  159.7483 O   0  0  0  0  0  0  0  0  0  0  0  0
  152.5739  137.6163  157.5972 C   0  0  0  0  0  0  0  0  0  0  0  0
  151.1151  137.4664  157.4063 N   0  0  0  0  0  0  0  0  0  0  0  0
  150.4057  136.5442  158.2154 C   0  0  0  0  0  0  0  0  0  0  0  0
  150.9790  135.8746  159.0760 O   0  0  0  0  0  0  0  0  0  0  0  0
  148.9741  136.4483  157.9532 C   0  0  0  0  0  0  0  0  0  0  0  0
  148.2178  135.6138  158.6863 F   0  0  0  0  0  0  0  0  0  0  0  0
  148.3934  137.1881  156.9862 C   0  0  0  0  0  0  0  0  0  0  0  0
  149.1021  138.0694  156.1900 N   0  0  0  0  0  0  0  0  0  0  0  0
  148.4213  138.8812  155.1097 C   0  0  2  0  0  0  0  0  0  0  0  0
  148.4229  140.3675  155.4839 C   0  0  0  0  0  0  0  0  0  0  0  0
  147.0878  140.5120  156.1816 C   0  0  0  0  0  0  0  0  0  0  0  0
  146.2194  139.5448  155.3849 C   0  0  0  0  0  0  0  0  0  0  0  0
  147.0857  138.4781  155.0047 O   0  0  0  0  0  0  0  0  0  0  0  0
  150.4894  138.2324  156.3932 C   0  0  0  0  0  0  0  0  0  0  0  0
  151.1384  139.0237  155.7047 O   0  0  0  0  0  0  0  0  0  0  0  0
  154.0258  140.7519  160.5226 C   0  0  0  0  0  0  0  0  0  0  0  0
  154.0640  141.2803  161.8334 C   0  0  0  0  0  0  0  0  0  0  0  0
  153.3807  142.4717  162.1424 C   0  0  0  0  0  0  0  0  0  0  0  0
  152.6561  143.1508  161.1426 C   0  0  0  0  0  0  0  0  0  0  0  0
  151.9688  144.3441  161.4465 C   0  0  0  0  0  0  0  0  0  0  0  0
  151.2475  145.0181  160.4417 C   0  0  0  0  0  0  0  0  0  0  0  0
  151.2112  144.5022  159.1316 C   0  0  0  0  0  0  0  0  0  0  0  0
  151.8958  143.3107  158.8225 C   0  0  0  0  0  0  0  0  0  0  0  0
  152.6196  142.6315  159.8246 C   0  0  0  0  0  0  0  0  0  0  0  0
  153.3057  141.4377  159.5212 C   0  0  0  0  0  0  0  0  0  0  0  0
  155.2403  138.9414  162.2278 H   0  0  0  0  0  0  0  0  0  0  0  0
  155.3162  137.5786  161.1183 H   0  0  0  0  0  0  0  0  0  0  0  0
  153.7527  138.2020  161.6421 H   0  0  0  0  0  0  0  0  0  0  0  0
  155.7956  139.7107  159.9401 H   0  0  0  0  0  0  0  0  0  0  0  0
  154.8289  138.5867  158.2402 H   0  0  0  0  0  0  0  0  0  0  0  0
  153.0454  138.1344  156.7611 H   0  0  0  0  0  0  0  0  0  0  0  0
  153.0538  136.6358  157.6067 H   0  0  0  0  0  0  0  0  0  0  0  0
  147.3289  137.0787  156.8422 H   0  0  0  0  0  0  0  0  0  0  0  0
  148.9483  138.6544  154.1815 H   0  0  0  0  0  0  0  0  0  0  0  0
  149.2803  140.6433  156.0989 H   0  0  0  0  0  0  0  0  0  0  0  0
  148.4407  140.9573  154.5666 H   0  0  0  0  0  0  0  0  0  0  0  0
  147.1663  140.1855  157.2194 H   0  0  0  0  0  0  0  0  0  0  0  0
  146.7069  141.5335  156.1724 H   0  0  0  0  0  0  0  0  0  0  0  0
  145.3636  139.1817  155.9544 H   0  0  0  0  0  0  0  0  0  0  0  0
  145.8459  140.0286  154.4816 H   0  0  0  0  0  0  0  0  0  0  0  0
  154.6168  140.7756  162.6121 H   0  0  0  0  0  0  0  0  0  0  0  0
  153.4164  142.8602  163.1498 H   0  0  0  0  0  0  0  0  0  0  0  0
  151.9912  144.7468  162.4487 H   0  0  0  0  0  0  0  0  0  0  0  0
  150.7215  145.9316  160.6765 H   0  0  0  0  0  0  0  0  0  0  0  0
  150.6573  145.0205  158.3626 H   0  0  0  0  0  0  0  0  0  0  0  0
  151.8617  142.9215  157.8152 H   0  0  0  0  0  0  0  0  0  0  0  0
  153.2771  141.0423  158.5158 H   0  0  0  0  0  0  0  0  0  0  0  0
  1  2  1  0  0  0  0
  1 31  1  0  0  0  0
  1 32  1  0  0  0  0
  1 33  1  0  0  0  0
  2  3  1  0  0  0  0
  2 21  1  0  0  0  0
  2 34  1  0  0  0  0
  3  4  1  0  0  0  0
  3 35  1  0  0  0  0
  4  5  2  0  0  0  0
  4  6  1  0  0  0  0
  6  7  1  0  0  0  0
  6 36  1  0  0  0  0
  6 37  1  0  0  0  0
  7 19  1  0  0  0  0
  7  8  1  0  0  0  0
  8  9  2  0  0  0  0
  8 10  1  0  0  0  0
 10 11  1  0  0  0  0
 10 12  2  0  0  0  0
 12 13  1  0  0  0  0
 12 38  1  0  0  0  0
 13 14  1  0  0  0  0
 13 19  1  0  0  0  0
 14 18  1  0  0  0  0
 14 15  1  0  0  0  0
 14 39  1  0  0  0  0
 15 16  1  0  0  0  0
 15 40  1  0  0  0  0
 15 41  1  0  0  0  0
 16 17  1  0  0  0  0
 16 42  1  0  0  0  0
 16 43  1  0  0  0  0
 17 18  1  0  0  0  0
 17 44  1  0  0  0  0
 17 45  1  0  0  0  0
 19 20  2  0  0  0  0
 21 30  1  0  0  0  0
 21 22  2  0  0  0  0
 22 23  1  0  0  0  0
 22 46  1  0  0  0  0
 23 24  2  0  0  0  0
 23 47  1  0  0  0  0
 24 29  1  0  0  0  0
 24 25  1  0  0  0  0
 25 26  2  0  0  0  0
 25 48  1  0  0  0  0
 26 27  1  0  0  0  0
 26 49  1  0  0  0  0
 27 28  2  0  0  0  0
 27 50  1  0  0  0  0
 28 29  1  0  0  0  0
 28 51  1  0  0  0  0
 29 30  2  0  0  0  0
 30 52  1  0  0  0  0
M  END
> <s_m_source_file>
AV-unprocessed.smi

> <i_m_source_file_index>
142

> <i_lp_mmshare_version>
43012

> <i_f3d_flags>
0

> <s_epik_input>
W2NIXTFbY0hdW2NIXVtjSF1jKGMxMilbY0hdYyhbY0hdW2NIXTIpW0NASF0oW0NIM10pW05IXUMoPU8pW0NIMl1uM2MoPU8pYyhGKVtjSF1uKGMzPU8pW0NAQEhdNFtDSDJdW0NIMl1bQ0gyXU80

> <s_epik_cmdline>
J2VwaWtfcHl0aG9uJywgJy1waCcsICc3LjAnLCAnLXRuJywgJzgnLCAnLW1hJywgJzIwMCcsICctbWV0YWxfYmluZGluZycsICctaW1hZScsICc8aW5maWxlLm1hZT4nLCAnLW9tYWUnLCAnPG91dGZpbGUubWFlPic=

> <r_lp_tautomer_probability>
1

> <r_epik_Ionization_Penalty>
3.35688e-08

> <r_epik_Ionization_Penalty_Charging>
3.59856e-09

> <r_epik_Ionization_Penalty_Neutral>
2.99702e-08

> <r_epik_State_Penalty>
-0

> <r_epik_Charging_Adjusted_Penalty>
3.59856e-09

> <i_epik_Tot_Q>
0

> <i_epik_Tot_abs_Q>
0

> <r_epik_Metal_State_Penalty>
-0

> <b_epik_Metal_Only>
0

> <s_epik_Chemistry_Notes>
This compound contains an acetal/aminal-like group ( X-CH(R)-Y where X, Y are N, S, or O) that may be acid/base labile, releasing an aldehyde.

> <s_lp_Force_Field>
OPLS_2005

> <r_lp_Energy>
30.4955

> <b_lp_Chiralities_Consistent>
1

> <s_lp_Variant>
AV-unprocessed.smi:142-2

> <Gold.Version>
5.8.1

> <Gold.Id.Protein>
6NUR|6NUR_protein|mol2

> <Gold.PLP.Fitness>
58.4257

> <Gold.PLP.PLP>
-56.3975

> <Gold.PLP.part.hbond>
-2.0000

> <Gold.PLP.part.metal>
0.0000

> <Gold.PLP.part.buried>
-5.1995

> <Gold.PLP.part.nonpolar>
-49.8981

> <Gold.PLP.part.repulsive>
1.7548

> <Gold.PLP.ligand.clash>
0.0000

> <Gold.PLP.ligand.torsion>
1.1065

> <Gold.PLP.Chemscore.Hbond>
1.3876

> <Gold.PLP.Chemscore.CHOScore>
0.0000

> <Gold.PLP.Chemscore.Metal>
0.0000

> <Gold.PLP.Chemscore.Internal.Correction>
0.0783

> <Gold.Rescore>
     Score         DG    S(hbond)    S(metal)    S(lipo)     H(rot)  DE(clash)    DE(int)     intcor
     18.11     -22.62       1.40        0.00     150.63       2.02       0.51       4.01       ----

> <Gold.Chemscore.Fitness>
18.1110

> <Gold.Chemscore.DG>
-22.6238

> <Gold.Chemscore.ZeroCoef>
-5.4800

> <Gold.Chemscore.Hbond>
1.4028

> <Gold.Chemscore.Metal>
0.0000

> <Gold.Chemscore.Lipo>
150.6251

> <Gold.Chemscore.Internal_Hbond>
0.0000

> <Gold.Chemscore.DEClash>
0.5053

> <Gold.Chemscore.DEInternal>
4.0074

> <Gold.Chemscore.Rot>
2.0175

> <Gold.Chemscore.Internal.Correction>
   9.000000E+99

> <Gold.Chemscore.Hbonds>
donor molecule, donor type, donor heavy atom, donor atom, acceptor molecule, acceptor atom, score
      P1  H  6896  6907       L1     9  0.06

> <Gold.Chemscore.Hbond.Weighted>
-4.6855

> <Gold.Chemscore.Metal.Weighted>
-0.0000

> <Gold.Chemscore.Lipo.Weighted>
-17.6231

> <Gold.Chemscore.Internal_Hbond.Weighted>
0.0000

> <Gold.Chemscore.DEClash.Weighted>
0.5053

> <Gold.Chemscore.DEInternal.Weighted>
4.0074

> <Gold.Chemscore.Rot.Weighted>
5.1648

> <Gold.Chemscore.Internal.Correction.Weighted>
   9.000000E+99

> <Gold.Protein.RotatedTorsions>
[ 6907 6896 6895 6894 ] final  -42.68 input  -60.11 | X-H torsion
[ 7974 7965 7964 7962 ] final   52.09 input  175.53 | X-H torsion
[ 8008 7997 7996 7995 ] final -169.94 input   59.86 | X-H torsion
[ 10167 10162 10161 10158 ] final   65.74 input  -65.29 | X-H torsion
[ 10718 10713 10712 10709 ] final  -37.09 input   66.30 | X-H torsion
[ 10763 10752 10751 10750 ] final   97.85 input  -60.55 | X-H torsion
[ 11005 11000 10999 10996 ] final  128.89 input  -57.11 | X-H torsion

> <Gold.Protein.ActiveResidues>
 VAL166  LYS551  ARG553  GLY616  TRP617  ASP618  TYR619  PRO620  LYS621  CYS622 
 ASP623  PHE694  ASN695  SER759  ASP760  ASP761  ALA762  ILE779  LEU786  VAL792 
 PHE793  MET794  SER795  GLU796  ALA797  LYS798  CYS799  TRP800  GLU811  SER814 

> <Gold.Protein.RotatedAtoms>
  150.9525  134.8923  159.7680 H   0  0  0  0  0  0  0  0  0  0  0  0  # atno 6907 bound_to 6896
  152.5125  134.3786  159.9353 H   0  0  0  0  0  0  0  0  0  0  0  0  # atno 6908 bound_to 6896
  151.3802  133.3784  159.2744 H   0  0  0  0  0  0  0  0  0  0  0  0  # atno 6909 bound_to 6896
  145.9849  139.4279  143.0109 H   0  0  0  0  0  0  0  0  0  0  0  0  # atno 7974 bound_to 7965
  155.9117  140.1058  157.1274 H   0  0  0  0  0  0  0  0  0  0  0  0  # atno 8008 bound_to 7997
  154.4040  140.1273  156.4630 H   0  0  0  0  0  0  0  0  0  0  0  0  # atno 8009 bound_to 7997
  155.7302  140.3468  155.5058 H   0  0  0  0  0  0  0  0  0  0  0  0  # atno 8010 bound_to 7997
  140.1080  144.4843  150.6995 H   0  0  0  0  0  0  0  0  0  0  0  0  # atno 10167 bound_to 10162
  156.3192  130.4263  149.7976 H   0  0  0  0  0  0  0  0  0  0  0  0  # atno 10718 bound_to 10713
  153.2819  135.4169  155.1086 H   0  0  0  0  0  0  0  0  0  0  0  0  # atno 10763 bound_to 10752
  154.8492  135.3497  154.6101 H   0  0  0  0  0  0  0  0  0  0  0  0  # atno 10764 bound_to 10752
  153.6522  135.7052  153.5263 H   0  0  0  0  0  0  0  0  0  0  0  0  # atno 10765 bound_to 10752
  139.9585  134.9607  156.9069 H   0  0  0  0  0  0  0  0  0  0  0  0  # atno 11005 bound_to 11000
  145.7716  140.9894  143.1146 LP  0  0  0  0  0  0  0  0  0  0  0  0  # atno 17320 bound_to 7965
  144.6872  139.9454  143.7476 LP  0  0  0  0  0  0  0  0  0  0  0  0  # atno 17321 bound_to 7965
  140.6941  143.2393  151.5049 LP  0  0  0  0  0  0  0  0  0  0  0  0  # atno 17342 bound_to 10162
  139.5634  144.2100  152.1728 LP  0  0  0  0  0  0  0  0  0  0  0  0  # atno 17343 bound_to 10162
  156.5291  130.8249  151.3230 LP  0  0  0  0  0  0  0  0  0  0  0  0  # atno 17370 bound_to 10713
  157.7408  130.9857  150.2402 LP  0  0  0  0  0  0  0  0  0  0  0  0  # atno 17371 bound_to 10713
  140.5553  134.0587  155.7382 LP  0  0  0  0  0  0  0  0  0  0  0  0  # atno 17394 bound_to 11000
  141.1260  133.9382  157.2634 LP  0  0  0  0  0  0  0  0  0  0  0  0  # atno 17395 bound_to 11000

$$$$
