AV-unprocessed.smi:1806|AV-procd|sdf|7300|dock5
  -GOLD-   22720 8553D 1   1.00000     0.00000
 Structure written by MMmdl.
 27 28  0  0  0  0  0  0  0  0  2 V2000
  153.1168  141.5910  160.7479 C   0  0  0  0  0  0  0  0  0  0  0  0
  152.4983  142.5974  159.8007 C   0  0  0  0  0  0  0  0  0  0  0  0
  152.4145  143.9592  160.1507 C   0  0  0  0  0  0  0  0  0  0  0  0
  151.8286  144.8433  159.2274 C   0  0  0  0  0  0  0  0  0  0  0  0
  151.3518  144.3316  158.0054 C   0  0  0  0  0  0  0  0  0  0  0  0
  151.4654  142.9479  157.7347 C   0  0  0  0  0  0  0  0  0  0  0  0
  151.0263  142.4515  156.5682 N   0  5  0  0  0  0  0  0  0  0  0  0
  151.2147  141.1439  156.2525 C   0  0  0  0  0  0  0  0  0  0  0  0
  152.1762  140.4707  156.6356 O   0  0  0  0  0  0  0  0  0  0  0  0
  150.1839  140.5463  155.4073 C   0  0  0  0  0  0  0  0  0  0  0  0
  149.3388  141.3376  154.7043 C   0  0  0  0  0  0  0  0  0  0  0  0
  148.3229  140.8594  153.9145 O   0  0  0  0  0  0  0  0  0  0  0  0
  148.0516  139.4720  154.0717 C   0  0  0  0  0  0  0  0  0  0  0  0
  149.3610  138.6820  154.2044 C   0  0  0  0  0  0  0  0  0  0  0  0
  150.1211  139.1738  155.3016 O   0  0  0  0  0  0  0  0  0  0  0  0
  152.0399  142.1071  158.6283 N   0  0  0  0  0  0  0  0  0  0  0  0
  153.8111  142.0771  161.4340 H   0  0  0  0  0  0  0  0  0  0  0  0
  153.6661  140.8262  160.1973 H   0  0  0  0  0  0  0  0  0  0  0  0
  152.3397  141.1013  161.3349 H   0  0  0  0  0  0  0  0  0  0  0  0
  152.7890  144.3180  161.0979 H   0  0  0  0  0  0  0  0  0  0  0  0
  151.7462  145.8966  159.4506 H   0  0  0  0  0  0  0  0  0  0  0  0
  150.8994  144.9957  157.2833 H   0  0  0  0  0  0  0  0  0  0  0  0
  149.3485  142.4181  154.7202 H   0  0  0  0  0  0  0  0  0  0  0  0
  147.4280  139.3254  154.9546 H   0  0  0  0  0  0  0  0  0  0  0  0
  147.4796  139.1208  153.2127 H   0  0  0  0  0  0  0  0  0  0  0  0
  149.1545  137.6229  154.3595 H   0  0  0  0  0  0  0  0  0  0  0  0
  149.9523  138.7642  153.2912 H   0  0  0  0  0  0  0  0  0  0  0  0
  1  2  1  0  0  0  0
  1 17  1  0  0  0  0
  1 18  1  0  0  0  0
  1 19  1  0  0  0  0
  2 16  1  0  0  0  0
  2  3  2  0  0  0  0
  3  4  1  0  0  0  0
  3 20  1  0  0  0  0
  4  5  2  0  0  0  0
  4 21  1  0  0  0  0
  5  6  1  0  0  0  0
  5 22  1  0  0  0  0
  6  7  1  0  0  0  0
  6 16  2  0  0  0  0
  7  8  1  0  0  0  0
  8  9  2  0  0  0  0
  8 10  1  0  0  0  0
 10 15  1  0  0  0  0
 10 11  2  0  0  0  0
 11 12  1  0  0  0  0
 11 23  1  0  0  0  0
 12 13  1  0  0  0  0
 13 14  1  0  0  0  0
 13 24  1  0  0  0  0
 13 25  1  0  0  0  0
 14 15  1  0  0  0  0
 14 26  1  0  0  0  0
 14 27  1  0  0  0  0
M  CHG  1   7  -1
M  END
> <s_m_source_file>
AV-unprocessed.smi

> <i_m_source_file_index>
1806

> <i_lp_mmshare_version>
43012

> <i_f3d_flags>
0

> <s_epik_input>
W0NIM11jMVtjSF1bY0hdW2NIXWMobjEpW05IXUMoPU8pQzI9W0NIXU9bQ0gyXVtDSDJdTzI=

> <s_epik_cmdline>
J2VwaWtfcHl0aG9uJywgJy1waCcsICc3LjAnLCAnLXRuJywgJzgnLCAnLW1hJywgJzIwMCcsICctbWV0YWxfYmluZGluZycsICctaW1hZScsICc8aW5maWxlLm1hZT4nLCAnLW9tYWUnLCAnPG91dGZpbGUubWFlPic=

> <r_lp_tautomer_probability>
1

> <r_epik_Ionization_Penalty>
11.2807

> <r_epik_Ionization_Penalty_Charging>
5.82682

> <r_epik_Ionization_Penalty_Neutral>
5.45386

> <r_epik_State_Penalty>
5.82679

> <r_epik_Charging_Adjusted_Penalty>
11.6536

> <i_epik_Tot_Q>
-1

> <i_epik_Tot_abs_Q>
1

> <r_epik_Metal_State_Penalty>
1.79445

> <b_epik_Metal_Only>
1

> <s_lp_Force_Field>
OPLS_2005

> <r_lp_Energy>
4.64637

> <b_lp_Chiralities_Consistent>
1

> <s_lp_Variant>
AV-unprocessed.smi:1806-2

> <Gold.Version>
5.8.1

> <Gold.Id.Protein>
6NUR|6NUR_protein|mol2

> <Gold.PLP.Fitness>
39.7539

> <Gold.PLP.PLP>
-35.1348

> <Gold.PLP.part.hbond>
-0.9988

> <Gold.PLP.part.metal>
0.0000

> <Gold.PLP.part.buried>
-1.9196

> <Gold.PLP.part.nonpolar>
-31.7873

> <Gold.PLP.part.repulsive>
0.3023

> <Gold.PLP.ligand.clash>
0.0013

> <Gold.PLP.ligand.torsion>
0.3192

> <Gold.PLP.Chemscore.Hbond>
0.7056

> <Gold.PLP.Chemscore.CHOScore>
1.0000

> <Gold.PLP.Chemscore.Metal>
0.0000

> <Gold.Chemscore.Hbonds>
donor molecule, donor type, donor heavy atom, donor atom, acceptor molecule, acceptor atom, score
      P1  H  7997  8008       L1     9  0.58
      L1  C    11    23       P1  8028  1.00

> <Gold.PLP.Chemscore.Internal.Correction>
0.1418

> <Gold.Rescore>
     Score         DG    S(hbond)    S(metal)    S(lipo)     H(rot)  DE(clash)    DE(int)     intcor
     15.22     -17.75       0.68        0.00      85.47       0.00       0.50       2.04       ----

> <Gold.Chemscore.Fitness>
15.2157

> <Gold.Chemscore.DG>
-17.7506

> <Gold.Chemscore.ZeroCoef>
-5.4800

> <Gold.Chemscore.Hbond>
0.6798

> <Gold.Chemscore.Metal>
0.0000

> <Gold.Chemscore.Lipo>
85.4705

> <Gold.Chemscore.Internal_Hbond>
0.0000

> <Gold.Chemscore.DEClash>
0.4951

> <Gold.Chemscore.DEInternal>
2.0398

> <Gold.Chemscore.Rot>
0.0000

> <Gold.Chemscore.Internal.Correction>
   9.000000E+99

> <Gold.Chemscore.Hbonds>
donor molecule, donor type, donor heavy atom, donor atom, acceptor molecule, acceptor atom, score
      P1  H  7997  8008       L1     9  0.56

> <Gold.Chemscore.Hbond.Weighted>
-2.2706

> <Gold.Chemscore.Metal.Weighted>
-0.0000

> <Gold.Chemscore.Lipo.Weighted>
-10.0001

> <Gold.Chemscore.Internal_Hbond.Weighted>
0.0000

> <Gold.Chemscore.DEClash.Weighted>
0.4951

> <Gold.Chemscore.DEInternal.Weighted>
2.0398

> <Gold.Chemscore.Rot.Weighted>
0.0000

> <Gold.Chemscore.Internal.Correction.Weighted>
   9.000000E+99

> <Gold.Protein.RotatedTorsions>
[ 6907 6896 6895 6894 ] final   55.51 input  -60.11 | X-H torsion
[ 7974 7965 7964 7962 ] final  -47.55 input  175.53 | X-H torsion
[ 8008 7997 7996 7995 ] final  -46.63 input   59.86 | X-H torsion
[ 10167 10162 10161 10158 ] final  145.69 input  -65.29 | X-H torsion
[ 10718 10713 10712 10709 ] final -171.72 input   66.30 | X-H torsion
[ 10763 10752 10751 10750 ] final -106.82 input  -60.55 | X-H torsion
[ 11005 11000 10999 10996 ] final  162.70 input  -57.11 | X-H torsion

> <Gold.Protein.ActiveResidues>
 VAL166  LYS551  ARG553  GLY616  TRP617  ASP618  TYR619  PRO620  LYS621  CYS622 
 ASP623  PHE694  ASN695  SER759  ASP760  ASP761  ALA762  ILE779  LEU786  VAL792 
 PHE793  MET794  SER795  GLU796  ALA797  LYS798  CYS799  TRP800  GLU811  SER814 

> <Gold.Protein.RotatedAtoms>
  152.3546  134.6958  160.0225 H   0  0  0  0  0  0  0  0  0  0  0  0  # atno 6907 bound_to 6896
  151.7301  133.3312  159.3346 H   0  0  0  0  0  0  0  0  0  0  0  0  # atno 6908 bound_to 6896
  150.7563  134.6304  159.6228 H   0  0  0  0  0  0  0  0  0  0  0  0  # atno 6909 bound_to 6896
  145.9604  140.7484  142.9460 H   0  0  0  0  0  0  0  0  0  0  0  0  # atno 7974 bound_to 7965
  154.4009  140.1366  156.4043 H   0  0  0  0  0  0  0  0  0  0  0  0  # atno 8008 bound_to 7997
  155.7794  140.3482  155.5269 H   0  0  0  0  0  0  0  0  0  0  0  0  # atno 8009 bound_to 7997
  155.8688  140.0968  157.1554 H   0  0  0  0  0  0  0  0  0  0  0  0  # atno 8010 bound_to 7997
  139.4921  144.5883  151.6732 H   0  0  0  0  0  0  0  0  0  0  0  0  # atno 10167 bound_to 10162
  156.7450  130.9357  151.3112 H   0  0  0  0  0  0  0  0  0  0  0  0  # atno 10718 bound_to 10713
  154.8036  135.4698  154.0337 H   0  0  0  0  0  0  0  0  0  0  0  0  # atno 10763 bound_to 10752
  153.1823  135.6842  153.8468 H   0  0  0  0  0  0  0  0  0  0  0  0  # atno 10764 bound_to 10752
  153.8014  135.3229  155.3368 H   0  0  0  0  0  0  0  0  0  0  0  0  # atno 10765 bound_to 10752
  140.2284  134.8143  157.3292 H   0  0  0  0  0  0  0  0  0  0  0  0  # atno 11005 bound_to 11000
  144.6814  140.2582  143.7322 LP  0  0  0  0  0  0  0  0  0  0  0  0  # atno 17320 bound_to 7965
  145.8047  139.1978  143.2027 LP  0  0  0  0  0  0  0  0  0  0  0  0  # atno 17321 bound_to 7965
  140.5504  144.0434  150.6125 LP  0  0  0  0  0  0  0  0  0  0  0  0  # atno 17342 bound_to 10162
  140.3486  143.2976  152.0511 LP  0  0  0  0  0  0  0  0  0  0  0  0  # atno 17343 bound_to 10162
  157.6802  130.9132  150.0248 LP  0  0  0  0  0  0  0  0  0  0  0  0  # atno 17370 bound_to 10713
  156.1439  130.3642  149.9540 LP  0  0  0  0  0  0  0  0  0  0  0  0  # atno 17371 bound_to 10713
  140.1776  134.4529  155.7792 LP  0  0  0  0  0  0  0  0  0  0  0  0  # atno 17394 bound_to 11000
  141.2219  133.6969  156.7814 LP  0  0  0  0  0  0  0  0  0  0  0  0  # atno 17395 bound_to 11000

$$$$
