AV-unprocessed.smi:249|AV-procd|sdf|1921|dock10
  -GOLD-   2262021 23D 1   1.00000     0.00000
 Structure written by MMmdl.
 64 67  0  0  0  0  0  0  0  0  2 V2000
  144.2496  131.5522  150.9638 C   0  0  0  0  0  0  0  0  0  0  0  0
  145.5568  130.7425  150.9880 C   0  0  0  0  0  0  0  0  0  0  0  0
  146.6771  131.4353  151.6894 N   0  3  1  0  0  0  0  0  0  0  0  0
  146.5794  132.9187  151.5570 C   0  0  0  0  0  0  0  0  0  0  0  0
  147.7863  133.6384  152.1749 C   0  0  0  0  0  0  0  0  0  0  0  0
  147.9312  133.2594  153.6526 C   0  0  2  0  0  0  0  0  0  0  0  0
  149.0463  133.9565  154.2996 N   0  0  0  0  0  0  0  0  0  0  0  0
  150.4283  133.7274  153.8845 C   0  0  0  0  0  0  0  0  0  0  0  0
  148.7817  135.0343  155.0823 C   0  0  0  0  0  0  0  0  0  0  0  0
  147.5384  135.1672  155.6153 N   0  0  0  0  0  0  0  0  0  0  0  0
  147.2457  136.2087  156.3992 C   0  0  0  0  0  0  0  0  0  0  0  0
  148.0310  137.2224  156.7670 N   0  0  0  0  0  0  0  0  0  0  0  0
  149.2748  137.1074  156.2206 C   0  0  0  0  0  0  0  0  0  0  0  0
  149.7324  136.0546  155.3775 C   0  0  0  0  0  0  0  0  0  0  0  0
  151.0544  136.2867  155.0121 N   0  0  0  0  0  0  0  0  0  0  0  0
  151.3636  137.4017  155.6149 C   0  0  0  0  0  0  0  0  0  0  0  0
  150.3475  137.9729  156.3468 N   0  0  0  0  0  0  0  0  0  0  0  0
  150.4182  139.2041  157.1136 C   0  0  0  0  0  0  0  0  0  0  0  0
  150.7830  140.4653  156.2868 C   0  0  1  0  0  0  0  0  0  0  0  0
  149.7135  140.6800  155.1907 C   0  0  0  0  0  0  0  0  0  0  0  0
  150.0877  140.0715  153.9712 O   0  0  0  0  0  0  0  0  0  0  0  0
  151.0287  141.7461  157.1376 C   0  0  2  0  0  0  0  0  0  0  0  0
  152.1461  141.6219  158.1621 C   0  0  0  0  0  0  0  0  0  0  0  0
  151.8516  142.7826  159.1003 C   0  0  0  0  0  0  0  0  0  0  0  0
  150.4358  142.8096  159.1924 O   0  0  0  0  0  0  0  0  0  0  0  0
  149.8672  142.1826  158.0463 C   0  0  0  0  0  0  0  0  0  0  0  0
  148.0504  131.7344  153.7679 C   0  0  0  0  0  0  0  0  0  0  0  0
  146.8448  131.0178  153.1213 C   0  0  2  0  0  0  0  0  0  0  0  0
  147.0277  129.4956  153.2952 C   0  0  0  0  0  0  0  0  0  0  0  0
  143.5221  131.0763  150.3058 H   0  0  0  0  0  0  0  0  0  0  0  0
  144.4162  132.5633  150.5914 H   0  0  0  0  0  0  0  0  0  0  0  0
  143.7838  131.6212  151.9463 H   0  0  0  0  0  0  0  0  0  0  0  0
  145.3883  129.7617  151.4350 H   0  0  0  0  0  0  0  0  0  0  0  0
  145.8130  130.5684  149.9455 H   0  0  0  0  0  0  0  0  0  0  0  0
  146.5273  133.2100  150.5096 H   0  0  0  0  0  0  0  0  0  0  0  0
  145.6573  133.2653  152.0267 H   0  0  0  0  0  0  0  0  0  0  0  0
  148.6873  133.3766  151.6187 H   0  0  0  0  0  0  0  0  0  0  0  0
  147.6610  134.7173  152.0766 H   0  0  0  0  0  0  0  0  0  0  0  0
  146.9991  133.5564  154.1318 H   0  0  0  0  0  0  0  0  0  0  0  0
  151.1109  133.8588  154.7249 H   0  0  0  0  0  0  0  0  0  0  0  0
  150.7117  134.4270  153.0977 H   0  0  0  0  0  0  0  0  0  0  0  0
  150.5668  132.7168  153.5024 H   0  0  0  0  0  0  0  0  0  0  0  0
  146.2379  136.2338  156.7865 H   0  0  0  0  0  0  0  0  0  0  0  0
  152.3434  137.8490  155.5289 H   0  0  0  0  0  0  0  0  0  0  0  0
  149.4471  139.3409  157.5908 H   0  0  0  0  0  0  0  0  0  0  0  0
  151.1376  139.0651  157.9217 H   0  0  0  0  0  0  0  0  0  0  0  0
  151.7100  140.2509  155.7543 H   0  0  0  0  0  0  0  0  0  0  0  0
  148.7464  140.2844  155.5002 H   0  0  0  0  0  0  0  0  0  0  0  0
  149.5602  141.7452  155.0144 H   0  0  0  0  0  0  0  0  0  0  0  0
  149.3985  140.2128  153.3401 H   0  0  0  0  0  0  0  0  0  0  0  0
  151.2759  142.5762  156.4735 H   0  0  0  0  0  0  0  0  0  0  0  0
  152.0685  140.6769  158.7022 H   0  0  0  0  0  0  0  0  0  0  0  0
  153.1425  141.6869  157.7240 H   0  0  0  0  0  0  0  0  0  0  0  0
  152.3163  142.6644  160.0795 H   0  0  0  0  0  0  0  0  0  0  0  0
  152.1975  143.7220  158.6669 H   0  0  0  0  0  0  0  0  0  0  0  0
  149.1907  142.8728  157.5442 H   0  0  0  0  0  0  0  0  0  0  0  0
  149.2856  141.3256  158.3872 H   0  0  0  0  0  0  0  0  0  0  0  0
  148.9715  131.3886  153.2975 H   0  0  0  0  0  0  0  0  0  0  0  0
  148.1214  131.4600  154.8213 H   0  0  0  0  0  0  0  0  0  0  0  0
  145.9451  131.3131  153.6640 H   0  0  0  0  0  0  0  0  0  0  0  0
  147.3101  129.2522  154.3199 H   0  0  0  0  0  0  0  0  0  0  0  0
  147.8101  129.1105  152.6405 H   0  0  0  0  0  0  0  0  0  0  0  0
  146.1110  128.9409  153.0984 H   0  0  0  0  0  0  0  0  0  0  0  0
  147.5247  131.1579  151.2152 H   0  0  0  0  0  0  0  0  0  0  0  0
  1  2  1  0  0  0  0
  1 30  1  0  0  0  0
  1 31  1  0  0  0  0
  1 32  1  0  0  0  0
  2  3  1  0  0  0  0
  2 33  1  0  0  0  0
  2 34  1  0  0  0  0
  3 28  1  0  0  0  0
  3  4  1  0  0  0  0
  3 64  1  0  0  0  0
  4  5  1  0  0  0  0
  4 35  1  0  0  0  0
  4 36  1  0  0  0  0
  5  6  1  0  0  0  0
  5 37  1  0  0  0  0
  5 38  1  0  0  0  0
  6  7  1  0  0  0  0
  6 27  1  0  0  0  0
  6 39  1  0  0  0  0
  7  8  1  0  0  0  0
  7  9  1  0  0  0  0
  8 40  1  0  0  0  0
  8 41  1  0  0  0  0
  8 42  1  0  0  0  0
  9 14  1  0  0  0  0
  9 10  2  0  0  0  0
 10 11  1  0  0  0  0
 11 12  2  0  0  0  0
 11 43  1  0  0  0  0
 12 13  1  0  0  0  0
 13 17  1  0  0  0  0
 13 14  2  0  0  0  0
 14 15  1  0  0  0  0
 15 16  2  0  0  0  0
 16 17  1  0  0  0  0
 16 44  1  0  0  0  0
 17 18  1  0  0  0  0
 18 19  1  0  0  0  0
 18 45  1  0  0  0  0
 18 46  1  0  0  0  0
 19 20  1  0  0  0  0
 19 22  1  0  0  0  0
 19 47  1  0  0  0  0
 20 21  1  0  0  0  0
 20 48  1  0  0  0  0
 20 49  1  0  0  0  0
 21 50  1  0  0  0  0
 22 26  1  0  0  0  0
 22 23  1  0  0  0  0
 22 51  1  0  0  0  0
 23 24  1  0  0  0  0
 23 52  1  0  0  0  0
 23 53  1  0  0  0  0
 24 25  1  0  0  0  0
 24 54  1  0  0  0  0
 24 55  1  0  0  0  0
 25 26  1  0  0  0  0
 26 56  1  0  0  0  0
 26 57  1  0  0  0  0
 27 28  1  0  0  0  0
 27 58  1  0  0  0  0
 27 59  1  0  0  0  0
 28 29  1  0  0  0  0
 28 60  1  0  0  0  0
 29 61  1  0  0  0  0
 29 62  1  0  0  0  0
 29 63  1  0  0  0  0
M  CHG  1   3   1
M  END
> <s_m_source_file>
AV-unprocessed.smi

> <i_m_source_file_index>
249

> <i_lp_mmshare_version>
43012

> <i_f3d_flags>
0

> <s_epik_input>
W0NIM11bQ0gyXU4xW0NIMl1bQ0gyXVtDQEhdKFtDSDJdW0NASF0xW0NIM10pTihbQ0gzXSljKG5bY0hdbjIpYyhjMjMpbltjSF1uM1tDSDJdW0NASF0oW0NIMl1bT0hdKVtDQEBIXTRbQ0gyXVtDSDJdT1tDSDJdNA==

> <s_epik_cmdline>
J2VwaWtfcHl0aG9uJywgJy1waCcsICc3LjAnLCAnLXRuJywgJzgnLCAnLW1hJywgJzIwMCcsICctbWV0YWxfYmluZGluZycsICctaW1hZScsICc8aW5maWxlLm1hZT4nLCAnLW9tYWUnLCAnPG91dGZpbGUubWFlPic=

> <r_lp_tautomer_probability>
1

> <r_epik_Ionization_Penalty>
0.00294688

> <r_epik_Ionization_Penalty_Charging>
0.00169971

> <r_epik_Ionization_Penalty_Neutral>
0.00124717

> <r_epik_State_Penalty>
-0

> <r_epik_Charging_Adjusted_Penalty>
0.00169971

> <i_epik_Tot_Q>
1

> <i_epik_Tot_abs_Q>
1

> <r_epik_Metal_State_Penalty>
-0

> <b_epik_Metal_Only>
0

> <s_lp_Force_Field>
OPLS_2005

> <r_lp_Energy>
53.8216

> <b_lp_Chiralities_Consistent>
1

> <s_lp_Variant>
AV-unprocessed.smi:249-24

> <Gold.Version>
5.8.1

> <Gold.Id.Protein>
6NUR|6NUR_protein|mol2

> <Gold.PLP.Fitness>
44.1352

> <Gold.PLP.PLP>
-35.9836

> <Gold.PLP.part.hbond>
-3.8741

> <Gold.PLP.part.metal>
0.0000

> <Gold.PLP.part.buried>
-4.3801

> <Gold.PLP.part.nonpolar>
-26.1060

> <Gold.PLP.part.repulsive>
0.2444

> <Gold.PLP.ligand.clash>
0.0000

> <Gold.PLP.ligand.torsion>
1.3474

> <Gold.PLP.Chemscore.Hbond>
3.4606

> <Gold.PLP.Chemscore.CHOScore>
0.0000

> <Gold.PLP.Chemscore.Metal>
0.0000

> <Gold.Chemscore.Hbonds>
donor molecule, donor type, donor heavy atom, donor atom, acceptor molecule, acceptor atom, score
      L1  H     3    64       P1 10747  1.00
      L1  H    21    50       P1  7957  0.30
      P1  H  7989  7998       L1    21  0.90
      P1  H 10752 10763       L1    15  0.96

> <Gold.PLP.Chemscore.Internal.Correction>
0.4649

> <Gold.Rescore>
     Score         DG    S(hbond)    S(metal)    S(lipo)     H(rot)  DE(clash)    DE(int)     intcor
     15.69     -20.23       2.71        0.00     106.76       2.65       1.58       2.96       ----

> <Gold.Chemscore.Fitness>
15.6929

> <Gold.Chemscore.DG>
-20.2278

> <Gold.Chemscore.ZeroCoef>
-5.4800

> <Gold.Chemscore.Hbond>
2.7079

> <Gold.Chemscore.Metal>
0.0000

> <Gold.Chemscore.Lipo>
106.7632

> <Gold.Chemscore.Internal_Hbond>
0.0000

> <Gold.Chemscore.DEClash>
1.5797

> <Gold.Chemscore.DEInternal>
2.9552

> <Gold.Chemscore.Rot>
2.6515

> <Gold.Chemscore.Internal.Correction>
   9.000000E+99

> <Gold.Chemscore.Hbonds>
donor molecule, donor type, donor heavy atom, donor atom, acceptor molecule, acceptor atom, score
      L1  H     3    64       P1 10747  1.00
      L1  H    21    50       P1  7957  0.29
      P1  H  7989  7998       L1    21  0.38
      P1  H 10752 10763       L1    15  0.23

> <Gold.Chemscore.Hbond.Weighted>
-9.0445

> <Gold.Chemscore.Metal.Weighted>
-0.0000

> <Gold.Chemscore.Lipo.Weighted>
-12.4913

> <Gold.Chemscore.Internal_Hbond.Weighted>
0.0000

> <Gold.Chemscore.DEClash.Weighted>
1.5797

> <Gold.Chemscore.DEInternal.Weighted>
2.9552

> <Gold.Chemscore.Rot.Weighted>
6.7880

> <Gold.Chemscore.Internal.Correction.Weighted>
   9.000000E+99

> <Gold.Protein.RotatedTorsions>
[ 6907 6896 6895 6894 ] final  134.96 input  -60.11 | X-H torsion
[ 7974 7965 7964 7962 ] final   41.43 input  175.53 | X-H torsion
[ 8008 7997 7996 7995 ] final  -46.76 input   59.86 | X-H torsion
[ 10167 10162 10161 10158 ] final -145.09 input  -65.29 | X-H torsion
[ 10718 10713 10712 10709 ] final -128.03 input   66.30 | X-H torsion
[ 10763 10752 10751 10750 ] final   60.29 input  -60.55 | X-H torsion
[ 11005 11000 10999 10996 ] final  -96.39 input  -57.11 | X-H torsion

> <Gold.Protein.ActiveResidues>
 VAL166  LYS551  ARG553  GLY616  TRP617  ASP618  TYR619  PRO620  LYS621  CYS622 
 ASP623  PHE694  ASN695  SER759  ASP760  ASP761  ALA762  ILE779  LEU786  VAL792 
 PHE793  MET794  SER795  GLU796  ALA797  LYS798  CYS799  TRP800  GLU811  SER814 

> <Gold.Protein.RotatedAtoms>
  152.3057  133.5700  159.5647 H   0  0  0  0  0  0  0  0  0  0  0  0  # atno 6907 bound_to 6896
  150.7298  134.0226  159.3715 H   0  0  0  0  0  0  0  0  0  0  0  0  # atno 6908 bound_to 6896
  151.8123  135.0677  160.0465 H   0  0  0  0  0  0  0  0  0  0  0  0  # atno 6909 bound_to 6896
  146.0824  139.5416  142.9529 H   0  0  0  0  0  0  0  0  0  0  0  0  # atno 7974 bound_to 7965
  154.4010  140.1363  156.4065 H   0  0  0  0  0  0  0  0  0  0  0  0  # atno 8008 bound_to 7997
  155.7775  140.3482  155.5259 H   0  0  0  0  0  0  0  0  0  0  0  0  # atno 8009 bound_to 7997
  155.8707  140.0971  157.1542 H   0  0  0  0  0  0  0  0  0  0  0  0  # atno 8010 bound_to 7997
  139.7838  143.8063  152.2642 H   0  0  0  0  0  0  0  0  0  0  0  0  # atno 10167 bound_to 10162
  156.1913  130.6797  151.0427 H   0  0  0  0  0  0  0  0  0  0  0  0  # atno 10718 bound_to 10713
  152.9917  135.5541  154.5850 H   0  0  0  0  0  0  0  0  0  0  0  0  # atno 10763 bound_to 10752
  154.5223  135.2808  155.1254 H   0  0  0  0  0  0  0  0  0  0  0  0  # atno 10764 bound_to 10752
  154.2602  135.6382  153.5324 H   0  0  0  0  0  0  0  0  0  0  0  0  # atno 10765 bound_to 10752
  141.1413  133.8094  157.0564 H   0  0  0  0  0  0  0  0  0  0  0  0  # atno 11005 bound_to 11000
  145.6194  141.0325  143.1923 LP  0  0  0  0  0  0  0  0  0  0  0  0  # atno 17320 bound_to 7965
  144.7302  139.7749  143.7350 LP  0  0  0  0  0  0  0  0  0  0  0  0  # atno 17321 bound_to 7965
  139.8134  144.7326  150.9668 LP  0  0  0  0  0  0  0  0  0  0  0  0  # atno 17342 bound_to 10162
  140.7819  143.4229  151.0814 LP  0  0  0  0  0  0  0  0  0  0  0  0  # atno 17343 bound_to 10162
  157.6930  131.0803  150.7051 LP  0  0  0  0  0  0  0  0  0  0  0  0  # atno 17370 bound_to 10713
  156.7107  130.4651  149.5548 LP  0  0  0  0  0  0  0  0  0  0  0  0  # atno 17371 bound_to 10713
  140.0599  134.9760  157.1286 LP  0  0  0  0  0  0  0  0  0  0  0  0  # atno 17394 bound_to 11000
  140.3864  134.2232  155.7168 LP  0  0  0  0  0  0  0  0  0  0  0  0  # atno 17395 bound_to 11000

$$$$
