AV-unprocessed.smi:2173|AV-procd|sdf|8838|dock6
  -GOLD-   2272012 33D 1   1.00000     0.00000
 Structure written by MMmdl.
 35 36  0  0  0  0  0  0  0  0  1 V2000
  153.0725  140.1013  158.3721 O   0  0  0  0  0  0  0  0  0  0  0  0
  152.0753  140.7339  158.0226 C   0  0  0  0  0  0  0  0  0  0  0  0
  151.2218  140.3043  157.0792 N   0  0  0  0  0  0  0  0  0  0  0  0
  151.3657  139.0778  156.2988 C   0  0  0  0  0  0  0  0  0  0  0  0
  151.0251  139.2778  154.8079 C   0  0  0  0  0  0  0  0  0  0  0  0
  149.6194  139.8004  154.5601 C   0  0  0  0  0  0  0  0  0  0  0  0
  148.5663  138.9090  154.2645 C   0  0  0  0  0  0  0  0  0  0  0  0
  147.2903  139.4423  153.9991 C   0  0  0  0  0  0  0  0  0  0  0  0
  147.1168  140.8393  154.0399 C   0  0  0  0  0  0  0  0  0  0  0  0
  148.2319  141.6441  154.3461 C   0  0  0  0  0  0  0  0  0  0  0  0
  149.4591  141.1430  154.6032 N   0  0  0  0  0  0  0  0  0  0  0  0
  151.7653  142.0979  158.6516 C   0  0  2  0  0  0  0  0  0  0  0  0
  151.5296  143.1654  157.5588 C   0  0  0  0  0  0  0  0  0  0  0  0
  151.4678  144.5695  158.1335 C   0  0  0  0  0  0  0  0  0  0  0  0
  151.9000  144.8823  159.3673 C   0  0  0  0  0  0  0  0  0  0  0  0
  152.5048  143.8689  160.3232 C   0  0  0  0  0  0  0  0  0  0  0  0
  152.8787  142.5517  159.6170 C   0  0  0  0  0  0  0  0  0  0  0  0
  150.4320  140.8930  156.8576 H   0  0  0  0  0  0  0  0  0  0  0  0
  152.3745  138.6741  156.3999 H   0  0  0  0  0  0  0  0  0  0  0  0
  150.6979  138.3289  156.7247 H   0  0  0  0  0  0  0  0  0  0  0  0
  151.7394  139.9700  154.3612 H   0  0  0  0  0  0  0  0  0  0  0  0
  151.1512  138.3337  154.2755 H   0  0  0  0  0  0  0  0  0  0  0  0
  148.7347  137.8428  154.2295 H   0  0  0  0  0  0  0  0  0  0  0  0
  146.4608  138.7921  153.7640 H   0  0  0  0  0  0  0  0  0  0  0  0
  146.1532  141.2834  153.8395 H   0  0  0  0  0  0  0  0  0  0  0  0
  148.1370  142.7191  154.3830 H   0  0  0  0  0  0  0  0  0  0  0  0
  150.8470  142.0014  159.2345 H   0  0  0  0  0  0  0  0  0  0  0  0
  152.3182  143.1431  156.8052 H   0  0  0  0  0  0  0  0  0  0  0  0
  150.5918  142.9610  157.0409 H   0  0  0  0  0  0  0  0  0  0  0  0
  151.0612  145.3398  157.4947 H   0  0  0  0  0  0  0  0  0  0  0  0
  151.8146  145.8983  159.7239 H   0  0  0  0  0  0  0  0  0  0  0  0
  153.3871  144.3012  160.7958 H   0  0  0  0  0  0  0  0  0  0  0  0
  151.7800  143.6784  161.1154 H   0  0  0  0  0  0  0  0  0  0  0  0
  153.0854  141.7815  160.3613 H   0  0  0  0  0  0  0  0  0  0  0  0
  153.8065  142.6982  159.0610 H   0  0  0  0  0  0  0  0  0  0  0  0
  1  2  2  0  0  0  0
  2  3  1  0  0  0  0
  2 12  1  0  0  0  0
  3  4  1  0  0  0  0
  3 18  1  0  0  0  0
  4  5  1  0  0  0  0
  4 19  1  0  0  0  0
  4 20  1  0  0  0  0
  5  6  1  0  0  0  0
  5 21  1  0  0  0  0
  5 22  1  0  0  0  0
  6 11  1  0  0  0  0
  6  7  2  0  0  0  0
  7  8  1  0  0  0  0
  7 23  1  0  0  0  0
  8  9  2  0  0  0  0
  8 24  1  0  0  0  0
  9 10  1  0  0  0  0
  9 25  1  0  0  0  0
 10 11  2  0  0  0  0
 10 26  1  0  0  0  0
 12 17  1  0  0  0  0
 12 13  1  0  0  0  0
 12 27  1  0  0  0  0
 13 14  1  0  0  0  0
 13 28  1  0  0  0  0
 13 29  1  0  0  0  0
 14 15  2  0  0  0  0
 14 30  1  0  0  0  0
 15 16  1  0  0  0  0
 15 31  1  0  0  0  0
 16 17  1  0  0  0  0
 16 32  1  0  0  0  0
 16 33  1  0  0  0  0
 17 34  1  0  0  0  0
 17 35  1  0  0  0  0
M  END
> <s_m_source_file>
AV-unprocessed.smi

> <i_m_source_file_index>
2173

> <i_lp_mmshare_version>
43012

> <i_f3d_flags>
0

> <s_epik_input>
W0NIMl0xW0NIMl1bQ0hdPVtDSF1bQ0gyXVtDQEhdMUMoPU8pW05IXVtDSDJdW0NIMl1jMltjSF1bY0hdW2NIXVtjSF1uMg==

> <s_epik_cmdline>
J2VwaWtfcHl0aG9uJywgJy1waCcsICc3LjAnLCAnLXRuJywgJzgnLCAnLW1hJywgJzIwMCcsICctbWV0YWxfYmluZGluZycsICctaW1hZScsICc8aW5maWxlLm1hZT4nLCAnLW9tYWUnLCAnPG91dGZpbGUubWFlPic=

> <r_epik_Ionization_Penalty>
0.0268825

> <r_epik_Ionization_Penalty_Charging>
0

> <r_epik_Ionization_Penalty_Neutral>
0.0268825

> <r_epik_State_Penalty>
0.0219706

> <r_epik_Charging_Adjusted_Penalty>
0.0219706

> <i_epik_Tot_Q>
0

> <i_epik_Tot_abs_Q>
0

> <r_epik_Metal_State_Penalty>
0.0210138

> <b_epik_Metal_Only>
0

> <s_lp_Force_Field>
OPLS_2005

> <r_lp_Energy>
7.98713

> <b_lp_Chiralities_Consistent>
1

> <s_lp_Variant>
AV-unprocessed.smi:2173-1

> <Gold.Version>
5.8.1

> <Gold.Id.Protein>
6NUR|6NUR_protein|mol2

> <Gold.PLP.Fitness>
45.5665

> <Gold.PLP.PLP>
-40.6785

> <Gold.PLP.part.hbond>
-2.3722

> <Gold.PLP.part.metal>
0.0000

> <Gold.PLP.part.buried>
-0.3687

> <Gold.PLP.part.nonpolar>
-36.0080

> <Gold.PLP.part.repulsive>
0.2352

> <Gold.PLP.ligand.clash>
0.0000

> <Gold.PLP.ligand.torsion>
0.5685

> <Gold.PLP.Chemscore.Hbond>
1.0000

> <Gold.PLP.Chemscore.CHOScore>
1.0000

> <Gold.PLP.Chemscore.Metal>
0.0000

> <Gold.Chemscore.Hbonds>
donor molecule, donor type, donor heavy atom, donor atom, acceptor molecule, acceptor atom, score
      P1  H  7997  8008       L1     1  1.00
      L1  C    10    26       P1  8028  1.00

> <Gold.PLP.Chemscore.Internal.Correction>
0.0251

> <Gold.Rescore>
     Score         DG    S(hbond)    S(metal)    S(lipo)     H(rot)  DE(clash)    DE(int)     intcor
     17.48     -18.30       0.86        0.00     115.55       1.39       0.30       0.52       ----

> <Gold.Chemscore.Fitness>
17.4804

> <Gold.Chemscore.DG>
-18.3031

> <Gold.Chemscore.ZeroCoef>
-5.4800

> <Gold.Chemscore.Hbond>
0.8573

> <Gold.Chemscore.Metal>
0.0000

> <Gold.Chemscore.Lipo>
115.5535

> <Gold.Chemscore.Internal_Hbond>
0.0000

> <Gold.Chemscore.DEClash>
0.3013

> <Gold.Chemscore.DEInternal>
0.5214

> <Gold.Chemscore.Rot>
1.3907

> <Gold.Chemscore.Internal.Correction>
   9.000000E+99

> <Gold.Chemscore.Hbonds>
donor molecule, donor type, donor heavy atom, donor atom, acceptor molecule, acceptor atom, score
      P1  H  7997  8008       L1     1  0.84

> <Gold.Chemscore.Hbond.Weighted>
-2.8635

> <Gold.Chemscore.Metal.Weighted>
-0.0000

> <Gold.Chemscore.Lipo.Weighted>
-13.5198

> <Gold.Chemscore.Internal_Hbond.Weighted>
0.0000

> <Gold.Chemscore.DEClash.Weighted>
0.3013

> <Gold.Chemscore.DEInternal.Weighted>
0.5214

> <Gold.Chemscore.Rot.Weighted>
3.5601

> <Gold.Chemscore.Internal.Correction.Weighted>
   9.000000E+99

> <Gold.Protein.RotatedTorsions>
[ 6907 6896 6895 6894 ] final  -55.44 input  -60.11 | X-H torsion
[ 7974 7965 7964 7962 ] final  153.12 input  175.53 | X-H torsion
[ 8008 7997 7996 7995 ] final  -88.94 input   59.86 | X-H torsion
[ 10167 10162 10161 10158 ] final   39.57 input  -65.29 | X-H torsion
[ 10718 10713 10712 10709 ] final -160.77 input   66.30 | X-H torsion
[ 10763 10752 10751 10750 ] final    8.76 input  -60.55 | X-H torsion
[ 11005 11000 10999 10996 ] final  -27.00 input  -57.11 | X-H torsion

> <Gold.Protein.ActiveResidues>
 VAL166  LYS551  ARG553  GLY616  TRP617  ASP618  TYR619  PRO620  LYS621  CYS622 
 ASP623  PHE694  ASN695  SER759  ASP760  ASP761  ALA762  ILE779  LEU786  VAL792 
 PHE793  MET794  SER795  GLU796  ALA797  LYS798  CYS799  TRP800  GLU811  SER814 

> <Gold.Protein.RotatedAtoms>
  150.8251  134.7479  159.6805 H   0  0  0  0  0  0  0  0  0  0  0  0  # atno 6907 bound_to 6896
  152.4363  134.5676  159.9922 H   0  0  0  0  0  0  0  0  0  0  0  0  # atno 6908 bound_to 6896
  151.5851  133.3335  159.3052 H   0  0  0  0  0  0  0  0  0  0  0  0  # atno 6909 bound_to 6896
  144.8176  139.6758  143.6114 H   0  0  0  0  0  0  0  0  0  0  0  0  # atno 7974 bound_to 7965
  154.6807  140.0547  157.0263 H   0  0  0  0  0  0  0  0  0  0  0  0  # atno 8008 bound_to 7997
  155.0955  140.3223  155.4543 H   0  0  0  0  0  0  0  0  0  0  0  0  # atno 8009 bound_to 7997
  156.2693  140.2040  156.6082 H   0  0  0  0  0  0  0  0  0  0  0  0  # atno 8010 bound_to 7997
  140.3826  144.1959  150.6130 H   0  0  0  0  0  0  0  0  0  0  0  0  # atno 10167 bound_to 10162
  156.5868  130.8753  151.2879 H   0  0  0  0  0  0  0  0  0  0  0  0  # atno 10718 bound_to 10713
  153.2214  135.6881  153.7995 H   0  0  0  0  0  0  0  0  0  0  0  0  # atno 10763 bound_to 10752
  153.7192  135.3270  155.3264 H   0  0  0  0  0  0  0  0  0  0  0  0  # atno 10764 bound_to 10752
  154.8271  135.4609  154.1063 H   0  0  0  0  0  0  0  0  0  0  0  0  # atno 10765 bound_to 10752
  140.9080  133.7479  156.0632 H   0  0  0  0  0  0  0  0  0  0  0  0  # atno 11005 bound_to 11000
  146.2480  139.6139  142.9446 LP  0  0  0  0  0  0  0  0  0  0  0  0  # atno 17320 bound_to 7965
  145.5178  141.0433  143.2452 LP  0  0  0  0  0  0  0  0  0  0  0  0  # atno 17321 bound_to 7965
  140.4921  143.2344  151.8802 LP  0  0  0  0  0  0  0  0  0  0  0  0  # atno 17342 bound_to 10162
  139.4794  144.5154  151.8875 LP  0  0  0  0  0  0  0  0  0  0  0  0  # atno 17343 bound_to 10162
  157.7313  130.9698  150.1875 LP  0  0  0  0  0  0  0  0  0  0  0  0  # atno 17370 bound_to 10713
  156.2584  130.3708  149.8157 LP  0  0  0  0  0  0  0  0  0  0  0  0  # atno 17371 bound_to 10713
  140.8146  134.3360  157.5401 LP  0  0  0  0  0  0  0  0  0  0  0  0  # atno 17394 bound_to 11000
  139.8752  134.9274  156.3424 LP  0  0  0  0  0  0  0  0  0  0  0  0  # atno 17395 bound_to 11000

$$$$
