AV-unprocessed.smi:747|AV-procd|sdf|3581|dock1
  -GOLD-   22720 0573D 1   1.00000     0.00000
 Structure written by MMmdl.
 48 49  0  0  0  0  0  0  0  0  1 V2000
  147.4955  135.0911  163.3327 C   0  0  0  0  0  0  0  0  0  0  0  0
  147.7388  134.9498  161.9124 N   0  0  0  0  0  0  0  0  0  0  0  0
  147.6921  133.6615  161.3261 C   0  0  0  0  0  0  0  0  0  0  0  0
  147.4566  132.6427  161.9762 O   0  0  0  0  0  0  0  0  0  0  0  0
  147.9454  133.6436  159.8901 C   0  0  0  0  0  0  0  0  0  0  0  0
  148.1979  134.7860  159.2144 C   0  0  0  0  0  0  0  0  0  0  0  0
  148.2368  136.0322  159.8126 N   0  0  0  0  0  0  0  0  0  0  0  0
  148.4973  137.2257  158.9990 C   0  0  0  0  0  0  0  0  0  0  0  0
  149.9512  137.6950  159.1204 C   0  0  0  0  0  0  0  0  0  0  0  0
  150.7581  137.0451  159.7856 O   0  0  0  0  0  0  0  0  0  0  0  0
  150.2618  138.8299  158.4742 N   0  0  0  0  0  0  0  0  0  0  0  0
  151.5953  139.4334  158.3776 C   0  0  1  0  0  0  0  0  0  0  0  0
  152.1284  139.2638  156.9288 C   0  0  0  0  0  0  0  0  0  0  0  0
  151.0472  139.3470  155.8415 C   0  0  0  0  0  0  0  0  0  0  0  0
  149.9989  138.5287  155.9606 N   0  0  0  0  0  0  0  0  0  0  0  0
  151.1546  140.1400  154.9083 O   0  0  0  0  0  0  0  0  0  0  0  0
  151.5395  140.9159  158.8470 C   0  0  0  0  0  0  0  0  0  0  0  0
  150.9151  141.8526  157.7834 C   0  0  0  0  0  0  0  0  0  0  0  0
  150.8772  143.3192  158.2427 C   0  0  0  0  0  0  0  0  0  0  0  0
  152.2738  143.8219  158.6276 C   0  0  0  0  0  0  0  0  0  0  0  0
  152.8944  142.9216  159.7027 C   0  0  0  0  0  0  0  0  0  0  0  0
  152.9380  141.4552  159.2447 C   0  0  0  0  0  0  0  0  0  0  0  0
  148.0043  136.1399  161.2008 C   0  0  0  0  0  0  0  0  0  0  0  0
  148.0327  137.2385  161.7623 O   0  0  0  0  0  0  0  0  0  0  0  0
  147.3188  134.1254  163.8046 H   0  0  0  0  0  0  0  0  0  0  0  0
  146.6153  135.7265  163.4466 H   0  0  0  0  0  0  0  0  0  0  0  0
  148.3817  135.5564  163.7683 H   0  0  0  0  0  0  0  0  0  0  0  0
  147.9279  132.7025  159.3601 H   0  0  0  0  0  0  0  0  0  0  0  0
  148.3737  134.7193  158.1505 H   0  0  0  0  0  0  0  0  0  0  0  0
  148.2452  137.0288  157.9550 H   0  0  0  0  0  0  0  0  0  0  0  0
  147.8474  138.0444  159.3107 H   0  0  0  0  0  0  0  0  0  0  0  0
  149.5218  139.2942  157.9678 H   0  0  0  0  0  0  0  0  0  0  0  0
  152.2835  138.9112  159.0451 H   0  0  0  0  0  0  0  0  0  0  0  0
  152.9017  140.0082  156.7329 H   0  0  0  0  0  0  0  0  0  0  0  0
  152.6008  138.2902  156.8071 H   0  0  0  0  0  0  0  0  0  0  0  0
  149.2577  138.5518  155.2757 H   0  0  0  0  0  0  0  0  0  0  0  0
  149.9485  137.8935  156.7441 H   0  0  0  0  0  0  0  0  0  0  0  0
  150.9074  140.9587  159.7355 H   0  0  0  0  0  0  0  0  0  0  0  0
  151.4776  141.7775  156.8518 H   0  0  0  0  0  0  0  0  0  0  0  0
  149.8942  141.5513  157.5535 H   0  0  0  0  0  0  0  0  0  0  0  0
  150.4640  143.9450  157.4511 H   0  0  0  0  0  0  0  0  0  0  0  0
  150.2048  143.4170  159.0960 H   0  0  0  0  0  0  0  0  0  0  0  0
  152.9152  143.8383  157.7456 H   0  0  0  0  0  0  0  0  0  0  0  0
  152.2143  144.8488  158.9889 H   0  0  0  0  0  0  0  0  0  0  0  0
  153.9016  143.2663  159.9385 H   0  0  0  0  0  0  0  0  0  0  0  0
  152.3167  142.9999  160.6247 H   0  0  0  0  0  0  0  0  0  0  0  0
  153.3680  140.8622  160.0517 H   0  0  0  0  0  0  0  0  0  0  0  0
  153.6201  141.3598  158.3988 H   0  0  0  0  0  0  0  0  0  0  0  0
  1  2  1  0  0  0  0
  1 25  1  0  0  0  0
  1 26  1  0  0  0  0
  1 27  1  0  0  0  0
  2 23  1  0  0  0  0
  2  3  1  0  0  0  0
  3  4  2  0  0  0  0
  3  5  1  0  0  0  0
  5  6  2  0  0  0  0
  5 28  1  0  0  0  0
  6  7  1  0  0  0  0
  6 29  1  0  0  0  0
  7  8  1  0  0  0  0
  7 23  1  0  0  0  0
  8  9  1  0  0  0  0
  8 30  1  0  0  0  0
  8 31  1  0  0  0  0
  9 10  2  0  0  0  0
  9 11  1  0  0  0  0
 11 12  1  0  0  0  0
 11 32  1  0  0  0  0
 12 13  1  0  0  0  0
 12 17  1  0  0  0  0
 12 33  1  0  0  0  0
 13 14  1  0  0  0  0
 13 34  1  0  0  0  0
 13 35  1  0  0  0  0
 14 15  1  0  0  0  0
 14 16  2  0  0  0  0
 15 36  1  0  0  0  0
 15 37  1  0  0  0  0
 17 22  1  0  0  0  0
 17 18  1  0  0  0  0
 17 38  1  0  0  0  0
 18 19  1  0  0  0  0
 18 39  1  0  0  0  0
 18 40  1  0  0  0  0
 19 20  1  0  0  0  0
 19 41  1  0  0  0  0
 19 42  1  0  0  0  0
 20 21  1  0  0  0  0
 20 43  1  0  0  0  0
 20 44  1  0  0  0  0
 21 22  1  0  0  0  0
 21 45  1  0  0  0  0
 21 46  1  0  0  0  0
 22 47  1  0  0  0  0
 22 48  1  0  0  0  0
 23 24  2  0  0  0  0
M  END
> <s_m_source_file>
AV-unprocessed.smi

> <i_m_source_file_index>
747

> <i_lp_mmshare_version>
43012

> <i_f3d_flags>
0

> <s_epik_input>
W0NIM11uMWMoPU8pW2NIXVtjSF1uKGMxPU8pW0NIMl1DKD1PKVtOSF1bQ0BIXShbQ0gyXUMoPU8pW05IMl0pW0NIXTJbQ0gyXVtDSDJdW0NIMl1bQ0gyXVtDSDJdMg==

> <s_epik_cmdline>
J2VwaWtfcHl0aG9uJywgJy1waCcsICc3LjAnLCAnLXRuJywgJzgnLCAnLW1hJywgJzIwMCcsICctbWV0YWxfYmluZGluZycsICctaW1hZScsICc8aW5maWxlLm1hZT4nLCAnLW9tYWUnLCAnPG91dGZpbGUubWFlPic=

> <r_lp_tautomer_probability>
1

> <r_epik_Ionization_Penalty>
6.11221e-08

> <r_epik_Ionization_Penalty_Charging>
1.14855e-08

> <r_epik_Ionization_Penalty_Neutral>
4.96365e-08

> <r_epik_State_Penalty>
-0

> <r_epik_Charging_Adjusted_Penalty>
1.14855e-08

> <i_epik_Tot_Q>
0

> <i_epik_Tot_abs_Q>
0

> <r_epik_Metal_State_Penalty>
-0

> <b_epik_Metal_Only>
0

> <s_lp_Force_Field>
OPLS_2005

> <r_lp_Energy>
16.3445

> <b_lp_Chiralities_Consistent>
1

> <s_lp_Variant>
AV-unprocessed.smi:747-2

> <Gold.Version>
5.8.1

> <Gold.Id.Protein>
6NUR|6NUR_protein|mol2

> <Gold.PLP.Fitness>
54.1014

> <Gold.PLP.PLP>
-44.6408

> <Gold.PLP.part.hbond>
-3.8946

> <Gold.PLP.part.metal>
0.0000

> <Gold.PLP.part.buried>
-5.8283

> <Gold.PLP.part.nonpolar>
-35.8107

> <Gold.PLP.part.repulsive>
0.2301

> <Gold.PLP.ligand.clash>
0.0000

> <Gold.PLP.ligand.torsion>
1.0001

> <Gold.PLP.Chemscore.Hbond>
3.6953

> <Gold.PLP.Chemscore.CHOScore>
0.0000

> <Gold.PLP.Chemscore.Metal>
0.0000

> <Gold.Chemscore.Hbonds>
donor molecule, donor type, donor heavy atom, donor atom, acceptor molecule, acceptor atom, score
      P1  H  6896  6908       L1    10  1.00
      P1  H  6931  6943       L1    24  0.75
      P1  H  6934  6947       L1    24  0.42
      P1  H  7989  7998       L1    16  1.00

> <Gold.PLP.Chemscore.Internal.Correction>
0.3750

> <Gold.Rescore>
     Score         DG    S(hbond)    S(metal)    S(lipo)     H(rot)  DE(clash)    DE(int)     intcor
     17.60     -19.99       3.73        0.00      81.31       2.91       0.00       2.39       ----

> <Gold.Chemscore.Fitness>
17.6012

> <Gold.Chemscore.DG>
-19.9911

> <Gold.Chemscore.ZeroCoef>
-5.4800

> <Gold.Chemscore.Hbond>
3.7285

> <Gold.Chemscore.Metal>
0.0000

> <Gold.Chemscore.Lipo>
81.3082

> <Gold.Chemscore.Internal_Hbond>
0.0000

> <Gold.Chemscore.DEClash>
0.0048

> <Gold.Chemscore.DEInternal>
2.3851

> <Gold.Chemscore.Rot>
2.9122

> <Gold.Chemscore.Internal.Correction>
   9.000000E+99

> <Gold.Chemscore.Hbonds>
donor molecule, donor type, donor heavy atom, donor atom, acceptor molecule, acceptor atom, score
      P1  H  6896  6908       L1    10  0.97
      P1  H  6931  6943       L1    24  0.72
      P1  H  6934  6947       L1    24  0.42
      P1  H  7989  7998       L1    16  0.99

> <Gold.Chemscore.Hbond.Weighted>
-12.4533

> <Gold.Chemscore.Metal.Weighted>
-0.0000

> <Gold.Chemscore.Lipo.Weighted>
-9.5131

> <Gold.Chemscore.Internal_Hbond.Weighted>
0.0000

> <Gold.Chemscore.DEClash.Weighted>
0.0048

> <Gold.Chemscore.DEInternal.Weighted>
2.3851

> <Gold.Chemscore.Rot.Weighted>
7.4553

> <Gold.Chemscore.Internal.Correction.Weighted>
   9.000000E+99

> <Gold.Protein.RotatedTorsions>
[ 6907 6896 6895 6894 ] final -145.82 input  -60.11 | X-H torsion
[ 7974 7965 7964 7962 ] final  -51.76 input  175.53 | X-H torsion
[ 8008 7997 7996 7995 ] final   23.18 input   59.86 | X-H torsion
[ 10167 10162 10161 10158 ] final  148.59 input  -65.29 | X-H torsion
[ 10718 10713 10712 10709 ] final  136.69 input   66.30 | X-H torsion
[ 10763 10752 10751 10750 ] final -118.36 input  -60.55 | X-H torsion
[ 11005 11000 10999 10996 ] final  128.69 input  -57.11 | X-H torsion

> <Gold.Protein.ActiveResidues>
 VAL166  LYS551  ARG553  GLY616  TRP617  ASP618  TYR619  PRO620  LYS621  CYS622 
 ASP623  PHE694  ASN695  SER759  ASP760  ASP761  ALA762  ILE779  LEU786  VAL792 
 PHE793  MET794  SER795  GLU796  ALA797  LYS798  CYS799  TRP800  GLU811  SER814 

> <Gold.Protein.RotatedAtoms>
  151.1331  133.5023  159.2598 H   0  0  0  0  0  0  0  0  0  0  0  0  # atno 6907 bound_to 6896
  151.1736  135.0328  159.8772 H   0  0  0  0  0  0  0  0  0  0  0  0  # atno 6908 bound_to 6896
  152.5460  134.1192  159.8445 H   0  0  0  0  0  0  0  0  0  0  0  0  # atno 6909 bound_to 6896
  145.9155  140.7879  142.9674 H   0  0  0  0  0  0  0  0  0  0  0  0  # atno 7974 bound_to 7965
  154.9769  140.3097  155.4963 H   0  0  0  0  0  0  0  0  0  0  0  0  # atno 8008 bound_to 7997
  156.2958  140.2273  156.4805 H   0  0  0  0  0  0  0  0  0  0  0  0  # atno 8009 bound_to 7997
  154.7825  140.0445  157.1126 H   0  0  0  0  0  0  0  0  0  0  0  0  # atno 8010 bound_to 7997
  139.4873  144.5668  151.7130 H   0  0  0  0  0  0  0  0  0  0  0  0  # atno 10167 bound_to 10162
  157.4440  131.1060  151.0111 H   0  0  0  0  0  0  0  0  0  0  0  0  # atno 10718 bound_to 10713
  154.8585  135.4276  154.2127 H   0  0  0  0  0  0  0  0  0  0  0  0  # atno 10763 bound_to 10752
  153.3149  135.6978  153.7088 H   0  0  0  0  0  0  0  0  0  0  0  0  # atno 10764 bound_to 10752
  153.6166  135.3509  155.2970 H   0  0  0  0  0  0  0  0  0  0  0  0  # atno 10765 bound_to 10752
  139.9574  134.9610  156.9039 H   0  0  0  0  0  0  0  0  0  0  0  0  # atno 11005 bound_to 11000
  144.6747  140.1893  143.7398 LP  0  0  0  0  0  0  0  0  0  0  0  0  # atno 17320 bound_to 7965
  145.8617  139.2226  143.1712 LP  0  0  0  0  0  0  0  0  0  0  0  0  # atno 17321 bound_to 7965
  140.5247  144.0824  150.6034 LP  0  0  0  0  0  0  0  0  0  0  0  0  # atno 17342 bound_to 10162
  140.3794  143.2811  152.0188 LP  0  0  0  0  0  0  0  0  0  0  0  0  # atno 17343 bound_to 10162
  157.0964  130.5963  149.5450 LP  0  0  0  0  0  0  0  0  0  0  0  0  # atno 17370 bound_to 10713
  155.9960  130.5028  150.7479 LP  0  0  0  0  0  0  0  0  0  0  0  0  # atno 17371 bound_to 10713
  140.5577  134.0565  155.7389 LP  0  0  0  0  0  0  0  0  0  0  0  0  # atno 17394 bound_to 11000
  141.1247  133.9402  157.2658 LP  0  0  0  0  0  0  0  0  0  0  0  0  # atno 17395 bound_to 11000

$$$$
