AV-unprocessed.smi:2311|AV-procd|sdf|9261|dock3
  -GOLD-   2272012483D 1   1.00000     0.00000
 Structure written by MMmdl.
 40 41  0  0  0  0  0  0  0  0  1 V2000
  141.8307  134.3026  153.0470 C   0  0  0  0  0  0  0  0  0  0  0  0
  143.1674  134.2846  152.3358 C   0  0  0  0  0  0  0  0  0  0  0  0
  143.4733  133.2839  151.3926 C   0  0  0  0  0  0  0  0  0  0  0  0
  144.7339  133.3232  150.7701 C   0  0  0  0  0  0  0  0  0  0  0  0
  145.6302  134.3533  151.1144 C   0  0  0  0  0  0  0  0  0  0  0  0
  145.2454  135.3188  152.0719 C   0  0  0  0  0  0  0  0  0  0  0  0
  146.2199  136.3142  152.3491 N   0  0  0  0  0  0  0  0  0  0  0  0
  146.1328  137.3476  153.2057 C   0  0  0  0  0  0  0  0  0  0  0  0
  145.1585  137.6073  153.9127 O   0  0  0  0  0  0  0  0  0  0  0  0
  147.2580  138.0774  153.2016 N   0  0  0  0  0  0  0  0  0  0  0  0
  147.4928  139.2652  154.0182 C   0  0  2  0  0  0  0  0  0  0  0  0
  147.3100  140.5258  153.1648 C   0  0  0  0  0  0  0  0  0  0  0  0
  147.6676  141.7810  153.9722 C   0  0  0  0  0  0  0  0  0  0  0  0
  148.9975  141.6861  154.4792 O   0  0  0  0  0  0  0  0  0  0  0  0
  149.2708  140.5718  155.3355 C   0  0  0  0  0  0  0  0  0  0  0  0
  150.7846  140.6277  155.5992 C   0  0  0  0  0  0  0  0  0  0  0  0
  148.5245  140.7159  156.6795 C   0  0  0  0  0  0  0  0  0  0  0  0
  148.9171  139.2548  154.6031 C   0  0  0  0  0  0  0  0  0  0  0  0
  144.0269  135.2724  152.6663 N   0  0  0  0  0  0  0  0  0  0  0  0
  141.1451  133.5712  152.6182 H   0  0  0  0  0  0  0  0  0  0  0  0
  141.3691  135.2872  152.9678 H   0  0  0  0  0  0  0  0  0  0  0  0
  141.9626  134.0687  154.1036 H   0  0  0  0  0  0  0  0  0  0  0  0
  142.7641  132.5056  151.1513 H   0  0  0  0  0  0  0  0  0  0  0  0
  145.0098  132.5759  150.0407 H   0  0  0  0  0  0  0  0  0  0  0  0
  146.6026  134.3971  150.6455 H   0  0  0  0  0  0  0  0  0  0  0  0
  147.0851  136.2278  151.8371 H   0  0  0  0  0  0  0  0  0  0  0  0
  148.0084  137.7916  152.5901 H   0  0  0  0  0  0  0  0  0  0  0  0
  146.7623  139.2870  154.8284 H   0  0  0  0  0  0  0  0  0  0  0  0
  147.9492  140.4740  152.2820 H   0  0  0  0  0  0  0  0  0  0  0  0
  146.2830  140.5947  152.8042 H   0  0  0  0  0  0  0  0  0  0  0  0
  147.6071  142.6605  153.3311 H   0  0  0  0  0  0  0  0  0  0  0  0
  146.9539  141.9427  154.7797 H   0  0  0  0  0  0  0  0  0  0  0  0
  151.1076  139.8023  156.2349 H   0  0  0  0  0  0  0  0  0  0  0  0
  151.0651  141.5574  156.0954 H   0  0  0  0  0  0  0  0  0  0  0  0
  151.3517  140.5702  154.6696 H   0  0  0  0  0  0  0  0  0  0  0  0
  148.8108  139.9223  157.3705 H   0  0  0  0  0  0  0  0  0  0  0  0
  147.4423  140.6646  156.5697 H   0  0  0  0  0  0  0  0  0  0  0  0
  148.7596  141.6673  157.1574 H   0  0  0  0  0  0  0  0  0  0  0  0
  149.0452  138.4069  155.2777 H   0  0  0  0  0  0  0  0  0  0  0  0
  149.6248  139.1003  153.7869 H   0  0  0  0  0  0  0  0  0  0  0  0
  1  2  1  0  0  0  0
  1 20  1  0  0  0  0
  1 21  1  0  0  0  0
  1 22  1  0  0  0  0
  2 19  1  0  0  0  0
  2  3  2  0  0  0  0
  3  4  1  0  0  0  0
  3 23  1  0  0  0  0
  4  5  2  0  0  0  0
  4 24  1  0  0  0  0
  5  6  1  0  0  0  0
  5 25  1  0  0  0  0
  6  7  1  0  0  0  0
  6 19  2  0  0  0  0
  7  8  1  0  0  0  0
  7 26  1  0  0  0  0
  8  9  2  0  0  0  0
  8 10  1  0  0  0  0
 10 11  1  0  0  0  0
 10 27  1  0  0  0  0
 11 18  1  0  0  0  0
 11 12  1  0  0  0  0
 11 28  1  0  0  0  0
 12 13  1  0  0  0  0
 12 29  1  0  0  0  0
 12 30  1  0  0  0  0
 13 14  1  0  0  0  0
 13 31  1  0  0  0  0
 13 32  1  0  0  0  0
 14 15  1  0  0  0  0
 15 16  1  0  0  0  0
 15 17  1  0  0  0  0
 15 18  1  0  0  0  0
 16 33  1  0  0  0  0
 16 34  1  0  0  0  0
 16 35  1  0  0  0  0
 17 36  1  0  0  0  0
 17 37  1  0  0  0  0
 17 38  1  0  0  0  0
 18 39  1  0  0  0  0
 18 40  1  0  0  0  0
M  END
> <s_m_source_file>
AV-unprocessed.smi

> <i_m_source_file_index>
2311

> <i_lp_mmshare_version>
43012

> <i_f3d_flags>
0

> <s_epik_input>
W0NIM11jMVtjSF1bY0hdW2NIXWMobjEpW05IXUMoPU8pW05IXVtDQEBIXShbQ0gyXTIpW0NIMl1bQ0gyXU9DMihbQ0gzXSlbQ0gzXQ==

> <s_epik_cmdline>
J2VwaWtfcHl0aG9uJywgJy1waCcsICc3LjAnLCAnLXRuJywgJzgnLCAnLW1hJywgJzIwMCcsICctbWV0YWxfYmluZGluZycsICctaW1hZScsICc8aW5maWxlLm1hZT4nLCAnLW9tYWUnLCAnPG91dGZpbGUubWFlPic=

> <r_lp_tautomer_probability>
1

> <r_epik_Ionization_Penalty>
8.54628e-05

> <r_epik_Ionization_Penalty_Charging>
0

> <r_epik_Ionization_Penalty_Neutral>
8.54628e-05

> <r_epik_State_Penalty>
-0

> <r_epik_Charging_Adjusted_Penalty>
0

> <i_epik_Tot_Q>
0

> <i_epik_Tot_abs_Q>
0

> <r_epik_Metal_State_Penalty>
-0

> <b_epik_Metal_Only>
0

> <s_lp_Force_Field>
OPLS_2005

> <r_lp_Energy>
12.4956

> <b_lp_Chiralities_Consistent>
1

> <s_lp_Variant>
AV-unprocessed.smi:2311-1

> <Gold.Version>
5.8.1

> <Gold.Id.Protein>
6NUR|6NUR_protein|mol2

> <Gold.PLP.Fitness>
36.6859

> <Gold.PLP.PLP>
-31.1368

> <Gold.PLP.part.hbond>
-3.0000

> <Gold.PLP.part.metal>
0.0000

> <Gold.PLP.part.buried>
-4.0516

> <Gold.PLP.part.nonpolar>
-24.6769

> <Gold.PLP.part.repulsive>
0.4830

> <Gold.PLP.ligand.clash>
0.0000

> <Gold.PLP.ligand.torsion>
0.2480

> <Gold.PLP.Chemscore.Hbond>
2.0149

> <Gold.PLP.Chemscore.CHOScore>
0.0000

> <Gold.PLP.Chemscore.Metal>
0.0000

> <Gold.Chemscore.Hbonds>
donor molecule, donor type, donor heavy atom, donor atom, acceptor molecule, acceptor atom, score
      L1  H     7    26       P1  7948  0.99
      L1  H    10    27       P1  7948  0.90
      P1  H  8011  8017       L1    14  0.02

> <Gold.PLP.Chemscore.Internal.Correction>
0.0002

> <Gold.Rescore>
     Score         DG    S(hbond)    S(metal)    S(lipo)     H(rot)  DE(clash)    DE(int)     intcor
     16.07     -17.63       1.89        0.00      71.79       1.00       0.03       1.54       ----

> <Gold.Chemscore.Fitness>
16.0657

> <Gold.Chemscore.DG>
-17.6320

> <Gold.Chemscore.ZeroCoef>
-5.4800

> <Gold.Chemscore.Hbond>
1.8899

> <Gold.Chemscore.Metal>
0.0000

> <Gold.Chemscore.Lipo>
71.7934

> <Gold.Chemscore.Internal_Hbond>
0.0000

> <Gold.Chemscore.DEClash>
0.0270

> <Gold.Chemscore.DEInternal>
1.5393

> <Gold.Chemscore.Rot>
1.0000

> <Gold.Chemscore.Internal.Correction>
   9.000000E+99

> <Gold.Chemscore.Hbonds>
donor molecule, donor type, donor heavy atom, donor atom, acceptor molecule, acceptor atom, score
      L1  H     7    26       P1  7948  0.94
      L1  H    10    27       P1  7948  0.87

> <Gold.Chemscore.Hbond.Weighted>
-6.3122

> <Gold.Chemscore.Metal.Weighted>
-0.0000

> <Gold.Chemscore.Lipo.Weighted>
-8.3998

> <Gold.Chemscore.Internal_Hbond.Weighted>
0.0000

> <Gold.Chemscore.DEClash.Weighted>
0.0270

> <Gold.Chemscore.DEInternal.Weighted>
1.5393

> <Gold.Chemscore.Rot.Weighted>
2.5600

> <Gold.Chemscore.Internal.Correction.Weighted>
   9.000000E+99

> <Gold.Protein.RotatedTorsions>
[ 6907 6896 6895 6894 ] final  -75.72 input  -60.11 | X-H torsion
[ 7974 7965 7964 7962 ] final -111.99 input  175.53 | X-H torsion
[ 8008 7997 7996 7995 ] final   88.43 input   59.86 | X-H torsion
[ 10167 10162 10161 10158 ] final  156.28 input  -65.29 | X-H torsion
[ 10718 10713 10712 10709 ] final  179.83 input   66.30 | X-H torsion
[ 10763 10752 10751 10750 ] final   40.94 input  -60.55 | X-H torsion
[ 11005 11000 10999 10996 ] final  119.77 input  -57.11 | X-H torsion

> <Gold.Protein.ActiveResidues>
 VAL166  LYS551  ARG553  GLY616  TRP617  ASP618  TYR619  PRO620  LYS621  CYS622 
 ASP623  PHE694  ASN695  SER759  ASP760  ASP761  ALA762  ILE779  LEU786  VAL792 
 PHE793  MET794  SER795  GLU796  ALA797  LYS798  CYS799  TRP800  GLU811  SER814 

> <Gold.Protein.RotatedAtoms>
  150.7050  134.4679  159.5411 H   0  0  0  0  0  0  0  0  0  0  0  0  # atno 6907 bound_to 6896
  152.2341  134.8290  160.0478 H   0  0  0  0  0  0  0  0  0  0  0  0  # atno 6908 bound_to 6896
  151.9096  133.3523  159.3895 H   0  0  0  0  0  0  0  0  0  0  0  0  # atno 6909 bound_to 6896
  145.1494  140.8821  143.3655 H   0  0  0  0  0  0  0  0  0  0  0  0  # atno 7974 bound_to 7965
  155.9876  140.3371  155.6722 H   0  0  0  0  0  0  0  0  0  0  0  0  # atno 8008 bound_to 7997
  155.6464  140.0701  157.2619 H   0  0  0  0  0  0  0  0  0  0  0  0  # atno 8009 bound_to 7997
  154.4210  140.1733  156.1615 H   0  0  0  0  0  0  0  0  0  0  0  0  # atno 8010 bound_to 7997
  139.4821  144.5023  151.8150 H   0  0  0  0  0  0  0  0  0  0  0  0  # atno 10167 bound_to 10162
  156.8700  130.9780  151.3074 H   0  0  0  0  0  0  0  0  0  0  0  0  # atno 10718 bound_to 10713
  152.9922  135.6176  154.2707 H   0  0  0  0  0  0  0  0  0  0  0  0  # atno 10763 bound_to 10752
  154.2440  135.2787  155.2844 H   0  0  0  0  0  0  0  0  0  0  0  0  # atno 10764 bound_to 10752
  154.5345  135.5778  153.6844 H   0  0  0  0  0  0  0  0  0  0  0  0  # atno 10765 bound_to 10752
  139.9159  134.9630  156.7706 H   0  0  0  0  0  0  0  0  0  0  0  0  # atno 11005 bound_to 11000
  145.0447  139.3231  143.5959 LP  0  0  0  0  0  0  0  0  0  0  0  0  # atno 17320 bound_to 7965
  146.3496  139.9833  142.8693 LP  0  0  0  0  0  0  0  0  0  0  0  0  # atno 17321 bound_to 7965
  140.4518  144.1845  150.5898 LP  0  0  0  0  0  0  0  0  0  0  0  0  # atno 17342 bound_to 10162
  140.4577  143.2461  151.9262 LP  0  0  0  0  0  0  0  0  0  0  0  0  # atno 17343 bound_to 10162
  157.6201  130.8648  149.9094 LP  0  0  0  0  0  0  0  0  0  0  0  0  # atno 17370 bound_to 10713
  156.0731  130.3682  150.0733 LP  0  0  0  0  0  0  0  0  0  0  0  0  # atno 17371 bound_to 10713
  140.6624  133.9633  155.7812 LP  0  0  0  0  0  0  0  0  0  0  0  0  # atno 17394 bound_to 11000
  141.0634  134.0312  157.3627 LP  0  0  0  0  0  0  0  0  0  0  0  0  # atno 17395 bound_to 11000

$$$$
