AV-unprocessed.smi:572|AV-procd|sdf|2966|dock1
  -GOLD-   2262023473D 1   1.00000     0.00000
 Structure written by MMmdl.
 45 47  0  0  0  0  0  0  0  0  2 V2000
  154.1256  138.5472  159.8104 C   0  0  0  0  0  0  0  0  0  0  0  0
  154.5775  139.6528  159.0479 O   0  0  0  0  0  0  0  0  0  0  0  0
  153.8295  140.8284  159.3028 C   0  0  0  0  0  0  0  0  0  0  0  0
  152.3698  140.5819  158.9045 C   0  0  0  0  0  0  0  0  0  0  0  0
  151.6931  141.8308  158.5254 N   0  0  0  0  0  0  0  0  0  0  0  0
  150.9598  142.1554  157.4239 C   0  0  0  0  0  0  0  0  0  0  0  0
  150.6414  141.2723  156.2926 C   0  0  0  0  0  0  0  0  0  0  0  0
  149.4554  141.4480  155.5517 C   0  0  0  0  0  0  0  0  0  0  0  0
  149.1414  140.5996  154.4625 C   0  0  0  0  0  0  0  0  0  0  0  0
  147.9958  140.7194  153.7022 O   0  0  0  0  0  0  0  0  0  0  0  0
  147.1406  141.8269  153.9445 C   0  0  0  0  0  0  0  0  0  0  0  0
  150.0422  139.5676  154.1227 C   0  0  0  0  0  0  0  0  0  0  0  0
  149.7481  138.7417  153.0747 O   0  0  0  0  0  0  0  0  0  0  0  0
  151.2388  139.3741  154.8466 C   0  0  0  0  0  0  0  0  0  0  0  0
  152.0627  138.3403  154.4501 O   0  0  0  0  0  0  0  0  0  0  0  0
  153.3374  138.2210  155.0638 C   0  0  0  0  0  0  0  0  0  0  0  0
  151.5284  140.2393  155.9297 C   0  0  0  0  0  0  0  0  0  0  0  0
  150.5848  143.4590  157.5193 N   0  3  0  0  0  0  0  0  0  0  0  0
  151.0804  143.9849  158.7145 C   0  0  0  0  0  0  0  0  0  0  0  0
  150.9631  145.2579  159.2640 C   0  0  0  0  0  0  0  0  0  0  0  0
  151.6010  145.4742  160.5031 C   0  0  0  0  0  0  0  0  0  0  0  0
  152.3232  144.4485  161.1466 C   0  0  0  0  0  0  0  0  0  0  0  0
  152.4363  143.1609  160.5817 C   0  0  0  0  0  0  0  0  0  0  0  0
  151.7974  142.9510  159.3598 C   0  0  0  0  0  0  0  0  0  0  0  0
  154.7273  137.6694  159.5752 H   0  0  0  0  0  0  0  0  0  0  0  0
  153.0844  138.3118  159.5862 H   0  0  0  0  0  0  0  0  0  0  0  0
  154.2189  138.7413  160.8798 H   0  0  0  0  0  0  0  0  0  0  0  0
  153.8951  141.0914  160.3599 H   0  0  0  0  0  0  0  0  0  0  0  0
  154.2365  141.6621  158.7281 H   0  0  0  0  0  0  0  0  0  0  0  0
  152.3250  139.8980  158.0580 H   0  0  0  0  0  0  0  0  0  0  0  0
  151.8159  140.1030  159.7122 H   0  0  0  0  0  0  0  0  0  0  0  0
  148.7953  142.2526  155.8383 H   0  0  0  0  0  0  0  0  0  0  0  0
  146.2840  141.7736  153.2728 H   0  0  0  0  0  0  0  0  0  0  0  0
  147.6494  142.7728  153.7544 H   0  0  0  0  0  0  0  0  0  0  0  0
  146.7592  141.8201  154.9666 H   0  0  0  0  0  0  0  0  0  0  0  0
  149.5347  139.2156  152.2853 H   0  0  0  0  0  0  0  0  0  0  0  0
  153.8506  137.3489  154.6591 H   0  0  0  0  0  0  0  0  0  0  0  0
  153.2489  138.0800  156.1417 H   0  0  0  0  0  0  0  0  0  0  0  0
  153.9604  139.0931  154.8620 H   0  0  0  0  0  0  0  0  0  0  0  0
  152.4322  140.1237  156.5083 H   0  0  0  0  0  0  0  0  0  0  0  0
  150.4141  146.0472  158.7718 H   0  0  0  0  0  0  0  0  0  0  0  0
  151.5372  146.4473  160.9682 H   0  0  0  0  0  0  0  0  0  0  0  0
  152.8012  144.6535  162.0937 H   0  0  0  0  0  0  0  0  0  0  0  0
  152.9943  142.3846  161.0839 H   0  0  0  0  0  0  0  0  0  0  0  0
  150.0339  143.9460  156.8242 H   0  0  0  0  0  0  0  0  0  0  0  0
  1  2  1  0  0  0  0
  1 25  1  0  0  0  0
  1 26  1  0  0  0  0
  1 27  1  0  0  0  0
  2  3  1  0  0  0  0
  3  4  1  0  0  0  0
  3 28  1  0  0  0  0
  3 29  1  0  0  0  0
  4  5  1  0  0  0  0
  4 30  1  0  0  0  0
  4 31  1  0  0  0  0
  5 24  1  0  0  0  0
  5  6  1  0  0  0  0
  6  7  1  0  0  0  0
  6 18  2  0  0  0  0
  7 17  1  0  0  0  0
  7  8  2  0  0  0  0
  8  9  1  0  0  0  0
  8 32  1  0  0  0  0
  9 10  1  0  0  0  0
  9 12  2  0  0  0  0
 10 11  1  0  0  0  0
 11 33  1  0  0  0  0
 11 34  1  0  0  0  0
 11 35  1  0  0  0  0
 12 13  1  0  0  0  0
 12 14  1  0  0  0  0
 13 36  1  0  0  0  0
 14 15  1  0  0  0  0
 14 17  2  0  0  0  0
 15 16  1  0  0  0  0
 16 37  1  0  0  0  0
 16 38  1  0  0  0  0
 16 39  1  0  0  0  0
 17 40  1  0  0  0  0
 18 19  1  0  0  0  0
 18 45  1  0  0  0  0
 19 24  2  0  0  0  0
 19 20  1  0  0  0  0
 20 21  2  0  0  0  0
 20 41  1  0  0  0  0
 21 22  1  0  0  0  0
 21 42  1  0  0  0  0
 22 23  2  0  0  0  0
 22 43  1  0  0  0  0
 23 24  1  0  0  0  0
 23 44  1  0  0  0  0
M  CHG  1  18   1
M  END
> <s_m_source_file>
AV-unprocessed.smi

> <i_m_source_file_index>
572

> <i_lp_mmshare_version>
43012

> <i_f3d_flags>
0

> <s_epik_input>
W2NIXTFbY0hdW2NIXVtjSF1jKGMxMiluKFtDSDJdW0NIMl1PW0NIM10pYyhuMiktYzNbY0hdYyhPW0NIM10pYyhbT0hdKWMoW2NIXTMpT1tDSDNd

> <s_epik_cmdline>
J2VwaWtfcHl0aG9uJywgJy1waCcsICc3LjAnLCAnLXRuJywgJzgnLCAnLW1hJywgJzIwMCcsICctbWV0YWxfYmluZGluZycsICctaW1hZScsICc8aW5maWxlLm1hZT4nLCAnLW9tYWUnLCAnPG91dGZpbGUubWFlPic=

> <r_lp_tautomer_probability>
1

> <r_epik_Ionization_Penalty>
0.612873

> <r_epik_Ionization_Penalty_Charging>
0.607243

> <r_epik_Ionization_Penalty_Neutral>
0.00563032

> <r_epik_State_Penalty>
0.761569

> <r_epik_Charging_Adjusted_Penalty>
1.36881

> <i_epik_Tot_Q>
1

> <i_epik_Tot_abs_Q>
1

> <r_epik_Metal_State_Penalty>
4.6608

> <b_epik_Metal_Only>
0

> <s_lp_Force_Field>
OPLS_2005

> <r_lp_Energy>
27.0724

> <b_lp_Chiralities_Consistent>
1

> <s_lp_Variant>
AV-unprocessed.smi:572-2

> <Gold.Version>
5.8.1

> <Gold.Id.Protein>
6NUR|6NUR_protein|mol2

> <Gold.PLP.Fitness>
63.7921

> <Gold.PLP.PLP>
-53.0003

> <Gold.PLP.part.hbond>
-3.7328

> <Gold.PLP.part.metal>
0.0000

> <Gold.PLP.part.buried>
-4.3740

> <Gold.PLP.part.nonpolar>
-46.2194

> <Gold.PLP.part.repulsive>
0.2648

> <Gold.PLP.ligand.clash>
0.0000

> <Gold.PLP.ligand.torsion>
0.7234

> <Gold.PLP.Chemscore.Hbond>
4.0000

> <Gold.PLP.Chemscore.CHOScore>
0.0000

> <Gold.PLP.Chemscore.Metal>
0.0000

> <Gold.Chemscore.Hbonds>
donor molecule, donor type, donor heavy atom, donor atom, acceptor molecule, acceptor atom, score
      L1  H    13    36       P1  7957  0.63
      L1  H    18    45       P1  8028  2.00
      P1  H  7997  8009       L1     2  1.00

> <Gold.PLP.Chemscore.Internal.Correction>
0.2386

> <Gold.Rescore>
     Score         DG    S(hbond)    S(metal)    S(lipo)     H(rot)  DE(clash)    DE(int)     intcor
     24.08     -25.09       2.65        0.00     141.40       2.26       0.27       0.75       ----

> <Gold.Chemscore.Fitness>
24.0759

> <Gold.Chemscore.DG>
-25.0938

> <Gold.Chemscore.ZeroCoef>
-5.4800

> <Gold.Chemscore.Hbond>
2.6534

> <Gold.Chemscore.Metal>
0.0000

> <Gold.Chemscore.Lipo>
141.3989

> <Gold.Chemscore.Internal_Hbond>
0.0000

> <Gold.Chemscore.DEClash>
0.2716

> <Gold.Chemscore.DEInternal>
0.7463

> <Gold.Chemscore.Rot>
2.2626

> <Gold.Chemscore.Internal.Correction>
   9.000000E+99

> <Gold.Chemscore.Hbonds>
donor molecule, donor type, donor heavy atom, donor atom, acceptor molecule, acceptor atom, score
      L1  H    13    36       P1  7957  0.58
      L1  H    18    45       P1  8028  0.99
      P1  H  7997  8009       L1     2  0.25

> <Gold.Chemscore.Hbond.Weighted>
-8.8623

> <Gold.Chemscore.Metal.Weighted>
-0.0000

> <Gold.Chemscore.Lipo.Weighted>
-16.5437

> <Gold.Chemscore.Internal_Hbond.Weighted>
0.0000

> <Gold.Chemscore.DEClash.Weighted>
0.2716

> <Gold.Chemscore.DEInternal.Weighted>
0.7463

> <Gold.Chemscore.Rot.Weighted>
5.7922

> <Gold.Chemscore.Internal.Correction.Weighted>
   9.000000E+99

> <Gold.Protein.RotatedTorsions>
[ 6907 6896 6895 6894 ] final -104.40 input  -60.11 | X-H torsion
[ 7974 7965 7964 7962 ] final  -47.65 input  175.53 | X-H torsion
[ 8008 7997 7996 7995 ] final  113.06 input   59.86 | X-H torsion
[ 10167 10162 10161 10158 ] final -137.51 input  -65.29 | X-H torsion
[ 10718 10713 10712 10709 ] final -169.08 input   66.30 | X-H torsion
[ 10763 10752 10751 10750 ] final   -8.56 input  -60.55 | X-H torsion
[ 11005 11000 10999 10996 ] final  156.62 input  -57.11 | X-H torsion

> <Gold.Protein.ActiveResidues>
 VAL166  LYS551  ARG553  GLY616  TRP617  ASP618  TYR619  PRO620  LYS621  CYS622 
 ASP623  PHE694  ASN695  SER759  ASP760  ASP761  ALA762  ILE779  LEU786  VAL792 
 PHE793  MET794  SER795  GLU796  ALA797  LYS798  CYS799  TRP800  GLU811  SER814 

> <Gold.Protein.RotatedAtoms>
  150.7286  134.0283  159.3724 H   0  0  0  0  0  0  0  0  0  0  0  0  # atno 6907 bound_to 6896
  151.8251  135.0637  160.0439 H   0  0  0  0  0  0  0  0  0  0  0  0  # atno 6908 bound_to 6896
  152.2975  133.5586  159.5633 H   0  0  0  0  0  0  0  0  0  0  0  0  # atno 6909 bound_to 6896
  145.9594  140.7494  142.9465 H   0  0  0  0  0  0  0  0  0  0  0  0  # atno 7974 bound_to 7965
  156.2233  140.2987  156.0006 H   0  0  0  0  0  0  0  0  0  0  0  0  # atno 8008 bound_to 7997
  155.2422  140.0423  157.2993 H   0  0  0  0  0  0  0  0  0  0  0  0  # atno 8009 bound_to 7997
  154.5876  140.2392  155.7974 H   0  0  0  0  0  0  0  0  0  0  0  0  # atno 8010 bound_to 7997
  139.8570  143.7126  152.2653 H   0  0  0  0  0  0  0  0  0  0  0  0  # atno 10167 bound_to 10162
  156.7064  130.9216  151.3085 H   0  0  0  0  0  0  0  0  0  0  0  0  # atno 10718 bound_to 10713
  153.4422  135.7014  153.6161 H   0  0  0  0  0  0  0  0  0  0  0  0  # atno 10763 bound_to 10752
  153.4531  135.3753  155.2296 H   0  0  0  0  0  0  0  0  0  0  0  0  # atno 10764 bound_to 10752
  154.8727  135.4002  154.3822 H   0  0  0  0  0  0  0  0  0  0  0  0  # atno 10765 bound_to 10752
  140.1692  134.8555  157.2669 H   0  0  0  0  0  0  0  0  0  0  0  0  # atno 11005 bound_to 11000
  144.6812  140.2565  143.7324 LP  0  0  0  0  0  0  0  0  0  0  0  0  # atno 17320 bound_to 7965
  145.8061  139.1984  143.2020 LP  0  0  0  0  0  0  0  0  0  0  0  0  # atno 17321 bound_to 7965
  139.7410  144.7559  151.0652 LP  0  0  0  0  0  0  0  0  0  0  0  0  # atno 17342 bound_to 10162
  140.7780  143.4972  150.9817 LP  0  0  0  0  0  0  0  0  0  0  0  0  # atno 17343 bound_to 10162
  157.6953  130.9276  150.0628 LP  0  0  0  0  0  0  0  0  0  0  0  0  # atno 17370 bound_to 10713
  156.1692  130.3646  149.9189 LP  0  0  0  0  0  0  0  0  0  0  0  0  # atno 17371 bound_to 10713
  140.2397  134.3810  155.7486 LP  0  0  0  0  0  0  0  0  0  0  0  0  # atno 17394 bound_to 11000
  141.2216  133.7259  156.8770 LP  0  0  0  0  0  0  0  0  0  0  0  0  # atno 17395 bound_to 11000

$$$$
