AV-unprocessed.smi:1424|AV-procd|sdf|5799|dock4
  -GOLD-   22720 5453D 1   1.00000     0.00000
 Structure written by MMmdl.
 45 47  0  0  0  0  0  0  0  0  1 V2000
  153.8047  141.9089  161.7714 O   0  0  0  0  0  0  0  0  0  0  0  0
  153.5317  140.9540  161.0444 C   0  0  0  0  0  0  0  0  0  0  0  0
  153.8013  139.6799  161.3627 N   0  0  0  0  0  0  0  0  0  0  0  0
  154.4680  139.2327  162.5823 C   0  0  0  0  0  0  0  0  0  0  0  0
  154.0737  137.7947  162.9730 C   0  0  2  0  0  0  0  0  0  0  0  0
  154.0217  137.5485  164.4964 C   0  0  0  0  0  0  0  0  0  0  0  0
  153.9193  136.0407  164.7468 C   0  0  0  0  0  0  0  0  0  0  0  0
  154.8947  135.2531  163.4134 S   0  0  0  0  0  0  0  0  0  0  0  0
  156.2314  134.9094  163.9214 O   0  0  0  0  0  0  0  0  0  0  0  0
  154.0601  134.2486  162.7370 O   0  0  0  0  0  0  0  0  0  0  0  0
  155.0253  136.7512  162.3646 C   0  0  0  0  0  0  0  0  0  0  0  0
  152.9478  141.0370  159.8370 N   0  0  0  0  0  0  0  0  0  0  0  0
  152.5318  142.2002  159.1269 C   0  0  0  0  0  0  0  0  0  0  0  0
  153.0194  143.4957  159.4279 C   0  0  0  0  0  0  0  0  0  0  0  0
  152.5504  144.5961  158.6883 C   0  0  0  0  0  0  0  0  0  0  0  0
  151.6013  144.3650  157.6778 C   0  0  0  0  0  0  0  0  0  0  0  0
  151.1142  143.1414  157.3899 N   0  0  0  0  0  0  0  0  0  0  0  0
  151.5641  142.0738  158.0936 C   0  0  0  0  0  0  0  0  0  0  0  0
  151.0092  140.8128  157.7924 N   0  0  0  0  0  0  0  0  0  0  0  0
  149.8589  140.8840  156.8960 C   0  0  0  0  0  0  0  0  0  0  0  0
  149.9237  139.6369  156.0131 C   0  0  0  0  0  0  0  0  0  0  0  0
  151.4171  139.3429  155.9503 C   0  0  0  0  0  0  0  0  0  0  0  0
  151.8915  139.7336  157.3496 C   0  0  0  0  0  0  0  0  0  0  0  0
  153.5413  138.9629  160.7013 H   0  0  0  0  0  0  0  0  0  0  0  0
  155.5421  139.2765  162.3997 H   0  0  0  0  0  0  0  0  0  0  0  0
  154.2748  139.9201  163.4080 H   0  0  0  0  0  0  0  0  0  0  0  0
  153.0769  137.5908  162.5784 H   0  0  0  0  0  0  0  0  0  0  0  0
  154.9405  137.9208  164.9516 H   0  0  0  0  0  0  0  0  0  0  0  0
  153.1950  138.0795  164.9685 H   0  0  0  0  0  0  0  0  0  0  0  0
  154.3004  135.7402  165.7230 H   0  0  0  0  0  0  0  0  0  0  0  0
  152.8870  135.7027  164.6541 H   0  0  0  0  0  0  0  0  0  0  0  0
  154.7815  136.5075  161.3304 H   0  0  0  0  0  0  0  0  0  0  0  0
  156.0604  137.0920  162.4043 H   0  0  0  0  0  0  0  0  0  0  0  0
  152.8709  140.1717  159.3226 H   0  0  0  0  0  0  0  0  0  0  0  0
  153.7314  143.6693  160.2197 H   0  0  0  0  0  0  0  0  0  0  0  0
  152.9069  145.5942  158.8953 H   0  0  0  0  0  0  0  0  0  0  0  0
  151.2160  145.1850  157.0900 H   0  0  0  0  0  0  0  0  0  0  0  0
  148.9244  140.9266  157.4558 H   0  0  0  0  0  0  0  0  0  0  0  0
  149.9195  141.7814  156.2772 H   0  0  0  0  0  0  0  0  0  0  0  0
  149.4048  138.8094  156.4994 H   0  0  0  0  0  0  0  0  0  0  0  0
  149.4754  139.7882  155.0309 H   0  0  0  0  0  0  0  0  0  0  0  0
  151.6403  138.3055  155.6998 H   0  0  0  0  0  0  0  0  0  0  0  0
  151.8908  139.9832  155.2048 H   0  0  0  0  0  0  0  0  0  0  0  0
  152.9526  139.9837  157.3614 H   0  0  0  0  0  0  0  0  0  0  0  0
  151.7572  138.8952  158.0338 H   0  0  0  0  0  0  0  0  0  0  0  0
  1  2  2  0  0  0  0
  2  3  1  0  0  0  0
  2 12  1  0  0  0  0
  3  4  1  0  0  0  0
  3 24  1  0  0  0  0
  4  5  1  0  0  0  0
  4 25  1  0  0  0  0
  4 26  1  0  0  0  0
  5 11  1  0  0  0  0
  5  6  1  0  0  0  0
  5 27  1  0  0  0  0
  6  7  1  0  0  0  0
  6 28  1  0  0  0  0
  6 29  1  0  0  0  0
  7  8  1  0  0  0  0
  7 30  1  0  0  0  0
  7 31  1  0  0  0  0
  8  9  2  0  0  0  0
  8 10  2  0  0  0  0
  8 11  1  0  0  0  0
 11 32  1  0  0  0  0
 11 33  1  0  0  0  0
 12 13  1  0  0  0  0
 12 34  1  0  0  0  0
 13 18  1  0  0  0  0
 13 14  2  0  0  0  0
 14 15  1  0  0  0  0
 14 35  1  0  0  0  0
 15 16  2  0  0  0  0
 15 36  1  0  0  0  0
 16 17  1  0  0  0  0
 16 37  1  0  0  0  0
 17 18  2  0  0  0  0
 18 19  1  0  0  0  0
 19 23  1  0  0  0  0
 19 20  1  0  0  0  0
 20 21  1  0  0  0  0
 20 38  1  0  0  0  0
 20 39  1  0  0  0  0
 21 22  1  0  0  0  0
 21 40  1  0  0  0  0
 21 41  1  0  0  0  0
 22 23  1  0  0  0  0
 22 42  1  0  0  0  0
 22 43  1  0  0  0  0
 23 44  1  0  0  0  0
 23 45  1  0  0  0  0
M  END
> <s_m_source_file>
AV-unprocessed.smi

> <i_m_source_file_index>
1424

> <i_lp_mmshare_version>
43012

> <i_f3d_flags>
0

> <s_epik_input>
Tz1TMSg9TylbQ0gyXVtDSDJdW0NASF0oW0NIMl0xKVtDSDJdW05IXUMoPU8pW05IXWMyW2NIXVtjSF1bY0hdbmMyTjNbQ0gyXVtDSDJdW0NIMl1bQ0gyXTM=

> <s_epik_cmdline>
J2VwaWtfcHl0aG9uJywgJy1waCcsICc3LjAnLCAnLXRuJywgJzgnLCAnLW1hJywgJzIwMCcsICctbWV0YWxfYmluZGluZycsICctaW1hZScsICc8aW5maWxlLm1hZT4nLCAnLW9tYWUnLCAnPG91dGZpbGUubWFlPic=

> <r_lp_tautomer_probability>
1

> <r_epik_Ionization_Penalty>
0.0965651

> <r_epik_Ionization_Penalty_Charging>
0

> <r_epik_Ionization_Penalty_Neutral>
0.0965651

> <r_epik_State_Penalty>
0.0861592

> <r_epik_Charging_Adjusted_Penalty>
0.0861592

> <i_epik_Tot_Q>
0

> <i_epik_Tot_abs_Q>
0

> <r_epik_Metal_State_Penalty>
0.0740444

> <b_epik_Metal_Only>
0

> <s_lp_Force_Field>
OPLS_2005

> <r_lp_Energy>
33.9356

> <b_lp_Chiralities_Consistent>
1

> <s_lp_Variant>
AV-unprocessed.smi:1424-1

> <Gold.Version>
5.8.1

> <Gold.Id.Protein>
6NUR|6NUR_protein|mol2

> <Gold.PLP.Fitness>
43.3157

> <Gold.PLP.PLP>
-43.5764

> <Gold.PLP.part.hbond>
-0.2655

> <Gold.PLP.part.metal>
0.0000

> <Gold.PLP.part.buried>
-5.6681

> <Gold.PLP.part.nonpolar>
-37.9844

> <Gold.PLP.part.repulsive>
0.2571

> <Gold.PLP.ligand.clash>
0.0000

> <Gold.PLP.ligand.torsion>
0.7855

> <Gold.PLP.Chemscore.Hbond>
0.0000

> <Gold.PLP.Chemscore.CHOScore>
0.3979

> <Gold.PLP.Chemscore.Metal>
0.0000

> <Gold.Chemscore.Hbonds>
donor molecule, donor type, donor heavy atom, donor atom, acceptor molecule, acceptor atom, score
      L1  C    16    37       P1  8028  0.40

> <Gold.PLP.Chemscore.Internal.Correction>
0.1165

> <Gold.Rescore>
     Score         DG    S(hbond)    S(metal)    S(lipo)     H(rot)  DE(clash)    DE(int)     intcor
     12.64     -14.67       0.00        0.00     110.80       1.47       0.03       2.00       ----

> <Gold.Chemscore.Fitness>
12.6404

> <Gold.Chemscore.DG>
-14.6691

> <Gold.Chemscore.ZeroCoef>
-5.4800

> <Gold.Chemscore.Hbond>
0.0000

> <Gold.Chemscore.Metal>
0.0000

> <Gold.Chemscore.Lipo>
110.7997

> <Gold.Chemscore.Internal_Hbond>
0.0000

> <Gold.Chemscore.DEClash>
0.0294

> <Gold.Chemscore.DEInternal>
1.9993

> <Gold.Chemscore.Rot>
1.4744

> <Gold.Chemscore.Internal.Correction>
   9.000000E+99

> <Gold.Chemscore.Hbond.Weighted>
-0.0000

> <Gold.Chemscore.Metal.Weighted>
-0.0000

> <Gold.Chemscore.Lipo.Weighted>
-12.9636

> <Gold.Chemscore.Internal_Hbond.Weighted>
0.0000

> <Gold.Chemscore.DEClash.Weighted>
0.0294

> <Gold.Chemscore.DEInternal.Weighted>
1.9993

> <Gold.Chemscore.Rot.Weighted>
3.7744

> <Gold.Chemscore.Internal.Correction.Weighted>
   9.000000E+99

> <Gold.Protein.RotatedTorsions>
[ 6907 6896 6895 6894 ] final   11.83 input  -60.11 | X-H torsion
[ 7974 7965 7964 7962 ] final  167.63 input  175.53 | X-H torsion
[ 8008 7997 7996 7995 ] final  -60.25 input   59.86 | X-H torsion
[ 10167 10162 10161 10158 ] final  -21.86 input  -65.29 | X-H torsion
[ 10718 10713 10712 10709 ] final -157.01 input   66.30 | X-H torsion
[ 10763 10752 10751 10750 ] final  159.05 input  -60.55 | X-H torsion
[ 11005 11000 10999 10996 ] final  -79.74 input  -57.11 | X-H torsion

> <Gold.Protein.ActiveResidues>
 VAL166  LYS551  ARG553  GLY616  TRP617  ASP618  TYR619  PRO620  LYS621  CYS622 
 ASP623  PHE694  ASN695  SER759  ASP760  ASP761  ALA762  ILE779  LEU786  VAL792 
 PHE793  MET794  SER795  GLU796  ALA797  LYS798  CYS799  TRP800  GLU811  SER814 

> <Gold.Protein.RotatedAtoms>
  151.7606  135.0811  160.0344 H   0  0  0  0  0  0  0  0  0  0  0  0  # atno 6907 bound_to 6896
  152.3356  133.6003  159.5848 H   0  0  0  0  0  0  0  0  0  0  0  0  # atno 6908 bound_to 6896
  150.7448  133.9718  159.3590 H   0  0  0  0  0  0  0  0  0  0  0  0  # atno 6909 bound_to 6896
  144.7417  139.8788  143.6394 H   0  0  0  0  0  0  0  0  0  0  0  0  # atno 7974 bound_to 7965
  154.4390  140.1043  156.6244 H   0  0  0  0  0  0  0  0  0  0  0  0  # atno 8008 bound_to 7997
  155.5672  140.3488  155.4487 H   0  0  0  0  0  0  0  0  0  0  0  0  # atno 8009 bound_to 7997
  156.0416  140.1283  157.0138 H   0  0  0  0  0  0  0  0  0  0  0  0  # atno 8010 bound_to 7997
  140.7284  143.4588  151.0409 H   0  0  0  0  0  0  0  0  0  0  0  0  # atno 10167 bound_to 10162
  156.5344  130.8535  151.2727 H   0  0  0  0  0  0  0  0  0  0  0  0  # atno 10718 bound_to 10713
  154.2257  135.2780  155.2908 H   0  0  0  0  0  0  0  0  0  0  0  0  # atno 10763 bound_to 10752
  154.5665  135.5631  153.7059 H   0  0  0  0  0  0  0  0  0  0  0  0  # atno 10764 bound_to 10752
  153.0031  135.6311  154.2398 H   0  0  0  0  0  0  0  0  0  0  0  0  # atno 10765 bound_to 10752
  141.1667  133.7119  156.8168 H   0  0  0  0  0  0  0  0  0  0  0  0  # atno 11005 bound_to 11000
  146.1226  139.4247  143.0219 LP  0  0  0  0  0  0  0  0  0  0  0  0  # atno 17320 bound_to 7965
  145.7282  141.0051  143.1366 LP  0  0  0  0  0  0  0  0  0  0  0  0  # atno 17321 bound_to 7965
  139.8271  143.7741  152.3179 LP  0  0  0  0  0  0  0  0  0  0  0  0  # atno 17342 bound_to 10162
  139.7844  144.7433  151.0043 LP  0  0  0  0  0  0  0  0  0  0  0  0  # atno 17343 bound_to 10162
  157.7416  130.9873  150.2458 LP  0  0  0  0  0  0  0  0  0  0  0  0  # atno 17370 bound_to 10713
  156.3030  130.3761  149.7733 LP  0  0  0  0  0  0  0  0  0  0  0  0  # atno 17371 bound_to 10713
  140.2148  134.8801  157.3314 LP  0  0  0  0  0  0  0  0  0  0  0  0  # atno 17394 bound_to 11000
  140.2049  134.4209  155.7643 LP  0  0  0  0  0  0  0  0  0  0  0  0  # atno 17395 bound_to 11000

$$$$
