AV-unprocessed.smi:32|AV-procd|sdf|198|dock10
  -GOLD-   2262015473D 1   1.00000     0.00000
 Structure written by MMmdl.
 49 51  0  0  0  0  0  0  0  0  1 V2000
  149.9941  135.6130  158.5152 O   0  0  0  0  0  0  0  0  0  0  0  0
  148.9719  135.9560  157.9199 C   0  0  0  0  0  0  0  0  0  0  0  0
  149.0448  136.4953  156.4835 C   0  0  0  0  0  0  0  0  0  0  0  0
  149.9078  137.6892  156.3524 N   0  0  0  0  0  0  0  0  0  0  0  0
  151.0345  137.6142  155.4960 C   0  0  0  0  0  0  0  0  0  0  0  0
  151.2885  136.5876  154.8640 O   0  0  0  0  0  0  0  0  0  0  0  0
  151.8567  138.8169  155.4290 C   0  0  0  0  0  0  0  0  0  0  0  0
  152.9470  138.8351  154.6435 F   0  0  0  0  0  0  0  0  0  0  0  0
  151.5422  139.9137  156.1481 C   0  0  0  0  0  0  0  0  0  0  0  0
  150.4401  139.9727  156.9819 N   0  0  0  0  0  0  0  0  0  0  0  0
  150.1264  141.2123  157.7922 C   0  0  1  0  0  0  0  0  0  0  0  0
  151.1684  141.3992  158.8998 C   0  0  0  0  0  0  0  0  0  0  0  0
  152.1920  142.2776  158.2141 C   0  0  0  0  0  0  0  0  0  0  0  0
  151.3081  143.1528  157.3313 C   0  0  0  0  0  0  0  0  0  0  0  0
  150.1977  142.3362  156.9623 O   0  0  0  0  0  0  0  0  0  0  0  0
  149.5992  138.8455  157.1082 C   0  0  0  0  0  0  0  0  0  0  0  0
  148.6280  138.8678  157.8674 O   0  0  0  0  0  0  0  0  0  0  0  0
  147.7427  135.9040  158.4617 N   0  0  0  0  0  0  0  0  0  0  0  0
  147.3741  135.4459  159.8046 C   0  0  0  0  0  0  0  0  0  0  0  0
  147.9571  136.4009  160.8731 C   0  0  0  0  0  0  0  0  0  0  0  0
  147.3360  136.2761  162.2721 C   0  0  0  0  0  0  0  0  0  0  0  0
  147.4225  134.8753  162.8997 C   0  0  0  0  0  0  0  0  0  0  0  0
  146.4354  133.8824  162.2678 C   0  0  0  0  0  0  0  0  0  0  0  0
  146.9369  133.1606  161.0051 C   0  0  0  0  0  0  0  0  0  0  0  0
  147.8012  133.9753  160.0248 C   0  0  0  0  0  0  0  0  0  0  0  0
  149.3896  135.7019  155.8177 H   0  0  0  0  0  0  0  0  0  0  0  0
  148.0275  136.6975  156.1461 H   0  0  0  0  0  0  0  0  0  0  0  0
  152.1926  140.7711  156.0623 H   0  0  0  0  0  0  0  0  0  0  0  0
  149.1055  141.0849  158.1564 H   0  0  0  0  0  0  0  0  0  0  0  0
  150.7028  141.9315  159.7301 H   0  0  0  0  0  0  0  0  0  0  0  0
  151.5664  140.4516  159.2644 H   0  0  0  0  0  0  0  0  0  0  0  0
  152.8011  142.8528  158.9119 H   0  0  0  0  0  0  0  0  0  0  0  0
  152.8582  141.6706  157.6002 H   0  0  0  0  0  0  0  0  0  0  0  0
  150.9373  144.0087  157.8968 H   0  0  0  0  0  0  0  0  0  0  0  0
  151.8354  143.5288  156.4545 H   0  0  0  0  0  0  0  0  0  0  0  0
  146.9772  136.2120  157.8799 H   0  0  0  0  0  0  0  0  0  0  0  0
  146.2856  135.5056  159.8317 H   0  0  0  0  0  0  0  0  0  0  0  0
  149.0359  136.2611  160.9509 H   0  0  0  0  0  0  0  0  0  0  0  0
  147.8183  137.4315  160.5431 H   0  0  0  0  0  0  0  0  0  0  0  0
  147.8448  136.9814  162.9299 H   0  0  0  0  0  0  0  0  0  0  0  0
  146.2961  136.6034  162.2415 H   0  0  0  0  0  0  0  0  0  0  0  0
  148.4426  134.4903  162.8717 H   0  0  0  0  0  0  0  0  0  0  0  0
  147.1692  134.9725  163.9560 H   0  0  0  0  0  0  0  0  0  0  0  0
  146.1777  133.1224  163.0062 H   0  0  0  0  0  0  0  0  0  0  0  0
  145.4976  134.3942  162.0475 H   0  0  0  0  0  0  0  0  0  0  0  0
  147.5083  132.2811  161.3034 H   0  0  0  0  0  0  0  0  0  0  0  0
  146.0677  132.7732  160.4725 H   0  0  0  0  0  0  0  0  0  0  0  0
  147.7962  133.4415  159.0732 H   0  0  0  0  0  0  0  0  0  0  0  0
  148.8387  133.9488  160.3599 H   0  0  0  0  0  0  0  0  0  0  0  0
  1  2  2  0  0  0  0
  2  3  1  0  0  0  0
  2 18  1  0  0  0  0
  3  4  1  0  0  0  0
  3 26  1  0  0  0  0
  3 27  1  0  0  0  0
  4 16  1  0  0  0  0
  4  5  1  0  0  0  0
  5  6  2  0  0  0  0
  5  7  1  0  0  0  0
  7  8  1  0  0  0  0
  7  9  2  0  0  0  0
  9 10  1  0  0  0  0
  9 28  1  0  0  0  0
 10 11  1  0  0  0  0
 10 16  1  0  0  0  0
 11 15  1  0  0  0  0
 11 12  1  0  0  0  0
 11 29  1  0  0  0  0
 12 13  1  0  0  0  0
 12 30  1  0  0  0  0
 12 31  1  0  0  0  0
 13 14  1  0  0  0  0
 13 32  1  0  0  0  0
 13 33  1  0  0  0  0
 14 15  1  0  0  0  0
 14 34  1  0  0  0  0
 14 35  1  0  0  0  0
 16 17  2  0  0  0  0
 18 19  1  0  0  0  0
 18 36  1  0  0  0  0
 19 25  1  0  0  0  0
 19 20  1  0  0  0  0
 19 37  1  0  0  0  0
 20 21  1  0  0  0  0
 20 38  1  0  0  0  0
 20 39  1  0  0  0  0
 21 22  1  0  0  0  0
 21 40  1  0  0  0  0
 21 41  1  0  0  0  0
 22 23  1  0  0  0  0
 22 42  1  0  0  0  0
 22 43  1  0  0  0  0
 23 24  1  0  0  0  0
 23 44  1  0  0  0  0
 23 45  1  0  0  0  0
 24 25  1  0  0  0  0
 24 46  1  0  0  0  0
 24 47  1  0  0  0  0
 25 48  1  0  0  0  0
 25 49  1  0  0  0  0
M  END
> <s_m_source_file>
AV-unprocessed.smi

> <i_m_source_file_index>
32

> <i_lp_mmshare_version>
43012

> <i_f3d_flags>
0

> <s_epik_input>
W0NIMl0xW0NIMl1bQ0gyXVtDSDJdW0NIMl1bQ0gyXVtDSF0xW05IXUMoPU8pW0NIMl1uMmMoPU8pYyhGKVtjSF1uKGMyPU8pW0NAQEhdM1tDSDJdW0NIMl1bQ0gyXU8z

> <s_epik_cmdline>
J2VwaWtfcHl0aG9uJywgJy1waCcsICc3LjAnLCAnLXRuJywgJzgnLCAnLW1hJywgJzIwMCcsICctbWV0YWxfYmluZGluZycsICctaW1hZScsICc8aW5maWxlLm1hZT4nLCAnLW9tYWUnLCAnPG91dGZpbGUubWFlPic=

> <r_lp_tautomer_probability>
1

> <r_epik_Ionization_Penalty>
2.43741e-08

> <r_epik_Ionization_Penalty_Charging>
4.15308e-09

> <r_epik_Ionization_Penalty_Neutral>
2.0221e-08

> <r_epik_State_Penalty>
-0

> <r_epik_Charging_Adjusted_Penalty>
4.15308e-09

> <i_epik_Tot_Q>
0

> <i_epik_Tot_abs_Q>
0

> <r_epik_Metal_State_Penalty>
-0

> <b_epik_Metal_Only>
0

> <s_epik_Chemistry_Notes>
This compound contains an acetal/aminal-like group ( X-CH(R)-Y where X, Y are N, S, or O) that may be acid/base labile, releasing an aldehyde.

> <s_lp_Force_Field>
OPLS_2005

> <r_lp_Energy>
36.3437

> <b_lp_Chiralities_Consistent>
1

> <s_lp_Variant>
AV-unprocessed.smi:32-2

> <Gold.Version>
5.8.1

> <Gold.Id.Protein>
6NUR|6NUR_protein|mol2

> <Gold.PLP.Fitness>
44.9100

> <Gold.PLP.PLP>
-39.3858

> <Gold.PLP.part.hbond>
-1.9699

> <Gold.PLP.part.metal>
0.0000

> <Gold.PLP.part.buried>
-6.4586

> <Gold.PLP.part.nonpolar>
-32.8503

> <Gold.PLP.part.repulsive>
0.8363

> <Gold.PLP.ligand.clash>
0.0000

> <Gold.PLP.ligand.torsion>
0.2565

> <Gold.PLP.Chemscore.Hbond>
2.0000

> <Gold.PLP.Chemscore.CHOScore>
0.0000

> <Gold.PLP.Chemscore.Metal>
0.0000

> <Gold.Chemscore.Hbonds>
donor molecule, donor type, donor heavy atom, donor atom, acceptor molecule, acceptor atom, score
      P1  H  6896  6909       L1     1  1.00
      P1  H 10752 10763       L1     6  1.00

> <Gold.PLP.Chemscore.Internal.Correction>
0.0372

> <Gold.Rescore>
     Score         DG    S(hbond)    S(metal)    S(lipo)     H(rot)  DE(clash)    DE(int)     intcor
     16.34     -18.05       1.89        0.00      93.31       1.82       0.08       1.63       ----

> <Gold.Chemscore.Fitness>
16.3398

> <Gold.Chemscore.DG>
-18.0457

> <Gold.Chemscore.ZeroCoef>
-5.4800

> <Gold.Chemscore.Hbond>
1.8921

> <Gold.Chemscore.Metal>
0.0000

> <Gold.Chemscore.Lipo>
93.3112

> <Gold.Chemscore.Internal_Hbond>
0.0000

> <Gold.Chemscore.DEClash>
0.0797

> <Gold.Chemscore.DEInternal>
1.6262

> <Gold.Chemscore.Rot>
1.8248

> <Gold.Chemscore.Internal.Correction>
   9.000000E+99

> <Gold.Chemscore.Hbonds>
donor molecule, donor type, donor heavy atom, donor atom, acceptor molecule, acceptor atom, score
      P1  H  6896  6909       L1     1  0.94
      P1  H 10752 10763       L1     6  0.99

> <Gold.Chemscore.Hbond.Weighted>
-6.3197

> <Gold.Chemscore.Metal.Weighted>
-0.0000

> <Gold.Chemscore.Lipo.Weighted>
-10.9174

> <Gold.Chemscore.Internal_Hbond.Weighted>
0.0000

> <Gold.Chemscore.DEClash.Weighted>
0.0797

> <Gold.Chemscore.DEInternal.Weighted>
1.6262

> <Gold.Chemscore.Rot.Weighted>
4.6714

> <Gold.Chemscore.Internal.Correction.Weighted>
   9.000000E+99

> <Gold.Protein.RotatedTorsions>
[ 6907 6896 6895 6894 ] final   48.12 input  -60.11 | X-H torsion
[ 7974 7965 7964 7962 ] final   38.87 input  175.53 | X-H torsion
[ 8008 7997 7996 7995 ] final  -58.73 input   59.86 | X-H torsion
[ 10167 10162 10161 10158 ] final  -19.26 input  -65.29 | X-H torsion
[ 10718 10713 10712 10709 ] final  -26.00 input   66.30 | X-H torsion
[ 10763 10752 10751 10750 ] final   48.55 input  -60.55 | X-H torsion
[ 11005 11000 10999 10996 ] final  -79.59 input  -57.11 | X-H torsion

> <Gold.Protein.ActiveResidues>
 VAL166  LYS551  ARG553  GLY616  TRP617  ASP618  TYR619  PRO620  LYS621  CYS622 
 ASP623  PHE694  ASN695  SER759  ASP760  ASP761  ALA762  ILE779  LEU786  VAL792 
 PHE793  MET794  SER795  GLU796  ALA797  LYS798  CYS799  TRP800  GLU811  SER814 

> <Gold.Protein.RotatedAtoms>
  152.2759  134.7882  160.0405 H   0  0  0  0  0  0  0  0  0  0  0  0  # atno 6907 bound_to 6896
  151.8478  133.3429  159.3672 H   0  0  0  0  0  0  0  0  0  0  0  0  # atno 6908 bound_to 6896
  150.7170  134.5256  159.5719 H   0  0  0  0  0  0  0  0  0  0  0  0  # atno 6909 bound_to 6896
  146.1029  139.5720  142.9403 H   0  0  0  0  0  0  0  0  0  0  0  0  # atno 7974 bound_to 7965
  154.4321  140.1077  156.6003 H   0  0  0  0  0  0  0  0  0  0  0  0  # atno 8008 bound_to 7997
  155.5918  140.3492  155.4550 H   0  0  0  0  0  0  0  0  0  0  0  0  # atno 8009 bound_to 7997
  156.0241  140.1246  157.0317 H   0  0  0  0  0  0  0  0  0  0  0  0  # atno 8010 bound_to 7997
  140.7267  143.4836  151.0085 H   0  0  0  0  0  0  0  0  0  0  0  0  # atno 10167 bound_to 10162
  156.4570  130.4496  149.6953 H   0  0  0  0  0  0  0  0  0  0  0  0  # atno 10718 bound_to 10713
  152.9791  135.5940  154.3943 H   0  0  0  0  0  0  0  0  0  0  0  0  # atno 10763 bound_to 10752
  154.3595  135.2767  155.2329 H   0  0  0  0  0  0  0  0  0  0  0  0  # atno 10764 bound_to 10752
  154.4333  135.6031  153.6137 H   0  0  0  0  0  0  0  0  0  0  0  0  # atno 10765 bound_to 10752
  141.1667  133.7112  156.8146 H   0  0  0  0  0  0  0  0  0  0  0  0  # atno 11005 bound_to 11000
  145.5819  141.0381  143.2117 LP  0  0  0  0  0  0  0  0  0  0  0  0  # atno 17320 bound_to 7965
  144.7447  139.7353  143.7297 LP  0  0  0  0  0  0  0  0  0  0  0  0  # atno 17321 bound_to 7965
  139.8536  143.7406  152.3177 LP  0  0  0  0  0  0  0  0  0  0  0  0  # atno 17342 bound_to 10162
  139.7597  144.7510  151.0382 LP  0  0  0  0  0  0  0  0  0  0  0  0  # atno 17343 bound_to 10162
  156.3756  130.7553  151.2541 LP  0  0  0  0  0  0  0  0  0  0  0  0  # atno 17370 bound_to 10713
  157.7500  131.0310  150.4164 LP  0  0  0  0  0  0  0  0  0  0  0  0  # atno 17371 bound_to 10713
  140.2163  134.8790  157.3329 LP  0  0  0  0  0  0  0  0  0  0  0  0  # atno 17394 bound_to 11000
  140.2034  134.4227  155.7650 LP  0  0  0  0  0  0  0  0  0  0  0  0  # atno 17395 bound_to 11000

$$$$
