AV-unprocessed.smi:2850|AV-procd|sdf|10967|dock8
  -GOLD-   2272015423D 1   1.00000     0.00000
 Structure written by MMmdl.
 45 46  0  0  0  0  0  0  0  0  2 V2000
  151.5705  141.4833  163.3480 C   0  0  0  0  0  0  0  0  0  0  0  0
  151.1704  143.1107  162.6516 S   0  0  0  0  0  0  0  0  0  0  0  0
  150.8764  142.8813  160.9245 C   0  0  0  0  0  0  0  0  0  0  0  0
  151.1920  143.8950  160.0022 C   0  0  0  0  0  0  0  0  0  0  0  0
  150.9345  143.6271  158.6462 C   0  0  0  0  0  0  0  0  0  0  0  0
  150.3812  142.3725  158.3189 C   0  0  0  0  0  0  0  0  0  0  0  0
  150.1281  142.0761  156.9714 N   0  0  0  0  0  0  0  0  0  0  0  0
  150.5079  140.7979  156.3787 C   0  0  0  0  0  0  0  0  0  0  0  0
  149.3328  140.0750  155.6941 C   0  0  2  0  0  0  0  0  0  0  0  0
  149.7871  138.9214  154.7736 C   0  0  0  0  0  0  0  0  0  0  0  0
  148.6272  138.2915  154.0974 N   0  3  1  0  0  0  0  0  0  0  0  0
  147.8387  137.3950  154.9866 C   0  0  0  0  0  0  0  0  0  0  0  0
  148.4430  135.9804  155.1112 C   0  0  0  0  0  0  0  0  0  0  0  0
  147.6211  135.1311  156.0924 C   0  0  0  0  0  0  0  0  0  0  0  0
  149.9184  136.0218  155.5430 C   0  0  0  0  0  0  0  0  0  0  0  0
  147.8275  139.3186  153.3821 C   0  0  0  0  0  0  0  0  0  0  0  0
  147.4621  140.4970  154.3062 C   0  0  0  0  0  0  0  0  0  0  0  0
  148.6403  141.0312  154.8990 O   0  0  0  0  0  0  0  0  0  0  0  0
  150.0952  141.4461  159.2686 N   0  0  0  0  0  0  0  0  0  0  0  0
  150.3428  141.6937  160.5593 N   0  0  0  0  0  0  0  0  0  0  0  0
  151.7875  141.5747  164.4122 H   0  0  0  0  0  0  0  0  0  0  0  0
  152.4455  141.0619  162.8527 H   0  0  0  0  0  0  0  0  0  0  0  0
  150.7333  140.7958  163.2258 H   0  0  0  0  0  0  0  0  0  0  0  0
  151.6176  144.8355  160.3189 H   0  0  0  0  0  0  0  0  0  0  0  0
  151.1582  144.3606  157.8854 H   0  0  0  0  0  0  0  0  0  0  0  0
  149.6688  142.7622  156.3897 H   0  0  0  0  0  0  0  0  0  0  0  0
  151.3162  140.9600  155.6647 H   0  0  0  0  0  0  0  0  0  0  0  0
  150.9212  140.1663  157.1654 H   0  0  0  0  0  0  0  0  0  0  0  0
  148.6501  139.6983  156.4564 H   0  0  0  0  0  0  0  0  0  0  0  0
  150.4645  139.3073  154.0104 H   0  0  0  0  0  0  0  0  0  0  0  0
  150.3508  138.1706  155.3286 H   0  0  0  0  0  0  0  0  0  0  0  0
  147.7873  137.8297  155.9860 H   0  0  0  0  0  0  0  0  0  0  0  0
  146.8084  137.3360  154.6357 H   0  0  0  0  0  0  0  0  0  0  0  0
  148.3915  135.4815  154.1439 H   0  0  0  0  0  0  0  0  0  0  0  0
  147.6225  135.5664  157.0924 H   0  0  0  0  0  0  0  0  0  0  0  0
  148.0211  134.1196  156.1702 H   0  0  0  0  0  0  0  0  0  0  0  0
  146.5835  135.0484  155.7674 H   0  0  0  0  0  0  0  0  0  0  0  0
  150.0356  136.5088  156.5115 H   0  0  0  0  0  0  0  0  0  0  0  0
  150.5315  136.5619  154.8213 H   0  0  0  0  0  0  0  0  0  0  0  0
  150.3293  135.0152  155.6268 H   0  0  0  0  0  0  0  0  0  0  0  0
  148.4259  139.6924  152.5502 H   0  0  0  0  0  0  0  0  0  0  0  0
  146.9311  138.8870  152.9392 H   0  0  0  0  0  0  0  0  0  0  0  0
  146.9733  141.2827  153.7300 H   0  0  0  0  0  0  0  0  0  0  0  0
  146.7560  140.1949  155.0806 H   0  0  0  0  0  0  0  0  0  0  0  0
  149.0170  137.6835  153.3911 H   0  0  0  0  0  0  0  0  0  0  0  0
  1  2  1  0  0  0  0
  1 21  1  0  0  0  0
  1 22  1  0  0  0  0
  1 23  1  0  0  0  0
  2  3  1  0  0  0  0
  3 20  1  0  0  0  0
  3  4  2  0  0  0  0
  4  5  1  0  0  0  0
  4 24  1  0  0  0  0
  5  6  2  0  0  0  0
  5 25  1  0  0  0  0
  6  7  1  0  0  0  0
  6 19  1  0  0  0  0
  7  8  1  0  0  0  0
  7 26  1  0  0  0  0
  8  9  1  0  0  0  0
  8 27  1  0  0  0  0
  8 28  1  0  0  0  0
  9 18  1  0  0  0  0
  9 10  1  0  0  0  0
  9 29  1  0  0  0  0
 10 11  1  0  0  0  0
 10 30  1  0  0  0  0
 10 31  1  0  0  0  0
 11 12  1  0  0  0  0
 11 16  1  0  0  0  0
 11 45  1  0  0  0  0
 12 13  1  0  0  0  0
 12 32  1  0  0  0  0
 12 33  1  0  0  0  0
 13 14  1  0  0  0  0
 13 15  1  0  0  0  0
 13 34  1  0  0  0  0
 14 35  1  0  0  0  0
 14 36  1  0  0  0  0
 14 37  1  0  0  0  0
 15 38  1  0  0  0  0
 15 39  1  0  0  0  0
 15 40  1  0  0  0  0
 16 17  1  0  0  0  0
 16 41  1  0  0  0  0
 16 42  1  0  0  0  0
 17 18  1  0  0  0  0
 17 43  1  0  0  0  0
 17 44  1  0  0  0  0
 19 20  2  0  0  0  0
M  CHG  1  11   1
M  END
> <s_m_source_file>
AV-unprocessed.smi

> <i_m_source_file_index>
2850

> <i_lp_mmshare_version>
43012

> <i_f3d_flags>
0

> <s_epik_input>
W0NIM11TYzFbY0hdW2NIXWMobm4xKVtOSF1bQ0gyXVtDQEBIXTJbQ0gyXU4oW0NIMl1bQ0gyXU8yKVtDSDJdW0NIXShbQ0gzXSlbQ0gzXQ==

> <s_epik_cmdline>
J2VwaWtfcHl0aG9uJywgJy1waCcsICc3LjAnLCAnLXRuJywgJzgnLCAnLW1hJywgJzIwMCcsICctbWV0YWxfYmluZGluZycsICctaW1hZScsICc8aW5maWxlLm1hZT4nLCAnLW9tYWUnLCAnPG91dGZpbGUubWFlPic=

> <r_lp_tautomer_probability>
0.999978

> <r_epik_Ionization_Penalty>
0.0874875

> <r_epik_Ionization_Penalty_Charging>
0.0831532

> <r_epik_Ionization_Penalty_Neutral>
0.00433433

> <r_epik_State_Penalty>
0.0738301

> <r_epik_Charging_Adjusted_Penalty>
0.156983

> <i_epik_Tot_Q>
1

> <i_epik_Tot_abs_Q>
1

> <r_epik_Metal_State_Penalty>
0.073888

> <b_epik_Metal_Only>
0

> <s_lp_Force_Field>
OPLS_2005

> <r_lp_Energy>
26.7302

> <b_lp_Chiralities_Consistent>
1

> <s_lp_Variant>
AV-unprocessed.smi:2850-3

> <Gold.Version>
5.8.1

> <Gold.Id.Protein>
6NUR|6NUR_protein|mol2

> <Gold.PLP.Fitness>
46.2526

> <Gold.PLP.PLP>
-39.5940

> <Gold.PLP.part.hbond>
-2.8695

> <Gold.PLP.part.metal>
0.0000

> <Gold.PLP.part.buried>
-3.7554

> <Gold.PLP.part.nonpolar>
-33.1267

> <Gold.PLP.part.repulsive>
0.2775

> <Gold.PLP.ligand.clash>
0.0000

> <Gold.PLP.ligand.torsion>
1.1935

> <Gold.PLP.Chemscore.Hbond>
2.9760

> <Gold.PLP.Chemscore.CHOScore>
0.0000

> <Gold.PLP.Chemscore.Metal>
0.0000

> <Gold.Chemscore.Hbonds>
donor molecule, donor type, donor heavy atom, donor atom, acceptor molecule, acceptor atom, score
      L1  H     7    26       P1  8028  0.50
      L1  H    11    45       P1  7948  1.72

> <Gold.PLP.Chemscore.Internal.Correction>
0.1176

> <Gold.Rescore>
     Score         DG    S(hbond)    S(metal)    S(lipo)     H(rot)  DE(clash)    DE(int)     intcor
     18.05     -18.83       1.95        0.00      93.46       1.60       0.34       0.43       ----

> <Gold.Chemscore.Fitness>
18.0536

> <Gold.Chemscore.DG>
-18.8318

> <Gold.Chemscore.ZeroCoef>
-5.4800

> <Gold.Chemscore.Hbond>
1.9503

> <Gold.Chemscore.Metal>
0.0000

> <Gold.Chemscore.Lipo>
93.4597

> <Gold.Chemscore.Internal_Hbond>
0.0000

> <Gold.Chemscore.DEClash>
0.3441

> <Gold.Chemscore.DEInternal>
0.4342

> <Gold.Chemscore.Rot>
1.6003

> <Gold.Chemscore.Internal.Correction>
   9.000000E+99

> <Gold.Chemscore.Hbonds>
donor molecule, donor type, donor heavy atom, donor atom, acceptor molecule, acceptor atom, score
      L1  H     7    26       P1  8028  0.50
      L1  H    11    45       P1  7948  0.83

> <Gold.Chemscore.Hbond.Weighted>
-6.5139

> <Gold.Chemscore.Metal.Weighted>
-0.0000

> <Gold.Chemscore.Lipo.Weighted>
-10.9348

> <Gold.Chemscore.Internal_Hbond.Weighted>
0.0000

> <Gold.Chemscore.DEClash.Weighted>
0.3441

> <Gold.Chemscore.DEInternal.Weighted>
0.4342

> <Gold.Chemscore.Rot.Weighted>
4.0968

> <Gold.Chemscore.Internal.Correction.Weighted>
   9.000000E+99

> <Gold.Protein.RotatedTorsions>
[ 6907 6896 6895 6894 ] final -144.73 input  -60.11 | X-H torsion
[ 7974 7965 7964 7962 ] final  130.11 input  175.53 | X-H torsion
[ 8008 7997 7996 7995 ] final    6.33 input   59.86 | X-H torsion
[ 10167 10162 10161 10158 ] final   47.30 input  -65.29 | X-H torsion
[ 10718 10713 10712 10709 ] final   99.95 input   66.30 | X-H torsion
[ 10763 10752 10751 10750 ] final  112.58 input  -60.55 | X-H torsion
[ 11005 11000 10999 10996 ] final -128.14 input  -57.11 | X-H torsion

> <Gold.Protein.ActiveResidues>
 VAL166  LYS551  ARG553  GLY616  TRP617  ASP618  TYR619  PRO620  LYS621  CYS622 
 ASP623  PHE694  ASN695  SER759  ASP760  ASP761  ALA762  ILE779  LEU786  VAL792 
 PHE793  MET794  SER795  GLU796  ALA797  LYS798  CYS799  TRP800  GLU811  SER814 

> <Gold.Protein.RotatedAtoms>
  151.1180  133.5125  159.2602 H   0  0  0  0  0  0  0  0  0  0  0  0  # atno 6907 bound_to 6896
  151.1893  135.0395  159.8836 H   0  0  0  0  0  0  0  0  0  0  0  0  # atno 6908 bound_to 6896
  152.5454  134.1022  159.8376 H   0  0  0  0  0  0  0  0  0  0  0  0  # atno 6909 bound_to 6896
  145.0214  139.4128  143.5195 H   0  0  0  0  0  0  0  0  0  0  0  0  # atno 7974 bound_to 7965
  154.7397  140.2746  155.6384 H   0  0  0  0  0  0  0  0  0  0  0  0  # atno 8008 bound_to 7997
  156.2870  140.2699  156.2047 H   0  0  0  0  0  0  0  0  0  0  0  0  # atno 8009 bound_to 7997
  155.0274  140.0371  157.2451 H   0  0  0  0  0  0  0  0  0  0  0  0  # atno 8010 bound_to 7997
  140.3051  144.2888  150.6211 H   0  0  0  0  0  0  0  0  0  0  0  0  # atno 10167 bound_to 10162
  157.6865  131.0684  150.5026 H   0  0  0  0  0  0  0  0  0  0  0  0  # atno 10718 bound_to 10713
  153.4799  135.3682  155.2436 H   0  0  0  0  0  0  0  0  0  0  0  0  # atno 10763 bound_to 10752
  154.8755  135.3952  154.3712 H   0  0  0  0  0  0  0  0  0  0  0  0  # atno 10764 bound_to 10752
  153.4314  135.7082  153.6293 H   0  0  0  0  0  0  0  0  0  0  0  0  # atno 10765 bound_to 10752
  140.9541  134.1026  157.4034 H   0  0  0  0  0  0  0  0  0  0  0  0  # atno 11005 bound_to 11000
  146.3486  139.9714  142.8706 LP  0  0  0  0  0  0  0  0  0  0  0  0  # atno 17320 bound_to 7965
  145.1891  140.9803  143.4222 LP  0  0  0  0  0  0  0  0  0  0  0  0  # atno 17321 bound_to 7965
  140.5617  143.2191  151.7753 LP  0  0  0  0  0  0  0  0  0  0  0  0  # atno 17342 bound_to 10162
  139.4906  144.4339  151.9841 LP  0  0  0  0  0  0  0  0  0  0  0  0  # atno 17343 bound_to 10162
  156.5347  130.4193  149.6184 LP  0  0  0  0  0  0  0  0  0  0  0  0  # atno 17370 bound_to 10713
  156.3038  130.7191  151.2069 LP  0  0  0  0  0  0  0  0  0  0  0  0  # atno 17371 bound_to 10713
  139.8856  135.0074  156.6448 LP  0  0  0  0  0  0  0  0  0  0  0  0  # atno 17394 bound_to 11000
  140.7561  133.8856  155.8383 LP  0  0  0  0  0  0  0  0  0  0  0  0  # atno 17395 bound_to 11000

$$$$
