AV-unprocessed.smi:1809|AV-procd|sdf|7322|dock1
  -GOLD-   22720 8573D 1   1.00000     0.00000
 Structure written by MMmdl.
 39 41  0  0  0  0  0  0  0  0  3 V2000
  151.2326  142.7635  157.5704 C   0  0  0  0  0  0  0  0  0  0  0  0
  151.1487  141.5000  156.7845 C   0  0  0  0  0  0  0  0  0  0  0  0
  152.0070  140.4898  156.9457 N   0  0  0  0  0  0  0  0  0  0  0  0
  151.7248  139.4247  156.1026 N   0  0  0  0  0  0  0  0  0  0  0  0
  150.6667  139.6477  155.3100 C   0  0  0  0  0  0  0  0  0  0  0  0
  150.2259  138.7390  154.4242 N   0  5  0  0  0  0  0  0  0  0  0  0
  150.8358  137.5366  154.3298 C   0  0  0  0  0  0  0  0  0  0  0  0
  152.0339  137.3364  154.1163 O   0  0  0  0  0  0  0  0  0  0  0  0
  150.0065  136.4987  154.4941 N   0  0  0  0  0  0  0  0  0  0  0  0
  150.4053  135.0992  154.4593 C   0  0  0  0  0  0  0  0  0  0  0  0
  149.2795  134.1961  154.9988 C   0  0  1  0  0  0  0  0  0  0  0  0
  147.8693  134.7624  154.7058 C   0  0  0  0  0  0  0  0  0  0  0  0
  147.5621  134.5648  153.2768 N   0  3  2  0  0  0  0  0  0  0  0  0
  146.2646  135.0445  152.7712 C   0  0  0  0  0  0  0  0  0  0  0  0
  145.9923  134.1970  151.5125 C   0  0  0  0  0  0  0  0  0  0  0  0
  147.1063  133.1351  151.4745 C   0  0  0  0  0  0  0  0  0  0  0  0
  147.6511  133.1526  152.8995 C   0  0  1  0  0  0  0  0  0  0  0  0
  149.0856  132.6620  153.1282 C   0  0  0  0  0  0  0  0  0  0  0  0
  149.3961  132.8495  154.5115 O   0  0  0  0  0  0  0  0  0  0  0  0
  149.9147  141.2217  155.5675 S   0  0  0  0  0  0  0  0  0  0  0  0
  151.9768  143.4270  157.1302 H   0  0  0  0  0  0  0  0  0  0  0  0
  151.5168  142.5500  158.6013 H   0  0  0  0  0  0  0  0  0  0  0  0
  150.2678  143.2710  157.5738 H   0  0  0  0  0  0  0  0  0  0  0  0
  149.0324  136.6997  154.6684 H   0  0  0  0  0  0  0  0  0  0  0  0
  150.6358  134.8260  153.4285 H   0  0  0  0  0  0  0  0  0  0  0  0
  151.3248  134.9661  155.0305 H   0  0  0  0  0  0  0  0  0  0  0  0
  149.3978  134.1445  156.0818 H   0  0  0  0  0  0  0  0  0  0  0  0
  147.1242  134.2468  155.3134 H   0  0  0  0  0  0  0  0  0  0  0  0
  147.8139  135.8217  154.9591 H   0  0  0  0  0  0  0  0  0  0  0  0
  145.4867  134.8698  153.5162 H   0  0  0  0  0  0  0  0  0  0  0  0
  146.2989  136.1132  152.5587 H   0  0  0  0  0  0  0  0  0  0  0  0
  145.0099  133.7279  151.5801 H   0  0  0  0  0  0  0  0  0  0  0  0
  146.0040  134.8046  150.6071 H   0  0  0  0  0  0  0  0  0  0  0  0
  146.7441  132.1514  151.1742 H   0  0  0  0  0  0  0  0  0  0  0  0
  147.8828  133.4378  150.7703 H   0  0  0  0  0  0  0  0  0  0  0  0
  146.9722  132.5781  153.5338 H   0  0  0  0  0  0  0  0  0  0  0  0
  149.1677  131.6021  152.8873 H   0  0  0  0  0  0  0  0  0  0  0  0
  149.7976  133.1891  152.4926 H   0  0  0  0  0  0  0  0  0  0  0  0
  148.2738  135.0472  152.7462 H   0  0  0  0  0  0  0  0  0  0  0  0
  1  2  1  0  0  0  0
  1 21  1  0  0  0  0
  1 22  1  0  0  0  0
  1 23  1  0  0  0  0
  2 20  1  0  0  0  0
  2  3  2  0  0  0  0
  3  4  1  0  0  0  0
  4  5  2  0  0  0  0
  5  6  1  0  0  0  0
  5 20  1  0  0  0  0
  6  7  1  0  0  0  0
  7  8  2  0  0  0  0
  7  9  1  0  0  0  0
  9 10  1  0  0  0  0
  9 24  1  0  0  0  0
 10 11  1  0  0  0  0
 10 25  1  0  0  0  0
 10 26  1  0  0  0  0
 11 19  1  0  0  0  0
 11 12  1  0  0  0  0
 11 27  1  0  0  0  0
 12 13  1  0  0  0  0
 12 28  1  0  0  0  0
 12 29  1  0  0  0  0
 13 17  1  0  0  0  0
 13 14  1  0  0  0  0
 13 39  1  0  0  0  0
 14 15  1  0  0  0  0
 14 30  1  0  0  0  0
 14 31  1  0  0  0  0
 15 16  1  0  0  0  0
 15 32  1  0  0  0  0
 15 33  1  0  0  0  0
 16 17  1  0  0  0  0
 16 34  1  0  0  0  0
 16 35  1  0  0  0  0
 17 18  1  0  0  0  0
 17 36  1  0  0  0  0
 18 19  1  0  0  0  0
 18 37  1  0  0  0  0
 18 38  1  0  0  0  0
M  CHG  1   6  -1
M  CHG  1  13   1
M  END
> <s_m_source_file>
AV-unprocessed.smi

> <i_m_source_file_index>
1809

> <i_lp_mmshare_version>
43012

> <i_f3d_flags>
0

> <s_epik_input>
W0NIM11jMW5uYyhzMSlbTkhdQyg9TylbTkhdW0NIMl1bQ0BIXShbQ0gyXTIpT1tDSDJdW0NAQEhdKE4yMylbQ0gyXVtDSDJdW0NIMl0z

> <s_epik_cmdline>
J2VwaWtfcHl0aG9uJywgJy1waCcsICc3LjAnLCAnLXRuJywgJzgnLCAnLW1hJywgJzIwMCcsICctbWV0YWxfYmluZGluZycsICctaW1hZScsICc8aW5maWxlLm1hZT4nLCAnLW9tYWUnLCAnPG91dGZpbGUubWFlPic=

> <r_lp_tautomer_probability>
1

> <r_epik_Ionization_Penalty>
3.2601

> <r_epik_Ionization_Penalty_Charging>
3.1406

> <r_epik_Ionization_Penalty_Neutral>
0.119497

> <r_epik_State_Penalty>
3.08894

> <r_epik_Charging_Adjusted_Penalty>
6.22954

> <i_epik_Tot_Q>
0

> <i_epik_Tot_abs_Q>
2

> <r_epik_Metal_State_Penalty>
0.510807

> <b_epik_Metal_Only>
1

> <s_lp_Force_Field>
OPLS_2005

> <r_lp_Energy>
31.1034

> <b_lp_Chiralities_Consistent>
1

> <s_lp_Variant>
AV-unprocessed.smi:1809-14

> <Gold.Version>
5.8.1

> <Gold.Id.Protein>
6NUR|6NUR_protein|mol2

> <Gold.PLP.Fitness>
39.7508

> <Gold.PLP.PLP>
-32.4671

> <Gold.PLP.part.hbond>
-3.0000

> <Gold.PLP.part.metal>
0.0000

> <Gold.PLP.part.buried>
-4.0941

> <Gold.PLP.part.nonpolar>
-26.7149

> <Gold.PLP.part.repulsive>
0.4137

> <Gold.PLP.ligand.clash>
0.0000

> <Gold.PLP.ligand.torsion>
0.8754

> <Gold.PLP.Chemscore.Hbond>
2.9920

> <Gold.PLP.Chemscore.CHOScore>
0.0000

> <Gold.PLP.Chemscore.Metal>
0.0000

> <Gold.Chemscore.Hbonds>
donor molecule, donor type, donor heavy atom, donor atom, acceptor molecule, acceptor atom, score
      L1  H    13    39       P1  7948  2.00
      P1  H  7997  8008       L1     3  0.03
      P1  H 10752 10763       L1     8  0.93

> <Gold.PLP.Chemscore.Internal.Correction>
0.0585

> <Gold.Rescore>
     Score         DG    S(hbond)    S(metal)    S(lipo)     H(rot)  DE(clash)    DE(int)     intcor
     14.40     -16.66       2.32        0.00      58.30       1.32       0.13       2.13       ----

> <Gold.Chemscore.Fitness>
14.4030

> <Gold.Chemscore.DG>
-16.6560

> <Gold.Chemscore.ZeroCoef>
-5.4800

> <Gold.Chemscore.Hbond>
2.3192

> <Gold.Chemscore.Metal>
0.0000

> <Gold.Chemscore.Lipo>
58.2969

> <Gold.Chemscore.Internal_Hbond>
0.0000

> <Gold.Chemscore.DEClash>
0.1252

> <Gold.Chemscore.DEInternal>
2.1278

> <Gold.Chemscore.Rot>
1.3246

> <Gold.Chemscore.Internal.Correction>
   9.000000E+99

> <Gold.Chemscore.Hbonds>
donor molecule, donor type, donor heavy atom, donor atom, acceptor molecule, acceptor atom, score
      L1  H    13    39       P1  7948  0.80
      P1  H 10752 10763       L1     8  0.89

> <Gold.Chemscore.Hbond.Weighted>
-7.7462

> <Gold.Chemscore.Metal.Weighted>
-0.0000

> <Gold.Chemscore.Lipo.Weighted>
-6.8207

> <Gold.Chemscore.Internal_Hbond.Weighted>
0.0000

> <Gold.Chemscore.DEClash.Weighted>
0.1252

> <Gold.Chemscore.DEInternal.Weighted>
2.1278

> <Gold.Chemscore.Rot.Weighted>
3.3910

> <Gold.Chemscore.Internal.Correction.Weighted>
   9.000000E+99

> <Gold.Protein.RotatedTorsions>
[ 6907 6896 6895 6894 ] final  -29.83 input  -60.11 | X-H torsion
[ 7974 7965 7964 7962 ] final   93.35 input  175.53 | X-H torsion
[ 8008 7997 7996 7995 ] final  -56.68 input   59.86 | X-H torsion
[ 10167 10162 10161 10158 ] final  104.70 input  -65.29 | X-H torsion
[ 10718 10713 10712 10709 ] final -129.23 input   66.30 | X-H torsion
[ 10763 10752 10751 10750 ] final   40.49 input  -60.55 | X-H torsion
[ 11005 11000 10999 10996 ] final   62.96 input  -57.11 | X-H torsion

> <Gold.Protein.ActiveResidues>
 VAL166  LYS551  ARG553  GLY616  TRP617  ASP618  TYR619  PRO620  LYS621  CYS622 
 ASP623  PHE694  ASN695  SER759  ASP760  ASP761  ALA762  ILE779  LEU786  VAL792 
 PHE793  MET794  SER795  GLU796  ALA797  LYS798  CYS799  TRP800  GLU811  SER814 

> <Gold.Protein.RotatedAtoms>
  151.1139  135.0042  159.8506 H   0  0  0  0  0  0  0  0  0  0  0  0  # atno 6907 bound_to 6896
  152.5444  134.1803  159.8643 H   0  0  0  0  0  0  0  0  0  0  0  0  # atno 6908 bound_to 6896
  151.1856  133.4654  159.2627 H   0  0  0  0  0  0  0  0  0  0  0  0  # atno 6909 bound_to 6896
  145.4801  139.2279  143.2887 H   0  0  0  0  0  0  0  0  0  0  0  0  # atno 7974 bound_to 7965
  154.4239  140.1124  156.5676 H   0  0  0  0  0  0  0  0  0  0  0  0  # atno 8008 bound_to 7997
  155.6245  140.3495  155.4644 H   0  0  0  0  0  0  0  0  0  0  0  0  # atno 8009 bound_to 7997
  155.9997  140.1196  157.0549 H   0  0  0  0  0  0  0  0  0  0  0  0  # atno 8010 bound_to 7997
  139.7155  144.7069  151.0957 H   0  0  0  0  0  0  0  0  0  0  0  0  # atno 10167 bound_to 10162
  156.2027  130.6867  151.0558 H   0  0  0  0  0  0  0  0  0  0  0  0  # atno 10718 bound_to 10713
  152.9935  135.6190  154.2635 H   0  0  0  0  0  0  0  0  0  0  0  0  # atno 10763 bound_to 10752
  154.2370  135.2790  155.2870 H   0  0  0  0  0  0  0  0  0  0  0  0  # atno 10764 bound_to 10752
  154.5401  135.5763  153.6890 H   0  0  0  0  0  0  0  0  0  0  0  0  # atno 10765 bound_to 10752
  140.0057  134.6374  155.9860 H   0  0  0  0  0  0  0  0  0  0  0  0  # atno 11005 bound_to 11000
  146.2346  140.5587  142.8960 LP  0  0  0  0  0  0  0  0  0  0  0  0  # atno 17320 bound_to 7965
  144.7894  140.6001  143.6552 LP  0  0  0  0  0  0  0  0  0  0  0  0  # atno 17321 bound_to 7965
  140.7743  143.5235  150.9507 LP  0  0  0  0  0  0  0  0  0  0  0  0  # atno 17342 bound_to 10162
  139.8921  143.6940  152.3143 LP  0  0  0  0  0  0  0  0  0  0  0  0  # atno 17343 bound_to 10162
  157.6995  131.0781  150.6866 LP  0  0  0  0  0  0  0  0  0  0  0  0  # atno 17370 bound_to 10713
  156.6924  130.4599  149.5596 LP  0  0  0  0  0  0  0  0  0  0  0  0  # atno 17371 bound_to 10713
  141.1675  133.6537  156.4531 LP  0  0  0  0  0  0  0  0  0  0  0  0  # atno 17394 bound_to 11000
  140.4646  134.6809  157.5101 LP  0  0  0  0  0  0  0  0  0  0  0  0  # atno 17395 bound_to 11000

$$$$
