AV-unprocessed.smi:1631|AV-procd|sdf|6527|dock10
  -GOLD-   22720 7203D 1   1.00000     0.00000
 Structure written by MMmdl.
 38 39  0  0  0  0  0  0  0  0  1 V2000
  148.6039  132.7985  152.7336 C   0  0  0  0  0  0  0  0  0  0  0  0
  149.0917  133.3441  154.0485 C   0  0  0  0  0  0  0  0  0  0  0  0
  148.7790  134.5680  154.3198 N   0  0  0  0  0  0  0  0  0  0  0  0
  149.1609  135.1628  155.5065 N   0  0  0  0  0  0  0  0  0  0  0  0
  148.6697  136.5370  155.6781 C   0  0  0  0  0  0  0  0  0  0  0  0
  149.7084  137.6017  155.2470 C   0  0  1  0  0  0  0  0  0  0  0  0
  150.5414  137.0239  154.2634 O   0  0  0  0  0  0  0  0  0  0  0  0
  149.0706  138.9025  154.7509 C   0  0  0  0  0  0  0  0  0  0  0  0
  148.1187  138.8140  153.7086 C   0  0  0  0  0  0  0  0  0  0  0  0
  147.4683  139.9603  153.2208 C   0  0  0  0  0  0  0  0  0  0  0  0
  147.7689  141.2173  153.7686 C   0  0  0  0  0  0  0  0  0  0  0  0
  148.7244  141.3242  154.7946 C   0  0  0  0  0  0  0  0  0  0  0  0
  149.3907  140.1801  155.2954 C   0  0  0  0  0  0  0  0  0  0  0  0
  150.4391  140.3588  156.3945 C   0  0  0  0  0  0  0  0  0  0  0  0
  150.5739  141.6374  156.7488 F   0  0  0  0  0  0  0  0  0  0  0  0
  150.0906  139.6768  157.4837 F   0  0  0  0  0  0  0  0  0  0  0  0
  151.6286  139.9345  155.9673 F   0  0  0  0  0  0  0  0  0  0  0  0
  149.9190  134.5616  156.4667 C   0  0  0  0  0  0  0  0  0  0  0  0
  150.2564  135.1379  157.5019 O   0  0  0  0  0  0  0  0  0  0  0  0
  150.2708  133.1749  156.1533 C   0  0  0  0  0  0  0  0  0  0  0  0
  151.0473  132.5004  157.1429 C   0  0  0  0  0  0  0  0  0  0  0  0
  151.6929  131.9674  157.9425 N   0  0  0  0  0  0  0  0  0  0  0  0
  149.8787  132.5710  155.0035 C   0  0  0  0  0  0  0  0  0  0  0  0
  150.2135  131.1328  154.6332 C   0  0  0  0  0  0  0  0  0  0  0  0
  149.4352  132.4246  152.1356 H   0  0  0  0  0  0  0  0  0  0  0  0
  148.0907  133.5592  152.1432 H   0  0  0  0  0  0  0  0  0  0  0  0
  147.9038  131.9781  152.8924 H   0  0  0  0  0  0  0  0  0  0  0  0
  147.7431  136.6737  155.1171 H   0  0  0  0  0  0  0  0  0  0  0  0
  148.3872  136.6926  156.7210 H   0  0  0  0  0  0  0  0  0  0  0  0
  150.3528  137.7907  156.1010 H   0  0  0  0  0  0  0  0  0  0  0  0
  150.0621  136.9863  153.4497 H   0  0  0  0  0  0  0  0  0  0  0  0
  147.8740  137.8532  153.2801 H   0  0  0  0  0  0  0  0  0  0  0  0
  146.7392  139.8739  152.4286 H   0  0  0  0  0  0  0  0  0  0  0  0
  147.2718  142.1016  153.3979 H   0  0  0  0  0  0  0  0  0  0  0  0
  148.9405  142.3051  155.1899 H   0  0  0  0  0  0  0  0  0  0  0  0
  150.7305  130.6095  155.4370 H   0  0  0  0  0  0  0  0  0  0  0  0
  150.8578  131.1066  153.7540 H   0  0  0  0  0  0  0  0  0  0  0  0
  149.3062  130.5700  154.4118 H   0  0  0  0  0  0  0  0  0  0  0  0
  1  2  1  0  0  0  0
  1 25  1  0  0  0  0
  1 26  1  0  0  0  0
  1 27  1  0  0  0  0
  2 23  1  0  0  0  0
  2  3  2  0  0  0  0
  3  4  1  0  0  0  0
  4  5  1  0  0  0  0
  4 18  1  0  0  0  0
  5  6  1  0  0  0  0
  5 28  1  0  0  0  0
  5 29  1  0  0  0  0
  6  7  1  0  0  0  0
  6  8  1  0  0  0  0
  6 30  1  0  0  0  0
  7 31  1  0  0  0  0
  8 13  1  0  0  0  0
  8  9  2  0  0  0  0
  9 10  1  0  0  0  0
  9 32  1  0  0  0  0
 10 11  2  0  0  0  0
 10 33  1  0  0  0  0
 11 12  1  0  0  0  0
 11 34  1  0  0  0  0
 12 13  2  0  0  0  0
 12 35  1  0  0  0  0
 13 14  1  0  0  0  0
 14 15  1  0  0  0  0
 14 16  1  0  0  0  0
 14 17  1  0  0  0  0
 18 19  2  0  0  0  0
 18 20  1  0  0  0  0
 20 21  1  0  0  0  0
 20 23  2  0  0  0  0
 21 22  3  0  0  0  0
 23 24  1  0  0  0  0
 24 36  1  0  0  0  0
 24 37  1  0  0  0  0
 24 38  1  0  0  0  0
M  END
> <s_m_source_file>
AV-unprocessed.smi

> <i_m_source_file_index>
1631

> <i_lp_mmshare_version>
43012

> <i_f3d_flags>
0

> <s_epik_input>
TiNDYyhjMVtDSDNdKWMoPU8pbihuYzFbQ0gzXSlbQ0gyXVtDQEhdKFtPSF0pYzJbY0hdW2NIXVtjSF1bY0hdYzJDKEYpKEYpRg==

> <s_epik_cmdline>
J2VwaWtfcHl0aG9uJywgJy1waCcsICc3LjAnLCAnLXRuJywgJzgnLCAnLW1hJywgJzIwMCcsICctbWV0YWxfYmluZGluZycsICctaW1hZScsICc8aW5maWxlLm1hZT4nLCAnLW9tYWUnLCAnPG91dGZpbGUubWFlPic=

> <r_lp_tautomer_probability>
1

> <r_epik_Ionization_Penalty>
7.1854e-08

> <r_epik_Ionization_Penalty_Charging>
1.40848e-10

> <r_epik_Ionization_Penalty_Neutral>
7.17131e-08

> <r_epik_State_Penalty>
-0

> <r_epik_Charging_Adjusted_Penalty>
1.40848e-10

> <i_epik_Tot_Q>
0

> <i_epik_Tot_abs_Q>
0

> <r_epik_Metal_State_Penalty>
-0

> <b_epik_Metal_Only>
0

> <s_lp_Force_Field>
OPLS_2005

> <r_lp_Energy>
27.8833

> <b_lp_Chiralities_Consistent>
1

> <s_lp_Variant>
AV-unprocessed.smi:1631-2

> <Gold.Version>
5.8.1

> <Gold.Id.Protein>
6NUR|6NUR_protein|mol2

> <Gold.PLP.Fitness>
47.1016

> <Gold.PLP.PLP>
-41.9849

> <Gold.PLP.part.hbond>
-4.0000

> <Gold.PLP.part.metal>
0.0000

> <Gold.PLP.part.buried>
-3.0210

> <Gold.PLP.part.nonpolar>
-36.5249

> <Gold.PLP.part.repulsive>
0.8041

> <Gold.PLP.ligand.clash>
1.4871

> <Gold.PLP.ligand.torsion>
0.8202

> <Gold.PLP.Chemscore.Hbond>
2.2475

> <Gold.PLP.Chemscore.CHOScore>
0.0000

> <Gold.PLP.Chemscore.Metal>
0.0000

> <Gold.Chemscore.Hbonds>
donor molecule, donor type, donor heavy atom, donor atom, acceptor molecule, acceptor atom, score
      L1  H     7    31       P1  7948  0.89
      P1  H  6896  6907       L1    22  0.91
      P1  H  6896  6908       L1    19  0.51

> <Gold.PLP.Chemscore.Internal.Correction>
1.5017

> <Gold.Rescore>
     Score         DG    S(hbond)    S(metal)    S(lipo)     H(rot)  DE(clash)    DE(int)     intcor
      9.89     -11.70       0.93        0.00      72.93       2.11       0.04       1.77       ----

> <Gold.Chemscore.Fitness>
9.8862

> <Gold.Chemscore.DG>
-11.6977

> <Gold.Chemscore.ZeroCoef>
-5.4800

> <Gold.Chemscore.Hbond>
0.9259

> <Gold.Chemscore.Metal>
0.0000

> <Gold.Chemscore.Lipo>
72.9302

> <Gold.Chemscore.Internal_Hbond>
0.0000

> <Gold.Chemscore.DEClash>
0.0413

> <Gold.Chemscore.DEInternal>
1.7701

> <Gold.Chemscore.Rot>
2.1124

> <Gold.Chemscore.Internal.Correction>
   9.000000E+99

> <Gold.Chemscore.Hbonds>
donor molecule, donor type, donor heavy atom, donor atom, acceptor molecule, acceptor atom, score
      L1  H     7    31       P1  7948  0.16
      P1  H  6896  6907       L1    22  0.44
      P1  H  6896  6908       L1    19  0.51

> <Gold.Chemscore.Hbond.Weighted>
-3.0926

> <Gold.Chemscore.Metal.Weighted>
-0.0000

> <Gold.Chemscore.Lipo.Weighted>
-8.5328

> <Gold.Chemscore.Internal_Hbond.Weighted>
0.0000

> <Gold.Chemscore.DEClash.Weighted>
0.0413

> <Gold.Chemscore.DEInternal.Weighted>
1.7701

> <Gold.Chemscore.Rot.Weighted>
5.4078

> <Gold.Chemscore.Internal.Correction.Weighted>
   9.000000E+99

> <Gold.Protein.RotatedTorsions>
[ 6907 6896 6895 6894 ] final  160.21 input  -60.11 | X-H torsion
[ 7974 7965 7964 7962 ] final   56.87 input  175.53 | X-H torsion
[ 8008 7997 7996 7995 ] final   66.30 input   59.86 | X-H torsion
[ 10167 10162 10161 10158 ] final  -82.16 input  -65.29 | X-H torsion
[ 10718 10713 10712 10709 ] final  132.21 input   66.30 | X-H torsion
[ 10763 10752 10751 10750 ] final   48.45 input  -60.55 | X-H torsion
[ 11005 11000 10999 10996 ] final    6.05 input  -57.11 | X-H torsion

> <Gold.Protein.ActiveResidues>
 VAL166  LYS551  ARG553  GLY616  TRP617  ASP618  TYR619  PRO620  LYS621  CYS622 
 ASP623  PHE694  ASN695  SER759  ASP760  ASP761  ALA762  ILE779  LEU786  VAL792 
 PHE793  MET794  SER795  GLU796  ALA797  LYS798  CYS799  TRP800  GLU811  SER814 

> <Gold.Protein.RotatedAtoms>
  151.9741  133.3735  159.4081 H   0  0  0  0  0  0  0  0  0  0  0  0  # atno 6907 bound_to 6896
  150.6944  134.4109  159.5170 H   0  0  0  0  0  0  0  0  0  0  0  0  # atno 6908 bound_to 6896
  152.1817  134.8748  160.0576 H   0  0  0  0  0  0  0  0  0  0  0  0  # atno 6909 bound_to 6896
  145.9351  139.3841  143.0397 H   0  0  0  0  0  0  0  0  0  0  0  0  # atno 7974 bound_to 7965
  155.6752  140.3497  155.4834 H   0  0  0  0  0  0  0  0  0  0  0  0  # atno 8008 bound_to 7997
  155.9654  140.1145  157.0882 H   0  0  0  0  0  0  0  0  0  0  0  0  # atno 8009 bound_to 7997
  154.4153  140.1167  156.5221 H   0  0  0  0  0  0  0  0  0  0  0  0  # atno 8010 bound_to 7997
  140.4345  143.2536  151.8712 H   0  0  0  0  0  0  0  0  0  0  0  0  # atno 10167 bound_to 10162
  157.4893  131.1090  150.9578 H   0  0  0  0  0  0  0  0  0  0  0  0  # atno 10718 bound_to 10713
  152.9792  135.5944  154.3927 H   0  0  0  0  0  0  0  0  0  0  0  0  # atno 10763 bound_to 10752
  154.3581  135.2767  155.2337 H   0  0  0  0  0  0  0  0  0  0  0  0  # atno 10764 bound_to 10752
  154.4346  135.6028  153.6145 H   0  0  0  0  0  0  0  0  0  0  0  0  # atno 10765 bound_to 10752
  140.5638  134.0167  155.7982 H   0  0  0  0  0  0  0  0  0  0  0  0  # atno 11005 bound_to 11000
  145.8374  140.9599  143.0817 LP  0  0  0  0  0  0  0  0  0  0  0  0  # atno 17320 bound_to 7965
  144.6770  140.0240  143.7483 LP  0  0  0  0  0  0  0  0  0  0  0  0  # atno 17321 bound_to 7965
  139.4786  144.5297  151.8684 LP  0  0  0  0  0  0  0  0  0  0  0  0  # atno 17342 bound_to 10162
  140.4389  144.2014  150.5890 LP  0  0  0  0  0  0  0  0  0  0  0  0  # atno 17343 bound_to 10162
  157.0285  130.5702  149.5340 LP  0  0  0  0  0  0  0  0  0  0  0  0  # atno 17370 bound_to 10713
  156.0164  130.5258  150.8148 LP  0  0  0  0  0  0  0  0  0  0  0  0  # atno 17371 bound_to 10713
  141.1098  133.9635  157.2930 LP  0  0  0  0  0  0  0  0  0  0  0  0  # atno 17394 bound_to 11000
  139.9395  135.0193  156.8662 LP  0  0  0  0  0  0  0  0  0  0  0  0  # atno 17395 bound_to 11000

$$$$
