AV-unprocessed.smi:133|AV-procd|sdf|1166|dock2
  -GOLD-   2262018303D 1   1.00000     0.00000
 Structure written by MMmdl.
 47 50  0  0  0  0  0  0  0  0  1 V2000
  151.8522  137.1137  154.0979 O   0  0  0  0  0  0  0  0  0  0  0  0
  151.7985  137.4624  155.2765 C   0  0  0  0  0  0  0  0  0  0  0  0
  152.6074  138.7000  155.7070 C   0  0  0  0  0  0  0  0  0  0  0  0
  151.8012  139.8666  156.1366 N   0  0  0  0  0  0  0  0  0  0  0  0
  150.7905  140.3511  155.2689 C   0  0  0  0  0  0  0  0  0  0  0  0
  150.5812  139.8232  154.1759 O   0  0  0  0  0  0  0  0  0  0  0  0
  150.0439  141.5070  155.7532 C   0  0  0  0  0  0  0  0  0  0  0  0
  149.0735  142.0397  154.9915 F   0  0  0  0  0  0  0  0  0  0  0  0
  150.3173  142.0559  156.9545 C   0  0  0  0  0  0  0  0  0  0  0  0
  151.3028  141.5691  157.7927 N   0  0  0  0  0  0  0  0  0  0  0  0
  151.5828  142.2237  159.1257 C   0  0  1  0  0  0  0  0  0  0  0  0
  153.0048  142.7976  159.1485 C   0  0  0  0  0  0  0  0  0  0  0  0
  152.7612  144.2649  158.8649 C   0  0  0  0  0  0  0  0  0  0  0  0
  151.4130  144.4876  159.5388 C   0  0  0  0  0  0  0  0  0  0  0  0
  150.6887  143.2848  159.3038 O   0  0  0  0  0  0  0  0  0  0  0  0
  152.0838  140.4650  157.3879 C   0  0  0  0  0  0  0  0  0  0  0  0
  152.9977  140.0432  158.0997 O   0  0  0  0  0  0  0  0  0  0  0  0
  151.0907  136.8153  156.2239 N   0  0  0  0  0  0  0  0  0  0  0  0
  150.2832  135.6543  156.0936 C   0  0  0  0  0  0  0  0  0  0  0  0
  149.6034  135.0480  157.1868 C   0  0  0  0  0  0  0  0  0  0  0  0
  148.8239  133.8859  156.9964 C   0  0  0  0  0  0  0  0  0  0  0  0
  148.7458  133.3387  155.7050 C   0  0  0  0  0  0  0  0  0  0  0  0
  149.4218  133.9147  154.6379 C   0  0  0  0  0  0  0  0  0  0  0  0
  150.2030  135.0707  154.8078 C   0  0  0  0  0  0  0  0  0  0  0  0
  149.1938  133.1526  153.3613 C   0  0  0  0  0  0  0  0  0  0  0  0
  148.4133  131.8944  153.8128 C   0  0  0  0  0  0  0  0  0  0  0  0
  147.9760  132.1181  155.2808 C   0  0  0  0  0  0  0  0  0  0  0  0
  153.2929  138.3937  156.4986 H   0  0  0  0  0  0  0  0  0  0  0  0
  153.2709  138.9703  154.8839 H   0  0  0  0  0  0  0  0  0  0  0  0
  149.7390  142.9149  157.2613 H   0  0  0  0  0  0  0  0  0  0  0  0
  151.4017  141.4681  159.8917 H   0  0  0  0  0  0  0  0  0  0  0  0
  153.4167  142.6651  160.1496 H   0  0  0  0  0  0  0  0  0  0  0  0
  153.6631  142.3092  158.4286 H   0  0  0  0  0  0  0  0  0  0  0  0
  153.5459  144.9128  159.2565 H   0  0  0  0  0  0  0  0  0  0  0  0
  152.6802  144.4351  157.7906 H   0  0  0  0  0  0  0  0  0  0  0  0
  151.5414  144.6186  160.6142 H   0  0  0  0  0  0  0  0  0  0  0  0
  150.8843  145.3578  159.1490 H   0  0  0  0  0  0  0  0  0  0  0  0
  151.2081  137.1559  157.1668 H   0  0  0  0  0  0  0  0  0  0  0  0
  149.6763  135.4518  158.1848 H   0  0  0  0  0  0  0  0  0  0  0  0
  148.3043  133.4276  157.8249 H   0  0  0  0  0  0  0  0  0  0  0  0
  150.7229  135.5066  153.9668 H   0  0  0  0  0  0  0  0  0  0  0  0
  148.6020  133.7613  152.6770 H   0  0  0  0  0  0  0  0  0  0  0  0
  150.1370  132.8990  152.8765 H   0  0  0  0  0  0  0  0  0  0  0  0
  147.5750  131.6615  153.1556 H   0  0  0  0  0  0  0  0  0  0  0  0
  149.0892  131.0390  153.7807 H   0  0  0  0  0  0  0  0  0  0  0  0
  148.2086  131.2617  155.9146 H   0  0  0  0  0  0  0  0  0  0  0  0
  146.9072  132.3229  155.3488 H   0  0  0  0  0  0  0  0  0  0  0  0
  1  2  2  0  0  0  0
  2  3  1  0  0  0  0
  2 18  1  0  0  0  0
  3  4  1  0  0  0  0
  3 28  1  0  0  0  0
  3 29  1  0  0  0  0
  4 16  1  0  0  0  0
  4  5  1  0  0  0  0
  5  6  2  0  0  0  0
  5  7  1  0  0  0  0
  7  8  1  0  0  0  0
  7  9  2  0  0  0  0
  9 10  1  0  0  0  0
  9 30  1  0  0  0  0
 10 11  1  0  0  0  0
 10 16  1  0  0  0  0
 11 15  1  0  0  0  0
 11 12  1  0  0  0  0
 11 31  1  0  0  0  0
 12 13  1  0  0  0  0
 12 32  1  0  0  0  0
 12 33  1  0  0  0  0
 13 14  1  0  0  0  0
 13 34  1  0  0  0  0
 13 35  1  0  0  0  0
 14 15  1  0  0  0  0
 14 36  1  0  0  0  0
 14 37  1  0  0  0  0
 16 17  2  0  0  0  0
 18 19  1  0  0  0  0
 18 38  1  0  0  0  0
 19 24  1  0  0  0  0
 19 20  2  0  0  0  0
 20 21  1  0  0  0  0
 20 39  1  0  0  0  0
 21 22  2  0  0  0  0
 21 40  1  0  0  0  0
 22 27  1  0  0  0  0
 22 23  1  0  0  0  0
 23 24  2  0  0  0  0
 23 25  1  0  0  0  0
 24 41  1  0  0  0  0
 25 26  1  0  0  0  0
 25 42  1  0  0  0  0
 25 43  1  0  0  0  0
 26 27  1  0  0  0  0
 26 44  1  0  0  0  0
 26 45  1  0  0  0  0
 27 46  1  0  0  0  0
 27 47  1  0  0  0  0
M  END
> <s_m_source_file>
AV-unprocessed.smi

> <i_m_source_file_index>
133

> <i_lp_mmshare_version>
43012

> <i_f3d_flags>
0

> <s_epik_input>
W0NIMl0xW0NIMl1bQ0gyXWMoYzEyKVtjSF1jKFtjSF1bY0hdMilbTkhdQyg9TylbQ0gyXW4zYyg9TyljKEYpW2NIXW4oYzM9TylbQ0BASF00W0NIMl1bQ0gyXVtDSDJdTzQ=

> <s_epik_cmdline>
J2VwaWtfcHl0aG9uJywgJy1waCcsICc3LjAnLCAnLXRuJywgJzgnLCAnLW1hJywgJzIwMCcsICctbWV0YWxfYmluZGluZycsICctaW1hZScsICc8aW5maWxlLm1hZT4nLCAnLW9tYWUnLCAnPG91dGZpbGUubWFlPic=

> <r_lp_tautomer_probability>
1

> <r_epik_Ionization_Penalty>
4.05675e-06

> <r_epik_Ionization_Penalty_Charging>
3.88729e-08

> <r_epik_Ionization_Penalty_Neutral>
4.01788e-06

> <r_epik_State_Penalty>
-0

> <r_epik_Charging_Adjusted_Penalty>
3.88729e-08

> <i_epik_Tot_Q>
0

> <i_epik_Tot_abs_Q>
0

> <r_epik_Metal_State_Penalty>
-0

> <b_epik_Metal_Only>
0

> <s_epik_Chemistry_Notes>
This compound contains an acetal/aminal-like group ( X-CH(R)-Y where X, Y are N, S, or O) that may be acid/base labile, releasing an aldehyde.

> <s_lp_Force_Field>
OPLS_2005

> <r_lp_Energy>
47.0615

> <b_lp_Chiralities_Consistent>
1

> <s_lp_Variant>
AV-unprocessed.smi:133-2

> <Gold.Version>
5.8.1

> <Gold.Id.Protein>
6NUR|6NUR_protein|mol2

> <Gold.PLP.Fitness>
55.4997

> <Gold.PLP.PLP>
-46.4242

> <Gold.PLP.part.hbond>
-3.0493

> <Gold.PLP.part.metal>
0.0000

> <Gold.PLP.part.buried>
-0.4495

> <Gold.PLP.part.nonpolar>
-45.0529

> <Gold.PLP.part.repulsive>
1.7926

> <Gold.PLP.ligand.clash>
1.0896

> <Gold.PLP.ligand.torsion>
0.1062

> <Gold.PLP.Chemscore.Hbond>
2.5500

> <Gold.PLP.Chemscore.CHOScore>
0.8968

> <Gold.PLP.Chemscore.Metal>
0.0000

> <Gold.Chemscore.Hbonds>
donor molecule, donor type, donor heavy atom, donor atom, acceptor molecule, acceptor atom, score
      P1  H  7989  7998       L1     6  0.50
      P1  H  7997  8008       L1    17  1.00
      P1  H 10752 10764       L1     1  1.00
      L1  C     9    30       P1  8028  0.84

> <Gold.PLP.Chemscore.Internal.Correction>
0.0372

> <Gold.Rescore>
     Score         DG    S(hbond)    S(metal)    S(lipo)     H(rot)  DE(clash)    DE(int)     intcor
     12.37     -18.00       1.57        0.00      96.95       1.59       0.68       4.95       ----

> <Gold.Chemscore.Fitness>
12.3660

> <Gold.Chemscore.DG>
-18.0024

> <Gold.Chemscore.ZeroCoef>
-5.4800

> <Gold.Chemscore.Hbond>
1.5695

> <Gold.Chemscore.Metal>
0.0000

> <Gold.Chemscore.Lipo>
96.9459

> <Gold.Chemscore.Internal_Hbond>
0.0000

> <Gold.Chemscore.DEClash>
0.6836

> <Gold.Chemscore.DEInternal>
4.9528

> <Gold.Chemscore.Rot>
1.5869

> <Gold.Chemscore.Internal.Correction>
   9.000000E+99

> <Gold.Chemscore.Hbonds>
donor molecule, donor type, donor heavy atom, donor atom, acceptor molecule, acceptor atom, score
      P1  H  7989  7998       L1     6  0.02
      P1  H  7997  8008       L1    17  0.62
      P1  H 10752 10764       L1     1  0.62

> <Gold.Chemscore.Hbond.Weighted>
-5.2422

> <Gold.Chemscore.Metal.Weighted>
-0.0000

> <Gold.Chemscore.Lipo.Weighted>
-11.3427

> <Gold.Chemscore.Internal_Hbond.Weighted>
0.0000

> <Gold.Chemscore.DEClash.Weighted>
0.6836

> <Gold.Chemscore.DEInternal.Weighted>
4.9528

> <Gold.Chemscore.Rot.Weighted>
4.0624

> <Gold.Chemscore.Internal.Correction.Weighted>
   9.000000E+99

> <Gold.Protein.RotatedTorsions>
[ 6907 6896 6895 6894 ] final -128.36 input  -60.11 | X-H torsion
[ 7974 7965 7964 7962 ] final  -33.02 input  175.53 | X-H torsion
[ 8008 7997 7996 7995 ] final  -88.68 input   59.86 | X-H torsion
[ 10167 10162 10161 10158 ] final    6.42 input  -65.29 | X-H torsion
[ 10718 10713 10712 10709 ] final   44.71 input   66.30 | X-H torsion
[ 10763 10752 10751 10750 ] final  -97.14 input  -60.55 | X-H torsion
[ 11005 11000 10999 10996 ] final  170.72 input  -57.11 | X-H torsion

> <Gold.Protein.ActiveResidues>
 VAL166  LYS551  ARG553  GLY616  TRP617  ASP618  TYR619  PRO620  LYS621  CYS622 
 ASP623  PHE694  ASN695  SER759  ASP760  ASP761  ALA762  ILE779  LEU786  VAL792 
 PHE793  MET794  SER795  GLU796  ALA797  LYS798  CYS799  TRP800  GLU811  SER814 

> <Gold.Protein.RotatedAtoms>
  150.9171  133.6926  159.2840 H   0  0  0  0  0  0  0  0  0  0  0  0  # atno 6907 bound_to 6896
  151.4393  135.1017  159.9675 H   0  0  0  0  0  0  0  0  0  0  0  0  # atno 6908 bound_to 6896
  152.4960  133.8583  159.7292 H   0  0  0  0  0  0  0  0  0  0  0  0  # atno 6909 bound_to 6896
  146.0944  140.5864  142.8849 H   0  0  0  0  0  0  0  0  0  0  0  0  # atno 7974 bound_to 7965
  154.6776  140.0551  157.0232 H   0  0  0  0  0  0  0  0  0  0  0  0  # atno 8008 bound_to 7997
  155.0998  140.3227  155.4531 H   0  0  0  0  0  0  0  0  0  0  0  0  # atno 8009 bound_to 7997
  156.2682  140.2033  156.6124 H   0  0  0  0  0  0  0  0  0  0  0  0  # atno 8010 bound_to 7997
  140.6429  143.7732  150.7454 H   0  0  0  0  0  0  0  0  0  0  0  0  # atno 10167 bound_to 10162
  157.4297  130.8018  149.7592 H   0  0  0  0  0  0  0  0  0  0  0  0  # atno 10718 bound_to 10713
  154.7301  135.5058  153.8950 H   0  0  0  0  0  0  0  0  0  0  0  0  # atno 10763 bound_to 10752
  153.0942  135.6667  153.9804 H   0  0  0  0  0  0  0  0  0  0  0  0  # atno 10764 bound_to 10752
  153.9607  135.3048  155.3413 H   0  0  0  0  0  0  0  0  0  0  0  0  # atno 10765 bound_to 10752
  140.3113  134.7514  157.3993 H   0  0  0  0  0  0  0  0  0  0  0  0  # atno 11005 bound_to 11000
  144.7384  140.4874  143.6887 LP  0  0  0  0  0  0  0  0  0  0  0  0  # atno 17320 bound_to 7965
  145.5977  139.1501  143.3147 LP  0  0  0  0  0  0  0  0  0  0  0  0  # atno 17321 bound_to 7965
  140.1367  143.4477  152.2220 LP  0  0  0  0  0  0  0  0  0  0  0  0  # atno 17342 bound_to 10162
  139.5638  144.7422  151.4080 LP  0  0  0  0  0  0  0  0  0  0  0  0  # atno 17343 bound_to 10162
  155.9909  130.3941  150.3008 LP  0  0  0  0  0  0  0  0  0  0  0  0  # atno 17370 bound_to 10713
  157.1164  131.0235  151.3027 LP  0  0  0  0  0  0  0  0  0  0  0  0  # atno 17371 bound_to 10713
  140.1022  134.5457  155.8342 LP  0  0  0  0  0  0  0  0  0  0  0  0  # atno 17394 bound_to 11000
  141.2107  133.6698  156.6531 LP  0  0  0  0  0  0  0  0  0  0  0  0  # atno 17395 bound_to 11000

$$$$
