AV-unprocessed.smi:2438|AV-procd|sdf|9596|dock1
  -GOLD-   2272013233D 1   1.00000     0.00000
 Structure written by MMmdl.
 43 44  0  0  0  0  0  0  0  0  1 V2000
  149.8221  141.4150  155.4204 C   0  0  0  0  0  0  0  0  0  0  0  0
  149.9187  140.2900  156.3404 N   0  0  0  0  0  0  0  0  0  0  0  0
  150.4395  140.5892  157.6685 C   0  0  0  0  0  0  0  0  0  0  0  0
  150.4001  139.1141  155.7306 C   0  0  0  0  0  0  0  0  0  0  0  0
  151.0737  139.2361  154.5608 N   0  0  0  0  0  0  0  0  0  0  0  0
  151.5103  138.1179  153.9795 C   0  0  0  0  0  0  0  0  0  0  0  0
  151.3598  136.8737  154.4329 N   0  0  0  0  0  0  0  0  0  0  0  0
  150.6937  136.7279  155.5970 C   0  0  0  0  0  0  0  0  0  0  0  0
  150.1691  137.8369  156.3065 C   0  0  0  0  0  0  0  0  0  0  0  0
  149.5062  137.7230  157.5605 N   0  0  0  0  0  0  0  0  0  0  0  0
  149.4933  136.6748  158.3999 C   0  0  0  0  0  0  0  0  0  0  0  0
  150.0782  135.6080  158.2131 O   0  0  0  0  0  0  0  0  0  0  0  0
  148.7342  136.9264  159.4755 N   0  0  0  0  0  0  0  0  0  0  0  0
  148.4884  135.9939  160.5716 C   0  0  1  0  0  0  0  0  0  0  0  0
  147.4547  136.5967  161.5390 C   0  0  0  0  0  0  0  0  0  0  0  0
  147.1234  135.6215  162.6779 C   0  0  0  0  0  0  0  0  0  0  0  0
  146.6398  134.2694  162.1308 C   0  0  0  0  0  0  0  0  0  0  0  0
  147.6697  133.6439  161.1665 C   0  0  1  0  0  0  0  0  0  0  0  0
  147.1991  132.2784  160.6241 C   0  0  0  0  0  0  0  0  0  0  0  0
  146.0810  132.4117  159.9100 F   0  0  0  0  0  0  0  0  0  0  0  0
  148.1436  131.7442  159.8496 F   0  0  0  0  0  0  0  0  0  0  0  0
  146.9677  131.4404  161.6347 F   0  0  0  0  0  0  0  0  0  0  0  0
  148.0022  134.6337  160.0291 C   0  0  0  0  0  0  0  0  0  0  0  0
  149.1457  141.2007  154.5933 H   0  0  0  0  0  0  0  0  0  0  0  0
  150.8021  141.6553  155.0065 H   0  0  0  0  0  0  0  0  0  0  0  0
  149.4461  142.2990  155.9361 H   0  0  0  0  0  0  0  0  0  0  0  0
  150.4434  139.6971  158.2961 H   0  0  0  0  0  0  0  0  0  0  0  0
  149.8170  141.3388  158.1575 H   0  0  0  0  0  0  0  0  0  0  0  0
  151.4569  140.9776  157.6096 H   0  0  0  0  0  0  0  0  0  0  0  0
  152.0442  138.2329  153.0480 H   0  0  0  0  0  0  0  0  0  0  0  0
  150.6141  135.7157  155.9618 H   0  0  0  0  0  0  0  0  0  0  0  0
  148.9070  138.4986  157.8032 H   0  0  0  0  0  0  0  0  0  0  0  0
  148.2886  137.8299  159.5404 H   0  0  0  0  0  0  0  0  0  0  0  0
  149.4187  135.8422  161.1229 H   0  0  0  0  0  0  0  0  0  0  0  0
  147.8314  137.5319  161.9551 H   0  0  0  0  0  0  0  0  0  0  0  0
  146.5397  136.8445  160.9983 H   0  0  0  0  0  0  0  0  0  0  0  0
  148.0070  135.4702  163.2992 H   0  0  0  0  0  0  0  0  0  0  0  0
  146.3606  136.0538  163.3259 H   0  0  0  0  0  0  0  0  0  0  0  0
  146.4453  133.5924  162.9631 H   0  0  0  0  0  0  0  0  0  0  0  0
  145.6873  134.4064  161.6171 H   0  0  0  0  0  0  0  0  0  0  0  0
  148.5877  133.4701  161.7304 H   0  0  0  0  0  0  0  0  0  0  0  0
  147.1198  134.7832  159.4054 H   0  0  0  0  0  0  0  0  0  0  0  0
  148.7663  134.2035  159.3808 H   0  0  0  0  0  0  0  0  0  0  0  0
  1  2  1  0  0  0  0
  1 24  1  0  0  0  0
  1 25  1  0  0  0  0
  1 26  1  0  0  0  0
  2  3  1  0  0  0  0
  2  4  1  0  0  0  0
  3 27  1  0  0  0  0
  3 28  1  0  0  0  0
  3 29  1  0  0  0  0
  4  9  1  0  0  0  0
  4  5  2  0  0  0  0
  5  6  1  0  0  0  0
  6  7  2  0  0  0  0
  6 30  1  0  0  0  0
  7  8  1  0  0  0  0
  8  9  2  0  0  0  0
  8 31  1  0  0  0  0
  9 10  1  0  0  0  0
 10 11  1  0  0  0  0
 10 32  1  0  0  0  0
 11 12  2  0  0  0  0
 11 13  1  0  0  0  0
 13 14  1  0  0  0  0
 13 33  1  0  0  0  0
 14 23  1  0  0  0  0
 14 15  1  0  0  0  0
 14 34  1  0  0  0  0
 15 16  1  0  0  0  0
 15 35  1  0  0  0  0
 15 36  1  0  0  0  0
 16 17  1  0  0  0  0
 16 37  1  0  0  0  0
 16 38  1  0  0  0  0
 17 18  1  0  0  0  0
 17 39  1  0  0  0  0
 17 40  1  0  0  0  0
 18 19  1  0  0  0  0
 18 23  1  0  0  0  0
 18 41  1  0  0  0  0
 19 20  1  0  0  0  0
 19 21  1  0  0  0  0
 19 22  1  0  0  0  0
 23 42  1  0  0  0  0
 23 43  1  0  0  0  0
M  END
> <s_m_source_file>
AV-unprocessed.smi

> <i_m_source_file_index>
2438

> <i_lp_mmshare_version>
43012

> <i_f3d_flags>
0

> <s_epik_input>
W0NIM11OKFtDSDNdKWMxbltjSF1uW2NIXWMxW05IXUMoPU8pW05IXVtDQEBIXTJbQ0gyXVtDSDJdW0NIMl1bQ0BASF0oQyhGKShGKUYpW0NIMl0y

> <s_epik_cmdline>
J2VwaWtfcHl0aG9uJywgJy1waCcsICc3LjAnLCAnLXRuJywgJzgnLCAnLW1hJywgJzIwMCcsICctbWV0YWxfYmluZGluZycsICctaW1hZScsICc8aW5maWxlLm1hZT4nLCAnLW9tYWUnLCAnPG91dGZpbGUubWFlPic=

> <r_lp_tautomer_probability>
1

> <r_epik_Ionization_Penalty>
0.01759

> <r_epik_Ionization_Penalty_Charging>
0

> <r_epik_Ionization_Penalty_Neutral>
0.01759

> <r_epik_State_Penalty>
0.0133536

> <r_epik_Charging_Adjusted_Penalty>
0.0133536

> <i_epik_Tot_Q>
0

> <i_epik_Tot_abs_Q>
0

> <r_epik_Metal_State_Penalty>
0.0129828

> <b_epik_Metal_Only>
0

> <s_lp_Force_Field>
OPLS_2005

> <r_lp_Energy>
11.3681

> <b_lp_Chiralities_Consistent>
1

> <s_lp_Variant>
AV-unprocessed.smi:2438-2

> <Gold.Version>
5.8.1

> <Gold.Id.Protein>
6NUR|6NUR_protein|mol2

> <Gold.PLP.Fitness>
41.8775

> <Gold.PLP.PLP>
-33.3770

> <Gold.PLP.part.hbond>
-3.0000

> <Gold.PLP.part.metal>
0.0000

> <Gold.PLP.part.buried>
-5.8806

> <Gold.PLP.part.nonpolar>
-26.4019

> <Gold.PLP.part.repulsive>
0.7477

> <Gold.PLP.ligand.clash>
0.0000

> <Gold.PLP.ligand.torsion>
0.4029

> <Gold.PLP.Chemscore.Hbond>
2.9120

> <Gold.PLP.Chemscore.CHOScore>
0.0729

> <Gold.PLP.Chemscore.Metal>
0.0000

> <Gold.Chemscore.Hbonds>
donor molecule, donor type, donor heavy atom, donor atom, acceptor molecule, acceptor atom, score
      P1  H  6896  6909       L1    12  0.91
      P1  H  7989  7998       L1     5  1.00
      P1  H 10752 10765       L1     7  1.00
      L1  C     6    30       P1  7949  0.09

> <Gold.PLP.Chemscore.Internal.Correction>
0.3518

> <Gold.Rescore>
     Score         DG    S(hbond)    S(metal)    S(lipo)     H(rot)  DE(clash)    DE(int)     intcor
     15.60     -18.60       2.59        0.00      66.62       1.30       0.07       2.93       ----

> <Gold.Chemscore.Fitness>
15.5973

> <Gold.Chemscore.DG>
-18.5966

> <Gold.Chemscore.ZeroCoef>
-5.4800

> <Gold.Chemscore.Hbond>
2.5889

> <Gold.Chemscore.Metal>
0.0000

> <Gold.Chemscore.Lipo>
66.6182

> <Gold.Chemscore.Internal_Hbond>
0.0000

> <Gold.Chemscore.DEClash>
0.0685

> <Gold.Chemscore.DEInternal>
2.9309

> <Gold.Chemscore.Rot>
1.2987

> <Gold.Chemscore.Internal.Correction>
   9.000000E+99

> <Gold.Chemscore.Hbonds>
donor molecule, donor type, donor heavy atom, donor atom, acceptor molecule, acceptor atom, score
      P1  H  6896  6909       L1    12  0.89
      P1  H  7989  7998       L1     5  0.70
      P1  H 10752 10765       L1     7  0.51

> <Gold.Chemscore.Hbond.Weighted>
-8.6469

> <Gold.Chemscore.Metal.Weighted>
-0.0000

> <Gold.Chemscore.Lipo.Weighted>
-7.7943

> <Gold.Chemscore.Internal_Hbond.Weighted>
0.0000

> <Gold.Chemscore.DEClash.Weighted>
0.0685

> <Gold.Chemscore.DEInternal.Weighted>
2.9309

> <Gold.Chemscore.Rot.Weighted>
3.3246

> <Gold.Chemscore.Internal.Correction.Weighted>
   9.000000E+99

> <Gold.Protein.RotatedTorsions>
[ 6907 6896 6895 6894 ] final   52.30 input  -60.11 | X-H torsion
[ 7974 7965 7964 7962 ] final -156.69 input  175.53 | X-H torsion
[ 8008 7997 7996 7995 ] final   57.20 input   59.86 | X-H torsion
[ 10167 10162 10161 10158 ] final   26.06 input  -65.29 | X-H torsion
[ 10718 10713 10712 10709 ] final   69.25 input   66.30 | X-H torsion
[ 10763 10752 10751 10750 ] final  177.45 input  -60.55 | X-H torsion
[ 11005 11000 10999 10996 ] final -172.85 input  -57.11 | X-H torsion

> <Gold.Protein.ActiveResidues>
 VAL166  LYS551  ARG553  GLY616  TRP617  ASP618  TYR619  PRO620  LYS621  CYS622 
 ASP623  PHE694  ASN695  SER759  ASP760  ASP761  ALA762  ILE779  LEU786  VAL792 
 PHE793  MET794  SER795  GLU796  ALA797  LYS798  CYS799  TRP800  GLU811  SER814 

> <Gold.Protein.RotatedAtoms>
  152.3218  134.7371  160.0311 H   0  0  0  0  0  0  0  0  0  0  0  0  # atno 6907 bound_to 6896
  151.7817  133.3345  159.3481 H   0  0  0  0  0  0  0  0  0  0  0  0  # atno 6908 bound_to 6896
  150.7374  134.5856  159.6005 H   0  0  0  0  0  0  0  0  0  0  0  0  # atno 6909 bound_to 6896
  144.7582  140.4074  143.5997 H   0  0  0  0  0  0  0  0  0  0  0  0  # atno 7974 bound_to 7965
  155.5300  140.3482  155.4424 H   0  0  0  0  0  0  0  0  0  0  0  0  # atno 8008 bound_to 7997
  156.0725  140.1366  156.9838 H   0  0  0  0  0  0  0  0  0  0  0  0  # atno 8009 bound_to 7997
  154.4536  140.0963  156.6665 H   0  0  0  0  0  0  0  0  0  0  0  0  # atno 8010 bound_to 7997
  140.5054  144.0247  150.6350 H   0  0  0  0  0  0  0  0  0  0  0  0  # atno 10167 bound_to 10162
  157.6335  130.9416  150.0488 H   0  0  0  0  0  0  0  0  0  0  0  0  # atno 10718 bound_to 10713
  154.4947  135.2780  155.1469 H   0  0  0  0  0  0  0  0  0  0  0  0  # atno 10763 bound_to 10752
  154.3127  135.6226  153.5476 H   0  0  0  0  0  0  0  0  0  0  0  0  # atno 10764 bound_to 10752
  152.9893  135.5723  154.5376 H   0  0  0  0  0  0  0  0  0  0  0  0  # atno 10765 bound_to 10752
  140.4923  134.5973  157.4959 H   0  0  0  0  0  0  0  0  0  0  0  0  # atno 11005 bound_to 11000
  145.6709  139.1599  143.2755 LP  0  0  0  0  0  0  0  0  0  0  0  0  # atno 17320 bound_to 7965
  146.1615  140.6780  142.9275 LP  0  0  0  0  0  0  0  0  0  0  0  0  # atno 17321 bound_to 7965
  140.3555  143.2938  152.0441 LP  0  0  0  0  0  0  0  0  0  0  0  0  # atno 17342 bound_to 10162
  139.4882  144.6342  151.7009 LP  0  0  0  0  0  0  0  0  0  0  0  0  # atno 17343 bound_to 10162
  156.1556  130.3643  149.9373 LP  0  0  0  0  0  0  0  0  0  0  0  0  # atno 17370 bound_to 10713
  156.7383  130.9069  151.3630 LP  0  0  0  0  0  0  0  0  0  0  0  0  # atno 17371 bound_to 10713
  139.9762  134.7212  155.9946 LP  0  0  0  0  0  0  0  0  0  0  0  0  # atno 17394 bound_to 11000
  141.1478  133.6553  156.3919 LP  0  0  0  0  0  0  0  0  0  0  0  0  # atno 17395 bound_to 11000

$$$$
