AV-unprocessed.smi:1503|AV-procd|sdf|6068|dock5
  -GOLD-   22720 6183D 1   1.00000     0.00000
 Structure written by MMmdl.
 44 45  0  0  0  0  0  0  0  0  1 V2000
  147.7067  132.3469  152.9841 C   0  0  0  0  0  0  0  0  0  0  0  0
  148.5329  133.4029  152.9432 C   0  0  0  0  0  0  0  0  0  0  0  0
  149.6508  133.6579  153.9354 C   0  0  0  0  0  0  0  0  0  0  0  0
  149.7705  135.0758  154.2533 N   0  0  0  0  0  0  0  0  0  0  0  0
  150.4270  135.5803  155.3098 C   0  0  0  0  0  0  0  0  0  0  0  0
  151.0012  134.8804  156.1444 O   0  0  0  0  0  0  0  0  0  0  0  0
  150.4292  137.1063  155.4377 C   0  0  0  0  0  0  0  0  0  0  0  0
  151.8477  137.7048  155.4914 C   0  0  0  0  0  0  0  0  0  0  0  0
  151.8957  138.9949  156.3056 C   0  0  0  0  0  0  0  0  0  0  0  0
  152.4058  139.0625  157.5670 C   0  0  0  0  0  0  0  0  0  0  0  0
  152.9985  137.8620  158.2837 C   0  0  0  0  0  0  0  0  0  0  0  0
  152.4197  140.2646  158.2854 N   0  0  0  0  0  0  0  0  0  0  0  0
  151.9430  141.3480  157.7570 C   0  0  0  0  0  0  0  0  0  0  0  0
  151.8925  142.6030  158.3679 N   0  0  0  0  0  0  0  0  0  0  0  0
  151.5993  143.8192  157.6052 C   0  0  0  0  0  0  0  0  0  0  0  0
  151.0585  144.9337  158.5163 C   0  0  0  0  0  0  0  0  0  0  0  0
  151.9787  145.1795  159.5708 O   0  0  0  0  0  0  0  0  0  0  0  0
  152.1586  144.0259  160.3808 C   0  0  0  0  0  0  0  0  0  0  0  0
  152.7345  142.8804  159.5315 C   0  0  0  0  0  0  0  0  0  0  0  0
  151.4015  141.3199  156.4672 N   0  0  0  0  0  0  0  0  0  0  0  0
  151.3432  140.2138  155.6930 C   0  0  0  0  0  0  0  0  0  0  0  0
  150.8591  140.2686  154.5635 O   0  0  0  0  0  0  0  0  0  0  0  0
  151.0293  142.1756  156.0825 H   0  0  0  0  0  0  0  0  0  0  0  0
  147.7931  131.5957  153.7555 H   0  0  0  0  0  0  0  0  0  0  0  0
  146.9310  132.2207  152.2431 H   0  0  0  0  0  0  0  0  0  0  0  0
  148.4174  134.1307  152.1528 H   0  0  0  0  0  0  0  0  0  0  0  0
  149.4650  133.1071  154.8580 H   0  0  0  0  0  0  0  0  0  0  0  0
  150.5887  133.2806  153.5254 H   0  0  0  0  0  0  0  0  0  0  0  0
  149.3254  135.7234  153.6193 H   0  0  0  0  0  0  0  0  0  0  0  0
  149.8841  137.5382  154.5969 H   0  0  0  0  0  0  0  0  0  0  0  0
  149.8754  137.3732  156.3384 H   0  0  0  0  0  0  0  0  0  0  0  0
  152.5487  136.9861  155.9192 H   0  0  0  0  0  0  0  0  0  0  0  0
  152.2095  137.8859  154.4792 H   0  0  0  0  0  0  0  0  0  0  0  0
  153.7525  137.3764  157.6637 H   0  0  0  0  0  0  0  0  0  0  0  0
  152.2194  137.1362  158.5171 H   0  0  0  0  0  0  0  0  0  0  0  0
  153.4759  138.1556  159.2195 H   0  0  0  0  0  0  0  0  0  0  0  0
  152.5168  144.1531  157.1191 H   0  0  0  0  0  0  0  0  0  0  0  0
  150.8755  143.6361  156.8109 H   0  0  0  0  0  0  0  0  0  0  0  0
  150.9227  145.8517  157.9443 H   0  0  0  0  0  0  0  0  0  0  0  0
  150.0819  144.6644  158.9221 H   0  0  0  0  0  0  0  0  0  0  0  0
  152.8409  144.2683  161.1954 H   0  0  0  0  0  0  0  0  0  0  0  0
  151.2109  143.7339  160.8359 H   0  0  0  0  0  0  0  0  0  0  0  0
  152.8311  141.9907  160.1556 H   0  0  0  0  0  0  0  0  0  0  0  0
  153.7372  143.1382  159.1879 H   0  0  0  0  0  0  0  0  0  0  0  0
  1  2  2  0  0  0  0
  1 24  1  0  0  0  0
  1 25  1  0  0  0  0
  2  3  1  0  0  0  0
  2 26  1  0  0  0  0
  3  4  1  0  0  0  0
  3 27  1  0  0  0  0
  3 28  1  0  0  0  0
  4  5  1  0  0  0  0
  4 29  1  0  0  0  0
  5  6  2  0  0  0  0
  5  7  1  0  0  0  0
  7  8  1  0  0  0  0
  7 30  1  0  0  0  0
  7 31  1  0  0  0  0
  8  9  1  0  0  0  0
  8 32  1  0  0  0  0
  8 33  1  0  0  0  0
  9 21  1  0  0  0  0
  9 10  2  0  0  0  0
 10 11  1  0  0  0  0
 10 12  1  0  0  0  0
 11 34  1  0  0  0  0
 11 35  1  0  0  0  0
 11 36  1  0  0  0  0
 12 13  2  0  0  0  0
 13 14  1  0  0  0  0
 13 20  1  0  0  0  0
 14 19  1  0  0  0  0
 14 15  1  0  0  0  0
 15 16  1  0  0  0  0
 15 37  1  0  0  0  0
 15 38  1  0  0  0  0
 16 17  1  0  0  0  0
 16 39  1  0  0  0  0
 16 40  1  0  0  0  0
 17 18  1  0  0  0  0
 18 19  1  0  0  0  0
 18 41  1  0  0  0  0
 18 42  1  0  0  0  0
 19 43  1  0  0  0  0
 19 44  1  0  0  0  0
 20 23  1  0  0  0  0
 20 21  1  0  0  0  0
 21 22  2  0  0  0  0
M  END
> <s_m_source_file>
AV-unprocessed.smi

> <i_m_source_file_index>
1503

> <i_lp_mmshare_version>
43012

> <i_f3d_flags>
0

> <s_epik_input>
W0NIMl09W0NIXVtDSDJdW05IXUMoPU8pW0NIMl1bQ0gyXWMxYyhbQ0gzXSluYyhbbkhdYzE9TylOMltDSDJdW0NIMl1PW0NIMl1bQ0gyXTI=

> <s_epik_cmdline>
J2VwaWtfcHl0aG9uJywgJy1waCcsICc3LjAnLCAnLXRuJywgJzgnLCAnLW1hJywgJzIwMCcsICctbWV0YWxfYmluZGluZycsICctaW1hZScsICc8aW5maWxlLm1hZT4nLCAnLW9tYWUnLCAnPG91dGZpbGUubWFlPic=

> <r_lp_tautomer_probability>
0.878553

> <r_epik_Ionization_Penalty>
0.00125265

> <r_epik_Ionization_Penalty_Charging>
0.00122759

> <r_epik_Ionization_Penalty_Neutral>
2.50575e-05

> <r_epik_State_Penalty>
0.0426914

> <r_epik_Charging_Adjusted_Penalty>
0.043919

> <i_epik_Tot_Q>
0

> <i_epik_Tot_abs_Q>
0

> <r_epik_Metal_State_Penalty>
1.02948

> <b_epik_Metal_Only>
0

> <s_lp_Force_Field>
OPLS_2005

> <r_lp_Energy>
21.7502

> <b_lp_Chiralities_Consistent>
1

> <s_lp_Variant>
AV-unprocessed.smi:1503-1

> <Gold.Version>
5.8.1

> <Gold.Id.Protein>
6NUR|6NUR_protein|mol2

> <Gold.PLP.Fitness>
45.8844

> <Gold.PLP.PLP>
-41.2647

> <Gold.PLP.part.hbond>
-1.9958

> <Gold.PLP.part.metal>
0.0000

> <Gold.PLP.part.buried>
-5.5910

> <Gold.PLP.part.nonpolar>
-33.1132

> <Gold.PLP.part.repulsive>
0.3352

> <Gold.PLP.ligand.clash>
0.0000

> <Gold.PLP.ligand.torsion>
0.7625

> <Gold.PLP.Chemscore.Hbond>
1.9600

> <Gold.PLP.Chemscore.CHOScore>
0.0000

> <Gold.PLP.Chemscore.Metal>
0.0000

> <Gold.Chemscore.Hbonds>
donor molecule, donor type, donor heavy atom, donor atom, acceptor molecule, acceptor atom, score
      L1  H     4    29       P1  7948  0.94
      P1  H  7989  7998       L1    22  0.80

> <Gold.PLP.Chemscore.Internal.Correction>
0.2647

> <Gold.Rescore>
     Score         DG    S(hbond)    S(metal)    S(lipo)     H(rot)  DE(clash)    DE(int)     intcor
     15.75     -16.52       1.82        0.00      84.36       1.92       0.02       0.75       ----

> <Gold.Chemscore.Fitness>
15.7468

> <Gold.Chemscore.DG>
-16.5190

> <Gold.Chemscore.ZeroCoef>
-5.4800

> <Gold.Chemscore.Hbond>
1.8207

> <Gold.Chemscore.Metal>
0.0000

> <Gold.Chemscore.Lipo>
84.3578

> <Gold.Chemscore.Internal_Hbond>
0.0000

> <Gold.Chemscore.DEClash>
0.0233

> <Gold.Chemscore.DEInternal>
0.7490

> <Gold.Chemscore.Rot>
1.9187

> <Gold.Chemscore.Internal.Correction>
   9.000000E+99

> <Gold.Chemscore.Hbonds>
donor molecule, donor type, donor heavy atom, donor atom, acceptor molecule, acceptor atom, score
      L1  H     4    29       P1  7948  0.45
      P1  H  7989  7998       L1    22  0.76

> <Gold.Chemscore.Hbond.Weighted>
-6.0811

> <Gold.Chemscore.Metal.Weighted>
-0.0000

> <Gold.Chemscore.Lipo.Weighted>
-9.8699

> <Gold.Chemscore.Internal_Hbond.Weighted>
0.0000

> <Gold.Chemscore.DEClash.Weighted>
0.0233

> <Gold.Chemscore.DEInternal.Weighted>
0.7490

> <Gold.Chemscore.Rot.Weighted>
4.9119

> <Gold.Chemscore.Internal.Correction.Weighted>
   9.000000E+99

> <Gold.Protein.RotatedTorsions>
[ 6907 6896 6895 6894 ] final -169.55 input  -60.11 | X-H torsion
[ 7974 7965 7964 7962 ] final  -74.38 input  175.53 | X-H torsion
[ 8008 7997 7996 7995 ] final -165.68 input   59.86 | X-H torsion
[ 10167 10162 10161 10158 ] final  -13.63 input  -65.29 | X-H torsion
[ 10718 10713 10712 10709 ] final  129.65 input   66.30 | X-H torsion
[ 10763 10752 10751 10750 ] final -163.05 input  -60.55 | X-H torsion
[ 11005 11000 10999 10996 ] final -163.95 input  -57.11 | X-H torsion

> <Gold.Protein.ActiveResidues>
 VAL166  LYS551  ARG553  GLY616  TRP617  ASP618  TYR619  PRO620  LYS621  CYS622 
 ASP623  PHE694  ASN695  SER759  ASP760  ASP761  ALA762  ILE779  LEU786  VAL792 
 PHE793  MET794  SER795  GLU796  ALA797  LYS798  CYS799  TRP800  GLU811  SER814 

> <Gold.Protein.RotatedAtoms>
  151.4934  133.3520  159.2856 H   0  0  0  0  0  0  0  0  0  0  0  0  # atno 6907 bound_to 6896
  150.8820  134.8214  159.7242 H   0  0  0  0  0  0  0  0  0  0  0  0  # atno 6908 bound_to 6896
  152.4768  134.4833  159.9724 H   0  0  0  0  0  0  0  0  0  0  0  0  # atno 6909 bound_to 6896
  145.6399  140.9314  143.1041 H   0  0  0  0  0  0  0  0  0  0  0  0  # atno 7974 bound_to 7965
  155.8532  140.0966  157.1661 H   0  0  0  0  0  0  0  0  0  0  0  0  # atno 8008 bound_to 7997
  154.3986  140.1379  156.3931 H   0  0  0  0  0  0  0  0  0  0  0  0  # atno 8009 bound_to 7997
  155.7939  140.3455  155.5367 H   0  0  0  0  0  0  0  0  0  0  0  0  # atno 8010 bound_to 7997
  140.7186  143.5406  150.9413 H   0  0  0  0  0  0  0  0  0  0  0  0  # atno 10167 bound_to 10162
  157.5135  131.1097  150.9258 H   0  0  0  0  0  0  0  0  0  0  0  0  # atno 10718 bound_to 10713
  154.7158  135.3015  154.9126 H   0  0  0  0  0  0  0  0  0  0  0  0  # atno 10763 bound_to 10752
  154.0013  135.6706  153.4763 H   0  0  0  0  0  0  0  0  0  0  0  0  # atno 10764 bound_to 10752
  153.0792  135.5018  154.8384 H   0  0  0  0  0  0  0  0  0  0  0  0  # atno 10765 bound_to 10752
  140.5924  134.5031  157.5194 H   0  0  0  0  0  0  0  0  0  0  0  0  # atno 11005 bound_to 11000
  144.7161  139.8191  143.7398 LP  0  0  0  0  0  0  0  0  0  0  0  0  # atno 17320 bound_to 7965
  146.1289  139.4320  143.0181 LP  0  0  0  0  0  0  0  0  0  0  0  0  # atno 17321 bound_to 7965
  139.9129  143.6698  152.3112 LP  0  0  0  0  0  0  0  0  0  0  0  0  # atno 17342 bound_to 10162
  139.7088  144.7623  151.1147 LP  0  0  0  0  0  0  0  0  0  0  0  0  # atno 17343 bound_to 10162
  156.9891  130.5556  149.5302 LP  0  0  0  0  0  0  0  0  0  0  0  0  # atno 17370 bound_to 10713
  156.0305  130.5396  150.8520 LP  0  0  0  0  0  0  0  0  0  0  0  0  # atno 17371 bound_to 10713
  139.9268  134.8040  156.1045 LP  0  0  0  0  0  0  0  0  0  0  0  0  # atno 17394 bound_to 11000
  141.0926  133.6708  156.2574 LP  0  0  0  0  0  0  0  0  0  0  0  0  # atno 17395 bound_to 11000

$$$$
