AV-unprocessed.smi:3234|AV-procd|sdf|12349|dock4
  -GOLD-   2272018213D 1   1.00000     0.00000
 Structure written by MMmdl.
 37 39  0  0  0  0  0  0  0  0  2 V2000
  144.0653  136.2543  151.7300 O   0  0  0  0  0  0  0  0  0  0  0  0
  145.2880  136.1172  151.7341 C   0  0  0  0  0  0  0  0  0  0  0  0
  145.9636  135.0615  151.2466 N   0  0  0  0  0  0  0  0  0  0  0  0
  145.4708  133.8701  150.6447 C   0  0  0  0  0  0  0  0  0  0  0  0
  146.4214  132.9104  150.2391 C   0  0  0  0  0  0  0  0  0  0  0  0
  145.9718  131.7127  149.6484 C   0  0  0  0  0  0  0  0  0  0  0  0
  144.6680  131.4279  149.4507 N   0  0  0  0  0  0  0  0  0  0  0  0
  143.7581  132.3429  149.8459 C   0  0  0  0  0  0  0  0  0  0  0  0
  144.1005  133.5710  150.4469 C   0  0  0  0  0  0  0  0  0  0  0  0
  146.1258  137.0387  152.2310 N   0  0  0  0  0  0  0  0  0  0  0  0
  145.7134  138.2930  152.8531 C   0  0  1  0  0  0  0  0  0  0  0  0
  145.9506  138.3305  154.3629 C   0  0  0  0  0  0  0  0  0  0  0  0
  146.1749  139.8187  154.6825 C   0  0  0  0  0  0  0  0  0  0  0  0
  146.2744  140.5275  153.3851 N   0  3  1  0  0  0  0  0  0  0  0  0
  147.2507  141.6371  153.3687 C   0  0  0  0  0  0  0  0  0  0  0  0
  148.5318  141.3249  154.1045 C   0  0  0  0  0  0  0  0  0  0  0  0
  147.5014  142.2397  154.7304 C   0  0  0  0  0  0  0  0  0  0  0  0
  146.5155  139.4976  152.3602 C   0  0  0  0  0  0  0  0  0  0  0  0
  146.9698  135.1278  151.2912 H   0  0  0  0  0  0  0  0  0  0  0  0
  147.4790  133.0838  150.3740 H   0  0  0  0  0  0  0  0  0  0  0  0
  146.6798  130.9629  149.3276 H   0  0  0  0  0  0  0  0  0  0  0  0
  142.7218  132.0870  149.6819 H   0  0  0  0  0  0  0  0  0  0  0  0
  143.3085  134.2392  150.7442 H   0  0  0  0  0  0  0  0  0  0  0  0
  147.1171  136.8510  152.1927 H   0  0  0  0  0  0  0  0  0  0  0  0
  144.6520  138.4634  152.6604 H   0  0  0  0  0  0  0  0  0  0  0  0
  145.1179  137.9036  154.9230 H   0  0  0  0  0  0  0  0  0  0  0  0
  146.8475  137.7656  154.6223 H   0  0  0  0  0  0  0  0  0  0  0  0
  145.3477  140.2348  155.2580 H   0  0  0  0  0  0  0  0  0  0  0  0
  147.0843  139.9427  155.2726 H   0  0  0  0  0  0  0  0  0  0  0  0
  147.2647  142.2600  152.4760 H   0  0  0  0  0  0  0  0  0  0  0  0
  148.6508  140.3320  154.5347 H   0  0  0  0  0  0  0  0  0  0  0  0
  149.4470  141.7842  153.7363 H   0  0  0  0  0  0  0  0  0  0  0  0
  147.7386  143.3008  154.7744 H   0  0  0  0  0  0  0  0  0  0  0  0
  146.9353  141.8546  155.5768 H   0  0  0  0  0  0  0  0  0  0  0  0
  147.5799  139.2582  152.3181 H   0  0  0  0  0  0  0  0  0  0  0  0
  146.2027  139.8390  151.3727 H   0  0  0  0  0  0  0  0  0  0  0  0
  145.3608  140.9144  153.1953 H   0  0  0  0  0  0  0  0  0  0  0  0
  1  2  2  0  0  0  0
  2  3  1  0  0  0  0
  2 10  1  0  0  0  0
  3  4  1  0  0  0  0
  3 19  1  0  0  0  0
  4  9  1  0  0  0  0
  4  5  2  0  0  0  0
  5  6  1  0  0  0  0
  5 20  1  0  0  0  0
  6  7  2  0  0  0  0
  6 21  1  0  0  0  0
  7  8  1  0  0  0  0
  8  9  2  0  0  0  0
  8 22  1  0  0  0  0
  9 23  1  0  0  0  0
 10 11  1  0  0  0  0
 10 24  1  0  0  0  0
 11 18  1  0  0  0  0
 11 12  1  0  0  0  0
 11 25  1  0  0  0  0
 12 13  1  0  0  0  0
 12 26  1  0  0  0  0
 12 27  1  0  0  0  0
 13 14  1  0  0  0  0
 13 28  1  0  0  0  0
 13 29  1  0  0  0  0
 14 15  1  0  0  0  0
 14 18  1  0  0  0  0
 14 37  1  0  0  0  0
 15 17  1  0  0  0  0
 15 16  1  0  0  0  0
 15 30  1  0  0  0  0
 16 17  1  0  0  0  0
 16 31  1  0  0  0  0
 16 32  1  0  0  0  0
 17 33  1  0  0  0  0
 17 34  1  0  0  0  0
 18 35  1  0  0  0  0
 18 36  1  0  0  0  0
M  CHG  1  14   1
M  END
> <s_m_source_file>
AV-unprocessed.smi

> <i_m_source_file_index>
3234

> <i_lp_mmshare_version>
43012

> <i_f3d_flags>
0

> <s_epik_input>
W2NIXTFbY0hdbltjSF1bY0hdYzFbTkhdQyg9TylbTkhdW0NAQEhdMltDSDJdW0NIMl1OKFtDSDJdMilbQ0hdM1tDSDJdW0NIMl0z

> <s_epik_cmdline>
J2VwaWtfcHl0aG9uJywgJy1waCcsICc3LjAnLCAnLXRuJywgJzgnLCAnLW1hJywgJzIwMCcsICctbWV0YWxfYmluZGluZycsICctaW1hZScsICc8aW5maWxlLm1hZT4nLCAnLW9tYWUnLCAnPG91dGZpbGUubWFlPic=

> <r_epik_Ionization_Penalty>
0.0934328

> <r_epik_Ionization_Penalty_Charging>
0.000606352

> <r_epik_Ionization_Penalty_Neutral>
0.0928265

> <r_epik_State_Penalty>
0.0830811

> <r_epik_Charging_Adjusted_Penalty>
0.0836875

> <i_epik_Tot_Q>
1

> <i_epik_Tot_abs_Q>
1

> <r_epik_Metal_State_Penalty>
0.0724491

> <b_epik_Metal_Only>
0

> <s_lp_Force_Field>
OPLS_2005

> <r_lp_Energy>
41.3186

> <b_lp_Chiralities_Consistent>
1

> <s_lp_Variant>
AV-unprocessed.smi:3234-2

> <Gold.Version>
5.8.1

> <Gold.Id.Protein>
6NUR|6NUR_protein|mol2

> <Gold.PLP.Fitness>
44.0782

> <Gold.PLP.PLP>
-28.6096

> <Gold.PLP.part.hbond>
-3.4348

> <Gold.PLP.part.metal>
0.0000

> <Gold.PLP.part.buried>
2.6150

> <Gold.PLP.part.nonpolar>
-28.5428

> <Gold.PLP.part.repulsive>
1.1011

> <Gold.PLP.ligand.clash>
0.0000

> <Gold.PLP.ligand.torsion>
0.7686

> <Gold.PLP.Chemscore.Hbond>
3.4010

> <Gold.PLP.Chemscore.CHOScore>
1.8464

> <Gold.PLP.Chemscore.Metal>
0.0000

> <Gold.Chemscore.Hbonds>
donor molecule, donor type, donor heavy atom, donor atom, acceptor molecule, acceptor atom, score
      L1  H     3    19       P1  7948  0.36
      L1  H    10    24       P1  7948  1.00
      L1  H    14    37       P1 10175  1.73
      P1  H 10785 10796       L1     7  0.21
      L1  C     6    21       P1 10747  0.85
      L1  C     8    22       P1 10186  0.07
      L1  C     8    22       P1 10952  0.89

> <Gold.PLP.Chemscore.Internal.Correction>
1.2632

> <Gold.Rescore>
     Score         DG    S(hbond)    S(metal)    S(lipo)     H(rot)  DE(clash)    DE(int)     intcor
     15.91     -19.28       2.16        0.00      82.91       1.21       1.45       1.92       ----

> <Gold.Chemscore.Fitness>
15.9134

> <Gold.Chemscore.DG>
-19.2792

> <Gold.Chemscore.ZeroCoef>
-5.4800

> <Gold.Chemscore.Hbond>
2.1551

> <Gold.Chemscore.Metal>
0.0000

> <Gold.Chemscore.Lipo>
82.9134

> <Gold.Chemscore.Internal_Hbond>
0.0000

> <Gold.Chemscore.DEClash>
1.4464

> <Gold.Chemscore.DEInternal>
1.9194

> <Gold.Chemscore.Rot>
1.2108

> <Gold.Chemscore.Internal.Correction>
   9.000000E+99

> <Gold.Chemscore.Hbonds>
donor molecule, donor type, donor heavy atom, donor atom, acceptor molecule, acceptor atom, score
      L1  H     3    19       P1  7948  0.29
      L1  H    10    24       P1  7948  0.99
      L1  H    14    37       P1 10175  0.47
      P1  H 10785 10796       L1     7  0.02

> <Gold.Chemscore.Hbond.Weighted>
-7.1979

> <Gold.Chemscore.Metal.Weighted>
-0.0000

> <Gold.Chemscore.Lipo.Weighted>
-9.7009

> <Gold.Chemscore.Internal_Hbond.Weighted>
0.0000

> <Gold.Chemscore.DEClash.Weighted>
1.4464

> <Gold.Chemscore.DEInternal.Weighted>
1.9194

> <Gold.Chemscore.Rot.Weighted>
3.0996

> <Gold.Chemscore.Internal.Correction.Weighted>
   9.000000E+99

> <Gold.Protein.RotatedTorsions>
[ 6907 6896 6895 6894 ] final -179.91 input  -60.11 | X-H torsion
[ 7974 7965 7964 7962 ] final -169.19 input  175.53 | X-H torsion
[ 8008 7997 7996 7995 ] final  -63.89 input   59.86 | X-H torsion
[ 10167 10162 10161 10158 ] final  178.27 input  -65.29 | X-H torsion
[ 10718 10713 10712 10709 ] final  -53.17 input   66.30 | X-H torsion
[ 10763 10752 10751 10750 ] final  -32.41 input  -60.55 | X-H torsion
[ 11005 11000 10999 10996 ] final -155.08 input  -57.11 | X-H torsion

> <Gold.Protein.ActiveResidues>
 VAL166  LYS551  ARG553  GLY616  TRP617  ASP618  TYR619  PRO620  LYS621  CYS622 
 ASP623  PHE694  ASN695  SER759  ASP760  ASP761  ALA762  ILE779  LEU786  VAL792 
 PHE793  MET794  SER795  GLU796  ALA797  LYS798  CYS799  TRP800  GLU811  SER814 

> <Gold.Protein.RotatedAtoms>
  151.6611  133.3317  159.3173 H   0  0  0  0  0  0  0  0  0  0  0  0  # atno 6907 bound_to 6896
  150.7913  134.6943  159.6524 H   0  0  0  0  0  0  0  0  0  0  0  0  # atno 6908 bound_to 6896
  152.3993  134.6316  160.0128 H   0  0  0  0  0  0  0  0  0  0  0  0  # atno 6909 bound_to 6896
  144.7190  140.2258  143.6310 H   0  0  0  0  0  0  0  0  0  0  0  0  # atno 7974 bound_to 7965
  154.4580  140.0965  156.6812 H   0  0  0  0  0  0  0  0  0  0  0  0  # atno 8008 bound_to 7997
  155.5080  140.3475  155.4364 H   0  0  0  0  0  0  0  0  0  0  0  0  # atno 8009 bound_to 7997
  156.0815  140.1374  156.9695 H   0  0  0  0  0  0  0  0  0  0  0  0  # atno 8010 bound_to 7997
  139.5287  144.2700  152.0635 H   0  0  0  0  0  0  0  0  0  0  0  0  # atno 10167 bound_to 10162
  156.1558  130.4150  149.9871 H   0  0  0  0  0  0  0  0  0  0  0  0  # atno 10718 bound_to 10713
  153.8132  135.6880  153.4838 H   0  0  0  0  0  0  0  0  0  0  0  0  # atno 10763 bound_to 10752
  153.1615  135.4578  154.9777 H   0  0  0  0  0  0  0  0  0  0  0  0  # atno 10764 bound_to 10752
  154.7958  135.3319  154.7611 H   0  0  0  0  0  0  0  0  0  0  0  0  # atno 10765 bound_to 10752
  140.6904  134.4048  157.5219 H   0  0  0  0  0  0  0  0  0  0  0  0  # atno 11005 bound_to 11000
  145.8457  139.2151  143.1801 LP  0  0  0  0  0  0  0  0  0  0  0  0  # atno 17320 bound_to 7965
  146.0306  140.8262  142.9878 LP  0  0  0  0  0  0  0  0  0  0  0  0  # atno 17321 bound_to 7965
  140.2160  144.4514  150.6363 LP  0  0  0  0  0  0  0  0  0  0  0  0  # atno 17342 bound_to 10162
  140.6449  143.2211  151.6207 LP  0  0  0  0  0  0  0  0  0  0  0  0  # atno 17343 bound_to 10162
  156.7716  130.9188  151.3644 LP  0  0  0  0  0  0  0  0  0  0  0  0  # atno 17370 bound_to 10713
  157.6694  130.9037  150.0005 LP  0  0  0  0  0  0  0  0  0  0  0  0  # atno 17371 bound_to 10713
  139.8925  134.8753  156.2267 LP  0  0  0  0  0  0  0  0  0  0  0  0  # atno 17394 bound_to 11000
  141.0246  133.7022  156.1326 LP  0  0  0  0  0  0  0  0  0  0  0  0  # atno 17395 bound_to 11000

$$$$
