AV-unprocessed.smi:1433|AV-procd|sdf|5844|dock5
  -GOLD-   22720 5513D 1   1.00000     0.00000
 Structure written by MMmdl.
 45 46  0  0  0  0  0  0  0  0  2 V2000
  149.2821  141.3661  154.2937 C   0  0  0  0  0  0  0  0  0  0  0  0
  149.8597  139.9719  154.5612 C   0  0  1  0  0  0  0  0  0  0  0  0
  149.0775  138.8700  153.8111 C   0  0  0  0  0  0  0  0  0  0  0  0
  149.7092  137.5325  153.9803 N   0  3  2  0  0  0  0  0  0  0  0  0
  149.4182  136.8721  155.2988 C   0  0  1  0  0  0  0  0  0  0  0  0
  147.8945  136.8699  155.5622 C   0  0  0  0  0  0  0  0  0  0  0  0
  149.9911  135.4320  155.4075 C   0  0  0  0  0  0  0  0  0  0  0  0
  149.4977  134.5413  154.3600 N   0  0  0  0  0  0  0  0  0  0  0  0
  149.3284  133.2137  154.4795 C   0  0  0  0  0  0  0  0  0  0  0  0
  149.6123  132.5852  155.4984 O   0  0  0  0  0  0  0  0  0  0  0  0
  148.7760  132.4738  153.2575 C   0  0  0  0  0  0  0  0  0  0  0  0
  147.4787  132.9862  152.8487 N   0  0  0  0  0  0  0  0  0  0  0  0
  146.6771  132.5583  151.8108 C   0  0  0  0  0  0  0  0  0  0  0  0
  145.5580  133.3406  151.8119 C   0  0  0  0  0  0  0  0  0  0  0  0
  145.7663  134.2275  152.9050 C   0  0  0  0  0  0  0  0  0  0  0  0
  146.9159  134.0126  153.5237 N   0  0  0  0  0  0  0  0  0  0  0  0
  151.1359  137.6296  153.5669 C   0  0  0  0  0  0  0  0  0  0  0  0
  151.8723  138.7265  154.3621 C   0  0  1  0  0  0  0  0  0  0  0  0
  153.3338  138.8734  153.9255 C   0  0  0  0  0  0  0  0  0  0  0  0
  151.2164  139.9682  154.1295 O   0  0  0  0  0  0  0  0  0  0  0  0
  148.2420  141.4286  154.6147 H   0  0  0  0  0  0  0  0  0  0  0  0
  149.3200  141.6130  153.2322 H   0  0  0  0  0  0  0  0  0  0  0  0
  149.8421  142.1303  154.8332 H   0  0  0  0  0  0  0  0  0  0  0  0
  149.8296  139.7954  155.6370 H   0  0  0  0  0  0  0  0  0  0  0  0
  148.0340  138.8716  154.1187 H   0  0  0  0  0  0  0  0  0  0  0  0
  149.0673  139.1021  152.7450 H   0  0  0  0  0  0  0  0  0  0  0  0
  149.8922  137.4565  156.0870 H   0  0  0  0  0  0  0  0  0  0  0  0
  147.6549  136.4673  156.5458 H   0  0  0  0  0  0  0  0  0  0  0  0
  147.3702  136.2636  154.8228 H   0  0  0  0  0  0  0  0  0  0  0  0
  147.4573  137.8659  155.5400 H   0  0  0  0  0  0  0  0  0  0  0  0
  151.0823  135.4577  155.4195 H   0  0  0  0  0  0  0  0  0  0  0  0
  149.6817  134.9651  156.3419 H   0  0  0  0  0  0  0  0  0  0  0  0
  149.2408  134.9693  153.4821 H   0  0  0  0  0  0  0  0  0  0  0  0
  149.4754  132.5741  152.4267 H   0  0  0  0  0  0  0  0  0  0  0  0
  148.6840  131.4079  153.4722 H   0  0  0  0  0  0  0  0  0  0  0  0
  146.9674  131.7430  151.1643 H   0  0  0  0  0  0  0  0  0  0  0  0
  144.7171  133.2867  151.1365 H   0  0  0  0  0  0  0  0  0  0  0  0
  145.1208  135.0153  153.2646 H   0  0  0  0  0  0  0  0  0  0  0  0
  151.6517  136.6724  153.6206 H   0  0  0  0  0  0  0  0  0  0  0  0
  151.1568  137.8913  152.5077 H   0  0  0  0  0  0  0  0  0  0  0  0
  151.8519  138.5002  155.4294 H   0  0  0  0  0  0  0  0  0  0  0  0
  153.8889  137.9500  154.0921 H   0  0  0  0  0  0  0  0  0  0  0  0
  153.8306  139.6644  154.4877 H   0  0  0  0  0  0  0  0  0  0  0  0
  153.4071  139.1219  152.8664 H   0  0  0  0  0  0  0  0  0  0  0  0
  149.2786  136.9267  153.2961 H   0  0  0  0  0  0  0  0  0  0  0  0
  1  2  1  0  0  0  0
  1 21  1  0  0  0  0
  1 22  1  0  0  0  0
  1 23  1  0  0  0  0
  2 20  1  0  0  0  0
  2  3  1  0  0  0  0
  2 24  1  0  0  0  0
  3  4  1  0  0  0  0
  3 25  1  0  0  0  0
  3 26  1  0  0  0  0
  4  5  1  0  0  0  0
  4 17  1  0  0  0  0
  4 45  1  0  0  0  0
  5  6  1  0  0  0  0
  5  7  1  0  0  0  0
  5 27  1  0  0  0  0
  6 28  1  0  0  0  0
  6 29  1  0  0  0  0
  6 30  1  0  0  0  0
  7  8  1  0  0  0  0
  7 31  1  0  0  0  0
  7 32  1  0  0  0  0
  8  9  1  0  0  0  0
  8 33  1  0  0  0  0
  9 10  2  0  0  0  0
  9 11  1  0  0  0  0
 11 12  1  0  0  0  0
 11 34  1  0  0  0  0
 11 35  1  0  0  0  0
 12 16  1  0  0  0  0
 12 13  1  0  0  0  0
 13 14  2  0  0  0  0
 13 36  1  0  0  0  0
 14 15  1  0  0  0  0
 14 37  1  0  0  0  0
 15 16  2  0  0  0  0
 15 38  1  0  0  0  0
 17 18  1  0  0  0  0
 17 39  1  0  0  0  0
 17 40  1  0  0  0  0
 18 19  1  0  0  0  0
 18 20  1  0  0  0  0
 18 41  1  0  0  0  0
 19 42  1  0  0  0  0
 19 43  1  0  0  0  0
 19 44  1  0  0  0  0
M  CHG  1   4   1
M  END
> <s_m_source_file>
AV-unprocessed.smi

> <i_m_source_file_index>
1433

> <i_lp_mmshare_version>
43012

> <i_f3d_flags>
0

> <s_epik_input>
W0NIM11bQ0BASF0xW0NIMl1OKFtDSDJdW0NASF0oTzEpW0NIM10pW0NASF0oW0NIM10pW0NIMl1bTkhdQyg9TylbQ0gyXW4yW2NIXVtjSF1bY0hdbjI=

> <s_epik_cmdline>
J2VwaWtfcHl0aG9uJywgJy1waCcsICc3LjAnLCAnLXRuJywgJzgnLCAnLW1hJywgJzIwMCcsICctbWV0YWxfYmluZGluZycsICctaW1hZScsICc8aW5maWxlLm1hZT4nLCAnLW9tYWUnLCAnPG91dGZpbGUubWFlPic=

> <r_lp_tautomer_probability>
1

> <r_epik_Ionization_Penalty>
0.748405

> <r_epik_Ionization_Penalty_Charging>
0.748396

> <r_epik_Ionization_Penalty_Neutral>
8.54426e-06

> <r_epik_State_Penalty>
0.775162

> <r_epik_Charging_Adjusted_Penalty>
1.52356

> <i_epik_Tot_Q>
1

> <i_epik_Tot_abs_Q>
1

> <r_epik_Metal_State_Penalty>
0.775167

> <b_epik_Metal_Only>
0

> <s_lp_Force_Field>
OPLS_2005

> <r_lp_Energy>
22.8293

> <b_lp_Chiralities_Consistent>
1

> <s_lp_Variant>
AV-unprocessed.smi:1433-10

> <Gold.Version>
5.8.1

> <Gold.Id.Protein>
6NUR|6NUR_protein|mol2

> <Gold.PLP.Fitness>
49.9111

> <Gold.PLP.PLP>
-35.2973

> <Gold.PLP.part.hbond>
-3.0000

> <Gold.PLP.part.metal>
0.0000

> <Gold.PLP.part.buried>
-1.6375

> <Gold.PLP.part.nonpolar>
-31.5435

> <Gold.PLP.part.repulsive>
0.2997

> <Gold.PLP.ligand.clash>
0.0000

> <Gold.PLP.ligand.torsion>
0.2327

> <Gold.PLP.Chemscore.Hbond>
4.0000

> <Gold.PLP.Chemscore.CHOScore>
1.0000

> <Gold.PLP.Chemscore.Metal>
0.0000

> <Gold.Chemscore.Hbonds>
donor molecule, donor type, donor heavy atom, donor atom, acceptor molecule, acceptor atom, score
      L1  H     4    45       P1  7948  2.00
      L1  H     8    33       P1  7948  0.79
      P1  H  7989  7998       L1    20  0.10
      L1  C    13    36       P1 10747  1.00

> <Gold.PLP.Chemscore.Internal.Correction>
0.0791

> <Gold.Rescore>
     Score         DG    S(hbond)    S(metal)    S(lipo)     H(rot)  DE(clash)    DE(int)     intcor
     16.01     -18.07       2.64        0.00      73.07       1.87       0.29       1.78       ----

> <Gold.Chemscore.Fitness>
16.0072

> <Gold.Chemscore.DG>
-18.0686

> <Gold.Chemscore.ZeroCoef>
-5.4800

> <Gold.Chemscore.Hbond>
2.6392

> <Gold.Chemscore.Metal>
0.0000

> <Gold.Chemscore.Lipo>
73.0742

> <Gold.Chemscore.Internal_Hbond>
0.0000

> <Gold.Chemscore.DEClash>
0.2854

> <Gold.Chemscore.DEInternal>
1.7760

> <Gold.Chemscore.Rot>
1.8657

> <Gold.Chemscore.Internal.Correction>
   9.000000E+99

> <Gold.Chemscore.Hbonds>
donor molecule, donor type, donor heavy atom, donor atom, acceptor molecule, acceptor atom, score
      L1  H     4    45       P1  7948  0.95
      L1  H     8    33       P1  7948  0.11
      P1  H  7989  7998       L1    20  0.12

> <Gold.Chemscore.Hbond.Weighted>
-8.8151

> <Gold.Chemscore.Metal.Weighted>
-0.0000

> <Gold.Chemscore.Lipo.Weighted>
-8.5497

> <Gold.Chemscore.Internal_Hbond.Weighted>
0.0000

> <Gold.Chemscore.DEClash.Weighted>
0.2854

> <Gold.Chemscore.DEInternal.Weighted>
1.7760

> <Gold.Chemscore.Rot.Weighted>
4.7761

> <Gold.Chemscore.Internal.Correction.Weighted>
   9.000000E+99

> <Gold.Protein.RotatedTorsions>
[ 6907 6896 6895 6894 ] final  -36.44 input  -60.11 | X-H torsion
[ 7974 7965 7964 7962 ] final  -96.21 input  175.53 | X-H torsion
[ 8008 7997 7996 7995 ] final  163.21 input   59.86 | X-H torsion
[ 10167 10162 10161 10158 ] final   22.78 input  -65.29 | X-H torsion
[ 10718 10713 10712 10709 ] final  -93.87 input   66.30 | X-H torsion
[ 10763 10752 10751 10750 ] final -125.04 input  -60.55 | X-H torsion
[ 11005 11000 10999 10996 ] final   56.96 input  -57.11 | X-H torsion

> <Gold.Protein.ActiveResidues>
 VAL166  LYS551  ARG553  GLY616  TRP617  ASP618  TYR619  PRO620  LYS621  CYS622 
 ASP623  PHE694  ASN695  SER759  ASP760  ASP761  ALA762  ILE779  LEU786  VAL792 
 PHE793  MET794  SER795  GLU796  ALA797  LYS798  CYS799  TRP800  GLU811  SER814 

> <Gold.Protein.RotatedAtoms>
  151.0272  134.9512  159.8091 H   0  0  0  0  0  0  0  0  0  0  0  0  # atno 6907 bound_to 6896
  152.5338  134.2827  159.9023 H   0  0  0  0  0  0  0  0  0  0  0  0  # atno 6908 bound_to 6896
  151.2836  133.4156  159.2662 H   0  0  0  0  0  0  0  0  0  0  0  0  # atno 6909 bound_to 6896
  145.3498  140.9474  143.2560 H   0  0  0  0  0  0  0  0  0  0  0  0  # atno 7974 bound_to 7965
  156.1974  140.1729  156.7970 H   0  0  0  0  0  0  0  0  0  0  0  0  # atno 8008 bound_to 7997
  154.5547  140.0711  156.8755 H   0  0  0  0  0  0  0  0  0  0  0  0  # atno 8009 bound_to 7997
  155.2962  140.3358  155.4252 H   0  0  0  0  0  0  0  0  0  0  0  0  # atno 8010 bound_to 7997
  140.5321  143.9823  150.6471 H   0  0  0  0  0  0  0  0  0  0  0  0  # atno 10167 bound_to 10162
  156.0019  130.5044  150.5841 H   0  0  0  0  0  0  0  0  0  0  0  0  # atno 10718 bound_to 10713
  154.8731  135.4043  154.3204 H   0  0  0  0  0  0  0  0  0  0  0  0  # atno 10763 bound_to 10752
  153.4033  135.7018  153.6416 H   0  0  0  0  0  0  0  0  0  0  0  0  # atno 10764 bound_to 10752
  153.5149  135.3699  155.2575 H   0  0  0  0  0  0  0  0  0  0  0  0  # atno 10765 bound_to 10752
  140.0489  134.5765  155.9288 H   0  0  0  0  0  0  0  0  0  0  0  0  # atno 11005 bound_to 11000
  144.8726  139.5016  143.6760 LP  0  0  0  0  0  0  0  0  0  0  0  0  # atno 17320 bound_to 7965
  146.2972  139.7316  142.9117 LP  0  0  0  0  0  0  0  0  0  0  0  0  # atno 17321 bound_to 7965
  140.3201  143.3142  152.0792 LP  0  0  0  0  0  0  0  0  0  0  0  0  # atno 17342 bound_to 10162
  139.4958  144.6579  151.6531 LP  0  0  0  0  0  0  0  0  0  0  0  0  # atno 17343 bound_to 10162
  157.3716  131.0766  151.1553 LP  0  0  0  0  0  0  0  0  0  0  0  0  # atno 17370 bound_to 10713
  157.2304  130.6522  149.5847 LP  0  0  0  0  0  0  0  0  0  0  0  0  # atno 17371 bound_to 10713
  141.1921  133.6574  156.5485 LP  0  0  0  0  0  0  0  0  0  0  0  0  # atno 17394 bound_to 11000
  140.3949  134.7408  157.4744 LP  0  0  0  0  0  0  0  0  0  0  0  0  # atno 17395 bound_to 11000

$$$$
