AV-unprocessed.smi:3030|AV-procd|sdf|11535|dock4
  -GOLD-   2272016483D 1   1.00000     0.00000
 Structure written by MMmdl.
 52 53  0  0  0  0  0  0  0  0  1 V2000
  144.2125  132.1387  149.2440 C   0  0  0  0  0  0  0  0  0  0  0  0
  144.1679  133.6707  149.2355 C   0  0  0  0  0  0  0  0  0  0  0  0
  144.2401  134.2193  150.5817 N   0  0  0  0  0  0  0  0  0  0  0  0
  143.3019  133.8809  151.5517 C   0  0  0  0  0  0  0  0  0  0  0  0
  143.3348  134.3275  152.8222 C   0  0  0  0  0  0  0  0  0  0  0  0
  144.4253  135.2304  153.2438 C   0  0  0  0  0  0  0  0  0  0  0  0
  144.4796  135.6683  154.3930 O   0  0  0  0  0  0  0  0  0  0  0  0
  145.4394  135.5743  152.2128 C   0  0  0  0  0  0  0  0  0  0  0  0
  146.4702  136.4394  152.6120 N   0  0  0  0  0  0  0  0  0  0  0  0
  146.4083  137.5044  153.4312 C   0  0  0  0  0  0  0  0  0  0  0  0
  145.3852  137.9569  153.9446 O   0  0  0  0  0  0  0  0  0  0  0  0
  147.6273  138.0317  153.6165 N   0  0  0  0  0  0  0  0  0  0  0  0
  147.9475  139.2103  154.4220 C   0  0  2  0  0  0  0  0  0  0  0  0
  147.0836  140.3817  153.9119 C   0  0  0  0  0  0  0  0  0  0  0  0
  147.3868  141.6984  154.6469 C   0  0  2  0  0  0  0  0  0  0  0  0
  146.5163  142.8492  154.1226 C   0  0  0  0  0  0  0  0  0  0  0  0
  148.8830  142.0301  154.5334 C   0  0  0  0  0  0  0  0  0  0  0  0
  149.7491  140.8841  155.0747 C   0  0  0  0  0  0  0  0  0  0  0  0
  149.4647  139.5469  154.3490 C   0  0  1  0  0  0  0  0  0  0  0  0
  150.3973  138.3897  154.8186 C   0  0  0  0  0  0  0  0  0  0  0  0
  150.1635  137.9447  156.2745 C   0  0  0  0  0  0  0  0  0  0  0  0
  151.8846  138.7016  154.5800 C   0  0  0  0  0  0  0  0  0  0  0  0
  145.2827  135.0596  150.9669 C   0  0  0  0  0  0  0  0  0  0  0  0
  144.1551  131.7438  148.2296 H   0  0  0  0  0  0  0  0  0  0  0  0
  143.3788  131.7235  149.8113 H   0  0  0  0  0  0  0  0  0  0  0  0
  145.1377  131.7739  149.6913 H   0  0  0  0  0  0  0  0  0  0  0  0
  144.9928  134.0613  148.6385 H   0  0  0  0  0  0  0  0  0  0  0  0
  143.2521  134.0124  148.7518 H   0  0  0  0  0  0  0  0  0  0  0  0
  142.5196  133.2219  151.2038 H   0  0  0  0  0  0  0  0  0  0  0  0
  142.5815  134.0401  153.5409 H   0  0  0  0  0  0  0  0  0  0  0  0
  147.3709  136.2354  152.2041 H   0  0  0  0  0  0  0  0  0  0  0  0
  148.4043  137.5848  153.1519 H   0  0  0  0  0  0  0  0  0  0  0  0
  147.6749  139.0395  155.4643 H   0  0  0  0  0  0  0  0  0  0  0  0
  147.2489  140.5196  152.8420 H   0  0  0  0  0  0  0  0  0  0  0  0
  146.0276  140.1338  154.0287 H   0  0  0  0  0  0  0  0  0  0  0  0
  147.1491  141.5600  155.7027 H   0  0  0  0  0  0  0  0  0  0  0  0
  146.7003  143.0351  153.0639 H   0  0  0  0  0  0  0  0  0  0  0  0
  146.7199  143.7741  154.6632 H   0  0  0  0  0  0  0  0  0  0  0  0
  145.4559  142.6257  154.2419 H   0  0  0  0  0  0  0  0  0  0  0  0
  149.1431  142.2260  153.4922 H   0  0  0  0  0  0  0  0  0  0  0  0
  149.1044  142.9451  155.0838 H   0  0  0  0  0  0  0  0  0  0  0  0
  150.7971  141.1624  154.9708 H   0  0  0  0  0  0  0  0  0  0  0  0
  149.5622  140.7795  156.1437 H   0  0  0  0  0  0  0  0  0  0  0  0
  149.6898  139.7123  153.2938 H   0  0  0  0  0  0  0  0  0  0  0  0
  150.1889  137.5232  154.1918 H   0  0  0  0  0  0  0  0  0  0  0  0
  150.4164  138.7313  156.9850 H   0  0  0  0  0  0  0  0  0  0  0  0
  150.7811  137.0798  156.5177 H   0  0  0  0  0  0  0  0  0  0  0  0
  149.1282  137.6557  156.4497 H   0  0  0  0  0  0  0  0  0  0  0  0
  152.2422  139.5034  155.2257 H   0  0  0  0  0  0  0  0  0  0  0  0
  152.0659  138.9958  153.5459 H   0  0  0  0  0  0  0  0  0  0  0  0
  152.5014  137.8252  154.7809 H   0  0  0  0  0  0  0  0  0  0  0  0
  145.9540  135.2855  150.1531 H   0  0  0  0  0  0  0  0  0  0  0  0
  1  2  1  0  0  0  0
  1 24  1  0  0  0  0
  1 25  1  0  0  0  0
  1 26  1  0  0  0  0
  2  3  1  0  0  0  0
  2 27  1  0  0  0  0
  2 28  1  0  0  0  0
  3 23  1  0  0  0  0
  3  4  1  0  0  0  0
  4  5  2  0  0  0  0
  4 29  1  0  0  0  0
  5  6  1  0  0  0  0
  5 30  1  0  0  0  0
  6  7  2  0  0  0  0
  6  8  1  0  0  0  0
  8  9  1  0  0  0  0
  8 23  2  0  0  0  0
  9 10  1  0  0  0  0
  9 31  1  0  0  0  0
 10 11  2  0  0  0  0
 10 12  1  0  0  0  0
 12 13  1  0  0  0  0
 12 32  1  0  0  0  0
 13 19  1  0  0  0  0
 13 14  1  0  0  0  0
 13 33  1  0  0  0  0
 14 15  1  0  0  0  0
 14 34  1  0  0  0  0
 14 35  1  0  0  0  0
 15 16  1  0  0  0  0
 15 17  1  0  0  0  0
 15 36  1  0  0  0  0
 16 37  1  0  0  0  0
 16 38  1  0  0  0  0
 16 39  1  0  0  0  0
 17 18  1  0  0  0  0
 17 40  1  0  0  0  0
 17 41  1  0  0  0  0
 18 19  1  0  0  0  0
 18 42  1  0  0  0  0
 18 43  1  0  0  0  0
 19 20  1  0  0  0  0
 19 44  1  0  0  0  0
 20 21  1  0  0  0  0
 20 22  1  0  0  0  0
 20 45  1  0  0  0  0
 21 46  1  0  0  0  0
 21 47  1  0  0  0  0
 21 48  1  0  0  0  0
 22 49  1  0  0  0  0
 22 50  1  0  0  0  0
 22 51  1  0  0  0  0
 23 52  1  0  0  0  0
M  END
> <s_m_source_file>
AV-unprocessed.smi

> <i_m_source_file_index>
3030

> <i_lp_mmshare_version>
43012

> <i_f3d_flags>
0

> <s_epik_input>
W0NIM11bQ0gyXW4xW2NIXVtjSF1jKD1PKWMoW2NIXTEpW05IXUMoPU8pW05IXVtDQEBIXTJbQ0gyXVtDQEBIXShbQ0gzXSlbQ0gyXVtDSDJdW0NASF0yW0NIXShbQ0gzXSlbQ0gzXQ==

> <s_epik_cmdline>
J2VwaWtfcHl0aG9uJywgJy1waCcsICc3LjAnLCAnLXRuJywgJzgnLCAnLW1hJywgJzIwMCcsICctbWV0YWxfYmluZGluZycsICctaW1hZScsICc8aW5maWxlLm1hZT4nLCAnLW9tYWUnLCAnPG91dGZpbGUubWFlPic=

> <r_lp_tautomer_probability>
1

> <r_epik_Ionization_Penalty>
0.00147933

> <r_epik_Ionization_Penalty_Charging>
0.00145753

> <r_epik_Ionization_Penalty_Neutral>
2.17987e-05

> <r_epik_State_Penalty>
0.00097457

> <r_epik_Charging_Adjusted_Penalty>
0.0024321

> <i_epik_Tot_Q>
0

> <i_epik_Tot_abs_Q>
0

> <r_epik_Metal_State_Penalty>
-0

> <b_epik_Metal_Only>
0

> <s_lp_Force_Field>
OPLS_2005

> <r_lp_Energy>
10.2365

> <b_lp_Chiralities_Consistent>
1

> <s_lp_Variant>
AV-unprocessed.smi:3030-3

> <Gold.Version>
5.8.1

> <Gold.Id.Protein>
6NUR|6NUR_protein|mol2

> <Gold.PLP.Fitness>
45.2635

> <Gold.PLP.PLP>
-35.0214

> <Gold.PLP.part.hbond>
-2.0000

> <Gold.PLP.part.metal>
0.0000

> <Gold.PLP.part.buried>
4.8040

> <Gold.PLP.part.nonpolar>
-39.2062

> <Gold.PLP.part.repulsive>
0.2269

> <Gold.PLP.ligand.clash>
0.0000

> <Gold.PLP.ligand.torsion>
0.3328

> <Gold.PLP.Chemscore.Hbond>
1.9120

> <Gold.PLP.Chemscore.CHOScore>
1.6706

> <Gold.PLP.Chemscore.Metal>
0.0000

> <Gold.Chemscore.Hbonds>
donor molecule, donor type, donor heavy atom, donor atom, acceptor molecule, acceptor atom, score
      L1  H     9    31       P1  7948  1.00
      L1  H    12    32       P1  7948  0.94
      L1  C     4    29       P1 10186  0.61
      L1  C    23    52       P1  7921  0.93

> <Gold.PLP.Chemscore.Internal.Correction>
0.1600

> <Gold.Rescore>
     Score         DG    S(hbond)    S(metal)    S(lipo)     H(rot)  DE(clash)    DE(int)     intcor
     14.86     -21.28       1.94        0.00     107.46       1.27       2.02       4.40       ----

> <Gold.Chemscore.Fitness>
14.8561

> <Gold.Chemscore.DG>
-21.2773

> <Gold.Chemscore.ZeroCoef>
-5.4800

> <Gold.Chemscore.Hbond>
1.9375

> <Gold.Chemscore.Metal>
0.0000

> <Gold.Chemscore.Lipo>
107.4649

> <Gold.Chemscore.Internal_Hbond>
0.0000

> <Gold.Chemscore.DEClash>
2.0243

> <Gold.Chemscore.DEInternal>
4.3969

> <Gold.Chemscore.Rot>
1.2685

> <Gold.Chemscore.Internal.Correction>
   9.000000E+99

> <Gold.Chemscore.Hbonds>
donor molecule, donor type, donor heavy atom, donor atom, acceptor molecule, acceptor atom, score
      L1  H     9    31       P1  7948  0.99
      L1  H    12    32       P1  7948  0.90

> <Gold.Chemscore.Hbond.Weighted>
-6.4714

> <Gold.Chemscore.Metal.Weighted>
-0.0000

> <Gold.Chemscore.Lipo.Weighted>
-12.5734

> <Gold.Chemscore.Internal_Hbond.Weighted>
0.0000

> <Gold.Chemscore.DEClash.Weighted>
2.0243

> <Gold.Chemscore.DEInternal.Weighted>
4.3969

> <Gold.Chemscore.Rot.Weighted>
3.2474

> <Gold.Chemscore.Internal.Correction.Weighted>
   9.000000E+99

> <Gold.Protein.RotatedTorsions>
[ 6907 6896 6895 6894 ] final  157.54 input  -60.11 | X-H torsion
[ 7974 7965 7964 7962 ] final  -28.30 input  175.53 | X-H torsion
[ 8008 7997 7996 7995 ] final  -43.03 input   59.86 | X-H torsion
[ 10167 10162 10161 10158 ] final  116.29 input  -65.29 | X-H torsion
[ 10718 10713 10712 10709 ] final -146.96 input   66.30 | X-H torsion
[ 10763 10752 10751 10750 ] final  112.53 input  -60.55 | X-H torsion
[ 11005 11000 10999 10996 ] final  -61.89 input  -57.11 | X-H torsion

> <Gold.Protein.ActiveResidues>
 VAL166  LYS551  ARG553  GLY616  TRP617  ASP618  TYR619  PRO620  LYS621  CYS622 
 ASP623  PHE694  ASN695  SER759  ASP760  ASP761  ALA762  ILE779  LEU786  VAL792 
 PHE793  MET794  SER795  GLU796  ALA797  LYS798  CYS799  TRP800  GLU811  SER814 

> <Gold.Protein.RotatedAtoms>
  152.0136  133.3871  159.4229 H   0  0  0  0  0  0  0  0  0  0  0  0  # atno 6907 bound_to 6896
  150.6897  134.3703  159.4998 H   0  0  0  0  0  0  0  0  0  0  0  0  # atno 6908 bound_to 6896
  152.1467  134.9020  160.0601 H   0  0  0  0  0  0  0  0  0  0  0  0  # atno 6909 bound_to 6896
  146.1297  140.5265  142.8698 H   0  0  0  0  0  0  0  0  0  0  0  0  # atno 7974 bound_to 7965
  154.3997  140.1458  156.3452 H   0  0  0  0  0  0  0  0  0  0  0  0  # atno 8008 bound_to 7997
  155.8320  140.3465  155.5557 H   0  0  0  0  0  0  0  0  0  0  0  0  # atno 8009 bound_to 7997
  155.8178  140.0893  157.1857 H   0  0  0  0  0  0  0  0  0  0  0  0  # atno 8010 bound_to 7997
  139.6258  144.7108  151.2537 H   0  0  0  0  0  0  0  0  0  0  0  0  # atno 10167 bound_to 10162
  156.4014  130.7936  151.2147 H   0  0  0  0  0  0  0  0  0  0  0  0  # atno 10718 bound_to 10713
  153.4791  135.3683  155.2432 H   0  0  0  0  0  0  0  0  0  0  0  0  # atno 10763 bound_to 10752
  154.8755  135.3950  154.3721 H   0  0  0  0  0  0  0  0  0  0  0  0  # atno 10764 bound_to 10752
  153.4322  135.7082  153.6288 H   0  0  0  0  0  0  0  0  0  0  0  0  # atno 10765 bound_to 10752
  141.1340  133.6634  156.5444 H   0  0  0  0  0  0  0  0  0  0  0  0  # atno 11005 bound_to 11000
  144.7678  140.5570  143.6691 LP  0  0  0  0  0  0  0  0  0  0  0  0  # atno 17320 bound_to 7965
  145.5287  139.1475  143.3512 LP  0  0  0  0  0  0  0  0  0  0  0  0  # atno 17321 bound_to 7965
  140.7410  143.6571  150.8197 LP  0  0  0  0  0  0  0  0  0  0  0  0  # atno 17342 bound_to 10162
  140.0189  143.5563  152.2809 LP  0  0  0  0  0  0  0  0  0  0  0  0  # atno 17343 bound_to 10162
  157.7504  131.0285  150.4053 LP  0  0  0  0  0  0  0  0  0  0  0  0  # atno 17370 bound_to 10713
  156.4334  130.3976  149.6745 LP  0  0  0  0  0  0  0  0  0  0  0  0  # atno 17371 bound_to 10713
  140.4114  134.7269  157.4838 LP  0  0  0  0  0  0  0  0  0  0  0  0  # atno 17394 bound_to 11000
  140.0425  134.6247  155.8963 LP  0  0  0  0  0  0  0  0  0  0  0  0  # atno 17395 bound_to 11000

$$$$
