AV-unprocessed.smi:598|AV-procd|sdf|3022|dock8
  -GOLD-   2262023533D 1   1.00000     0.00000
 Structure written by MMmdl.
 43 44  0  0  0  0  0  0  0  0  3 V2000
  153.0090  142.8198  162.6303 C   0  0  0  0  0  0  0  0  0  0  0  0
  152.1812  143.1995  161.3911 C   0  0  1  0  0  0  0  0  0  0  0  0
  152.3547  144.6871  161.0227 C   0  0  0  0  0  0  0  0  0  0  0  0
  151.4510  145.0855  159.8455 C   0  0  0  0  0  0  0  0  0  0  0  0
  151.6771  144.1751  158.6292 C   0  0  0  0  0  0  0  0  0  0  0  0
  151.4942  142.6911  159.0016 C   0  0  1  0  0  0  0  0  0  0  0  0
  151.6796  141.8568  157.8163 N   0  0  0  0  0  0  0  0  0  0  0  0
  151.6493  140.5156  157.7970 C   0  0  0  0  0  0  0  0  0  0  0  0
  151.4257  139.8297  158.7953 O   0  0  0  0  0  0  0  0  0  0  0  0
  151.8975  139.8556  156.4337 C   0  0  0  0  0  0  0  0  0  0  0  0
  150.7815  138.9992  155.9985 N   0  0  0  0  0  0  0  0  0  0  0  0
  150.5044  137.8583  156.7778 C   0  0  0  0  0  0  0  0  0  0  0  0
  149.5096  137.0040  156.4676 C   0  0  0  0  0  0  0  0  0  0  0  0
  149.2421  135.8345  157.2761 N   0  3  0  0  0  0  0  0  0  0  0  0
  149.7888  135.7382  158.3702 O   0  0  0  0  0  0  0  0  0  0  0  0
  148.4795  134.9743  156.8455 O   0  5  0  0  0  0  0  0  0  0  0  0
  148.7156  137.2932  155.2889 C   0  0  0  0  0  0  0  0  0  0  0  0
  148.9774  138.3811  154.5380 C   0  0  0  0  0  0  0  0  0  0  0  0
  150.0613  139.3089  154.8769 C   0  0  0  0  0  0  0  0  0  0  0  0
  150.3070  140.3036  154.1940 O   0  0  0  0  0  0  0  0  0  0  0  0
  152.4304  142.2737  160.1701 C   0  0  1  0  0  0  0  0  0  0  0  0
  153.9177  142.1806  159.7554 C   0  0  0  0  0  0  0  0  0  0  0  0
  154.0707  143.0204  162.4856 H   0  0  0  0  0  0  0  0  0  0  0  0
  152.8947  141.7630  162.8725 H   0  0  0  0  0  0  0  0  0  0  0  0
  152.6878  143.3917  163.5012 H   0  0  0  0  0  0  0  0  0  0  0  0
  151.1363  143.0646  161.6756 H   0  0  0  0  0  0  0  0  0  0  0  0
  152.1184  145.3126  161.8842 H   0  0  0  0  0  0  0  0  0  0  0  0
  153.3958  144.8945  160.7739 H   0  0  0  0  0  0  0  0  0  0  0  0
  150.4062  145.0270  160.1534 H   0  0  0  0  0  0  0  0  0  0  0  0
  151.6328  146.1250  159.5714 H   0  0  0  0  0  0  0  0  0  0  0  0
  150.9783  144.4494  157.8379 H   0  0  0  0  0  0  0  0  0  0  0  0
  152.6761  144.3446  158.2257 H   0  0  0  0  0  0  0  0  0  0  0  0
  150.4612  142.5697  159.3340 H   0  0  0  0  0  0  0  0  0  0  0  0
  151.8669  142.3377  156.9484 H   0  0  0  0  0  0  0  0  0  0  0  0
  152.0865  140.6453  155.7054 H   0  0  0  0  0  0  0  0  0  0  0  0
  152.8205  139.2733  156.4700 H   0  0  0  0  0  0  0  0  0  0  0  0
  151.1566  137.7276  157.6295 H   0  0  0  0  0  0  0  0  0  0  0  0
  147.9065  136.6392  154.9985 H   0  0  0  0  0  0  0  0  0  0  0  0
  148.3748  138.5770  153.6632 H   0  0  0  0  0  0  0  0  0  0  0  0
  152.1376  141.2674  160.4731 H   0  0  0  0  0  0  0  0  0  0  0  0
  154.3215  143.1466  159.4550 H   0  0  0  0  0  0  0  0  0  0  0  0
  154.0593  141.4919  158.9225 H   0  0  0  0  0  0  0  0  0  0  0  0
  154.5363  141.8035  160.5689 H   0  0  0  0  0  0  0  0  0  0  0  0
  1  2  1  0  0  0  0
  1 23  1  0  0  0  0
  1 24  1  0  0  0  0
  1 25  1  0  0  0  0
  2 21  1  0  0  0  0
  2  3  1  0  0  0  0
  2 26  1  0  0  0  0
  3  4  1  0  0  0  0
  3 27  1  0  0  0  0
  3 28  1  0  0  0  0
  4  5  1  0  0  0  0
  4 29  1  0  0  0  0
  4 30  1  0  0  0  0
  5  6  1  0  0  0  0
  5 31  1  0  0  0  0
  5 32  1  0  0  0  0
  6  7  1  0  0  0  0
  6 21  1  0  0  0  0
  6 33  1  0  0  0  0
  7  8  1  0  0  0  0
  7 34  1  0  0  0  0
  8  9  2  0  0  0  0
  8 10  1  0  0  0  0
 10 11  1  0  0  0  0
 10 35  1  0  0  0  0
 10 36  1  0  0  0  0
 11 19  1  0  0  0  0
 11 12  1  0  0  0  0
 12 13  2  0  0  0  0
 12 37  1  0  0  0  0
 13 14  1  0  0  0  0
 13 17  1  0  0  0  0
 14 15  2  0  0  0  0
 14 16  1  0  0  0  0
 17 18  2  0  0  0  0
 17 38  1  0  0  0  0
 18 19  1  0  0  0  0
 18 39  1  0  0  0  0
 19 20  2  0  0  0  0
 21 22  1  0  0  0  0
 21 40  1  0  0  0  0
 22 41  1  0  0  0  0
 22 42  1  0  0  0  0
 22 43  1  0  0  0  0
M  CHG  1  14   1
M  CHG  1  16  -1
M  END
> <s_m_source_file>
AV-unprocessed.smi

> <i_m_source_file_index>
598

> <i_lp_mmshare_version>
43012

> <i_f3d_flags>
0

> <s_epik_input>
W0NIM11bQ0BASF0xW0NIMl1bQ0gyXVtDSDJdW0NASF0oW0NASF0xW0NIM10pW05IXUMoPU8pW0NIMl1uMltjSF1jKFtOK10oPU8pW08tXSlbY0hdW2NIXWMyPU8=

> <s_epik_cmdline>
J2VwaWtfcHl0aG9uJywgJy1waCcsICc3LjAnLCAnLXRuJywgJzgnLCAnLW1hJywgJzIwMCcsICctbWV0YWxfYmluZGluZycsICctaW1hZScsICc8aW5maWxlLm1hZT4nLCAnLW9tYWUnLCAnPG91dGZpbGUubWFlPic=

> <r_lp_tautomer_probability>
1

> <r_epik_Ionization_Penalty>
1.91291e-08

> <r_epik_Ionization_Penalty_Charging>
8.21931e-11

> <r_epik_Ionization_Penalty_Neutral>
1.90469e-08

> <r_epik_State_Penalty>
-0

> <r_epik_Charging_Adjusted_Penalty>
8.21931e-11

> <i_epik_Tot_Q>
0

> <i_epik_Tot_abs_Q>
2

> <r_epik_Metal_State_Penalty>
-0

> <b_epik_Metal_Only>
0

> <s_lp_Force_Field>
OPLS_2005

> <r_lp_Energy>
25.1906

> <b_lp_Chiralities_Consistent>
1

> <s_lp_Variant>
AV-unprocessed.smi:598-2

> <Gold.Version>
5.8.1

> <Gold.Id.Protein>
6NUR|6NUR_protein|mol2

> <Gold.PLP.Fitness>
45.9244

> <Gold.PLP.PLP>
-40.2168

> <Gold.PLP.part.hbond>
-1.7346

> <Gold.PLP.part.metal>
0.0000

> <Gold.PLP.part.buried>
-6.2292

> <Gold.PLP.part.nonpolar>
-32.5714

> <Gold.PLP.part.repulsive>
0.3304

> <Gold.PLP.ligand.clash>
0.0000

> <Gold.PLP.ligand.torsion>
0.1181

> <Gold.PLP.Chemscore.Hbond>
1.9760

> <Gold.PLP.Chemscore.CHOScore>
0.0000

> <Gold.PLP.Chemscore.Metal>
0.0000

> <Gold.Chemscore.Hbonds>
donor molecule, donor type, donor heavy atom, donor atom, acceptor molecule, acceptor atom, score
      P1  H  6896  6908       L1    15  1.00
      P1  H  7989  7998       L1    20  0.98

> <Gold.PLP.Chemscore.Internal.Correction>
0.0158

> <Gold.Rescore>
     Score         DG    S(hbond)    S(metal)    S(lipo)     H(rot)  DE(clash)    DE(int)     intcor
     18.38     -20.78       1.95        0.00     108.68       1.54       0.06       2.33       ----

> <Gold.Chemscore.Fitness>
18.3800

> <Gold.Chemscore.DG>
-20.7752

> <Gold.Chemscore.ZeroCoef>
-5.4800

> <Gold.Chemscore.Hbond>
1.9521

> <Gold.Chemscore.Metal>
0.0000

> <Gold.Chemscore.Lipo>
108.6840

> <Gold.Chemscore.Internal_Hbond>
0.0000

> <Gold.Chemscore.DEClash>
0.0640

> <Gold.Chemscore.DEInternal>
2.3312

> <Gold.Chemscore.Rot>
1.5393

> <Gold.Chemscore.Internal.Correction>
   9.000000E+99

> <Gold.Chemscore.Hbonds>
donor molecule, donor type, donor heavy atom, donor atom, acceptor molecule, acceptor atom, score
      P1  H  6896  6908       L1    15  0.98
      P1  H  7989  7998       L1    20  0.92

> <Gold.Chemscore.Hbond.Weighted>
-6.5199

> <Gold.Chemscore.Metal.Weighted>
-0.0000

> <Gold.Chemscore.Lipo.Weighted>
-12.7160

> <Gold.Chemscore.Internal_Hbond.Weighted>
0.0000

> <Gold.Chemscore.DEClash.Weighted>
0.0640

> <Gold.Chemscore.DEInternal.Weighted>
2.3312

> <Gold.Chemscore.Rot.Weighted>
3.9407

> <Gold.Chemscore.Internal.Correction.Weighted>
   9.000000E+99

> <Gold.Protein.RotatedTorsions>
[ 6907 6896 6895 6894 ] final  175.60 input  -60.11 | X-H torsion
[ 7974 7965 7964 7962 ] final  -86.94 input  175.53 | X-H torsion
[ 8008 7997 7996 7995 ] final   -9.31 input   59.86 | X-H torsion
[ 10167 10162 10161 10158 ] final  155.41 input  -65.29 | X-H torsion
[ 10718 10713 10712 10709 ] final  -19.63 input   66.30 | X-H torsion
[ 10763 10752 10751 10750 ] final   75.09 input  -60.55 | X-H torsion
[ 11005 11000 10999 10996 ] final  -30.53 input  -57.11 | X-H torsion

> <Gold.Protein.ActiveResidues>
 VAL166  LYS551  ARG553  GLY616  TRP617  ASP618  TYR619  PRO620  LYS621  CYS622 
 ASP623  PHE694  ASN695  SER759  ASP760  ASP761  ALA762  ILE779  LEU786  VAL792 
 PHE793  MET794  SER795  GLU796  ALA797  LYS798  CYS799  TRP800  GLU811  SER814 

> <Gold.Protein.RotatedAtoms>
  151.7336  133.3319  159.3346 H   0  0  0  0  0  0  0  0  0  0  0  0  # atno 6907 bound_to 6896
  150.7602  134.6341  159.6211 H   0  0  0  0  0  0  0  0  0  0  0  0  # atno 6908 bound_to 6896
  152.3576  134.6920  160.0269 H   0  0  0  0  0  0  0  0  0  0  0  0  # atno 6909 bound_to 6896
  145.4732  140.9559  143.1905 H   0  0  0  0  0  0  0  0  0  0  0  0  # atno 7974 bound_to 7965
  154.5659  140.2358  155.8265 H   0  0  0  0  0  0  0  0  0  0  0  0  # atno 8008 bound_to 7997
  156.2068  140.3037  155.9602 H   0  0  0  0  0  0  0  0  0  0  0  0  # atno 8009 bound_to 7997
  155.2802  140.0422  157.3005 H   0  0  0  0  0  0  0  0  0  0  0  0  # atno 8010 bound_to 7997
  139.4821  144.5101  151.8037 H   0  0  0  0  0  0  0  0  0  0  0  0  # atno 10167 bound_to 10162
  156.5429  130.4683  149.6489 H   0  0  0  0  0  0  0  0  0  0  0  0  # atno 10718 bound_to 10713
  153.0631  135.5002  154.8138 H   0  0  0  0  0  0  0  0  0  0  0  0  # atno 10763 bound_to 10752
  154.6912  135.2985  154.9479 H   0  0  0  0  0  0  0  0  0  0  0  0  # atno 10764 bound_to 10752
  154.0233  135.6739  153.4827 H   0  0  0  0  0  0  0  0  0  0  0  0  # atno 10765 bound_to 10752
  140.9390  133.7290  156.1048 H   0  0  0  0  0  0  0  0  0  0  0  0  # atno 11005 bound_to 11000
  144.7932  139.6285  143.7104 LP  0  0  0  0  0  0  0  0  0  0  0  0  # atno 17320 bound_to 7965
  146.2384  139.5952  142.9508 LP  0  0  0  0  0  0  0  0  0  0  0  0  # atno 17321 bound_to 7965
  140.4603  144.1731  150.5905 LP  0  0  0  0  0  0  0  0  0  0  0  0  # atno 17342 bound_to 10162
  140.4491  143.2494  151.9371 LP  0  0  0  0  0  0  0  0  0  0  0  0  # atno 17343 bound_to 10162
  156.2955  130.7147  151.2007 LP  0  0  0  0  0  0  0  0  0  0  0  0  # atno 17370 bound_to 10713
  157.7402  131.0520  150.5183 LP  0  0  0  0  0  0  0  0  0  0  0  0  # atno 17371 bound_to 10713
  140.7760  134.3779  157.5498 LP  0  0  0  0  0  0  0  0  0  0  0  0  # atno 17394 bound_to 11000
  139.8815  134.9052  156.2893 LP  0  0  0  0  0  0  0  0  0  0  0  0  # atno 17395 bound_to 11000

$$$$
