AV-unprocessed.smi:1565|AV-procd|sdf|6301|dock5
  -GOLD-   22720 6503D 1   1.00000     0.00000
 Structure written by MMmdl.
 39 40  0  0  0  0  0  0  0  0  2 V2000
  151.3542  144.8843  157.2486 C   0  0  0  0  0  0  0  0  0  0  0  0
  152.1368  144.5372  158.5194 C   0  0  2  0  0  0  0  0  0  0  0  0
  152.1234  143.0249  158.8108 C   0  0  0  0  0  0  0  0  0  0  0  0
  152.7744  142.7447  160.0873 N   0  0  0  0  0  0  0  0  0  0  0  0
  153.0611  141.3843  160.3316 C   0  0  0  0  0  0  0  0  0  0  0  0
  153.9573  141.0234  161.3646 C   0  0  0  0  0  0  0  0  0  0  0  0
  154.2415  139.6618  161.5841 C   0  0  0  0  0  0  0  0  0  0  0  0
  153.6165  138.6868  160.7738 C   0  0  0  0  0  0  0  0  0  0  0  0
  153.9049  137.2172  160.9230 C   0  0  0  0  0  0  0  0  0  0  0  0
  153.3780  136.4397  160.1195 O   0  0  0  0  0  0  0  0  0  0  0  0
  154.7013  136.9483  161.9962 N   0  5  0  0  0  0  0  0  0  0  0  0
  154.6676  135.6943  162.7530 C   0  0  0  0  0  0  0  0  0  0  0  0
  154.7693  135.9491  164.2707 C   0  0  0  0  0  0  0  0  0  0  0  0
  154.5117  134.8130  164.9186 F   0  0  0  0  0  0  0  0  0  0  0  0
  155.9973  136.3524  164.6007 F   0  0  0  0  0  0  0  0  0  0  0  0
  153.8856  136.8665  164.6664 F   0  0  0  0  0  0  0  0  0  0  0  0
  152.7393  139.1453  159.7675 C   0  0  0  0  0  0  0  0  0  0  0  0
  152.4620  140.4497  159.5538 N   0  0  0  0  0  0  0  0  0  0  0  0
  152.2410  143.5393  161.1914 C   0  0  0  0  0  0  0  0  0  0  0  0
  152.2543  145.0367  160.8322 C   0  0  2  0  0  0  0  0  0  0  0  0
  151.5937  145.8945  161.9164 C   0  0  0  0  0  0  0  0  0  0  0  0
  151.5428  145.2312  159.6131 O   0  0  0  0  0  0  0  0  0  0  0  0
  151.7783  144.3841  156.3774 H   0  0  0  0  0  0  0  0  0  0  0  0
  151.3759  145.9577  157.0589 H   0  0  0  0  0  0  0  0  0  0  0  0
  150.3100  144.5817  157.3334 H   0  0  0  0  0  0  0  0  0  0  0  0
  153.1665  144.8780  158.3960 H   0  0  0  0  0  0  0  0  0  0  0  0
  151.0965  142.6595  158.8556 H   0  0  0  0  0  0  0  0  0  0  0  0
  152.6096  142.5009  157.9890 H   0  0  0  0  0  0  0  0  0  0  0  0
  154.4219  141.7686  161.9925 H   0  0  0  0  0  0  0  0  0  0  0  0
  154.9351  139.3824  162.3638 H   0  0  0  0  0  0  0  0  0  0  0  0
  153.7670  135.1138  162.5471 H   0  0  0  0  0  0  0  0  0  0  0  0
  155.4934  135.0479  162.4535 H   0  0  0  0  0  0  0  0  0  0  0  0
  152.2392  138.4493  159.1096 H   0  0  0  0  0  0  0  0  0  0  0  0
  151.2228  143.2139  161.4098 H   0  0  0  0  0  0  0  0  0  0  0  0
  152.8364  143.3766  162.0909 H   0  0  0  0  0  0  0  0  0  0  0  0
  153.2842  145.3747  160.7030 H   0  0  0  0  0  0  0  0  0  0  0  0
  152.1108  145.7879  162.8704 H   0  0  0  0  0  0  0  0  0  0  0  0
  150.5522  145.6087  162.0660 H   0  0  0  0  0  0  0  0  0  0  0  0
  151.6134  146.9500  161.6439 H   0  0  0  0  0  0  0  0  0  0  0  0
  1  2  1  0  0  0  0
  1 23  1  0  0  0  0
  1 24  1  0  0  0  0
  1 25  1  0  0  0  0
  2 22  1  0  0  0  0
  2  3  1  0  0  0  0
  2 26  1  0  0  0  0
  3  4  1  0  0  0  0
  3 27  1  0  0  0  0
  3 28  1  0  0  0  0
  4  5  1  0  0  0  0
  4 19  1  0  0  0  0
  5 18  1  0  0  0  0
  5  6  2  0  0  0  0
  6  7  1  0  0  0  0
  6 29  1  0  0  0  0
  7  8  2  0  0  0  0
  7 30  1  0  0  0  0
  8  9  1  0  0  0  0
  8 17  1  0  0  0  0
  9 10  2  0  0  0  0
  9 11  1  0  0  0  0
 11 12  1  0  0  0  0
 12 13  1  0  0  0  0
 12 31  1  0  0  0  0
 12 32  1  0  0  0  0
 13 14  1  0  0  0  0
 13 15  1  0  0  0  0
 13 16  1  0  0  0  0
 17 18  2  0  0  0  0
 17 33  1  0  0  0  0
 19 20  1  0  0  0  0
 19 34  1  0  0  0  0
 19 35  1  0  0  0  0
 20 21  1  0  0  0  0
 20 22  1  0  0  0  0
 20 36  1  0  0  0  0
 21 37  1  0  0  0  0
 21 38  1  0  0  0  0
 21 39  1  0  0  0  0
M  CHG  1  11  -1
M  END
> <s_m_source_file>
AV-unprocessed.smi

> <i_m_source_file_index>
1565

> <i_lp_mmshare_version>
43012

> <i_f3d_flags>
0

> <s_epik_input>
W0NIM11bQ0BASF0xW0NIMl1OKFtDSDJdW0NASF0oTzEpW0NIM10pYzJbY0hdW2NIXWMoW2NIXW4yKUMoPU8pW05IXVtDSDJdQyhGKShGKUY=

> <s_epik_cmdline>
J2VwaWtfcHl0aG9uJywgJy1waCcsICc3LjAnLCAnLXRuJywgJzgnLCAnLW1hJywgJzIwMCcsICctbWV0YWxfYmluZGluZycsICctaW1hZScsICc8aW5maWxlLm1hZT4nLCAnLW9tYWUnLCAnPG91dGZpbGUubWFlPic=

> <r_lp_tautomer_probability>
1

> <r_epik_Ionization_Penalty>
6.78525

> <r_epik_Ionization_Penalty_Charging>
6.78469

> <r_epik_Ionization_Penalty_Neutral>
0.000559052

> <r_epik_State_Penalty>
6.78469

> <r_epik_Charging_Adjusted_Penalty>
13.5694

> <i_epik_Tot_Q>
-1

> <i_epik_Tot_abs_Q>
1

> <r_epik_Metal_State_Penalty>
2.70441

> <b_epik_Metal_Only>
1

> <s_lp_Force_Field>
OPLS_2005

> <r_lp_Energy>
25.7162

> <b_lp_Chiralities_Consistent>
1

> <s_lp_Variant>
AV-unprocessed.smi:1565-5

> <Gold.Version>
5.8.1

> <Gold.Id.Protein>
6NUR|6NUR_protein|mol2

> <Gold.PLP.Fitness>
39.9361

> <Gold.PLP.PLP>
-37.7666

> <Gold.PLP.part.hbond>
-1.0000

> <Gold.PLP.part.metal>
0.0000

> <Gold.PLP.part.buried>
0.7105

> <Gold.PLP.part.nonpolar>
-37.0903

> <Gold.PLP.part.repulsive>
0.0813

> <Gold.PLP.ligand.clash>
0.0000

> <Gold.PLP.ligand.torsion>
0.5755

> <Gold.PLP.Chemscore.Hbond>
1.0000

> <Gold.PLP.Chemscore.CHOScore>
0.0000

> <Gold.PLP.Chemscore.Metal>
0.0000

> <Gold.Chemscore.Hbonds>
donor molecule, donor type, donor heavy atom, donor atom, acceptor molecule, acceptor atom, score
      P1  H  6896  6907       L1    10  1.00

> <Gold.PLP.Chemscore.Internal.Correction>
0.3204

> <Gold.Rescore>
     Score         DG    S(hbond)    S(metal)    S(lipo)     H(rot)  DE(clash)    DE(int)     intcor
     16.06     -19.04       1.00        0.00     115.75       1.29       2.41       0.57       ----

> <Gold.Chemscore.Fitness>
16.0621

> <Gold.Chemscore.DG>
-19.0437

> <Gold.Chemscore.ZeroCoef>
-5.4800

> <Gold.Chemscore.Hbond>
0.9967

> <Gold.Chemscore.Metal>
0.0000

> <Gold.Chemscore.Lipo>
115.7480

> <Gold.Chemscore.Internal_Hbond>
0.0000

> <Gold.Chemscore.DEClash>
2.4094

> <Gold.Chemscore.DEInternal>
0.5721

> <Gold.Chemscore.Rot>
1.2921

> <Gold.Chemscore.Internal.Correction>
   9.000000E+99

> <Gold.Chemscore.Hbonds>
donor molecule, donor type, donor heavy atom, donor atom, acceptor molecule, acceptor atom, score
      P1  H  6896  6907       L1    10  0.99

> <Gold.Chemscore.Hbond.Weighted>
-3.3289

> <Gold.Chemscore.Metal.Weighted>
-0.0000

> <Gold.Chemscore.Lipo.Weighted>
-13.5425

> <Gold.Chemscore.Internal_Hbond.Weighted>
0.0000

> <Gold.Chemscore.DEClash.Weighted>
2.4094

> <Gold.Chemscore.DEInternal.Weighted>
0.5721

> <Gold.Chemscore.Rot.Weighted>
3.3078

> <Gold.Chemscore.Internal.Correction.Weighted>
   9.000000E+99

> <Gold.Protein.RotatedTorsions>
[ 6907 6896 6895 6894 ] final   49.75 input  -60.11 | X-H torsion
[ 7974 7965 7964 7962 ] final  136.44 input  175.53 | X-H torsion
[ 8008 7997 7996 7995 ] final   15.57 input   59.86 | X-H torsion
[ 10167 10162 10161 10158 ] final   69.74 input  -65.29 | X-H torsion
[ 10718 10713 10712 10709 ] final   46.50 input   66.30 | X-H torsion
[ 10763 10752 10751 10750 ] final  164.40 input  -60.55 | X-H torsion
[ 11005 11000 10999 10996 ] final   91.19 input  -57.11 | X-H torsion

> <Gold.Protein.ActiveResidues>
 VAL166  LYS551  ARG553  GLY616  TRP617  ASP618  TYR619  PRO620  LYS621  CYS622 
 ASP623  PHE694  ASN695  SER759  ASP760  ASP761  ALA762  ILE779  LEU786  VAL792 
 PHE793  MET794  SER795  GLU796  ALA797  LYS798  CYS799  TRP800  GLU811  SER814 

> <Gold.Protein.RotatedAtoms>
  152.2943  134.7685  160.0371 H   0  0  0  0  0  0  0  0  0  0  0  0  # atno 6907 bound_to 6896
  151.8221  133.3391  159.3595 H   0  0  0  0  0  0  0  0  0  0  0  0  # atno 6908 bound_to 6896
  150.7244  134.5493  159.5831 H   0  0  0  0  0  0  0  0  0  0  0  0  # atno 6909 bound_to 6896
  144.9565  139.4759  143.5500 H   0  0  0  0  0  0  0  0  0  0  0  0  # atno 7974 bound_to 7965
  154.8645  140.2949  155.5519 H   0  0  0  0  0  0  0  0  0  0  0  0  # atno 8008 bound_to 7997
  156.3020  140.2472  156.3557 H   0  0  0  0  0  0  0  0  0  0  0  0  # atno 8009 bound_to 7997
  154.8883  140.0395  157.1812 H   0  0  0  0  0  0  0  0  0  0  0  0  # atno 8010 bound_to 7997
  140.0645  144.5205  150.7271 H   0  0  0  0  0  0  0  0  0  0  0  0  # atno 10167 bound_to 10162
  157.4487  130.8125  149.7767 H   0  0  0  0  0  0  0  0  0  0  0  0  # atno 10718 bound_to 10713
  154.3083  135.2758  155.2578 H   0  0  0  0  0  0  0  0  0  0  0  0  # atno 10763 bound_to 10752
  154.4984  135.5815  153.6516 H   0  0  0  0  0  0  0  0  0  0  0  0  # atno 10764 bound_to 10752
  152.9891  135.6152  154.3259 H   0  0  0  0  0  0  0  0  0  0  0  0  # atno 10765 bound_to 10752
  139.8843  134.8659  156.3393 H   0  0  0  0  0  0  0  0  0  0  0  0  # atno 11005 bound_to 11000
  146.3339  139.8685  142.8844 LP  0  0  0  0  0  0  0  0  0  0  0  0  # atno 17320 bound_to 7965
  145.2765  141.0125  143.3742 LP  0  0  0  0  0  0  0  0  0  0  0  0  # atno 17321 bound_to 7965
  140.7156  143.2541  151.4445 LP  0  0  0  0  0  0  0  0  0  0  0  0  # atno 17342 bound_to 10162
  139.5873  144.1575  152.2045 LP  0  0  0  0  0  0  0  0  0  0  0  0  # atno 17343 bound_to 10162
  155.9978  130.3898  150.2726 LP  0  0  0  0  0  0  0  0  0  0  0  0  # atno 17370 bound_to 10713
  157.0896  131.0166  151.3126 LP  0  0  0  0  0  0  0  0  0  0  0  0  # atno 17371 bound_to 10713
  140.9670  133.7352  156.0480 LP  0  0  0  0  0  0  0  0  0  0  0  0  # atno 17394 bound_to 11000
  140.7919  134.3608  157.5462 LP  0  0  0  0  0  0  0  0  0  0  0  0  # atno 17395 bound_to 11000

$$$$
