AV-unprocessed.smi:2143|AV-procd|sdf|8725|dock10
  -GOLD-   2272011493D 1   1.00000     0.00000
 Structure written by MMmdl.
 44 45  0  0  0  0  0  0  0  0  1 V2000
  152.0111  144.4536  160.4936 C   0  0  0  0  0  0  0  0  0  0  0  0
  152.9085  143.7418  159.4602 C   0  0  1  0  0  0  0  0  0  0  0  0
  153.7005  142.5832  160.0993 C   0  0  0  0  0  0  0  0  0  0  0  0
  152.8067  141.3744  160.4162 C   0  0  0  0  0  0  0  0  0  0  0  0
  152.0642  140.8928  159.1626 C   0  0  0  0  0  0  0  0  0  0  0  0
  151.2537  142.0248  158.5018 C   0  0  2  0  0  0  0  0  0  0  0  0
  150.6398  141.5018  157.2817 N   0  0  0  0  0  0  0  0  0  0  0  0
  149.8527  140.4180  157.1963 C   0  0  0  0  0  0  0  0  0  0  0  0
  149.5191  139.7421  158.1707 O   0  0  0  0  0  0  0  0  0  0  0  0
  149.3509  140.0664  155.7892 C   0  0  0  0  0  0  0  0  0  0  0  0
  148.2830  140.9572  155.3174 N   0  0  0  0  0  0  0  0  0  0  0  0
  148.3382  141.4742  154.0360 C   0  0  0  0  0  0  0  0  0  0  0  0
  147.4086  142.3145  153.5312 C   0  0  0  0  0  0  0  0  0  0  0  0
  146.2633  142.7321  154.3310 C   0  0  0  0  0  0  0  0  0  0  0  0
  145.4054  143.5129  153.9179 O   0  0  0  0  0  0  0  0  0  0  0  0
  146.2227  142.1761  155.6323 N   0  0  0  0  0  0  0  0  0  0  0  0
  145.1327  142.5489  156.5102 C   0  0  0  0  0  0  0  0  0  0  0  0
  147.2066  141.3102  156.1598 C   0  0  0  0  0  0  0  0  0  0  0  0
  147.1443  140.8779  157.3136 O   0  0  0  0  0  0  0  0  0  0  0  0
  152.1547  143.2512  158.1943 C   0  0  1  0  0  0  0  0  0  0  0  0
  151.4059  144.3944  157.4810 C   0  0  0  0  0  0  0  0  0  0  0  0
  151.2018  143.8155  160.8472 H   0  0  0  0  0  0  0  0  0  0  0  0
  151.5625  145.3566  160.0803 H   0  0  0  0  0  0  0  0  0  0  0  0
  152.5906  144.7593  161.3652 H   0  0  0  0  0  0  0  0  0  0  0  0
  153.6423  144.4807  159.1353 H   0  0  0  0  0  0  0  0  0  0  0  0
  154.4913  142.2699  159.4162 H   0  0  0  0  0  0  0  0  0  0  0  0
  154.2035  142.9225  161.0055 H   0  0  0  0  0  0  0  0  0  0  0  0
  153.4126  140.5628  160.8198 H   0  0  0  0  0  0  0  0  0  0  0  0
  152.0878  141.6332  161.1938 H   0  0  0  0  0  0  0  0  0  0  0  0
  152.7885  140.4938  158.4505 H   0  0  0  0  0  0  0  0  0  0  0  0
  151.4038  140.0654  159.4251 H   0  0  0  0  0  0  0  0  0  0  0  0
  150.4753  142.3292  159.2029 H   0  0  0  0  0  0  0  0  0  0  0  0
  150.8466  141.9978  156.4270 H   0  0  0  0  0  0  0  0  0  0  0  0
  150.2000  140.1081  155.1058 H   0  0  0  0  0  0  0  0  0  0  0  0
  149.0069  139.0306  155.7689 H   0  0  0  0  0  0  0  0  0  0  0  0
  149.1704  141.1986  153.4043 H   0  0  0  0  0  0  0  0  0  0  0  0
  147.5159  142.6861  152.5227 H   0  0  0  0  0  0  0  0  0  0  0  0
  144.8172  141.6658  157.0685 H   0  0  0  0  0  0  0  0  0  0  0  0
  144.2810  142.9060  155.9309 H   0  0  0  0  0  0  0  0  0  0  0  0
  145.5128  143.3270  157.1738 H   0  0  0  0  0  0  0  0  0  0  0  0
  152.9213  142.9128  157.4951 H   0  0  0  0  0  0  0  0  0  0  0  0
  150.5289  144.7135  158.0445 H   0  0  0  0  0  0  0  0  0  0  0  0
  151.0652  144.0915  156.4909 H   0  0  0  0  0  0  0  0  0  0  0  0
  152.0513  145.2625  157.3449 H   0  0  0  0  0  0  0  0  0  0  0  0
  1  2  1  0  0  0  0
  1 22  1  0  0  0  0
  1 23  1  0  0  0  0
  1 24  1  0  0  0  0
  2 20  1  0  0  0  0
  2  3  1  0  0  0  0
  2 25  1  0  0  0  0
  3  4  1  0  0  0  0
  3 26  1  0  0  0  0
  3 27  1  0  0  0  0
  4  5  1  0  0  0  0
  4 28  1  0  0  0  0
  4 29  1  0  0  0  0
  5  6  1  0  0  0  0
  5 30  1  0  0  0  0
  5 31  1  0  0  0  0
  6  7  1  0  0  0  0
  6 20  1  0  0  0  0
  6 32  1  0  0  0  0
  7  8  1  0  0  0  0
  7 33  1  0  0  0  0
  8  9  2  0  0  0  0
  8 10  1  0  0  0  0
 10 11  1  0  0  0  0
 10 34  1  0  0  0  0
 10 35  1  0  0  0  0
 11 18  1  0  0  0  0
 11 12  1  0  0  0  0
 12 13  2  0  0  0  0
 12 36  1  0  0  0  0
 13 14  1  0  0  0  0
 13 37  1  0  0  0  0
 14 15  2  0  0  0  0
 14 16  1  0  0  0  0
 16 17  1  0  0  0  0
 16 18  1  0  0  0  0
 17 38  1  0  0  0  0
 17 39  1  0  0  0  0
 17 40  1  0  0  0  0
 18 19  2  0  0  0  0
 20 21  1  0  0  0  0
 20 41  1  0  0  0  0
 21 42  1  0  0  0  0
 21 43  1  0  0  0  0
 21 44  1  0  0  0  0
M  END
> <s_m_source_file>
AV-unprocessed.smi

> <i_m_source_file_index>
2143

> <i_lp_mmshare_version>
43012

> <i_f3d_flags>
0

> <s_epik_input>
W0NIM11bQ0BASF0xW0NIMl1bQ0gyXVtDSDJdW0NASF0oW0NASF0xW0NIM10pW05IXUMoPU8pW0NIMl1uMltjSF1bY0hdYyg9TyluKFtDSDNdKWMyPU8=

> <s_epik_cmdline>
J2VwaWtfcHl0aG9uJywgJy1waCcsICc3LjAnLCAnLXRuJywgJzgnLCAnLW1hJywgJzIwMCcsICctbWV0YWxfYmluZGluZycsICctaW1hZScsICc8aW5maWxlLm1hZT4nLCAnLW9tYWUnLCAnPG91dGZpbGUubWFlPic=

> <r_lp_tautomer_probability>
1

> <r_epik_Ionization_Penalty>
3.18445e-08

> <r_epik_Ionization_Penalty_Charging>
1.27977e-08

> <r_epik_Ionization_Penalty_Neutral>
1.90469e-08

> <r_epik_State_Penalty>
-0

> <r_epik_Charging_Adjusted_Penalty>
1.27977e-08

> <i_epik_Tot_Q>
0

> <i_epik_Tot_abs_Q>
0

> <r_epik_Metal_State_Penalty>
-0

> <b_epik_Metal_Only>
0

> <s_lp_Force_Field>
OPLS_2005

> <r_lp_Energy>
21.4204

> <b_lp_Chiralities_Consistent>
1

> <s_lp_Variant>
AV-unprocessed.smi:2143-4

> <Gold.Version>
5.8.1

> <Gold.Id.Protein>
6NUR|6NUR_protein|mol2

> <Gold.PLP.Fitness>
40.4618

> <Gold.PLP.PLP>
-38.4701

> <Gold.PLP.part.hbond>
0.0000

> <Gold.PLP.part.metal>
0.0000

> <Gold.PLP.part.buried>
-4.7165

> <Gold.PLP.part.nonpolar>
-32.4767

> <Gold.PLP.part.repulsive>
0.2735

> <Gold.PLP.ligand.clash>
0.0116

> <Gold.PLP.ligand.torsion>
0.3965

> <Gold.PLP.Chemscore.Hbond>
0.0000

> <Gold.PLP.Chemscore.CHOScore>
0.9304

> <Gold.PLP.Chemscore.Metal>
0.0000

> <Gold.Chemscore.Hbonds>
donor molecule, donor type, donor heavy atom, donor atom, acceptor molecule, acceptor atom, score
      L1  C    12    36       P1  7957  0.94

> <Gold.PLP.Chemscore.Internal.Correction>
0.0050

> <Gold.Rescore>
     Score         DG    S(hbond)    S(metal)    S(lipo)     H(rot)  DE(clash)    DE(int)     intcor
      9.74     -14.38       0.00        0.00     109.19       1.51       0.43       4.21       ----

> <Gold.Chemscore.Fitness>
9.7365

> <Gold.Chemscore.DG>
-14.3817

> <Gold.Chemscore.ZeroCoef>
-5.4800

> <Gold.Chemscore.Hbond>
0.0000

> <Gold.Chemscore.Metal>
0.0000

> <Gold.Chemscore.Lipo>
109.1896

> <Gold.Chemscore.Internal_Hbond>
0.0000

> <Gold.Chemscore.DEClash>
0.4306

> <Gold.Chemscore.DEInternal>
4.2147

> <Gold.Chemscore.Rot>
1.5131

> <Gold.Chemscore.Internal.Correction>
   9.000000E+99

> <Gold.Chemscore.Hbond.Weighted>
-0.0000

> <Gold.Chemscore.Metal.Weighted>
-0.0000

> <Gold.Chemscore.Lipo.Weighted>
-12.7752

> <Gold.Chemscore.Internal_Hbond.Weighted>
0.0000

> <Gold.Chemscore.DEClash.Weighted>
0.4306

> <Gold.Chemscore.DEInternal.Weighted>
4.2147

> <Gold.Chemscore.Rot.Weighted>
3.8734

> <Gold.Chemscore.Internal.Correction.Weighted>
   9.000000E+99

> <Gold.Protein.RotatedTorsions>
[ 6907 6896 6895 6894 ] final -152.31 input  -60.11 | X-H torsion
[ 7974 7965 7964 7962 ] final   -2.50 input  175.53 | X-H torsion
[ 8008 7997 7996 7995 ] final -134.46 input   59.86 | X-H torsion
[ 10167 10162 10161 10158 ] final   -2.04 input  -65.29 | X-H torsion
[ 10718 10713 10712 10709 ] final   70.83 input   66.30 | X-H torsion
[ 10763 10752 10751 10750 ] final  -17.00 input  -60.55 | X-H torsion
[ 11005 11000 10999 10996 ] final -131.58 input  -57.11 | X-H torsion

> <Gold.Protein.ActiveResidues>
 VAL166  LYS551  ARG553  GLY616  TRP617  ASP618  TYR619  PRO620  LYS621  CYS622 
 ASP623  PHE694  ASN695  SER759  ASP760  ASP761  ALA762  ILE779  LEU786  VAL792 
 PHE793  MET794  SER795  GLU796  ALA797  LYS798  CYS799  TRP800  GLU811  SER814 

> <Gold.Protein.RotatedAtoms>
  151.2259  133.4476  159.2601 H   0  0  0  0  0  0  0  0  0  0  0  0  # atno 6907 bound_to 6896
  151.0840  134.9876  159.8380 H   0  0  0  0  0  0  0  0  0  0  0  0  # atno 6908 bound_to 6896
  152.5427  134.2197  159.8835 H   0  0  0  0  0  0  0  0  0  0  0  0  # atno 6909 bound_to 6896
  146.2403  140.1580  142.8333 H   0  0  0  0  0  0  0  0  0  0  0  0  # atno 7974 bound_to 7965
  155.3625  140.0483  157.3046 H   0  0  0  0  0  0  0  0  0  0  0  0  # atno 8008 bound_to 7997
  154.5171  140.2212  155.9009 H   0  0  0  0  0  0  0  0  0  0  0  0  # atno 8009 bound_to 7997
  156.1648  140.3108  155.8876 H   0  0  0  0  0  0  0  0  0  0  0  0  # atno 8010 bound_to 7997
  140.6835  143.6704  150.8190 H   0  0  0  0  0  0  0  0  0  0  0  0  # atno 10167 bound_to 10162
  157.6420  130.9497  150.0705 H   0  0  0  0  0  0  0  0  0  0  0  0  # atno 10718 bound_to 10713
  153.5671  135.7008  153.5521 H   0  0  0  0  0  0  0  0  0  0  0  0  # atno 10763 bound_to 10752
  153.3377  135.4029  155.1547 H   0  0  0  0  0  0  0  0  0  0  0  0  # atno 10764 bound_to 10752
  154.8639  135.3734  154.5191 H   0  0  0  0  0  0  0  0  0  0  0  0  # atno 10765 bound_to 10752
  140.9246  134.1400  157.4286 H   0  0  0  0  0  0  0  0  0  0  0  0  # atno 11005 bound_to 11000
  145.0113  140.8716  143.5222 LP  0  0  0  0  0  0  0  0  0  0  0  0  # atno 17320 bound_to 7965
  145.1614  139.2456  143.5389 LP  0  0  0  0  0  0  0  0  0  0  0  0  # atno 17321 bound_to 7965
  140.0407  143.5348  152.2719 LP  0  0  0  0  0  0  0  0  0  0  0  0  # atno 17342 bound_to 10162
  139.6175  144.7622  151.2814 LP  0  0  0  0  0  0  0  0  0  0  0  0  # atno 17343 bound_to 10162
  156.1710  130.3646  149.9165 LP  0  0  0  0  0  0  0  0  0  0  0  0  # atno 17370 bound_to 10713
  156.7140  130.8981  151.3612 LP  0  0  0  0  0  0  0  0  0  0  0  0  # atno 17371 bound_to 10713
  139.8782  134.9983  156.5895 LP  0  0  0  0  0  0  0  0  0  0  0  0  # atno 17394 bound_to 11000
  140.7943  133.8557  155.8672 LP  0  0  0  0  0  0  0  0  0  0  0  0  # atno 17395 bound_to 11000

$$$$
