AV-unprocessed.smi:1187|AV-procd|sdf|4976|dock9
  -GOLD-   22720 3573D 1   1.00000     0.00000
 Structure written by MMmdl.
 38 39  0  0  0  0  0  0  0  0  1 V2000
  150.5113  142.1609  157.8314 C   0  0  0  0  0  0  0  0  0  0  0  0
  151.0496  141.6484  156.6174 O   0  0  0  0  0  0  0  0  0  0  0  0
  150.4625  140.5303  156.0612 C   0  0  0  0  0  0  0  0  0  0  0  0
  149.5889  139.7609  156.8551 C   0  0  0  0  0  0  0  0  0  0  0  0
  148.9882  138.6165  156.2959 C   0  0  0  0  0  0  0  0  0  0  0  0
  149.2887  138.2727  154.9562 C   0  0  0  0  0  0  0  0  0  0  0  0
  148.7389  137.1552  154.2720 N   0  0  0  0  0  0  0  0  0  0  0  0
  147.7644  136.3215  154.6743 C   0  0  0  0  0  0  0  0  0  0  0  0
  147.1603  136.3922  155.7443 O   0  0  0  0  0  0  0  0  0  0  0  0
  147.5342  135.3697  153.7578 N   0  0  0  0  0  0  0  0  0  0  0  0
  146.5395  134.3055  153.8792 C   0  0  0  0  0  0  0  0  0  0  0  0
  146.7147  133.1817  152.8410 C   0  0  0  0  0  0  0  0  0  0  0  0
  147.7529  132.5177  152.8219 O   0  0  0  0  0  0  0  0  0  0  0  0
  145.7014  132.9483  151.9814 N   0  0  0  0  0  0  0  0  0  0  0  0
  145.6909  131.9327  150.9291 C   0  0  0  0  0  0  0  0  0  0  0  0
  144.4582  132.2341  150.0762 C   0  0  0  0  0  0  0  0  0  0  0  0
  143.5168  132.9623  151.0251 C   0  0  0  0  0  0  0  0  0  0  0  0
  144.4509  133.7052  151.9808 C   0  0  0  0  0  0  0  0  0  0  0  0
  150.1633  139.1177  154.2424 C   0  0  0  0  0  0  0  0  0  0  0  0
  150.7429  140.2149  154.7727 N   0  0  0  0  0  0  0  0  0  0  0  0
  151.0819  143.0374  158.1381 H   0  0  0  0  0  0  0  0  0  0  0  0
  150.5728  141.4282  158.6372 H   0  0  0  0  0  0  0  0  0  0  0  0
  149.4724  142.4700  157.7067 H   0  0  0  0  0  0  0  0  0  0  0  0
  149.3807  140.0453  157.8760 H   0  0  0  0  0  0  0  0  0  0  0  0
  148.3046  138.0391  156.8987 H   0  0  0  0  0  0  0  0  0  0  0  0
  149.1863  136.9230  153.3974 H   0  0  0  0  0  0  0  0  0  0  0  0
  148.0760  135.3878  152.9065 H   0  0  0  0  0  0  0  0  0  0  0  0
  146.6292  133.8763  154.8773 H   0  0  0  0  0  0  0  0  0  0  0  0
  145.5371  134.7306  153.8070 H   0  0  0  0  0  0  0  0  0  0  0  0
  146.5982  131.9516  150.3238 H   0  0  0  0  0  0  0  0  0  0  0  0
  145.6049  130.9460  151.3868 H   0  0  0  0  0  0  0  0  0  0  0  0
  144.7354  132.8995  149.2573 H   0  0  0  0  0  0  0  0  0  0  0  0
  144.0135  131.3379  149.6426 H   0  0  0  0  0  0  0  0  0  0  0  0
  142.8253  133.6276  150.5073 H   0  0  0  0  0  0  0  0  0  0  0  0
  142.9264  132.2345  151.5832 H   0  0  0  0  0  0  0  0  0  0  0  0
  144.0167  133.7839  152.9789 H   0  0  0  0  0  0  0  0  0  0  0  0
  144.6481  134.7142  151.6154 H   0  0  0  0  0  0  0  0  0  0  0  0
  150.4126  138.9052  153.2128 H   0  0  0  0  0  0  0  0  0  0  0  0
  1  2  1  0  0  0  0
  1 21  1  0  0  0  0
  1 22  1  0  0  0  0
  1 23  1  0  0  0  0
  2  3  1  0  0  0  0
  3 20  1  0  0  0  0
  3  4  2  0  0  0  0
  4  5  1  0  0  0  0
  4 24  1  0  0  0  0
  5  6  2  0  0  0  0
  5 25  1  0  0  0  0
  6  7  1  0  0  0  0
  6 19  1  0  0  0  0
  7  8  1  0  0  0  0
  7 26  1  0  0  0  0
  8  9  2  0  0  0  0
  8 10  1  0  0  0  0
 10 11  1  0  0  0  0
 10 27  1  0  0  0  0
 11 12  1  0  0  0  0
 11 28  1  0  0  0  0
 11 29  1  0  0  0  0
 12 13  2  0  0  0  0
 12 14  1  0  0  0  0
 14 18  1  0  0  0  0
 14 15  1  0  0  0  0
 15 16  1  0  0  0  0
 15 30  1  0  0  0  0
 15 31  1  0  0  0  0
 16 17  1  0  0  0  0
 16 32  1  0  0  0  0
 16 33  1  0  0  0  0
 17 18  1  0  0  0  0
 17 34  1  0  0  0  0
 17 35  1  0  0  0  0
 18 36  1  0  0  0  0
 18 37  1  0  0  0  0
 19 20  2  0  0  0  0
 19 38  1  0  0  0  0
M  END
> <s_m_source_file>
AV-unprocessed.smi

> <i_m_source_file_index>
1187

> <i_lp_mmshare_version>
43012

> <i_f3d_flags>
0

> <s_epik_input>
W0NIM11PYzFbY0hdW2NIXWMoW2NIXW4xKVtOSF1DKD1PKVtOSF1bQ0gyXUMoPU8pTjJbQ0gyXVtDSDJdW0NIMl1bQ0gyXTI=

> <s_epik_cmdline>
J2VwaWtfcHl0aG9uJywgJy1waCcsICc3LjAnLCAnLXRuJywgJzgnLCAnLW1hJywgJzIwMCcsICctbWV0YWxfYmluZGluZycsICctaW1hZScsICc8aW5maWxlLm1hZT4nLCAnLW9tYWUnLCAnPG91dGZpbGUubWFlPic=

> <r_lp_tautomer_probability>
1

> <r_epik_Ionization_Penalty>
0.000141675

> <r_epik_Ionization_Penalty_Charging>
0

> <r_epik_Ionization_Penalty_Neutral>
0.000141675

> <r_epik_State_Penalty>
-0

> <r_epik_Charging_Adjusted_Penalty>
0

> <i_epik_Tot_Q>
0

> <i_epik_Tot_abs_Q>
0

> <r_epik_Metal_State_Penalty>
-0

> <b_epik_Metal_Only>
0

> <s_lp_Force_Field>
OPLS_2005

> <r_lp_Energy>
27.0256

> <b_lp_Chiralities_Consistent>
1

> <s_lp_Variant>
AV-unprocessed.smi:1187-1

> <Gold.Version>
5.8.1

> <Gold.Id.Protein>
6NUR|6NUR_protein|mol2

> <Gold.PLP.Fitness>
38.8741

> <Gold.PLP.PLP>
-27.5858

> <Gold.PLP.part.hbond>
-3.0000

> <Gold.PLP.part.metal>
0.0000

> <Gold.PLP.part.buried>
-5.0811

> <Gold.PLP.part.nonpolar>
-20.2784

> <Gold.PLP.part.repulsive>
0.3148

> <Gold.PLP.ligand.clash>
0.0000

> <Gold.PLP.ligand.torsion>
0.2863

> <Gold.PLP.Chemscore.Hbond>
2.9520

> <Gold.PLP.Chemscore.CHOScore>
1.0000

> <Gold.PLP.Chemscore.Metal>
0.0000

> <Gold.Chemscore.Hbonds>
donor molecule, donor type, donor heavy atom, donor atom, acceptor molecule, acceptor atom, score
      L1  H     7    26       P1  7948  0.93
      L1  H    10    27       P1  7948  1.00
      P1  H  7989  7998       L1    20  1.00
      L1  C    19    38       P1  7957  0.99

> <Gold.PLP.Chemscore.Internal.Correction>
0.0050

> <Gold.Rescore>
     Score         DG    S(hbond)    S(metal)    S(lipo)     H(rot)  DE(clash)    DE(int)     intcor
     15.72     -17.20       2.73        0.00      56.70       1.58       0.06       1.42       ----

> <Gold.Chemscore.Fitness>
15.7175

> <Gold.Chemscore.DG>
-17.1973

> <Gold.Chemscore.ZeroCoef>
-5.4800

> <Gold.Chemscore.Hbond>
2.7332

> <Gold.Chemscore.Metal>
0.0000

> <Gold.Chemscore.Lipo>
56.7036

> <Gold.Chemscore.Internal_Hbond>
0.0000

> <Gold.Chemscore.DEClash>
0.0637

> <Gold.Chemscore.DEInternal>
1.4161

> <Gold.Chemscore.Rot>
1.5804

> <Gold.Chemscore.Internal.Correction>
   9.000000E+99

> <Gold.Chemscore.Hbonds>
donor molecule, donor type, donor heavy atom, donor atom, acceptor molecule, acceptor atom, score
      L1  H     7    26       P1  7948  0.89
      L1  H    10    27       P1  7948  0.92
      P1  H  7989  7998       L1    20  0.45

> <Gold.Chemscore.Hbond.Weighted>
-9.1289

> <Gold.Chemscore.Metal.Weighted>
-0.0000

> <Gold.Chemscore.Lipo.Weighted>
-6.6343

> <Gold.Chemscore.Internal_Hbond.Weighted>
0.0000

> <Gold.Chemscore.DEClash.Weighted>
0.0637

> <Gold.Chemscore.DEInternal.Weighted>
1.4161

> <Gold.Chemscore.Rot.Weighted>
4.0459

> <Gold.Chemscore.Internal.Correction.Weighted>
   9.000000E+99

> <Gold.Protein.RotatedTorsions>
[ 6907 6896 6895 6894 ] final   91.93 input  -60.11 | X-H torsion
[ 7974 7965 7964 7962 ] final    4.67 input  175.53 | X-H torsion
[ 8008 7997 7996 7995 ] final  133.53 input   59.86 | X-H torsion
[ 10167 10162 10161 10158 ] final -102.39 input  -65.29 | X-H torsion
[ 10718 10713 10712 10709 ] final  174.09 input   66.30 | X-H torsion
[ 10763 10752 10751 10750 ] final -142.50 input  -60.55 | X-H torsion
[ 11005 11000 10999 10996 ] final -133.09 input  -57.11 | X-H torsion

> <Gold.Protein.ActiveResidues>
 VAL166  LYS551  ARG553  GLY616  TRP617  ASP618  TYR619  PRO620  LYS621  CYS622 
 ASP623  PHE694  ASN695  SER759  ASP760  ASP761  ALA762  ILE779  LEU786  VAL792 
 PHE793  MET794  SER795  GLU796  ALA797  LYS798  CYS799  TRP800  GLU811  SER814 

> <Gold.Protein.RotatedAtoms>
  152.5451  134.1581  159.8546 H   0  0  0  0  0  0  0  0  0  0  0  0  # atno 6907 bound_to 6896
  151.1602  133.4843  159.2602 H   0  0  0  0  0  0  0  0  0  0  0  0  # atno 6908 bound_to 6896
  151.1381  135.0176  159.8668 H   0  0  0  0  0  0  0  0  0  0  0  0  # atno 6909 bound_to 6896
  146.2443  140.0499  142.8376 H   0  0  0  0  0  0  0  0  0  0  0  0  # atno 7974 bound_to 7965
  156.2993  140.2519  156.3268 H   0  0  0  0  0  0  0  0  0  0  0  0  # atno 8008 bound_to 7997
  154.9183  140.0401  157.2003 H   0  0  0  0  0  0  0  0  0  0  0  0  # atno 8009 bound_to 7997
  154.8337  140.2879  155.5709 H   0  0  0  0  0  0  0  0  0  0  0  0  # atno 8010 bound_to 7997
  140.2312  143.3605  152.0885 H   0  0  0  0  0  0  0  0  0  0  0  0  # atno 10167 bound_to 10162
  156.9547  131.0042  151.2941 H   0  0  0  0  0  0  0  0  0  0  0  0  # atno 10718 bound_to 10713
  154.8506  135.3494  154.6038 H   0  0  0  0  0  0  0  0  0  0  0  0  # atno 10763 bound_to 10752
  153.6647  135.6988  153.5171 H   0  0  0  0  0  0  0  0  0  0  0  0  # atno 10764 bound_to 10752
  153.2790  135.4269  155.1018 H   0  0  0  0  0  0  0  0  0  0  0  0  # atno 10765 bound_to 10752
  140.9112  134.1566  157.4388 H   0  0  0  0  0  0  0  0  0  0  0  0  # atno 11005 bound_to 11000
  145.0994  140.9336  143.4722 LP  0  0  0  0  0  0  0  0  0  0  0  0  # atno 17320 bound_to 7965
  145.0688  139.3047  143.5842 LP  0  0  0  0  0  0  0  0  0  0  0  0  # atno 17321 bound_to 7965
  139.5109  144.6892  151.5805 LP  0  0  0  0  0  0  0  0  0  0  0  0  # atno 17342 bound_to 10162
  140.6184  143.9305  150.6506 LP  0  0  0  0  0  0  0  0  0  0  0  0  # atno 17343 bound_to 10162
  157.5698  130.8302  149.8376 LP  0  0  0  0  0  0  0  0  0  0  0  0  # atno 17370 bound_to 10713
  156.0347  130.3754  150.1591 LP  0  0  0  0  0  0  0  0  0  0  0  0  # atno 17371 bound_to 10713
  139.8758  134.9936  156.5653 LP  0  0  0  0  0  0  0  0  0  0  0  0  # atno 17394 bound_to 11000
  140.8108  133.8430  155.8808 LP  0  0  0  0  0  0  0  0  0  0  0  0  # atno 17395 bound_to 11000

$$$$
