AV-unprocessed.smi:3252|AV-procd|sdf|12440|dock8
  -GOLD-   2272018333D 1   1.00000     0.00000
 Structure written by MMmdl.
 37 38  0  0  0  0  0  0  0  0  2 V2000
  145.5802  136.0158  150.8606 C   0  0  0  0  0  0  0  0  0  0  0  0
  144.6097  134.8652  150.5605 C   0  0  0  0  0  0  0  0  0  0  0  0
  145.2778  133.7224  149.8830 N   0  3  2  0  0  0  0  0  0  0  0  0
  144.3355  132.6728  149.4252 C   0  0  0  0  0  0  0  0  0  0  0  0
  143.8901  131.7795  150.5957 C   0  0  0  0  0  0  0  0  0  0  0  0
  145.0383  131.2144  151.2139 O   0  0  0  0  0  0  0  0  0  0  0  0
  145.8997  132.1972  151.7799 C   0  0  1  0  0  0  0  0  0  0  0  0
  147.0709  131.4895  152.4842 C   0  0  0  0  0  0  0  0  0  0  0  0
  148.3037  132.2677  152.4402 N   0  0  0  0  0  0  0  0  0  0  0  0
  149.1547  132.3687  153.5509 C   0  0  0  0  0  0  0  0  0  0  0  0
  149.5221  133.6540  154.0020 C   0  0  0  0  0  0  0  0  0  0  0  0
  150.3767  133.7657  155.1165 C   0  0  0  0  0  0  0  0  0  0  0  0
  150.8340  132.5884  155.7407 C   0  0  0  0  0  0  0  0  0  0  0  0
  151.7150  132.6501  156.8942 C   0  0  0  0  0  0  0  0  0  0  0  0
  152.4164  132.6990  157.8129 N   0  0  0  0  0  0  0  0  0  0  0  0
  150.4154  131.3487  155.2172 C   0  0  0  0  0  0  0  0  0  0  0  0
  149.5975  131.2366  154.1483 N   0  0  0  0  0  0  0  0  0  0  0  0
  146.4017  133.1154  150.6428 C   0  0  0  0  0  0  0  0  0  0  0  0
  145.0427  136.8740  151.2649 H   0  0  0  0  0  0  0  0  0  0  0  0
  146.0927  136.3450  149.9561 H   0  0  0  0  0  0  0  0  0  0  0  0
  146.3358  135.7348  151.5935 H   0  0  0  0  0  0  0  0  0  0  0  0
  144.1087  134.5418  151.4725 H   0  0  0  0  0  0  0  0  0  0  0  0
  143.8290  135.2568  149.9072 H   0  0  0  0  0  0  0  0  0  0  0  0
  143.4746  133.1157  148.9235 H   0  0  0  0  0  0  0  0  0  0  0  0
  144.8420  132.0597  148.6787 H   0  0  0  0  0  0  0  0  0  0  0  0
  143.3019  132.3389  151.3244 H   0  0  0  0  0  0  0  0  0  0  0  0
  143.2558  130.9720  150.2296 H   0  0  0  0  0  0  0  0  0  0  0  0
  145.3516  132.7845  152.5184 H   0  0  0  0  0  0  0  0  0  0  0  0
  146.8072  131.2212  153.5076 H   0  0  0  0  0  0  0  0  0  0  0  0
  147.2778  130.5492  151.9727 H   0  0  0  0  0  0  0  0  0  0  0  0
  148.4723  132.8561  151.6369 H   0  0  0  0  0  0  0  0  0  0  0  0
  149.1574  134.5421  153.5067 H   0  0  0  0  0  0  0  0  0  0  0  0
  150.6715  134.7393  155.4811 H   0  0  0  0  0  0  0  0  0  0  0  0
  150.7410  130.4197  155.6630 H   0  0  0  0  0  0  0  0  0  0  0  0
  146.9983  132.5270  149.9439 H   0  0  0  0  0  0  0  0  0  0  0  0
  147.0685  133.8831  151.0332 H   0  0  0  0  0  0  0  0  0  0  0  0
  145.6782  134.1153  149.0430 H   0  0  0  0  0  0  0  0  0  0  0  0
  1  2  1  0  0  0  0
  1 19  1  0  0  0  0
  1 20  1  0  0  0  0
  1 21  1  0  0  0  0
  2  3  1  0  0  0  0
  2 22  1  0  0  0  0
  2 23  1  0  0  0  0
  3 18  1  0  0  0  0
  3  4  1  0  0  0  0
  3 37  1  0  0  0  0
  4  5  1  0  0  0  0
  4 24  1  0  0  0  0
  4 25  1  0  0  0  0
  5  6  1  0  0  0  0
  5 26  1  0  0  0  0
  5 27  1  0  0  0  0
  6  7  1  0  0  0  0
  7  8  1  0  0  0  0
  7 18  1  0  0  0  0
  7 28  1  0  0  0  0
  8  9  1  0  0  0  0
  8 29  1  0  0  0  0
  8 30  1  0  0  0  0
  9 10  1  0  0  0  0
  9 31  1  0  0  0  0
 10 17  1  0  0  0  0
 10 11  2  0  0  0  0
 11 12  1  0  0  0  0
 11 32  1  0  0  0  0
 12 13  2  0  0  0  0
 12 33  1  0  0  0  0
 13 14  1  0  0  0  0
 13 16  1  0  0  0  0
 14 15  3  0  0  0  0
 16 17  2  0  0  0  0
 16 34  1  0  0  0  0
 18 35  1  0  0  0  0
 18 36  1  0  0  0  0
M  CHG  1   3   1
M  END
> <s_m_source_file>
AV-unprocessed.smi

> <i_m_source_file_index>
3252

> <i_lp_mmshare_version>
43012

> <i_f3d_flags>
0

> <s_epik_input>
W0NIM11bQ0gyXU4xW0NIMl1bQ0gyXU9bQ0BIXShbQ0gyXTEpW0NIMl1bTkhdYzJbY0hdW2NIXWMoQyNOKVtjSF1uMg==

> <s_epik_cmdline>
J2VwaWtfcHl0aG9uJywgJy1waCcsICc3LjAnLCAnLXRuJywgJzgnLCAnLW1hJywgJzIwMCcsICctbWV0YWxfYmluZGluZycsICctaW1hZScsICc8aW5maWxlLm1hZT4nLCAnLW9tYWUnLCAnPG91dGZpbGUubWFlPic=

> <r_epik_Ionization_Penalty>
0.178512

> <r_epik_Ionization_Penalty_Charging>
0.178504

> <r_epik_Ionization_Penalty_Neutral>
8.15545e-06

> <r_epik_State_Penalty>
0.167974

> <r_epik_Charging_Adjusted_Penalty>
0.346478

> <i_epik_Tot_Q>
1

> <i_epik_Tot_abs_Q>
1

> <r_epik_Metal_State_Penalty>
0.167974

> <b_epik_Metal_Only>
0

> <s_lp_Force_Field>
OPLS_2005

> <r_lp_Energy>
19.5584

> <b_lp_Chiralities_Consistent>
1

> <s_lp_Variant>
AV-unprocessed.smi:3252-2

> <Gold.Version>
5.8.1

> <Gold.Id.Protein>
6NUR|6NUR_protein|mol2

> <Gold.PLP.Fitness>
41.4159

> <Gold.PLP.PLP>
-37.4549

> <Gold.PLP.part.hbond>
-3.0000

> <Gold.PLP.part.metal>
0.0000

> <Gold.PLP.part.buried>
-4.5139

> <Gold.PLP.part.nonpolar>
-29.8667

> <Gold.PLP.part.repulsive>
0.3233

> <Gold.PLP.ligand.clash>
0.0000

> <Gold.PLP.ligand.torsion>
1.0294

> <Gold.PLP.Chemscore.Hbond>
2.0000

> <Gold.PLP.Chemscore.CHOScore>
0.0000

> <Gold.PLP.Chemscore.Metal>
0.0000

> <Gold.Chemscore.Hbonds>
donor molecule, donor type, donor heavy atom, donor atom, acceptor molecule, acceptor atom, score
      L1  H     3    37       P1  7921  1.00
      P1  H  6896  6909       L1    15  0.93

> <Gold.PLP.Chemscore.Internal.Correction>
0.0198

> <Gold.Rescore>
     Score         DG    S(hbond)    S(metal)    S(lipo)     H(rot)  DE(clash)    DE(int)     intcor
     15.51     -16.78       1.85        0.00      75.96       1.47       0.01       1.27       ----

> <Gold.Chemscore.Fitness>
15.5084

> <Gold.Chemscore.DG>
-16.7848

> <Gold.Chemscore.ZeroCoef>
-5.4800

> <Gold.Chemscore.Hbond>
1.8490

> <Gold.Chemscore.Metal>
0.0000

> <Gold.Chemscore.Lipo>
75.9627

> <Gold.Chemscore.Internal_Hbond>
0.0000

> <Gold.Chemscore.DEClash>
0.0060

> <Gold.Chemscore.DEInternal>
1.2705

> <Gold.Chemscore.Rot>
1.4681

> <Gold.Chemscore.Internal.Correction>
   9.000000E+99

> <Gold.Chemscore.Hbonds>
donor molecule, donor type, donor heavy atom, donor atom, acceptor molecule, acceptor atom, score
      L1  H     3    37       P1  7921  0.60
      P1  H  6896  6909       L1    15  0.90

> <Gold.Chemscore.Hbond.Weighted>
-6.1756

> <Gold.Chemscore.Metal.Weighted>
-0.0000

> <Gold.Chemscore.Lipo.Weighted>
-8.8876

> <Gold.Chemscore.Internal_Hbond.Weighted>
0.0000

> <Gold.Chemscore.DEClash.Weighted>
0.0060

> <Gold.Chemscore.DEInternal.Weighted>
1.2705

> <Gold.Chemscore.Rot.Weighted>
3.7584

> <Gold.Chemscore.Internal.Correction.Weighted>
   9.000000E+99

> <Gold.Protein.RotatedTorsions>
[ 6907 6896 6895 6894 ] final  -86.16 input  -60.11 | X-H torsion
[ 7974 7965 7964 7962 ] final   12.46 input  175.53 | X-H torsion
[ 8008 7997 7996 7995 ] final   68.81 input   59.86 | X-H torsion
[ 10167 10162 10161 10158 ] final  -19.63 input  -65.29 | X-H torsion
[ 10718 10713 10712 10709 ] final  -39.33 input   66.30 | X-H torsion
[ 10763 10752 10751 10750 ] final -163.92 input  -60.55 | X-H torsion
[ 11005 11000 10999 10996 ] final  114.24 input  -57.11 | X-H torsion

> <Gold.Protein.ActiveResidues>
 VAL166  LYS551  ARG553  GLY616  TRP617  ASP618  TYR619  PRO620  LYS621  CYS622 
 ASP623  PHE694  ASN695  SER759  ASP760  ASP761  ALA762  ILE779  LEU786  VAL792 
 PHE793  MET794  SER795  GLU796  ALA797  LYS798  CYS799  TRP800  GLU811  SER814 

> <Gold.Protein.RotatedAtoms>
  150.6867  134.3094  159.4739 H   0  0  0  0  0  0  0  0  0  0  0  0  # atno 6907 bound_to 6896
  152.0981  134.9358  160.0579 H   0  0  0  0  0  0  0  0  0  0  0  0  # atno 6908 bound_to 6896
  152.0648  133.4044  159.4470 H   0  0  0  0  0  0  0  0  0  0  0  0  # atno 6909 bound_to 6896
  146.2351  139.9333  142.8493 H   0  0  0  0  0  0  0  0  0  0  0  0  # atno 7974 bound_to 7965
  155.7140  140.3494  155.4986 H   0  0  0  0  0  0  0  0  0  0  0  0  # atno 8008 bound_to 7997
  155.9330  140.1087  157.1139 H   0  0  0  0  0  0  0  0  0  0  0  0  # atno 8009 bound_to 7997
  154.4088  140.1227  156.4813 H   0  0  0  0  0  0  0  0  0  0  0  0  # atno 8010 bound_to 7997
  140.7270  143.4800  151.0131 H   0  0  0  0  0  0  0  0  0  0  0  0  # atno 10167 bound_to 10162
  156.2937  130.4231  149.8212 H   0  0  0  0  0  0  0  0  0  0  0  0  # atno 10718 bound_to 10713
  154.7077  135.3000  154.9244 H   0  0  0  0  0  0  0  0  0  0  0  0  # atno 10763 bound_to 10752
  154.0156  135.6689  153.4772 H   0  0  0  0  0  0  0  0  0  0  0  0  # atno 10764 bound_to 10752
  153.0730  135.5050  154.8258 H   0  0  0  0  0  0  0  0  0  0  0  0  # atno 10765 bound_to 10752
  139.8975  134.9564  156.6862 H   0  0  0  0  0  0  0  0  0  0  0  0  # atno 11005 bound_to 11000
  145.2023  140.9860  143.4149 LP  0  0  0  0  0  0  0  0  0  0  0  0  # atno 17320 bound_to 7965
  144.9763  139.3828  143.6284 LP  0  0  0  0  0  0  0  0  0  0  0  0  # atno 17321 bound_to 7965
  139.8498  143.7454  152.3178 LP  0  0  0  0  0  0  0  0  0  0  0  0  # atno 17342 bound_to 10162
  139.7632  144.7500  151.0333 LP  0  0  0  0  0  0  0  0  0  0  0  0  # atno 17343 bound_to 10162
  156.5616  130.8386  151.3330 LP  0  0  0  0  0  0  0  0  0  0  0  0  # atno 17370 bound_to 10713
  157.7349  130.9754  150.2055 LP  0  0  0  0  0  0  0  0  0  0  0  0  # atno 17371 bound_to 10713
  140.7260  133.9099  155.8179 LP  0  0  0  0  0  0  0  0  0  0  0  0  # atno 17394 bound_to 11000
  141.0190  134.0915  157.4141 LP  0  0  0  0  0  0  0  0  0  0  0  0  # atno 17395 bound_to 11000

$$$$
