AV-unprocessed.smi:1645|AV-procd|sdf|6623|dock8
  -GOLD-   22720 7323D 1   1.00000     0.00000
 Structure written by MMmdl.
 55 58  0  0  0  0  0  0  0  0  4 V2000
  149.9437  135.4577  158.4749 O   0  0  0  0  0  0  0  0  0  0  0  0
  149.5642  135.5727  157.3038 C   0  0  0  0  0  0  0  0  0  0  0  0
  149.7774  136.7174  156.6309 N   0  0  0  0  0  0  0  0  0  0  0  0
  150.3325  137.9375  157.1006 C   0  0  0  0  0  0  0  0  0  0  0  0
  151.0568  138.0587  158.3103 C   0  0  0  0  0  0  0  0  0  0  0  0
  151.5440  139.3211  158.7061 C   0  0  0  0  0  0  0  0  0  0  0  0
  151.2998  140.4608  157.8986 C   0  0  0  0  0  0  0  0  0  0  0  0
  151.7411  141.7648  158.2206 N   0  0  0  0  0  0  0  0  0  0  0  0
  152.2699  141.9560  159.5752 C   0  0  0  0  0  0  0  0  0  0  0  0
  153.0950  143.2501  159.6813 C   0  0  0  0  0  0  0  0  0  0  0  0
  152.2958  144.4595  159.1773 C   0  0  0  0  0  0  0  0  0  0  0  0
  151.8102  144.2008  157.7449 C   0  0  0  0  0  0  0  0  0  0  0  0
  151.0001  142.8960  157.6588 C   0  0  0  0  0  0  0  0  0  0  0  0
  150.5865  140.2909  156.7585 N   0  3  0  0  0  0  0  0  0  0  0  0
  150.1004  139.1017  156.3428 C   0  0  0  0  0  0  0  0  0  0  0  0
  148.9363  134.6380  156.5408 N   0  5  0  0  0  0  0  0  0  0  0  0
  148.9719  134.5955  155.0773 C   0  0  1  0  0  0  0  0  0  0  0  0
  149.6500  133.3137  154.5547 C   0  0  0  0  0  0  0  0  0  0  0  0
  148.8763  132.9266  153.2796 C   0  0  0  0  0  0  0  0  0  0  0  0
  147.8136  133.9406  153.1382 N   0  3  1  0  0  0  0  0  0  0  0  0
  146.5746  133.5306  152.4412 C   0  0  0  0  0  0  0  0  0  0  0  0
  145.6442  134.7520  152.2968 C   0  0  0  0  0  0  0  0  0  0  0  0
  145.3915  135.4455  153.6518 C   0  0  0  0  0  0  0  0  0  0  0  0
  146.7171  135.7716  154.3684 C   0  0  0  0  0  0  0  0  0  0  0  0
  147.5628  134.4862  154.4822 C   0  0  2  0  0  0  0  0  0  0  0  0
  149.5489  136.6913  155.6480 H   0  0  0  0  0  0  0  0  0  0  0  0
  151.2354  137.2079  158.9499 H   0  0  0  0  0  0  0  0  0  0  0  0
  152.1025  139.3849  159.6273 H   0  0  0  0  0  0  0  0  0  0  0  0
  151.4323  141.9920  160.2726 H   0  0  0  0  0  0  0  0  0  0  0  0
  152.8991  141.1219  159.8844 H   0  0  0  0  0  0  0  0  0  0  0  0
  153.4043  143.4102  160.7146 H   0  0  0  0  0  0  0  0  0  0  0  0
  154.0106  143.1486  159.0970 H   0  0  0  0  0  0  0  0  0  0  0  0
  151.4416  144.6388  159.8313 H   0  0  0  0  0  0  0  0  0  0  0  0
  152.9116  145.3589  159.2109 H   0  0  0  0  0  0  0  0  0  0  0  0
  151.2049  145.0385  157.3977 H   0  0  0  0  0  0  0  0  0  0  0  0
  152.6693  144.1410  157.0752 H   0  0  0  0  0  0  0  0  0  0  0  0
  150.7636  142.7109  156.6106 H   0  0  0  0  0  0  0  0  0  0  0  0
  150.0556  143.0042  158.1936 H   0  0  0  0  0  0  0  0  0  0  0  0
  149.5459  139.1182  155.4157 H   0  0  0  0  0  0  0  0  0  0  0  0
  149.4679  135.4636  154.6396 H   0  0  0  0  0  0  0  0  0  0  0  0
  150.7093  133.4790  154.3557 H   0  0  0  0  0  0  0  0  0  0  0  0
  149.5782  132.5006  155.2792 H   0  0  0  0  0  0  0  0  0  0  0  0
  149.5130  132.9191  152.3941 H   0  0  0  0  0  0  0  0  0  0  0  0
  148.4422  131.9311  153.3908 H   0  0  0  0  0  0  0  0  0  0  0  0
  146.8228  133.1280  151.4586 H   0  0  0  0  0  0  0  0  0  0  0  0
  146.0797  132.7359  153.0015 H   0  0  0  0  0  0  0  0  0  0  0  0
  146.0948  135.4673  151.6073 H   0  0  0  0  0  0  0  0  0  0  0  0
  144.6972  134.4493  151.8491 H   0  0  0  0  0  0  0  0  0  0  0  0
  144.8101  136.3562  153.5053 H   0  0  0  0  0  0  0  0  0  0  0  0
  144.7890  134.7933  154.2851 H   0  0  0  0  0  0  0  0  0  0  0  0
  147.2505  136.5429  153.8094 H   0  0  0  0  0  0  0  0  0  0  0  0
  146.5075  136.1873  155.3557 H   0  0  0  0  0  0  0  0  0  0  0  0
  146.9987  133.7403  155.0479 H   0  0  0  0  0  0  0  0  0  0  0  0
  148.2202  134.6976  152.6074 H   0  0  0  0  0  0  0  0  0  0  0  0
  150.4010  141.1106  156.1807 H   0  0  0  0  0  0  0  0  0  0  0  0
  1  2  2  0  0  0  0
  2  3  1  0  0  0  0
  2 16  1  0  0  0  0
  3  4  1  0  0  0  0
  3 26  1  0  0  0  0
  4 15  1  0  0  0  0
  4  5  2  0  0  0  0
  5  6  1  0  0  0  0
  5 27  1  0  0  0  0
  6  7  2  0  0  0  0
  6 28  1  0  0  0  0
  7  8  1  0  0  0  0
  7 14  1  0  0  0  0
  8 13  1  0  0  0  0
  8  9  1  0  0  0  0
  9 10  1  0  0  0  0
  9 29  1  0  0  0  0
  9 30  1  0  0  0  0
 10 11  1  0  0  0  0
 10 31  1  0  0  0  0
 10 32  1  0  0  0  0
 11 12  1  0  0  0  0
 11 33  1  0  0  0  0
 11 34  1  0  0  0  0
 12 13  1  0  0  0  0
 12 35  1  0  0  0  0
 12 36  1  0  0  0  0
 13 37  1  0  0  0  0
 13 38  1  0  0  0  0
 14 15  2  0  0  0  0
 14 55  1  0  0  0  0
 15 39  1  0  0  0  0
 16 17  1  0  0  0  0
 17 25  1  0  0  0  0
 17 18  1  0  0  0  0
 17 40  1  0  0  0  0
 18 19  1  0  0  0  0
 18 41  1  0  0  0  0
 18 42  1  0  0  0  0
 19 20  1  0  0  0  0
 19 43  1  0  0  0  0
 19 44  1  0  0  0  0
 20 25  1  0  0  0  0
 20 21  1  0  0  0  0
 20 54  1  0  0  0  0
 21 22  1  0  0  0  0
 21 45  1  0  0  0  0
 21 46  1  0  0  0  0
 22 23  1  0  0  0  0
 22 47  1  0  0  0  0
 22 48  1  0  0  0  0
 23 24  1  0  0  0  0
 23 49  1  0  0  0  0
 23 50  1  0  0  0  0
 24 25  1  0  0  0  0
 24 51  1  0  0  0  0
 24 52  1  0  0  0  0
 25 53  1  0  0  0  0
M  CHG  1  14   1
M  CHG  1  16  -1
M  CHG  1  20   1
M  END
> <s_m_source_file>
AV-unprocessed.smi

> <i_m_source_file_index>
1645

> <i_lp_mmshare_version>
43012

> <i_f3d_flags>
0

> <s_epik_input>
W0NIMl0xW0NIMl1bQ0gyXVtDSDJdW0NASF0oTjEyKVtDQEBIXShbQ0gyXVtDSDJdMilbTkhdQyg9TylbTkhdYzNbY0hdW2NIXWMobltjSF0zKU40W0NIMl1bQ0gyXVtDSDJdW0NIMl1bQ0gyXTQ=

> <s_epik_cmdline>
J2VwaWtfcHl0aG9uJywgJy1waCcsICc3LjAnLCAnLXRuJywgJzgnLCAnLW1hJywgJzIwMCcsICctbWV0YWxfYmluZGluZycsICctaW1hZScsICc8aW5maWxlLm1hZT4nLCAnLW9tYWUnLCAnPG91dGZpbGUubWFlPic=

> <r_lp_tautomer_probability>
0.999994

> <r_epik_Ionization_Penalty>
8.55589

> <r_epik_Ionization_Penalty_Charging>
8.55589

> <r_epik_Ionization_Penalty_Neutral>
3.8092e-06

> <r_epik_State_Penalty>
8.15703

> <r_epik_Charging_Adjusted_Penalty>
16.7129

> <i_epik_Tot_Q>
1

> <i_epik_Tot_abs_Q>
3

> <r_epik_Metal_State_Penalty>
4.13781

> <b_epik_Metal_Only>
1

> <s_lp_Force_Field>
OPLS_2005

> <r_lp_Energy>
51.9528

> <b_lp_Chiralities_Consistent>
1

> <s_lp_Variant>
AV-unprocessed.smi:1645-24

> <Gold.Version>
5.8.1

> <Gold.Id.Protein>
6NUR|6NUR_protein|mol2

> <Gold.PLP.Fitness>
49.1997

> <Gold.PLP.PLP>
-40.6862

> <Gold.PLP.part.hbond>
-2.0000

> <Gold.PLP.part.metal>
0.0000

> <Gold.PLP.part.buried>
-4.8800

> <Gold.PLP.part.nonpolar>
-34.5988

> <Gold.PLP.part.repulsive>
0.0772

> <Gold.PLP.ligand.clash>
0.0000

> <Gold.PLP.ligand.torsion>
0.3963

> <Gold.PLP.Chemscore.Hbond>
3.0000

> <Gold.PLP.Chemscore.CHOScore>
0.0000

> <Gold.PLP.Chemscore.Metal>
0.0000

> <Gold.Chemscore.Hbonds>
donor molecule, donor type, donor heavy atom, donor atom, acceptor molecule, acceptor atom, score
      L1  H    20    54       P1  7948  2.00
      P1  H  6896  6907       L1     1  1.00

> <Gold.PLP.Chemscore.Internal.Correction>
0.3062

> <Gold.Rescore>
     Score         DG    S(hbond)    S(metal)    S(lipo)     H(rot)  DE(clash)    DE(int)     intcor
     19.57     -21.22       1.94        0.00     101.04       1.00       0.00       1.65       ----

> <Gold.Chemscore.Fitness>
19.5704

> <Gold.Chemscore.DG>
-21.2225

> <Gold.Chemscore.ZeroCoef>
-5.4800

> <Gold.Chemscore.Hbond>
1.9403

> <Gold.Chemscore.Metal>
0.0000

> <Gold.Chemscore.Lipo>
101.0434

> <Gold.Chemscore.Internal_Hbond>
0.0000

> <Gold.Chemscore.DEClash>
0.0008

> <Gold.Chemscore.DEInternal>
1.6513

> <Gold.Chemscore.Rot>
1.0000

> <Gold.Chemscore.Internal.Correction>
   9.000000E+99

> <Gold.Chemscore.Hbonds>
donor molecule, donor type, donor heavy atom, donor atom, acceptor molecule, acceptor atom, score
      L1  H    20    54       P1  7948  0.45
      P1  H  6896  6907       L1     1  0.93

> <Gold.Chemscore.Hbond.Weighted>
-6.4805

> <Gold.Chemscore.Metal.Weighted>
-0.0000

> <Gold.Chemscore.Lipo.Weighted>
-11.8221

> <Gold.Chemscore.Internal_Hbond.Weighted>
0.0000

> <Gold.Chemscore.DEClash.Weighted>
0.0008

> <Gold.Chemscore.DEInternal.Weighted>
1.6513

> <Gold.Chemscore.Rot.Weighted>
2.5600

> <Gold.Chemscore.Internal.Correction.Weighted>
   9.000000E+99

> <Gold.Protein.RotatedTorsions>
[ 6907 6896 6895 6894 ] final  -57.45 input  -60.11 | X-H torsion
[ 7974 7965 7964 7962 ] final -122.17 input  175.53 | X-H torsion
[ 8008 7997 7996 7995 ] final   67.34 input   59.86 | X-H torsion
[ 10167 10162 10161 10158 ] final -118.91 input  -65.29 | X-H torsion
[ 10718 10713 10712 10709 ] final   69.22 input   66.30 | X-H torsion
[ 10763 10752 10751 10750 ] final  -44.68 input  -60.55 | X-H torsion
[ 11005 11000 10999 10996 ] final  -33.27 input  -57.11 | X-H torsion

> <Gold.Protein.ActiveResidues>
 VAL166  LYS551  ARG553  GLY616  TRP617  ASP618  TYR619  PRO620  LYS621  CYS622 
 ASP623  PHE694  ASN695  SER759  ASP760  ASP761  ALA762  ILE779  LEU786  VAL792 
 PHE793  MET794  SER795  GLU796  ALA797  LYS798  CYS799  TRP800  GLU811  SER814 

> <Gold.Protein.RotatedAtoms>
  150.8085  134.7226  159.6666 H   0  0  0  0  0  0  0  0  0  0  0  0  # atno 6907 bound_to 6896
  152.4205  134.5960  159.9997 H   0  0  0  0  0  0  0  0  0  0  0  0  # atno 6908 bound_to 6896
  151.6177  133.3304  159.3117 H   0  0  0  0  0  0  0  0  0  0  0  0  # atno 6909 bound_to 6896
  145.0324  140.8078  143.4316 H   0  0  0  0  0  0  0  0  0  0  0  0  # atno 7974 bound_to 7965
  155.6914  140.3496  155.4895 H   0  0  0  0  0  0  0  0  0  0  0  0  # atno 8008 bound_to 7997
  155.9521  140.1121  157.0990 H   0  0  0  0  0  0  0  0  0  0  0  0  # atno 8009 bound_to 7997
  154.4124  140.1192  156.5052 H   0  0  0  0  0  0  0  0  0  0  0  0  # atno 8010 bound_to 7997
  140.0524  143.5047  152.2075 H   0  0  0  0  0  0  0  0  0  0  0  0  # atno 10167 bound_to 10162
  157.6333  130.9414  150.0484 H   0  0  0  0  0  0  0  0  0  0  0  0  # atno 10718 bound_to 10713
  154.0160  135.6675  153.4769 H   0  0  0  0  0  0  0  0  0  0  0  0  # atno 10763 bound_to 10752
  153.0600  135.5033  154.8067 H   0  0  0  0  0  0  0  0  0  0  0  0  # atno 10764 bound_to 10752
  154.6966  135.3071  154.9366 H   0  0  0  0  0  0  0  0  0  0  0  0  # atno 10765 bound_to 10752
  140.9621  133.7158  156.1386 H   0  0  0  0  0  0  0  0  0  0  0  0  # atno 11005 bound_to 11000
  145.1754  139.2381  143.5320 LP  0  0  0  0  0  0  0  0  0  0  0  0  # atno 17320 bound_to 7965
  146.3500  140.1514  142.8592 LP  0  0  0  0  0  0  0  0  0  0  0  0  # atno 17321 bound_to 7965
  139.5945  144.7562  151.3320 LP  0  0  0  0  0  0  0  0  0  0  0  0  # atno 17342 bound_to 10162
  140.7210  143.7134  150.7751 LP  0  0  0  0  0  0  0  0  0  0  0  0  # atno 17343 bound_to 10162
  156.1553  130.3643  149.9377 LP  0  0  0  0  0  0  0  0  0  0  0  0  # atno 17370 bound_to 10713
  156.7388  130.9071  151.3631 LP  0  0  0  0  0  0  0  0  0  0  0  0  # atno 17371 bound_to 10713
  140.7452  134.4106  157.5549 LP  0  0  0  0  0  0  0  0  0  0  0  0  # atno 17394 bound_to 11000
  139.8882  134.8863  156.2489 LP  0  0  0  0  0  0  0  0  0  0  0  0  # atno 17395 bound_to 11000

$$$$
