AV-unprocessed.smi:99|AV-procd|sdf|873|dock7
  -GOLD-   2262017333D 1   1.00000     0.00000
 Structure written by MMmdl.
 53 56  0  0  0  0  0  0  0  0  1 V2000
  148.9349  135.1110  159.0278 O   0  0  0  0  0  0  0  0  0  0  0  0
  147.7922  134.6536  158.9612 C   0  0  0  0  0  0  0  0  0  0  0  0
  147.2424  134.1812  157.8269 O   0  0  0  0  0  0  0  0  0  0  0  0
  148.0602  133.5968  156.8262 C   0  0  0  0  0  0  0  0  0  0  0  0
  149.0614  134.6453  156.3208 C   0  0  2  0  0  0  0  0  0  0  0  0
  148.6116  135.9604  156.6211 O   0  0  0  0  0  0  0  0  0  0  0  0
  149.2136  136.8786  155.7561 C   0  0  1  0  0  0  0  0  0  0  0  0
  150.2788  137.6678  156.4965 N   0  0  0  0  0  0  0  0  0  0  0  0
  150.6477  137.3860  157.8066 C   0  0  0  0  0  0  0  0  0  0  0  0
  151.6023  138.0798  158.4709 C   0  0  0  0  0  0  0  0  0  0  0  0
  152.3022  139.1845  157.8238 C   0  0  0  0  0  0  0  0  0  0  0  0
  153.1814  139.8682  158.3437 O   0  0  0  0  0  0  0  0  0  0  0  0
  151.8974  139.4371  156.5105 N   0  0  0  0  0  0  0  0  0  0  0  0
  150.9158  138.7293  155.8157 C   0  0  0  0  0  0  0  0  0  0  0  0
  150.6411  139.0334  154.6554 O   0  0  0  0  0  0  0  0  0  0  0  0
  149.7694  136.0857  154.5457 C   0  0  1  0  0  0  0  0  0  0  0  0
  151.1815  136.0780  154.4312 O   0  0  0  0  0  0  0  0  0  0  0  0
  149.2790  134.6677  154.8063 C   0  0  2  0  0  0  0  0  0  0  0  0
  148.0549  134.4227  154.1217 O   0  0  0  0  0  0  0  0  0  0  0  0
  147.8018  133.2215  153.5619 C   0  0  0  0  0  0  0  0  0  0  0  0
  148.4170  132.1918  153.8451 O   0  0  0  0  0  0  0  0  0  0  0  0
  146.6981  133.2735  152.5616 C   0  0  0  0  0  0  0  0  0  0  0  0
  146.2778  132.0798  151.9303 C   0  0  0  0  0  0  0  0  0  0  0  0
  145.2369  132.0985  150.9817 C   0  0  0  0  0  0  0  0  0  0  0  0
  144.6026  133.3110  150.6544 C   0  0  0  0  0  0  0  0  0  0  0  0
  145.0097  134.5050  151.2776 C   0  0  0  0  0  0  0  0  0  0  0  0
  146.0511  134.4886  152.2258 C   0  0  0  0  0  0  0  0  0  0  0  0
  146.8713  134.5620  160.1300 C   0  0  0  0  0  0  0  0  0  0  0  0
  145.5339  134.1481  159.9285 C   0  0  0  0  0  0  0  0  0  0  0  0
  144.6422  134.0505  161.0144 C   0  0  0  0  0  0  0  0  0  0  0  0
  145.0780  134.3626  162.3154 C   0  0  0  0  0  0  0  0  0  0  0  0
  146.4068  134.7726  162.5294 C   0  0  0  0  0  0  0  0  0  0  0  0
  147.2997  134.8729  161.4445 C   0  0  0  0  0  0  0  0  0  0  0  0
  152.3554  140.1931  156.0227 H   0  0  0  0  0  0  0  0  0  0  0  0
  148.5951  132.7364  157.2314 H   0  0  0  0  0  0  0  0  0  0  0  0
  147.4391  133.2367  156.0055 H   0  0  0  0  0  0  0  0  0  0  0  0
  150.0257  134.4856  156.8040 H   0  0  0  0  0  0  0  0  0  0  0  0
  148.4490  137.6065  155.4781 H   0  0  0  0  0  0  0  0  0  0  0  0
  150.1663  136.5856  158.3457 H   0  0  0  0  0  0  0  0  0  0  0  0
  151.8492  137.8165  159.4893 H   0  0  0  0  0  0  0  0  0  0  0  0
  149.3576  136.4985  153.6240 H   0  0  0  0  0  0  0  0  0  0  0  0
  151.4087  136.1460  153.5164 H   0  0  0  0  0  0  0  0  0  0  0  0
  150.0196  133.9161  154.5274 H   0  0  0  0  0  0  0  0  0  0  0  0
  146.7499  131.1367  152.1657 H   0  0  0  0  0  0  0  0  0  0  0  0
  144.9257  131.1807  150.5045 H   0  0  0  0  0  0  0  0  0  0  0  0
  143.8045  133.3248  149.9269 H   0  0  0  0  0  0  0  0  0  0  0  0
  144.5227  135.4361  151.0285 H   0  0  0  0  0  0  0  0  0  0  0  0
  146.3372  135.4230  152.6866 H   0  0  0  0  0  0  0  0  0  0  0  0
  145.1765  133.9036  158.9386 H   0  0  0  0  0  0  0  0  0  0  0  0
  143.6226  133.7350  160.8481 H   0  0  0  0  0  0  0  0  0  0  0  0
  144.3941  134.2861  163.1479 H   0  0  0  0  0  0  0  0  0  0  0  0
  146.7431  135.0098  163.5280 H   0  0  0  0  0  0  0  0  0  0  0  0
  148.3139  135.1871  161.6440 H   0  0  0  0  0  0  0  0  0  0  0  0
  1  2  2  0  0  0  0
  2  3  1  0  0  0  0
  2 28  1  0  0  0  0
  3  4  1  0  0  0  0
  4  5  1  0  0  0  0
  4 35  1  0  0  0  0
  4 36  1  0  0  0  0
  5 18  1  0  0  0  0
  5  6  1  0  0  0  0
  5 37  1  0  0  0  0
  6  7  1  0  0  0  0
  7  8  1  0  0  0  0
  7 16  1  0  0  0  0
  7 38  1  0  0  0  0
  8 14  1  0  0  0  0
  8  9  1  0  0  0  0
  9 10  2  0  0  0  0
  9 39  1  0  0  0  0
 10 11  1  0  0  0  0
 10 40  1  0  0  0  0
 11 12  2  0  0  0  0
 11 13  1  0  0  0  0
 13 34  1  0  0  0  0
 13 14  1  0  0  0  0
 14 15  2  0  0  0  0
 16 17  1  0  0  0  0
 16 18  1  0  0  0  0
 16 41  1  0  0  0  0
 17 42  1  0  0  0  0
 18 19  1  0  0  0  0
 18 43  1  0  0  0  0
 19 20  1  0  0  0  0
 20 21  2  0  0  0  0
 20 22  1  0  0  0  0
 22 27  1  0  0  0  0
 22 23  2  0  0  0  0
 23 24  1  0  0  0  0
 23 44  1  0  0  0  0
 24 25  2  0  0  0  0
 24 45  1  0  0  0  0
 25 26  1  0  0  0  0
 25 46  1  0  0  0  0
 26 27  2  0  0  0  0
 26 47  1  0  0  0  0
 27 48  1  0  0  0  0
 28 33  1  0  0  0  0
 28 29  2  0  0  0  0
 29 30  1  0  0  0  0
 29 49  1  0  0  0  0
 30 31  2  0  0  0  0
 30 50  1  0  0  0  0
 31 32  1  0  0  0  0
 31 51  1  0  0  0  0
 32 33  2  0  0  0  0
 32 52  1  0  0  0  0
 33 53  1  0  0  0  0
M  END
> <s_m_source_file>
AV-unprocessed.smi

> <i_m_source_file_index>
99

> <i_lp_mmshare_version>
43012

> <i_f3d_flags>
0

> <s_epik_input>
W2NIXTFbY0hdW2NIXVtjSF1bY0hdYzFDKD1PKU9bQ0gyXVtDQEBIXTJPW0NAQEhdKG4zW2NIXVtjSF1jKD1PKVtuSF1jMz1PKVtDQEBIXShbT0hdKVtDQEhdMk9DKD1PKWM0W2NIXVtjSF1bY0hdW2NIXVtjSF00

> <s_epik_cmdline>
J2VwaWtfcHl0aG9uJywgJy1waCcsICc3LjAnLCAnLXRuJywgJzgnLCAnLW1hJywgJzIwMCcsICctbWV0YWxfYmluZGluZycsICctaW1hZScsICc8aW5maWxlLm1hZT4nLCAnLW9tYWUnLCAnPG91dGZpbGUubWFlPic=

> <r_lp_tautomer_probability>
1

> <r_epik_Ionization_Penalty>
0.00454555

> <r_epik_Ionization_Penalty_Charging>
0.0045191

> <r_epik_Ionization_Penalty_Neutral>
2.64449e-05

> <r_epik_State_Penalty>
-0

> <r_epik_Charging_Adjusted_Penalty>
0.0045191

> <i_epik_Tot_Q>
0

> <i_epik_Tot_abs_Q>
0

> <r_epik_Metal_State_Penalty>
1.27877

> <b_epik_Metal_Only>
0

> <s_epik_Chemistry_Notes>
This compound has an ester and may undergo hydrolysis at high or low pH. This compound contains an acetal/aminal-like group ( X-CH(R)-Y where X, Y are N, S, or O) that may be acid/base labile, releasing an aldehyde.

> <s_lp_Force_Field>
OPLS_2005

> <r_lp_Energy>
38.1357

> <b_lp_Chiralities_Consistent>
1

> <s_lp_Variant>
AV-unprocessed.smi:99-9

> <Gold.Version>
5.8.1

> <Gold.Id.Protein>
6NUR|6NUR_protein|mol2

> <Gold.PLP.Fitness>
46.4706

> <Gold.PLP.PLP>
-37.1771

> <Gold.PLP.part.hbond>
-4.4304

> <Gold.PLP.part.metal>
0.0000

> <Gold.PLP.part.buried>
-2.3404

> <Gold.PLP.part.nonpolar>
-30.5482

> <Gold.PLP.part.repulsive>
2.2947

> <Gold.PLP.ligand.clash>
0.0127

> <Gold.PLP.ligand.torsion>
1.8397

> <Gold.PLP.Chemscore.Hbond>
4.1475

> <Gold.PLP.Chemscore.CHOScore>
0.0000

> <Gold.PLP.Chemscore.Metal>
0.0000

> <Gold.Chemscore.Hbonds>
donor molecule, donor type, donor heavy atom, donor atom, acceptor molecule, acceptor atom, score
      L1  H    17    42       P1  7949  0.98
      P1  H  6896  6909       L1     1  1.00
      P1  H  7989  7998       L1    15  0.13
      P1  H  7997  8009       L1    12  1.00
      P1  H 10752 10763       L1    17  0.34

> <Gold.PLP.Chemscore.Internal.Correction>
0.5434

> <Gold.Rescore>
     Score         DG    S(hbond)    S(metal)    S(lipo)     H(rot)  DE(clash)    DE(int)     intcor
     10.32     -18.76       3.23        0.00      90.97       3.19       2.39       6.05       ----

> <Gold.Chemscore.Fitness>
10.3157

> <Gold.Chemscore.DG>
-18.7583

> <Gold.Chemscore.ZeroCoef>
-5.4800

> <Gold.Chemscore.Hbond>
3.2342

> <Gold.Chemscore.Metal>
0.0000

> <Gold.Chemscore.Lipo>
90.9659

> <Gold.Chemscore.Internal_Hbond>
0.0000

> <Gold.Chemscore.DEClash>
2.3946

> <Gold.Chemscore.DEInternal>
6.0480

> <Gold.Chemscore.Rot>
3.1903

> <Gold.Chemscore.Internal.Correction>
   9.000000E+99

> <Gold.Chemscore.Hbonds>
donor molecule, donor type, donor heavy atom, donor atom, acceptor molecule, acceptor atom, score
      L1  H    17    42       P1  7949  0.68
      P1  H  6896  6909       L1     1  1.00
      P1  H  7989  7998       L1    15  0.14
      P1  H  7997  8009       L1    12  0.72
      P1  H 10752 10763       L1    17  0.01

> <Gold.Chemscore.Hbond.Weighted>
-10.8024

> <Gold.Chemscore.Metal.Weighted>
-0.0000

> <Gold.Chemscore.Lipo.Weighted>
-10.6430

> <Gold.Chemscore.Internal_Hbond.Weighted>
0.0000

> <Gold.Chemscore.DEClash.Weighted>
2.3946

> <Gold.Chemscore.DEInternal.Weighted>
6.0480

> <Gold.Chemscore.Rot.Weighted>
8.1671

> <Gold.Chemscore.Internal.Correction.Weighted>
   9.000000E+99

> <Gold.Protein.RotatedTorsions>
[ 6907 6896 6895 6894 ] final   37.72 input  -60.11 | X-H torsion
[ 7974 7965 7964 7962 ] final  113.17 input  175.53 | X-H torsion
[ 8008 7997 7996 7995 ] final  146.70 input   59.86 | X-H torsion
[ 10167 10162 10161 10158 ] final   26.21 input  -65.29 | X-H torsion
[ 10718 10713 10712 10709 ] final  -62.85 input   66.30 | X-H torsion
[ 10763 10752 10751 10750 ] final   73.98 input  -60.55 | X-H torsion
[ 11005 11000 10999 10996 ] final  177.35 input  -57.11 | X-H torsion

> <Gold.Protein.ActiveResidues>
 VAL166  LYS551  ARG553  GLY616  TRP617  ASP618  TYR619  PRO620  LYS621  CYS622 
 ASP623  PHE694  ASN695  SER759  ASP760  ASP761  ALA762  ILE779  LEU786  VAL792 
 PHE793  MET794  SER795  GLU796  ALA797  LYS798  CYS799  TRP800  GLU811  SER814 

> <Gold.Protein.RotatedAtoms>
  152.1470  134.9018  160.0550 H   0  0  0  0  0  0  0  0  0  0  0  0  # atno 6907 bound_to 6896
  152.0065  133.3840  159.4210 H   0  0  0  0  0  0  0  0  0  0  0  0  # atno 6908 bound_to 6896
  150.6871  134.3699  159.5031 H   0  0  0  0  0  0  0  0  0  0  0  0  # atno 6909 bound_to 6896
  145.2203  139.2865  143.4222 H   0  0  0  0  0  0  0  0  0  0  0  0  # atno 7974 bound_to 7965
  156.2847  140.2175  156.5419 H   0  0  0  0  0  0  0  0  0  0  0  0  # atno 8008 bound_to 7997
  154.7363  140.0491  157.0793 H   0  0  0  0  0  0  0  0  0  0  0  0  # atno 8009 bound_to 7997
  155.0289  140.3132  155.4769 H   0  0  0  0  0  0  0  0  0  0  0  0  # atno 8010 bound_to 7997
  140.5041  144.0267  150.6345 H   0  0  0  0  0  0  0  0  0  0  0  0  # atno 10167 bound_to 10162
  156.0828  130.4214  150.1193 H   0  0  0  0  0  0  0  0  0  0  0  0  # atno 10718 bound_to 10713
  153.0556  135.5043  154.7974 H   0  0  0  0  0  0  0  0  0  0  0  0  # atno 10763 bound_to 10752
  154.6802  135.2967  154.9626 H   0  0  0  0  0  0  0  0  0  0  0  0  # atno 10764 bound_to 10752
  154.0414  135.6716  153.4843 H   0  0  0  0  0  0  0  0  0  0  0  0  # atno 10765 bound_to 10752
  140.3831  134.6929  157.4463 H   0  0  0  0  0  0  0  0  0  0  0  0  # atno 11005 bound_to 11000
  146.3377  140.2507  142.8598 LP  0  0  0  0  0  0  0  0  0  0  0  0  # atno 17320 bound_to 7965
  144.9772  140.8425  143.5419 LP  0  0  0  0  0  0  0  0  0  0  0  0  # atno 17321 bound_to 7965
  140.3571  143.2929  152.0424 LP  0  0  0  0  0  0  0  0  0  0  0  0  # atno 17342 bound_to 10162
  139.4879  144.6331  151.7030 LP  0  0  0  0  0  0  0  0  0  0  0  0  # atno 17343 bound_to 10162
  156.9221  130.9686  151.3547 LP  0  0  0  0  0  0  0  0  0  0  0  0  # atno 17370 bound_to 10713
  157.5952  130.8472  149.8718 LP  0  0  0  0  0  0  0  0  0  0  0  0  # atno 17371 bound_to 10713
  140.0463  134.6194  155.8916 LP  0  0  0  0  0  0  0  0  0  0  0  0  # atno 17394 bound_to 11000
  141.1917  133.6572  156.5467 LP  0  0  0  0  0  0  0  0  0  0  0  0  # atno 17395 bound_to 11000

$$$$
