AV-unprocessed.smi:2021|AV-procd|sdf|8182|dock8
  -GOLD-   2272010433D 1   1.00000     0.00000
 Structure written by MMmdl.
 41 42  0  0  0  0  0  0  0  0  3 V2000
  145.3916  131.9489  151.5388 C   0  0  0  0  0  0  0  0  0  0  0  0
  144.0370  132.6559  151.6957 C   0  0  0  0  0  0  0  0  0  0  0  0
  143.3589  132.8237  150.3255 C   0  0  0  0  0  0  0  0  0  0  0  0
  144.2123  134.0062  152.4244 C   0  0  0  0  0  0  0  0  0  0  0  0
  144.5161  133.8542  153.8736 N   0  3  2  0  0  0  0  0  0  0  0  0
  144.1715  135.0505  154.6800 C   0  0  0  0  0  0  0  0  0  0  0  0
  145.2395  136.1478  154.5295 C   0  0  0  0  0  0  0  0  0  0  0  0
  146.5042  135.6182  154.9007 O   0  0  0  0  0  0  0  0  0  0  0  0
  146.9219  134.5500  154.0560 C   0  0  1  0  0  0  0  0  0  0  0  0
  148.3321  134.1017  154.4769 C   0  0  0  0  0  0  0  0  0  0  0  0
  149.3372  135.1020  154.1332 N   0  0  0  0  0  0  0  0  0  0  0  0
  150.0934  135.7887  155.0010 C   0  0  0  0  0  0  0  0  0  0  0  0
  149.9859  135.5812  156.2118 O   0  0  0  0  0  0  0  0  0  0  0  0
  150.9254  136.6761  154.4112 N   0  5  0  0  0  0  0  0  0  0  0  0
  150.8033  137.9877  154.6754 C   0  0  0  0  0  0  0  0  0  0  0  0
  151.7876  138.8654  154.4234 N   0  0  0  0  0  0  0  0  0  0  0  0
  151.4584  140.1693  154.7687 N   0  0  0  0  0  0  0  0  0  0  0  0
  150.2307  140.2404  155.2827 C   0  0  0  0  0  0  0  0  0  0  0  0
  149.3685  138.7207  155.3985 S   0  0  0  0  0  0  0  0  0  0  0  0
  145.8976  133.4004  154.1815 C   0  0  0  0  0  0  0  0  0  0  0  0
  146.0796  132.5379  150.9309 H   0  0  0  0  0  0  0  0  0  0  0  0
  145.2753  130.9763  151.0597 H   0  0  0  0  0  0  0  0  0  0  0  0
  145.8632  131.7816  152.5076 H   0  0  0  0  0  0  0  0  0  0  0  0
  143.4119  131.9997  152.3001 H   0  0  0  0  0  0  0  0  0  0  0  0
  143.9425  133.4706  149.6696 H   0  0  0  0  0  0  0  0  0  0  0  0
  142.3630  133.2568  150.4211 H   0  0  0  0  0  0  0  0  0  0  0  0
  143.2448  131.8613  149.8253 H   0  0  0  0  0  0  0  0  0  0  0  0
  144.9877  134.6003  151.9409 H   0  0  0  0  0  0  0  0  0  0  0  0
  143.2874  134.5733  152.3089 H   0  0  0  0  0  0  0  0  0  0  0  0
  143.1840  135.4281  154.4129 H   0  0  0  0  0  0  0  0  0  0  0  0
  144.1104  134.7516  155.7273 H   0  0  0  0  0  0  0  0  0  0  0  0
  145.2733  136.5359  153.5106 H   0  0  0  0  0  0  0  0  0  0  0  0
  145.0067  136.9896  155.1818 H   0  0  0  0  0  0  0  0  0  0  0  0
  146.9668  134.9003  153.0238 H   0  0  0  0  0  0  0  0  0  0  0  0
  148.3637  133.8629  155.5413 H   0  0  0  0  0  0  0  0  0  0  0  0
  148.5973  133.1850  153.9499 H   0  0  0  0  0  0  0  0  0  0  0  0
  149.4646  135.3036  153.1523 H   0  0  0  0  0  0  0  0  0  0  0  0
  149.8321  141.1924  155.5999 H   0  0  0  0  0  0  0  0  0  0  0  0
  145.9044  133.0247  155.2057 H   0  0  0  0  0  0  0  0  0  0  0  0
  146.1849  132.5595  153.5521 H   0  0  0  0  0  0  0  0  0  0  0  0
  143.8962  133.1231  154.1923 H   0  0  0  0  0  0  0  0  0  0  0  0
  1  2  1  0  0  0  0
  1 21  1  0  0  0  0
  1 22  1  0  0  0  0
  1 23  1  0  0  0  0
  2  3  1  0  0  0  0
  2  4  1  0  0  0  0
  2 24  1  0  0  0  0
  3 25  1  0  0  0  0
  3 26  1  0  0  0  0
  3 27  1  0  0  0  0
  4  5  1  0  0  0  0
  4 28  1  0  0  0  0
  4 29  1  0  0  0  0
  5 20  1  0  0  0  0
  5  6  1  0  0  0  0
  5 41  1  0  0  0  0
  6  7  1  0  0  0  0
  6 30  1  0  0  0  0
  6 31  1  0  0  0  0
  7  8  1  0  0  0  0
  7 32  1  0  0  0  0
  7 33  1  0  0  0  0
  8  9  1  0  0  0  0
  9 10  1  0  0  0  0
  9 20  1  0  0  0  0
  9 34  1  0  0  0  0
 10 11  1  0  0  0  0
 10 35  1  0  0  0  0
 10 36  1  0  0  0  0
 11 12  1  0  0  0  0
 11 37  1  0  0  0  0
 12 13  2  0  0  0  0
 12 14  1  0  0  0  0
 14 15  1  0  0  0  0
 15 19  1  0  0  0  0
 15 16  2  0  0  0  0
 16 17  1  0  0  0  0
 17 18  2  0  0  0  0
 18 19  1  0  0  0  0
 18 38  1  0  0  0  0
 20 39  1  0  0  0  0
 20 40  1  0  0  0  0
M  CHG  1   5   1
M  CHG  1  14  -1
M  END
> <s_m_source_file>
AV-unprocessed.smi

> <i_m_source_file_index>
2021

> <i_lp_mmshare_version>
43012

> <i_f3d_flags>
0

> <s_epik_input>
W0NIM11bQ0hdKFtDSDNdKVtDSDJdTjFbQ0gyXVtDSDJdT1tDQEhdKFtDSDJdMSlbQ0gyXVtOSF1DKD1PKVtOSF1jMm5uW2NIXXMy

> <s_epik_cmdline>
J2VwaWtfcHl0aG9uJywgJy1waCcsICc3LjAnLCAnLXRuJywgJzgnLCAnLW1hJywgJzIwMCcsICctbWV0YWxfYmluZGluZycsICctaW1hZScsICc8aW5maWxlLm1hZT4nLCAnLW9tYWUnLCAnPG91dGZpbGUubWFlPic=

> <r_lp_tautomer_probability>
1

> <r_epik_Ionization_Penalty>
3.15762

> <r_epik_Ionization_Penalty_Charging>
3.12229

> <r_epik_Ionization_Penalty_Neutral>
0.0353298

> <r_epik_State_Penalty>
3.11266

> <r_epik_Charging_Adjusted_Penalty>
6.23495

> <i_epik_Tot_Q>
0

> <i_epik_Tot_abs_Q>
2

> <r_epik_Metal_State_Penalty>
0.541462

> <b_epik_Metal_Only>
1

> <s_lp_Force_Field>
OPLS_2005

> <r_lp_Energy>
12.8808

> <b_lp_Chiralities_Consistent>
1

> <s_lp_Variant>
AV-unprocessed.smi:2021-8

> <Gold.Version>
5.8.1

> <Gold.Id.Protein>
6NUR|6NUR_protein|mol2

> <Gold.PLP.Fitness>
40.2630

> <Gold.PLP.PLP>
-26.9058

> <Gold.PLP.part.hbond>
-4.0000

> <Gold.PLP.part.metal>
0.0000

> <Gold.PLP.part.buried>
-6.7055

> <Gold.PLP.part.nonpolar>
-17.7262

> <Gold.PLP.part.repulsive>
0.4149

> <Gold.PLP.ligand.clash>
0.0000

> <Gold.PLP.ligand.torsion>
0.9749

> <Gold.PLP.Chemscore.Hbond>
5.0579

> <Gold.PLP.Chemscore.CHOScore>
0.0000

> <Gold.PLP.Chemscore.Metal>
0.0000

> <Gold.Chemscore.Hbonds>
donor molecule, donor type, donor heavy atom, donor atom, acceptor molecule, acceptor atom, score
      L1  H     5    41       P1 10957  2.00
      L1  H    11    37       P1  7948  0.48
      P1  H  7989  7998       L1    17  0.81
      P1  H 10752 10765       L1    14  0.81

> <Gold.PLP.Chemscore.Internal.Correction>
0.1333

> <Gold.Rescore>
     Score         DG    S(hbond)    S(metal)    S(lipo)     H(rot)  DE(clash)    DE(int)     intcor
     14.99     -16.20       2.82        0.00      51.65       1.85       0.00       1.21       ----

> <Gold.Chemscore.Fitness>
14.9903

> <Gold.Chemscore.DG>
-16.2016

> <Gold.Chemscore.ZeroCoef>
-5.4800

> <Gold.Chemscore.Hbond>
2.8159

> <Gold.Chemscore.Metal>
0.0000

> <Gold.Chemscore.Lipo>
51.6543

> <Gold.Chemscore.Internal_Hbond>
0.0000

> <Gold.Chemscore.DEClash>
0.0000

> <Gold.Chemscore.DEInternal>
1.2113

> <Gold.Chemscore.Rot>
1.8466

> <Gold.Chemscore.Internal.Correction>
   9.000000E+99

> <Gold.Chemscore.Hbonds>
donor molecule, donor type, donor heavy atom, donor atom, acceptor molecule, acceptor atom, score
      L1  H     5    41       P1 10957  0.99
      L1  H    11    37       P1  7948  0.02
      P1  H  7989  7998       L1    17  0.26
      P1  H 10752 10765       L1    14  0.16

> <Gold.Chemscore.Hbond.Weighted>
-9.4053

> <Gold.Chemscore.Metal.Weighted>
-0.0000

> <Gold.Chemscore.Lipo.Weighted>
-6.0436

> <Gold.Chemscore.Internal_Hbond.Weighted>
0.0000

> <Gold.Chemscore.DEClash.Weighted>
0.0000

> <Gold.Chemscore.DEInternal.Weighted>
1.2113

> <Gold.Chemscore.Rot.Weighted>
4.7272

> <Gold.Chemscore.Internal.Correction.Weighted>
   9.000000E+99

> <Gold.Protein.RotatedTorsions>
[ 6907 6896 6895 6894 ] final  120.92 input  -60.11 | X-H torsion
[ 7974 7965 7964 7962 ] final  107.13 input  175.53 | X-H torsion
[ 8008 7997 7996 7995 ] final -163.48 input   59.86 | X-H torsion
[ 10167 10162 10161 10158 ] final   76.27 input  -65.29 | X-H torsion
[ 10718 10713 10712 10709 ] final  162.54 input   66.30 | X-H torsion
[ 10763 10752 10751 10750 ] final  174.98 input  -60.55 | X-H torsion
[ 11005 11000 10999 10996 ] final   35.96 input  -57.11 | X-H torsion

> <Gold.Protein.ActiveResidues>
 VAL166  LYS551  ARG553  GLY616  TRP617  ASP618  TYR619  PRO620  LYS621  CYS622 
 ASP623  PHE694  ASN695  SER759  ASP760  ASP761  ALA762  ILE779  LEU786  VAL792 
 PHE793  MET794  SER795  GLU796  ALA797  LYS798  CYS799  TRP800  GLU811  SER814 

> <Gold.Protein.RotatedAtoms>
  152.4361  133.7364  159.6615 H   0  0  0  0  0  0  0  0  0  0  0  0  # atno 6907 bound_to 6896
  150.8245  133.8184  159.3130 H   0  0  0  0  0  0  0  0  0  0  0  0  # atno 6908 bound_to 6896
  151.5856  135.1058  160.0079 H   0  0  0  0  0  0  0  0  0  0  0  0  # atno 6909 bound_to 6896
  145.2976  139.2580  143.3831 H   0  0  0  0  0  0  0  0  0  0  0  0  # atno 7974 bound_to 7965
  155.8219  140.0921  157.1844 H   0  0  0  0  0  0  0  0  0  0  0  0  # atno 8008 bound_to 7997
  154.3979  140.1435  156.3570 H   0  0  0  0  0  0  0  0  0  0  0  0  # atno 8009 bound_to 7997
  155.8257  140.3444  155.5544 H   0  0  0  0  0  0  0  0  0  0  0  0  # atno 8010 bound_to 7997
  139.9941  144.5735  150.7793 H   0  0  0  0  0  0  0  0  0  0  0  0  # atno 10167 bound_to 10162
  157.1212  131.0493  151.2414 H   0  0  0  0  0  0  0  0  0  0  0  0  # atno 10718 bound_to 10713
  154.4613  135.2768  155.1711 H   0  0  0  0  0  0  0  0  0  0  0  0  # atno 10763 bound_to 10752
  154.3497  135.6152  153.5640 H   0  0  0  0  0  0  0  0  0  0  0  0  # atno 10764 bound_to 10752
  152.9855  135.5808  154.4976 H   0  0  0  0  0  0  0  0  0  0  0  0  # atno 10765 bound_to 10752
  140.2373  134.3456  155.7939 H   0  0  0  0  0  0  0  0  0  0  0  0  # atno 11005 bound_to 11000
  146.3163  140.3482  142.8654 LP  0  0  0  0  0  0  0  0  0  0  0  0  # atno 17320 bound_to 7965
  144.9120  140.7769  143.5801 LP  0  0  0  0  0  0  0  0  0  0  0  0  # atno 17321 bound_to 7965
  140.7444  143.2860  151.3463 LP  0  0  0  0  0  0  0  0  0  0  0  0  # atno 17342 bound_to 10162
  139.6319  144.0705  152.2483 LP  0  0  0  0  0  0  0  0  0  0  0  0  # atno 17343 bound_to 10162
  157.4475  130.7579  149.7122 LP  0  0  0  0  0  0  0  0  0  0  0  0  # atno 17370 bound_to 10713
  155.9828  130.4006  150.3396 LP  0  0  0  0  0  0  0  0  0  0  0  0  # atno 17371 bound_to 10713
  141.2213  133.7279  156.8829 LP  0  0  0  0  0  0  0  0  0  0  0  0  # atno 17394 bound_to 11000
  140.1689  134.9114  157.2808 LP  0  0  0  0  0  0  0  0  0  0  0  0  # atno 17395 bound_to 11000

$$$$
