AV-unprocessed.smi:2528|AV-procd|sdf|9957|dock3
  -GOLD-   2272013593D 1   1.00000     0.00000
 Structure written by MMmdl.
 43 45  0  0  0  0  0  0  0  0  1 V2000
  149.1483  133.5797  155.9038 O   0  0  0  0  0  0  0  0  0  0  0  0
  149.0240  134.1860  154.8397 C   0  0  0  0  0  0  0  0  0  0  0  0
  149.4316  135.4498  154.6538 N   0  0  0  0  0  0  0  0  0  0  0  0
  150.0965  136.2811  155.6520 C   0  0  0  0  0  0  0  0  0  0  0  0
  151.2467  137.0992  155.0271 C   0  0  1  0  0  0  0  0  0  0  0  0
  150.7879  138.4551  154.4544 C   0  0  0  0  0  0  0  0  0  0  0  0
  150.4917  139.4398  155.4883 N   0  0  0  0  0  0  0  0  0  0  0  0
  150.0897  140.7161  154.8979 C   0  0  0  0  0  0  0  0  0  0  0  0
  149.7445  141.7733  155.9583 C   0  0  0  0  0  0  0  0  0  0  0  0
  150.9325  141.9805  156.9079 C   0  0  0  0  0  0  0  0  0  0  0  0
  151.3811  140.6311  157.4888 C   0  0  0  0  0  0  0  0  0  0  0  0
  151.6525  139.6068  156.3670 C   0  0  1  0  0  0  0  0  0  0  0  0
  152.0832  138.2556  156.9684 C   0  0  0  0  0  0  0  0  0  0  0  0
  152.3305  137.3047  155.9353 O   0  0  0  0  0  0  0  0  0  0  0  0
  148.4721  133.6847  153.7205 N   0  0  0  0  0  0  0  0  0  0  0  0
  147.9185  132.3924  153.5162 C   0  0  0  0  0  0  0  0  0  0  0  0
  148.4356  131.3798  154.3559 C   0  0  0  0  0  0  0  0  0  0  0  0
  147.9537  130.0622  154.2312 C   0  0  0  0  0  0  0  0  0  0  0  0
  146.9654  129.7904  153.2685 C   0  0  0  0  0  0  0  0  0  0  0  0
  146.5046  130.8552  152.4726 C   0  0  0  0  0  0  0  0  0  0  0  0
  146.9653  132.1184  152.5905 N   0  0  0  0  0  0  0  0  0  0  0  0
  149.2864  135.8656  153.7456 H   0  0  0  0  0  0  0  0  0  0  0  0
  149.3460  136.9634  156.0518 H   0  0  0  0  0  0  0  0  0  0  0  0
  150.4386  135.6875  156.5006 H   0  0  0  0  0  0  0  0  0  0  0  0
  151.6456  136.5143  154.1974 H   0  0  0  0  0  0  0  0  0  0  0  0
  151.5753  138.8417  153.8055 H   0  0  0  0  0  0  0  0  0  0  0  0
  149.9140  138.3085  153.8185 H   0  0  0  0  0  0  0  0  0  0  0  0
  150.8877  141.0953  154.2574 H   0  0  0  0  0  0  0  0  0  0  0  0
  149.2234  140.5642  154.2531 H   0  0  0  0  0  0  0  0  0  0  0  0
  149.4779  142.7152  155.4782 H   0  0  0  0  0  0  0  0  0  0  0  0
  148.8697  141.4525  156.5254 H   0  0  0  0  0  0  0  0  0  0  0  0
  151.7601  142.4388  156.3652 H   0  0  0  0  0  0  0  0  0  0  0  0
  150.6633  142.6684  157.7097 H   0  0  0  0  0  0  0  0  0  0  0  0
  152.2758  140.7709  158.0967 H   0  0  0  0  0  0  0  0  0  0  0  0
  150.6079  140.2499  158.1575 H   0  0  0  0  0  0  0  0  0  0  0  0
  152.4862  139.9810  155.7702 H   0  0  0  0  0  0  0  0  0  0  0  0
  152.9963  138.3738  157.5519 H   0  0  0  0  0  0  0  0  0  0  0  0
  151.3238  137.8804  157.6542 H   0  0  0  0  0  0  0  0  0  0  0  0
  148.4440  134.2999  152.9213 H   0  0  0  0  0  0  0  0  0  0  0  0
  149.1949  131.6060  155.0905 H   0  0  0  0  0  0  0  0  0  0  0  0
  148.3359  129.2747  154.8634 H   0  0  0  0  0  0  0  0  0  0  0  0
  146.5711  128.7928  153.1428 H   0  0  0  0  0  0  0  0  0  0  0  0
  145.7468  130.6891  151.7214 H   0  0  0  0  0  0  0  0  0  0  0  0
  1  2  2  0  0  0  0
  2  3  1  0  0  0  0
  2 15  1  0  0  0  0
  3  4  1  0  0  0  0
  3 22  1  0  0  0  0
  4  5  1  0  0  0  0
  4 23  1  0  0  0  0
  4 24  1  0  0  0  0
  5 14  1  0  0  0  0
  5  6  1  0  0  0  0
  5 25  1  0  0  0  0
  6  7  1  0  0  0  0
  6 26  1  0  0  0  0
  6 27  1  0  0  0  0
  7 12  1  0  0  0  0
  7  8  1  0  0  0  0
  8  9  1  0  0  0  0
  8 28  1  0  0  0  0
  8 29  1  0  0  0  0
  9 10  1  0  0  0  0
  9 30  1  0  0  0  0
  9 31  1  0  0  0  0
 10 11  1  0  0  0  0
 10 32  1  0  0  0  0
 10 33  1  0  0  0  0
 11 12  1  0  0  0  0
 11 34  1  0  0  0  0
 11 35  1  0  0  0  0
 12 13  1  0  0  0  0
 12 36  1  0  0  0  0
 13 14  1  0  0  0  0
 13 37  1  0  0  0  0
 13 38  1  0  0  0  0
 15 16  1  0  0  0  0
 15 39  1  0  0  0  0
 16 21  1  0  0  0  0
 16 17  2  0  0  0  0
 17 18  1  0  0  0  0
 17 40  1  0  0  0  0
 18 19  2  0  0  0  0
 18 41  1  0  0  0  0
 19 20  1  0  0  0  0
 19 42  1  0  0  0  0
 20 21  2  0  0  0  0
 20 43  1  0  0  0  0
M  END
> <s_m_source_file>
AV-unprocessed.smi

> <i_m_source_file_index>
2528

> <i_lp_mmshare_version>
43012

> <i_f3d_flags>
0

> <s_epik_input>
bjFbY0hdW2NIXVtjSF1bY0hdYzFbTkhdQyg9TylbTkhdW0NIMl1bQ0BIXShbQ0gyXTIpT1tDSDJdW0NAQEhdKE4yMylbQ0gyXVtDSDJdW0NIMl1bQ0gyXTM=

> <s_epik_cmdline>
J2VwaWtfcHl0aG9uJywgJy1waCcsICc3LjAnLCAnLXRuJywgJzgnLCAnLW1hJywgJzIwMCcsICctbWV0YWxfYmluZGluZycsICctaW1hZScsICc8aW5maWxlLm1hZT4nLCAnLW9tYWUnLCAnPG91dGZpbGUubWFlPic=

> <r_epik_Ionization_Penalty>
1.14192

> <r_epik_Ionization_Penalty_Charging>
0

> <r_epik_Ionization_Penalty_Neutral>
1.14192

> <r_epik_State_Penalty>
1.20248

> <r_epik_Charging_Adjusted_Penalty>
1.20248

> <i_epik_Tot_Q>
0

> <i_epik_Tot_abs_Q>
0

> <r_epik_Metal_State_Penalty>
1.20248

> <b_epik_Metal_Only>
0

> <s_lp_Force_Field>
OPLS_2005

> <r_lp_Energy>
38.6775

> <b_lp_Chiralities_Consistent>
1

> <s_lp_Variant>
AV-unprocessed.smi:2528-10

> <Gold.Version>
5.8.1

> <Gold.Id.Protein>
6NUR|6NUR_protein|mol2

> <Gold.PLP.Fitness>
41.2134

> <Gold.PLP.PLP>
-35.9127

> <Gold.PLP.part.hbond>
-3.0070

> <Gold.PLP.part.metal>
0.0000

> <Gold.PLP.part.buried>
-2.7426

> <Gold.PLP.part.nonpolar>
-29.8109

> <Gold.PLP.part.repulsive>
0.2482

> <Gold.PLP.ligand.clash>
0.0000

> <Gold.PLP.ligand.torsion>
0.6574

> <Gold.PLP.Chemscore.Hbond>
2.2023

> <Gold.PLP.Chemscore.CHOScore>
0.0000

> <Gold.PLP.Chemscore.Metal>
0.0000

> <Gold.Chemscore.Hbonds>
donor molecule, donor type, donor heavy atom, donor atom, acceptor molecule, acceptor atom, score
      L1  H     3    22       P1  7948  1.00
      L1  H    15    39       P1  7948  0.48
      P1  H 10752 10765       L1    14  0.16

> <Gold.PLP.Chemscore.Internal.Correction>
0.0085

> <Gold.Rescore>
     Score         DG    S(hbond)    S(metal)    S(lipo)     H(rot)  DE(clash)    DE(int)     intcor
     15.07     -17.22       1.71        0.00      79.30       1.27       0.01       2.14       ----

> <Gold.Chemscore.Fitness>
15.0689

> <Gold.Chemscore.DG>
-17.2168

> <Gold.Chemscore.ZeroCoef>
-5.4800

> <Gold.Chemscore.Hbond>
1.7092

> <Gold.Chemscore.Metal>
0.0000

> <Gold.Chemscore.Lipo>
79.3027

> <Gold.Chemscore.Internal_Hbond>
0.0000

> <Gold.Chemscore.DEClash>
0.0098

> <Gold.Chemscore.DEInternal>
2.1382

> <Gold.Chemscore.Rot>
1.2696

> <Gold.Chemscore.Internal.Correction>
   9.000000E+99

> <Gold.Chemscore.Hbonds>
donor molecule, donor type, donor heavy atom, donor atom, acceptor molecule, acceptor atom, score
      L1  H     3    22       P1  7948  0.70
      L1  H    15    39       P1  7948  0.09

> <Gold.Chemscore.Hbond.Weighted>
-5.7086

> <Gold.Chemscore.Metal.Weighted>
-0.0000

> <Gold.Chemscore.Lipo.Weighted>
-9.2784

> <Gold.Chemscore.Internal_Hbond.Weighted>
0.0000

> <Gold.Chemscore.DEClash.Weighted>
0.0098

> <Gold.Chemscore.DEInternal.Weighted>
2.1382

> <Gold.Chemscore.Rot.Weighted>
3.2502

> <Gold.Chemscore.Internal.Correction.Weighted>
   9.000000E+99

> <Gold.Protein.RotatedTorsions>
[ 6907 6896 6895 6894 ] final   91.98 input  -60.11 | X-H torsion
[ 7974 7965 7964 7962 ] final  -26.28 input  175.53 | X-H torsion
[ 8008 7997 7996 7995 ] final   49.43 input   59.86 | X-H torsion
[ 10167 10162 10161 10158 ] final  122.22 input  -65.29 | X-H torsion
[ 10718 10713 10712 10709 ] final  113.56 input   66.30 | X-H torsion
[ 10763 10752 10751 10750 ] final -148.66 input  -60.55 | X-H torsion
[ 11005 11000 10999 10996 ] final  -40.72 input  -57.11 | X-H torsion

> <Gold.Protein.ActiveResidues>
 VAL166  LYS551  ARG553  GLY616  TRP617  ASP618  TYR619  PRO620  LYS621  CYS622 
 ASP623  PHE694  ASN695  SER759  ASP760  ASP761  ALA762  ILE779  LEU786  VAL792 
 PHE793  MET794  SER795  GLU796  ALA797  LYS798  CYS799  TRP800  GLU811  SER814 

> <Gold.Protein.RotatedAtoms>
  152.5452  134.1572  159.8542 H   0  0  0  0  0  0  0  0  0  0  0  0  # atno 6907 bound_to 6896
  151.1594  133.4848  159.2602 H   0  0  0  0  0  0  0  0  0  0  0  0  # atno 6908 bound_to 6896
  151.1389  135.0180  159.8671 H   0  0  0  0  0  0  0  0  0  0  0  0  # atno 6909 bound_to 6896
  146.1436  140.4998  142.8641 H   0  0  0  0  0  0  0  0  0  0  0  0  # atno 7974 bound_to 7965
  155.4020  140.3438  155.4257 H   0  0  0  0  0  0  0  0  0  0  0  0  # atno 8008 bound_to 7997
  156.1498  140.1567  156.8821 H   0  0  0  0  0  0  0  0  0  0  0  0  # atno 8009 bound_to 7997
  154.5042  140.0806  156.7841 H   0  0  0  0  0  0  0  0  0  0  0  0  # atno 8010 bound_to 7997
  139.5872  144.7011  151.3380 H   0  0  0  0  0  0  0  0  0  0  0  0  # atno 10167 bound_to 10162
  157.6331  131.0985  150.7058 H   0  0  0  0  0  0  0  0  0  0  0  0  # atno 10718 bound_to 10713
  154.8221  135.3329  154.7008 H   0  0  0  0  0  0  0  0  0  0  0  0  # atno 10763 bound_to 10752
  153.7639  135.6930  153.4924 H   0  0  0  0  0  0  0  0  0  0  0  0  # atno 10764 bound_to 10752
  153.2091  135.4488  155.0307 H   0  0  0  0  0  0  0  0  0  0  0  0  # atno 10765 bound_to 10752
  141.0195  133.6869  156.2360 H   0  0  0  0  0  0  0  0  0  0  0  0  # atno 11005 bound_to 11000
  144.7820  140.5860  143.6599 LP  0  0  0  0  0  0  0  0  0  0  0  0  # atno 17320 bound_to 7965
  145.4990  139.1484  143.3668 LP  0  0  0  0  0  0  0  0  0  0  0  0  # atno 17321 bound_to 7965
  140.7141  143.7312  150.7622 LP  0  0  0  0  0  0  0  0  0  0  0  0  # atno 17342 bound_to 10162
  140.0859  143.4924  152.2505 LP  0  0  0  0  0  0  0  0  0  0  0  0  # atno 17343 bound_to 10162
  156.7394  130.4734  149.5481 LP  0  0  0  0  0  0  0  0  0  0  0  0  # atno 17370 bound_to 10713
  156.1550  130.6335  151.0645 LP  0  0  0  0  0  0  0  0  0  0  0  0  # atno 17371 bound_to 10713
  140.6598  134.4980  157.5582 LP  0  0  0  0  0  0  0  0  0  0  0  0  # atno 17394 bound_to 11000
  139.9137  134.8291  156.1439 LP  0  0  0  0  0  0  0  0  0  0  0  0  # atno 17395 bound_to 11000

$$$$
