AV-unprocessed.smi:2076|AV-procd|sdf|8457|dock4
  -GOLD-   2272011153D 1   1.00000     0.00000
 Structure written by MMmdl.
 44 45  0  0  0  0  0  0  0  0  1 V2000
  151.0635  145.1767  160.6129 C   0  0  0  0  0  0  0  0  0  0  0  0
  151.8107  143.8847  160.4624 C   0  0  0  0  0  0  0  0  0  0  0  0
  152.6151  143.2136  161.4253 C   0  0  0  0  0  0  0  0  0  0  0  0
  153.0611  142.0981  160.7742 C   0  0  0  0  0  0  0  0  0  0  0  0
  153.9550  140.9996  161.2478 C   0  0  0  0  0  0  0  0  0  0  0  0
  152.5265  142.1373  159.4984 N   0  0  0  0  0  0  0  0  0  0  0  0
  152.7100  141.2040  158.3968 C   0  0  0  0  0  0  0  0  0  0  0  0
  151.3638  140.6663  157.9106 C   0  0  0  0  0  0  0  0  0  0  0  0
  150.9025  139.6308  158.3899 O   0  0  0  0  0  0  0  0  0  0  0  0
  150.7596  141.3670  156.9386 N   0  0  0  0  0  0  0  0  0  0  0  0
  149.5523  140.9544  156.2314 C   0  0  0  0  0  0  0  0  0  0  0  0
  149.7321  140.9287  154.6848 C   0  0  2  0  0  0  0  0  0  0  0  0
  148.3340  140.9702  154.0140 C   0  0  0  0  0  0  0  0  0  0  0  0
  150.5628  139.7970  154.2118 N   0  0  0  0  0  0  0  0  0  0  0  0
  150.0863  138.4994  154.7048 C   0  0  0  0  0  0  0  0  0  0  0  0
  150.9664  137.3243  154.2442 C   0  0  0  0  0  0  0  0  0  0  0  0
  152.3095  137.5400  154.6541 O   0  0  0  0  0  0  0  0  0  0  0  0
  152.8378  138.7508  154.1316 C   0  0  0  0  0  0  0  0  0  0  0  0
  151.9728  139.9355  154.5949 C   0  0  0  0  0  0  0  0  0  0  0  0
  151.7590  143.2338  159.3121 N   0  0  0  0  0  0  0  0  0  0  0  0
  151.3070  145.6649  161.5567 H   0  0  0  0  0  0  0  0  0  0  0  0
  149.9865  145.0106  160.5931 H   0  0  0  0  0  0  0  0  0  0  0  0
  151.3098  145.8707  159.8086 H   0  0  0  0  0  0  0  0  0  0  0  0
  152.8357  143.5090  162.4405 H   0  0  0  0  0  0  0  0  0  0  0  0
  154.2306  141.1450  162.2924 H   0  0  0  0  0  0  0  0  0  0  0  0
  154.8733  140.9660  160.6615 H   0  0  0  0  0  0  0  0  0  0  0  0
  153.4612  140.0313  161.1636 H   0  0  0  0  0  0  0  0  0  0  0  0
  153.2322  141.7098  157.5839 H   0  0  0  0  0  0  0  0  0  0  0  0
  153.3452  140.3770  158.7183 H   0  0  0  0  0  0  0  0  0  0  0  0
  151.2144  142.2075  156.6115 H   0  0  0  0  0  0  0  0  0  0  0  0
  149.2697  139.9804  156.6288 H   0  0  0  0  0  0  0  0  0  0  0  0
  148.7508  141.6428  156.5002 H   0  0  0  0  0  0  0  0  0  0  0  0
  150.2414  141.8528  154.4063 H   0  0  0  0  0  0  0  0  0  0  0  0
  147.7132  141.7832  154.3895 H   0  0  0  0  0  0  0  0  0  0  0  0
  147.7900  140.0398  154.1797 H   0  0  0  0  0  0  0  0  0  0  0  0
  148.3943  141.1396  152.9401 H   0  0  0  0  0  0  0  0  0  0  0  0
  150.0397  138.5113  155.7948 H   0  0  0  0  0  0  0  0  0  0  0  0
  149.0796  138.2962  154.3461 H   0  0  0  0  0  0  0  0  0  0  0  0
  150.6084  136.3912  154.6793 H   0  0  0  0  0  0  0  0  0  0  0  0
  150.9221  137.2097  153.1598 H   0  0  0  0  0  0  0  0  0  0  0  0
  153.8630  138.8714  154.4812 H   0  0  0  0  0  0  0  0  0  0  0  0
  152.8752  138.7019  153.0421 H   0  0  0  0  0  0  0  0  0  0  0  0
  152.4040  140.8334  154.1559 H   0  0  0  0  0  0  0  0  0  0  0  0
  152.0538  140.0409  155.6780 H   0  0  0  0  0  0  0  0  0  0  0  0
  1  2  1  0  0  0  0
  1 21  1  0  0  0  0
  1 22  1  0  0  0  0
  1 23  1  0  0  0  0
  2 20  2  0  0  0  0
  2  3  1  0  0  0  0
  3  4  2  0  0  0  0
  3 24  1  0  0  0  0
  4  5  1  0  0  0  0
  4  6  1  0  0  0  0
  5 25  1  0  0  0  0
  5 26  1  0  0  0  0
  5 27  1  0  0  0  0
  6  7  1  0  0  0  0
  6 20  1  0  0  0  0
  7  8  1  0  0  0  0
  7 28  1  0  0  0  0
  7 29  1  0  0  0  0
  8  9  2  0  0  0  0
  8 10  1  0  0  0  0
 10 11  1  0  0  0  0
 10 30  1  0  0  0  0
 11 12  1  0  0  0  0
 11 31  1  0  0  0  0
 11 32  1  0  0  0  0
 12 13  1  0  0  0  0
 12 14  1  0  0  0  0
 12 33  1  0  0  0  0
 13 34  1  0  0  0  0
 13 35  1  0  0  0  0
 13 36  1  0  0  0  0
 14 19  1  0  0  0  0
 14 15  1  0  0  0  0
 15 16  1  0  0  0  0
 15 37  1  0  0  0  0
 15 38  1  0  0  0  0
 16 17  1  0  0  0  0
 16 39  1  0  0  0  0
 16 40  1  0  0  0  0
 17 18  1  0  0  0  0
 18 19  1  0  0  0  0
 18 41  1  0  0  0  0
 18 42  1  0  0  0  0
 19 43  1  0  0  0  0
 19 44  1  0  0  0  0
M  END
> <s_m_source_file>
AV-unprocessed.smi

> <i_m_source_file_index>
2076

> <i_lp_mmshare_version>
43012

> <i_f3d_flags>
0

> <s_epik_input>
W0NIM11jMVtjSF1jKFtDSDNdKW4objEpW0NIMl1DKD1PKVtOSF1bQ0gyXVtDQEhdKFtDSDNdKU4yW0NIMl1bQ0gyXU9bQ0gyXVtDSDJdMg==

> <s_epik_cmdline>
J2VwaWtfcHl0aG9uJywgJy1waCcsICc3LjAnLCAnLXRuJywgJzgnLCAnLW1hJywgJzIwMCcsICctbWV0YWxfYmluZGluZycsICctaW1hZScsICc8aW5maWxlLm1hZT4nLCAnLW9tYWUnLCAnPG91dGZpbGUubWFlPic=

> <r_lp_tautomer_probability>
1

> <r_epik_Ionization_Penalty>
0.197284

> <r_epik_Ionization_Penalty_Charging>
0

> <r_epik_Ionization_Penalty_Neutral>
0.197284

> <r_epik_State_Penalty>
0.186684

> <r_epik_Charging_Adjusted_Penalty>
0.186684

> <i_epik_Tot_Q>
0

> <i_epik_Tot_abs_Q>
0

> <r_epik_Metal_State_Penalty>
0.186636

> <b_epik_Metal_Only>
0

> <s_lp_Force_Field>
OPLS_2005

> <r_lp_Energy>
25.7273

> <b_lp_Chiralities_Consistent>
1

> <s_lp_Variant>
AV-unprocessed.smi:2076-1

> <Gold.Version>
5.8.1

> <Gold.Id.Protein>
6NUR|6NUR_protein|mol2

> <Gold.PLP.Fitness>
44.6182

> <Gold.PLP.PLP>
-42.9335

> <Gold.PLP.part.hbond>
-2.0000

> <Gold.PLP.part.metal>
0.0000

> <Gold.PLP.part.buried>
-2.6458

> <Gold.PLP.part.nonpolar>
-39.3128

> <Gold.PLP.part.repulsive>
0.2779

> <Gold.PLP.ligand.clash>
0.0000

> <Gold.PLP.ligand.torsion>
0.6366

> <Gold.PLP.Chemscore.Hbond>
0.9760

> <Gold.PLP.Chemscore.CHOScore>
0.0000

> <Gold.PLP.Chemscore.Metal>
0.0000

> <Gold.Chemscore.Hbonds>
donor molecule, donor type, donor heavy atom, donor atom, acceptor molecule, acceptor atom, score
      P1  H 10752 10763       L1    17  0.57

> <Gold.PLP.Chemscore.Internal.Correction>
0.0298

> <Gold.Rescore>
     Score         DG    S(hbond)    S(metal)    S(lipo)     H(rot)  DE(clash)    DE(int)     intcor
     13.17     -15.51       0.35        0.00     112.80       1.70       0.60       1.74       ----

> <Gold.Chemscore.Fitness>
13.1733

> <Gold.Chemscore.DG>
-15.5112

> <Gold.Chemscore.ZeroCoef>
-5.4800

> <Gold.Chemscore.Hbond>
0.3544

> <Gold.Chemscore.Metal>
0.0000

> <Gold.Chemscore.Lipo>
112.7999

> <Gold.Chemscore.Internal_Hbond>
0.0000

> <Gold.Chemscore.DEClash>
0.6000

> <Gold.Chemscore.DEInternal>
1.7379

> <Gold.Chemscore.Rot>
1.6993

> <Gold.Chemscore.Internal.Correction>
   9.000000E+99

> <Gold.Chemscore.Hbonds>
donor molecule, donor type, donor heavy atom, donor atom, acceptor molecule, acceptor atom, score
      P1  H 10752 10763       L1    17  0.14

> <Gold.Chemscore.Hbond.Weighted>
-1.1838

> <Gold.Chemscore.Metal.Weighted>
-0.0000

> <Gold.Chemscore.Lipo.Weighted>
-13.1976

> <Gold.Chemscore.Internal_Hbond.Weighted>
0.0000

> <Gold.Chemscore.DEClash.Weighted>
0.6000

> <Gold.Chemscore.DEInternal.Weighted>
1.7379

> <Gold.Chemscore.Rot.Weighted>
4.3502

> <Gold.Chemscore.Internal.Correction.Weighted>
   9.000000E+99

> <Gold.Protein.RotatedTorsions>
[ 6907 6896 6895 6894 ] final  116.01 input  -60.11 | X-H torsion
[ 7974 7965 7964 7962 ] final -128.71 input  175.53 | X-H torsion
[ 8008 7997 7996 7995 ] final   82.43 input   59.86 | X-H torsion
[ 10167 10162 10161 10158 ] final   76.30 input  -65.29 | X-H torsion
[ 10718 10713 10712 10709 ] final -152.59 input   66.30 | X-H torsion
[ 10763 10752 10751 10750 ] final   64.13 input  -60.55 | X-H torsion
[ 11005 11000 10999 10996 ] final  172.60 input  -57.11 | X-H torsion

> <Gold.Protein.ActiveResidues>
 VAL166  LYS551  ARG553  GLY616  TRP617  ASP618  TYR619  PRO620  LYS621  CYS622 
 ASP623  PHE694  ASN695  SER759  ASP760  ASP761  ALA762  ILE779  LEU786  VAL792 
 PHE793  MET794  SER795  GLU796  ALA797  LYS798  CYS799  TRP800  GLU811  SER814 

> <Gold.Protein.RotatedAtoms>
  152.4705  133.8019  159.6957 H   0  0  0  0  0  0  0  0  0  0  0  0  # atno 6907 bound_to 6896
  150.8692  133.7521  159.2973 H   0  0  0  0  0  0  0  0  0  0  0  0  # atno 6908 bound_to 6896
  151.5061  135.1067  159.9894 H   0  0  0  0  0  0  0  0  0  0  0  0  # atno 6909 bound_to 6896
  144.9643  140.7480  143.4709 H   0  0  0  0  0  0  0  0  0  0  0  0  # atno 7974 bound_to 7965
  155.9105  140.3428  155.6095 H   0  0  0  0  0  0  0  0  0  0  0  0  # atno 8008 bound_to 7997
  155.7393  140.0805  157.2272 H   0  0  0  0  0  0  0  0  0  0  0  0  # atno 8009 bound_to 7997
  154.4055  140.1573  156.2585 H   0  0  0  0  0  0  0  0  0  0  0  0  # atno 8010 bound_to 7997
  139.9937  144.5738  150.7796 H   0  0  0  0  0  0  0  0  0  0  0  0  # atno 10167 bound_to 10162
  156.4745  130.8274  151.2502 H   0  0  0  0  0  0  0  0  0  0  0  0  # atno 10718 bound_to 10713
  153.0044  135.5404  154.6462 H   0  0  0  0  0  0  0  0  0  0  0  0  # atno 10763 bound_to 10752
  154.5705  135.2841  155.0834 H   0  0  0  0  0  0  0  0  0  0  0  0  # atno 10764 bound_to 10752
  154.2001  135.6485  153.5137 H   0  0  0  0  0  0  0  0  0  0  0  0  # atno 10765 bound_to 10752
  140.3315  134.7353  157.4137 H   0  0  0  0  0  0  0  0  0  0  0  0  # atno 11005 bound_to 11000
  145.2653  139.1976  143.4870 LP  0  0  0  0  0  0  0  0  0  0  0  0  # atno 17320 bound_to 7965
  146.3363  140.2590  142.8601 LP  0  0  0  0  0  0  0  0  0  0  0  0  # atno 17321 bound_to 7965
  140.7445  143.2862  151.3458 LP  0  0  0  0  0  0  0  0  0  0  0  0  # atno 17342 bound_to 10162
  139.6321  144.0700  152.2485 LP  0  0  0  0  0  0  0  0  0  0  0  0  # atno 17343 bound_to 10162
  157.7488  131.0065  150.3155 LP  0  0  0  0  0  0  0  0  0  0  0  0  # atno 17370 bound_to 10713
  156.3584  130.3843  149.7271 LP  0  0  0  0  0  0  0  0  0  0  0  0  # atno 17371 bound_to 10713
  140.0857  134.5670  155.8495 LP  0  0  0  0  0  0  0  0  0  0  0  0  # atno 17394 bound_to 11000
  141.2062  133.6653  156.6228 LP  0  0  0  0  0  0  0  0  0  0  0  0  # atno 17395 bound_to 11000

$$$$
