AV-unprocessed.smi:113|AV-procd|sdf|1103|dock3
  -GOLD-   2262018213D 1   1.00000     0.00000
 Structure written by MMmdl.
 53 56  0  0  0  0  0  0  0  0  2 V2000
  154.2986  139.7496  160.2358 C   0  0  0  0  0  0  0  0  0  0  0  0
  153.2221  140.7036  159.7633 C   0  0  0  0  0  0  0  0  0  0  0  0
  152.3482  140.3877  158.7049 C   0  0  0  0  0  0  0  0  0  0  0  0
  151.3584  141.3188  158.3030 C   0  0  0  0  0  0  0  0  0  0  0  0
  150.3970  141.0049  157.1516 C   0  0  0  0  0  0  0  0  0  0  0  0
  150.7065  139.8413  156.3326 N   0  0  0  0  0  0  0  0  0  0  0  0
  151.8374  139.9150  155.4835 C   0  0  0  0  0  0  0  0  0  0  0  0
  152.5417  140.9258  155.4357 O   0  0  0  0  0  0  0  0  0  0  0  0
  152.1093  138.7059  154.7029 C   0  0  0  0  0  0  0  0  0  0  0  0
  153.3135  138.7076  153.7746 C   0  0  0  0  0  0  0  0  0  0  0  0
  151.2989  137.6275  154.8293 C   0  0  0  0  0  0  0  0  0  0  0  0
  150.1941  137.5841  155.6616 N   0  0  0  0  0  0  0  0  0  0  0  0
  149.3895  136.3066  155.7680 C   0  0  2  0  0  0  0  0  0  0  0  0
  150.0657  135.2243  156.6267 C   0  0  0  0  0  0  0  0  0  0  0  0
  150.2238  134.0623  155.6565 C   0  0  1  0  0  0  0  0  0  0  0  0
  149.9698  132.8324  156.3041 O   0  0  0  0  0  0  0  0  0  0  0  0
  149.1894  134.3698  154.5680 C   0  0  2  0  0  0  0  0  0  0  0  0
  149.5137  133.7789  153.1873 C   0  0  0  0  0  0  0  0  0  0  0  0
  148.5647  134.2017  152.2312 O   0  0  0  0  0  0  0  0  0  0  0  0
  149.2122  135.7882  154.4870 O   0  0  0  0  0  0  0  0  0  0  0  0
  149.8873  138.6987  156.4725 C   0  0  0  0  0  0  0  0  0  0  0  0
  148.9563  138.6660  157.2799 O   0  0  0  0  0  0  0  0  0  0  0  0
  151.2769  142.5575  158.9968 C   0  0  0  0  0  0  0  0  0  0  0  0
  150.3167  143.5445  158.6683 C   0  0  0  0  0  0  0  0  0  0  0  0
  150.2691  144.7607  159.3781 C   0  0  0  0  0  0  0  0  0  0  0  0
  151.1773  145.0081  160.4242 C   0  0  0  0  0  0  0  0  0  0  0  0
  152.1378  144.0378  160.7646 C   0  0  0  0  0  0  0  0  0  0  0  0
  152.1868  142.8204  160.0564 C   0  0  0  0  0  0  0  0  0  0  0  0
  153.1089  141.8925  160.3891 N   0  3  0  0  0  0  0  0  0  0  0  0
  154.3437  138.8627  159.6032 H   0  0  0  0  0  0  0  0  0  0  0  0
  154.0983  139.4292  161.2586 H   0  0  0  0  0  0  0  0  0  0  0  0
  155.2749  140.2345  160.2111 H   0  0  0  0  0  0  0  0  0  0  0  0
  152.4490  139.4318  158.2129 H   0  0  0  0  0  0  0  0  0  0  0  0
  149.3833  140.8763  157.5342 H   0  0  0  0  0  0  0  0  0  0  0  0
  150.3231  141.8603  156.4784 H   0  0  0  0  0  0  0  0  0  0  0  0
  153.4093  137.7671  153.2316 H   0  0  0  0  0  0  0  0  0  0  0  0
  154.2321  138.8601  154.3424 H   0  0  0  0  0  0  0  0  0  0  0  0
  153.2275  139.5089  153.0395 H   0  0  0  0  0  0  0  0  0  0  0  0
  151.5328  136.7503  154.2428 H   0  0  0  0  0  0  0  0  0  0  0  0
  148.4175  136.5892  156.1736 H   0  0  0  0  0  0  0  0  0  0  0  0
  151.0133  135.5569  157.0512 H   0  0  0  0  0  0  0  0  0  0  0  0
  149.3917  134.9776  157.4485 H   0  0  0  0  0  0  0  0  0  0  0  0
  151.2310  134.0574  155.2395 H   0  0  0  0  0  0  0  0  0  0  0  0
  150.2163  132.1309  155.7199 H   0  0  0  0  0  0  0  0  0  0  0  0
  148.1900  134.0723  154.8918 H   0  0  0  0  0  0  0  0  0  0  0  0
  150.4990  134.1122  152.8609 H   0  0  0  0  0  0  0  0  0  0  0  0
  149.5382  132.6893  153.2238 H   0  0  0  0  0  0  0  0  0  0  0  0
  148.9375  134.9124  151.7316 H   0  0  0  0  0  0  0  0  0  0  0  0
  149.6032  143.3907  157.8731 H   0  0  0  0  0  0  0  0  0  0  0  0
  149.5323  145.5068  159.1182 H   0  0  0  0  0  0  0  0  0  0  0  0
  151.1360  145.9423  160.9652 H   0  0  0  0  0  0  0  0  0  0  0  0
  152.8326  144.2332  161.5689 H   0  0  0  0  0  0  0  0  0  0  0  0
  153.7520  142.1007  161.1528 H   0  0  0  0  0  0  0  0  0  0  0  0
  1  2  1  0  0  0  0
  1 30  1  0  0  0  0
  1 31  1  0  0  0  0
  1 32  1  0  0  0  0
  2 29  1  0  0  0  0
  2  3  2  0  0  0  0
  3  4  1  0  0  0  0
  3 33  1  0  0  0  0
  4  5  1  0  0  0  0
  4 23  2  0  0  0  0
  5  6  1  0  0  0  0
  5 34  1  0  0  0  0
  5 35  1  0  0  0  0
  6 21  1  0  0  0  0
  6  7  1  0  0  0  0
  7  8  2  0  0  0  0
  7  9  1  0  0  0  0
  9 10  1  0  0  0  0
  9 11  2  0  0  0  0
 10 36  1  0  0  0  0
 10 37  1  0  0  0  0
 10 38  1  0  0  0  0
 11 12  1  0  0  0  0
 11 39  1  0  0  0  0
 12 13  1  0  0  0  0
 12 21  1  0  0  0  0
 13 20  1  0  0  0  0
 13 14  1  0  0  0  0
 13 40  1  0  0  0  0
 14 15  1  0  0  0  0
 14 41  1  0  0  0  0
 14 42  1  0  0  0  0
 15 16  1  0  0  0  0
 15 17  1  0  0  0  0
 15 43  1  0  0  0  0
 16 44  1  0  0  0  0
 17 18  1  0  0  0  0
 17 20  1  0  0  0  0
 17 45  1  0  0  0  0
 18 19  1  0  0  0  0
 18 46  1  0  0  0  0
 18 47  1  0  0  0  0
 19 48  1  0  0  0  0
 21 22  2  0  0  0  0
 23 28  1  0  0  0  0
 23 24  1  0  0  0  0
 24 25  2  0  0  0  0
 24 49  1  0  0  0  0
 25 26  1  0  0  0  0
 25 50  1  0  0  0  0
 26 27  2  0  0  0  0
 26 51  1  0  0  0  0
 27 28  1  0  0  0  0
 27 52  1  0  0  0  0
 28 29  2  0  0  0  0
 29 53  1  0  0  0  0
M  CHG  1  29   1
M  END
> <s_m_source_file>
AV-unprocessed.smi

> <i_m_source_file_index>
113

> <i_lp_mmshare_version>
43012

> <i_f3d_flags>
0

> <s_epik_input>
W2NIXTFbY0hdW2NIXVtjSF1jKGMxMiluYyhbQ0gzXSlbY0hdYzJbQ0gyXW4zYyg9TyljKFtDSDNdKVtjSF1uKGMzPU8pW0NAQEhdNFtDSDJdW0NAQEhdKFtPSF0pW0NASF0oTzQpW0NIMl1bT0hd

> <s_epik_cmdline>
J2VwaWtfcHl0aG9uJywgJy1waCcsICc3LjAnLCAnLXRuJywgJzgnLCAnLW1hJywgJzIwMCcsICctbWV0YWxfYmluZGluZycsICctaW1hZScsICc8aW5maWxlLm1hZT4nLCAnLW9tYWUnLCAnPG91dGZpbGUubWFlPic=

> <r_lp_tautomer_probability>
1

> <r_epik_Ionization_Penalty>
0.705471

> <r_epik_Ionization_Penalty_Charging>
0.70547

> <r_epik_Ionization_Penalty_Neutral>
1.19947e-07

> <r_epik_State_Penalty>
0.728574

> <r_epik_Charging_Adjusted_Penalty>
1.43404

> <i_epik_Tot_Q>
1

> <i_epik_Tot_abs_Q>
1

> <r_epik_Metal_State_Penalty>
4.61665

> <b_epik_Metal_Only>
0

> <s_epik_Chemistry_Notes>
This compound contains an acetal/aminal-like group ( X-CH(R)-Y where X, Y are N, S, or O) that may be acid/base labile, releasing an aldehyde.

> <s_lp_Force_Field>
OPLS_2005

> <r_lp_Energy>
37.5737

> <b_lp_Chiralities_Consistent>
1

> <s_lp_Variant>
AV-unprocessed.smi:113-13

> <Gold.Version>
5.8.1

> <Gold.Id.Protein>
6NUR|6NUR_protein|mol2

> <Gold.PLP.Fitness>
46.6779

> <Gold.PLP.PLP>
-41.6167

> <Gold.PLP.part.hbond>
-3.0000

> <Gold.PLP.part.metal>
0.0000

> <Gold.PLP.part.buried>
-1.3620

> <Gold.PLP.part.nonpolar>
-36.2244

> <Gold.PLP.part.repulsive>
0.1773

> <Gold.PLP.ligand.clash>
0.0000

> <Gold.PLP.ligand.torsion>
0.7395

> <Gold.PLP.Chemscore.Hbond>
2.1700

> <Gold.PLP.Chemscore.CHOScore>
0.0000

> <Gold.PLP.Chemscore.Metal>
0.0000

> <Gold.Chemscore.Hbonds>
donor molecule, donor type, donor heavy atom, donor atom, acceptor molecule, acceptor atom, score
      P1  H  7997  8010       L1     8  0.73
      L1  C    11    39       P1  7949  0.14

> <Gold.PLP.Chemscore.Internal.Correction>
0.0301

> <Gold.Rescore>
     Score         DG    S(hbond)    S(metal)    S(lipo)     H(rot)  DE(clash)    DE(int)     intcor
     16.92     -19.97       1.94        0.00     134.27       3.01       2.71       0.35       ----

> <Gold.Chemscore.Fitness>
16.9184

> <Gold.Chemscore.DG>
-19.9698

> <Gold.Chemscore.ZeroCoef>
-5.4800

> <Gold.Chemscore.Hbond>
1.9435

> <Gold.Chemscore.Metal>
0.0000

> <Gold.Chemscore.Lipo>
134.2674

> <Gold.Chemscore.Internal_Hbond>
0.0000

> <Gold.Chemscore.DEClash>
2.7057

> <Gold.Chemscore.DEInternal>
0.3456

> <Gold.Chemscore.Rot>
3.0120

> <Gold.Chemscore.Internal.Correction>
   9.000000E+99

> <Gold.Chemscore.Hbonds>
donor molecule, donor type, donor heavy atom, donor atom, acceptor molecule, acceptor atom, score
      P1  H  7997  8010       L1     8  0.27

> <Gold.Chemscore.Hbond.Weighted>
-6.4913

> <Gold.Chemscore.Metal.Weighted>
-0.0000

> <Gold.Chemscore.Lipo.Weighted>
-15.7093

> <Gold.Chemscore.Internal_Hbond.Weighted>
0.0000

> <Gold.Chemscore.DEClash.Weighted>
2.7057

> <Gold.Chemscore.DEInternal.Weighted>
0.3456

> <Gold.Chemscore.Rot.Weighted>
7.7108

> <Gold.Chemscore.Internal.Correction.Weighted>
   9.000000E+99

> <Gold.Protein.RotatedTorsions>
[ 6907 6896 6895 6894 ] final  169.15 input  -60.11 | X-H torsion
[ 7974 7965 7964 7962 ] final  175.02 input  175.53 | X-H torsion
[ 8008 7997 7996 7995 ] final   95.31 input   59.86 | X-H torsion
[ 10167 10162 10161 10158 ] final -159.90 input  -65.29 | X-H torsion
[ 10718 10713 10712 10709 ] final   66.20 input   66.30 | X-H torsion
[ 10763 10752 10751 10750 ] final  165.35 input  -60.55 | X-H torsion
[ 11005 11000 10999 10996 ] final -173.54 input  -57.11 | X-H torsion

> <Gold.Protein.ActiveResidues>
 VAL166  LYS551  ARG553  GLY616  TRP617  ASP618  TYR619  PRO620  LYS621  CYS622 
 ASP623  PHE694  ASN695  SER759  ASP760  ASP761  ALA762  ILE779  LEU786  VAL792 
 PHE793  MET794  SER795  GLU796  ALA797  LYS798  CYS799  TRP800  GLU811  SER814 

> <Gold.Protein.RotatedAtoms>
  151.8365  133.3417  159.3629 H   0  0  0  0  0  0  0  0  0  0  0  0  # atno 6907 bound_to 6896
  150.7248  134.5432  159.5767 H   0  0  0  0  0  0  0  0  0  0  0  0  # atno 6908 bound_to 6896
  152.2897  134.7736  160.0431 H   0  0  0  0  0  0  0  0  0  0  0  0  # atno 6909 bound_to 6896
  144.7210  139.9885  143.6439 H   0  0  0  0  0  0  0  0  0  0  0  0  # atno 7974 bound_to 7965
  156.0675  140.3288  155.7536 H   0  0  0  0  0  0  0  0  0  0  0  0  # atno 8008 bound_to 7997
  155.5357  140.0597  157.2897 H   0  0  0  0  0  0  0  0  0  0  0  0  # atno 8009 bound_to 7997
  154.4513  140.1919  156.0529 H   0  0  0  0  0  0  0  0  0  0  0  0  # atno 8010 bound_to 7997
  139.6580  143.9964  152.2206 H   0  0  0  0  0  0  0  0  0  0  0  0  # atno 10167 bound_to 10162
  157.6154  130.9255  150.0078 H   0  0  0  0  0  0  0  0  0  0  0  0  # atno 10718 bound_to 10713
  154.3227  135.2755  155.2511 H   0  0  0  0  0  0  0  0  0  0  0  0  # atno 10763 bound_to 10752
  154.4858  135.5846  153.6426 H   0  0  0  0  0  0  0  0  0  0  0  0  # atno 10764 bound_to 10752
  152.9875  135.6122  154.3413 H   0  0  0  0  0  0  0  0  0  0  0  0  # atno 10765 bound_to 10752
  140.4846  134.6043  157.4932 H   0  0  0  0  0  0  0  0  0  0  0  0  # atno 11005 bound_to 11000
  146.0431  139.3440  143.0685 LP  0  0  0  0  0  0  0  0  0  0  0  0  # atno 17320 bound_to 7965
  145.8310  140.9631  143.0849 LP  0  0  0  0  0  0  0  0  0  0  0  0  # atno 17321 bound_to 7965
  139.9696  144.6503  150.8002 LP  0  0  0  0  0  0  0  0  0  0  0  0  # atno 17342 bound_to 10162
  140.7567  143.3072  151.2933 LP  0  0  0  0  0  0  0  0  0  0  0  0  # atno 17343 bound_to 10162
  156.1274  130.3644  149.9787 LP  0  0  0  0  0  0  0  0  0  0  0  0  # atno 17370 bound_to 10713
  156.7855  130.9237  151.3646 LP  0  0  0  0  0  0  0  0  0  0  0  0  # atno 17371 bound_to 10713
  139.9806  134.7144  155.9867 LP  0  0  0  0  0  0  0  0  0  0  0  0  # atno 17394 bound_to 11000
  141.1514  133.6548  156.4026 LP  0  0  0  0  0  0  0  0  0  0  0  0  # atno 17395 bound_to 11000

$$$$
