AV-unprocessed.smi:81|AV-procd|sdf|787|dock3
  -GOLD-   2262017153D 1   1.00000     0.00000
 Structure written by MMmdl.
 64 67  0  0  0  0  0  0  0  0  2 V2000
  150.2350  137.1633  158.3589 C   0  0  0  0  0  0  0  0  0  0  0  0
  148.7402  137.2958  158.6940 C   0  0  0  0  0  0  0  0  0  0  0  0
  148.4073  136.5309  159.9826 C   0  0  0  0  0  0  0  0  0  0  0  0
  147.8471  136.8072  157.5314 C   0  0  0  0  0  0  0  0  0  0  0  0
  147.9115  137.6528  156.3358 N   0  0  0  0  0  0  0  0  0  0  0  0
  148.0420  138.9792  156.5878 C   0  0  0  0  0  0  0  0  0  0  0  0
  146.9561  139.7146  156.9444 N   0  0  0  0  0  0  0  0  0  0  0  0
  147.0875  141.0191  157.2034 C   0  0  0  0  0  0  0  0  0  0  0  0
  148.1906  141.7696  157.1696 N   0  0  0  0  0  0  0  0  0  0  0  0
  149.2825  141.0315  156.8185 C   0  0  0  0  0  0  0  0  0  0  0  0
  149.2962  139.6418  156.5156 C   0  0  0  0  0  0  0  0  0  0  0  0
  150.5876  139.2322  156.2102 N   0  0  0  0  0  0  0  0  0  0  0  0
  151.2991  140.3205  156.3244 C   0  0  0  0  0  0  0  0  0  0  0  0
  150.5940  141.4492  156.6782 N   0  0  0  0  0  0  0  0  0  0  0  0
  151.1293  142.7875  156.8709 C   0  0  0  0  0  0  0  0  0  0  0  0
  151.2824  143.1807  158.3591 C   0  0  2  0  0  0  0  0  0  0  0  0
  150.0640  142.9028  159.0317 O   0  0  0  0  0  0  0  0  0  0  0  0
  151.6308  144.6452  158.5809 C   0  0  0  0  0  0  0  0  0  0  0  0
  152.3008  144.6217  159.9492 C   0  0  0  0  0  0  0  0  0  0  0  0
  153.0258  143.3992  159.9773 O   0  0  0  0  0  0  0  0  0  0  0  0
  152.4663  142.4691  159.0507 C   0  0  1  0  0  0  0  0  0  0  0  0
  152.1577  141.1285  159.7366 C   0  0  0  0  0  0  0  0  0  0  0  0
  147.0206  137.2867  155.2252 C   0  0  2  0  0  0  0  0  0  0  0  0
  147.0790  135.7914  154.8457 C   0  0  0  0  0  0  0  0  0  0  0  0
  146.0663  135.4651  153.7364 C   0  0  0  0  0  0  0  0  0  0  0  0
  146.2918  136.3170  152.5423 N   0  3  1  0  0  0  0  0  0  0  0  0
  145.4156  135.9431  151.4115 C   0  0  0  0  0  0  0  0  0  0  0  0
  146.2097  137.7628  152.8674 C   0  0  0  0  0  0  0  0  0  0  0  0
  147.2259  138.1431  153.9567 C   0  0  0  0  0  0  0  0  0  0  0  0
  150.5060  136.1260  158.1604 H   0  0  0  0  0  0  0  0  0  0  0  0
  150.8541  137.5169  159.1836 H   0  0  0  0  0  0  0  0  0  0  0  0
  150.5013  137.7504  157.4798 H   0  0  0  0  0  0  0  0  0  0  0  0
  148.5310  138.3480  158.8899 H   0  0  0  0  0  0  0  0  0  0  0  0
  148.5922  135.4623  159.8693 H   0  0  0  0  0  0  0  0  0  0  0  0
  147.3599  136.6608  160.2563 H   0  0  0  0  0  0  0  0  0  0  0  0
  149.0104  136.8866  160.8186 H   0  0  0  0  0  0  0  0  0  0  0  0
  148.1364  135.7908  157.2623 H   0  0  0  0  0  0  0  0  0  0  0  0
  146.8116  136.7433  157.8683 H   0  0  0  0  0  0  0  0  0  0  0  0
  146.1795  141.5357  157.4774 H   0  0  0  0  0  0  0  0  0  0  0  0
  152.3650  140.3309  156.1487 H   0  0  0  0  0  0  0  0  0  0  0  0
  152.0922  142.8521  156.3626 H   0  0  0  0  0  0  0  0  0  0  0  0
  150.4682  143.4891  156.3607 H   0  0  0  0  0  0  0  0  0  0  0  0
  150.1162  142.0330  159.3976 H   0  0  0  0  0  0  0  0  0  0  0  0
  152.3537  144.9768  157.8339 H   0  0  0  0  0  0  0  0  0  0  0  0
  150.7711  145.3150  158.5356 H   0  0  0  0  0  0  0  0  0  0  0  0
  152.9544  145.4787  160.1128 H   0  0  0  0  0  0  0  0  0  0  0  0
  151.5527  144.6076  160.7427 H   0  0  0  0  0  0  0  0  0  0  0  0
  153.2482  142.2976  158.3097 H   0  0  0  0  0  0  0  0  0  0  0  0
  151.7185  140.4206  159.0333 H   0  0  0  0  0  0  0  0  0  0  0  0
  151.4652  141.2512  160.5696 H   0  0  0  0  0  0  0  0  0  0  0  0
  153.0688  140.6799  160.1332 H   0  0  0  0  0  0  0  0  0  0  0  0
  146.0090  137.4789  155.5857 H   0  0  0  0  0  0  0  0  0  0  0  0
  148.0772  135.5195  154.5003 H   0  0  0  0  0  0  0  0  0  0  0  0
  146.8707  135.1752  155.7210 H   0  0  0  0  0  0  0  0  0  0  0  0
  146.1593  134.4144  153.4585 H   0  0  0  0  0  0  0  0  0  0  0  0
  145.0480  135.6079  154.1018 H   0  0  0  0  0  0  0  0  0  0  0  0
  144.3656  136.1034  151.6601 H   0  0  0  0  0  0  0  0  0  0  0  0
  145.5496  134.8925  151.1517 H   0  0  0  0  0  0  0  0  0  0  0  0
  145.6531  136.5360  150.5277 H   0  0  0  0  0  0  0  0  0  0  0  0
  146.4041  138.3509  151.9695 H   0  0  0  0  0  0  0  0  0  0  0  0
  145.1981  138.0084  153.1950 H   0  0  0  0  0  0  0  0  0  0  0  0
  147.1226  139.2032  154.1894 H   0  0  0  0  0  0  0  0  0  0  0  0
  148.2336  138.0076  153.5631 H   0  0  0  0  0  0  0  0  0  0  0  0
  147.2397  136.1438  152.2390 H   0  0  0  0  0  0  0  0  0  0  0  0
  1  2  1  0  0  0  0
  1 30  1  0  0  0  0
  1 31  1  0  0  0  0
  1 32  1  0  0  0  0
  2  3  1  0  0  0  0
  2  4  1  0  0  0  0
  2 33  1  0  0  0  0
  3 34  1  0  0  0  0
  3 35  1  0  0  0  0
  3 36  1  0  0  0  0
  4  5  1  0  0  0  0
  4 37  1  0  0  0  0
  4 38  1  0  0  0  0
  5  6  1  0  0  0  0
  5 23  1  0  0  0  0
  6 11  1  0  0  0  0
  6  7  2  0  0  0  0
  7  8  1  0  0  0  0
  8  9  2  0  0  0  0
  8 39  1  0  0  0  0
  9 10  1  0  0  0  0
 10 14  1  0  0  0  0
 10 11  2  0  0  0  0
 11 12  1  0  0  0  0
 12 13  2  0  0  0  0
 13 14  1  0  0  0  0
 13 40  1  0  0  0  0
 14 15  1  0  0  0  0
 15 16  1  0  0  0  0
 15 41  1  0  0  0  0
 15 42  1  0  0  0  0
 16 21  1  0  0  0  0
 16 17  1  0  0  0  0
 16 18  1  0  0  0  0
 17 43  1  0  0  0  0
 18 19  1  0  0  0  0
 18 44  1  0  0  0  0
 18 45  1  0  0  0  0
 19 20  1  0  0  0  0
 19 46  1  0  0  0  0
 19 47  1  0  0  0  0
 20 21  1  0  0  0  0
 21 22  1  0  0  0  0
 21 48  1  0  0  0  0
 22 49  1  0  0  0  0
 22 50  1  0  0  0  0
 22 51  1  0  0  0  0
 23 29  1  0  0  0  0
 23 24  1  0  0  0  0
 23 52  1  0  0  0  0
 24 25  1  0  0  0  0
 24 53  1  0  0  0  0
 24 54  1  0  0  0  0
 25 26  1  0  0  0  0
 25 55  1  0  0  0  0
 25 56  1  0  0  0  0
 26 27  1  0  0  0  0
 26 28  1  0  0  0  0
 26 64  1  0  0  0  0
 27 57  1  0  0  0  0
 27 58  1  0  0  0  0
 27 59  1  0  0  0  0
 28 29  1  0  0  0  0
 28 60  1  0  0  0  0
 28 61  1  0  0  0  0
 29 62  1  0  0  0  0
 29 63  1  0  0  0  0
M  CHG  1  26   1
M  END
> <s_m_source_file>
AV-unprocessed.smi

> <i_m_source_file_index>
81

> <i_lp_mmshare_version>
43012

> <i_f3d_flags>
0

> <s_epik_input>
W0NIMl0xW0NIMl1OKFtDSDNdKVtDSDJdW0NIMl1bQ0hdMU4oW0NIMl1bQ0hdKFtDSDNdKVtDSDNdKWMobltjSF1uMiljKGMyMyluW2NIXW4zW0NIMl1bQ0BAXTQoW09IXSlbQ0gyXVtDSDJdT1tDQEhdNFtDSDNd

> <s_epik_cmdline>
J2VwaWtfcHl0aG9uJywgJy1waCcsICc3LjAnLCAnLXRuJywgJzgnLCAnLW1hJywgJzIwMCcsICctbWV0YWxfYmluZGluZycsICctaW1hZScsICc8aW5maWxlLm1hZT4nLCAnLW9tYWUnLCAnPG91dGZpbGUubWFlPic=

> <r_lp_tautomer_probability>
1

> <r_epik_Ionization_Penalty>
0.00272708

> <r_epik_Ionization_Penalty_Charging>
0.00158983

> <r_epik_Ionization_Penalty_Neutral>
0.00113725

> <r_epik_State_Penalty>
-0

> <r_epik_Charging_Adjusted_Penalty>
0.00158983

> <i_epik_Tot_Q>
1

> <i_epik_Tot_abs_Q>
1

> <r_epik_Metal_State_Penalty>
-0

> <b_epik_Metal_Only>
0

> <s_lp_Force_Field>
OPLS_2005

> <r_lp_Energy>
45.4509

> <b_lp_Chiralities_Consistent>
1

> <s_lp_Variant>
AV-unprocessed.smi:81-2

> <Gold.Version>
5.8.1

> <Gold.Id.Protein>
6NUR|6NUR_protein|mol2

> <Gold.PLP.Fitness>
44.4444

> <Gold.PLP.PLP>
-39.3538

> <Gold.PLP.part.hbond>
-1.7498

> <Gold.PLP.part.metal>
0.0000

> <Gold.PLP.part.buried>
-6.2427

> <Gold.PLP.part.nonpolar>
-33.0396

> <Gold.PLP.part.repulsive>
0.1708

> <Gold.PLP.ligand.clash>
0.0000

> <Gold.PLP.ligand.torsion>
0.8834

> <Gold.PLP.Chemscore.Hbond>
2.0000

> <Gold.PLP.Chemscore.CHOScore>
0.0000

> <Gold.PLP.Chemscore.Metal>
0.0000

> <Gold.Chemscore.Hbonds>
donor molecule, donor type, donor heavy atom, donor atom, acceptor molecule, acceptor atom, score
      L1  H    26    64       P1  7948  2.00

> <Gold.PLP.Chemscore.Internal.Correction>
0.8574

> <Gold.Rescore>
     Score         DG    S(hbond)    S(metal)    S(lipo)     H(rot)  DE(clash)    DE(int)     intcor
     12.75     -13.83       1.00        0.00      99.39       2.58       0.18       0.90       ----

> <Gold.Chemscore.Fitness>
12.7521

> <Gold.Chemscore.DG>
-13.8345

> <Gold.Chemscore.ZeroCoef>
-5.4800

> <Gold.Chemscore.Hbond>
0.9953

> <Gold.Chemscore.Metal>
0.0000

> <Gold.Chemscore.Lipo>
99.3871

> <Gold.Chemscore.Internal_Hbond>
0.0000

> <Gold.Chemscore.DEClash>
0.1783

> <Gold.Chemscore.DEInternal>
0.9041

> <Gold.Chemscore.Rot>
2.5774

> <Gold.Chemscore.Internal.Correction>
   9.000000E+99

> <Gold.Chemscore.Hbonds>
donor molecule, donor type, donor heavy atom, donor atom, acceptor molecule, acceptor atom, score
      L1  H    26    64       P1  7948  1.00

> <Gold.Chemscore.Hbond.Weighted>
-3.3244

> <Gold.Chemscore.Metal.Weighted>
-0.0000

> <Gold.Chemscore.Lipo.Weighted>
-11.6283

> <Gold.Chemscore.Internal_Hbond.Weighted>
0.0000

> <Gold.Chemscore.DEClash.Weighted>
0.1783

> <Gold.Chemscore.DEInternal.Weighted>
0.9041

> <Gold.Chemscore.Rot.Weighted>
6.5982

> <Gold.Chemscore.Internal.Correction.Weighted>
   9.000000E+99

> <Gold.Protein.RotatedTorsions>
[ 6907 6896 6895 6894 ] final -121.90 input  -60.11 | X-H torsion
[ 7974 7965 7964 7962 ] final  175.64 input  175.53 | X-H torsion
[ 8008 7997 7996 7995 ] final   28.01 input   59.86 | X-H torsion
[ 10167 10162 10161 10158 ] final   81.99 input  -65.29 | X-H torsion
[ 10718 10713 10712 10709 ] final  -82.75 input   66.30 | X-H torsion
[ 10763 10752 10751 10750 ] final  169.08 input  -60.55 | X-H torsion
[ 11005 11000 10999 10996 ] final -154.61 input  -57.11 | X-H torsion

> <Gold.Protein.ActiveResidues>
 VAL166  LYS551  ARG553  GLY616  TRP617  ASP618  TYR619  PRO620  LYS621  CYS622 
 ASP623  PHE694  ASN695  SER759  ASP760  ASP761  ALA762  ILE779  LEU786  VAL792 
 PHE793  MET794  SER795  GLU796  ALA797  LYS798  CYS799  TRP800  GLU811  SER814 

> <Gold.Protein.RotatedAtoms>
  150.8526  133.7764  159.3020 H   0  0  0  0  0  0  0  0  0  0  0  0  # atno 6907 bound_to 6896
  151.5432  135.1066  159.9941 H   0  0  0  0  0  0  0  0  0  0  0  0  # atno 6908 bound_to 6896
  152.4564  133.7689  159.6844 H   0  0  0  0  0  0  0  0  0  0  0  0  # atno 6909 bound_to 6896
  144.7198  139.9976  143.6440 H   0  0  0  0  0  0  0  0  0  0  0  0  # atno 7974 bound_to 7965
  155.0519  140.3181  155.4689 H   0  0  0  0  0  0  0  0  0  0  0  0  # atno 8008 bound_to 7997
  156.2832  140.2144  156.5589 H   0  0  0  0  0  0  0  0  0  0  0  0  # atno 8009 bound_to 7997
  154.7203  140.0490  157.0621 H   0  0  0  0  0  0  0  0  0  0  0  0  # atno 8010 bound_to 7997
  139.9335  144.6137  150.8322 H   0  0  0  0  0  0  0  0  0  0  0  0  # atno 10167 bound_to 10162
  156.0028  130.4644  150.4152 H   0  0  0  0  0  0  0  0  0  0  0  0  # atno 10718 bound_to 10713
  154.3780  135.2753  155.2228 H   0  0  0  0  0  0  0  0  0  0  0  0  # atno 10763 bound_to 10752
  154.4347  135.5969  153.6094 H   0  0  0  0  0  0  0  0  0  0  0  0  # atno 10764 bound_to 10752
  152.9835  135.6004  154.4019 H   0  0  0  0  0  0  0  0  0  0  0  0  # atno 10765 bound_to 10752
  140.6954  134.3995  157.5215 H   0  0  0  0  0  0  0  0  0  0  0  0  # atno 11005 bound_to 11000
  146.0361  139.3379  143.0726 LP  0  0  0  0  0  0  0  0  0  0  0  0  # atno 17320 bound_to 7965
  145.8393  140.9589  143.0808 LP  0  0  0  0  0  0  0  0  0  0  0  0  # atno 17321 bound_to 7965
  140.7631  143.3214  151.2613 LP  0  0  0  0  0  0  0  0  0  0  0  0  # atno 17342 bound_to 10162
  139.6763  143.9932  152.2783 LP  0  0  0  0  0  0  0  0  0  0  0  0  # atno 17343 bound_to 10162
  157.2212  131.0483  151.2545 LP  0  0  0  0  0  0  0  0  0  0  0  0  # atno 17370 bound_to 10713
  157.3799  130.7225  149.6622 LP  0  0  0  0  0  0  0  0  0  0  0  0  # atno 17371 bound_to 10713
  139.8911  134.8787  156.2334 LP  0  0  0  0  0  0  0  0  0  0  0  0  # atno 17394 bound_to 11000
  141.0207  133.7043  156.1264 LP  0  0  0  0  0  0  0  0  0  0  0  0  # atno 17395 bound_to 11000

$$$$
