AV-unprocessed.smi:838|AV-procd|sdf|3908|dock3
  -GOLD-   22720 1373D 1   1.00000     0.00000
 Structure written by MMmdl.
 45 46  0  0  0  0  0  0  0  0  1 V2000
  151.6394  140.4172  157.5049 C   0  0  0  0  0  0  0  0  0  0  0  0
  151.5835  139.8550  156.0828 C   0  0  0  0  0  0  0  0  0  0  0  0
  151.2166  140.6051  155.1781 O   0  0  0  0  0  0  0  0  0  0  0  0
  151.9325  138.5645  155.8671 N   0  0  0  0  0  0  0  0  0  0  0  0
  152.3364  137.6500  156.9388 C   0  0  0  0  0  0  0  0  0  0  0  0
  151.3066  136.5080  157.0379 C   0  0  0  0  0  0  0  0  0  0  0  0
  151.2204  135.7914  155.7624 N   0  0  0  0  0  0  0  0  0  0  0  0
  150.2672  134.6888  155.8901 C   0  0  0  0  0  0  0  0  0  0  0  0
  148.7983  135.1314  155.7284 C   0  0  0  0  0  0  0  0  0  0  0  0
  148.3182  134.9252  154.3650 N   0  0  0  0  0  0  0  0  0  0  0  0
  147.2638  134.1716  154.0193 C   0  0  0  0  0  0  0  0  0  0  0  0
  146.5854  133.5381  154.8288 O   0  0  0  0  0  0  0  0  0  0  0  0
  147.0557  134.2109  152.6915 N   0  0  0  0  0  0  0  0  0  0  0  0
  146.0480  133.5518  151.9325 C   0  0  0  0  0  0  0  0  0  0  0  0
  145.7931  132.2243  152.0503 N   0  0  0  0  0  0  0  0  0  0  0  0
  144.8250  131.6633  151.2977 C   0  0  0  0  0  0  0  0  0  0  0  0
  144.0489  132.3903  150.3790 C   0  0  0  0  0  0  0  0  0  0  0  0
  144.2994  133.7666  150.2448 C   0  0  0  0  0  0  0  0  0  0  0  0
  145.3103  134.3625  151.0284 C   0  0  0  0  0  0  0  0  0  0  0  0
  145.5807  135.8517  150.8872 C   0  0  0  0  0  0  0  0  0  0  0  0
  150.8329  136.7205  154.6937 C   0  0  0  0  0  0  0  0  0  0  0  0
  151.8663  137.8579  154.5840 C   0  0  0  0  0  0  0  0  0  0  0  0
  152.6553  140.3741  157.8985 H   0  0  0  0  0  0  0  0  0  0  0  0
  150.9776  139.8588  158.1672 H   0  0  0  0  0  0  0  0  0  0  0  0
  151.3207  141.4599  157.5186 H   0  0  0  0  0  0  0  0  0  0  0  0
  153.3272  137.2498  156.7186 H   0  0  0  0  0  0  0  0  0  0  0  0
  152.4219  138.1463  157.9059 H   0  0  0  0  0  0  0  0  0  0  0  0
  151.6078  135.8175  157.8263 H   0  0  0  0  0  0  0  0  0  0  0  0
  150.3279  136.9043  157.3132 H   0  0  0  0  0  0  0  0  0  0  0  0
  150.4801  133.9437  155.1221 H   0  0  0  0  0  0  0  0  0  0  0  0
  150.4073  134.1897  156.8500 H   0  0  0  0  0  0  0  0  0  0  0  0
  148.1761  134.5212  156.3830 H   0  0  0  0  0  0  0  0  0  0  0  0
  148.6432  136.1589  156.0575 H   0  0  0  0  0  0  0  0  0  0  0  0
  148.8150  135.4105  153.6327 H   0  0  0  0  0  0  0  0  0  0  0  0
  147.6916  134.7836  152.1569 H   0  0  0  0  0  0  0  0  0  0  0  0
  144.6651  130.6039  151.4328 H   0  0  0  0  0  0  0  0  0  0  0  0
  143.2818  131.9050  149.7939 H   0  0  0  0  0  0  0  0  0  0  0  0
  143.7207  134.3550  149.5480 H   0  0  0  0  0  0  0  0  0  0  0  0
  144.9223  136.3069  150.1470 H   0  0  0  0  0  0  0  0  0  0  0  0
  146.6100  136.0254  150.5716 H   0  0  0  0  0  0  0  0  0  0  0  0
  145.4185  136.3601  151.8381 H   0  0  0  0  0  0  0  0  0  0  0  0
  150.7815  136.2021  153.7376 H   0  0  0  0  0  0  0  0  0  0  0  0
  149.8403  137.1288  154.8908 H   0  0  0  0  0  0  0  0  0  0  0  0
  151.6056  138.5007  153.7450 H   0  0  0  0  0  0  0  0  0  0  0  0
  152.8501  137.4496  154.3468 H   0  0  0  0  0  0  0  0  0  0  0  0
  1  2  1  0  0  0  0
  1 23  1  0  0  0  0
  1 24  1  0  0  0  0
  1 25  1  0  0  0  0
  2  3  2  0  0  0  0
  2  4  1  0  0  0  0
  4 22  1  0  0  0  0
  4  5  1  0  0  0  0
  5  6  1  0  0  0  0
  5 26  1  0  0  0  0
  5 27  1  0  0  0  0
  6  7  1  0  0  0  0
  6 28  1  0  0  0  0
  6 29  1  0  0  0  0
  7  8  1  0  0  0  0
  7 21  1  0  0  0  0
  8  9  1  0  0  0  0
  8 30  1  0  0  0  0
  8 31  1  0  0  0  0
  9 10  1  0  0  0  0
  9 32  1  0  0  0  0
  9 33  1  0  0  0  0
 10 11  1  0  0  0  0
 10 34  1  0  0  0  0
 11 12  2  0  0  0  0
 11 13  1  0  0  0  0
 13 14  1  0  0  0  0
 13 35  1  0  0  0  0
 14 19  1  0  0  0  0
 14 15  2  0  0  0  0
 15 16  1  0  0  0  0
 16 17  2  0  0  0  0
 16 36  1  0  0  0  0
 17 18  1  0  0  0  0
 17 37  1  0  0  0  0
 18 19  2  0  0  0  0
 18 38  1  0  0  0  0
 19 20  1  0  0  0  0
 20 39  1  0  0  0  0
 20 40  1  0  0  0  0
 20 41  1  0  0  0  0
 21 22  1  0  0  0  0
 21 42  1  0  0  0  0
 21 43  1  0  0  0  0
 22 44  1  0  0  0  0
 22 45  1  0  0  0  0
M  END
> <s_m_source_file>
AV-unprocessed.smi

> <i_m_source_file_index>
838

> <i_lp_mmshare_version>
43012

> <i_f3d_flags>
0

> <s_epik_input>
W0NIM11DKD1PKU4xW0NIMl1bQ0gyXU4oW0NIMl1bQ0gyXTEpW0NIMl1bQ0gyXVtOSF1DKD1PKVtOSF1jMm5bY0hdW2NIXVtjSF1jMltDSDNd

> <s_epik_cmdline>
J2VwaWtfcHl0aG9uJywgJy1waCcsICc3LjAnLCAnLXRuJywgJzgnLCAnLW1hJywgJzIwMCcsICctbWV0YWxfYmluZGluZycsICctaW1hZScsICc8aW5maWxlLm1hZT4nLCAnLW9tYWUnLCAnPG91dGZpbGUubWFlPic=

> <r_epik_Ionization_Penalty>
0.25102

> <r_epik_Ionization_Penalty_Charging>
0

> <r_epik_Ionization_Penalty_Neutral>
0.25102

> <r_epik_State_Penalty>
0.242297

> <r_epik_Charging_Adjusted_Penalty>
0.242297

> <i_epik_Tot_Q>
0

> <i_epik_Tot_abs_Q>
0

> <r_epik_Metal_State_Penalty>
0.242294

> <b_epik_Metal_Only>
0

> <s_lp_Force_Field>
OPLS_2005

> <r_lp_Energy>
40.132

> <b_lp_Chiralities_Consistent>
1

> <s_lp_Variant>
AV-unprocessed.smi:838-1

> <Gold.Version>
5.8.1

> <Gold.Id.Protein>
6NUR|6NUR_protein|mol2

> <Gold.PLP.Fitness>
48.2924

> <Gold.PLP.PLP>
-38.6158

> <Gold.PLP.part.hbond>
-4.0000

> <Gold.PLP.part.metal>
0.0000

> <Gold.PLP.part.buried>
-4.2968

> <Gold.PLP.part.nonpolar>
-29.8678

> <Gold.PLP.part.repulsive>
0.3162

> <Gold.PLP.ligand.clash>
0.0000

> <Gold.PLP.ligand.torsion>
0.8989

> <Gold.PLP.Chemscore.Hbond>
3.8160

> <Gold.PLP.Chemscore.CHOScore>
0.0000

> <Gold.PLP.Chemscore.Metal>
0.0000

> <Gold.Chemscore.Hbonds>
donor molecule, donor type, donor heavy atom, donor atom, acceptor molecule, acceptor atom, score
      L1  H    10    34       P1  7948  1.00
      L1  H    13    35       P1  7948  1.00
      P1  H  7989  7998       L1     3  0.90
      P1  H 10752 10765       L1     7  0.18

> <Gold.PLP.Chemscore.Internal.Correction>
0.0264

> <Gold.Rescore>
     Score         DG    S(hbond)    S(metal)    S(lipo)     H(rot)  DE(clash)    DE(int)     intcor
     19.01     -20.09       2.84        0.00      77.70       1.54       0.18       0.90       ----

> <Gold.Chemscore.Fitness>
19.0130

> <Gold.Chemscore.DG>
-20.0931

> <Gold.Chemscore.ZeroCoef>
-5.4800

> <Gold.Chemscore.Hbond>
2.8368

> <Gold.Chemscore.Metal>
0.0000

> <Gold.Chemscore.Lipo>
77.7030

> <Gold.Chemscore.Internal_Hbond>
0.0000

> <Gold.Chemscore.DEClash>
0.1836

> <Gold.Chemscore.DEInternal>
0.8965

> <Gold.Chemscore.Rot>
1.5441

> <Gold.Chemscore.Internal.Correction>
   9.000000E+99

> <Gold.Chemscore.Hbonds>
donor molecule, donor type, donor heavy atom, donor atom, acceptor molecule, acceptor atom, score
      L1  H    10    34       P1  7948  0.83
      L1  H    13    35       P1  7948  0.74
      P1  H  7989  7998       L1     3  0.87

> <Gold.Chemscore.Hbond.Weighted>
-9.4749

> <Gold.Chemscore.Metal.Weighted>
-0.0000

> <Gold.Chemscore.Lipo.Weighted>
-9.0913

> <Gold.Chemscore.Internal_Hbond.Weighted>
0.0000

> <Gold.Chemscore.DEClash.Weighted>
0.1836

> <Gold.Chemscore.DEInternal.Weighted>
0.8965

> <Gold.Chemscore.Rot.Weighted>
3.9530

> <Gold.Chemscore.Internal.Correction.Weighted>
   9.000000E+99

> <Gold.Protein.RotatedTorsions>
[ 6907 6896 6895 6894 ] final -134.16 input  -60.11 | X-H torsion
[ 7974 7965 7964 7962 ] final  -14.49 input  175.53 | X-H torsion
[ 8008 7997 7996 7995 ] final  169.11 input   59.86 | X-H torsion
[ 10167 10162 10161 10158 ] final  136.12 input  -65.29 | X-H torsion
[ 10718 10713 10712 10709 ] final -160.33 input   66.30 | X-H torsion
[ 10763 10752 10751 10750 ] final -179.12 input  -60.55 | X-H torsion
[ 11005 11000 10999 10996 ] final  -42.47 input  -57.11 | X-H torsion

> <Gold.Protein.ActiveResidues>
 VAL166  LYS551  ARG553  GLY616  TRP617  ASP618  TYR619  PRO620  LYS621  CYS622 
 ASP623  PHE694  ASN695  SER759  ASP760  ASP761  ALA762  ILE779  LEU786  VAL792 
 PHE793  MET794  SER795  GLU796  ALA797  LYS798  CYS799  TRP800  GLU811  SER814 

> <Gold.Protein.RotatedAtoms>
  150.9826  133.6230  159.2720 H   0  0  0  0  0  0  0  0  0  0  0  0  # atno 6907 bound_to 6896
  151.3480  135.0877  159.9403 H   0  0  0  0  0  0  0  0  0  0  0  0  # atno 6908 bound_to 6896
  152.5220  133.9424  159.7687 H   0  0  0  0  0  0  0  0  0  0  0  0  # atno 6909 bound_to 6896
  146.2072  140.3356  142.8403 H   0  0  0  0  0  0  0  0  0  0  0  0  # atno 7974 bound_to 7965
  156.1487  140.1573  156.8805 H   0  0  0  0  0  0  0  0  0  0  0  0  # atno 8008 bound_to 7997
  154.5051  140.0815  156.7915 H   0  0  0  0  0  0  0  0  0  0  0  0  # atno 8009 bound_to 7997
  155.3939  140.3411  155.4255 H   0  0  0  0  0  0  0  0  0  0  0  0  # atno 8010 bound_to 7997
  139.5191  144.6481  151.5381 H   0  0  0  0  0  0  0  0  0  0  0  0  # atno 10167 bound_to 10162
  156.5805  130.8727  151.2863 H   0  0  0  0  0  0  0  0  0  0  0  0  # atno 10718 bound_to 10713
  154.5390  135.2805  155.1112 H   0  0  0  0  0  0  0  0  0  0  0  0  # atno 10763 bound_to 10752
  154.2602  135.6323  153.5275 H   0  0  0  0  0  0  0  0  0  0  0  0  # atno 10764 bound_to 10752
  152.9974  135.5603  154.5925 H   0  0  0  0  0  0  0  0  0  0  0  0  # atno 10765 bound_to 10752
  141.0318  133.6817  156.2600 H   0  0  0  0  0  0  0  0  0  0  0  0  # atno 11005 bound_to 11000
  144.8822  140.7415  143.5980 LP  0  0  0  0  0  0  0  0  0  0  0  0  # atno 17320 bound_to 7965
  145.3276  139.1769  143.4554 LP  0  0  0  0  0  0  0  0  0  0  0  0  # atno 17321 bound_to 7965
  140.6274  143.9141  150.6576 LP  0  0  0  0  0  0  0  0  0  0  0  0  # atno 17342 bound_to 10162
  140.2434  143.3646  152.1467 LP  0  0  0  0  0  0  0  0  0  0  0  0  # atno 17343 bound_to 10162
  157.7327  130.9720  150.1943 LP  0  0  0  0  0  0  0  0  0  0  0  0  # atno 17370 bound_to 10713
  156.2635  130.3713  149.8105 LP  0  0  0  0  0  0  0  0  0  0  0  0  # atno 17371 bound_to 10713
  140.6393  134.5183  157.5568 LP  0  0  0  0  0  0  0  0  0  0  0  0  # atno 17394 bound_to 11000
  139.9213  134.8143  156.1203 LP  0  0  0  0  0  0  0  0  0  0  0  0  # atno 17395 bound_to 11000

$$$$
