AV-unprocessed.smi:2124|AV-procd|sdf|8657|dock3
  -GOLD-   2272011403D 1   1.00000     0.00000
 Structure written by MMmdl.
 47 49  0  0  0  0  0  0  0  0  1 V2000
  142.2887  138.8335  155.1788 C   0  0  0  0  0  0  0  0  0  0  0  0
  143.2544  139.7059  155.9530 C   0  0  0  0  0  0  0  0  0  0  0  0
  143.5264  139.5447  157.2063 N   0  0  0  0  0  0  0  0  0  0  0  0
  144.4372  140.4189  157.8158 C   0  0  0  0  0  0  0  0  0  0  0  0
  144.7003  140.1690  159.2910 C   0  0  0  0  0  0  0  0  0  0  0  0
  145.0385  141.4270  157.1183 C   0  0  0  0  0  0  0  0  0  0  0  0
  146.0286  142.3990  157.7584 C   0  0  0  0  0  0  0  0  0  0  0  0
  147.4703  141.8962  157.8657 C   0  0  0  0  0  0  0  0  0  0  0  0
  147.7162  140.6956  157.7488 O   0  0  0  0  0  0  0  0  0  0  0  0
  148.4107  142.8303  158.0801 N   0  0  0  0  0  0  0  0  0  0  0  0
  149.8517  142.5992  158.1742 C   0  0  1  0  0  0  0  0  0  0  0  0
  150.3129  141.8682  156.9039 C   0  0  0  0  0  0  0  0  0  0  0  0
  150.5893  143.9445  158.3836 C   0  0  1  0  0  0  0  0  0  0  0  0
  150.3972  144.5870  159.7774 C   0  0  0  0  0  0  0  0  0  0  0  0
  151.8371  144.9191  160.2095 C   0  0  1  0  0  0  0  0  0  0  0  0
  152.5569  143.6146  160.5976 C   0  0  0  0  0  0  0  0  0  0  0  0
  152.7886  142.9392  159.2340 C   0  0  0  0  0  0  0  0  0  0  0  0
  152.1328  143.9265  158.2464 C   0  0  2  0  0  0  0  0  0  0  0  0
  152.5008  145.2637  158.8816 C   0  0  0  0  0  0  0  0  0  0  0  0
  144.7217  141.6006  155.6873 C   0  0  0  0  0  0  0  0  0  0  0  0
  145.2007  142.4747  154.9667 O   0  0  0  0  0  0  0  0  0  0  0  0
  143.8344  140.7135  155.1842 N   0  0  0  0  0  0  0  0  0  0  0  0
  143.5836  140.7914  154.2095 H   0  0  0  0  0  0  0  0  0  0  0  0
  141.2903  138.9042  155.6108 H   0  0  0  0  0  0  0  0  0  0  0  0
  142.6076  137.7919  155.2203 H   0  0  0  0  0  0  0  0  0  0  0  0
  142.2287  139.1302  154.1308 H   0  0  0  0  0  0  0  0  0  0  0  0
  145.7499  139.9263  159.4578 H   0  0  0  0  0  0  0  0  0  0  0  0
  144.1021  139.3369  159.6647 H   0  0  0  0  0  0  0  0  0  0  0  0
  144.4488  141.0504  159.8812 H   0  0  0  0  0  0  0  0  0  0  0  0
  146.0169  143.3270  157.1854 H   0  0  0  0  0  0  0  0  0  0  0  0
  145.6963  142.6863  158.7563 H   0  0  0  0  0  0  0  0  0  0  0  0
  148.1042  143.7883  158.1687 H   0  0  0  0  0  0  0  0  0  0  0  0
  150.0539  141.9434  159.0212 H   0  0  0  0  0  0  0  0  0  0  0  0
  151.3701  141.6078  156.9565 H   0  0  0  0  0  0  0  0  0  0  0  0
  150.1648  142.4825  156.0153 H   0  0  0  0  0  0  0  0  0  0  0  0
  149.7585  140.9395  156.7635 H   0  0  0  0  0  0  0  0  0  0  0  0
  150.2086  144.6457  157.6381 H   0  0  0  0  0  0  0  0  0  0  0  0
  149.7911  145.4904  159.7008 H   0  0  0  0  0  0  0  0  0  0  0  0
  149.9105  143.9242  160.4935 H   0  0  0  0  0  0  0  0  0  0  0  0
  151.8969  145.6948  160.9734 H   0  0  0  0  0  0  0  0  0  0  0  0
  153.5078  143.8229  161.0896 H   0  0  0  0  0  0  0  0  0  0  0  0
  151.9601  142.9980  161.2708 H   0  0  0  0  0  0  0  0  0  0  0  0
  153.8576  142.8572  159.0325 H   0  0  0  0  0  0  0  0  0  0  0  0
  152.3751  141.9329  159.1841 H   0  0  0  0  0  0  0  0  0  0  0  0
  152.4786  143.8094  157.2188 H   0  0  0  0  0  0  0  0  0  0  0  0
  152.0491  146.1230  158.3824 H   0  0  0  0  0  0  0  0  0  0  0  0
  153.5774  145.4240  158.9645 H   0  0  0  0  0  0  0  0  0  0  0  0
  1  2  1  0  0  0  0
  1 24  1  0  0  0  0
  1 25  1  0  0  0  0
  1 26  1  0  0  0  0
  2 22  1  0  0  0  0
  2  3  2  0  0  0  0
  3  4  1  0  0  0  0
  4  5  1  0  0  0  0
  4  6  2  0  0  0  0
  5 27  1  0  0  0  0
  5 28  1  0  0  0  0
  5 29  1  0  0  0  0
  6  7  1  0  0  0  0
  6 20  1  0  0  0  0
  7  8  1  0  0  0  0
  7 30  1  0  0  0  0
  7 31  1  0  0  0  0
  8  9  2  0  0  0  0
  8 10  1  0  0  0  0
 10 11  1  0  0  0  0
 10 32  1  0  0  0  0
 11 12  1  0  0  0  0
 11 13  1  0  0  0  0
 11 33  1  0  0  0  0
 12 34  1  0  0  0  0
 12 35  1  0  0  0  0
 12 36  1  0  0  0  0
 13 18  1  0  0  0  0
 13 14  1  0  0  0  0
 13 37  1  0  0  0  0
 14 15  1  0  0  0  0
 14 38  1  0  0  0  0
 14 39  1  0  0  0  0
 15 19  1  0  0  0  0
 15 16  1  0  0  0  0
 15 40  1  0  0  0  0
 16 17  1  0  0  0  0
 16 41  1  0  0  0  0
 16 42  1  0  0  0  0
 17 18  1  0  0  0  0
 17 43  1  0  0  0  0
 17 44  1  0  0  0  0
 18 19  1  0  0  0  0
 18 45  1  0  0  0  0
 19 46  1  0  0  0  0
 19 47  1  0  0  0  0
 20 21  2  0  0  0  0
 20 22  1  0  0  0  0
 22 23  1  0  0  0  0
M  END
> <s_m_source_file>
AV-unprocessed.smi

> <i_m_source_file_index>
2124

> <i_lp_mmshare_version>
43012

> <i_f3d_flags>
0

> <s_epik_input>
W0NIM11jMW5jKFtDSDNdKWMoYyg9TylbbkhdMSlbQ0gyXUMoPU8pW05IXVtDQEhdKFtDSDNdKVtDQEhdKFtDSDJdW0NASF0yMylbQ0BIXShbQ0gyXTMpW0NIMl1bQ0gyXTI=

> <s_epik_cmdline>
J2VwaWtfcHl0aG9uJywgJy1waCcsICc3LjAnLCAnLXRuJywgJzgnLCAnLW1hJywgJzIwMCcsICctbWV0YWxfYmluZGluZycsICctaW1hZScsICc8aW5maWxlLm1hZT4nLCAnLW9tYWUnLCAnPG91dGZpbGUubWFlPic=

> <r_lp_tautomer_probability>
0.839158

> <r_epik_Ionization_Penalty>
0.000383628

> <r_epik_Ionization_Penalty_Charging>
0.00035045

> <r_epik_Ionization_Penalty_Neutral>
3.31781e-05

> <r_epik_State_Penalty>
0.09125

> <r_epik_Charging_Adjusted_Penalty>
0.0916005

> <i_epik_Tot_Q>
0

> <i_epik_Tot_abs_Q>
0

> <r_epik_Metal_State_Penalty>
0.255229

> <b_epik_Metal_Only>
0

> <s_lp_Force_Field>
OPLS_2005

> <r_lp_Energy>
52.5586

> <b_lp_Chiralities_Consistent>
1

> <s_lp_Variant>
AV-unprocessed.smi:2124-8

> <Gold.Version>
5.8.1

> <Gold.Id.Protein>
6NUR|6NUR_protein|mol2

> <Gold.PLP.Fitness>
40.1752

> <Gold.PLP.PLP>
-35.5475

> <Gold.PLP.part.hbond>
-3.4960

> <Gold.PLP.part.metal>
0.0000

> <Gold.PLP.part.buried>
-5.7496

> <Gold.PLP.part.nonpolar>
-26.9652

> <Gold.PLP.part.repulsive>
0.3047

> <Gold.PLP.ligand.clash>
0.0000

> <Gold.PLP.ligand.torsion>
0.6952

> <Gold.PLP.Chemscore.Hbond>
2.0000

> <Gold.PLP.Chemscore.CHOScore>
0.0000

> <Gold.PLP.Chemscore.Metal>
0.0000

> <Gold.Chemscore.Hbonds>
donor molecule, donor type, donor heavy atom, donor atom, acceptor molecule, acceptor atom, score
      L1  H    10    32       P1  8029  0.21
      L1  H    22    23       P1 10175  1.00

> <Gold.PLP.Chemscore.Internal.Correction>
0.0182

> <Gold.Rescore>
     Score         DG    S(hbond)    S(metal)    S(lipo)     H(rot)  DE(clash)    DE(int)     intcor
     15.72     -16.65       1.32        0.00      93.84       1.65       0.00       0.92       ----

> <Gold.Chemscore.Fitness>
15.7245

> <Gold.Chemscore.DG>
-16.6479

> <Gold.Chemscore.ZeroCoef>
-5.4800

> <Gold.Chemscore.Hbond>
1.3239

> <Gold.Chemscore.Metal>
0.0000

> <Gold.Chemscore.Lipo>
93.8354

> <Gold.Chemscore.Internal_Hbond>
0.0000

> <Gold.Chemscore.DEClash>
0.0040

> <Gold.Chemscore.DEInternal>
0.9193

> <Gold.Chemscore.Rot>
1.6534

> <Gold.Chemscore.Internal.Correction>
   9.000000E+99

> <Gold.Chemscore.Hbonds>
donor molecule, donor type, donor heavy atom, donor atom, acceptor molecule, acceptor atom, score
      L1  H    10    32       P1  8029  0.03
      L1  H    22    23       P1 10175  0.92

> <Gold.Chemscore.Hbond.Weighted>
-4.4217

> <Gold.Chemscore.Metal.Weighted>
-0.0000

> <Gold.Chemscore.Lipo.Weighted>
-10.9787

> <Gold.Chemscore.Internal_Hbond.Weighted>
0.0000

> <Gold.Chemscore.DEClash.Weighted>
0.0040

> <Gold.Chemscore.DEInternal.Weighted>
0.9193

> <Gold.Chemscore.Rot.Weighted>
4.2326

> <Gold.Chemscore.Internal.Correction.Weighted>
   9.000000E+99

> <Gold.Protein.RotatedTorsions>
[ 6907 6896 6895 6894 ] final  -55.34 input  -60.11 | X-H torsion
[ 7974 7965 7964 7962 ] final -151.15 input  175.53 | X-H torsion
[ 8008 7997 7996 7995 ] final   88.64 input   59.86 | X-H torsion
[ 10167 10162 10161 10158 ] final -164.79 input  -65.29 | X-H torsion
[ 10718 10713 10712 10709 ] final  124.36 input   66.30 | X-H torsion
[ 10763 10752 10751 10750 ] final  -55.57 input  -60.55 | X-H torsion
[ 11005 11000 10999 10996 ] final -109.64 input  -57.11 | X-H torsion

> <Gold.Protein.ActiveResidues>
 VAL166  LYS551  ARG553  GLY616  TRP617  ASP618  TYR619  PRO620  LYS621  CYS622 
 ASP623  PHE694  ASN695  SER759  ASP760  ASP761  ALA762  ILE779  LEU786  VAL792 
 PHE793  MET794  SER795  GLU796  ALA797  LYS798  CYS799  TRP800  GLU811  SER814 

> <Gold.Protein.RotatedAtoms>
  150.8260  134.7491  159.6812 H   0  0  0  0  0  0  0  0  0  0  0  0  # atno 6907 bound_to 6896
  152.4370  134.5662  159.9918 H   0  0  0  0  0  0  0  0  0  0  0  0  # atno 6908 bound_to 6896
  151.5835  133.3337  159.3049 H   0  0  0  0  0  0  0  0  0  0  0  0  # atno 6909 bound_to 6896
  144.7866  140.4836  143.5802 H   0  0  0  0  0  0  0  0  0  0  0  0  # atno 7974 bound_to 7965
  155.9903  140.3369  155.6746 H   0  0  0  0  0  0  0  0  0  0  0  0  # atno 8008 bound_to 7997
  155.6430  140.0697  157.2630 H   0  0  0  0  0  0  0  0  0  0  0  0  # atno 8009 bound_to 7997
  154.4217  140.1739  156.1580 H   0  0  0  0  0  0  0  0  0  0  0  0  # atno 8010 bound_to 7997
  139.6227  144.0594  152.1947 H   0  0  0  0  0  0  0  0  0  0  0  0  # atno 10167 bound_to 10162
  157.5591  131.1090  150.8570 H   0  0  0  0  0  0  0  0  0  0  0  0  # atno 10718 bound_to 10713
  154.1929  135.6424  153.5065 H   0  0  0  0  0  0  0  0  0  0  0  0  # atno 10763 bound_to 10752
  153.0030  135.5433  154.6396 H   0  0  0  0  0  0  0  0  0  0  0  0  # atno 10764 bound_to 10752
  154.5789  135.2923  155.0725 H   0  0  0  0  0  0  0  0  0  0  0  0  # atno 10765 bound_to 10752
  141.0836  133.9177  157.2234 H   0  0  0  0  0  0  0  0  0  0  0  0  # atno 11005 bound_to 11000
  145.5905  139.1495  143.3185 LP  0  0  0  0  0  0  0  0  0  0  0  0  # atno 17320 bound_to 7965
  146.2100  140.6031  142.9063 LP  0  0  0  0  0  0  0  0  0  0  0  0  # atno 17321 bound_to 7965
  140.0239  144.6132  150.7543 LP  0  0  0  0  0  0  0  0  0  0  0  0  # atno 17342 bound_to 10162
  140.7392  143.2788  151.3662 LP  0  0  0  0  0  0  0  0  0  0  0  0  # atno 17343 bound_to 10162
  156.9073  130.5268  149.5281 LP  0  0  0  0  0  0  0  0  0  0  0  0  # atno 17370 bound_to 10713
  156.0646  130.5692  150.9262 LP  0  0  0  0  0  0  0  0  0  0  0  0  # atno 17371 bound_to 10713
  139.9652  135.0143  156.9369 LP  0  0  0  0  0  0  0  0  0  0  0  0  # atno 17394 bound_to 11000
  140.5412  134.0718  155.7342 LP  0  0  0  0  0  0  0  0  0  0  0  0  # atno 17395 bound_to 11000

$$$$
