AV-unprocessed.smi:1516|AV-procd|sdf|6118|dock2
  -GOLD-   22720 6253D 1   1.00000     0.00000
 Structure written by MMmdl.
 45 46  0  0  0  0  0  0  0  0  1 V2000
  144.7349  135.3963  150.5333 C   0  0  0  0  0  0  0  0  0  0  0  0
  144.3312  135.7537  151.8953 N   0  0  0  0  0  0  0  0  0  0  0  0
  143.3930  134.8314  152.5398 C   0  0  0  0  0  0  0  0  0  0  0  0
  144.7662  136.8676  152.5291 C   0  0  0  0  0  0  0  0  0  0  0  0
  144.3772  137.1732  153.6586 O   0  0  0  0  0  0  0  0  0  0  0  0
  145.7649  137.7896  151.8012 C   0  0  0  0  0  0  0  0  0  0  0  0
  147.0855  137.8169  152.4279 N   0  0  0  0  0  0  0  0  0  0  0  0
  147.5052  138.7450  153.3004 C   0  0  0  0  0  0  0  0  0  0  0  0
  146.8000  139.6749  153.6923 O   0  0  0  0  0  0  0  0  0  0  0  0
  148.7827  138.5323  153.6591 N   0  0  0  0  0  0  0  0  0  0  0  0
  149.5844  139.2875  154.5566 C   0  0  0  0  0  0  0  0  0  0  0  0
  150.9830  139.1367  154.6961 C   0  0  0  0  0  0  0  0  0  0  0  0
  151.6714  139.9587  155.6088 C   0  0  0  0  0  0  0  0  0  0  0  0
  150.9487  140.9188  156.3612 C   0  0  0  0  0  0  0  0  0  0  0  0
  151.5791  141.7777  157.2900 N   0  0  0  0  0  0  0  0  0  0  0  0
  151.0814  143.1562  157.3366 C   0  0  0  0  0  0  0  0  0  0  0  0
  152.0925  144.0954  158.0160 C   0  0  0  0  0  0  0  0  0  0  0  0
  152.5021  143.5629  159.3962 C   0  0  0  0  0  0  0  0  0  0  0  0
  153.0398  142.1312  159.2636 C   0  0  0  0  0  0  0  0  0  0  0  0
  152.0163  141.2161  158.5698 C   0  0  0  0  0  0  0  0  0  0  0  0
  149.6104  141.0668  156.2113 N   0  0  0  0  0  0  0  0  0  0  0  0
  148.9554  140.2790  155.3338 C   0  0  0  0  0  0  0  0  0  0  0  0
  144.6459  136.2451  149.8542 H   0  0  0  0  0  0  0  0  0  0  0  0
  144.1160  134.5998  150.1186 H   0  0  0  0  0  0  0  0  0  0  0  0
  145.7693  135.0503  150.5219 H   0  0  0  0  0  0  0  0  0  0  0  0
  143.5928  134.7255  153.6075 H   0  0  0  0  0  0  0  0  0  0  0  0
  143.4496  133.8297  152.1121 H   0  0  0  0  0  0  0  0  0  0  0  0
  142.3710  135.1924  152.4197 H   0  0  0  0  0  0  0  0  0  0  0  0
  145.8678  137.4939  150.7560 H   0  0  0  0  0  0  0  0  0  0  0  0
  145.3703  138.8059  151.8055 H   0  0  0  0  0  0  0  0  0  0  0  0
  147.7338  137.0940  152.1522 H   0  0  0  0  0  0  0  0  0  0  0  0
  149.2575  137.7777  153.1857 H   0  0  0  0  0  0  0  0  0  0  0  0
  151.5427  138.4196  154.1160 H   0  0  0  0  0  0  0  0  0  0  0  0
  152.7374  139.8288  155.7167 H   0  0  0  0  0  0  0  0  0  0  0  0
  150.8654  143.5425  156.3408 H   0  0  0  0  0  0  0  0  0  0  0  0
  150.1394  143.1649  157.8863 H   0  0  0  0  0  0  0  0  0  0  0  0
  152.9773  144.1945  157.3858 H   0  0  0  0  0  0  0  0  0  0  0  0
  151.6664  145.0944  158.1112 H   0  0  0  0  0  0  0  0  0  0  0  0
  153.2582  144.2102  159.8412 H   0  0  0  0  0  0  0  0  0  0  0  0
  151.6427  143.5746  160.0678 H   0  0  0  0  0  0  0  0  0  0  0  0
  153.9666  142.1427  158.6880 H   0  0  0  0  0  0  0  0  0  0  0  0
  153.2909  141.7318  160.2466 H   0  0  0  0  0  0  0  0  0  0  0  0
  151.1471  141.0718  159.2125 H   0  0  0  0  0  0  0  0  0  0  0  0
  152.4750  140.2388  158.4158 H   0  0  0  0  0  0  0  0  0  0  0  0
  147.8907  140.4443  155.2557 H   0  0  0  0  0  0  0  0  0  0  0  0
  1  2  1  0  0  0  0
  1 23  1  0  0  0  0
  1 24  1  0  0  0  0
  1 25  1  0  0  0  0
  2  3  1  0  0  0  0
  2  4  1  0  0  0  0
  3 26  1  0  0  0  0
  3 27  1  0  0  0  0
  3 28  1  0  0  0  0
  4  5  2  0  0  0  0
  4  6  1  0  0  0  0
  6  7  1  0  0  0  0
  6 29  1  0  0  0  0
  6 30  1  0  0  0  0
  7  8  1  0  0  0  0
  7 31  1  0  0  0  0
  8  9  2  0  0  0  0
  8 10  1  0  0  0  0
 10 11  1  0  0  0  0
 10 32  1  0  0  0  0
 11 22  1  0  0  0  0
 11 12  2  0  0  0  0
 12 13  1  0  0  0  0
 12 33  1  0  0  0  0
 13 14  2  0  0  0  0
 13 34  1  0  0  0  0
 14 15  1  0  0  0  0
 14 21  1  0  0  0  0
 15 20  1  0  0  0  0
 15 16  1  0  0  0  0
 16 17  1  0  0  0  0
 16 35  1  0  0  0  0
 16 36  1  0  0  0  0
 17 18  1  0  0  0  0
 17 37  1  0  0  0  0
 17 38  1  0  0  0  0
 18 19  1  0  0  0  0
 18 39  1  0  0  0  0
 18 40  1  0  0  0  0
 19 20  1  0  0  0  0
 19 41  1  0  0  0  0
 19 42  1  0  0  0  0
 20 43  1  0  0  0  0
 20 44  1  0  0  0  0
 21 22  2  0  0  0  0
 22 45  1  0  0  0  0
M  END
> <s_m_source_file>
AV-unprocessed.smi

> <i_m_source_file_index>
1516

> <i_lp_mmshare_version>
43012

> <i_f3d_flags>
0

> <s_epik_input>
W0NIM11OKFtDSDNdKUMoPU8pW0NIMl1bTkhdQyg9TylbTkhdYzFbY0hdW2NIXWMobltjSF0xKU4yW0NIMl1bQ0gyXVtDSDJdW0NIMl1bQ0gyXTI=

> <s_epik_cmdline>
J2VwaWtfcHl0aG9uJywgJy1waCcsICc3LjAnLCAnLXRuJywgJzgnLCAnLW1hJywgJzIwMCcsICctbWV0YWxfYmluZGluZycsICctaW1hZScsICc8aW5maWxlLm1hZT4nLCAnLW9tYWUnLCAnPG91dGZpbGUubWFlPic=

> <r_lp_tautomer_probability>
1

> <r_epik_Ionization_Penalty>
0.256009

> <r_epik_Ionization_Penalty_Charging>
0

> <r_epik_Ionization_Penalty_Neutral>
0.256009

> <r_epik_State_Penalty>
0.242045

> <r_epik_Charging_Adjusted_Penalty>
0.242045

> <i_epik_Tot_Q>
0

> <i_epik_Tot_abs_Q>
0

> <r_epik_Metal_State_Penalty>
0.169174

> <b_epik_Metal_Only>
0

> <s_lp_Force_Field>
OPLS_2005

> <r_lp_Energy>
21.8032

> <b_lp_Chiralities_Consistent>
1

> <s_lp_Variant>
AV-unprocessed.smi:1516-1

> <Gold.Version>
5.8.1

> <Gold.Id.Protein>
6NUR|6NUR_protein|mol2

> <Gold.PLP.Fitness>
46.9360

> <Gold.PLP.PLP>
-43.4212

> <Gold.PLP.part.hbond>
-2.9696

> <Gold.PLP.part.metal>
0.0000

> <Gold.PLP.part.buried>
-0.7130

> <Gold.PLP.part.nonpolar>
-40.6018

> <Gold.PLP.part.repulsive>
0.4794

> <Gold.PLP.ligand.clash>
0.0000

> <Gold.PLP.ligand.torsion>
1.2329

> <Gold.PLP.Chemscore.Hbond>
1.8960

> <Gold.PLP.Chemscore.CHOScore>
0.0000

> <Gold.PLP.Chemscore.Metal>
0.0000

> <Gold.Chemscore.Hbonds>
donor molecule, donor type, donor heavy atom, donor atom, acceptor molecule, acceptor atom, score
      L1  H     7    31       P1  7948  0.94
      L1  H    10    32       P1  7948  0.88

> <Gold.PLP.Chemscore.Internal.Correction>
0.2925

> <Gold.Rescore>
     Score         DG    S(hbond)    S(metal)    S(lipo)     H(rot)  DE(clash)    DE(int)     intcor
     16.73     -19.98       1.73        0.00     102.05       1.26       0.75       2.50       ----

> <Gold.Chemscore.Fitness>
16.7296

> <Gold.Chemscore.DG>
-19.9799

> <Gold.Chemscore.ZeroCoef>
-5.4800

> <Gold.Chemscore.Hbond>
1.7327

> <Gold.Chemscore.Metal>
0.0000

> <Gold.Chemscore.Lipo>
102.0488

> <Gold.Chemscore.Internal_Hbond>
0.0000

> <Gold.Chemscore.DEClash>
0.7500

> <Gold.Chemscore.DEInternal>
2.5002

> <Gold.Chemscore.Rot>
1.2605

> <Gold.Chemscore.Internal.Correction>
   9.000000E+99

> <Gold.Chemscore.Hbonds>
donor molecule, donor type, donor heavy atom, donor atom, acceptor molecule, acceptor atom, score
      L1  H     7    31       P1  7948  0.90
      L1  H    10    32       P1  7948  0.80

> <Gold.Chemscore.Hbond.Weighted>
-5.7871

> <Gold.Chemscore.Metal.Weighted>
-0.0000

> <Gold.Chemscore.Lipo.Weighted>
-11.9397

> <Gold.Chemscore.Internal_Hbond.Weighted>
0.0000

> <Gold.Chemscore.DEClash.Weighted>
0.7500

> <Gold.Chemscore.DEInternal.Weighted>
2.5002

> <Gold.Chemscore.Rot.Weighted>
3.2269

> <Gold.Chemscore.Internal.Correction.Weighted>
   9.000000E+99

> <Gold.Protein.RotatedTorsions>
[ 6907 6896 6895 6894 ] final -139.68 input  -60.11 | X-H torsion
[ 7974 7965 7964 7962 ] final  -89.60 input  175.53 | X-H torsion
[ 8008 7997 7996 7995 ] final   52.64 input   59.86 | X-H torsion
[ 10167 10162 10161 10158 ] final -134.42 input  -65.29 | X-H torsion
[ 10718 10713 10712 10709 ] final   72.01 input   66.30 | X-H torsion
[ 10763 10752 10751 10750 ] final   92.88 input  -60.55 | X-H torsion
[ 11005 11000 10999 10996 ] final   36.80 input  -57.11 | X-H torsion

> <Gold.Protein.ActiveResidues>
 VAL166  LYS551  ARG553  GLY616  TRP617  ASP618  TYR619  PRO620  LYS621  CYS622 
 ASP623  PHE694  ASN695  SER759  ASP760  ASP761  ALA762  ILE779  LEU786  VAL792 
 PHE793  MET794  SER795  GLU796  ALA797  LYS798  CYS799  TRP800  GLU811  SER814 

> <Gold.Protein.RotatedAtoms>
  151.0509  133.5625  159.2642 H   0  0  0  0  0  0  0  0  0  0  0  0  # atno 6907 bound_to 6896
  151.2636  135.0661  159.9117 H   0  0  0  0  0  0  0  0  0  0  0  0  # atno 6908 bound_to 6896
  152.5381  134.0251  159.8053 H   0  0  0  0  0  0  0  0  0  0  0  0  # atno 6909 bound_to 6896
  145.4376  140.9558  143.2093 H   0  0  0  0  0  0  0  0  0  0  0  0  # atno 7974 bound_to 7965
  155.4552  140.3459  155.4306 H   0  0  0  0  0  0  0  0  0  0  0  0  # atno 8008 bound_to 7997
  156.1195  140.1483  156.9254 H   0  0  0  0  0  0  0  0  0  0  0  0  # atno 8009 bound_to 7997
  154.4813  140.0869  156.7363 H   0  0  0  0  0  0  0  0  0  0  0  0  # atno 8010 bound_to 7997
  139.8882  143.6755  152.2616 H   0  0  0  0  0  0  0  0  0  0  0  0  # atno 10167 bound_to 10162
  157.6480  130.9557  150.0869 H   0  0  0  0  0  0  0  0  0  0  0  0  # atno 10718 bound_to 10713
  153.2241  135.4345  155.0522 H   0  0  0  0  0  0  0  0  0  0  0  0  # atno 10763 bound_to 10752
  154.8265  135.3363  154.6883 H   0  0  0  0  0  0  0  0  0  0  0  0  # atno 10764 bound_to 10752
  153.7314  135.7011  153.5044 H   0  0  0  0  0  0  0  0  0  0  0  0  # atno 10765 bound_to 10752
  140.2289  134.3551  155.7972 H   0  0  0  0  0  0  0  0  0  0  0  0  # atno 11005 bound_to 11000
  144.8142  139.5906  143.7016 LP  0  0  0  0  0  0  0  0  0  0  0  0  # atno 17320 bound_to 7965
  146.2574  139.6332  142.9386 LP  0  0  0  0  0  0  0  0  0  0  0  0  # atno 17321 bound_to 7965
  139.7133  144.7616  151.1075 LP  0  0  0  0  0  0  0  0  0  0  0  0  # atno 17342 bound_to 10162
  140.7731  143.5301  150.9433 LP  0  0  0  0  0  0  0  0  0  0  0  0  # atno 17343 bound_to 10162
  156.1829  130.3651  149.9011 LP  0  0  0  0  0  0  0  0  0  0  0  0  # atno 17370 bound_to 10713
  156.6959  130.8914  151.3594 LP  0  0  0  0  0  0  0  0  0  0  0  0  # atno 17371 bound_to 10713
  141.2219  133.7234  156.8698 LP  0  0  0  0  0  0  0  0  0  0  0  0  # atno 17394 bound_to 11000
  140.1771  134.9059  157.2904 LP  0  0  0  0  0  0  0  0  0  0  0  0  # atno 17395 bound_to 11000

$$$$
