AV-unprocessed.smi:598|AV-procd|sdf|3025|dock2
  -GOLD-   2262023533D 1   1.00000     0.00000
 Structure written by MMmdl.
 43 44  0  0  0  0  0  0  0  0  3 V2000
  152.5614  144.2568  158.6478 C   0  0  0  0  0  0  0  0  0  0  0  0
  151.8801  143.2299  159.5757 C   0  0  2  0  0  0  0  0  0  0  0  0
  152.8939  142.5682  160.5314 C   0  0  0  0  0  0  0  0  0  0  0  0
  153.8080  141.5683  159.8062 C   0  0  0  0  0  0  0  0  0  0  0  0
  152.9870  140.5004  159.0707 C   0  0  0  0  0  0  0  0  0  0  0  0
  151.9642  141.1265  158.1002 C   0  0  1  0  0  0  0  0  0  0  0  0
  151.1579  140.0700  157.4916 N   0  0  0  0  0  0  0  0  0  0  0  0
  151.0599  139.8250  156.1764 C   0  0  0  0  0  0  0  0  0  0  0  0
  151.6734  140.4656  155.3218 O   0  0  0  0  0  0  0  0  0  0  0  0
  150.1405  138.6623  155.7771 C   0  0  0  0  0  0  0  0  0  0  0  0
  148.9458  138.5493  156.6307 N   0  0  0  0  0  0  0  0  0  0  0  0
  149.0646  137.7728  157.8004 C   0  0  0  0  0  0  0  0  0  0  0  0
  148.0335  137.5954  158.6498 C   0  0  0  0  0  0  0  0  0  0  0  0
  148.1717  136.7898  159.8432 N   0  3  0  0  0  0  0  0  0  0  0  0
  148.8280  135.7550  159.7819 O   0  0  0  0  0  0  0  0  0  0  0  0
  147.6294  137.1627  160.8795 O   0  5  0  0  0  0  0  0  0  0  0  0
  146.7743  138.2371  158.3249 C   0  0  0  0  0  0  0  0  0  0  0  0
  146.6536  138.9785  157.2061 C   0  0  0  0  0  0  0  0  0  0  0  0
  147.7760  139.1672  156.2813 C   0  0  0  0  0  0  0  0  0  0  0  0
  147.6710  139.8394  155.2551 O   0  0  0  0  0  0  0  0  0  0  0  0
  151.0534  142.1482  158.8294 C   0  0  2  0  0  0  0  0  0  0  0  0
  149.9798  142.7615  157.9083 C   0  0  0  0  0  0  0  0  0  0  0  0
  153.2409  143.7851  157.9387 H   0  0  0  0  0  0  0  0  0  0  0  0
  153.1408  144.9771  159.2259 H   0  0  0  0  0  0  0  0  0  0  0  0
  151.8303  144.8272  158.0753 H   0  0  0  0  0  0  0  0  0  0  0  0
  151.1864  143.7965  160.1986 H   0  0  0  0  0  0  0  0  0  0  0  0
  153.4952  143.3282  161.0314 H   0  0  0  0  0  0  0  0  0  0  0  0
  152.3533  142.0451  161.3214 H   0  0  0  0  0  0  0  0  0  0  0  0
  154.4496  142.0927  159.0975 H   0  0  0  0  0  0  0  0  0  0  0  0
  154.4746  141.0905  160.5246 H   0  0  0  0  0  0  0  0  0  0  0  0
  153.6599  139.8339  158.5300 H   0  0  0  0  0  0  0  0  0  0  0  0
  152.4667  139.8825  159.8041 H   0  0  0  0  0  0  0  0  0  0  0  0
  152.5051  141.6523  157.3115 H   0  0  0  0  0  0  0  0  0  0  0  0
  150.6241  139.4890  158.1217 H   0  0  0  0  0  0  0  0  0  0  0  0
  149.8548  138.8001  154.7336 H   0  0  0  0  0  0  0  0  0  0  0  0
  150.7052  137.7280  155.7962 H   0  0  0  0  0  0  0  0  0  0  0  0
  150.0398  137.3318  157.9485 H   0  0  0  0  0  0  0  0  0  0  0  0
  145.9190  138.1273  158.9756 H   0  0  0  0  0  0  0  0  0  0  0  0
  145.7058  139.4465  156.9831 H   0  0  0  0  0  0  0  0  0  0  0  0
  150.5102  141.5964  159.5987 H   0  0  0  0  0  0  0  0  0  0  0  0
  150.4247  143.2330  157.0316 H   0  0  0  0  0  0  0  0  0  0  0  0
  149.3956  143.5162  158.4350 H   0  0  0  0  0  0  0  0  0  0  0  0
  149.2796  142.0061  157.5513 H   0  0  0  0  0  0  0  0  0  0  0  0
  1  2  1  0  0  0  0
  1 23  1  0  0  0  0
  1 24  1  0  0  0  0
  1 25  1  0  0  0  0
  2 21  1  0  0  0  0
  2  3  1  0  0  0  0
  2 26  1  0  0  0  0
  3  4  1  0  0  0  0
  3 27  1  0  0  0  0
  3 28  1  0  0  0  0
  4  5  1  0  0  0  0
  4 29  1  0  0  0  0
  4 30  1  0  0  0  0
  5  6  1  0  0  0  0
  5 31  1  0  0  0  0
  5 32  1  0  0  0  0
  6  7  1  0  0  0  0
  6 21  1  0  0  0  0
  6 33  1  0  0  0  0
  7  8  1  0  0  0  0
  7 34  1  0  0  0  0
  8  9  2  0  0  0  0
  8 10  1  0  0  0  0
 10 11  1  0  0  0  0
 10 35  1  0  0  0  0
 10 36  1  0  0  0  0
 11 19  1  0  0  0  0
 11 12  1  0  0  0  0
 12 13  2  0  0  0  0
 12 37  1  0  0  0  0
 13 14  1  0  0  0  0
 13 17  1  0  0  0  0
 14 15  2  0  0  0  0
 14 16  1  0  0  0  0
 17 18  2  0  0  0  0
 17 38  1  0  0  0  0
 18 19  1  0  0  0  0
 18 39  1  0  0  0  0
 19 20  2  0  0  0  0
 21 22  1  0  0  0  0
 21 40  1  0  0  0  0
 22 41  1  0  0  0  0
 22 42  1  0  0  0  0
 22 43  1  0  0  0  0
M  CHG  1  14   1
M  CHG  1  16  -1
M  END
> <s_m_source_file>
AV-unprocessed.smi

> <i_m_source_file_index>
598

> <i_lp_mmshare_version>
43012

> <i_f3d_flags>
0

> <s_epik_input>
W0NIM11bQ0BASF0xW0NIMl1bQ0gyXVtDSDJdW0NASF0oW0NASF0xW0NIM10pW05IXUMoPU8pW0NIMl1uMltjSF1jKFtOK10oPU8pW08tXSlbY0hdW2NIXWMyPU8=

> <s_epik_cmdline>
J2VwaWtfcHl0aG9uJywgJy1waCcsICc3LjAnLCAnLXRuJywgJzgnLCAnLW1hJywgJzIwMCcsICctbWV0YWxfYmluZGluZycsICctaW1hZScsICc8aW5maWxlLm1hZT4nLCAnLW9tYWUnLCAnPG91dGZpbGUubWFlPic=

> <r_lp_tautomer_probability>
1

> <r_epik_Ionization_Penalty>
1.91291e-08

> <r_epik_Ionization_Penalty_Charging>
8.21931e-11

> <r_epik_Ionization_Penalty_Neutral>
1.90469e-08

> <r_epik_State_Penalty>
-0

> <r_epik_Charging_Adjusted_Penalty>
8.21931e-11

> <i_epik_Tot_Q>
0

> <i_epik_Tot_abs_Q>
2

> <r_epik_Metal_State_Penalty>
-0

> <b_epik_Metal_Only>
0

> <s_lp_Force_Field>
OPLS_2005

> <r_lp_Energy>
25.21

> <b_lp_Chiralities_Consistent>
1

> <s_lp_Variant>
AV-unprocessed.smi:598-5

> <Gold.Version>
5.8.1

> <Gold.Id.Protein>
6NUR|6NUR_protein|mol2

> <Gold.PLP.Fitness>
41.0190

> <Gold.PLP.PLP>
-32.8551

> <Gold.PLP.part.hbond>
-4.0000

> <Gold.PLP.part.metal>
0.0000

> <Gold.PLP.part.buried>
-3.4796

> <Gold.PLP.part.nonpolar>
-26.1514

> <Gold.PLP.part.repulsive>
0.0814

> <Gold.PLP.ligand.clash>
0.0000

> <Gold.PLP.ligand.torsion>
1.3276

> <Gold.PLP.Chemscore.Hbond>
3.5988

> <Gold.PLP.Chemscore.CHOScore>
0.0000

> <Gold.PLP.Chemscore.Metal>
0.0000

> <Gold.Chemscore.Hbonds>
donor molecule, donor type, donor heavy atom, donor atom, acceptor molecule, acceptor atom, score
      P1  H  6896  6907       L1    15  0.65
      P1  H  6931  6943       L1    16  0.83
      P1  H  6934  6947       L1    16  0.94
      P1  H  7989  7998       L1     9  0.80

> <Gold.PLP.Chemscore.Internal.Correction>
0.0228

> <Gold.Rescore>
     Score         DG    S(hbond)    S(metal)    S(lipo)     H(rot)  DE(clash)    DE(int)     intcor
     20.31     -21.86       3.19        0.00      82.68       1.54       0.14       1.42       ----

> <Gold.Chemscore.Fitness>
20.3065

> <Gold.Chemscore.DG>
-21.8589

> <Gold.Chemscore.ZeroCoef>
-5.4800

> <Gold.Chemscore.Hbond>
3.1876

> <Gold.Chemscore.Metal>
0.0000

> <Gold.Chemscore.Lipo>
82.6752

> <Gold.Chemscore.Internal_Hbond>
0.0000

> <Gold.Chemscore.DEClash>
0.1374

> <Gold.Chemscore.DEInternal>
1.4150

> <Gold.Chemscore.Rot>
1.5393

> <Gold.Chemscore.Internal.Correction>
   9.000000E+99

> <Gold.Chemscore.Hbonds>
donor molecule, donor type, donor heavy atom, donor atom, acceptor molecule, acceptor atom, score
      P1  H  6896  6907       L1    15  0.64
      P1  H  6931  6943       L1    16  0.43
      P1  H  6934  6947       L1    16  0.82
      P1  H  7989  7998       L1     9  0.80

> <Gold.Chemscore.Hbond.Weighted>
-10.6466

> <Gold.Chemscore.Metal.Weighted>
-0.0000

> <Gold.Chemscore.Lipo.Weighted>
-9.6730

> <Gold.Chemscore.Internal_Hbond.Weighted>
0.0000

> <Gold.Chemscore.DEClash.Weighted>
0.1374

> <Gold.Chemscore.DEInternal.Weighted>
1.4150

> <Gold.Chemscore.Rot.Weighted>
3.9407

> <Gold.Chemscore.Internal.Correction.Weighted>
   9.000000E+99

> <Gold.Protein.RotatedTorsions>
[ 6907 6896 6895 6894 ] final  -55.52 input  -60.11 | X-H torsion
[ 7974 7965 7964 7962 ] final  -10.63 input  175.53 | X-H torsion
[ 8008 7997 7996 7995 ] final   80.74 input   59.86 | X-H torsion
[ 10167 10162 10161 10158 ] final -147.88 input  -65.29 | X-H torsion
[ 10718 10713 10712 10709 ] final  -99.08 input   66.30 | X-H torsion
[ 10763 10752 10751 10750 ] final  175.93 input  -60.55 | X-H torsion
[ 11005 11000 10999 10996 ] final  -52.86 input  -57.11 | X-H torsion

> <Gold.Protein.ActiveResidues>
 VAL166  LYS551  ARG553  GLY616  TRP617  ASP618  TYR619  PRO620  LYS621  CYS622 
 ASP623  PHE694  ASN695  SER759  ASP760  ASP761  ALA762  ILE779  LEU786  VAL792 
 PHE793  MET794  SER795  GLU796  ALA797  LYS798  CYS799  TRP800  GLU811  SER814 

> <Gold.Protein.RotatedAtoms>
  150.8245  134.7469  159.6800 H   0  0  0  0  0  0  0  0  0  0  0  0  # atno 6907 bound_to 6896
  152.4357  134.5687  159.9925 H   0  0  0  0  0  0  0  0  0  0  0  0  # atno 6908 bound_to 6896
  151.5863  133.3334  159.3054 H   0  0  0  0  0  0  0  0  0  0  0  0  # atno 6909 bound_to 6896
  146.2214  140.2792  142.8361 H   0  0  0  0  0  0  0  0  0  0  0  0  # atno 7974 bound_to 7965
  155.8877  140.3440  155.5933 H   0  0  0  0  0  0  0  0  0  0  0  0  # atno 8008 bound_to 7997
  155.7647  140.0837  157.2157 H   0  0  0  0  0  0  0  0  0  0  0  0  # atno 8009 bound_to 7997
  154.4030  140.1529  156.2860 H   0  0  0  0  0  0  0  0  0  0  0  0  # atno 8010 bound_to 7997
  139.7582  143.8416  152.2601 H   0  0  0  0  0  0  0  0  0  0  0  0  # atno 10167 bound_to 10162
  156.0124  130.5267  150.6618 H   0  0  0  0  0  0  0  0  0  0  0  0  # atno 10718 bound_to 10713
  154.4743  135.2772  155.1619 H   0  0  0  0  0  0  0  0  0  0  0  0  # atno 10763 bound_to 10752
  154.3355  135.6181  153.5575 H   0  0  0  0  0  0  0  0  0  0  0  0  # atno 10764 bound_to 10752
  152.9867  135.5776  154.5130 H   0  0  0  0  0  0  0  0  0  0  0  0  # atno 10765 bound_to 10752
  141.0946  133.6627  156.4086 H   0  0  0  0  0  0  0  0  0  0  0  0  # atno 11005 bound_to 11000
  144.9210  140.7867  143.5748 LP  0  0  0  0  0  0  0  0  0  0  0  0  # atno 17320 bound_to 7965
  145.2729  139.1948  143.4832 LP  0  0  0  0  0  0  0  0  0  0  0  0  # atno 17321 bound_to 7965
  139.8414  144.7208  150.9326 LP  0  0  0  0  0  0  0  0  0  0  0  0  # atno 17342 bound_to 10162
  140.7805  143.3980  151.1197 LP  0  0  0  0  0  0  0  0  0  0  0  0  # atno 17343 bound_to 10162
  157.4359  131.0855  151.0993 LP  0  0  0  0  0  0  0  0  0  0  0  0  # atno 17370 bound_to 10713
  157.1551  130.6201  149.5594 LP  0  0  0  0  0  0  0  0  0  0  0  0  # atno 17371 bound_to 10713
  140.5171  134.6340  157.5305 LP  0  0  0  0  0  0  0  0  0  0  0  0  # atno 17394 bound_to 11000
  139.9780  134.7184  155.9914 LP  0  0  0  0  0  0  0  0  0  0  0  0  # atno 17395 bound_to 11000

$$$$
