AV-unprocessed.smi:2222|AV-procd|sdf|8988|dock5
  -GOLD-   2272012203D 1   1.00000     0.00000
 Structure written by MMmdl.
 34 35  0  0  0  0  0  0  0  0  1 V2000
  152.3313  139.0636  155.1346 C   0  0  0  0  0  0  0  0  0  0  0  0
  151.4392  140.1557  154.9665 O   0  0  0  0  0  0  0  0  0  0  0  0
  150.0929  139.8835  154.8187 C   0  0  0  0  0  0  0  0  0  0  0  0
  149.5921  138.6782  154.2642 C   0  0  0  0  0  0  0  0  0  0  0  0
  148.2031  138.4932  154.1534 C   0  0  0  0  0  0  0  0  0  0  0  0
  147.3578  139.5227  154.6041 C   0  0  0  0  0  0  0  0  0  0  0  0
  145.8518  139.3926  154.5159 C   0  0  0  0  0  0  0  0  0  0  0  0
  147.8219  140.6727  155.1325 N   0  0  0  0  0  0  0  0  0  0  0  0
  149.1597  140.8638  155.2445 C   0  0  0  0  0  0  0  0  0  0  0  0
  149.7274  142.0487  155.7874 N   0  0  0  0  0  0  0  0  0  0  0  0
  150.6986  142.1722  156.7139 C   0  0  0  0  0  0  0  0  0  0  0  0
  151.3026  141.2309  157.2252 O   0  0  0  0  0  0  0  0  0  0  0  0
  151.0044  143.4443  157.0272 N   0  0  0  0  0  0  0  0  0  0  0  0
  151.9820  143.9079  157.9657 C   0  0  1  0  0  0  0  0  0  0  0  0
  151.4859  144.8320  159.0562 C   0  0  0  0  0  0  0  0  0  0  0  0
  151.8905  143.4231  159.3980 C   0  0  2  0  0  0  0  0  0  0  0  0
  153.1392  143.1726  160.2149 C   0  0  0  0  0  0  0  0  0  0  0  0
  153.3484  139.4429  155.2328 H   0  0  0  0  0  0  0  0  0  0  0  0
  152.3108  138.3953  154.2726 H   0  0  0  0  0  0  0  0  0  0  0  0
  152.1025  138.4966  156.0379 H   0  0  0  0  0  0  0  0  0  0  0  0
  150.2450  137.8905  153.9206 H   0  0  0  0  0  0  0  0  0  0  0  0
  147.8012  137.5832  153.7329 H   0  0  0  0  0  0  0  0  0  0  0  0
  145.5596  138.3951  154.1867 H   0  0  0  0  0  0  0  0  0  0  0  0
  145.4513  140.1179  153.8073 H   0  0  0  0  0  0  0  0  0  0  0  0
  145.3964  139.5751  155.4897 H   0  0  0  0  0  0  0  0  0  0  0  0
  149.3382  142.9104  155.4337 H   0  0  0  0  0  0  0  0  0  0  0  0
  150.5342  144.1618  156.4945 H   0  0  0  0  0  0  0  0  0  0  0  0
  152.9755  144.1439  157.5870 H   0  0  0  0  0  0  0  0  0  0  0  0
  152.1466  145.6394  159.3657 H   0  0  0  0  0  0  0  0  0  0  0  0
  150.4236  145.0671  159.0837 H   0  0  0  0  0  0  0  0  0  0  0  0
  151.0777  142.7347  159.6222 H   0  0  0  0  0  0  0  0  0  0  0  0
  153.9229  143.8846  159.9542 H   0  0  0  0  0  0  0  0  0  0  0  0
  153.5103  142.1647  160.0299 H   0  0  0  0  0  0  0  0  0  0  0  0
  152.9176  143.2728  161.2775 H   0  0  0  0  0  0  0  0  0  0  0  0
  1  2  1  0  0  0  0
  1 18  1  0  0  0  0
  1 19  1  0  0  0  0
  1 20  1  0  0  0  0
  2  3  1  0  0  0  0
  3  9  1  0  0  0  0
  3  4  2  0  0  0  0
  4  5  1  0  0  0  0
  4 21  1  0  0  0  0
  5  6  2  0  0  0  0
  5 22  1  0  0  0  0
  6  7  1  0  0  0  0
  6  8  1  0  0  0  0
  7 23  1  0  0  0  0
  7 24  1  0  0  0  0
  7 25  1  0  0  0  0
  8  9  2  0  0  0  0
  9 10  1  0  0  0  0
 10 11  1  0  0  0  0
 10 26  1  0  0  0  0
 11 12  2  0  0  0  0
 11 13  1  0  0  0  0
 13 14  1  0  0  0  0
 13 27  1  0  0  0  0
 14 16  1  0  0  0  0
 14 15  1  0  0  0  0
 14 28  1  0  0  0  0
 15 16  1  0  0  0  0
 15 29  1  0  0  0  0
 15 30  1  0  0  0  0
 16 17  1  0  0  0  0
 16 31  1  0  0  0  0
 17 32  1  0  0  0  0
 17 33  1  0  0  0  0
 17 34  1  0  0  0  0
M  END
> <s_m_source_file>
AV-unprocessed.smi

> <i_m_source_file_index>
2222

> <i_lp_mmshare_version>
43012

> <i_f3d_flags>
0

> <s_epik_input>
W0NIM11PYzFbY0hdW2NIXWMoW0NIM10pbmMxW05IXUMoPU8pW05IXVtDQEBIXTJbQ0gyXVtDQEhdMltDSDNd

> <s_epik_cmdline>
J2VwaWtfcHl0aG9uJywgJy1waCcsICc3LjAnLCAnLXRuJywgJzgnLCAnLW1hJywgJzIwMCcsICctbWV0YWxfYmluZGluZycsICctaW1hZScsICc8aW5maWxlLm1hZT4nLCAnLW9tYWUnLCAnPG91dGZpbGUubWFlPic=

> <r_lp_tautomer_probability>
1

> <r_epik_Ionization_Penalty>
6.59103e-05

> <r_epik_Ionization_Penalty_Charging>
0

> <r_epik_Ionization_Penalty_Neutral>
6.59103e-05

> <r_epik_State_Penalty>
-0

> <r_epik_Charging_Adjusted_Penalty>
0

> <i_epik_Tot_Q>
0

> <i_epik_Tot_abs_Q>
0

> <r_epik_Metal_State_Penalty>
-0

> <b_epik_Metal_Only>
0

> <s_lp_Force_Field>
OPLS_2005

> <r_lp_Energy>
33.3795

> <b_lp_Chiralities_Consistent>
1

> <s_lp_Variant>
AV-unprocessed.smi:2222-4

> <Gold.Version>
5.8.1

> <Gold.Id.Protein>
6NUR|6NUR_protein|mol2

> <Gold.PLP.Fitness>
41.5598

> <Gold.PLP.PLP>
-34.1491

> <Gold.PLP.part.hbond>
-2.9618

> <Gold.PLP.part.metal>
0.0000

> <Gold.PLP.part.buried>
-4.4631

> <Gold.PLP.part.nonpolar>
-27.9268

> <Gold.PLP.part.repulsive>
0.2954

> <Gold.PLP.ligand.clash>
0.0000

> <Gold.PLP.ligand.torsion>
0.7994

> <Gold.PLP.Chemscore.Hbond>
2.9920

> <Gold.PLP.Chemscore.CHOScore>
0.0000

> <Gold.PLP.Chemscore.Metal>
0.0000

> <Gold.Chemscore.Hbonds>
donor molecule, donor type, donor heavy atom, donor atom, acceptor molecule, acceptor atom, score
      L1  H    10    26       P1  8028  1.00
      L1  H    13    27       P1  8028  0.96
      P1  H  7989  7998       L1     2  0.85

> <Gold.PLP.Chemscore.Internal.Correction>
0.0335

> <Gold.Rescore>
     Score         DG    S(hbond)    S(metal)    S(lipo)     H(rot)  DE(clash)    DE(int)     intcor
     15.34     -19.07       2.29        0.00      77.37       1.22       0.01       3.72       ----

> <Gold.Chemscore.Fitness>
15.3413

> <Gold.Chemscore.DG>
-19.0743

> <Gold.Chemscore.ZeroCoef>
-5.4800

> <Gold.Chemscore.Hbond>
2.2926

> <Gold.Chemscore.Metal>
0.0000

> <Gold.Chemscore.Lipo>
77.3666

> <Gold.Chemscore.Internal_Hbond>
0.0000

> <Gold.Chemscore.DEClash>
0.0126

> <Gold.Chemscore.DEInternal>
3.7204

> <Gold.Chemscore.Rot>
1.2168

> <Gold.Chemscore.Internal.Correction>
   9.000000E+99

> <Gold.Chemscore.Hbonds>
donor molecule, donor type, donor heavy atom, donor atom, acceptor molecule, acceptor atom, score
      L1  H    10    26       P1  8028  0.96
      L1  H    13    27       P1  8028  0.92
      P1  H  7989  7998       L1     2  0.11

> <Gold.Chemscore.Hbond.Weighted>
-7.6574

> <Gold.Chemscore.Metal.Weighted>
-0.0000

> <Gold.Chemscore.Lipo.Weighted>
-9.0519

> <Gold.Chemscore.Internal_Hbond.Weighted>
0.0000

> <Gold.Chemscore.DEClash.Weighted>
0.0126

> <Gold.Chemscore.DEInternal.Weighted>
3.7204

> <Gold.Chemscore.Rot.Weighted>
3.1150

> <Gold.Chemscore.Internal.Correction.Weighted>
   9.000000E+99

> <Gold.Protein.RotatedTorsions>
[ 6907 6896 6895 6894 ] final  -91.49 input  -60.11 | X-H torsion
[ 7974 7965 7964 7962 ] final  113.30 input  175.53 | X-H torsion
[ 8008 7997 7996 7995 ] final  -81.85 input   59.86 | X-H torsion
[ 10167 10162 10161 10158 ] final  -92.39 input  -65.29 | X-H torsion
[ 10718 10713 10712 10709 ] final  -80.10 input   66.30 | X-H torsion
[ 10763 10752 10751 10750 ] final  -29.03 input  -60.55 | X-H torsion
[ 11005 11000 10999 10996 ] final  -72.69 input  -57.11 | X-H torsion

> <Gold.Protein.ActiveResidues>
 VAL166  LYS551  ARG553  GLY616  TRP617  ASP618  TYR619  PRO620  LYS621  CYS622 
 ASP623  PHE694  ASN695  SER759  ASP760  ASP761  ALA762  ILE779  LEU786  VAL792 
 PHE793  MET794  SER795  GLU796  ALA797  LYS798  CYS799  TRP800  GLU811  SER814 

> <Gold.Protein.RotatedAtoms>
  150.6893  134.2269  159.4418 H   0  0  0  0  0  0  0  0  0  0  0  0  # atno 6907 bound_to 6896
  152.0222  134.9814  160.0580 H   0  0  0  0  0  0  0  0  0  0  0  0  # atno 6908 bound_to 6896
  152.1386  133.4415  159.4793 H   0  0  0  0  0  0  0  0  0  0  0  0  # atno 6909 bound_to 6896
  145.2187  139.2872  143.4230 H   0  0  0  0  0  0  0  0  0  0  0  0  # atno 7974 bound_to 7965
  154.6025  140.0642  156.9387 H   0  0  0  0  0  0  0  0  0  0  0  0  # atno 8008 bound_to 7997
  155.2108  140.3322  155.4311 H   0  0  0  0  0  0  0  0  0  0  0  0  # atno 8009 bound_to 7997
  156.2327  140.1848  156.7184 H   0  0  0  0  0  0  0  0  0  0  0  0  # atno 8010 bound_to 7997
  140.3353  143.2972  151.9896 H   0  0  0  0  0  0  0  0  0  0  0  0  # atno 10167 bound_to 10162
  156.0077  130.4564  150.3749 H   0  0  0  0  0  0  0  0  0  0  0  0  # atno 10718 bound_to 10713
  153.7581  135.6921  153.4931 H   0  0  0  0  0  0  0  0  0  0  0  0  # atno 10763 bound_to 10752
  153.1957  135.4454  155.0204 H   0  0  0  0  0  0  0  0  0  0  0  0  # atno 10764 bound_to 10752
  154.8163  135.3400  154.7097 H   0  0  0  0  0  0  0  0  0  0  0  0  # atno 10765 bound_to 10752
  141.1612  133.6854  156.7097 H   0  0  0  0  0  0  0  0  0  0  0  0  # atno 11005 bound_to 11000
  146.3381  140.2486  142.8598 LP  0  0  0  0  0  0  0  0  0  0  0  0  # atno 17320 bound_to 7965
  144.9786  140.8438  143.5411 LP  0  0  0  0  0  0  0  0  0  0  0  0  # atno 17321 bound_to 7965
  139.4849  144.6201  151.7271 LP  0  0  0  0  0  0  0  0  0  0  0  0  # atno 17342 bound_to 10162
  140.5359  144.0656  150.6070 LP  0  0  0  0  0  0  0  0  0  0  0  0  # atno 17343 bound_to 10162
  157.1832  131.0397  151.2738 LP  0  0  0  0  0  0  0  0  0  0  0  0  # atno 17370 bound_to 10713
  157.4127  130.7394  149.6852 LP  0  0  0  0  0  0  0  0  0  0  0  0  # atno 17371 bound_to 10713
  140.2896  134.8251  157.4005 LP  0  0  0  0  0  0  0  0  0  0  0  0  # atno 17394 bound_to 11000
  140.1359  134.5035  155.8069 LP  0  0  0  0  0  0  0  0  0  0  0  0  # atno 17395 bound_to 11000

$$$$
