AV-unprocessed.smi:527|AV-procd|sdf|2826|dock6
  -GOLD-   2262023313D 1   1.00000     0.00000
 Structure written by MMmdl.
 43 44  0  0  0  0  0  0  0  0  2 V2000
  146.7478  141.9572  154.4341 C   0  0  0  0  0  0  0  0  0  0  0  0
  147.9982  141.3719  153.7461 C   0  0  1  0  0  0  0  0  0  0  0  0
  149.2306  141.4200  154.6717 C   0  0  0  0  0  0  0  0  0  0  0  0
  149.1487  140.3812  155.8012 C   0  0  0  0  0  0  0  0  0  0  0  0
  148.9510  138.9660  155.2406 C   0  0  0  0  0  0  0  0  0  0  0  0
  147.7221  138.8800  154.3105 C   0  0  2  0  0  0  0  0  0  0  0  0
  147.6281  137.5360  153.7423 N   0  0  0  0  0  0  0  0  0  0  0  0
  146.6309  136.6669  153.9644 C   0  0  0  0  0  0  0  0  0  0  0  0
  145.7025  136.8864  154.7454 O   0  0  0  0  0  0  0  0  0  0  0  0
  146.7902  135.5494  153.2286 N   0  0  0  0  0  0  0  0  0  0  0  0
  146.0112  134.4484  153.2281 C   0  0  0  0  0  0  0  0  0  0  0  0
  145.0034  134.2962  153.9233 O   0  0  0  0  0  0  0  0  0  0  0  0
  146.4658  133.3377  152.2721 C   0  0  0  0  0  0  0  0  0  0  0  0
  145.5184  133.0988  151.1753 N   0  0  0  0  0  0  0  0  0  0  0  0
  145.6818  132.2592  150.1028 C   0  0  0  0  0  0  0  0  0  0  0  0
  144.5485  132.3742  149.3397 C   0  0  0  0  0  0  0  0  0  0  0  0
  143.7414  133.2776  149.9780 N   0  3  0  0  0  0  0  0  0  0  0  0
  144.3325  133.7173  151.0936 C   0  0  0  0  0  0  0  0  0  0  0  0
  147.8019  139.9396  153.1807 C   0  0  1  0  0  0  0  0  0  0  0  0
  146.6224  139.8554  152.1916 C   0  0  0  0  0  0  0  0  0  0  0  0
  146.4114  141.3448  155.2700 H   0  0  0  0  0  0  0  0  0  0  0  0
  145.9147  142.0527  153.7382 H   0  0  0  0  0  0  0  0  0  0  0  0
  146.9507  142.9558  154.8219 H   0  0  0  0  0  0  0  0  0  0  0  0
  148.2148  142.0278  152.9018 H   0  0  0  0  0  0  0  0  0  0  0  0
  150.1292  141.2326  154.0822 H   0  0  0  0  0  0  0  0  0  0  0  0
  149.3500  142.4191  155.0919 H   0  0  0  0  0  0  0  0  0  0  0  0
  150.0584  140.4159  156.4011 H   0  0  0  0  0  0  0  0  0  0  0  0
  148.3295  140.6268  156.4774 H   0  0  0  0  0  0  0  0  0  0  0  0
  149.8474  138.6697  154.6937 H   0  0  0  0  0  0  0  0  0  0  0  0
  148.8491  138.2610  156.0665 H   0  0  0  0  0  0  0  0  0  0  0  0
  146.8231  139.0728  154.8983 H   0  0  0  0  0  0  0  0  0  0  0  0
  148.3755  137.2561  153.1244 H   0  0  0  0  0  0  0  0  0  0  0  0
  147.5847  135.5352  152.6061 H   0  0  0  0  0  0  0  0  0  0  0  0
  147.4294  133.6007  151.8334 H   0  0  0  0  0  0  0  0  0  0  0  0
  146.5986  132.4046  152.8220 H   0  0  0  0  0  0  0  0  0  0  0  0
  146.5709  131.6609  149.9637 H   0  0  0  0  0  0  0  0  0  0  0  0
  144.2641  131.8950  148.4141 H   0  0  0  0  0  0  0  0  0  0  0  0
  143.9325  134.4346  151.7879 H   0  0  0  0  0  0  0  0  0  0  0  0
  148.6986  139.7165  152.5995 H   0  0  0  0  0  0  0  0  0  0  0  0
  145.6630  139.9376  152.7026 H   0  0  0  0  0  0  0  0  0  0  0  0
  146.6221  138.9102  151.6487 H   0  0  0  0  0  0  0  0  0  0  0  0
  146.6758  140.6517  151.4486 H   0  0  0  0  0  0  0  0  0  0  0  0
  142.8299  133.5747  149.6528 H   0  0  0  0  0  0  0  0  0  0  0  0
  1  2  1  0  0  0  0
  1 21  1  0  0  0  0
  1 22  1  0  0  0  0
  1 23  1  0  0  0  0
  2 19  1  0  0  0  0
  2  3  1  0  0  0  0
  2 24  1  0  0  0  0
  3  4  1  0  0  0  0
  3 25  1  0  0  0  0
  3 26  1  0  0  0  0
  4  5  1  0  0  0  0
  4 27  1  0  0  0  0
  4 28  1  0  0  0  0
  5  6  1  0  0  0  0
  5 29  1  0  0  0  0
  5 30  1  0  0  0  0
  6  7  1  0  0  0  0
  6 19  1  0  0  0  0
  6 31  1  0  0  0  0
  7  8  1  0  0  0  0
  7 32  1  0  0  0  0
  8  9  2  0  0  0  0
  8 10  1  0  0  0  0
 10 11  1  0  0  0  0
 10 33  1  0  0  0  0
 11 12  2  0  0  0  0
 11 13  1  0  0  0  0
 13 14  1  0  0  0  0
 13 34  1  0  0  0  0
 13 35  1  0  0  0  0
 14 18  1  0  0  0  0
 14 15  1  0  0  0  0
 15 16  2  0  0  0  0
 15 36  1  0  0  0  0
 16 17  1  0  0  0  0
 16 37  1  0  0  0  0
 17 18  2  0  0  0  0
 17 43  1  0  0  0  0
 18 38  1  0  0  0  0
 19 20  1  0  0  0  0
 19 39  1  0  0  0  0
 20 40  1  0  0  0  0
 20 41  1  0  0  0  0
 20 42  1  0  0  0  0
M  CHG  1  17   1
M  END
> <s_m_source_file>
AV-unprocessed.smi

> <i_m_source_file_index>
527

> <i_lp_mmshare_version>
43012

> <i_f3d_flags>
0

> <s_epik_input>
W0NIM11bQ0BASF0xW0NIMl1bQ0gyXVtDSDJdW0NASF0oW0NASF0xW0NIM10pW05IXUMoPU8pW05IXUMoPU8pW0NIMl1uMltjSF1bY0hdbltjSF0y

> <s_epik_cmdline>
J2VwaWtfcHl0aG9uJywgJy1waCcsICc3LjAnLCAnLXRuJywgJzgnLCAnLW1hJywgJzIwMCcsICctbWV0YWxfYmluZGluZycsICctaW1hZScsICc8aW5maWxlLm1hZT4nLCAnLW9tYWUnLCAnPG91dGZpbGUubWFlPic=

> <r_lp_tautomer_probability>
1

> <r_epik_Ionization_Penalty>
0.816441

> <r_epik_Ionization_Penalty_Charging>
0

> <r_epik_Ionization_Penalty_Neutral>
0.816441

> <r_epik_State_Penalty>
0.849034

> <r_epik_Charging_Adjusted_Penalty>
0.849034

> <i_epik_Tot_Q>
1

> <i_epik_Tot_abs_Q>
1

> <r_epik_Metal_State_Penalty>
0.984327

> <b_epik_Metal_Only>
0

> <s_lp_Force_Field>
OPLS_2005

> <r_lp_Energy>
18.63

> <b_lp_Chiralities_Consistent>
1

> <s_lp_Variant>
AV-unprocessed.smi:527-12

> <Gold.Version>
5.8.1

> <Gold.Id.Protein>
6NUR|6NUR_protein|mol2

> <Gold.PLP.Fitness>
45.7276

> <Gold.PLP.PLP>
-30.8748

> <Gold.PLP.part.hbond>
-3.0000

> <Gold.PLP.part.metal>
0.0000

> <Gold.PLP.part.buried>
1.0619

> <Gold.PLP.part.nonpolar>
-29.3928

> <Gold.PLP.part.repulsive>
0.1964

> <Gold.PLP.ligand.clash>
0.0000

> <Gold.PLP.ligand.torsion>
0.0809

> <Gold.PLP.Chemscore.Hbond>
4.0000

> <Gold.PLP.Chemscore.CHOScore>
0.9997

> <Gold.PLP.Chemscore.Metal>
0.0000

> <Gold.Chemscore.Hbonds>
donor molecule, donor type, donor heavy atom, donor atom, acceptor molecule, acceptor atom, score
      L1  H     7    32       P1  7948  1.00
      L1  H    10    33       P1  7948  1.00
      L1  H    17    43       P1 10186  2.00
      L1  C    15    36       P1 10747  0.97

> <Gold.PLP.Chemscore.Internal.Correction>
0.0156

> <Gold.Rescore>
     Score         DG    S(hbond)    S(metal)    S(lipo)     H(rot)  DE(clash)    DE(int)     intcor
     16.50     -20.32       2.93        0.00      80.46       1.71       2.21       1.60       ----

> <Gold.Chemscore.Fitness>
16.4995

> <Gold.Chemscore.DG>
-20.3152

> <Gold.Chemscore.ZeroCoef>
-5.4800

> <Gold.Chemscore.Hbond>
2.9301

> <Gold.Chemscore.Metal>
0.0000

> <Gold.Chemscore.Lipo>
80.4626

> <Gold.Chemscore.Internal_Hbond>
0.0000

> <Gold.Chemscore.DEClash>
2.2116

> <Gold.Chemscore.DEInternal>
1.6042

> <Gold.Chemscore.Rot>
1.7052

> <Gold.Chemscore.Internal.Correction>
   9.000000E+99

> <Gold.Chemscore.Hbonds>
donor molecule, donor type, donor heavy atom, donor atom, acceptor molecule, acceptor atom, score
      L1  H     7    32       P1  7948  0.94
      L1  H    10    33       P1  7948  0.98
      L1  H    17    43       P1 10186  0.95

> <Gold.Chemscore.Hbond.Weighted>
-9.7864

> <Gold.Chemscore.Metal.Weighted>
-0.0000

> <Gold.Chemscore.Lipo.Weighted>
-9.4141

> <Gold.Chemscore.Internal_Hbond.Weighted>
0.0000

> <Gold.Chemscore.DEClash.Weighted>
2.2116

> <Gold.Chemscore.DEInternal.Weighted>
1.6042

> <Gold.Chemscore.Rot.Weighted>
4.3653

> <Gold.Chemscore.Internal.Correction.Weighted>
   9.000000E+99

> <Gold.Protein.RotatedTorsions>
[ 6907 6896 6895 6894 ] final   93.95 input  -60.11 | X-H torsion
[ 7974 7965 7964 7962 ] final -172.58 input  175.53 | X-H torsion
[ 8008 7997 7996 7995 ] final  179.72 input   59.86 | X-H torsion
[ 10167 10162 10161 10158 ] final -171.41 input  -65.29 | X-H torsion
[ 10718 10713 10712 10709 ] final   77.13 input   66.30 | X-H torsion
[ 10763 10752 10751 10750 ] final   -8.95 input  -60.55 | X-H torsion
[ 11005 11000 10999 10996 ] final -162.52 input  -57.11 | X-H torsion

> <Gold.Protein.ActiveResidues>
 VAL166  LYS551  ARG553  GLY616  TRP617  ASP618  TYR619  PRO620  LYS621  CYS622 
 ASP623  PHE694  ASN695  SER759  ASP760  ASP761  ALA762  ILE779  LEU786  VAL792 
 PHE793  MET794  SER795  GLU796  ALA797  LYS798  CYS799  TRP800  GLU811  SER814 

> <Gold.Protein.RotatedAtoms>
  152.5451  134.1269  159.8422 H   0  0  0  0  0  0  0  0  0  0  0  0  # atno 6907 bound_to 6896
  151.1319  133.5024  159.2606 H   0  0  0  0  0  0  0  0  0  0  0  0  # atno 6908 bound_to 6896
  151.1666  135.0308  159.8788 H   0  0  0  0  0  0  0  0  0  0  0  0  # atno 6909 bound_to 6896
  144.7145  140.1751  143.6364 H   0  0  0  0  0  0  0  0  0  0  0  0  # atno 7974 bound_to 7965
  156.0402  140.1301  157.0164 H   0  0  0  0  0  0  0  0  0  0  0  0  # atno 8008 bound_to 7997
  154.4387  140.1032  156.6296 H   0  0  0  0  0  0  0  0  0  0  0  0  # atno 8009 bound_to 7997
  155.5678  140.3466  155.4510 H   0  0  0  0  0  0  0  0  0  0  0  0  # atno 8010 bound_to 7997
  139.5804  144.1437  152.1507 H   0  0  0  0  0  0  0  0  0  0  0  0  # atno 10167 bound_to 10162
  157.6699  130.9807  150.1597 H   0  0  0  0  0  0  0  0  0  0  0  0  # atno 10718 bound_to 10713
  153.4478  135.7014  153.6128 H   0  0  0  0  0  0  0  0  0  0  0  0  # atno 10763 bound_to 10752
  153.4476  135.3765  155.2265 H   0  0  0  0  0  0  0  0  0  0  0  0  # atno 10764 bound_to 10752
  154.8728  135.3989  154.3886 H   0  0  0  0  0  0  0  0  0  0  0  0  # atno 10765 bound_to 10752
  140.6084  134.4875  157.5213 H   0  0  0  0  0  0  0  0  0  0  0  0  # atno 11005 bound_to 11000
  145.8908  139.2374  143.1551 LP  0  0  0  0  0  0  0  0  0  0  0  0  # atno 17320 bound_to 7965
  145.9905  140.8606  143.0068 LP  0  0  0  0  0  0  0  0  0  0  0  0  # atno 17321 bound_to 7965
  140.0989  144.5557  150.7003 LP  0  0  0  0  0  0  0  0  0  0  0  0  # atno 17342 bound_to 10162
  140.7083  143.2484  151.4660 LP  0  0  0  0  0  0  0  0  0  0  0  0  # atno 17343 bound_to 10162
  156.2377  130.3688  149.8373 LP  0  0  0  0  0  0  0  0  0  0  0  0  # atno 17370 bound_to 10713
  156.6182  130.8615  151.3469 LP  0  0  0  0  0  0  0  0  0  0  0  0  # atno 17371 bound_to 10713
  139.9202  134.8163  156.1234 LP  0  0  0  0  0  0  0  0  0  0  0  0  # atno 17394 bound_to 11000
  141.0825  133.6748  156.2366 LP  0  0  0  0  0  0  0  0  0  0  0  0  # atno 17395 bound_to 11000

$$$$
