AV-unprocessed.smi:1563|AV-procd|sdf|6289|dock1
  -GOLD-   22720 6483D 1   1.00000     0.00000
 Structure written by MMmdl.
 43 44  0  0  0  0  0  0  0  0  1 V2000
  147.1446  146.0952  160.4162 C   0  0  0  0  0  0  0  0  0  0  0  0
  148.2294  145.0522  160.6616 C   0  0  0  0  0  0  0  0  0  0  0  0
  148.2486  144.4175  161.7156 O   0  0  0  0  0  0  0  0  0  0  0  0
  149.1263  144.8874  159.6775 N   0  0  0  0  0  0  0  0  0  0  0  0
  150.2472  143.9526  159.7051 C   0  0  2  0  0  0  0  0  0  0  0  0
  151.2871  144.4214  160.7453 C   0  0  0  0  0  0  0  0  0  0  0  0
  152.5804  143.5871  160.6856 C   0  0  0  0  0  0  0  0  0  0  0  0
  153.1066  143.4952  159.2434 C   0  0  0  0  0  0  0  0  0  0  0  0
  152.0473  142.9267  158.3922 N   0  0  0  0  0  0  0  0  0  0  0  0
  152.0387  141.6891  157.8346 C   0  0  0  0  0  0  0  0  0  0  0  0
  152.7570  140.7685  158.2264 O   0  0  0  0  0  0  0  0  0  0  0  0
  151.1902  141.5476  156.8017 N   0  0  0  0  0  0  0  0  0  0  0  0
  150.9337  140.3173  156.0575 C   0  0  0  0  0  0  0  0  0  0  0  0
  149.4947  139.8111  156.2664 C   0  0  0  0  0  0  0  0  0  0  0  0
  148.4461  140.6240  155.5246 C   0  0  0  0  0  0  0  0  0  0  0  0
  147.4738  141.3581  156.2366 C   0  0  0  0  0  0  0  0  0  0  0  0
  146.5314  142.1084  155.5070 C   0  0  0  0  0  0  0  0  0  0  0  0
  146.5972  142.0967  154.1004 C   0  0  0  0  0  0  0  0  0  0  0  0
  147.6076  141.3325  153.4833 C   0  0  0  0  0  0  0  0  0  0  0  0
  148.5148  140.6083  154.1733 N   0  0  0  0  0  0  0  0  0  0  0  0
  150.8931  143.8309  158.3061 C   0  0  0  0  0  0  0  0  0  0  0  0
  146.6145  145.8846  159.4869 H   0  0  0  0  0  0  0  0  0  0  0  0
  147.5836  147.0909  160.3464 H   0  0  0  0  0  0  0  0  0  0  0  0
  146.4184  146.0981  161.2297 H   0  0  0  0  0  0  0  0  0  0  0  0
  149.0270  145.4541  158.8479 H   0  0  0  0  0  0  0  0  0  0  0  0
  149.8844  142.9690  160.0107 H   0  0  0  0  0  0  0  0  0  0  0  0
  151.5385  145.4665  160.5590 H   0  0  0  0  0  0  0  0  0  0  0  0
  150.8634  144.3814  161.7494 H   0  0  0  0  0  0  0  0  0  0  0  0
  153.3375  144.0268  161.3352 H   0  0  0  0  0  0  0  0  0  0  0  0
  152.3874  142.5838  161.0678 H   0  0  0  0  0  0  0  0  0  0  0  0
  153.3617  144.4908  158.8777 H   0  0  0  0  0  0  0  0  0  0  0  0
  154.0423  142.9365  159.2217 H   0  0  0  0  0  0  0  0  0  0  0  0
  150.6450  142.3546  156.5362 H   0  0  0  0  0  0  0  0  0  0  0  0
  151.1000  140.5207  154.9995 H   0  0  0  0  0  0  0  0  0  0  0  0
  151.6377  139.5301  156.3315 H   0  0  0  0  0  0  0  0  0  0  0  0
  149.4226  138.7692  155.9512 H   0  0  0  0  0  0  0  0  0  0  0  0
  149.2581  139.8179  157.3312 H   0  0  0  0  0  0  0  0  0  0  0  0
  147.4519  141.3509  157.3165 H   0  0  0  0  0  0  0  0  0  0  0  0
  145.7728  142.6835  156.0171 H   0  0  0  0  0  0  0  0  0  0  0  0
  145.8916  142.6605  153.5084 H   0  0  0  0  0  0  0  0  0  0  0  0
  147.6890  141.3014  152.4069 H   0  0  0  0  0  0  0  0  0  0  0  0
  150.1527  143.4950  157.5784 H   0  0  0  0  0  0  0  0  0  0  0  0
  151.2270  144.8085  157.9547 H   0  0  0  0  0  0  0  0  0  0  0  0
  1  2  1  0  0  0  0
  1 22  1  0  0  0  0
  1 23  1  0  0  0  0
  1 24  1  0  0  0  0
  2  3  2  0  0  0  0
  2  4  1  0  0  0  0
  4  5  1  0  0  0  0
  4 25  1  0  0  0  0
  5 21  1  0  0  0  0
  5  6  1  0  0  0  0
  5 26  1  0  0  0  0
  6  7  1  0  0  0  0
  6 27  1  0  0  0  0
  6 28  1  0  0  0  0
  7  8  1  0  0  0  0
  7 29  1  0  0  0  0
  7 30  1  0  0  0  0
  8  9  1  0  0  0  0
  8 31  1  0  0  0  0
  8 32  1  0  0  0  0
  9 10  1  0  0  0  0
  9 21  1  0  0  0  0
 10 11  2  0  0  0  0
 10 12  1  0  0  0  0
 12 13  1  0  0  0  0
 12 33  1  0  0  0  0
 13 14  1  0  0  0  0
 13 34  1  0  0  0  0
 13 35  1  0  0  0  0
 14 15  1  0  0  0  0
 14 36  1  0  0  0  0
 14 37  1  0  0  0  0
 15 20  1  0  0  0  0
 15 16  2  0  0  0  0
 16 17  1  0  0  0  0
 16 38  1  0  0  0  0
 17 18  2  0  0  0  0
 17 39  1  0  0  0  0
 18 19  1  0  0  0  0
 18 40  1  0  0  0  0
 19 20  2  0  0  0  0
 19 41  1  0  0  0  0
 21 42  1  0  0  0  0
 21 43  1  0  0  0  0
M  END
> <s_m_source_file>
AV-unprocessed.smi

> <i_m_source_file_index>
1563

> <i_lp_mmshare_version>
43012

> <i_f3d_flags>
0

> <s_epik_input>
W0NIM11DKD1PKVtOSF1bQ0BASF0xW0NIMl1bQ0gyXVtDSDJdTihbQ0gyXTEpQyg9TylbTkhdW0NIMl1bQ0gyXWMyW2NIXVtjSF1bY0hdW2NIXW4y

> <s_epik_cmdline>
J2VwaWtfcHl0aG9uJywgJy1waCcsICc3LjAnLCAnLXRuJywgJzgnLCAnLW1hJywgJzIwMCcsICctbWV0YWxfYmluZGluZycsICctaW1hZScsICc8aW5maWxlLm1hZT4nLCAnLW9tYWUnLCAnPG91dGZpbGUubWFlPic=

> <r_epik_Ionization_Penalty>
0.0442074

> <r_epik_Ionization_Penalty_Charging>
0

> <r_epik_Ionization_Penalty_Neutral>
0.0442074

> <r_epik_State_Penalty>
0.0374027

> <r_epik_Charging_Adjusted_Penalty>
0.0374027

> <i_epik_Tot_Q>
0

> <i_epik_Tot_abs_Q>
0

> <r_epik_Metal_State_Penalty>
0.0347963

> <b_epik_Metal_Only>
0

> <s_lp_Force_Field>
OPLS_2005

> <r_lp_Energy>
29.1558

> <b_lp_Chiralities_Consistent>
1

> <s_lp_Variant>
AV-unprocessed.smi:1563-1

> <Gold.Version>
5.8.1

> <Gold.Id.Protein>
6NUR|6NUR_protein|mol2

> <Gold.PLP.Fitness>
45.9130

> <Gold.PLP.PLP>
-37.5445

> <Gold.PLP.part.hbond>
-2.8746

> <Gold.PLP.part.metal>
0.0000

> <Gold.PLP.part.buried>
-6.3283

> <Gold.PLP.part.nonpolar>
-29.0802

> <Gold.PLP.part.repulsive>
0.6031

> <Gold.PLP.ligand.clash>
0.0000

> <Gold.PLP.ligand.torsion>
0.3925

> <Gold.PLP.Chemscore.Hbond>
2.1580

> <Gold.PLP.Chemscore.CHOScore>
0.8879

> <Gold.PLP.Chemscore.Metal>
0.0000

> <Gold.Chemscore.Hbonds>
donor molecule, donor type, donor heavy atom, donor atom, acceptor molecule, acceptor atom, score
      L1  H     4    25       P1  8029  0.96
      P1  H  6933  6944       L1     3  0.77
      P1  H  7997  8008       L1    11  0.26
      L1  C    19    41       P1  7957  0.76

> <Gold.PLP.Chemscore.Internal.Correction>
0.0157

> <Gold.Rescore>
     Score         DG    S(hbond)    S(metal)    S(lipo)     H(rot)  DE(clash)    DE(int)     intcor
     19.20     -19.76       2.39        0.00      90.60       1.68       0.12       0.44       ----

> <Gold.Chemscore.Fitness>
19.2047

> <Gold.Chemscore.DG>
-19.7621

> <Gold.Chemscore.ZeroCoef>
-5.4800

> <Gold.Chemscore.Hbond>
2.3909

> <Gold.Chemscore.Metal>
0.0000

> <Gold.Chemscore.Lipo>
90.6041

> <Gold.Chemscore.Internal_Hbond>
0.0000

> <Gold.Chemscore.DEClash>
0.1205

> <Gold.Chemscore.DEInternal>
0.4369

> <Gold.Chemscore.Rot>
1.6813

> <Gold.Chemscore.Internal.Correction>
   9.000000E+99

> <Gold.Chemscore.Hbonds>
donor molecule, donor type, donor heavy atom, donor atom, acceptor molecule, acceptor atom, score
      L1  H     4    25       P1  8029  0.89
      P1  H  6933  6944       L1     3  0.65
      P1  H  7997  8008       L1    11  0.26

> <Gold.Chemscore.Hbond.Weighted>
-7.9856

> <Gold.Chemscore.Metal.Weighted>
-0.0000

> <Gold.Chemscore.Lipo.Weighted>
-10.6007

> <Gold.Chemscore.Internal_Hbond.Weighted>
0.0000

> <Gold.Chemscore.DEClash.Weighted>
0.1205

> <Gold.Chemscore.DEInternal.Weighted>
0.4369

> <Gold.Chemscore.Rot.Weighted>
4.3042

> <Gold.Chemscore.Internal.Correction.Weighted>
   9.000000E+99

> <Gold.Protein.RotatedTorsions>
[ 6907 6896 6895 6894 ] final  167.73 input  -60.11 | X-H torsion
[ 7974 7965 7964 7962 ] final  129.54 input  175.53 | X-H torsion
[ 8008 7997 7996 7995 ] final  -79.04 input   59.86 | X-H torsion
[ 10167 10162 10161 10158 ] final  -56.81 input  -65.29 | X-H torsion
[ 10718 10713 10712 10709 ] final  -20.22 input   66.30 | X-H torsion
[ 10763 10752 10751 10750 ] final  -44.61 input  -60.55 | X-H torsion
[ 11005 11000 10999 10996 ] final  -47.22 input  -57.11 | X-H torsion

> <Gold.Protein.ActiveResidues>
 VAL166  LYS551  ARG553  GLY616  TRP617  ASP618  TYR619  PRO620  LYS621  CYS622 
 ASP623  PHE694  ASN695  SER759  ASP760  ASP761  ALA762  ILE779  LEU786  VAL792 
 PHE793  MET794  SER795  GLU796  ALA797  LYS798  CYS799  TRP800  GLU811  SER814 

> <Gold.Protein.RotatedAtoms>
  151.8588  133.3453  159.3696 H   0  0  0  0  0  0  0  0  0  0  0  0  # atno 6907 bound_to 6896
  150.7185  134.5227  159.5671 H   0  0  0  0  0  0  0  0  0  0  0  0  # atno 6908 bound_to 6896
  152.2736  134.7906  160.0460 H   0  0  0  0  0  0  0  0  0  0  0  0  # atno 6909 bound_to 6896
  145.0276  139.4075  143.5166 H   0  0  0  0  0  0  0  0  0  0  0  0  # atno 7974 bound_to 7965
  154.5747  140.0684  156.9016 H   0  0  0  0  0  0  0  0  0  0  0  0  # atno 8008 bound_to 7997
  155.2571  140.3356  155.4258 H   0  0  0  0  0  0  0  0  0  0  0  0  # atno 8009 bound_to 7997
  156.2145  140.1772  156.7606 H   0  0  0  0  0  0  0  0  0  0  0  0  # atno 8010 bound_to 7997
  140.6295  143.2453  151.5277 H   0  0  0  0  0  0  0  0  0  0  0  0  # atno 10167 bound_to 10162
  156.5348  130.4664  149.6528 H   0  0  0  0  0  0  0  0  0  0  0  0  # atno 10718 bound_to 10713
  154.0149  135.6676  153.4768 H   0  0  0  0  0  0  0  0  0  0  0  0  # atno 10763 bound_to 10752
  153.0605  135.5031  154.8078 H   0  0  0  0  0  0  0  0  0  0  0  0  # atno 10764 bound_to 10752
  154.6973  135.3072  154.9357 H   0  0  0  0  0  0  0  0  0  0  0  0  # atno 10765 bound_to 10752
  141.0627  133.6703  156.3267 H   0  0  0  0  0  0  0  0  0  0  0  0  # atno 11005 bound_to 11000
  146.3494  139.9808  142.8696 LP  0  0  0  0  0  0  0  0  0  0  0  0  # atno 17320 bound_to 7965
  145.1813  140.9768  143.4264 LP  0  0  0  0  0  0  0  0  0  0  0  0  # atno 17321 bound_to 7965
  139.5511  144.2393  152.1531 LP  0  0  0  0  0  0  0  0  0  0  0  0  # atno 17342 bound_to 10162
  140.1634  144.5005  150.6620 LP  0  0  0  0  0  0  0  0  0  0  0  0  # atno 17343 bound_to 10162
  156.3026  130.7185  151.2060 LP  0  0  0  0  0  0  0  0  0  0  0  0  # atno 17370 bound_to 10713
  157.7415  131.0502  150.5089 LP  0  0  0  0  0  0  0  0  0  0  0  0  # atno 17371 bound_to 10713
  140.5835  134.5722  157.5484 LP  0  0  0  0  0  0  0  0  0  0  0  0  # atno 17394 bound_to 11000
  139.9448  134.7722  156.0589 LP  0  0  0  0  0  0  0  0  0  0  0  0  # atno 17395 bound_to 11000

$$$$
