AV-unprocessed.smi:102|AV-procd|sdf|948|dock10
  -GOLD-   2262017473D 1   1.00000     0.00000
 Structure written by MMmdl.
 44 45  0  0  0  0  0  0  0  0  1 V2000
  149.5788  132.2545  155.1918 C   0  0  0  0  0  0  0  0  0  0  0  0
  149.2916  132.8610  156.5595 C   0  0  0  0  0  0  0  0  0  0  0  0
  150.0145  132.6280  157.5284 O   0  0  0  0  0  0  0  0  0  0  0  0
  148.2003  133.6414  156.5606 O   0  0  0  0  0  0  0  0  0  0  0  0
  147.7812  134.2530  157.7688 C   0  0  0  0  0  0  0  0  0  0  0  0
  148.9078  135.1591  158.3017 C   0  0  1  0  0  0  0  0  0  0  0  0
  149.2174  136.1473  157.3248 O   0  0  0  0  0  0  0  0  0  0  0  0
  148.3493  137.2309  157.4675 C   0  0  2  0  0  0  0  0  0  0  0  0
  149.0958  138.5011  157.1270 N   0  0  0  0  0  0  0  0  0  0  0  0
  150.2215  138.8653  157.8539 C   0  0  0  0  0  0  0  0  0  0  0  0
  150.9138  140.0056  157.6220 C   0  0  0  0  0  0  0  0  0  0  0  0
  151.9981  140.2861  158.3648 F   0  0  0  0  0  0  0  0  0  0  0  0
  150.4910  140.9342  156.5780 C   0  0  0  0  0  0  0  0  0  0  0  0
  151.0564  141.9866  156.2877 O   0  0  0  0  0  0  0  0  0  0  0  0
  149.3393  140.5416  155.8904 N   0  0  0  0  0  0  0  0  0  0  0  0
  148.6125  139.3729  156.1241 C   0  0  0  0  0  0  0  0  0  0  0  0
  147.5971  139.1454  155.4695 O   0  0  0  0  0  0  0  0  0  0  0  0
  147.8030  137.2187  158.9086 C   0  0  1  0  0  0  0  0  0  0  0  0
  146.3885  137.0495  158.8599 O   0  0  0  0  0  0  0  0  0  0  0  0
  145.6233  137.3821  159.9145 C   0  0  0  0  0  0  0  0  0  0  0  0
  144.1456  137.1133  159.6643 C   0  0  0  0  0  0  0  0  0  0  0  0
  146.0208  137.8439  160.9839 O   0  0  0  0  0  0  0  0  0  0  0  0
  148.5152  136.0103  159.5171 C   0  0  1  0  0  0  0  0  0  0  0  0
  147.7233  135.3272  160.4841 O   0  0  0  0  0  0  0  0  0  0  0  0
  147.6667  135.7684  161.7517 C   0  0  0  0  0  0  0  0  0  0  0  0
  146.9191  134.8073  162.6661 C   0  0  0  0  0  0  0  0  0  0  0  0
  148.1542  136.8152  162.1776 O   0  0  0  0  0  0  0  0  0  0  0  0
  149.0002  141.1597  155.1675 H   0  0  0  0  0  0  0  0  0  0  0  0
  148.9171  132.6720  154.4323 H   0  0  0  0  0  0  0  0  0  0  0  0
  149.4337  131.1746  155.2214 H   0  0  0  0  0  0  0  0  0  0  0  0
  150.6091  132.4566  154.8985 H   0  0  0  0  0  0  0  0  0  0  0  0
  146.8599  134.8153  157.6129 H   0  0  0  0  0  0  0  0  0  0  0  0
  147.5625  133.4662  158.4917 H   0  0  0  0  0  0  0  0  0  0  0  0
  149.7887  134.5573  158.5277 H   0  0  0  0  0  0  0  0  0  0  0  0
  147.5566  137.1387  156.7231 H   0  0  0  0  0  0  0  0  0  0  0  0
  150.5771  138.2167  158.6418 H   0  0  0  0  0  0  0  0  0  0  0  0
  148.0756  138.1410  159.4229 H   0  0  0  0  0  0  0  0  0  0  0  0
  143.8323  137.5593  158.7202 H   0  0  0  0  0  0  0  0  0  0  0  0
  143.5380  137.5369  160.4645 H   0  0  0  0  0  0  0  0  0  0  0  0
  143.9594  136.0401  159.6206 H   0  0  0  0  0  0  0  0  0  0  0  0
  149.4279  136.3739  159.9905 H   0  0  0  0  0  0  0  0  0  0  0  0
  146.0188  134.4370  162.1752 H   0  0  0  0  0  0  0  0  0  0  0  0
  146.6283  135.3066  163.5907 H   0  0  0  0  0  0  0  0  0  0  0  0
  147.5529  133.9564  162.9163 H   0  0  0  0  0  0  0  0  0  0  0  0
  1  2  1  0  0  0  0
  1 29  1  0  0  0  0
  1 30  1  0  0  0  0
  1 31  1  0  0  0  0
  2  3  2  0  0  0  0
  2  4  1  0  0  0  0
  4  5  1  0  0  0  0
  5  6  1  0  0  0  0
  5 32  1  0  0  0  0
  5 33  1  0  0  0  0
  6 23  1  0  0  0  0
  6  7  1  0  0  0  0
  6 34  1  0  0  0  0
  7  8  1  0  0  0  0
  8  9  1  0  0  0  0
  8 18  1  0  0  0  0
  8 35  1  0  0  0  0
  9 16  1  0  0  0  0
  9 10  1  0  0  0  0
 10 11  2  0  0  0  0
 10 36  1  0  0  0  0
 11 12  1  0  0  0  0
 11 13  1  0  0  0  0
 13 14  2  0  0  0  0
 13 15  1  0  0  0  0
 15 28  1  0  0  0  0
 15 16  1  0  0  0  0
 16 17  2  0  0  0  0
 18 19  1  0  0  0  0
 18 23  1  0  0  0  0
 18 37  1  0  0  0  0
 19 20  1  0  0  0  0
 20 21  1  0  0  0  0
 20 22  2  0  0  0  0
 21 38  1  0  0  0  0
 21 39  1  0  0  0  0
 21 40  1  0  0  0  0
 23 24  1  0  0  0  0
 23 41  1  0  0  0  0
 24 25  1  0  0  0  0
 25 26  1  0  0  0  0
 25 27  2  0  0  0  0
 26 42  1  0  0  0  0
 26 43  1  0  0  0  0
 26 44  1  0  0  0  0
M  END
> <s_m_source_file>
AV-unprocessed.smi

> <i_m_source_file_index>
102

> <i_lp_mmshare_version>
43012

> <i_f3d_flags>
0

> <s_epik_input>
W0NIM11DKD1PKU9bQ0gyXVtDQEBIXTFPW0NASF0oW0NAQEhdKE9DKD1PKVtDSDNdKVtDQEhdMU9DKD1PKVtDSDNdKW4yW2NIXWMoRiljKD1PKVtuSF1jMj1P

> <s_epik_cmdline>
J2VwaWtfcHl0aG9uJywgJy1waCcsICc3LjAnLCAnLXRuJywgJzgnLCAnLW1hJywgJzIwMCcsICctbWV0YWxfYmluZGluZycsICctaW1hZScsICc8aW5maWxlLm1hZT4nLCAnLW9tYWUnLCAnPG91dGZpbGUubWFlPic=

> <r_lp_tautomer_probability>
0.999537

> <r_epik_Ionization_Penalty>
0.058267

> <r_epik_Ionization_Penalty_Charging>
0.058267

> <r_epik_Ionization_Penalty_Neutral>
6.57791e-16

> <r_epik_State_Penalty>
0.0503774

> <r_epik_Charging_Adjusted_Penalty>
0.108644

> <i_epik_Tot_Q>
0

> <i_epik_Tot_abs_Q>
0

> <r_epik_Metal_State_Penalty>
2.6644

> <b_epik_Metal_Only>
0

> <s_epik_Chemistry_Notes>
This compound has an ester and may undergo hydrolysis at high or low pH. This compound contains an acetal/aminal-like group ( X-CH(R)-Y where X, Y are N, S, or O) that may be acid/base labile, releasing an aldehyde.

> <s_lp_Force_Field>
OPLS_2005

> <r_lp_Energy>
11.7279

> <b_lp_Chiralities_Consistent>
1

> <s_lp_Variant>
AV-unprocessed.smi:102-4

> <Gold.Version>
5.8.1

> <Gold.Id.Protein>
6NUR|6NUR_protein|mol2

> <Gold.PLP.Fitness>
35.7773

> <Gold.PLP.PLP>
-27.7598

> <Gold.PLP.part.hbond>
-3.0000

> <Gold.PLP.part.metal>
0.0000

> <Gold.PLP.part.buried>
-5.2739

> <Gold.PLP.part.nonpolar>
-19.7833

> <Gold.PLP.part.repulsive>
0.1612

> <Gold.PLP.ligand.clash>
0.0000

> <Gold.PLP.ligand.torsion>
0.5467

> <Gold.PLP.Chemscore.Hbond>
3.0000

> <Gold.PLP.Chemscore.CHOScore>
0.0000

> <Gold.PLP.Chemscore.Metal>
0.0000

> <Gold.Chemscore.Hbonds>
donor molecule, donor type, donor heavy atom, donor atom, acceptor molecule, acceptor atom, score
      P1  H  6896  6907       L1     3  0.62
      P1  H  6931  6943       L1    27  1.00
      P1  H  6934  6947       L1    22  1.00

> <Gold.PLP.Chemscore.Internal.Correction>
0.1110

> <Gold.Rescore>
     Score         DG    S(hbond)    S(metal)    S(lipo)     H(rot)  DE(clash)    DE(int)     intcor
      7.89      -8.82       2.92        0.00      33.88       4.05       0.01       0.92       ----

> <Gold.Chemscore.Fitness>
7.8931

> <Gold.Chemscore.DG>
-8.8193

> <Gold.Chemscore.ZeroCoef>
-5.4800

> <Gold.Chemscore.Hbond>
2.9186

> <Gold.Chemscore.Metal>
0.0000

> <Gold.Chemscore.Lipo>
33.8833

> <Gold.Chemscore.Internal_Hbond>
0.0000

> <Gold.Chemscore.DEClash>
0.0064

> <Gold.Chemscore.DEInternal>
0.9198

> <Gold.Chemscore.Rot>
4.0520

> <Gold.Chemscore.Internal.Correction>
   9.000000E+99

> <Gold.Chemscore.Hbonds>
donor molecule, donor type, donor heavy atom, donor atom, acceptor molecule, acceptor atom, score
      P1  H  6896  6907       L1     3  0.62
      P1  H  6931  6943       L1    27  1.00
      P1  H  6934  6947       L1    22  0.93

> <Gold.Chemscore.Hbond.Weighted>
-9.7481

> <Gold.Chemscore.Metal.Weighted>
-0.0000

> <Gold.Chemscore.Lipo.Weighted>
-3.9643

> <Gold.Chemscore.Internal_Hbond.Weighted>
0.0000

> <Gold.Chemscore.DEClash.Weighted>
0.0064

> <Gold.Chemscore.DEInternal.Weighted>
0.9198

> <Gold.Chemscore.Rot.Weighted>
10.3732

> <Gold.Chemscore.Internal.Correction.Weighted>
   9.000000E+99

> <Gold.Protein.RotatedTorsions>
[ 6907 6896 6895 6894 ] final -126.51 input  -60.11 | X-H torsion
[ 7974 7965 7964 7962 ] final   79.76 input  175.53 | X-H torsion
[ 8008 7997 7996 7995 ] final  -52.10 input   59.86 | X-H torsion
[ 10167 10162 10161 10158 ] final   50.74 input  -65.29 | X-H torsion
[ 10718 10713 10712 10709 ] final   -2.96 input   66.30 | X-H torsion
[ 10763 10752 10751 10750 ] final  -43.72 input  -60.55 | X-H torsion
[ 11005 11000 10999 10996 ] final  -95.85 input  -57.11 | X-H torsion

> <Gold.Protein.ActiveResidues>
 VAL166  LYS551  ARG553  GLY616  TRP617  ASP618  TYR619  PRO620  LYS621  CYS622 
 ASP623  PHE694  ASN695  SER759  ASP760  ASP761  ALA762  ILE779  LEU786  VAL792 
 PHE793  MET794  SER795  GLU796  ALA797  LYS798  CYS799  TRP800  GLU811  SER814 

> <Gold.Protein.RotatedAtoms>
  150.8976  133.7160  159.2887 H   0  0  0  0  0  0  0  0  0  0  0  0  # atno 6907 bound_to 6896
  151.4689  135.1043  159.9755 H   0  0  0  0  0  0  0  0  0  0  0  0  # atno 6908 bound_to 6896
  152.4858  133.8321  159.7164 H   0  0  0  0  0  0  0  0  0  0  0  0  # atno 6909 bound_to 6896
  145.6601  139.2469  143.1928 H   0  0  0  0  0  0  0  0  0  0  0  0  # atno 7974 bound_to 7965
  154.4098  140.1232  156.4936 H   0  0  0  0  0  0  0  0  0  0  0  0  # atno 8008 bound_to 7997
  155.6965  140.3495  155.4896 H   0  0  0  0  0  0  0  0  0  0  0  0  # atno 8009 bound_to 7997
  155.9423  140.1089  157.1036 H   0  0  0  0  0  0  0  0  0  0  0  0  # atno 8010 bound_to 7997
  140.2692  144.3285  150.6295 H   0  0  0  0  0  0  0  0  0  0  0  0  # atno 10167 bound_to 10162
  156.7831  130.5337  149.5747 H   0  0  0  0  0  0  0  0  0  0  0  0  # atno 10718 bound_to 10713
  154.0002  135.6694  153.4759 H   0  0  0  0  0  0  0  0  0  0  0  0  # atno 10763 bound_to 10752
  153.0665  135.4998  154.8208 H   0  0  0  0  0  0  0  0  0  0  0  0  # atno 10764 bound_to 10752
  154.7057  135.3087  154.9237 H   0  0  0  0  0  0  0  0  0  0  0  0  # atno 10765 bound_to 10752
  141.1429  133.8055  157.0491 H   0  0  0  0  0  0  0  0  0  0  0  0  # atno 11005 bound_to 11000
  146.1132  140.7402  142.9493 LP  0  0  0  0  0  0  0  0  0  0  0  0  # atno 17320 bound_to 7965
  144.7092  140.3973  143.7094 LP  0  0  0  0  0  0  0  0  0  0  0  0  # atno 17321 bound_to 7965
  140.5903  143.2168  151.7265 LP  0  0  0  0  0  0  0  0  0  0  0  0  # atno 17342 bound_to 10162
  139.4994  144.3948  152.0242 LP  0  0  0  0  0  0  0  0  0  0  0  0  # atno 17343 bound_to 10162
  156.1205  130.6107  151.0187 LP  0  0  0  0  0  0  0  0  0  0  0  0  # atno 17370 bound_to 10713
  157.6637  131.0876  150.7779 LP  0  0  0  0  0  0  0  0  0  0  0  0  # atno 17371 bound_to 10713
  140.0643  134.9737  157.1359 LP  0  0  0  0  0  0  0  0  0  0  0  0  # atno 17394 bound_to 11000
  140.3803  134.2295  155.7171 LP  0  0  0  0  0  0  0  0  0  0  0  0  # atno 17395 bound_to 11000

$$$$
