AV-unprocessed.smi:1226|AV-procd|sdf|5145|dock2
  -GOLD-   22720 4213D 1   1.00000     0.00000
 Structure written by MMmdl.
 37 38  0  0  0  0  0  0  0  0  1 V2000
  145.3254  135.3157  151.3827 C   0  0  0  0  0  0  0  0  0  0  0  0
  145.9236  134.0081  151.7733 C   0  0  0  0  0  0  0  0  0  0  0  0
  147.1637  133.8765  152.2510 N   0  0  0  0  0  0  0  0  0  0  0  0
  147.4866  132.5496  152.5526 C   0  0  0  0  0  0  0  0  0  0  0  0
  148.8375  132.2148  153.1080 C   0  0  0  0  0  0  0  0  0  0  0  0
  149.1578  133.0204  154.3781 C   0  0  0  0  0  0  0  0  0  0  0  0
  149.2935  134.4441  154.0931 N   0  0  0  0  0  0  0  0  0  0  0  0
  149.9106  135.3281  154.8891 C   0  0  0  0  0  0  0  0  0  0  0  0
  150.4403  135.0363  155.9616 O   0  0  0  0  0  0  0  0  0  0  0  0
  149.8831  136.5653  154.3747 N   0  0  0  0  0  0  0  0  0  0  0  0
  150.4893  137.7402  154.9906 C   0  0  0  0  0  0  0  0  0  0  0  0
  150.0097  139.0373  154.3191 C   0  0  1  0  0  0  0  0  0  0  0  0
  148.4969  139.2373  154.3870 C   0  0  0  0  0  0  0  0  0  0  0  0
  148.3811  140.7359  154.2306 C   0  0  0  0  0  0  0  0  0  0  0  0
  149.5834  141.2273  155.0318 C   0  0  0  0  0  0  0  0  0  0  0  0
  150.5532  140.1848  154.9677 O   0  0  0  0  0  0  0  0  0  0  0  0
  146.4648  131.6714  152.2907 C   0  0  0  0  0  0  0  0  0  0  0  0
  145.0581  132.4808  151.6576 S   0  0  0  0  0  0  0  0  0  0  0  0
  146.1039  136.0648  151.2343 H   0  0  0  0  0  0  0  0  0  0  0  0
  144.6493  135.6626  152.1642 H   0  0  0  0  0  0  0  0  0  0  0  0
  144.7636  135.2084  150.4549 H   0  0  0  0  0  0  0  0  0  0  0  0
  148.8892  131.1476  153.3278 H   0  0  0  0  0  0  0  0  0  0  0  0
  149.6042  132.4010  152.3548 H   0  0  0  0  0  0  0  0  0  0  0  0
  148.3580  132.8972  155.1088 H   0  0  0  0  0  0  0  0  0  0  0  0
  150.0681  132.6449  154.8487 H   0  0  0  0  0  0  0  0  0  0  0  0
  148.8898  134.7778  153.2302 H   0  0  0  0  0  0  0  0  0  0  0  0
  149.4235  136.7025  153.4866 H   0  0  0  0  0  0  0  0  0  0  0  0
  150.2013  137.7461  156.0420 H   0  0  0  0  0  0  0  0  0  0  0  0
  151.5785  137.6746  154.9704 H   0  0  0  0  0  0  0  0  0  0  0  0
  150.3246  139.0615  153.2746 H   0  0  0  0  0  0  0  0  0  0  0  0
  147.9587  138.6833  153.6176 H   0  0  0  0  0  0  0  0  0  0  0  0
  148.1109  138.9342  155.3614 H   0  0  0  0  0  0  0  0  0  0  0  0
  148.4898  141.0110  153.1807 H   0  0  0  0  0  0  0  0  0  0  0  0
  147.4339  141.1353  154.5938 H   0  0  0  0  0  0  0  0  0  0  0  0
  149.9820  142.1656  154.6457 H   0  0  0  0  0  0  0  0  0  0  0  0
  149.3102  141.3790  156.0765 H   0  0  0  0  0  0  0  0  0  0  0  0
  146.4541  130.6009  152.4337 H   0  0  0  0  0  0  0  0  0  0  0  0
  1  2  1  0  0  0  0
  1 19  1  0  0  0  0
  1 20  1  0  0  0  0
  1 21  1  0  0  0  0
  2 18  1  0  0  0  0
  2  3  2  0  0  0  0
  3  4  1  0  0  0  0
  4  5  1  0  0  0  0
  4 17  2  0  0  0  0
  5  6  1  0  0  0  0
  5 22  1  0  0  0  0
  5 23  1  0  0  0  0
  6  7  1  0  0  0  0
  6 24  1  0  0  0  0
  6 25  1  0  0  0  0
  7  8  1  0  0  0  0
  7 26  1  0  0  0  0
  8  9  2  0  0  0  0
  8 10  1  0  0  0  0
 10 11  1  0  0  0  0
 10 27  1  0  0  0  0
 11 12  1  0  0  0  0
 11 28  1  0  0  0  0
 11 29  1  0  0  0  0
 12 16  1  0  0  0  0
 12 13  1  0  0  0  0
 12 30  1  0  0  0  0
 13 14  1  0  0  0  0
 13 31  1  0  0  0  0
 13 32  1  0  0  0  0
 14 15  1  0  0  0  0
 14 33  1  0  0  0  0
 14 34  1  0  0  0  0
 15 16  1  0  0  0  0
 15 35  1  0  0  0  0
 15 36  1  0  0  0  0
 17 18  1  0  0  0  0
 17 37  1  0  0  0  0
M  END
> <s_m_source_file>
AV-unprocessed.smi

> <i_m_source_file_index>
1226

> <i_lp_mmshare_version>
43012

> <i_f3d_flags>
0

> <s_epik_input>
W0NIM11jMW5jKFtjSF1zMSlbQ0gyXVtDSDJdW05IXUMoPU8pW05IXVtDSDJdW0NAQEhdMltDSDJdW0NIMl1bQ0gyXU8y

> <s_epik_cmdline>
J2VwaWtfcHl0aG9uJywgJy1waCcsICc3LjAnLCAnLXRuJywgJzgnLCAnLW1hJywgJzIwMCcsICctbWV0YWxfYmluZGluZycsICctaW1hZScsICc8aW5maWxlLm1hZT4nLCAnLW9tYWUnLCAnPG91dGZpbGUubWFlPic=

> <r_epik_Ionization_Penalty>
0.00199722

> <r_epik_Ionization_Penalty_Charging>
0

> <r_epik_Ionization_Penalty_Neutral>
0.00199722

> <r_epik_State_Penalty>
0.00132705

> <r_epik_Charging_Adjusted_Penalty>
0.00132705

> <i_epik_Tot_Q>
0

> <i_epik_Tot_abs_Q>
0

> <r_epik_Metal_State_Penalty>
-0

> <b_epik_Metal_Only>
0

> <s_lp_Force_Field>
OPLS_2005

> <r_lp_Energy>
8.90451

> <b_lp_Chiralities_Consistent>
1

> <s_lp_Variant>
AV-unprocessed.smi:1226-2

> <Gold.Version>
5.8.1

> <Gold.Id.Protein>
6NUR|6NUR_protein|mol2

> <Gold.PLP.Fitness>
41.2305

> <Gold.PLP.PLP>
-32.9825

> <Gold.PLP.part.hbond>
-3.1662

> <Gold.PLP.part.metal>
0.0000

> <Gold.PLP.part.buried>
-4.3944

> <Gold.PLP.part.nonpolar>
-27.2827

> <Gold.PLP.part.repulsive>
1.4520

> <Gold.PLP.ligand.clash>
0.0000

> <Gold.PLP.ligand.torsion>
0.2408

> <Gold.PLP.Chemscore.Hbond>
2.8960

> <Gold.PLP.Chemscore.CHOScore>
0.0000

> <Gold.PLP.Chemscore.Metal>
0.0000

> <Gold.Chemscore.Hbonds>
donor molecule, donor type, donor heavy atom, donor atom, acceptor molecule, acceptor atom, score
      L1  H     7    26       P1  7948  0.81
      L1  H    10    27       P1  7948  1.00
      P1  H  7989  7998       L1    16  0.90

> <Gold.PLP.Chemscore.Internal.Correction>
0.0415

> <Gold.Rescore>
     Score         DG    S(hbond)    S(metal)    S(lipo)     H(rot)  DE(clash)    DE(int)     intcor
     14.97     -15.37       1.84        0.00      70.13       1.75       0.04       0.35       ----

> <Gold.Chemscore.Fitness>
14.9730

> <Gold.Chemscore.DG>
-15.3662

> <Gold.Chemscore.ZeroCoef>
-5.4800

> <Gold.Chemscore.Hbond>
1.8437

> <Gold.Chemscore.Metal>
0.0000

> <Gold.Chemscore.Lipo>
70.1278

> <Gold.Chemscore.Internal_Hbond>
0.0000

> <Gold.Chemscore.DEClash>
0.0402

> <Gold.Chemscore.DEInternal>
0.3530

> <Gold.Chemscore.Rot>
1.7487

> <Gold.Chemscore.Internal.Correction>
   9.000000E+99

> <Gold.Chemscore.Hbonds>
donor molecule, donor type, donor heavy atom, donor atom, acceptor molecule, acceptor atom, score
      L1  H     7    26       P1  7948  0.15
      L1  H    10    27       P1  7948  0.83
      P1  H  7989  7998       L1    16  0.05

> <Gold.Chemscore.Hbond.Weighted>
-6.1580

> <Gold.Chemscore.Metal.Weighted>
-0.0000

> <Gold.Chemscore.Lipo.Weighted>
-8.2050

> <Gold.Chemscore.Internal_Hbond.Weighted>
0.0000

> <Gold.Chemscore.DEClash.Weighted>
0.0402

> <Gold.Chemscore.DEInternal.Weighted>
0.3530

> <Gold.Chemscore.Rot.Weighted>
4.4768

> <Gold.Chemscore.Internal.Correction.Weighted>
   9.000000E+99

> <Gold.Protein.RotatedTorsions>
[ 6907 6896 6895 6894 ] final  124.59 input  -60.11 | X-H torsion
[ 7974 7965 7964 7962 ] final -100.56 input  175.53 | X-H torsion
[ 8008 7997 7996 7995 ] final -115.27 input   59.86 | X-H torsion
[ 10167 10162 10161 10158 ] final   53.86 input  -65.29 | X-H torsion
[ 10718 10713 10712 10709 ] final   36.30 input   66.30 | X-H torsion
[ 10763 10752 10751 10750 ] final   30.35 input  -60.55 | X-H torsion
[ 11005 11000 10999 10996 ] final   99.48 input  -57.11 | X-H torsion

> <Gold.Protein.ActiveResidues>
 VAL166  LYS551  ARG553  GLY616  TRP617  ASP618  TYR619  PRO620  LYS621  CYS622 
 ASP623  PHE694  ASN695  SER759  ASP760  ASP761  ALA762  ILE779  LEU786  VAL792 
 PHE793  MET794  SER795  GLU796  ALA797  LYS798  CYS799  TRP800  GLU811  SER814 

> <Gold.Protein.RotatedAtoms>
  152.4065  133.6896  159.6360 H   0  0  0  0  0  0  0  0  0  0  0  0  # atno 6907 bound_to 6896
  150.7949  133.8700  159.3265 H   0  0  0  0  0  0  0  0  0  0  0  0  # atno 6908 bound_to 6896
  151.6453  135.1009  160.0201 H   0  0  0  0  0  0  0  0  0  0  0  0  # atno 6909 bound_to 6896
  145.2929  140.9357  143.2867 H   0  0  0  0  0  0  0  0  0  0  0  0  # atno 7974 bound_to 7965
  155.0493  140.0393  157.2538 H   0  0  0  0  0  0  0  0  0  0  0  0  # atno 8008 bound_to 7997
  154.7151  140.2700  155.6569 H   0  0  0  0  0  0  0  0  0  0  0  0  # atno 8009 bound_to 7997
  156.2801  140.2714  156.1804 H   0  0  0  0  0  0  0  0  0  0  0  0  # atno 8010 bound_to 7997
  140.2363  144.3632  150.6396 H   0  0  0  0  0  0  0  0  0  0  0  0  # atno 10167 bound_to 10162
  157.3332  130.7508  149.6861 H   0  0  0  0  0  0  0  0  0  0  0  0  # atno 10718 bound_to 10713
  153.0376  135.6466  154.1032 H   0  0  0  0  0  0  0  0  0  0  0  0  # atno 10763 bound_to 10752
  154.0744  135.2878  155.3304 H   0  0  0  0  0  0  0  0  0  0  0  0  # atno 10764 bound_to 10752
  154.6572  135.5404  153.8038 H   0  0  0  0  0  0  0  0  0  0  0  0  # atno 10765 bound_to 10752
  139.8771  134.9097  156.4612 H   0  0  0  0  0  0  0  0  0  0  0  0  # atno 11005 bound_to 11000
  144.9157  139.4473  143.6565 LP  0  0  0  0  0  0  0  0  0  0  0  0  # atno 17320 bound_to 7965
  146.3178  139.7990  142.8969 LP  0  0  0  0  0  0  0  0  0  0  0  0  # atno 17321 bound_to 7965
  140.6147  143.2171  151.6815 LP  0  0  0  0  0  0  0  0  0  0  0  0  # atno 17342 bound_to 10162
  139.5092  144.3583  152.0586 LP  0  0  0  0  0  0  0  0  0  0  0  0  # atno 17343 bound_to 10162
  155.9698  130.4189  150.4350 LP  0  0  0  0  0  0  0  0  0  0  0  0  # atno 17370 bound_to 10713
  157.2386  131.0520  151.2450 LP  0  0  0  0  0  0  0  0  0  0  0  0  # atno 17371 bound_to 10713
  140.8863  133.7881  155.9521 LP  0  0  0  0  0  0  0  0  0  0  0  0  # atno 17394 bound_to 11000
  140.8801  134.2621  157.5148 LP  0  0  0  0  0  0  0  0  0  0  0  0  # atno 17395 bound_to 11000

$$$$
