AV-unprocessed.smi:1962|AV-procd|sdf|7922|dock7
  -GOLD-   2272010 93D 1   1.00000     0.00000
 Structure written by MMmdl.
 36 37  0  0  0  0  0  0  0  0  1 V2000
  156.4739  139.6222  161.4529 C   0  0  0  0  0  0  0  0  0  0  0  0
  155.0979  139.4950  162.1205 C   0  0  2  0  0  0  0  0  0  0  0  0
  154.4005  138.1760  161.7266 C   0  0  0  0  0  0  0  0  0  0  0  0
  154.6052  137.1219  162.7053 N   0  0  0  0  0  0  0  0  0  0  0  0
  153.7364  136.6769  163.6793 C   0  0  0  0  0  0  0  0  0  0  0  0
  154.3589  135.6601  164.3447 C   0  0  0  0  0  0  0  0  0  0  0  0
  155.6223  135.5564  163.6982 C   0  0  0  0  0  0  0  0  0  0  0  0
  155.7685  136.4348  162.7200 N   0  0  0  0  0  0  0  0  0  0  0  0
  154.2790  140.6465  161.7444 N   0  0  0  0  0  0  0  0  0  0  0  0
  154.0845  141.1013  160.4921 C   0  0  0  0  0  0  0  0  0  0  0  0
  154.5627  140.5563  159.4967 O   0  0  0  0  0  0  0  0  0  0  0  0
  153.2610  142.3332  160.3691 C   0  0  0  0  0  0  0  0  0  0  0  0
  153.1634  142.9379  159.2265 N   0  0  0  0  0  0  0  0  0  0  0  0
  152.3952  144.0724  159.0613 N   0  0  0  0  0  0  0  0  0  0  0  0
  152.1695  144.4632  157.6712 C   0  0  0  0  0  0  0  0  0  0  0  0
  151.8888  144.8154  160.0766 C   0  0  0  0  0  0  0  0  0  0  0  0
  151.1920  145.8165  159.9108 O   0  0  0  0  0  0  0  0  0  0  0  0
  152.2517  144.3685  161.4958 C   0  0  0  0  0  0  0  0  0  0  0  0
  152.5112  142.8512  161.5807 C   0  0  0  0  0  0  0  0  0  0  0  0
  157.1222  138.7904  161.7295 H   0  0  0  0  0  0  0  0  0  0  0  0
  156.9738  140.5427  161.7563 H   0  0  0  0  0  0  0  0  0  0  0  0
  156.3894  139.6310  160.3657 H   0  0  0  0  0  0  0  0  0  0  0  0
  155.2630  139.4911  163.1994 H   0  0  0  0  0  0  0  0  0  0  0  0
  153.3296  138.3344  161.5875 H   0  0  0  0  0  0  0  0  0  0  0  0
  154.7876  137.8209  160.7708 H   0  0  0  0  0  0  0  0  0  0  0  0
  152.7567  137.1119  163.8115 H   0  0  0  0  0  0  0  0  0  0  0  0
  153.9702  135.0773  165.1666 H   0  0  0  0  0  0  0  0  0  0  0  0
  156.4324  134.8741  163.9097 H   0  0  0  0  0  0  0  0  0  0  0  0
  153.8507  141.1630  162.4993 H   0  0  0  0  0  0  0  0  0  0  0  0
  152.5492  145.4693  157.4867 H   0  0  0  0  0  0  0  0  0  0  0  0
  151.1035  144.4513  157.4389 H   0  0  0  0  0  0  0  0  0  0  0  0
  152.6663  143.7901  156.9705 H   0  0  0  0  0  0  0  0  0  0  0  0
  153.1507  144.9113  161.7900 H   0  0  0  0  0  0  0  0  0  0  0  0
  151.4661  144.6592  162.1940 H   0  0  0  0  0  0  0  0  0  0  0  0
  151.5653  142.3161  161.6728 H   0  0  0  0  0  0  0  0  0  0  0  0
  153.0696  142.6480  162.4954 H   0  0  0  0  0  0  0  0  0  0  0  0
  1  2  1  0  0  0  0
  1 20  1  0  0  0  0
  1 21  1  0  0  0  0
  1 22  1  0  0  0  0
  2  3  1  0  0  0  0
  2  9  1  0  0  0  0
  2 23  1  0  0  0  0
  3  4  1  0  0  0  0
  3 24  1  0  0  0  0
  3 25  1  0  0  0  0
  4  8  1  0  0  0  0
  4  5  1  0  0  0  0
  5  6  2  0  0  0  0
  5 26  1  0  0  0  0
  6  7  1  0  0  0  0
  6 27  1  0  0  0  0
  7  8  2  0  0  0  0
  7 28  1  0  0  0  0
  9 10  1  0  0  0  0
  9 29  1  0  0  0  0
 10 11  2  0  0  0  0
 10 12  1  0  0  0  0
 12 19  1  0  0  0  0
 12 13  2  0  0  0  0
 13 14  1  0  0  0  0
 14 15  1  0  0  0  0
 14 16  1  0  0  0  0
 15 30  1  0  0  0  0
 15 31  1  0  0  0  0
 15 32  1  0  0  0  0
 16 17  2  0  0  0  0
 16 18  1  0  0  0  0
 18 19  1  0  0  0  0
 18 33  1  0  0  0  0
 18 34  1  0  0  0  0
 19 35  1  0  0  0  0
 19 36  1  0  0  0  0
M  END
> <s_m_source_file>
AV-unprocessed.smi

> <i_m_source_file_index>
1962

> <i_lp_mmshare_version>
43012

> <i_f3d_flags>
0

> <s_epik_input>
bjFbY0hdW2NIXVtjSF1uMVtDSDJdW0NAQEhdKFtDSDNdKVtOSF1DKD1PKUMyPU5OKFtDSDNdKUMoPU8pW0NIMl1bQ0gyXTI=

> <s_epik_cmdline>
J2VwaWtfcHl0aG9uJywgJy1waCcsICc3LjAnLCAnLXRuJywgJzgnLCAnLW1hJywgJzIwMCcsICctbWV0YWxfYmluZGluZycsICctaW1hZScsICc8aW5maWxlLm1hZT4nLCAnLW9tYWUnLCAnPG91dGZpbGUubWFlPic=

> <r_lp_tautomer_probability>
1

> <r_epik_Ionization_Penalty>
9.43868e-05

> <r_epik_Ionization_Penalty_Charging>
0

> <r_epik_Ionization_Penalty_Neutral>
9.43868e-05

> <r_epik_State_Penalty>
-0

> <r_epik_Charging_Adjusted_Penalty>
0

> <i_epik_Tot_Q>
0

> <i_epik_Tot_abs_Q>
0

> <r_epik_Metal_State_Penalty>
0.0732556

> <b_epik_Metal_Only>
0

> <s_epik_Chemistry_Notes>
This compound has an imine and may undergo hydrolysis.

> <s_lp_Force_Field>
OPLS_2005

> <r_lp_Energy>
16.0967

> <b_lp_Chiralities_Consistent>
1

> <s_lp_Variant>
AV-unprocessed.smi:1962-1

> <Gold.Version>
5.8.1

> <Gold.Id.Protein>
6NUR|6NUR_protein|mol2

> <Gold.PLP.Fitness>
46.0073

> <Gold.PLP.PLP>
-46.9212

> <Gold.PLP.part.hbond>
-2.5199

> <Gold.PLP.part.metal>
0.0000

> <Gold.PLP.part.buried>
-4.8500

> <Gold.PLP.part.nonpolar>
-38.6186

> <Gold.PLP.part.repulsive>
0.2162

> <Gold.PLP.ligand.clash>
0.0000

> <Gold.PLP.ligand.torsion>
0.9244

> <Gold.PLP.Chemscore.Hbond>
0.2995

> <Gold.PLP.Chemscore.CHOScore>
0.0000

> <Gold.PLP.Chemscore.Metal>
0.0000

> <Gold.Chemscore.Hbonds>
donor molecule, donor type, donor heavy atom, donor atom, acceptor molecule, acceptor atom, score
      P1  H  7997  8009       L1    11  0.30

> <Gold.PLP.Chemscore.Internal.Correction>
0.0364

> <Gold.Rescore>
     Score         DG    S(hbond)    S(metal)    S(lipo)     H(rot)  DE(clash)    DE(int)     intcor
     12.49     -14.54       0.85        0.00      86.58       1.53       0.03       2.03       ----

> <Gold.Chemscore.Fitness>
12.4920

> <Gold.Chemscore.DG>
-14.5440

> <Gold.Chemscore.ZeroCoef>
-5.4800

> <Gold.Chemscore.Hbond>
0.8501

> <Gold.Chemscore.Metal>
0.0000

> <Gold.Chemscore.Lipo>
86.5786

> <Gold.Chemscore.Internal_Hbond>
0.0000

> <Gold.Chemscore.DEClash>
0.0270

> <Gold.Chemscore.DEInternal>
2.0250

> <Gold.Chemscore.Rot>
1.5254

> <Gold.Chemscore.Internal.Correction>
   9.000000E+99

> <Gold.Chemscore.Hbonds>
donor molecule, donor type, donor heavy atom, donor atom, acceptor molecule, acceptor atom, score
      P1  H  7997  8009       L1    11  0.30

> <Gold.Chemscore.Hbond.Weighted>
-2.8394

> <Gold.Chemscore.Metal.Weighted>
-0.0000

> <Gold.Chemscore.Lipo.Weighted>
-10.1297

> <Gold.Chemscore.Internal_Hbond.Weighted>
0.0000

> <Gold.Chemscore.DEClash.Weighted>
0.0270

> <Gold.Chemscore.DEInternal.Weighted>
2.0250

> <Gold.Chemscore.Rot.Weighted>
3.9051

> <Gold.Chemscore.Internal.Correction.Weighted>
   9.000000E+99

> <Gold.Protein.RotatedTorsions>
[ 6907 6896 6895 6894 ] final  130.58 input  -60.11 | X-H torsion
[ 7974 7965 7964 7962 ] final   10.61 input  175.53 | X-H torsion
[ 8008 7997 7996 7995 ] final  119.88 input   59.86 | X-H torsion
[ 10167 10162 10161 10158 ] final -142.18 input  -65.29 | X-H torsion
[ 10718 10713 10712 10709 ] final    7.53 input   66.30 | X-H torsion
[ 10763 10752 10751 10750 ] final   11.39 input  -60.55 | X-H torsion
[ 11005 11000 10999 10996 ] final  -89.28 input  -57.11 | X-H torsion

> <Gold.Protein.ActiveResidues>
 VAL166  LYS551  ARG553  GLY616  TRP617  ASP618  TYR619  PRO620  LYS621  CYS622 
 ASP623  PHE694  ASN695  SER759  ASP760  ASP761  ALA762  ILE779  LEU786  VAL792 
 PHE793  MET794  SER795  GLU796  ALA797  LYS798  CYS799  TRP800  GLU811  SER814 

> <Gold.Protein.RotatedAtoms>
  152.3512  133.6181  159.5945 H   0  0  0  0  0  0  0  0  0  0  0  0  # atno 6907 bound_to 6896
  150.7539  133.9572  159.3513 H   0  0  0  0  0  0  0  0  0  0  0  0  # atno 6908 bound_to 6896
  151.7423  135.0852  160.0369 H   0  0  0  0  0  0  0  0  0  0  0  0  # atno 6909 bound_to 6896
  146.2385  139.9608  142.8459 H   0  0  0  0  0  0  0  0  0  0  0  0  # atno 7974 bound_to 7965
  156.2617  140.2843  156.1061 H   0  0  0  0  0  0  0  0  0  0  0  0  # atno 8008 bound_to 7997
  155.1307  140.0394  157.2791 H   0  0  0  0  0  0  0  0  0  0  0  0  # atno 8009 bound_to 7997
  154.6602  140.2564  155.7124 H   0  0  0  0  0  0  0  0  0  0  0  0  # atno 8010 bound_to 7997
  139.8113  143.7698  152.2663 H   0  0  0  0  0  0  0  0  0  0  0  0  # atno 10167 bound_to 10162
  156.9382  130.5851  149.5651 H   0  0  0  0  0  0  0  0  0  0  0  0  # atno 10718 bound_to 10713
  153.1931  135.6845  153.8327 H   0  0  0  0  0  0  0  0  0  0  0  0  # atno 10763 bound_to 10752
  153.7619  135.3208  155.3339 H   0  0  0  0  0  0  0  0  0  0  0  0  # atno 10764 bound_to 10752
  154.8129  135.4705  154.0663 H   0  0  0  0  0  0  0  0  0  0  0  0  # atno 10765 bound_to 10752
  141.1587  133.7620  156.9572 H   0  0  0  0  0  0  0  0  0  0  0  0  # atno 11005 bound_to 11000
  145.1772  140.9750  143.4287 LP  0  0  0  0  0  0  0  0  0  0  0  0  # atno 17320 bound_to 7965
  144.9974  139.3630  143.6184 LP  0  0  0  0  0  0  0  0  0  0  0  0  # atno 17321 bound_to 7965
  139.7848  144.7431  151.0037 LP  0  0  0  0  0  0  0  0  0  0  0  0  # atno 17342 bound_to 10162
  140.7817  143.4503  151.0422 LP  0  0  0  0  0  0  0  0  0  0  0  0  # atno 17343 bound_to 10162
  156.0416  130.5498  150.8784 LP  0  0  0  0  0  0  0  0  0  0  0  0  # atno 17370 bound_to 10713
  157.5802  131.0946  150.9283 LP  0  0  0  0  0  0  0  0  0  0  0  0  # atno 17371 bound_to 10713
  140.1217  134.9412  157.2213 LP  0  0  0  0  0  0  0  0  0  0  0  0  # atno 17394 bound_to 11000
  140.3063  134.3074  155.7277 LP  0  0  0  0  0  0  0  0  0  0  0  0  # atno 17395 bound_to 11000

$$$$
