AV-unprocessed.smi:169|AV-procd|sdf|1403|dock10
  -GOLD-   2262019153D 1   1.00000     0.00000
 Structure written by MMmdl.
 56 60  0  0  0  0  0  0  0  0  2 V2000
  145.9580  129.5602  151.5412 C   0  0  0  0  0  0  0  0  0  0  0  0
  145.8247  131.0898  151.5894 C   0  0  0  0  0  0  0  0  0  0  0  0
  147.1324  131.7922  151.7185 N   0  3  1  0  0  0  0  0  0  0  0  0
  147.0716  133.2743  151.4348 C   0  0  0  0  0  0  0  0  0  0  0  0
  146.2687  134.1722  152.4549 C   0  0  0  0  0  0  0  0  0  0  0  0
  146.9547  134.4565  153.8411 C   0  0  1  0  0  0  0  0  0  0  0  0
  146.1855  133.9105  155.0956 C   0  0  0  0  0  0  0  0  0  0  0  0
  146.7847  132.4878  155.3673 C   0  0  0  0  0  0  0  0  0  0  0  0
  147.6997  132.3653  154.1464 C   0  0  3  0  0  0  0  0  0  0  0  0
  147.8872  131.3841  152.9664 C   0  0  0  0  0  0  0  0  0  0  0  0
  148.1966  133.7048  153.8890 N   0  0  0  0  0  0  0  0  0  0  0  0
  149.2497  134.1324  154.6405 C   0  0  0  0  0  0  0  0  0  0  0  0
  150.3619  133.3562  154.7337 N   0  0  0  0  0  0  0  0  0  0  0  0
  151.4116  133.7528  155.4581 C   0  0  0  0  0  0  0  0  0  0  0  0
  151.5595  134.8726  156.1663 N   0  0  0  0  0  0  0  0  0  0  0  0
  150.4452  135.6544  156.0916 C   0  0  0  0  0  0  0  0  0  0  0  0
  149.2558  135.3621  155.3641 C   0  0  0  0  0  0  0  0  0  0  0  0
  148.3359  136.3890  155.5452 N   0  0  0  0  0  0  0  0  0  0  0  0
  148.9466  137.2379  156.3250 C   0  0  0  0  0  0  0  0  0  0  0  0
  150.2256  136.8840  156.6890 N   0  0  0  0  0  0  0  0  0  0  0  0
  151.1343  137.6354  157.5439 C   0  0  0  0  0  0  0  0  0  0  0  0
  151.4949  139.0490  157.0262 C   0  0  0  0  0  0  0  0  0  0  0  0
  152.0561  138.9065  155.6052 C   0  0  0  0  0  0  0  0  0  0  0  0
  152.5869  140.1305  155.1392 O   0  0  0  0  0  0  0  0  0  0  0  0
  150.4370  140.1525  157.2090 C   0  0  0  0  0  0  0  0  0  0  0  0
  151.1193  140.6869  158.3631 O   0  0  0  0  0  0  0  0  0  0  0  0
  152.2984  139.9481  157.9799 C   0  0  0  0  0  0  0  0  0  0  0  0
  144.9760  129.0907  151.6044 H   0  0  0  0  0  0  0  0  0  0  0  0
  146.5546  129.1871  152.3743 H   0  0  0  0  0  0  0  0  0  0  0  0
  146.4142  129.2167  150.6131 H   0  0  0  0  0  0  0  0  0  0  0  0
  145.2744  131.4506  150.7204 H   0  0  0  0  0  0  0  0  0  0  0  0
  145.2106  131.3307  152.4580 H   0  0  0  0  0  0  0  0  0  0  0  0
  148.0903  133.6486  151.3245 H   0  0  0  0  0  0  0  0  0  0  0  0
  146.6402  133.4166  150.4453 H   0  0  0  0  0  0  0  0  0  0  0  0
  146.1094  135.1394  151.9770 H   0  0  0  0  0  0  0  0  0  0  0  0
  145.2645  133.7734  152.5968 H   0  0  0  0  0  0  0  0  0  0  0  0
  147.1052  135.5323  153.9316 H   0  0  0  0  0  0  0  0  0  0  0  0
  146.3640  134.5523  155.9592 H   0  0  0  0  0  0  0  0  0  0  0  0
  145.1078  133.8817  154.9321 H   0  0  0  0  0  0  0  0  0  0  0  0
  147.3786  132.4953  156.2823 H   0  0  0  0  0  0  0  0  0  0  0  0
  146.0289  131.7034  155.4716 H   0  0  0  0  0  0  0  0  0  0  0  0
  146.6951  132.2625  153.7563 H   0  0  0  0  0  0  0  0  0  0  0  0
  147.6468  130.3637  153.2686 H   0  0  0  0  0  0  0  0  0  0  0  0
  148.9440  131.3661  152.7001 H   0  0  0  0  0  0  0  0  0  0  0  0
  152.2537  133.0767  155.4705 H   0  0  0  0  0  0  0  0  0  0  0  0
  148.4755  138.1514  156.6565 H   0  0  0  0  0  0  0  0  0  0  0  0
  150.6752  137.6976  158.5314 H   0  0  0  0  0  0  0  0  0  0  0  0
  152.0356  137.0356  157.6756 H   0  0  0  0  0  0  0  0  0  0  0  0
  152.8343  138.1438  155.5636 H   0  0  0  0  0  0  0  0  0  0  0  0
  151.2782  138.5922  154.9085 H   0  0  0  0  0  0  0  0  0  0  0  0
  152.1196  140.3826  154.3572 H   0  0  0  0  0  0  0  0  0  0  0  0
  150.4081  140.8761  156.3925 H   0  0  0  0  0  0  0  0  0  0  0  0
  149.4319  139.7996  157.4343 H   0  0  0  0  0  0  0  0  0  0  0  0
  152.7639  139.4229  158.8130 H   0  0  0  0  0  0  0  0  0  0  0  0
  153.0264  140.5861  157.4753 H   0  0  0  0  0  0  0  0  0  0  0  0
  147.6848  131.4070  150.9658 H   0  0  0  0  0  0  0  0  0  0  0  0
  1  2  1  0  0  0  0
  1 28  1  0  0  0  0
  1 29  1  0  0  0  0
  1 30  1  0  0  0  0
  2  3  1  0  0  0  0
  2 31  1  0  0  0  0
  2 32  1  0  0  0  0
  3 10  1  0  0  0  0
  3  4  1  0  0  0  0
  3 56  1  0  0  0  0
  4  5  1  0  0  0  0
  4 33  1  0  0  0  0
  4 34  1  0  0  0  0
  5  6  1  0  0  0  0
  5 35  1  0  0  0  0
  5 36  1  0  0  0  0
  6 11  1  0  0  0  0
  6  7  1  0  0  0  0
  6 37  1  0  0  0  0
  7  8  1  0  0  0  0
  7 38  1  0  0  0  0
  7 39  1  0  0  0  0
  8  9  1  0  0  0  0
  8 40  1  0  0  0  0
  8 41  1  0  0  0  0
  9 10  1  0  0  0  0
  9 11  1  0  0  0  0
  9 42  1  0  0  0  0
 10 43  1  0  0  0  0
 10 44  1  0  0  0  0
 11 12  1  0  0  0  0
 12 17  1  0  0  0  0
 12 13  2  0  0  0  0
 13 14  1  0  0  0  0
 14 15  2  0  0  0  0
 14 45  1  0  0  0  0
 15 16  1  0  0  0  0
 16 20  1  0  0  0  0
 16 17  2  0  0  0  0
 17 18  1  0  0  0  0
 18 19  2  0  0  0  0
 19 20  1  0  0  0  0
 19 46  1  0  0  0  0
 20 21  1  0  0  0  0
 21 22  1  0  0  0  0
 21 47  1  0  0  0  0
 21 48  1  0  0  0  0
 22 27  1  0  0  0  0
 22 23  1  0  0  0  0
 22 25  1  0  0  0  0
 23 24  1  0  0  0  0
 23 49  1  0  0  0  0
 23 50  1  0  0  0  0
 24 51  1  0  0  0  0
 25 26  1  0  0  0  0
 25 52  1  0  0  0  0
 25 53  1  0  0  0  0
 26 27  1  0  0  0  0
 27 54  1  0  0  0  0
 27 55  1  0  0  0  0
M  CHG  1   3   1
M  END
> <s_m_source_file>
AV-unprocessed.smi

> <i_m_source_file_index>
169

> <i_lp_mmshare_version>
43012

> <i_f3d_flags>
0

> <s_epik_input>
W0NASF0xMltDSDJdW0NIMl1OKFtDSDJdW0NIM10pW0NIMl1bQ0BIXShbQ0gyXVtDSDJdMSlOMmMobltjSF1uMyljKGMzNCluW2NIXW40W0NIMl1DNShbQ0gyXVtPSF0pW0NIMl1PW0NIMl01

> <s_epik_cmdline>
J2VwaWtfcHl0aG9uJywgJy1waCcsICc3LjAnLCAnLXRuJywgJzgnLCAnLW1hJywgJzIwMCcsICctbWV0YWxfYmluZGluZycsICctaW1hZScsICc8aW5maWxlLm1hZT4nLCAnLW9tYWUnLCAnPG91dGZpbGUubWFlPic=

> <r_lp_tautomer_probability>
1

> <r_epik_Ionization_Penalty>
0.00274162

> <r_epik_Ionization_Penalty_Charging>
0.00243722

> <r_epik_Ionization_Penalty_Neutral>
0.000304399

> <r_epik_State_Penalty>
-0

> <r_epik_Charging_Adjusted_Penalty>
0.00243722

> <i_epik_Tot_Q>
1

> <i_epik_Tot_abs_Q>
1

> <r_epik_Metal_State_Penalty>
-0

> <b_epik_Metal_Only>
0

> <s_lp_Force_Field>
OPLS_2005

> <r_lp_Energy>
131.702

> <b_lp_Chiralities_Consistent>
1

> <s_lp_Variant>
AV-unprocessed.smi:169-6

> <Gold.Version>
5.8.1

> <Gold.Id.Protein>
6NUR|6NUR_protein|mol2

> <Gold.PLP.Fitness>
36.0238

> <Gold.PLP.PLP>
-30.3143

> <Gold.PLP.part.hbond>
-3.0000

> <Gold.PLP.part.metal>
0.0000

> <Gold.PLP.part.buried>
-5.7107

> <Gold.PLP.part.nonpolar>
-21.9615

> <Gold.PLP.part.repulsive>
0.2155

> <Gold.PLP.ligand.clash>
0.0000

> <Gold.PLP.ligand.torsion>
0.3532

> <Gold.PLP.Chemscore.Hbond>
2.0000

> <Gold.PLP.Chemscore.CHOScore>
0.0000

> <Gold.PLP.Chemscore.Metal>
0.0000

> <Gold.Chemscore.Hbonds>
donor molecule, donor type, donor heavy atom, donor atom, acceptor molecule, acceptor atom, score
      L1  H     3    56       P1 10747  1.00
      P1  H  7997  8010       L1    24  0.98
      P1  H 10752 10763       L1    15  0.03

> <Gold.PLP.Chemscore.Internal.Correction>
0.4158

> <Gold.Rescore>
     Score         DG    S(hbond)    S(metal)    S(lipo)     H(rot)  DE(clash)    DE(int)     intcor
     11.80     -13.79       1.99        0.00      71.64       2.62       0.04       1.95       ----

> <Gold.Chemscore.Fitness>
11.8008

> <Gold.Chemscore.DG>
-13.7899

> <Gold.Chemscore.ZeroCoef>
-5.4800

> <Gold.Chemscore.Hbond>
1.9876

> <Gold.Chemscore.Metal>
0.0000

> <Gold.Chemscore.Lipo>
71.6372

> <Gold.Chemscore.Internal_Hbond>
0.0000

> <Gold.Chemscore.DEClash>
0.0370

> <Gold.Chemscore.DEInternal>
1.9521

> <Gold.Chemscore.Rot>
2.6212

> <Gold.Chemscore.Internal.Correction>
   9.000000E+99

> <Gold.Chemscore.Hbonds>
donor molecule, donor type, donor heavy atom, donor atom, acceptor molecule, acceptor atom, score
      L1  H     3    56       P1 10747  0.95
      P1  H  7997  8010       L1    24  0.23

> <Gold.Chemscore.Hbond.Weighted>
-6.6385

> <Gold.Chemscore.Metal.Weighted>
-0.0000

> <Gold.Chemscore.Lipo.Weighted>
-8.3815

> <Gold.Chemscore.Internal_Hbond.Weighted>
0.0000

> <Gold.Chemscore.DEClash.Weighted>
0.0370

> <Gold.Chemscore.DEInternal.Weighted>
1.9521

> <Gold.Chemscore.Rot.Weighted>
6.7102

> <Gold.Chemscore.Internal.Correction.Weighted>
   9.000000E+99

> <Gold.Protein.RotatedTorsions>
[ 6907 6896 6895 6894 ] final -137.94 input  -60.11 | X-H torsion
[ 7974 7965 7964 7962 ] final  -69.45 input  175.53 | X-H torsion
[ 8008 7997 7996 7995 ] final   86.15 input   59.86 | X-H torsion
[ 10167 10162 10161 10158 ] final  138.48 input  -65.29 | X-H torsion
[ 10718 10713 10712 10709 ] final    0.13 input   66.30 | X-H torsion
[ 10763 10752 10751 10750 ] final   49.09 input  -60.55 | X-H torsion
[ 11005 11000 10999 10996 ] final -157.55 input  -57.11 | X-H torsion

> <Gold.Protein.ActiveResidues>
 VAL166  LYS551  ARG553  GLY616  TRP617  ASP618  TYR619  PRO620  LYS621  CYS622 
 ASP623  PHE694  ASN695  SER759  ASP760  ASP761  ALA762  ILE779  LEU786  VAL792 
 PHE793  MET794  SER795  GLU796  ALA797  LYS798  CYS799  TRP800  GLU811  SER814 

> <Gold.Protein.RotatedAtoms>
  151.0287  133.5810  159.2662 H   0  0  0  0  0  0  0  0  0  0  0  0  # atno 6907 bound_to 6896
  151.2900  135.0738  159.9210 H   0  0  0  0  0  0  0  0  0  0  0  0  # atno 6908 bound_to 6896
  152.5340  133.9987  159.7939 H   0  0  0  0  0  0  0  0  0  0  0  0  # atno 6909 bound_to 6896
  145.7036  140.9106  143.0718 H   0  0  0  0  0  0  0  0  0  0  0  0  # atno 7974 bound_to 7965
  155.9591  140.3395  155.6474 H   0  0  0  0  0  0  0  0  0  0  0  0  # atno 8008 bound_to 7997
  155.6822  140.0739  157.2499 H   0  0  0  0  0  0  0  0  0  0  0  0  # atno 8009 bound_to 7997
  154.4139  140.1672  156.1982 H   0  0  0  0  0  0  0  0  0  0  0  0  # atno 8010 bound_to 7997
  139.5109  144.6350  151.5719 H   0  0  0  0  0  0  0  0  0  0  0  0  # atno 10167 bound_to 10162
  156.8289  130.5481  149.5689 H   0  0  0  0  0  0  0  0  0  0  0  0  # atno 10718 bound_to 10713
  152.9788  135.5923  154.4032 H   0  0  0  0  0  0  0  0  0  0  0  0  # atno 10763 bound_to 10752
  154.3675  135.2767  155.2287 H   0  0  0  0  0  0  0  0  0  0  0  0  # atno 10764 bound_to 10752
  154.4257  135.6048  153.6092 H   0  0  0  0  0  0  0  0  0  0  0  0  # atno 10765 bound_to 10752
  140.6634  134.4325  157.5234 H   0  0  0  0  0  0  0  0  0  0  0  0  # atno 11005 bound_to 11000
  144.6961  139.8981  143.7457 LP  0  0  0  0  0  0  0  0  0  0  0  0  # atno 17320 bound_to 7965
  146.0775  139.3763  143.0485 LP  0  0  0  0  0  0  0  0  0  0  0  0  # atno 17321 bound_to 7965
  140.6096  143.9460  150.6444 LP  0  0  0  0  0  0  0  0  0  0  0  0  # atno 17342 bound_to 10162
  140.2698  143.3464  152.1248 LP  0  0  0  0  0  0  0  0  0  0  0  0  # atno 17343 bound_to 10162
  156.0946  130.5922  150.9791 LP  0  0  0  0  0  0  0  0  0  0  0  0  # atno 17370 bound_to 10713
  157.6417  131.0909  150.8237 LP  0  0  0  0  0  0  0  0  0  0  0  0  # atno 17371 bound_to 10713
  139.9005  134.8567  156.1916 LP  0  0  0  0  0  0  0  0  0  0  0  0  # atno 17394 bound_to 11000
  141.0448  133.6919  156.1662 LP  0  0  0  0  0  0  0  0  0  0  0  0  # atno 17395 bound_to 11000

$$$$
