AV-unprocessed.smi:1681|AV-procd|sdf|6742|dock1
  -GOLD-   22720 7493D 1   1.00000     0.00000
 Structure written by MMmdl.
 40 41  0  0  0  0  0  0  0  0  1 V2000
  150.9710  137.7684  154.1597 C   0  0  0  0  0  0  0  0  0  0  0  0
  150.5416  139.1546  154.6449 C   0  0  0  0  0  0  0  0  0  0  0  0
  151.4115  140.0157  154.7778 O   0  0  0  0  0  0  0  0  0  0  0  0
  149.2342  139.3868  154.9142 N   0  0  0  0  0  0  0  0  0  0  0  0
  148.6649  140.6819  155.3088 C   0  0  0  0  0  0  0  0  0  0  0  0
  147.8367  141.2339  154.1346 C   0  0  0  0  0  0  0  0  0  0  0  0
  146.7531  140.2270  153.7031 C   0  0  0  0  0  0  0  0  0  0  0  0
  147.3434  138.8170  153.4631 C   0  0  2  0  0  0  0  0  0  0  0  0
  146.2385  137.7941  153.1671 C   0  0  0  0  0  0  0  0  0  0  0  0
  145.1731  137.8491  153.7820 O   0  0  0  0  0  0  0  0  0  0  0  0
  146.5244  136.8766  152.2261 N   0  0  0  0  0  0  0  0  0  0  0  0
  145.6911  135.8295  151.7583 C   0  0  0  0  0  0  0  0  0  0  0  0
  144.2777  135.9044  151.6569 C   0  0  0  0  0  0  0  0  0  0  0  0
  143.7698  134.7718  151.1956 N   0  0  0  0  0  0  0  0  0  0  0  0
  144.8392  133.9603  150.9986 N   0  0  0  0  0  0  0  0  0  0  0  0
  144.6366  132.6102  150.5037 C   0  0  0  0  0  0  0  0  0  0  0  0
  144.0738  132.6177  149.0806 C   0  0  0  0  0  0  0  0  0  0  0  0
  142.7572  132.7992  148.9440 N   0  0  0  0  0  0  0  0  0  0  0  0
  144.8177  132.4559  148.1157 O   0  0  0  0  0  0  0  0  0  0  0  0
  146.0300  134.5776  151.3289 C   0  0  0  0  0  0  0  0  0  0  0  0
  148.1874  138.3834  154.6831 C   0  0  0  0  0  0  0  0  0  0  0  0
  150.7005  137.0022  154.8871 H   0  0  0  0  0  0  0  0  0  0  0  0
  152.0521  137.7277  154.0218 H   0  0  0  0  0  0  0  0  0  0  0  0
  150.5037  137.5320  153.2034 H   0  0  0  0  0  0  0  0  0  0  0  0
  148.0247  140.5404  156.1810 H   0  0  0  0  0  0  0  0  0  0  0  0
  149.4114  141.4136  155.6142 H   0  0  0  0  0  0  0  0  0  0  0  0
  147.3752  142.1818  154.4127 H   0  0  0  0  0  0  0  0  0  0  0  0
  148.4964  141.4454  153.2920 H   0  0  0  0  0  0  0  0  0  0  0  0
  145.9893  140.1833  154.4813 H   0  0  0  0  0  0  0  0  0  0  0  0
  146.2535  140.5868  152.8026 H   0  0  0  0  0  0  0  0  0  0  0  0
  148.0057  138.8703  152.5964 H   0  0  0  0  0  0  0  0  0  0  0  0
  147.4374  136.9363  151.7988 H   0  0  0  0  0  0  0  0  0  0  0  0
  143.6167  136.7236  151.8988 H   0  0  0  0  0  0  0  0  0  0  0  0
  145.5846  132.0704  150.5301 H   0  0  0  0  0  0  0  0  0  0  0  0
  143.9517  132.0863  151.1720 H   0  0  0  0  0  0  0  0  0  0  0  0
  142.3401  132.8056  148.0245 H   0  0  0  0  0  0  0  0  0  0  0  0
  142.1823  132.9237  149.7646 H   0  0  0  0  0  0  0  0  0  0  0  0
  146.9810  134.0750  151.2345 H   0  0  0  0  0  0  0  0  0  0  0  0
  148.5958  137.3838  154.5246 H   0  0  0  0  0  0  0  0  0  0  0  0
  147.5642  138.3080  155.5760 H   0  0  0  0  0  0  0  0  0  0  0  0
  1  2  1  0  0  0  0
  1 22  1  0  0  0  0
  1 23  1  0  0  0  0
  1 24  1  0  0  0  0
  2  3  2  0  0  0  0
  2  4  1  0  0  0  0
  4 21  1  0  0  0  0
  4  5  1  0  0  0  0
  5  6  1  0  0  0  0
  5 25  1  0  0  0  0
  5 26  1  0  0  0  0
  6  7  1  0  0  0  0
  6 27  1  0  0  0  0
  6 28  1  0  0  0  0
  7  8  1  0  0  0  0
  7 29  1  0  0  0  0
  7 30  1  0  0  0  0
  8  9  1  0  0  0  0
  8 21  1  0  0  0  0
  8 31  1  0  0  0  0
  9 10  2  0  0  0  0
  9 11  1  0  0  0  0
 11 12  1  0  0  0  0
 11 32  1  0  0  0  0
 12 20  2  0  0  0  0
 12 13  1  0  0  0  0
 13 14  2  0  0  0  0
 13 33  1  0  0  0  0
 14 15  1  0  0  0  0
 15 16  1  0  0  0  0
 15 20  1  0  0  0  0
 16 17  1  0  0  0  0
 16 34  1  0  0  0  0
 16 35  1  0  0  0  0
 17 18  1  0  0  0  0
 17 19  2  0  0  0  0
 18 36  1  0  0  0  0
 18 37  1  0  0  0  0
 20 38  1  0  0  0  0
 21 39  1  0  0  0  0
 21 40  1  0  0  0  0
M  END
> <s_m_source_file>
AV-unprocessed.smi

> <i_m_source_file_index>
1681

> <i_lp_mmshare_version>
43012

> <i_f3d_flags>
0

> <s_epik_input>
W0NIM11DKD1PKU4xW0NIMl1bQ0gyXVtDSDJdW0NASF0oW0NIMl0xKUMoPU8pW05IXWMyW2NIXW5uKFtjSF0yKVtDSDJdQyg9TylbTkgyXQ==

> <s_epik_cmdline>
J2VwaWtfcHl0aG9uJywgJy1waCcsICc3LjAnLCAnLXRuJywgJzgnLCAnLW1hJywgJzIwMCcsICctbWV0YWxfYmluZGluZycsICctaW1hZScsICc8aW5maWxlLm1hZT4nLCAnLW9tYWUnLCAnPG91dGZpbGUubWFlPic=

> <r_lp_tautomer_probability>
1

> <r_epik_Ionization_Penalty>
6.05275e-06

> <r_epik_Ionization_Penalty_Charging>
0

> <r_epik_Ionization_Penalty_Neutral>
6.05275e-06

> <r_epik_State_Penalty>
-0

> <r_epik_Charging_Adjusted_Penalty>
0

> <i_epik_Tot_Q>
0

> <i_epik_Tot_abs_Q>
0

> <r_epik_Metal_State_Penalty>
-0

> <b_epik_Metal_Only>
0

> <s_lp_Force_Field>
OPLS_2005

> <r_lp_Energy>
29.5866

> <b_lp_Chiralities_Consistent>
1

> <s_lp_Variant>
AV-unprocessed.smi:1681-2

> <Gold.Version>
5.8.1

> <Gold.Id.Protein>
6NUR|6NUR_protein|mol2

> <Gold.PLP.Fitness>
46.7161

> <Gold.PLP.PLP>
-39.3581

> <Gold.PLP.part.hbond>
-5.1324

> <Gold.PLP.part.metal>
0.0000

> <Gold.PLP.part.buried>
-5.4613

> <Gold.PLP.part.nonpolar>
-30.9609

> <Gold.PLP.part.repulsive>
2.7860

> <Gold.PLP.ligand.clash>
0.0000

> <Gold.PLP.ligand.torsion>
1.2008

> <Gold.PLP.Chemscore.Hbond>
2.4390

> <Gold.PLP.Chemscore.CHOScore>
0.8037

> <Gold.PLP.Chemscore.Metal>
0.0000

> <Gold.Chemscore.Hbonds>
donor molecule, donor type, donor heavy atom, donor atom, acceptor molecule, acceptor atom, score
      L1  H    11    32       P1  7948  0.85
      L1  H    18    37       P1 10186  0.22
      P1  H  7989  7998       L1     3  1.00
      L1  C    13    33       P1 10171  0.18

> <Gold.PLP.Chemscore.Internal.Correction>
0.0313

> <Gold.Rescore>
     Score         DG    S(hbond)    S(metal)    S(lipo)     H(rot)  DE(clash)    DE(int)     intcor
     14.08     -16.57       2.59        0.00      63.73       1.96       0.38       2.11       ----

> <Gold.Chemscore.Fitness>
14.0825

> <Gold.Chemscore.DG>
-16.5747

> <Gold.Chemscore.ZeroCoef>
-5.4800

> <Gold.Chemscore.Hbond>
2.5928

> <Gold.Chemscore.Metal>
0.0000

> <Gold.Chemscore.Lipo>
63.7335

> <Gold.Chemscore.Internal_Hbond>
0.0000

> <Gold.Chemscore.DEClash>
0.3791

> <Gold.Chemscore.DEInternal>
2.1131

> <Gold.Chemscore.Rot>
1.9617

> <Gold.Chemscore.Internal.Correction>
   9.000000E+99

> <Gold.Chemscore.Hbonds>
donor molecule, donor type, donor heavy atom, donor atom, acceptor molecule, acceptor atom, score
      L1  H    11    32       P1  7948  0.85
      L1  H    18    37       P1 10186  0.22
      P1  H  7918  7932       L1    19  0.03
      P1  H  7989  7998       L1     3  0.84

> <Gold.Chemscore.Hbond.Weighted>
-8.6600

> <Gold.Chemscore.Metal.Weighted>
-0.0000

> <Gold.Chemscore.Lipo.Weighted>
-7.4568

> <Gold.Chemscore.Internal_Hbond.Weighted>
0.0000

> <Gold.Chemscore.DEClash.Weighted>
0.3791

> <Gold.Chemscore.DEInternal.Weighted>
2.1131

> <Gold.Chemscore.Rot.Weighted>
5.0220

> <Gold.Chemscore.Internal.Correction.Weighted>
   9.000000E+99

> <Gold.Protein.RotatedTorsions>
[ 6907 6896 6895 6894 ] final -148.18 input  -60.11 | X-H torsion
[ 7974 7965 7964 7962 ] final  -58.51 input  175.53 | X-H torsion
[ 8008 7997 7996 7995 ] final   24.00 input   59.86 | X-H torsion
[ 10167 10162 10161 10158 ] final -101.09 input  -65.29 | X-H torsion
[ 10718 10713 10712 10709 ] final -159.12 input   66.30 | X-H torsion
[ 10763 10752 10751 10750 ] final  104.32 input  -60.55 | X-H torsion
[ 11005 11000 10999 10996 ] final   58.08 input  -57.11 | X-H torsion

> <Gold.Protein.ActiveResidues>
 VAL166  LYS551  ARG553  GLY616  TRP617  ASP618  TYR619  PRO620  LYS621  CYS622 
 ASP623  PHE694  ASN695  SER759  ASP760  ASP761  ALA762  ILE779  LEU786  VAL792 
 PHE793  MET794  SER795  GLU796  ALA797  LYS798  CYS799  TRP800  GLU811  SER814 

> <Gold.Protein.RotatedAtoms>
  151.1662  133.4813  159.2593 H   0  0  0  0  0  0  0  0  0  0  0  0  # atno 6907 bound_to 6896
  151.1403  135.0176  159.8633 H   0  0  0  0  0  0  0  0  0  0  0  0  # atno 6908 bound_to 6896
  152.5462  134.1556  159.8590 H   0  0  0  0  0  0  0  0  0  0  0  0  # atno 6909 bound_to 6896
  145.8385  140.8433  143.0047 H   0  0  0  0  0  0  0  0  0  0  0  0  # atno 7974 bound_to 7965
  154.9895  140.3112  155.4912 H   0  0  0  0  0  0  0  0  0  0  0  0  # atno 8008 bound_to 7997
  156.2942  140.2252  156.4939 H   0  0  0  0  0  0  0  0  0  0  0  0  # atno 8009 bound_to 7997
  154.7716  140.0452  157.1044 H   0  0  0  0  0  0  0  0  0  0  0  0  # atno 8010 bound_to 7997
  140.2450  143.3512  152.0767 H   0  0  0  0  0  0  0  0  0  0  0  0  # atno 10167 bound_to 10162
  156.5637  130.8658  151.2817 H   0  0  0  0  0  0  0  0  0  0  0  0  # atno 10718 bound_to 10713
  153.3643  135.3947  155.1742 H   0  0  0  0  0  0  0  0  0  0  0  0  # atno 10763 bound_to 10752
  154.8684  135.3687  154.5059 H   0  0  0  0  0  0  0  0  0  0  0  0  # atno 10764 bound_to 10752
  153.5521  135.7082  153.5647 H   0  0  0  0  0  0  0  0  0  0  0  0  # atno 10765 bound_to 10752
  140.0404  134.5881  155.9389 H   0  0  0  0  0  0  0  0  0  0  0  0  # atno 11005 bound_to 11000
  144.6735  140.0776  143.7470 LP  0  0  0  0  0  0  0  0  0  0  0  0  # atno 17320 bound_to 7965
  145.9492  139.2722  143.1222 LP  0  0  0  0  0  0  0  0  0  0  0  0  # atno 17321 bound_to 7965
  139.5065  144.6814  151.5999 LP  0  0  0  0  0  0  0  0  0  0  0  0  # atno 17342 bound_to 10162
  140.6084  143.9481  150.6435 LP  0  0  0  0  0  0  0  0  0  0  0  0  # atno 17343 bound_to 10162
  157.7363  130.9776  150.2129 LP  0  0  0  0  0  0  0  0  0  0  0  0  # atno 17370 bound_to 10713
  156.2776  130.3729  149.7968 LP  0  0  0  0  0  0  0  0  0  0  0  0  # atno 17371 bound_to 10713
  141.1880  133.6561  156.5305 LP  0  0  0  0  0  0  0  0  0  0  0  0  # atno 17394 bound_to 11000
  140.4078  134.7299  157.4818 LP  0  0  0  0  0  0  0  0  0  0  0  0  # atno 17395 bound_to 11000

$$$$
