AV-unprocessed.smi:252|AV-procd|sdf|1940|dock7
  -GOLD-   2262021 63D 1   1.00000     0.00000
 Structure written by MMmdl.
 56 59  0  0  0  0  0  0  0  0  1 V2000
  146.5350  133.0112  150.6703 C   0  0  0  0  0  0  0  0  0  0  0  0
  146.5650  131.9194  151.7501 C   0  0  0  0  0  0  0  0  0  0  0  0
  147.3987  132.3172  152.9714 C   0  0  0  0  0  0  0  0  0  0  0  0
  146.8445  132.7096  153.9982 O   0  0  0  0  0  0  0  0  0  0  0  0
  148.7320  132.2131  152.8369 N   0  0  0  0  0  0  0  0  0  0  0  0
  149.7552  132.5163  153.8387 C   0  0  2  0  0  0  0  0  0  0  0  0
  150.1118  131.2957  154.7126 C   0  0  0  0  0  0  0  0  0  0  0  0
  151.2218  131.6696  155.7058 C   0  0  0  0  0  0  0  0  0  0  0  0
  150.8207  132.8972  156.5399 C   0  0  0  0  0  0  0  0  0  0  0  0
  150.4525  134.0192  155.6759 N   0  0  0  0  0  0  0  0  0  0  0  0
  150.4454  135.2293  156.2905 C   0  0  0  0  0  0  0  0  0  0  0  0
  150.1361  135.3191  157.6119 N   0  0  0  0  0  0  0  0  0  0  0  0
  150.1430  136.5051  158.2280 C   0  0  0  0  0  0  0  0  0  0  0  0
  150.4232  137.7072  157.7213 N   0  0  0  0  0  0  0  0  0  0  0  0
  150.7268  137.6259  156.3944 C   0  0  0  0  0  0  0  0  0  0  0  0
  150.7567  136.4394  155.6080 C   0  0  0  0  0  0  0  0  0  0  0  0
  151.0874  136.7516  154.2943 N   0  0  0  0  0  0  0  0  0  0  0  0
  151.2564  138.0452  154.3066 C   0  0  0  0  0  0  0  0  0  0  0  0
  151.0709  138.6501  155.5292 N   0  0  0  0  0  0  0  0  0  0  0  0
  151.2066  140.0671  155.8281 C   0  0  0  0  0  0  0  0  0  0  0  0
  149.8738  140.8454  155.7186 C   0  0  1  0  0  0  0  0  0  0  0  0
  150.0025  142.0646  156.4326 O   0  0  0  0  0  0  0  0  0  0  0  0
  149.4575  141.1658  154.2905 C   0  0  0  0  0  0  0  0  0  0  0  0
  147.9511  141.3517  154.4193 C   0  0  0  0  0  0  0  0  0  0  0  0
  147.5500  140.4009  155.3973 O   0  0  0  0  0  0  0  0  0  0  0  0
  148.6562  140.0406  156.2242 C   0  0  2  0  0  0  0  0  0  0  0  0
  148.3014  140.1900  157.7123 C   0  0  0  0  0  0  0  0  0  0  0  0
  149.3892  133.7375  154.7093 C   0  0  0  0  0  0  0  0  0  0  0  0
  145.9090  132.7063  149.8316 H   0  0  0  0  0  0  0  0  0  0  0  0
  147.5318  133.2143  150.2776 H   0  0  0  0  0  0  0  0  0  0  0  0
  146.1301  133.9453  151.0617 H   0  0  0  0  0  0  0  0  0  0  0  0
  145.5443  131.6909  152.0600 H   0  0  0  0  0  0  0  0  0  0  0  0
  146.9781  131.0003  151.3342 H   0  0  0  0  0  0  0  0  0  0  0  0
  149.0758  131.8855  151.9458 H   0  0  0  0  0  0  0  0  0  0  0  0
  150.6464  132.7799  153.2675 H   0  0  0  0  0  0  0  0  0  0  0  0
  149.2397  130.9512  155.2690 H   0  0  0  0  0  0  0  0  0  0  0  0
  150.4355  130.4621  154.0886 H   0  0  0  0  0  0  0  0  0  0  0  0
  151.4363  130.8261  156.3624 H   0  0  0  0  0  0  0  0  0  0  0  0
  152.1437  131.8831  155.1630 H   0  0  0  0  0  0  0  0  0  0  0  0
  149.9673  132.6510  157.1732 H   0  0  0  0  0  0  0  0  0  0  0  0
  151.6387  133.1587  157.2102 H   0  0  0  0  0  0  0  0  0  0  0  0
  149.8909  136.4876  159.2781 H   0  0  0  0  0  0  0  0  0  0  0  0
  151.5297  138.5969  153.4187 H   0  0  0  0  0  0  0  0  0  0  0  0
  151.6148  140.1580  156.8355 H   0  0  0  0  0  0  0  0  0  0  0  0
  151.9525  140.4954  155.1572 H   0  0  0  0  0  0  0  0  0  0  0  0
  149.6839  142.7664  155.8857 H   0  0  0  0  0  0  0  0  0  0  0  0
  149.9627  142.0358  153.8686 H   0  0  0  0  0  0  0  0  0  0  0  0
  149.6584  140.3133  153.6402 H   0  0  0  0  0  0  0  0  0  0  0  0
  147.7184  142.3535  154.7827 H   0  0  0  0  0  0  0  0  0  0  0  0
  147.4264  141.2026  153.4756 H   0  0  0  0  0  0  0  0  0  0  0  0
  148.8318  138.9828  156.0234 H   0  0  0  0  0  0  0  0  0  0  0  0
  149.1484  139.9240  158.3454 H   0  0  0  0  0  0  0  0  0  0  0  0
  147.4712  139.5353  157.9777 H   0  0  0  0  0  0  0  0  0  0  0  0
  148.0031  141.2098  157.9565 H   0  0  0  0  0  0  0  0  0  0  0  0
  149.2320  134.6060  154.0680 H   0  0  0  0  0  0  0  0  0  0  0  0
  148.4591  133.5627  155.2511 H   0  0  0  0  0  0  0  0  0  0  0  0
  1  2  1  0  0  0  0
  1 29  1  0  0  0  0
  1 30  1  0  0  0  0
  1 31  1  0  0  0  0
  2  3  1  0  0  0  0
  2 32  1  0  0  0  0
  2 33  1  0  0  0  0
  3  4  2  0  0  0  0
  3  5  1  0  0  0  0
  5  6  1  0  0  0  0
  5 34  1  0  0  0  0
  6 28  1  0  0  0  0
  6  7  1  0  0  0  0
  6 35  1  0  0  0  0
  7  8  1  0  0  0  0
  7 36  1  0  0  0  0
  7 37  1  0  0  0  0
  8  9  1  0  0  0  0
  8 38  1  0  0  0  0
  8 39  1  0  0  0  0
  9 10  1  0  0  0  0
  9 40  1  0  0  0  0
  9 41  1  0  0  0  0
 10 11  1  0  0  0  0
 10 28  1  0  0  0  0
 11 16  1  0  0  0  0
 11 12  2  0  0  0  0
 12 13  1  0  0  0  0
 13 14  2  0  0  0  0
 13 42  1  0  0  0  0
 14 15  1  0  0  0  0
 15 19  1  0  0  0  0
 15 16  2  0  0  0  0
 16 17  1  0  0  0  0
 17 18  2  0  0  0  0
 18 19  1  0  0  0  0
 18 43  1  0  0  0  0
 19 20  1  0  0  0  0
 20 21  1  0  0  0  0
 20 44  1  0  0  0  0
 20 45  1  0  0  0  0
 21 26  1  0  0  0  0
 21 22  1  0  0  0  0
 21 23  1  0  0  0  0
 22 46  1  0  0  0  0
 23 24  1  0  0  0  0
 23 47  1  0  0  0  0
 23 48  1  0  0  0  0
 24 25  1  0  0  0  0
 24 49  1  0  0  0  0
 24 50  1  0  0  0  0
 25 26  1  0  0  0  0
 26 27  1  0  0  0  0
 26 51  1  0  0  0  0
 27 52  1  0  0  0  0
 27 53  1  0  0  0  0
 27 54  1  0  0  0  0
 28 55  1  0  0  0  0
 28 56  1  0  0  0  0
M  END
> <s_m_source_file>
AV-unprocessed.smi

> <i_m_source_file_index>
252

> <i_lp_mmshare_version>
43012

> <i_f3d_flags>
0

> <s_epik_input>
W0NIM11bQ0gyXUMoPU8pW05IXVtDQEBIXTFbQ0gyXVtDSDJdW0NIMl1OKFtDSDJdMSljKG5bY0hdbjIpYyhjMjMpbltjSF1uM1tDSDJdW0NAQF00KFtPSF0pW0NIMl1bQ0gyXU9bQ0BIXTRbQ0gzXQ==

> <s_epik_cmdline>
J2VwaWtfcHl0aG9uJywgJy1waCcsICc3LjAnLCAnLXRuJywgJzgnLCAnLW1hJywgJzIwMCcsICctbWV0YWxfYmluZGluZycsICctaW1hZScsICc8aW5maWxlLm1hZT4nLCAnLW9tYWUnLCAnPG91dGZpbGUubWFlPic=

> <r_lp_tautomer_probability>
1

> <r_epik_Ionization_Penalty>
0.00182575

> <r_epik_Ionization_Penalty_Charging>
0

> <r_epik_Ionization_Penalty_Neutral>
0.00182575

> <r_epik_State_Penalty>
0.00104524

> <r_epik_Charging_Adjusted_Penalty>
0.00104524

> <i_epik_Tot_Q>
0

> <i_epik_Tot_abs_Q>
0

> <r_epik_Metal_State_Penalty>
-0

> <b_epik_Metal_Only>
0

> <s_lp_Force_Field>
OPLS_2005

> <r_lp_Energy>
36.8902

> <b_lp_Chiralities_Consistent>
1

> <s_lp_Variant>
AV-unprocessed.smi:252-5

> <Gold.Version>
5.8.1

> <Gold.Id.Protein>
6NUR|6NUR_protein|mol2

> <Gold.PLP.Fitness>
43.4326

> <Gold.PLP.PLP>
-38.6938

> <Gold.PLP.part.hbond>
-2.9277

> <Gold.PLP.part.metal>
0.0000

> <Gold.PLP.part.buried>
-5.4366

> <Gold.PLP.part.nonpolar>
-32.6493

> <Gold.PLP.part.repulsive>
0.9631

> <Gold.PLP.ligand.clash>
0.0000

> <Gold.PLP.ligand.torsion>
1.7273

> <Gold.PLP.Chemscore.Hbond>
2.5701

> <Gold.PLP.Chemscore.CHOScore>
0.0000

> <Gold.PLP.Chemscore.Metal>
0.0000

> <Gold.Chemscore.Hbonds>
donor molecule, donor type, donor heavy atom, donor atom, acceptor molecule, acceptor atom, score
      L1  H     5    34       P1 10747  1.00
      L1  H    22    46       P1  8028  0.76
      P1  H  6896  6909       L1    12  0.34
      P1  H 10752 10764       L1    17  0.56

> <Gold.PLP.Chemscore.Internal.Correction>
0.4831

> <Gold.Rescore>
     Score         DG    S(hbond)    S(metal)    S(lipo)     H(rot)  DE(clash)    DE(int)     intcor
     10.26     -13.59       1.86        0.00      75.28       2.70       0.52       2.81       ----

> <Gold.Chemscore.Fitness>
10.2572

> <Gold.Chemscore.DG>
-13.5911

> <Gold.Chemscore.ZeroCoef>
-5.4800

> <Gold.Chemscore.Hbond>
1.8639

> <Gold.Chemscore.Metal>
0.0000

> <Gold.Chemscore.Lipo>
75.2838

> <Gold.Chemscore.Internal_Hbond>
0.0000

> <Gold.Chemscore.DEClash>
0.5233

> <Gold.Chemscore.DEInternal>
2.8106

> <Gold.Chemscore.Rot>
2.7041

> <Gold.Chemscore.Internal.Correction>
   9.000000E+99

> <Gold.Chemscore.Hbonds>
donor molecule, donor type, donor heavy atom, donor atom, acceptor molecule, acceptor atom, score
      L1  H     5    34       P1 10747  0.73
      L1  H    22    46       P1  8028  0.73
      P1  H  6896  6909       L1    12  0.04
      P1  H 10752 10764       L1    17  0.07

> <Gold.Chemscore.Hbond.Weighted>
-6.2254

> <Gold.Chemscore.Metal.Weighted>
-0.0000

> <Gold.Chemscore.Lipo.Weighted>
-8.8082

> <Gold.Chemscore.Internal_Hbond.Weighted>
0.0000

> <Gold.Chemscore.DEClash.Weighted>
0.5233

> <Gold.Chemscore.DEInternal.Weighted>
2.8106

> <Gold.Chemscore.Rot.Weighted>
6.9225

> <Gold.Chemscore.Internal.Correction.Weighted>
   9.000000E+99

> <Gold.Protein.RotatedTorsions>
[ 6907 6896 6895 6894 ] final   24.08 input  -60.11 | X-H torsion
[ 7974 7965 7964 7962 ] final -150.21 input  175.53 | X-H torsion
[ 8008 7997 7996 7995 ] final   13.83 input   59.86 | X-H torsion
[ 10167 10162 10161 10158 ] final   26.52 input  -65.29 | X-H torsion
[ 10718 10713 10712 10709 ] final  118.56 input   66.30 | X-H torsion
[ 10763 10752 10751 10750 ] final  -79.10 input  -60.55 | X-H torsion
[ 11005 11000 10999 10996 ] final -149.18 input  -57.11 | X-H torsion

> <Gold.Protein.ActiveResidues>
 VAL166  LYS551  ARG553  GLY616  TRP617  ASP618  TYR619  PRO620  LYS621  CYS622 
 ASP623  PHE694  ASN695  SER759  ASP760  ASP761  ALA762  ILE779  LEU786  VAL792 
 PHE793  MET794  SER795  GLU796  ALA797  LYS798  CYS799  TRP800  GLU811  SER814 

> <Gold.Protein.RotatedAtoms>
  151.9520  135.0164  160.0542 H   0  0  0  0  0  0  0  0  0  0  0  0  # atno 6907 bound_to 6896
  152.1944  133.4791  159.5033 H   0  0  0  0  0  0  0  0  0  0  0  0  # atno 6908 bound_to 6896
  150.6941  134.1588  159.4211 H   0  0  0  0  0  0  0  0  0  0  0  0  # atno 6909 bound_to 6896
  144.7921  140.4962  143.5765 H   0  0  0  0  0  0  0  0  0  0  0  0  # atno 7974 bound_to 7965
  154.8400  140.2913  155.5666 H   0  0  0  0  0  0  0  0  0  0  0  0  # atno 8008 bound_to 7997
  156.3011  140.2516  156.3272 H   0  0  0  0  0  0  0  0  0  0  0  0  # atno 8009 bound_to 7997
  154.9136  140.0388  157.1949 H   0  0  0  0  0  0  0  0  0  0  0  0  # atno 8010 bound_to 7997
  140.5016  144.0306  150.6335 H   0  0  0  0  0  0  0  0  0  0  0  0  # atno 10167 bound_to 10162
  157.6022  131.1049  150.7773 H   0  0  0  0  0  0  0  0  0  0  0  0  # atno 10718 bound_to 10713
  154.5343  135.5707  153.6785 H   0  0  0  0  0  0  0  0  0  0  0  0  # atno 10763 bound_to 10752
  152.9947  135.6212  154.2587 H   0  0  0  0  0  0  0  0  0  0  0  0  # atno 10764 bound_to 10752
  154.2515  135.2859  155.2794 H   0  0  0  0  0  0  0  0  0  0  0  0  # atno 10765 bound_to 10752
  140.7535  134.3380  157.5120 H   0  0  0  0  0  0  0  0  0  0  0  0  # atno 11005 bound_to 11000
  145.5768  139.1486  143.3258 LP  0  0  0  0  0  0  0  0  0  0  0  0  # atno 17320 bound_to 7965
  146.2176  140.5899  142.9031 LP  0  0  0  0  0  0  0  0  0  0  0  0  # atno 17321 bound_to 7965
  140.3604  143.2911  152.0390 LP  0  0  0  0  0  0  0  0  0  0  0  0  # atno 17342 bound_to 10162
  139.4873  144.6307  151.7075 LP  0  0  0  0  0  0  0  0  0  0  0  0  # atno 17343 bound_to 10162
  156.8169  130.4971  149.5348 LP  0  0  0  0  0  0  0  0  0  0  0  0  # atno 17370 bound_to 10713
  156.1098  130.6032  151.0029 LP  0  0  0  0  0  0  0  0  0  0  0  0  # atno 17371 bound_to 10713
  139.8783  134.9157  156.3136 LP  0  0  0  0  0  0  0  0  0  0  0  0  # atno 17394 bound_to 11000
  140.9729  133.7316  156.0561 LP  0  0  0  0  0  0  0  0  0  0  0  0  # atno 17395 bound_to 11000

$$$$
