AV-unprocessed.smi:1260|AV-procd|sdf|5295|dock6
  -GOLD-   22720 4413D 1   1.00000     0.00000
 Structure written by MMmdl.
 37 39  0  0  0  0  0  0  0  0  2 V2000
  150.4239  140.4182  154.8124 O   0  0  0  0  0  0  0  0  0  0  0  0
  149.7443  141.4111  155.0696 C   0  0  0  0  0  0  0  0  0  0  0  0
  148.4802  141.7020  154.2576 C   0  0  0  0  0  0  0  0  0  0  0  0
  147.5813  140.5626  154.2437 N   0  0  0  0  0  0  0  0  0  0  0  0
  147.1222  139.8204  153.2339 C   0  0  0  0  0  0  0  0  0  0  0  0
  146.2995  138.8735  153.6577 N   0  0  0  0  0  0  0  0  0  0  0  0
  146.2731  139.0700  155.0283 N   0  0  0  0  0  0  0  0  0  0  0  0
  147.0318  140.0710  155.3820 N   0  0  0  0  0  0  0  0  0  0  0  0
  150.0572  142.2885  156.0365 N   0  0  0  0  0  0  0  0  0  0  0  0
  151.2127  142.1897  156.9228 C   0  0  2  0  0  0  0  0  0  0  0  0
  151.3730  140.7900  157.5424 C   0  0  0  0  0  0  0  0  0  0  0  0
  151.8437  141.0339  158.9899 C   0  0  0  0  0  0  0  0  0  0  0  0
  152.0339  142.4928  159.0987 N   0  3  2  0  0  0  0  0  0  0  0  0
  151.9480  143.0842  160.4518 C   0  0  0  0  0  0  0  0  0  0  0  0
  152.2542  144.5931  160.3680 C   0  0  0  0  0  0  0  0  0  0  0  0
  151.3650  145.3013  159.3255 C   0  0  0  0  0  0  0  0  0  0  0  0
  151.4247  144.5840  157.9632 C   0  0  0  0  0  0  0  0  0  0  0  0
  151.0851  143.0956  158.1501 C   0  0  1  0  0  0  0  0  0  0  0  0
  147.9588  142.5597  154.6846 H   0  0  0  0  0  0  0  0  0  0  0  0
  148.7416  141.9616  153.2305 H   0  0  0  0  0  0  0  0  0  0  0  0
  147.3832  139.9769  152.1978 H   0  0  0  0  0  0  0  0  0  0  0  0
  149.4420  143.0770  156.1762 H   0  0  0  0  0  0  0  0  0  0  0  0
  152.1315  142.4325  156.3843 H   0  0  0  0  0  0  0  0  0  0  0  0
  150.4278  140.2449  157.5498 H   0  0  0  0  0  0  0  0  0  0  0  0
  152.0898  140.1924  156.9782 H   0  0  0  0  0  0  0  0  0  0  0  0
  151.0774  140.7018  159.6922 H   0  0  0  0  0  0  0  0  0  0  0  0
  152.7681  140.5045  159.2225 H   0  0  0  0  0  0  0  0  0  0  0  0
  150.9530  142.9186  160.8676 H   0  0  0  0  0  0  0  0  0  0  0  0
  152.6612  142.5911  161.1133 H   0  0  0  0  0  0  0  0  0  0  0  0
  152.1235  145.0558  161.3468 H   0  0  0  0  0  0  0  0  0  0  0  0
  153.3019  144.7334  160.0992 H   0  0  0  0  0  0  0  0  0  0  0  0
  150.3338  145.3176  159.6807 H   0  0  0  0  0  0  0  0  0  0  0  0
  151.6705  146.3425  159.2163 H   0  0  0  0  0  0  0  0  0  0  0  0
  150.7259  145.0504  157.2684 H   0  0  0  0  0  0  0  0  0  0  0  0
  152.4192  144.6919  157.5284 H   0  0  0  0  0  0  0  0  0  0  0  0
  150.0767  143.0023  158.5606 H   0  0  0  0  0  0  0  0  0  0  0  0
  152.9581  142.6898  158.7415 H   0  0  0  0  0  0  0  0  0  0  0  0
  1  2  2  0  0  0  0
  2  3  1  0  0  0  0
  2  9  1  0  0  0  0
  3  4  1  0  0  0  0
  3 19  1  0  0  0  0
  3 20  1  0  0  0  0
  4  8  1  0  0  0  0
  4  5  1  0  0  0  0
  5  6  2  0  0  0  0
  5 21  1  0  0  0  0
  6  7  1  0  0  0  0
  7  8  2  0  0  0  0
  9 10  1  0  0  0  0
  9 22  1  0  0  0  0
 10 18  1  0  0  0  0
 10 11  1  0  0  0  0
 10 23  1  0  0  0  0
 11 12  1  0  0  0  0
 11 24  1  0  0  0  0
 11 25  1  0  0  0  0
 12 13  1  0  0  0  0
 12 26  1  0  0  0  0
 12 27  1  0  0  0  0
 13 18  1  0  0  0  0
 13 14  1  0  0  0  0
 13 37  1  0  0  0  0
 14 15  1  0  0  0  0
 14 28  1  0  0  0  0
 14 29  1  0  0  0  0
 15 16  1  0  0  0  0
 15 30  1  0  0  0  0
 15 31  1  0  0  0  0
 16 17  1  0  0  0  0
 16 32  1  0  0  0  0
 16 33  1  0  0  0  0
 17 18  1  0  0  0  0
 17 34  1  0  0  0  0
 17 35  1  0  0  0  0
 18 36  1  0  0  0  0
M  CHG  1  13   1
M  END
> <s_m_source_file>
AV-unprocessed.smi

> <i_m_source_file_index>
1260

> <i_lp_mmshare_version>
43012

> <i_f3d_flags>
0

> <s_epik_input>
bjFubltjSF1uMVtDSDJdQyg9TylbTkhdW0NASF0oW0NIMl1bQ0gyXTIpW0NAQEhdKE4yMylbQ0gyXVtDSDJdW0NIMl1bQ0gyXTM=

> <s_epik_cmdline>
J2VwaWtfcHl0aG9uJywgJy1waCcsICc3LjAnLCAnLXRuJywgJzgnLCAnLW1hJywgJzIwMCcsICctbWV0YWxfYmluZGluZycsICctaW1hZScsICc8aW5maWxlLm1hZT4nLCAnLW9tYWUnLCAnPG91dGZpbGUubWFlPic=

> <r_lp_tautomer_probability>
1

> <r_epik_Ionization_Penalty>
0.00234324

> <r_epik_Ionization_Penalty_Charging>
0.00233897

> <r_epik_Ionization_Penalty_Neutral>
4.26861e-06

> <r_epik_State_Penalty>
0.00161477

> <r_epik_Charging_Adjusted_Penalty>
0.00395374

> <i_epik_Tot_Q>
1

> <i_epik_Tot_abs_Q>
1

> <r_epik_Metal_State_Penalty>
-0

> <b_epik_Metal_Only>
0

> <s_lp_Force_Field>
OPLS_2005

> <r_lp_Energy>
37.0555

> <b_lp_Chiralities_Consistent>
1

> <s_lp_Variant>
AV-unprocessed.smi:1260-3

> <Gold.Version>
5.8.1

> <Gold.Id.Protein>
6NUR|6NUR_protein|mol2

> <Gold.PLP.Fitness>
44.1511

> <Gold.PLP.PLP>
-35.6011

> <Gold.PLP.part.hbond>
-2.0000

> <Gold.PLP.part.metal>
0.0000

> <Gold.PLP.part.buried>
-5.1381

> <Gold.PLP.part.nonpolar>
-28.7218

> <Gold.PLP.part.repulsive>
0.5397

> <Gold.PLP.ligand.clash>
0.0000

> <Gold.PLP.ligand.torsion>
0.2184

> <Gold.PLP.Chemscore.Hbond>
1.9920

> <Gold.PLP.Chemscore.CHOScore>
1.0000

> <Gold.PLP.Chemscore.Metal>
0.0000

> <Gold.Chemscore.Hbonds>
donor molecule, donor type, donor heavy atom, donor atom, acceptor molecule, acceptor atom, score
      L1  H     9    22       P1  8028  0.98
      P1  H  7989  7998       L1     1  1.00
      L1  C     5    21       P1  7957  1.00

> <Gold.PLP.Chemscore.Internal.Correction>
0.0107

> <Gold.Rescore>
     Score         DG    S(hbond)    S(metal)    S(lipo)     H(rot)  DE(clash)    DE(int)     intcor
     14.84     -16.30       1.69        0.00      87.59       1.98       0.10       1.36       ----

> <Gold.Chemscore.Fitness>
14.8426

> <Gold.Chemscore.DG>
-16.3021

> <Gold.Chemscore.ZeroCoef>
-5.4800

> <Gold.Chemscore.Hbond>
1.6860

> <Gold.Chemscore.Metal>
0.0000

> <Gold.Chemscore.Lipo>
87.5942

> <Gold.Chemscore.Internal_Hbond>
0.0000

> <Gold.Chemscore.DEClash>
0.0953

> <Gold.Chemscore.DEInternal>
1.3641

> <Gold.Chemscore.Rot>
1.9757

> <Gold.Chemscore.Internal.Correction>
   9.000000E+99

> <Gold.Chemscore.Hbonds>
donor molecule, donor type, donor heavy atom, donor atom, acceptor molecule, acceptor atom, score
      L1  H     9    22       P1  8028  0.93
      P1  H  7989  7998       L1     1  0.63

> <Gold.Chemscore.Hbond.Weighted>
-5.6313

> <Gold.Chemscore.Metal.Weighted>
-0.0000

> <Gold.Chemscore.Lipo.Weighted>
-10.2485

> <Gold.Chemscore.Internal_Hbond.Weighted>
0.0000

> <Gold.Chemscore.DEClash.Weighted>
0.0953

> <Gold.Chemscore.DEInternal.Weighted>
1.3641

> <Gold.Chemscore.Rot.Weighted>
5.0578

> <Gold.Chemscore.Internal.Correction.Weighted>
   9.000000E+99

> <Gold.Protein.RotatedTorsions>
[ 6907 6896 6895 6894 ] final  -43.54 input  -60.11 | X-H torsion
[ 7974 7965 7964 7962 ] final  141.75 input  175.53 | X-H torsion
[ 8008 7997 7996 7995 ] final  148.48 input   59.86 | X-H torsion
[ 10167 10162 10161 10158 ] final   -3.29 input  -65.29 | X-H torsion
[ 10718 10713 10712 10709 ] final  -64.80 input   66.30 | X-H torsion
[ 10763 10752 10751 10750 ] final  -35.55 input  -60.55 | X-H torsion
[ 11005 11000 10999 10996 ] final   30.79 input  -57.11 | X-H torsion

> <Gold.Protein.ActiveResidues>
 VAL166  LYS551  ARG553  GLY616  TRP617  ASP618  TYR619  PRO620  LYS621  CYS622 
 ASP623  PHE694  ASN695  SER759  ASP760  ASP761  ALA762  ILE779  LEU786  VAL792 
 PHE793  MET794  SER795  GLU796  ALA797  LYS798  CYS799  TRP800  GLU811  SER814 

> <Gold.Protein.RotatedAtoms>
  150.9428  134.8836  159.7622 H   0  0  0  0  0  0  0  0  0  0  0  0  # atno 6907 bound_to 6896
  152.5087  134.3917  159.9396 H   0  0  0  0  0  0  0  0  0  0  0  0  # atno 6908 bound_to 6896
  151.3937  133.3740  159.2759 H   0  0  0  0  0  0  0  0  0  0  0  0  # atno 6909 bound_to 6896
  144.9069  139.5346  143.5727 H   0  0  0  0  0  0  0  0  0  0  0  0  # atno 7974 bound_to 7965
  156.2789  140.2127  156.5705 H   0  0  0  0  0  0  0  0  0  0  0  0  # atno 8008 bound_to 7997
  154.7139  140.0509  157.0599 H   0  0  0  0  0  0  0  0  0  0  0  0  # atno 8009 bound_to 7997
  155.0568  140.3162  155.4676 H   0  0  0  0  0  0  0  0  0  0  0  0  # atno 8010 bound_to 7997
  140.6884  143.6557  150.8311 H   0  0  0  0  0  0  0  0  0  0  0  0  # atno 10167 bound_to 10162
  156.0707  130.4238  150.1472 H   0  0  0  0  0  0  0  0  0  0  0  0  # atno 10718 bound_to 10713
  153.8651  135.6836  153.4779 H   0  0  0  0  0  0  0  0  0  0  0  0  # atno 10763 bound_to 10752
  153.1319  135.4694  154.9361 H   0  0  0  0  0  0  0  0  0  0  0  0  # atno 10764 bound_to 10752
  154.7741  135.3247  154.8079 H   0  0  0  0  0  0  0  0  0  0  0  0  # atno 10765 bound_to 10752
  140.2907  134.2867  155.7777 H   0  0  0  0  0  0  0  0  0  0  0  0  # atno 11005 bound_to 11000
  146.3138  139.7844  142.8999 LP  0  0  0  0  0  0  0  0  0  0  0  0  # atno 17320 bound_to 7965
  145.3521  141.0309  143.3333 LP  0  0  0  0  0  0  0  0  0  0  0  0  # atno 17321 bound_to 7965
  140.0267  143.5486  152.2778 LP  0  0  0  0  0  0  0  0  0  0  0  0  # atno 17342 bound_to 10162
  139.6264  144.7638  151.2630 LP  0  0  0  0  0  0  0  0  0  0  0  0  # atno 17343 bound_to 10162
  156.9524  130.9779  151.3495 LP  0  0  0  0  0  0  0  0  0  0  0  0  # atno 17370 bound_to 10713
  157.5776  130.8354  149.8477 LP  0  0  0  0  0  0  0  0  0  0  0  0  # atno 17371 bound_to 10713
  141.2146  133.7583  156.9620 LP  0  0  0  0  0  0  0  0  0  0  0  0  # atno 17394 bound_to 11000
  140.1198  134.9424  157.2187 LP  0  0  0  0  0  0  0  0  0  0  0  0  # atno 17395 bound_to 11000

$$$$
