AV-unprocessed.smi:45|AV-procd|sdf|411|dock5
  -GOLD-   2262016273D 1   1.00000     0.00000
 Structure written by MMmdl.
 61 64  0  0  0  0  0  0  0  0  2 V2000
  135.6710  137.4094  154.9015 C   0  0  0  0  0  0  0  0  0  0  0  0
  136.4984  138.4621  154.4283 O   0  0  0  0  0  0  0  0  0  0  0  0
  137.8295  138.1892  154.1897 C   0  0  0  0  0  0  0  0  0  0  0  0
  138.4337  136.9309  154.4407 C   0  0  0  0  0  0  0  0  0  0  0  0
  139.8012  136.7266  154.1739 C   0  0  0  0  0  0  0  0  0  0  0  0
  140.5865  137.7734  153.6533 C   0  0  0  0  0  0  0  0  0  0  0  0
  142.0600  137.5586  153.3770 C   0  0  0  0  0  0  0  0  0  0  0  0
  142.8145  137.2243  154.5756 N   0  0  0  0  0  0  0  0  0  0  0  0
  143.7483  136.1759  154.5840 C   0  0  0  0  0  0  0  0  0  0  0  0
  143.9181  135.4598  153.4409 N   0  3  0  0  0  0  0  0  0  0  0  0
  144.7834  134.4342  153.3900 C   0  0  0  0  0  0  0  0  0  0  0  0
  144.9276  133.7309  152.1974 N   0  0  0  0  0  0  0  0  0  0  0  0
  144.0870  133.9379  151.0247 C   0  0  0  0  0  0  0  0  0  0  0  0
  144.6092  132.9754  149.9565 C   0  0  0  0  0  0  0  0  0  0  0  0
  145.3073  131.8863  150.7682 C   0  0  0  0  0  0  0  0  0  0  0  0
  145.8737  132.6407  151.9802 C   0  0  1  0  0  0  0  0  0  0  0  0
  147.3017  133.1727  151.7386 C   0  0  0  0  0  0  0  0  0  0  0  0
  147.7701  133.8441  152.8884 O   0  0  0  0  0  0  0  0  0  0  0  0
  145.5166  134.0695  154.4493 N   0  0  0  0  0  0  0  0  0  0  0  0
  145.3878  134.7482  155.6047 C   0  0  0  0  0  0  0  0  0  0  0  0
  144.4962  135.8304  155.7394 C   0  0  0  0  0  0  0  0  0  0  0  0
  144.4066  136.5884  157.0366 C   0  0  0  0  0  0  0  0  0  0  0  0
  143.3181  136.9066  157.5153 O   0  0  0  0  0  0  0  0  0  0  0  0
  145.5828  136.8638  157.6225 N   0  0  0  0  0  0  0  0  0  0  0  0
  145.7391  137.6472  158.8422 C   0  0  0  0  0  0  0  0  0  0  0  0
  146.1343  136.7878  160.0303 C   0  0  0  0  0  0  0  0  0  0  0  0
  145.2862  135.8170  160.3841 N   0  0  0  0  0  0  0  0  0  0  0  0
  145.6299  135.0649  161.4521 C   0  0  0  0  0  0  0  0  0  0  0  0
  146.8263  135.2896  162.1629 C   0  0  0  0  0  0  0  0  0  0  0  0
  147.6403  136.3418  161.6974 C   0  0  0  0  0  0  0  0  0  0  0  0
  147.2909  137.0919  160.6296 N   0  0  0  0  0  0  0  0  0  0  0  0
  139.9944  139.0265  153.4011 C   0  0  0  0  0  0  0  0  0  0  0  0
  138.6263  139.2322  153.6663 C   0  0  0  0  0  0  0  0  0  0  0  0
  137.9313  140.7807  153.3454 Cl  0  0  0  0  0  0  0  0  0  0  0  0
  145.8761  131.9808  152.8491 H   0  0  0  0  0  0  0  0  0  0  0  0
  134.6593  137.7864  155.0498 H   0  0  0  0  0  0  0  0  0  0  0  0
  136.0228  137.0259  155.8603 H   0  0  0  0  0  0  0  0  0  0  0  0
  135.6158  136.5913  154.1821 H   0  0  0  0  0  0  0  0  0  0  0  0
  137.8688  136.1027  154.8407 H   0  0  0  0  0  0  0  0  0  0  0  0
  140.2449  135.7624  154.3751 H   0  0  0  0  0  0  0  0  0  0  0  0
  142.1776  136.7638  152.6393 H   0  0  0  0  0  0  0  0  0  0  0  0
  142.4689  138.4685  152.9361 H   0  0  0  0  0  0  0  0  0  0  0  0
  142.6861  137.7889  155.4042 H   0  0  0  0  0  0  0  0  0  0  0  0
  143.0549  133.6979  151.2835 H   0  0  0  0  0  0  0  0  0  0  0  0
  144.1214  134.9728  150.6829 H   0  0  0  0  0  0  0  0  0  0  0  0
  143.8180  132.5876  149.3140 H   0  0  0  0  0  0  0  0  0  0  0  0
  145.3359  133.4849  149.3225 H   0  0  0  0  0  0  0  0  0  0  0  0
  144.5678  131.1586  151.1058 H   0  0  0  0  0  0  0  0  0  0  0  0
  146.0612  131.3457  150.1950 H   0  0  0  0  0  0  0  0  0  0  0  0
  147.9884  132.3648  151.4834 H   0  0  0  0  0  0  0  0  0  0  0  0
  147.3190  133.8811  150.9100 H   0  0  0  0  0  0  0  0  0  0  0  0
  147.9563  134.7424  152.6606 H   0  0  0  0  0  0  0  0  0  0  0  0
  146.0140  134.4238  156.4232 H   0  0  0  0  0  0  0  0  0  0  0  0
  146.4318  136.5520  157.1744 H   0  0  0  0  0  0  0  0  0  0  0  0
  146.4665  138.4467  158.6870 H   0  0  0  0  0  0  0  0  0  0  0  0
  144.7898  138.1364  159.0624 H   0  0  0  0  0  0  0  0  0  0  0  0
  144.9472  134.2794  161.7409 H   0  0  0  0  0  0  0  0  0  0  0  0
  147.1035  134.6891  163.0166 H   0  0  0  0  0  0  0  0  0  0  0  0
  148.5739  136.5834  162.1836 H   0  0  0  0  0  0  0  0  0  0  0  0
  140.5916  139.8348  153.0044 H   0  0  0  0  0  0  0  0  0  0  0  0
  143.3762  135.7143  152.6155 H   0  0  0  0  0  0  0  0  0  0  0  0
  1  2  1  0  0  0  0
  1 36  1  0  0  0  0
  1 37  1  0  0  0  0
  1 38  1  0  0  0  0
  2  3  1  0  0  0  0
  3 33  1  0  0  0  0
  3  4  2  0  0  0  0
  4  5  1  0  0  0  0
  4 39  1  0  0  0  0
  5  6  2  0  0  0  0
  5 40  1  0  0  0  0
  6  7  1  0  0  0  0
  6 32  1  0  0  0  0
  7  8  1  0  0  0  0
  7 41  1  0  0  0  0
  7 42  1  0  0  0  0
  8  9  1  0  0  0  0
  8 43  1  0  0  0  0
  9 21  1  0  0  0  0
  9 10  2  0  0  0  0
 10 11  1  0  0  0  0
 10 61  1  0  0  0  0
 11 12  1  0  0  0  0
 11 19  2  0  0  0  0
 12 16  1  0  0  0  0
 12 13  1  0  0  0  0
 13 14  1  0  0  0  0
 13 44  1  0  0  0  0
 13 45  1  0  0  0  0
 14 15  1  0  0  0  0
 14 46  1  0  0  0  0
 14 47  1  0  0  0  0
 15 16  1  0  0  0  0
 15 48  1  0  0  0  0
 15 49  1  0  0  0  0
 16 35  1  0  0  0  0
 16 17  1  0  0  0  0
 17 18  1  0  0  0  0
 17 50  1  0  0  0  0
 17 51  1  0  0  0  0
 18 52  1  0  0  0  0
 19 20  1  0  0  0  0
 20 21  2  0  0  0  0
 20 53  1  0  0  0  0
 21 22  1  0  0  0  0
 22 23  2  0  0  0  0
 22 24  1  0  0  0  0
 24 25  1  0  0  0  0
 24 54  1  0  0  0  0
 25 26  1  0  0  0  0
 25 55  1  0  0  0  0
 25 56  1  0  0  0  0
 26 31  1  0  0  0  0
 26 27  2  0  0  0  0
 27 28  1  0  0  0  0
 28 29  2  0  0  0  0
 28 57  1  0  0  0  0
 29 30  1  0  0  0  0
 29 58  1  0  0  0  0
 30 31  2  0  0  0  0
 30 59  1  0  0  0  0
 32 33  2  0  0  0  0
 32 60  1  0  0  0  0
 33 34  1  0  0  0  0
M  CHG  1  10   1
M  END
> <s_m_source_file>
AV-unprocessed.smi

> <i_m_source_file_index>
45

> <i_lp_mmshare_version>
43012

> <i_f3d_flags>
0

> <s_epik_input>
W0NIM11PYzFbY0hdW2NIXWMoW2NIXWMxQ2wpW0NIMl1bTkhdYzJuYyhOM1tDSDJdW0NIMl1bQ0gyXVtDQEhdM1tDSDJdW09IXSluW2NIXWMyQyg9TylbTkhdW0NIMl1jNG5bY0hdW2NIXVtjSF1uNA==

> <s_epik_cmdline>
J2VwaWtfcHl0aG9uJywgJy1waCcsICc3LjAnLCAnLXRuJywgJzgnLCAnLW1hJywgJzIwMCcsICctbWV0YWxfYmluZGluZycsICctaW1hZScsICc8aW5maWxlLm1hZT4nLCAnLW9tYWUnLCAnPG91dGZpbGUubWFlPic=

> <r_lp_tautomer_probability>
0.424989

> <r_epik_Ionization_Penalty>
2.31209

> <r_epik_Ionization_Penalty_Charging>
2.31199

> <r_epik_Ionization_Penalty_Neutral>
9.65277e-05

> <r_epik_State_Penalty>
2.29675

> <r_epik_Charging_Adjusted_Penalty>
4.60874

> <i_epik_Tot_Q>
1

> <i_epik_Tot_abs_Q>
1

> <r_epik_Metal_State_Penalty>
2.3404

> <b_epik_Metal_Only>
0

> <s_epik_Chemistry_Notes>
This compound contains an electron-poor aromatic ring that is susceptible to covalent hydrolysis at low pH, typically resulting in measured values for nitrogen ring protonation that are around two units higher than predicted values.

> <s_lp_Force_Field>
OPLS_2005

> <r_lp_Energy>
34.7273

> <b_lp_Chiralities_Consistent>
1

> <s_lp_Variant>
AV-unprocessed.smi:45-5

> <Gold.Version>
5.8.1

> <Gold.Id.Protein>
6NUR|6NUR_protein|mol2

> <Gold.PLP.Fitness>
52.9382

> <Gold.PLP.PLP>
-47.1373

> <Gold.PLP.part.hbond>
-2.3394

> <Gold.PLP.part.metal>
0.0000

> <Gold.PLP.part.buried>
-5.6834

> <Gold.PLP.part.nonpolar>
-38.8527

> <Gold.PLP.part.repulsive>
0.0775

> <Gold.PLP.ligand.clash>
0.0175

> <Gold.PLP.ligand.torsion>
0.9116

> <Gold.PLP.Chemscore.Hbond>
2.0000

> <Gold.PLP.Chemscore.CHOScore>
0.0000

> <Gold.PLP.Chemscore.Metal>
0.0000

> <Gold.Chemscore.Hbonds>
donor molecule, donor type, donor heavy atom, donor atom, acceptor molecule, acceptor atom, score
      L1  H    18    52       P1  7948  1.00
      P1  H  6934  6947       L1    31  1.00

> <Gold.PLP.Chemscore.Internal.Correction>
1.6415

> <Gold.Rescore>
     Score         DG    S(hbond)    S(metal)    S(lipo)     H(rot)  DE(clash)    DE(int)     intcor
     14.02     -17.47       1.60        0.00     121.08       2.94       0.02       3.43       ----

> <Gold.Chemscore.Fitness>
14.0248

> <Gold.Chemscore.DG>
-17.4748

> <Gold.Chemscore.ZeroCoef>
-5.4800

> <Gold.Chemscore.Hbond>
1.6028

> <Gold.Chemscore.Metal>
0.0000

> <Gold.Chemscore.Lipo>
121.0821

> <Gold.Chemscore.Internal_Hbond>
0.0000

> <Gold.Chemscore.DEClash>
0.0206

> <Gold.Chemscore.DEInternal>
3.4295

> <Gold.Chemscore.Rot>
2.9395

> <Gold.Chemscore.Internal.Correction>
   9.000000E+99

> <Gold.Chemscore.Hbonds>
donor molecule, donor type, donor heavy atom, donor atom, acceptor molecule, acceptor atom, score
      L1  H    18    52       P1  7948  0.77
      P1  H  6934  6947       L1    31  0.41

> <Gold.Chemscore.Hbond.Weighted>
-5.3534

> <Gold.Chemscore.Metal.Weighted>
-0.0000

> <Gold.Chemscore.Lipo.Weighted>
-14.1666

> <Gold.Chemscore.Internal_Hbond.Weighted>
0.0000

> <Gold.Chemscore.DEClash.Weighted>
0.0206

> <Gold.Chemscore.DEInternal.Weighted>
3.4295

> <Gold.Chemscore.Rot.Weighted>
7.5251

> <Gold.Chemscore.Internal.Correction.Weighted>
   9.000000E+99

> <Gold.Protein.RotatedTorsions>
[ 6907 6896 6895 6894 ] final  -96.81 input  -60.11 | X-H torsion
[ 7974 7965 7964 7962 ] final  -29.36 input  175.53 | X-H torsion
[ 8008 7997 7996 7995 ] final   52.17 input   59.86 | X-H torsion
[ 10167 10162 10161 10158 ] final   63.45 input  -65.29 | X-H torsion
[ 10718 10713 10712 10709 ] final -170.52 input   66.30 | X-H torsion
[ 10763 10752 10751 10750 ] final  -87.21 input  -60.55 | X-H torsion
[ 11005 11000 10999 10996 ] final  171.55 input  -57.11 | X-H torsion

> <Gold.Protein.ActiveResidues>
 VAL166  LYS551  ARG553  GLY616  TRP617  ASP618  TYR619  PRO620  LYS621  CYS622 
 ASP623  PHE694  ASN695  SER759  ASP760  ASP761  ALA762  ILE779  LEU786  VAL792 
 PHE793  MET794  SER795  GLU796  ALA797  LYS798  CYS799  TRP800  GLU811  SER814 

> <Gold.Protein.RotatedAtoms>
  150.6999  134.1446  159.4117 H   0  0  0  0  0  0  0  0  0  0  0  0  # atno 6907 bound_to 6896
  151.9430  135.0202  160.0546 H   0  0  0  0  0  0  0  0  0  0  0  0  # atno 6908 bound_to 6896
  152.2077  133.4853  159.5130 H   0  0  0  0  0  0  0  0  0  0  0  0  # atno 6909 bound_to 6896
  146.1222  140.5402  142.8730 H   0  0  0  0  0  0  0  0  0  0  0  0  # atno 7974 bound_to 7965
  155.4474  140.3457  155.4297 H   0  0  0  0  0  0  0  0  0  0  0  0  # atno 8008 bound_to 7997
  156.1241  140.1495  156.9192 H   0  0  0  0  0  0  0  0  0  0  0  0  # atno 8009 bound_to 7997
  154.4845  140.0859  156.7434 H   0  0  0  0  0  0  0  0  0  0  0  0  # atno 8010 bound_to 7997
  140.1330  144.4625  150.6854 H   0  0  0  0  0  0  0  0  0  0  0  0  # atno 10167 bound_to 10162
  156.7274  130.9293  151.3102 H   0  0  0  0  0  0  0  0  0  0  0  0  # atno 10718 bound_to 10713
  154.6311  135.5421  153.7682 H   0  0  0  0  0  0  0  0  0  0  0  0  # atno 10763 bound_to 10752
  153.0285  135.6436  154.1299 H   0  0  0  0  0  0  0  0  0  0  0  0  # atno 10764 bound_to 10752
  154.1229  135.2919  155.3184 H   0  0  0  0  0  0  0  0  0  0  0  0  # atno 10765 bound_to 10752
  140.3202  134.7444  157.4058 H   0  0  0  0  0  0  0  0  0  0  0  0  # atno 11005 bound_to 11000
  144.7608  140.5417  143.6737 LP  0  0  0  0  0  0  0  0  0  0  0  0  # atno 17320 bound_to 7965
  145.5441  139.1475  143.3430 LP  0  0  0  0  0  0  0  0  0  0  0  0  # atno 17321 bound_to 7965
  140.6806  143.2325  151.5394 LP  0  0  0  0  0  0  0  0  0  0  0  0  # atno 17342 bound_to 10162
  139.5510  144.2395  152.1530 LP  0  0  0  0  0  0  0  0  0  0  0  0  # atno 17343 bound_to 10162
  157.6873  130.9198  150.0420 LP  0  0  0  0  0  0  0  0  0  0  0  0  # atno 17370 bound_to 10713
  156.1552  130.3643  149.9379 LP  0  0  0  0  0  0  0  0  0  0  0  0  # atno 17371 bound_to 10713
  140.0949  134.5551  155.8408 LP  0  0  0  0  0  0  0  0  0  0  0  0  # atno 17394 bound_to 11000
  141.2088  133.6677  156.6398 LP  0  0  0  0  0  0  0  0  0  0  0  0  # atno 17395 bound_to 11000

$$$$
