AV-unprocessed.smi:1509|AV-procd|sdf|6091|dock7
  -GOLD-   22720 6213D 1   1.00000     0.00000
 Structure written by MMmdl.
 42 43  0  0  0  0  0  0  0  0  2 V2000
  146.2808  137.5011  151.8031 C   0  0  0  0  0  0  0  0  0  0  0  0
  145.2227  136.4765  152.2481 C   0  0  1  0  0  0  0  0  0  0  0  0
  144.7452  135.5732  151.0962 C   0  0  0  0  0  0  0  0  0  0  0  0
  145.8108  134.5315  150.7282 C   0  0  0  0  0  0  0  0  0  0  0  0
  146.2560  133.7373  151.9661 C   0  0  0  0  0  0  0  0  0  0  0  0
  146.7443  134.6413  153.0395 N   0  3  2  0  0  0  0  0  0  0  0  0
  147.3140  133.8900  154.1868 C   0  0  0  0  0  0  0  0  0  0  0  0
  148.8503  133.8215  154.1443 C   0  0  0  0  0  0  0  0  0  0  0  0
  149.5016  134.8551  155.0784 C   0  0  0  0  0  0  0  0  0  0  0  0
  149.9960  136.0141  154.3446 N   0  0  0  0  0  0  0  0  0  0  0  0
  151.1806  136.6098  154.5553 C   0  0  0  0  0  0  0  0  0  0  0  0
  151.9726  136.2507  155.4263 O   0  0  0  0  0  0  0  0  0  0  0  0
  151.5266  137.7907  153.6475 C   0  0  0  0  0  0  0  0  0  0  0  0
  150.5201  138.8318  153.7376 N   0  0  0  0  0  0  0  0  0  0  0  0
  149.2050  138.8029  153.5122 C   0  0  0  0  0  0  0  0  0  0  0  0
  148.6496  139.9898  153.7022 N   0  0  0  0  0  0  0  0  0  0  0  0
  149.7232  140.7839  154.0695 N   0  0  0  0  0  0  0  0  0  0  0  0
  150.8356  140.1024  154.0922 N   0  0  0  0  0  0  0  0  0  0  0  0
  145.7012  135.6244  153.4423 C   0  0  0  0  0  0  0  0  0  0  0  0
  147.2005  137.0204  151.4700 H   0  0  0  0  0  0  0  0  0  0  0  0
  146.5401  138.1744  152.6206 H   0  0  0  0  0  0  0  0  0  0  0  0
  145.9106  138.1139  150.9806 H   0  0  0  0  0  0  0  0  0  0  0  0
  144.3608  137.0540  152.5843 H   0  0  0  0  0  0  0  0  0  0  0  0
  143.8335  135.0568  151.3998 H   0  0  0  0  0  0  0  0  0  0  0  0
  144.4803  136.1708  150.2233 H   0  0  0  0  0  0  0  0  0  0  0  0
  145.4158  133.8506  149.9737 H   0  0  0  0  0  0  0  0  0  0  0  0
  146.6725  135.0219  150.2743 H   0  0  0  0  0  0  0  0  0  0  0  0
  145.4293  133.1343  152.3452 H   0  0  0  0  0  0  0  0  0  0  0  0
  147.0475  133.0447  151.6767 H   0  0  0  0  0  0  0  0  0  0  0  0
  146.9703  134.3282  155.1253 H   0  0  0  0  0  0  0  0  0  0  0  0
  146.9348  132.8672  154.1687 H   0  0  0  0  0  0  0  0  0  0  0  0
  149.1775  132.8201  154.4273 H   0  0  0  0  0  0  0  0  0  0  0  0
  149.2059  133.9867  153.1277 H   0  0  0  0  0  0  0  0  0  0  0  0
  148.7950  135.1754  155.8461 H   0  0  0  0  0  0  0  0  0  0  0  0
  150.3445  134.4043  155.6030 H   0  0  0  0  0  0  0  0  0  0  0  0
  149.4046  136.3764  153.6104 H   0  0  0  0  0  0  0  0  0  0  0  0
  152.4951  138.2082  153.9261 H   0  0  0  0  0  0  0  0  0  0  0  0
  151.6052  137.4576  152.6114 H   0  0  0  0  0  0  0  0  0  0  0  0
  148.6597  137.9213  153.2084 H   0  0  0  0  0  0  0  0  0  0  0  0
  146.0741  136.2838  154.2251 H   0  0  0  0  0  0  0  0  0  0  0  0
  144.8546  135.0859  153.8720 H   0  0  0  0  0  0  0  0  0  0  0  0
  147.5055  135.1685  152.6360 H   0  0  0  0  0  0  0  0  0  0  0  0
  1  2  1  0  0  0  0
  1 20  1  0  0  0  0
  1 21  1  0  0  0  0
  1 22  1  0  0  0  0
  2 19  1  0  0  0  0
  2  3  1  0  0  0  0
  2 23  1  0  0  0  0
  3  4  1  0  0  0  0
  3 24  1  0  0  0  0
  3 25  1  0  0  0  0
  4  5  1  0  0  0  0
  4 26  1  0  0  0  0
  4 27  1  0  0  0  0
  5  6  1  0  0  0  0
  5 28  1  0  0  0  0
  5 29  1  0  0  0  0
  6  7  1  0  0  0  0
  6 19  1  0  0  0  0
  6 42  1  0  0  0  0
  7  8  1  0  0  0  0
  7 30  1  0  0  0  0
  7 31  1  0  0  0  0
  8  9  1  0  0  0  0
  8 32  1  0  0  0  0
  8 33  1  0  0  0  0
  9 10  1  0  0  0  0
  9 34  1  0  0  0  0
  9 35  1  0  0  0  0
 10 11  1  0  0  0  0
 10 36  1  0  0  0  0
 11 12  2  0  0  0  0
 11 13  1  0  0  0  0
 13 14  1  0  0  0  0
 13 37  1  0  0  0  0
 13 38  1  0  0  0  0
 14 18  1  0  0  0  0
 14 15  1  0  0  0  0
 15 16  2  0  0  0  0
 15 39  1  0  0  0  0
 16 17  1  0  0  0  0
 17 18  2  0  0  0  0
 19 40  1  0  0  0  0
 19 41  1  0  0  0  0
M  CHG  1   6   1
M  END
> <s_m_source_file>
AV-unprocessed.smi

> <i_m_source_file_index>
1509

> <i_lp_mmshare_version>
43012

> <i_f3d_flags>
0

> <s_epik_input>
W0NIM11bQ0BASF0xW0NIMl1bQ0gyXVtDSDJdTihbQ0gyXTEpW0NIMl1bQ0gyXVtDSDJdW05IXUMoPU8pW0NIMl1uMltjSF1ubm4y

> <s_epik_cmdline>
J2VwaWtfcHl0aG9uJywgJy1waCcsICc3LjAnLCAnLXRuJywgJzgnLCAnLW1hJywgJzIwMCcsICctbWV0YWxfYmluZGluZycsICctaW1hZScsICc8aW5maWxlLm1hZT4nLCAnLW9tYWUnLCAnPG91dGZpbGUubWFlPic=

> <r_lp_tautomer_probability>
1

> <r_epik_Ionization_Penalty>
0.00044216

> <r_epik_Ionization_Penalty_Charging>
0.000440775

> <r_epik_Ionization_Penalty_Neutral>
1.38512e-06

> <r_epik_State_Penalty>
0.000271914

> <r_epik_Charging_Adjusted_Penalty>
0.000712689

> <i_epik_Tot_Q>
1

> <i_epik_Tot_abs_Q>
1

> <r_epik_Metal_State_Penalty>
-0

> <b_epik_Metal_Only>
0

> <s_lp_Force_Field>
OPLS_2005

> <r_lp_Energy>
22.736

> <b_lp_Chiralities_Consistent>
1

> <s_lp_Variant>
AV-unprocessed.smi:1509-2

> <Gold.Version>
5.8.1

> <Gold.Id.Protein>
6NUR|6NUR_protein|mol2

> <Gold.PLP.Fitness>
44.3469

> <Gold.PLP.PLP>
-29.7460

> <Gold.PLP.part.hbond>
-4.0791

> <Gold.PLP.part.metal>
0.0000

> <Gold.PLP.part.buried>
-1.8334

> <Gold.PLP.part.nonpolar>
-23.4613

> <Gold.PLP.part.repulsive>
0.4103

> <Gold.PLP.ligand.clash>
0.0000

> <Gold.PLP.ligand.torsion>
1.3065

> <Gold.PLP.Chemscore.Hbond>
4.7176

> <Gold.PLP.Chemscore.CHOScore>
1.0000

> <Gold.PLP.Chemscore.Metal>
0.0000

> <Gold.Chemscore.Hbonds>
donor molecule, donor type, donor heavy atom, donor atom, acceptor molecule, acceptor atom, score
      L1  H     6    42       P1  7948  2.00
      L1  H    10    36       P1  7948  0.86
      P1  H  7989  7998       L1    18  0.31
      P1  H  8011  8017       L1    17  0.12
      P1  H 10752 10763       L1    12  0.65
      L1  C    15    39       P1  7948  1.00

> <Gold.PLP.Chemscore.Internal.Correction>
0.0610

> <Gold.Rescore>
     Score         DG    S(hbond)    S(metal)    S(lipo)     H(rot)  DE(clash)    DE(int)     intcor
     11.89     -14.55       3.11        0.00      53.72       2.97       0.12       2.55       ----

> <Gold.Chemscore.Fitness>
11.8895

> <Gold.Chemscore.DG>
-14.5536

> <Gold.Chemscore.ZeroCoef>
-5.4800

> <Gold.Chemscore.Hbond>
3.1097

> <Gold.Chemscore.Metal>
0.0000

> <Gold.Chemscore.Lipo>
53.7192

> <Gold.Chemscore.Internal_Hbond>
0.0000

> <Gold.Chemscore.DEClash>
0.1177

> <Gold.Chemscore.DEInternal>
2.5464

> <Gold.Chemscore.Rot>
2.9680

> <Gold.Chemscore.Internal.Correction>
   9.000000E+99

> <Gold.Chemscore.Hbonds>
donor molecule, donor type, donor heavy atom, donor atom, acceptor molecule, acceptor atom, score
      L1  H     6    42       P1  7948  0.99
      L1  H    10    36       P1  7948  0.68
      P1  H  7989  7998       L1    18  0.11
      P1  H  8011  8017       L1    17  0.04
      P1  H 10752 10763       L1    12  0.48

> <Gold.Chemscore.Hbond.Weighted>
-10.3864

> <Gold.Chemscore.Metal.Weighted>
-0.0000

> <Gold.Chemscore.Lipo.Weighted>
-6.2852

> <Gold.Chemscore.Internal_Hbond.Weighted>
0.0000

> <Gold.Chemscore.DEClash.Weighted>
0.1177

> <Gold.Chemscore.DEInternal.Weighted>
2.5464

> <Gold.Chemscore.Rot.Weighted>
7.5980

> <Gold.Chemscore.Internal.Correction.Weighted>
   9.000000E+99

> <Gold.Protein.RotatedTorsions>
[ 6907 6896 6895 6894 ] final -155.94 input  -60.11 | X-H torsion
[ 7974 7965 7964 7962 ] final  144.32 input  175.53 | X-H torsion
[ 8008 7997 7996 7995 ] final  125.10 input   59.86 | X-H torsion
[ 10167 10162 10161 10158 ] final -121.25 input  -65.29 | X-H torsion
[ 10718 10713 10712 10709 ] final   78.64 input   66.30 | X-H torsion
[ 10763 10752 10751 10750 ] final   75.51 input  -60.55 | X-H torsion
[ 11005 11000 10999 10996 ] final  -76.59 input  -57.11 | X-H torsion

> <Gold.Protein.ActiveResidues>
 VAL166  LYS551  ARG553  GLY616  TRP617  ASP618  TYR619  PRO620  LYS621  CYS622 
 ASP623  PHE694  ASN695  SER759  ASP760  ASP761  ALA762  ILE779  LEU786  VAL792 
 PHE793  MET794  SER795  GLU796  ALA797  LYS798  CYS799  TRP800  GLU811  SER814 

> <Gold.Protein.RotatedAtoms>
  151.2801  133.4214  159.2626 H   0  0  0  0  0  0  0  0  0  0  0  0  # atno 6907 bound_to 6896
  151.0368  134.9579  159.8151 H   0  0  0  0  0  0  0  0  0  0  0  0  # atno 6908 bound_to 6896
  152.5357  134.2760  159.9042 H   0  0  0  0  0  0  0  0  0  0  0  0  # atno 6909 bound_to 6896
  144.8846  139.5648  143.5827 H   0  0  0  0  0  0  0  0  0  0  0  0  # atno 7974 bound_to 7965
  156.2823  140.2724  156.1895 H   0  0  0  0  0  0  0  0  0  0  0  0  # atno 8008 bound_to 7997
  155.0473  140.0386  157.2549 H   0  0  0  0  0  0  0  0  0  0  0  0  # atno 8009 bound_to 7997
  154.7224  140.2690  155.6535 H   0  0  0  0  0  0  0  0  0  0  0  0  # atno 8010 bound_to 7997
  140.0271  143.5285  152.2194 H   0  0  0  0  0  0  0  0  0  0  0  0  # atno 10167 bound_to 10162
  157.6751  130.9877  150.1816 H   0  0  0  0  0  0  0  0  0  0  0  0  # atno 10718 bound_to 10713
  153.0660  135.4986  154.8200 H   0  0  0  0  0  0  0  0  0  0  0  0  # atno 10763 bound_to 10752
  154.6954  135.2992  154.9422 H   0  0  0  0  0  0  0  0  0  0  0  0  # atno 10764 bound_to 10752
  154.0163  135.6748  153.4822 H   0  0  0  0  0  0  0  0  0  0  0  0  # atno 10765 bound_to 10752
  141.1655  133.6989  156.7692 H   0  0  0  0  0  0  0  0  0  0  0  0  # atno 11005 bound_to 11000
  146.3016  139.7445  142.9087 LP  0  0  0  0  0  0  0  0  0  0  0  0  # atno 17320 bound_to 7965
  145.3893  141.0370  143.3133 LP  0  0  0  0  0  0  0  0  0  0  0  0  # atno 17321 bound_to 7965
  139.6101  144.7606  151.2972 LP  0  0  0  0  0  0  0  0  0  0  0  0  # atno 17342 bound_to 10162
  140.7318  143.6842  150.7976 LP  0  0  0  0  0  0  0  0  0  0  0  0  # atno 17343 bound_to 10162
  156.2547  130.3704  149.8194 LP  0  0  0  0  0  0  0  0  0  0  0  0  # atno 17370 bound_to 10713
  156.5957  130.8525  151.3419 LP  0  0  0  0  0  0  0  0  0  0  0  0  # atno 17371 bound_to 10713
  140.2476  134.8565  157.3636 LP  0  0  0  0  0  0  0  0  0  0  0  0  # atno 17394 bound_to 11000
  140.1734  134.4580  155.7817 LP  0  0  0  0  0  0  0  0  0  0  0  0  # atno 17395 bound_to 11000

$$$$
