AV-unprocessed.smi:1561|AV-procd|sdf|6286|dock6
  -GOLD-   22720 6483D 1   1.00000     0.00000
 Structure written by MMmdl.
 33 34  0  0  0  0  0  0  0  0  1 V2000
  153.6653  142.0985  161.1894 C   0  0  0  0  0  0  0  0  0  0  0  0
  153.4058  142.2670  159.6784 C   0  0  1  0  0  0  0  0  0  0  0  0
  152.9064  140.9734  159.0159 C   0  0  0  0  0  0  0  0  0  0  0  0
  153.6506  139.9991  158.8997 O   0  0  0  0  0  0  0  0  0  0  0  0
  151.6357  140.9826  158.5822 N   0  0  0  0  0  0  0  0  0  0  0  0
  150.9499  139.8683  157.9357 C   0  0  0  0  0  0  0  0  0  0  0  0
  151.2160  139.8292  156.4191 C   0  0  1  0  0  0  0  0  0  0  0  0
  150.7264  138.5820  155.7074 C   0  0  0  0  0  0  0  0  0  0  0  0
  150.6691  139.0419  154.2531 C   0  0  0  0  0  0  0  0  0  0  0  0
  150.4272  140.4458  154.2920 O   0  0  0  0  0  0  0  0  0  0  0  0
  150.4747  140.9116  155.6366 C   0  0  0  0  0  0  0  0  0  0  0  0
  152.4924  143.3674  159.3918 N   0  0  0  0  0  0  0  0  0  0  0  0
  151.9839  144.2987  160.2747 C   0  0  0  0  0  0  0  0  0  0  0  0
  151.2043  145.1617  159.5591 C   0  0  0  0  0  0  0  0  0  0  0  0
  151.3057  144.6804  158.2246 C   0  0  0  0  0  0  0  0  0  0  0  0
  152.0824  143.6145  158.1257 N   0  0  0  0  0  0  0  0  0  0  0  0
  154.3969  141.3113  161.3757 H   0  0  0  0  0  0  0  0  0  0  0  0
  152.7578  141.8409  161.7371 H   0  0  0  0  0  0  0  0  0  0  0  0
  154.0605  143.0190  161.6200 H   0  0  0  0  0  0  0  0  0  0  0  0
  154.3629  142.5196  159.2188 H   0  0  0  0  0  0  0  0  0  0  0  0
  151.0982  141.8262  158.7191 H   0  0  0  0  0  0  0  0  0  0  0  0
  151.2239  138.9200  158.4015 H   0  0  0  0  0  0  0  0  0  0  0  0
  149.8815  139.9946  158.1123 H   0  0  0  0  0  0  0  0  0  0  0  0
  152.2859  139.9413  156.2341 H   0  0  0  0  0  0  0  0  0  0  0  0
  151.3767  137.7189  155.8522 H   0  0  0  0  0  0  0  0  0  0  0  0
  149.7261  138.3164  156.0532 H   0  0  0  0  0  0  0  0  0  0  0  0
  151.6267  138.8702  153.7604 H   0  0  0  0  0  0  0  0  0  0  0  0
  149.8978  138.5207  153.6855 H   0  0  0  0  0  0  0  0  0  0  0  0
  149.4517  141.0190  156.0001 H   0  0  0  0  0  0  0  0  0  0  0  0
  150.9609  141.8851  155.7038 H   0  0  0  0  0  0  0  0  0  0  0  0
  152.2167  144.2703  161.3290 H   0  0  0  0  0  0  0  0  0  0  0  0
  150.6498  146.0103  159.9313 H   0  0  0  0  0  0  0  0  0  0  0  0
  150.8452  145.0738  157.3304 H   0  0  0  0  0  0  0  0  0  0  0  0
  1  2  1  0  0  0  0
  1 17  1  0  0  0  0
  1 18  1  0  0  0  0
  1 19  1  0  0  0  0
  2  3  1  0  0  0  0
  2 12  1  0  0  0  0
  2 20  1  0  0  0  0
  3  4  2  0  0  0  0
  3  5  1  0  0  0  0
  5  6  1  0  0  0  0
  5 21  1  0  0  0  0
  6  7  1  0  0  0  0
  6 22  1  0  0  0  0
  6 23  1  0  0  0  0
  7 11  1  0  0  0  0
  7  8  1  0  0  0  0
  7 24  1  0  0  0  0
  8  9  1  0  0  0  0
  8 25  1  0  0  0  0
  8 26  1  0  0  0  0
  9 10  1  0  0  0  0
  9 27  1  0  0  0  0
  9 28  1  0  0  0  0
 10 11  1  0  0  0  0
 11 29  1  0  0  0  0
 11 30  1  0  0  0  0
 12 16  1  0  0  0  0
 12 13  1  0  0  0  0
 13 14  2  0  0  0  0
 13 31  1  0  0  0  0
 14 15  1  0  0  0  0
 14 32  1  0  0  0  0
 15 16  2  0  0  0  0
 15 33  1  0  0  0  0
M  END
> <s_m_source_file>
AV-unprocessed.smi

> <i_m_source_file_index>
1561

> <i_lp_mmshare_version>
43012

> <i_f3d_flags>
0

> <s_epik_input>
bjFbY0hdW2NIXVtjSF1uMVtDQEhdKFtDSDNdKUMoPU8pW05IXVtDSDJdW0NAQEhdMltDSDJdW0NIMl1PW0NIMl0y

> <s_epik_cmdline>
J2VwaWtfcHl0aG9uJywgJy1waCcsICc3LjAnLCAnLXRuJywgJzgnLCAnLW1hJywgJzIwMCcsICctbWV0YWxfYmluZGluZycsICctaW1hZScsICc8aW5maWxlLm1hZT4nLCAnLW9tYWUnLCAnPG91dGZpbGUubWFlPic=

> <r_lp_tautomer_probability>
1

> <r_epik_Ionization_Penalty>
3.82077e-05

> <r_epik_Ionization_Penalty_Charging>
0

> <r_epik_Ionization_Penalty_Neutral>
3.82077e-05

> <r_epik_State_Penalty>
-0

> <r_epik_Charging_Adjusted_Penalty>
0

> <i_epik_Tot_Q>
0

> <i_epik_Tot_abs_Q>
0

> <r_epik_Metal_State_Penalty>
-0

> <b_epik_Metal_Only>
0

> <s_lp_Force_Field>
OPLS_2005

> <r_lp_Energy>
22.4357

> <b_lp_Chiralities_Consistent>
1

> <s_lp_Variant>
AV-unprocessed.smi:1561-4

> <Gold.Version>
5.8.1

> <Gold.Id.Protein>
6NUR|6NUR_protein|mol2

> <Gold.PLP.Fitness>
45.2455

> <Gold.PLP.PLP>
-37.4539

> <Gold.PLP.part.hbond>
-1.8286

> <Gold.PLP.part.metal>
0.0000

> <Gold.PLP.part.buried>
-4.6291

> <Gold.PLP.part.nonpolar>
-30.7264

> <Gold.PLP.part.repulsive>
0.2923

> <Gold.PLP.ligand.clash>
0.0000

> <Gold.PLP.ligand.torsion>
0.6567

> <Gold.PLP.Chemscore.Hbond>
2.0000

> <Gold.PLP.Chemscore.CHOScore>
1.0000

> <Gold.PLP.Chemscore.Metal>
0.0000

> <Gold.Chemscore.Hbonds>
donor molecule, donor type, donor heavy atom, donor atom, acceptor molecule, acceptor atom, score
      P1  H  7989  7998       L1    10  0.80
      P1  H  7997  8008       L1     4  0.98
      L1  C    15    33       P1  8028  0.95

> <Gold.PLP.Chemscore.Internal.Correction>
0.1049

> <Gold.Rescore>
     Score         DG    S(hbond)    S(metal)    S(lipo)     H(rot)  DE(clash)    DE(int)     intcor
     14.79     -16.51       1.61        0.00      83.36       1.61       0.01       1.70       ----

> <Gold.Chemscore.Fitness>
14.7940

> <Gold.Chemscore.DG>
-16.5062

> <Gold.Chemscore.ZeroCoef>
-5.4800

> <Gold.Chemscore.Hbond>
1.6147

> <Gold.Chemscore.Metal>
0.0000

> <Gold.Chemscore.Lipo>
83.3602

> <Gold.Chemscore.Internal_Hbond>
0.0000

> <Gold.Chemscore.DEClash>
0.0081

> <Gold.Chemscore.DEInternal>
1.7041

> <Gold.Chemscore.Rot>
1.6094

> <Gold.Chemscore.Internal.Correction>
   9.000000E+99

> <Gold.Chemscore.Hbonds>
donor molecule, donor type, donor heavy atom, donor atom, acceptor molecule, acceptor atom, score
      P1  H  7989  7998       L1    10  0.13
      P1  H  7997  8008       L1     4  0.78

> <Gold.Chemscore.Hbond.Weighted>
-5.3932

> <Gold.Chemscore.Metal.Weighted>
-0.0000

> <Gold.Chemscore.Lipo.Weighted>
-9.7531

> <Gold.Chemscore.Internal_Hbond.Weighted>
0.0000

> <Gold.Chemscore.DEClash.Weighted>
0.0081

> <Gold.Chemscore.DEInternal.Weighted>
1.7041

> <Gold.Chemscore.Rot.Weighted>
4.1201

> <Gold.Chemscore.Internal.Correction.Weighted>
   9.000000E+99

> <Gold.Protein.RotatedTorsions>
[ 6907 6896 6895 6894 ] final   82.28 input  -60.11 | X-H torsion
[ 7974 7965 7964 7962 ] final   93.96 input  175.53 | X-H torsion
[ 8008 7997 7996 7995 ] final -100.83 input   59.86 | X-H torsion
[ 10167 10162 10161 10158 ] final   79.81 input  -65.29 | X-H torsion
[ 10718 10713 10712 10709 ] final    1.81 input   66.30 | X-H torsion
[ 10763 10752 10751 10750 ] final -103.01 input  -60.55 | X-H torsion
[ 11005 11000 10999 10996 ] final -128.27 input  -57.11 | X-H torsion

> <Gold.Protein.ActiveResidues>
 VAL166  LYS551  ARG553  GLY616  TRP617  ASP618  TYR619  PRO620  LYS621  CYS622 
 ASP623  PHE694  ASN695  SER759  ASP760  ASP761  ALA762  ILE779  LEU786  VAL792 
 PHE793  MET794  SER795  GLU796  ALA797  LYS798  CYS799  TRP800  GLU811  SER814 

> <Gold.Protein.RotatedAtoms>
  152.5294  134.3075  159.9100 H   0  0  0  0  0  0  0  0  0  0  0  0  # atno 6907 bound_to 6896
  151.3025  133.4110  159.2648 H   0  0  0  0  0  0  0  0  0  0  0  0  # atno 6908 bound_to 6896
  151.0107  134.9411  159.8063 H   0  0  0  0  0  0  0  0  0  0  0  0  # atno 6909 bound_to 6896
  145.4719  139.2281  143.2930 H   0  0  0  0  0  0  0  0  0  0  0  0  # atno 7974 bound_to 7965
  154.8340  140.0438  157.1496 H   0  0  0  0  0  0  0  0  0  0  0  0  # atno 8008 bound_to 7997
  154.9120  140.3015  155.5241 H   0  0  0  0  0  0  0  0  0  0  0  0  # atno 8009 bound_to 7997
  156.2988  140.2356  156.4161 H   0  0  0  0  0  0  0  0  0  0  0  0  # atno 8010 bound_to 7997
  139.9563  144.5991  150.8113 H   0  0  0  0  0  0  0  0  0  0  0  0  # atno 10167 bound_to 10162
  156.8538  130.5563  149.5668 H   0  0  0  0  0  0  0  0  0  0  0  0  # atno 10718 bound_to 10713
  154.7776  135.4839  153.9777 H   0  0  0  0  0  0  0  0  0  0  0  0  # atno 10763 bound_to 10752
  153.1450  135.6780  153.8976 H   0  0  0  0  0  0  0  0  0  0  0  0  # atno 10764 bound_to 10752
  153.8639  135.3152  155.3417 H   0  0  0  0  0  0  0  0  0  0  0  0  # atno 10765 bound_to 10752
  140.9530  134.1039  157.4043 H   0  0  0  0  0  0  0  0  0  0  0  0  # atno 11005 bound_to 11000
  146.2391  140.5498  142.8942 LP  0  0  0  0  0  0  0  0  0  0  0  0  # atno 17320 bound_to 7965
  144.7940  140.6087  143.6522 LP  0  0  0  0  0  0  0  0  0  0  0  0  # atno 17321 bound_to 7965
  140.7567  143.3071  151.2935 LP  0  0  0  0  0  0  0  0  0  0  0  0  # atno 17342 bound_to 10162
  139.6588  144.0226  152.2678 LP  0  0  0  0  0  0  0  0  0  0  0  0  # atno 17343 bound_to 10162
  156.0814  130.5823  150.9569 LP  0  0  0  0  0  0  0  0  0  0  0  0  # atno 17370 bound_to 10713
  157.6289  131.0923  150.8480 LP  0  0  0  0  0  0  0  0  0  0  0  0  # atno 17371 bound_to 10713
  139.8853  135.0071  156.6428 LP  0  0  0  0  0  0  0  0  0  0  0  0  # atno 17394 bound_to 11000
  140.7575  133.8845  155.8393 LP  0  0  0  0  0  0  0  0  0  0  0  0  # atno 17395 bound_to 11000

$$$$
