AV-unprocessed.smi:492|AV-procd|sdf|2709|dock7
  -GOLD-   2262023153D 1   1.00000     0.00000
 Structure written by MMmdl.
 46 48  0  0  0  0  0  0  0  0  1 V2000
  151.2347  145.5683  160.3647 C   0  0  0  0  0  0  0  0  0  0  0  0
  151.4169  144.7189  161.4883 O   0  0  0  0  0  0  0  0  0  0  0  0
  152.2480  143.6280  161.3487 C   0  0  0  0  0  0  0  0  0  0  0  0
  152.7874  143.1905  160.1129 C   0  0  0  0  0  0  0  0  0  0  0  0
  153.6307  142.0635  160.0611 C   0  0  0  0  0  0  0  0  0  0  0  0
  153.9538  141.3594  161.2384 C   0  0  0  0  0  0  0  0  0  0  0  0
  154.8498  140.1365  161.1682 C   0  0  0  0  0  0  0  0  0  0  0  0
  154.2821  139.1041  160.3791 O   0  0  0  0  0  0  0  0  0  0  0  0
  155.1181  137.9635  160.2672 C   0  0  0  0  0  0  0  0  0  0  0  0
  154.2890  136.6885  160.4877 C   0  0  1  0  0  0  0  0  0  0  0  0
  153.6199  136.3648  159.2852 O   0  0  0  0  0  0  0  0  0  0  0  0
  155.1159  135.5013  161.0253 C   0  0  0  0  0  0  0  0  0  0  0  0
  154.4538  134.7993  162.1159 N   0  0  0  0  0  0  0  0  0  0  0  0
  154.0518  135.2975  163.3112 C   0  0  0  0  0  0  0  0  0  0  0  0
  154.2600  136.7319  163.6808 C   0  0  0  0  0  0  0  0  0  0  0  0
  153.4635  134.4296  164.1347 N   0  0  0  0  0  0  0  0  0  0  0  0
  153.4885  133.2560  163.4061 C   0  0  0  0  0  0  0  0  0  0  0  0
  153.0155  131.9640  163.7291 C   0  0  0  0  0  0  0  0  0  0  0  0
  153.1549  130.9025  162.8107 C   0  0  0  0  0  0  0  0  0  0  0  0
  153.7673  131.1169  161.5588 C   0  0  0  0  0  0  0  0  0  0  0  0
  154.2451  132.3965  161.2169 C   0  0  0  0  0  0  0  0  0  0  0  0
  154.1039  133.4526  162.1372 C   0  0  0  0  0  0  0  0  0  0  0  0
  153.4117  141.7846  162.4689 C   0  0  0  0  0  0  0  0  0  0  0  0
  152.5699  142.9121  162.5201 C   0  0  0  0  0  0  0  0  0  0  0  0
  150.5586  146.3798  160.6330 H   0  0  0  0  0  0  0  0  0  0  0  0
  150.7884  145.0305  159.5272 H   0  0  0  0  0  0  0  0  0  0  0  0
  152.1766  146.0165  160.0458 H   0  0  0  0  0  0  0  0  0  0  0  0
  152.5689  143.7026  159.1883 H   0  0  0  0  0  0  0  0  0  0  0  0
  154.0309  141.7423  159.1106 H   0  0  0  0  0  0  0  0  0  0  0  0
  155.8120  140.4374  160.7518 H   0  0  0  0  0  0  0  0  0  0  0  0
  155.0316  139.7657  162.1782 H   0  0  0  0  0  0  0  0  0  0  0  0
  155.5551  137.9392  159.2677 H   0  0  0  0  0  0  0  0  0  0  0  0
  155.9434  138.0159  160.9793 H   0  0  0  0  0  0  0  0  0  0  0  0
  153.5070  136.9237  161.2096 H   0  0  0  0  0  0  0  0  0  0  0  0
  153.7882  137.0507  158.6572 H   0  0  0  0  0  0  0  0  0  0  0  0
  155.3115  134.7815  160.2300 H   0  0  0  0  0  0  0  0  0  0  0  0
  156.0935  135.8433  161.3652 H   0  0  0  0  0  0  0  0  0  0  0  0
  153.8939  136.9231  164.6901 H   0  0  0  0  0  0  0  0  0  0  0  0
  153.7213  137.3837  162.9938 H   0  0  0  0  0  0  0  0  0  0  0  0
  155.3206  136.9819  163.6503 H   0  0  0  0  0  0  0  0  0  0  0  0
  152.5442  131.7905  164.6851 H   0  0  0  0  0  0  0  0  0  0  0  0
  152.7894  129.9193  163.0682 H   0  0  0  0  0  0  0  0  0  0  0  0
  153.8696  130.2991  160.8605 H   0  0  0  0  0  0  0  0  0  0  0  0
  154.7124  132.5643  160.2582 H   0  0  0  0  0  0  0  0  0  0  0  0
  153.6388  141.2500  163.3796 H   0  0  0  0  0  0  0  0  0  0  0  0
  152.1649  143.2302  163.4695 H   0  0  0  0  0  0  0  0  0  0  0  0
  1  2  1  0  0  0  0
  1 25  1  0  0  0  0
  1 26  1  0  0  0  0
  1 27  1  0  0  0  0
  2  3  1  0  0  0  0
  3 24  1  0  0  0  0
  3  4  2  0  0  0  0
  4  5  1  0  0  0  0
  4 28  1  0  0  0  0
  5  6  2  0  0  0  0
  5 29  1  0  0  0  0
  6  7  1  0  0  0  0
  6 23  1  0  0  0  0
  7  8  1  0  0  0  0
  7 30  1  0  0  0  0
  7 31  1  0  0  0  0
  8  9  1  0  0  0  0
  9 10  1  0  0  0  0
  9 32  1  0  0  0  0
  9 33  1  0  0  0  0
 10 11  1  0  0  0  0
 10 12  1  0  0  0  0
 10 34  1  0  0  0  0
 11 35  1  0  0  0  0
 12 13  1  0  0  0  0
 12 36  1  0  0  0  0
 12 37  1  0  0  0  0
 13 22  1  0  0  0  0
 13 14  1  0  0  0  0
 14 15  1  0  0  0  0
 14 16  2  0  0  0  0
 15 38  1  0  0  0  0
 15 39  1  0  0  0  0
 15 40  1  0  0  0  0
 16 17  1  0  0  0  0
 17 22  2  0  0  0  0
 17 18  1  0  0  0  0
 18 19  2  0  0  0  0
 18 41  1  0  0  0  0
 19 20  1  0  0  0  0
 19 42  1  0  0  0  0
 20 21  2  0  0  0  0
 20 43  1  0  0  0  0
 21 22  1  0  0  0  0
 21 44  1  0  0  0  0
 23 24  2  0  0  0  0
 23 45  1  0  0  0  0
 24 46  1  0  0  0  0
M  END
> <s_m_source_file>
AV-unprocessed.smi

> <i_m_source_file_index>
492

> <i_lp_mmshare_version>
43012

> <i_f3d_flags>
0

> <s_epik_input>
W0NIM11PYzFbY0hdW2NIXWMoW2NIXVtjSF0xKVtDSDJdT1tDSDJdW0NASF0oW09IXSlbQ0gyXW4oYyhuMilbQ0gzXSljKGMyMylbY0hdW2NIXVtjSF1bY0hdMw==

> <s_epik_cmdline>
J2VwaWtfcHl0aG9uJywgJy1waCcsICc3LjAnLCAnLXRuJywgJzgnLCAnLW1hJywgJzIwMCcsICctbWV0YWxfYmluZGluZycsICctaW1hZScsICc8aW5maWxlLm1hZT4nLCAnLW9tYWUnLCAnPG91dGZpbGUubWFlPic=

> <r_lp_tautomer_probability>
1

> <r_epik_Ionization_Penalty>
0.132603

> <r_epik_Ionization_Penalty_Charging>
0

> <r_epik_Ionization_Penalty_Neutral>
0.132603

> <r_epik_State_Penalty>
0.121982

> <r_epik_Charging_Adjusted_Penalty>
0.121982

> <i_epik_Tot_Q>
0

> <i_epik_Tot_abs_Q>
0

> <r_epik_Metal_State_Penalty>
0.000135431

> <b_epik_Metal_Only>
0

> <s_lp_Force_Field>
OPLS_2005

> <r_lp_Energy>
18.9568

> <b_lp_Chiralities_Consistent>
1

> <s_lp_Variant>
AV-unprocessed.smi:492-2

> <Gold.Version>
5.8.1

> <Gold.Id.Protein>
6NUR|6NUR_protein|mol2

> <Gold.PLP.Fitness>
53.4925

> <Gold.PLP.PLP>
-52.7870

> <Gold.PLP.part.hbond>
-1.0000

> <Gold.PLP.part.metal>
0.0000

> <Gold.PLP.part.buried>
-7.1345

> <Gold.PLP.part.nonpolar>
-47.1198

> <Gold.PLP.part.repulsive>
2.9084

> <Gold.PLP.ligand.clash>
0.0000

> <Gold.PLP.ligand.torsion>
1.2796

> <Gold.PLP.Chemscore.Hbond>
1.0000

> <Gold.PLP.Chemscore.CHOScore>
0.0000

> <Gold.PLP.Chemscore.Metal>
0.0000

> <Gold.Chemscore.Hbonds>
donor molecule, donor type, donor heavy atom, donor atom, acceptor molecule, acceptor atom, score
      P1  H  6896  6909       L1    11  0.69

> <Gold.PLP.Chemscore.Internal.Correction>
0.2648

> <Gold.Rescore>
     Score         DG    S(hbond)    S(metal)    S(lipo)     H(rot)  DE(clash)    DE(int)     intcor
     18.06     -19.68       0.97        0.00     146.32       2.40       0.21       1.41       ----

> <Gold.Chemscore.Fitness>
18.0601

> <Gold.Chemscore.DG>
-19.6835

> <Gold.Chemscore.ZeroCoef>
-5.4800

> <Gold.Chemscore.Hbond>
0.9659

> <Gold.Chemscore.Metal>
0.0000

> <Gold.Chemscore.Lipo>
146.3171

> <Gold.Chemscore.Internal_Hbond>
0.0000

> <Gold.Chemscore.DEClash>
0.2107

> <Gold.Chemscore.DEInternal>
1.4128

> <Gold.Chemscore.Rot>
2.3991

> <Gold.Chemscore.Internal.Correction>
   9.000000E+99

> <Gold.Chemscore.Hbonds>
donor molecule, donor type, donor heavy atom, donor atom, acceptor molecule, acceptor atom, score
      P1  H  6896  6909       L1    11  0.15

> <Gold.Chemscore.Hbond.Weighted>
-3.2262

> <Gold.Chemscore.Metal.Weighted>
-0.0000

> <Gold.Chemscore.Lipo.Weighted>
-17.1191

> <Gold.Chemscore.Internal_Hbond.Weighted>
0.0000

> <Gold.Chemscore.DEClash.Weighted>
0.2107

> <Gold.Chemscore.DEInternal.Weighted>
1.4128

> <Gold.Chemscore.Rot.Weighted>
6.1417

> <Gold.Chemscore.Internal.Correction.Weighted>
   9.000000E+99

> <Gold.Protein.RotatedTorsions>
[ 6907 6896 6895 6894 ] final  165.46 input  -60.11 | X-H torsion
[ 7974 7965 7964 7962 ] final -161.75 input  175.53 | X-H torsion
[ 8008 7997 7996 7995 ] final -135.10 input   59.86 | X-H torsion
[ 10167 10162 10161 10158 ] final   -2.37 input  -65.29 | X-H torsion
[ 10718 10713 10712 10709 ] final  157.35 input   66.30 | X-H torsion
[ 10763 10752 10751 10750 ] final -152.11 input  -60.55 | X-H torsion
[ 11005 11000 10999 10996 ] final  -22.79 input  -57.11 | X-H torsion

> <Gold.Protein.ActiveResidues>
 VAL166  LYS551  ARG553  GLY616  TRP617  ASP618  TYR619  PRO620  LYS621  CYS622 
 ASP623  PHE694  ASN695  SER759  ASP760  ASP761  ALA762  ILE779  LEU786  VAL792 
 PHE793  MET794  SER795  GLU796  ALA797  LYS798  CYS799  TRP800  GLU811  SER814 

> <Gold.Protein.RotatedAtoms>
  151.8940  133.3522  159.3807 H   0  0  0  0  0  0  0  0  0  0  0  0  # atno 6907 bound_to 6896
  150.7096  134.4895  159.5518 H   0  0  0  0  0  0  0  0  0  0  0  0  # atno 6908 bound_to 6896
  152.2470  134.8171  160.0502 H   0  0  0  0  0  0  0  0  0  0  0  0  # atno 6909 bound_to 6896
  144.7380  140.3353  143.6145 H   0  0  0  0  0  0  0  0  0  0  0  0  # atno 7974 bound_to 7965
  155.3730  140.0489  157.3045 H   0  0  0  0  0  0  0  0  0  0  0  0  # atno 8008 bound_to 7997
  154.5120  140.2195  155.9100 H   0  0  0  0  0  0  0  0  0  0  0  0  # atno 8009 bound_to 7997
  156.1594  140.3119  155.8786 H   0  0  0  0  0  0  0  0  0  0  0  0  # atno 8010 bound_to 7997
  140.6848  143.6665  150.8222 H   0  0  0  0  0  0  0  0  0  0  0  0  # atno 10167 bound_to 10162
  157.1927  131.0658  151.2070 H   0  0  0  0  0  0  0  0  0  0  0  0  # atno 10718 bound_to 10713
  154.8015  135.3244  154.7538 H   0  0  0  0  0  0  0  0  0  0  0  0  # atno 10763 bound_to 10752
  153.8205  135.6888  153.4832 H   0  0  0  0  0  0  0  0  0  0  0  0  # atno 10764 bound_to 10752
  153.1735  135.4614  154.9877 H   0  0  0  0  0  0  0  0  0  0  0  0  # atno 10765 bound_to 10752
  140.8690  133.7734  156.0164 H   0  0  0  0  0  0  0  0  0  0  0  0  # atno 11005 bound_to 11000
  145.7430  139.1770  143.2365 LP  0  0  0  0  0  0  0  0  0  0  0  0  # atno 17320 bound_to 7965
  146.1119  140.7417  142.9499 LP  0  0  0  0  0  0  0  0  0  0  0  0  # atno 17321 bound_to 7965
  140.0370  143.5385  152.2735 LP  0  0  0  0  0  0  0  0  0  0  0  0  # atno 17342 bound_to 10162
  139.6198  144.7627  151.2765 LP  0  0  0  0  0  0  0  0  0  0  0  0  # atno 17343 bound_to 10162
  157.3845  130.7249  149.6653 LP  0  0  0  0  0  0  0  0  0  0  0  0  # atno 17370 bound_to 10713
  155.9710  130.4163  150.4225 LP  0  0  0  0  0  0  0  0  0  0  0  0  # atno 17371 bound_to 10713
  140.8595  134.2857  157.5240 LP  0  0  0  0  0  0  0  0  0  0  0  0  # atno 17394 bound_to 11000
  139.8711  134.9511  156.4074 LP  0  0  0  0  0  0  0  0  0  0  0  0  # atno 17395 bound_to 11000

$$$$
