AV-unprocessed.smi:1915|AV-procd|sdf|7762|dock5
  -GOLD-   22720 9503D 1   1.00000     0.00000
 Structure written by MMmdl.
 45 46  0  0  0  0  0  0  0  0  2 V2000
  148.7392  141.4628  155.7037 C   0  0  0  0  0  0  0  0  0  0  0  0
  148.3809  141.2180  154.2279 C   0  0  0  0  0  0  0  0  0  0  0  0
  147.1033  141.9807  153.8489 C   0  0  0  0  0  0  0  0  0  0  0  0
  148.2468  139.7216  153.8667 C   0  0  0  0  0  0  0  0  0  0  0  0
  149.2454  138.8872  154.5323 N   0  0  0  0  0  0  0  0  0  0  0  0
  150.6632  139.1364  154.3367 C   0  0  0  0  0  0  0  0  0  0  0  0
  151.3760  138.2713  155.3955 C   0  0  1  0  0  0  0  0  0  0  0  0
  151.8541  139.1128  156.5900 C   0  0  0  0  0  0  0  0  0  0  0  0
  153.0497  139.1484  156.8843 O   0  0  0  0  0  0  0  0  0  0  0  0
  150.9086  139.7649  157.2852 N   0  0  0  0  0  0  0  0  0  0  0  0
  151.1496  140.6105  158.4529 C   0  0  0  0  0  0  0  0  0  0  0  0
  152.4095  141.4921  158.3211 C   0  0  0  0  0  0  0  0  0  0  0  0
  152.3268  142.8083  159.0757 C   0  0  0  0  0  0  0  0  0  0  0  0
  152.2934  142.8597  160.4861 C   0  0  0  0  0  0  0  0  0  0  0  0
  152.1650  144.1095  161.1277 C   0  0  0  0  0  0  0  0  0  0  0  0
  152.0766  145.2805  160.3471 C   0  0  0  0  0  0  0  0  0  0  0  0
  152.1201  145.1721  158.9425 C   0  0  0  0  0  0  0  0  0  0  0  0
  152.2399  143.9566  158.3649 N   0  3  0  0  0  0  0  0  0  0  0  0
  150.3206  137.2283  155.8160 C   0  0  0  0  0  0  0  0  0  0  0  0
  149.0166  137.8043  155.2853 C   0  0  0  0  0  0  0  0  0  0  0  0
  147.9165  137.3255  155.5554 O   0  0  0  0  0  0  0  0  0  0  0  0
  148.0007  141.0152  156.3696 H   0  0  0  0  0  0  0  0  0  0  0  0
  148.7833  142.5296  155.9240 H   0  0  0  0  0  0  0  0  0  0  0  0
  149.7143  141.0458  155.9553 H   0  0  0  0  0  0  0  0  0  0  0  0
  149.1896  141.6322  153.6263 H   0  0  0  0  0  0  0  0  0  0  0  0
  146.2451  141.6236  154.4194 H   0  0  0  0  0  0  0  0  0  0  0  0
  146.8722  141.8604  152.7902 H   0  0  0  0  0  0  0  0  0  0  0  0
  147.2100  143.0488  154.0416 H   0  0  0  0  0  0  0  0  0  0  0  0
  147.2436  139.3677  154.1111 H   0  0  0  0  0  0  0  0  0  0  0  0
  148.3544  139.5914  152.7890 H   0  0  0  0  0  0  0  0  0  0  0  0
  150.9470  138.8275  153.3298 H   0  0  0  0  0  0  0  0  0  0  0  0
  150.8894  140.1994  154.4309 H   0  0  0  0  0  0  0  0  0  0  0  0
  152.2359  137.7706  154.9473 H   0  0  0  0  0  0  0  0  0  0  0  0
  149.9513  139.6817  156.9738 H   0  0  0  0  0  0  0  0  0  0  0  0
  150.2765  141.2333  158.6551 H   0  0  0  0  0  0  0  0  0  0  0  0
  151.2580  139.9571  159.3187 H   0  0  0  0  0  0  0  0  0  0  0  0
  153.2768  140.9398  158.6843 H   0  0  0  0  0  0  0  0  0  0  0  0
  152.6044  141.6976  157.2675 H   0  0  0  0  0  0  0  0  0  0  0  0
  152.3499  141.9526  161.0699 H   0  0  0  0  0  0  0  0  0  0  0  0
  152.1297  144.1682  162.2057 H   0  0  0  0  0  0  0  0  0  0  0  0
  151.9727  146.2467  160.8190 H   0  0  0  0  0  0  0  0  0  0  0  0
  152.0537  146.0135  158.2685 H   0  0  0  0  0  0  0  0  0  0  0  0
  150.5095  136.2656  155.3401 H   0  0  0  0  0  0  0  0  0  0  0  0
  150.2645  137.0653  156.8935 H   0  0  0  0  0  0  0  0  0  0  0  0
  152.2577  143.9010  157.3465 H   0  0  0  0  0  0  0  0  0  0  0  0
  1  2  1  0  0  0  0
  1 22  1  0  0  0  0
  1 23  1  0  0  0  0
  1 24  1  0  0  0  0
  2  3  1  0  0  0  0
  2  4  1  0  0  0  0
  2 25  1  0  0  0  0
  3 26  1  0  0  0  0
  3 27  1  0  0  0  0
  3 28  1  0  0  0  0
  4  5  1  0  0  0  0
  4 29  1  0  0  0  0
  4 30  1  0  0  0  0
  5 20  1  0  0  0  0
  5  6  1  0  0  0  0
  6  7  1  0  0  0  0
  6 31  1  0  0  0  0
  6 32  1  0  0  0  0
  7  8  1  0  0  0  0
  7 19  1  0  0  0  0
  7 33  1  0  0  0  0
  8  9  2  0  0  0  0
  8 10  1  0  0  0  0
 10 11  1  0  0  0  0
 10 34  1  0  0  0  0
 11 12  1  0  0  0  0
 11 35  1  0  0  0  0
 11 36  1  0  0  0  0
 12 13  1  0  0  0  0
 12 37  1  0  0  0  0
 12 38  1  0  0  0  0
 13 18  1  0  0  0  0
 13 14  2  0  0  0  0
 14 15  1  0  0  0  0
 14 39  1  0  0  0  0
 15 16  2  0  0  0  0
 15 40  1  0  0  0  0
 16 17  1  0  0  0  0
 16 41  1  0  0  0  0
 17 18  2  0  0  0  0
 17 42  1  0  0  0  0
 18 45  1  0  0  0  0
 19 20  1  0  0  0  0
 19 43  1  0  0  0  0
 19 44  1  0  0  0  0
 20 21  2  0  0  0  0
M  CHG  1  18   1
M  END
> <s_m_source_file>
AV-unprocessed.smi

> <i_m_source_file_index>
1915

> <i_lp_mmshare_version>
43012

> <i_f3d_flags>
0

> <s_epik_input>
W0NIM11bQ0hdKFtDSDNdKVtDSDJdTjFbQ0gyXVtDQEhdKFtDSDJdQzE9TylDKD1PKVtOSF1bQ0gyXVtDSDJdYzJbY0hdW2NIXVtjSF1bY0hdbjI=

> <s_epik_cmdline>
J2VwaWtfcHl0aG9uJywgJy1waCcsICc3LjAnLCAnLXRuJywgJzgnLCAnLW1hJywgJzIwMCcsICctbWV0YWxfYmluZGluZycsICctaW1hZScsICc8aW5maWxlLm1hZT4nLCAnLW9tYWUnLCAnPG91dGZpbGUubWFlPic=

> <r_epik_Ionization_Penalty>
1.88249

> <r_epik_Ionization_Penalty_Charging>
1.88249

> <r_epik_Ionization_Penalty_Neutral>
3.64574e-08

> <r_epik_State_Penalty>
2.00238

> <r_epik_Charging_Adjusted_Penalty>
3.88487

> <i_epik_Tot_Q>
1

> <i_epik_Tot_abs_Q>
1

> <r_epik_Metal_State_Penalty>
2.02676

> <b_epik_Metal_Only>
0

> <s_lp_Force_Field>
OPLS_2005

> <r_lp_Energy>
19.4357

> <b_lp_Chiralities_Consistent>
1

> <s_lp_Variant>
AV-unprocessed.smi:1915-3

> <Gold.Version>
5.8.1

> <Gold.Id.Protein>
6NUR|6NUR_protein|mol2

> <Gold.PLP.Fitness>
45.5369

> <Gold.PLP.PLP>
-43.5747

> <Gold.PLP.part.hbond>
-1.0000

> <Gold.PLP.part.metal>
0.0000

> <Gold.PLP.part.buried>
-5.1016

> <Gold.PLP.part.nonpolar>
-37.4727

> <Gold.PLP.part.repulsive>
0.1059

> <Gold.PLP.ligand.clash>
0.0000

> <Gold.PLP.ligand.torsion>
0.5914

> <Gold.PLP.Chemscore.Hbond>
1.0000

> <Gold.PLP.Chemscore.CHOScore>
0.0000

> <Gold.PLP.Chemscore.Metal>
0.0000

> <Gold.Chemscore.Hbonds>
donor molecule, donor type, donor heavy atom, donor atom, acceptor molecule, acceptor atom, score
      P1  H  7997  8009       L1     9  1.00

> <Gold.PLP.Chemscore.Internal.Correction>
0.1449

> <Gold.Rescore>
     Score         DG    S(hbond)    S(metal)    S(lipo)     H(rot)  DE(clash)    DE(int)     intcor
     16.00     -17.93       1.00        0.00     118.75       1.86       0.11       1.82       ----

> <Gold.Chemscore.Fitness>
16.0040

> <Gold.Chemscore.DG>
-17.9314

> <Gold.Chemscore.ZeroCoef>
-5.4800

> <Gold.Chemscore.Hbond>
0.9966

> <Gold.Chemscore.Metal>
0.0000

> <Gold.Chemscore.Lipo>
118.7523

> <Gold.Chemscore.Internal_Hbond>
0.0000

> <Gold.Chemscore.DEClash>
0.1109

> <Gold.Chemscore.DEInternal>
1.8166

> <Gold.Chemscore.Rot>
1.8638

> <Gold.Chemscore.Internal.Correction>
   9.000000E+99

> <Gold.Chemscore.Hbonds>
donor molecule, donor type, donor heavy atom, donor atom, acceptor molecule, acceptor atom, score
      P1  H  7997  8009       L1     9  0.96

> <Gold.Chemscore.Hbond.Weighted>
-3.3287

> <Gold.Chemscore.Metal.Weighted>
-0.0000

> <Gold.Chemscore.Lipo.Weighted>
-13.8940

> <Gold.Chemscore.Internal_Hbond.Weighted>
0.0000

> <Gold.Chemscore.DEClash.Weighted>
0.1109

> <Gold.Chemscore.DEInternal.Weighted>
1.8166

> <Gold.Chemscore.Rot.Weighted>
4.7713

> <Gold.Chemscore.Internal.Correction.Weighted>
   9.000000E+99

> <Gold.Protein.RotatedTorsions>
[ 6907 6896 6895 6894 ] final   25.94 input  -60.11 | X-H torsion
[ 7974 7965 7964 7962 ] final  -32.14 input  175.53 | X-H torsion
[ 8008 7997 7996 7995 ] final -161.39 input   59.86 | X-H torsion
[ 10167 10162 10161 10158 ] final   40.90 input  -65.29 | X-H torsion
[ 10718 10713 10712 10709 ] final  172.70 input   66.30 | X-H torsion
[ 10763 10752 10751 10750 ] final  129.56 input  -60.55 | X-H torsion
[ 11005 11000 10999 10996 ] final   98.43 input  -57.11 | X-H torsion

> <Gold.Protein.ActiveResidues>
 VAL166  LYS551  ARG553  GLY616  TRP617  ASP618  TYR619  PRO620  LYS621  CYS622 
 ASP623  PHE694  ASN695  SER759  ASP760  ASP761  ALA762  ILE779  LEU786  VAL792 
 PHE793  MET794  SER795  GLU796  ALA797  LYS798  CYS799  TRP800  GLU811  SER814 

> <Gold.Protein.RotatedAtoms>
  151.9801  135.0033  160.0556 H   0  0  0  0  0  0  0  0  0  0  0  0  # atno 6907 bound_to 6896
  152.1704  133.4635  159.4915 H   0  0  0  0  0  0  0  0  0  0  0  0  # atno 6908 bound_to 6896
  150.6901  134.1877  159.4316 H   0  0  0  0  0  0  0  0  0  0  0  0  # atno 6909 bound_to 6896
  146.1013  140.5755  142.8820 H   0  0  0  0  0  0  0  0  0  0  0  0  # atno 7974 bound_to 7965
  155.7915  140.0879  157.2006 H   0  0  0  0  0  0  0  0  0  0  0  0  # atno 8008 bound_to 7997
  154.3985  140.1489  156.3227 H   0  0  0  0  0  0  0  0  0  0  0  0  # atno 8009 bound_to 7997
  155.8554  140.3432  155.5723 H   0  0  0  0  0  0  0  0  0  0  0  0  # atno 8010 bound_to 7997
  140.3697  144.2122  150.6134 H   0  0  0  0  0  0  0  0  0  0  0  0  # atno 10167 bound_to 10162
  156.9751  131.0102  151.2895 H   0  0  0  0  0  0  0  0  0  0  0  0  # atno 10718 bound_to 10713
  153.7438  135.3220  155.3309 H   0  0  0  0  0  0  0  0  0  0  0  0  # atno 10763 bound_to 10752
  154.8286  135.4551  154.1000 H   0  0  0  0  0  0  0  0  0  0  0  0  # atno 10764 bound_to 10752
  153.2183  135.6945  153.8113 H   0  0  0  0  0  0  0  0  0  0  0  0  # atno 10765 bound_to 10752
  139.8772  134.9048  156.4455 H   0  0  0  0  0  0  0  0  0  0  0  0  # atno 11005 bound_to 11000
  144.7435  140.5005  143.6852 LP  0  0  0  0  0  0  0  0  0  0  0  0  # atno 17320 bound_to 7965
  145.5849  139.1491  143.3215 LP  0  0  0  0  0  0  0  0  0  0  0  0  # atno 17321 bound_to 7965
  140.5046  143.2308  151.8627 LP  0  0  0  0  0  0  0  0  0  0  0  0  # atno 17342 bound_to 10162
  139.4805  144.5020  151.9047 LP  0  0  0  0  0  0  0  0  0  0  0  0  # atno 17343 bound_to 10162
  157.5565  130.8217  149.8211 LP  0  0  0  0  0  0  0  0  0  0  0  0  # atno 17370 bound_to 10713
  156.0267  130.3777  150.1803 LP  0  0  0  0  0  0  0  0  0  0  0  0  # atno 17371 bound_to 10713
  140.8969  133.7807  155.9635 LP  0  0  0  0  0  0  0  0  0  0  0  0  # atno 17394 bound_to 11000
  140.8693  134.2746  157.5198 LP  0  0  0  0  0  0  0  0  0  0  0  0  # atno 17395 bound_to 11000

$$$$
