AV-unprocessed.smi:2310|AV-procd|sdf|9259|dock3
  -GOLD-   2272012483D 1   1.00000     0.00000
 Structure written by MMmdl.
 45 46  0  0  0  0  0  0  0  0  3 V2000
  149.0480  132.7393  154.2603 C   0  0  0  0  0  0  0  0  0  0  0  0
  149.1693  134.2704  154.1268 C   0  0  0  0  0  0  0  0  0  0  0  0
  150.0321  134.9588  155.2087 C   0  0  2  0  0  0  0  0  0  0  0  0
  149.4573  134.7017  156.6134 C   0  0  0  0  0  0  0  0  0  0  0  0
  149.9800  133.4890  157.2682 C   0  0  0  0  0  0  0  0  0  0  0  0
  150.3897  132.5377  157.7873 N   0  0  0  0  0  0  0  0  0  0  0  0
  150.0628  136.4064  154.9652 N   0  5  0  0  0  0  0  0  0  0  0  0
  150.4501  137.3440  155.8710 C   0  0  0  0  0  0  0  0  0  0  0  0
  151.0497  137.1632  156.9370 O   0  0  0  0  0  0  0  0  0  0  0  0
  150.0865  138.5842  155.5016 N   0  0  0  0  0  0  0  0  0  0  0  0
  150.3304  139.8151  156.1688 C   0  0  0  0  0  0  0  0  0  0  0  0
  151.1455  139.9092  157.3234 C   0  0  0  0  0  0  0  0  0  0  0  0
  151.3683  141.1669  157.9180 C   0  0  0  0  0  0  0  0  0  0  0  0
  150.7834  142.3187  157.3443 C   0  0  0  0  0  0  0  0  0  0  0  0
  150.9479  143.6143  157.8544 N   0  0  0  0  0  0  0  0  0  0  0  0
  152.3306  144.0373  157.9994 C   0  0  0  0  0  0  0  0  0  0  0  0
  152.2948  145.2475  158.9357 C   0  0  0  0  0  0  0  0  0  0  0  0
  150.9706  145.1176  159.6977 C   0  0  0  0  0  0  0  0  0  0  0  0
  150.3183  143.8480  159.1435 C   0  0  0  0  0  0  0  0  0  0  0  0
  150.0273  142.1882  156.2330 N   0  3  0  0  0  0  0  0  0  0  0  0
  149.7856  141.0037  155.6279 C   0  0  0  0  0  0  0  0  0  0  0  0
  148.9179  141.0165  154.3831 C   0  0  0  0  0  0  0  0  0  0  0  0
  148.3919  132.3447  153.4844 H   0  0  0  0  0  0  0  0  0  0  0  0
  148.6240  132.4430  155.2213 H   0  0  0  0  0  0  0  0  0  0  0  0
  150.0106  132.2377  154.1475 H   0  0  0  0  0  0  0  0  0  0  0  0
  149.5514  134.5186  153.1355 H   0  0  0  0  0  0  0  0  0  0  0  0
  148.1628  134.6878  154.1676 H   0  0  0  0  0  0  0  0  0  0  0  0
  151.0257  134.5087  155.1791 H   0  0  0  0  0  0  0  0  0  0  0  0
  149.6500  135.5502  157.2708 H   0  0  0  0  0  0  0  0  0  0  0  0
  148.3749  134.5849  156.5573 H   0  0  0  0  0  0  0  0  0  0  0  0
  149.4991  138.6374  154.6824 H   0  0  0  0  0  0  0  0  0  0  0  0
  151.6145  139.0365  157.7523 H   0  0  0  0  0  0  0  0  0  0  0  0
  151.9882  141.2392  158.7995 H   0  0  0  0  0  0  0  0  0  0  0  0
  152.9330  143.2412  158.4388 H   0  0  0  0  0  0  0  0  0  0  0  0
  152.7653  144.2924  157.0324 H   0  0  0  0  0  0  0  0  0  0  0  0
  153.1578  145.2647  159.6021 H   0  0  0  0  0  0  0  0  0  0  0  0
  152.3021  146.1734  158.3593 H   0  0  0  0  0  0  0  0  0  0  0  0
  151.1175  145.0533  160.7764 H   0  0  0  0  0  0  0  0  0  0  0  0
  150.3421  145.9868  159.4998 H   0  0  0  0  0  0  0  0  0  0  0  0
  149.2398  143.9681  159.0351 H   0  0  0  0  0  0  0  0  0  0  0  0
  150.4962  143.0099  159.8184 H   0  0  0  0  0  0  0  0  0  0  0  0
  149.4748  140.6291  153.5292 H   0  0  0  0  0  0  0  0  0  0  0  0
  148.5829  142.0256  154.1407 H   0  0  0  0  0  0  0  0  0  0  0  0
  148.0355  140.3929  154.5304 H   0  0  0  0  0  0  0  0  0  0  0  0
  149.6166  143.0289  155.8268 H   0  0  0  0  0  0  0  0  0  0  0  0
  1  2  1  0  0  0  0
  1 23  1  0  0  0  0
  1 24  1  0  0  0  0
  1 25  1  0  0  0  0
  2  3  1  0  0  0  0
  2 26  1  0  0  0  0
  2 27  1  0  0  0  0
  3  4  1  0  0  0  0
  3  7  1  0  0  0  0
  3 28  1  0  0  0  0
  4  5  1  0  0  0  0
  4 29  1  0  0  0  0
  4 30  1  0  0  0  0
  5  6  3  0  0  0  0
  7  8  1  0  0  0  0
  8  9  2  0  0  0  0
  8 10  1  0  0  0  0
 10 11  1  0  0  0  0
 10 31  1  0  0  0  0
 11 21  1  0  0  0  0
 11 12  2  0  0  0  0
 12 13  1  0  0  0  0
 12 32  1  0  0  0  0
 13 14  2  0  0  0  0
 13 33  1  0  0  0  0
 14 15  1  0  0  0  0
 14 20  1  0  0  0  0
 15 19  1  0  0  0  0
 15 16  1  0  0  0  0
 16 17  1  0  0  0  0
 16 34  1  0  0  0  0
 16 35  1  0  0  0  0
 17 18  1  0  0  0  0
 17 36  1  0  0  0  0
 17 37  1  0  0  0  0
 18 19  1  0  0  0  0
 18 38  1  0  0  0  0
 18 39  1  0  0  0  0
 19 40  1  0  0  0  0
 19 41  1  0  0  0  0
 20 21  2  0  0  0  0
 20 45  1  0  0  0  0
 21 22  1  0  0  0  0
 22 42  1  0  0  0  0
 22 43  1  0  0  0  0
 22 44  1  0  0  0  0
M  CHG  1   7  -1
M  CHG  1  20   1
M  END
> <s_m_source_file>
AV-unprocessed.smi

> <i_m_source_file_index>
2310

> <i_lp_mmshare_version>
43012

> <i_f3d_flags>
0

> <s_epik_input>
TiNDW0NIMl1bQ0BASF0oW0NIMl1bQ0gzXSlbTkhdQyg9TylbTkhdYzFbY0hdW2NIXWMobmMxW0NIM10pTjJbQ0gyXVtDSDJdW0NIMl1bQ0gyXTI=

> <s_epik_cmdline>
J2VwaWtfcHl0aG9uJywgJy1waCcsICc3LjAnLCAnLXRuJywgJzgnLCAnLW1hJywgJzIwMCcsICctbWV0YWxfYmluZGluZycsICctaW1hZScsICc8aW5maWxlLm1hZT4nLCAnLW9tYWUnLCAnPG91dGZpbGUubWFlPic=

> <r_lp_tautomer_probability>
0.999994

> <r_epik_Ionization_Penalty>
7.34515

> <r_epik_Ionization_Penalty_Charging>
7.34514

> <r_epik_Ionization_Penalty_Neutral>
2.56118e-06

> <r_epik_State_Penalty>
6.99243

> <r_epik_Charging_Adjusted_Penalty>
14.3376

> <i_epik_Tot_Q>
0

> <i_epik_Tot_abs_Q>
2

> <r_epik_Metal_State_Penalty>
3.10684

> <b_epik_Metal_Only>
1

> <s_lp_Force_Field>
OPLS_2005

> <r_lp_Energy>
38.8935

> <b_lp_Chiralities_Consistent>
1

> <s_lp_Variant>
AV-unprocessed.smi:2310-5

> <Gold.Version>
5.8.1

> <Gold.Id.Protein>
6NUR|6NUR_protein|mol2

> <Gold.PLP.Fitness>
44.8889

> <Gold.PLP.PLP>
-37.2030

> <Gold.PLP.part.hbond>
-2.0000

> <Gold.PLP.part.metal>
0.0000

> <Gold.PLP.part.buried>
-3.6984

> <Gold.PLP.part.nonpolar>
-32.5867

> <Gold.PLP.part.repulsive>
0.4587

> <Gold.PLP.ligand.clash>
0.0000

> <Gold.PLP.ligand.torsion>
0.7303

> <Gold.PLP.Chemscore.Hbond>
3.0000

> <Gold.PLP.Chemscore.CHOScore>
0.0000

> <Gold.PLP.Chemscore.Metal>
0.0000

> <Gold.Chemscore.Hbonds>
donor molecule, donor type, donor heavy atom, donor atom, acceptor molecule, acceptor atom, score
      L1  H    20    45       P1  8028  2.00
      P1  H  6896  6908       L1     6  0.83

> <Gold.PLP.Chemscore.Internal.Correction>
0.1466

> <Gold.Rescore>
     Score         DG    S(hbond)    S(metal)    S(lipo)     H(rot)  DE(clash)    DE(int)     intcor
     13.65     -16.80       1.33        0.00      94.97       1.65       0.39       2.77       ----

> <Gold.Chemscore.Fitness>
13.6511

> <Gold.Chemscore.DG>
-16.8020

> <Gold.Chemscore.ZeroCoef>
-5.4800

> <Gold.Chemscore.Hbond>
1.3290

> <Gold.Chemscore.Metal>
0.0000

> <Gold.Chemscore.Lipo>
94.9651

> <Gold.Chemscore.Internal_Hbond>
0.0000

> <Gold.Chemscore.DEClash>
0.3855

> <Gold.Chemscore.DEInternal>
2.7654

> <Gold.Chemscore.Rot>
1.6514

> <Gold.Chemscore.Internal.Correction>
   9.000000E+99

> <Gold.Chemscore.Hbonds>
donor molecule, donor type, donor heavy atom, donor atom, acceptor molecule, acceptor atom, score
      L1  H    20    45       P1  8028  1.00
      P1  H  6896  6908       L1     6  0.27

> <Gold.Chemscore.Hbond.Weighted>
-4.4387

> <Gold.Chemscore.Metal.Weighted>
-0.0000

> <Gold.Chemscore.Lipo.Weighted>
-11.1109

> <Gold.Chemscore.Internal_Hbond.Weighted>
0.0000

> <Gold.Chemscore.DEClash.Weighted>
0.3855

> <Gold.Chemscore.DEInternal.Weighted>
2.7654

> <Gold.Chemscore.Rot.Weighted>
4.2276

> <Gold.Chemscore.Internal.Correction.Weighted>
   9.000000E+99

> <Gold.Protein.RotatedTorsions>
[ 6907 6896 6895 6894 ] final   67.35 input  -60.11 | X-H torsion
[ 7974 7965 7964 7962 ] final   41.40 input  175.53 | X-H torsion
[ 8008 7997 7996 7995 ] final  -96.00 input   59.86 | X-H torsion
[ 10167 10162 10161 10158 ] final -154.76 input  -65.29 | X-H torsion
[ 10718 10713 10712 10709 ] final  154.57 input   66.30 | X-H torsion
[ 10763 10752 10751 10750 ] final   15.82 input  -60.55 | X-H torsion
[ 11005 11000 10999 10996 ] final  173.41 input  -57.11 | X-H torsion

> <Gold.Protein.ActiveResidues>
 VAL166  LYS551  ARG553  GLY616  TRP617  ASP618  TYR619  PRO620  LYS621  CYS622 
 ASP623  PHE694  ASN695  SER759  ASP760  ASP761  ALA762  ILE779  LEU786  VAL792 
 PHE793  MET794  SER795  GLU796  ALA797  LYS798  CYS799  TRP800  GLU811  SER814 

> <Gold.Protein.RotatedAtoms>
  152.4546  134.5320  159.9813 H   0  0  0  0  0  0  0  0  0  0  0  0  # atno 6907 bound_to 6896
  151.5384  133.3431  159.2939 H   0  0  0  0  0  0  0  0  0  0  0  0  # atno 6908 bound_to 6896
  150.8486  134.7834  159.7053 H   0  0  0  0  0  0  0  0  0  0  0  0  # atno 6909 bound_to 6896
  146.0826  139.5420  142.9527 H   0  0  0  0  0  0  0  0  0  0  0  0  # atno 7974 bound_to 7965
  154.7687  140.0475  157.1034 H   0  0  0  0  0  0  0  0  0  0  0  0  # atno 8008 bound_to 7997
  154.9847  140.3106  155.4912 H   0  0  0  0  0  0  0  0  0  0  0  0  # atno 8009 bound_to 7997
  156.2917  140.2229  156.4948 H   0  0  0  0  0  0  0  0  0  0  0  0  # atno 8010 bound_to 7997
  139.6987  143.9299  152.2419 H   0  0  0  0  0  0  0  0  0  0  0  0  # atno 10167 bound_to 10162
  157.2299  131.0736  151.1860 H   0  0  0  0  0  0  0  0  0  0  0  0  # atno 10718 bound_to 10713
  153.1489  135.6774  153.8912 H   0  0  0  0  0  0  0  0  0  0  0  0  # atno 10763 bound_to 10752
  153.8345  135.3113  155.3422 H   0  0  0  0  0  0  0  0  0  0  0  0  # atno 10764 bound_to 10752
  154.7847  135.4869  154.0005 H   0  0  0  0  0  0  0  0  0  0  0  0  # atno 10765 bound_to 10752
  140.3402  134.7283  157.4196 H   0  0  0  0  0  0  0  0  0  0  0  0  # atno 11005 bound_to 11000
  145.6189  141.0326  143.1925 LP  0  0  0  0  0  0  0  0  0  0  0  0  # atno 17320 bound_to 7965
  144.7304  139.7745  143.7349 LP  0  0  0  0  0  0  0  0  0  0  0  0  # atno 17321 bound_to 7965
  139.9135  144.6842  150.8536 LP  0  0  0  0  0  0  0  0  0  0  0  0  # atno 17342 bound_to 10162
  140.7703  143.3426  151.2177 LP  0  0  0  0  0  0  0  0  0  0  0  0  # atno 17343 bound_to 10162
  157.3489  130.7072  149.6428 LP  0  0  0  0  0  0  0  0  0  0  0  0  # atno 17370 bound_to 10713
  155.9676  130.4258  150.4671 LP  0  0  0  0  0  0  0  0  0  0  0  0  # atno 17371 bound_to 10713
  140.0788  134.5760  155.8563 LP  0  0  0  0  0  0  0  0  0  0  0  0  # atno 17394 bound_to 11000
  141.2040  133.6636  156.6098 LP  0  0  0  0  0  0  0  0  0  0  0  0  # atno 17395 bound_to 11000

$$$$
