AV-unprocessed.smi:2681|AV-procd|sdf|10373|dock4
  -GOLD-   2272014403D 1   1.00000     0.00000
 Structure written by MMmdl.
 42 43  0  0  0  0  0  0  0  0  1 V2000
  146.5973  141.0617  153.6205 N   0  0  0  0  0  0  0  0  0  0  0  0
  147.6216  140.6765  153.9962 C   0  0  0  0  0  0  0  0  0  0  0  0
  148.9115  140.1919  154.4698 C   0  0  0  0  0  0  0  0  0  0  0  0
  149.1986  138.8128  154.3948 C   0  0  0  0  0  0  0  0  0  0  0  0
  150.4516  138.3421  154.8367 C   0  0  0  0  0  0  0  0  0  0  0  0
  150.7622  136.9234  154.7396 C   0  0  0  0  0  0  0  0  0  0  0  0
  151.0093  135.7956  154.6633 N   0  0  0  0  0  0  0  0  0  0  0  0
  151.3693  139.2911  155.3464 C   0  0  0  0  0  0  0  0  0  0  0  0
  152.9875  138.8411  155.9113 S   0  0  0  0  0  0  0  0  0  0  0  0
  152.8421  138.5088  157.6933 C   0  0  0  0  0  0  0  0  0  0  0  0
  152.1075  139.6307  158.4403 C   0  0  0  0  0  0  0  0  0  0  0  0
  152.9805  140.7389  158.6069 O   0  0  0  0  0  0  0  0  0  0  0  0
  152.4658  141.8063  159.3925 C   0  0  0  0  0  0  0  0  0  0  0  0
  152.3014  143.0590  158.5020 C   0  0  0  0  0  0  0  0  0  0  0  0
  152.2878  144.4244  159.2125 C   0  0  0  0  0  0  0  0  0  0  0  0
  151.5359  144.4672  160.5522 C   0  0  0  0  0  0  0  0  0  0  0  0
  152.4247  144.0696  161.7426 C   0  0  0  0  0  0  0  0  0  0  0  0
  152.7523  142.5720  161.8281 C   0  0  0  0  0  0  0  0  0  0  0  0
  153.4310  141.9830  160.5795 C   0  0  0  0  0  0  0  0  0  0  0  0
  151.1011  140.6117  155.4357 N   0  0  0  0  0  0  0  0  0  0  0  0
  149.9026  141.0558  155.0024 C   0  0  0  0  0  0  0  0  0  0  0  0
  149.7030  142.4333  155.1122 N   0  0  0  0  0  0  0  0  0  0  0  0
  148.4689  138.1243  153.9916 H   0  0  0  0  0  0  0  0  0  0  0  0
  152.3470  137.5506  157.8521 H   0  0  0  0  0  0  0  0  0  0  0  0
  153.8514  138.4098  158.0929 H   0  0  0  0  0  0  0  0  0  0  0  0
  151.2291  139.9321  157.8695 H   0  0  0  0  0  0  0  0  0  0  0  0
  151.7592  139.2642  159.4070 H   0  0  0  0  0  0  0  0  0  0  0  0
  151.4942  141.5091  159.7905 H   0  0  0  0  0  0  0  0  0  0  0  0
  153.1019  143.0808  157.7614 H   0  0  0  0  0  0  0  0  0  0  0  0
  151.3781  142.9551  157.9314 H   0  0  0  0  0  0  0  0  0  0  0  0
  153.3119  144.7691  159.3606 H   0  0  0  0  0  0  0  0  0  0  0  0
  151.8395  145.1496  158.5324 H   0  0  0  0  0  0  0  0  0  0  0  0
  151.2023  145.4922  160.7178 H   0  0  0  0  0  0  0  0  0  0  0  0
  150.6297  143.8613  160.5143 H   0  0  0  0  0  0  0  0  0  0  0  0
  153.3500  144.6464  161.7202 H   0  0  0  0  0  0  0  0  0  0  0  0
  151.9208  144.3595  162.6653 H   0  0  0  0  0  0  0  0  0  0  0  0
  153.4097  142.4179  162.6843 H   0  0  0  0  0  0  0  0  0  0  0  0
  151.8448  142.0101  162.0524 H   0  0  0  0  0  0  0  0  0  0  0  0
  153.8046  140.9989  160.8617 H   0  0  0  0  0  0  0  0  0  0  0  0
  154.3106  142.5603  160.2921 H   0  0  0  0  0  0  0  0  0  0  0  0
  148.8417  142.8696  154.8155 H   0  0  0  0  0  0  0  0  0  0  0  0
  150.4160  143.0380  155.4944 H   0  0  0  0  0  0  0  0  0  0  0  0
  1  2  3  0  0  0  0
  2  3  1  0  0  0  0
  3 21  1  0  0  0  0
  3  4  2  0  0  0  0
  4  5  1  0  0  0  0
  4 23  1  0  0  0  0
  5  6  1  0  0  0  0
  5  8  2  0  0  0  0
  6  7  3  0  0  0  0
  8  9  1  0  0  0  0
  8 20  1  0  0  0  0
  9 10  1  0  0  0  0
 10 11  1  0  0  0  0
 10 24  1  0  0  0  0
 10 25  1  0  0  0  0
 11 12  1  0  0  0  0
 11 26  1  0  0  0  0
 11 27  1  0  0  0  0
 12 13  1  0  0  0  0
 13 19  1  0  0  0  0
 13 14  1  0  0  0  0
 13 28  1  0  0  0  0
 14 15  1  0  0  0  0
 14 29  1  0  0  0  0
 14 30  1  0  0  0  0
 15 16  1  0  0  0  0
 15 31  1  0  0  0  0
 15 32  1  0  0  0  0
 16 17  1  0  0  0  0
 16 33  1  0  0  0  0
 16 34  1  0  0  0  0
 17 18  1  0  0  0  0
 17 35  1  0  0  0  0
 17 36  1  0  0  0  0
 18 19  1  0  0  0  0
 18 37  1  0  0  0  0
 18 38  1  0  0  0  0
 19 39  1  0  0  0  0
 19 40  1  0  0  0  0
 20 21  2  0  0  0  0
 21 22  1  0  0  0  0
 22 41  1  0  0  0  0
 22 42  1  0  0  0  0
M  END
> <s_m_source_file>
AV-unprocessed.smi

> <i_m_source_file_index>
2681

> <i_lp_mmshare_version>
43012

> <i_f3d_flags>
0

> <s_epik_input>
TiNDYzFbY0hdYyhDI04pYyhuYzFbTkgyXSlTW0NIMl1bQ0gyXU9bQ0hdMltDSDJdW0NIMl1bQ0gyXVtDSDJdW0NIMl1bQ0gyXTI=

> <s_epik_cmdline>
J2VwaWtfcHl0aG9uJywgJy1waCcsICc3LjAnLCAnLXRuJywgJzgnLCAnLW1hJywgJzIwMCcsICctbWV0YWxfYmluZGluZycsICctaW1hZScsICc8aW5maWxlLm1hZT4nLCAnLW9tYWUnLCAnPG91dGZpbGUubWFlPic=

> <r_epik_Ionization_Penalty>
0.00177186

> <r_epik_Ionization_Penalty_Charging>
0

> <r_epik_Ionization_Penalty_Neutral>
0.00177186

> <r_epik_State_Penalty>
0.00120048

> <r_epik_Charging_Adjusted_Penalty>
0.00120048

> <i_epik_Tot_Q>
0

> <i_epik_Tot_abs_Q>
0

> <r_epik_Metal_State_Penalty>
-0

> <b_epik_Metal_Only>
0

> <s_lp_Force_Field>
OPLS_2005

> <r_lp_Energy>
17.568

> <b_lp_Chiralities_Consistent>
1

> <s_lp_Variant>
AV-unprocessed.smi:2681-1

> <Gold.Version>
5.8.1

> <Gold.Id.Protein>
6NUR|6NUR_protein|mol2

> <Gold.PLP.Fitness>
49.5982

> <Gold.PLP.PLP>
-47.9064

> <Gold.PLP.part.hbond>
-2.9593

> <Gold.PLP.part.metal>
0.0000

> <Gold.PLP.part.buried>
-2.4799

> <Gold.PLP.part.nonpolar>
-43.7624

> <Gold.PLP.part.repulsive>
1.0185

> <Gold.PLP.ligand.clash>
0.0000

> <Gold.PLP.ligand.torsion>
1.2168

> <Gold.PLP.Chemscore.Hbond>
1.3664

> <Gold.PLP.Chemscore.CHOScore>
0.0000

> <Gold.PLP.Chemscore.Metal>
0.0000

> <Gold.Chemscore.Hbonds>
donor molecule, donor type, donor heavy atom, donor atom, acceptor molecule, acceptor atom, score
      L1  H    22    41       P1  8028  0.11
      P1  H  7989  7998       L1    20  0.10
      P1  H  7997  8008       L1    12  0.12
      P1  H 10752 10764       L1     7  1.00

> <Gold.PLP.Chemscore.Internal.Correction>
0.0262

> <Gold.Rescore>
     Score         DG    S(hbond)    S(metal)    S(lipo)     H(rot)  DE(clash)    DE(int)     intcor
     15.82     -18.44       1.10        0.00     125.75       2.12       1.40       1.22       ----

> <Gold.Chemscore.Fitness>
15.8212

> <Gold.Chemscore.DG>
-18.4409

> <Gold.Chemscore.ZeroCoef>
-5.4800

> <Gold.Chemscore.Hbond>
1.0969

> <Gold.Chemscore.Metal>
0.0000

> <Gold.Chemscore.Lipo>
125.7457

> <Gold.Chemscore.Internal_Hbond>
0.0000

> <Gold.Chemscore.DEClash>
1.4044

> <Gold.Chemscore.DEInternal>
1.2153

> <Gold.Chemscore.Rot>
2.1152

> <Gold.Chemscore.Internal.Correction>
   9.000000E+99

> <Gold.Chemscore.Hbonds>
donor molecule, donor type, donor heavy atom, donor atom, acceptor molecule, acceptor atom, score
      L1  H    22    41       P1  8028  0.13
      P1  H  7997  8008       L1    12  0.03
      P1  H 10752 10764       L1     7  0.65

> <Gold.Chemscore.Hbond.Weighted>
-3.6635

> <Gold.Chemscore.Metal.Weighted>
-0.0000

> <Gold.Chemscore.Lipo.Weighted>
-14.7122

> <Gold.Chemscore.Internal_Hbond.Weighted>
0.0000

> <Gold.Chemscore.DEClash.Weighted>
1.4044

> <Gold.Chemscore.DEInternal.Weighted>
1.2153

> <Gold.Chemscore.Rot.Weighted>
5.4149

> <Gold.Chemscore.Internal.Correction.Weighted>
   9.000000E+99

> <Gold.Protein.RotatedTorsions>
[ 6907 6896 6895 6894 ] final  166.31 input  -60.11 | X-H torsion
[ 7974 7965 7964 7962 ] final  111.45 input  175.53 | X-H torsion
[ 8008 7997 7996 7995 ] final  -90.62 input   59.86 | X-H torsion
[ 10167 10162 10161 10158 ] final -125.89 input  -65.29 | X-H torsion
[ 10718 10713 10712 10709 ] final   19.35 input   66.30 | X-H torsion
[ 10763 10752 10751 10750 ] final  -70.88 input  -60.55 | X-H torsion
[ 11005 11000 10999 10996 ] final   85.54 input  -57.11 | X-H torsion

> <Gold.Protein.ActiveResidues>
 VAL166  LYS551  ARG553  GLY616  TRP617  ASP618  TYR619  PRO620  LYS621  CYS622 
 ASP623  PHE694  ASN695  SER759  ASP760  ASP761  ALA762  ILE779  LEU786  VAL792 
 PHE793  MET794  SER795  GLU796  ALA797  LYS798  CYS799  TRP800  GLU811  SER814 

> <Gold.Protein.RotatedAtoms>
  151.8809  133.3495  159.3765 H   0  0  0  0  0  0  0  0  0  0  0  0  # atno 6907 bound_to 6896
  150.7128  134.5020  159.5575 H   0  0  0  0  0  0  0  0  0  0  0  0  # atno 6908 bound_to 6896
  152.2571  134.8073  160.0487 H   0  0  0  0  0  0  0  0  0  0  0  0  # atno 6909 bound_to 6896
  145.2421  139.2774  143.4112 H   0  0  0  0  0  0  0  0  0  0  0  0  # atno 7974 bound_to 7965
  154.7008  140.0528  157.0456 H   0  0  0  0  0  0  0  0  0  0  0  0  # atno 8008 bound_to 7997
  155.0687  140.3197  155.4618 H   0  0  0  0  0  0  0  0  0  0  0  0  # atno 8009 bound_to 7997
  156.2759  140.2085  156.5814 H   0  0  0  0  0  0  0  0  0  0  0  0  # atno 8010 bound_to 7997
  139.9773  143.5780  152.2391 H   0  0  0  0  0  0  0  0  0  0  0  0  # atno 10167 bound_to 10162
  157.1093  130.6501  149.5893 H   0  0  0  0  0  0  0  0  0  0  0  0  # atno 10718 bound_to 10713
  154.4239  135.5980  153.6027 H   0  0  0  0  0  0  0  0  0  0  0  0  # atno 10763 bound_to 10752
  152.9795  135.5959  154.3922 H   0  0  0  0  0  0  0  0  0  0  0  0  # atno 10764 bound_to 10752
  154.3751  135.2841  155.2223 H   0  0  0  0  0  0  0  0  0  0  0  0  # atno 10765 bound_to 10752
  139.8969  134.8293  156.2596 H   0  0  0  0  0  0  0  0  0  0  0  0  # atno 11005 bound_to 11000
  146.3326  140.2787  142.8609 LP  0  0  0  0  0  0  0  0  0  0  0  0  # atno 17320 bound_to 7965
  144.9580  140.8246  143.5531 LP  0  0  0  0  0  0  0  0  0  0  0  0  # atno 17321 bound_to 7965
  139.6436  144.7656  151.2289 LP  0  0  0  0  0  0  0  0  0  0  0  0  # atno 17342 bound_to 10162
  140.7501  143.6276  150.8454 LP  0  0  0  0  0  0  0  0  0  0  0  0  # atno 17343 bound_to 10162
  155.9854  130.4884  150.7031 LP  0  0  0  0  0  0  0  0  0  0  0  0  # atno 17370 bound_to 10713
  157.4573  131.0879  151.0783 LP  0  0  0  0  0  0  0  0  0  0  0  0  # atno 17371 bound_to 10713
  141.0171  133.7062  156.1207 LP  0  0  0  0  0  0  0  0  0  0  0  0  # atno 17394 bound_to 11000
  140.7286  134.4279  157.5568 LP  0  0  0  0  0  0  0  0  0  0  0  0  # atno 17395 bound_to 11000

$$$$
