AV-unprocessed.smi:3314|AV-procd|sdf|12732|dock6
  -GOLD-   2272019 73D 1   1.00000     0.00000
 Structure written by MMmdl.
 38 39  0  0  0  0  0  0  0  0  2 V2000
  154.2558  141.3082  160.4681 C   0  0  0  0  0  0  0  0  0  0  0  0
  153.1399  141.9718  159.6883 C   0  0  0  0  0  0  0  0  0  0  0  0
  152.7798  143.3100  159.9367 C   0  0  0  0  0  0  0  0  0  0  0  0
  151.7316  143.8682  159.1790 C   0  0  0  0  0  0  0  0  0  0  0  0
  151.2935  145.3018  159.3929 C   0  0  0  0  0  0  0  0  0  0  0  0
  151.0602  143.1799  158.2309 N   0  0  0  0  0  0  0  0  0  0  0  0
  151.3973  141.8896  157.9851 C   0  0  0  0  0  0  0  0  0  0  0  0
  150.7543  141.0808  157.0116 N   0  0  0  0  0  0  0  0  0  0  0  0
  151.2986  140.1402  156.2173 C   0  0  0  0  0  0  0  0  0  0  0  0
  152.4931  139.8389  156.2088 O   0  0  0  0  0  0  0  0  0  0  0  0
  150.3113  139.4275  155.2729 C   0  0  1  0  0  0  0  0  0  0  0  0
  149.0051  138.9411  155.9457 C   0  0  0  0  0  0  0  0  0  0  0  0
  148.1141  140.0773  156.2823 N   0  3  2  0  0  0  0  0  0  0  0  0
  146.8764  139.6488  156.9674 C   0  0  0  0  0  0  0  0  0  0  0  0
  147.8488  140.9104  155.0882 C   0  0  0  0  0  0  0  0  0  0  0  0
  149.1708  141.3877  154.4659 C   0  0  0  0  0  0  0  0  0  0  0  0
  149.9912  140.2613  154.1551 O   0  0  0  0  0  0  0  0  0  0  0  0
  152.4392  141.2550  158.6976 C   0  0  0  0  0  0  0  0  0  0  0  0
  154.7107  142.0004  161.1772 H   0  0  0  0  0  0  0  0  0  0  0  0
  155.0331  140.9548  159.7903 H   0  0  0  0  0  0  0  0  0  0  0  0
  153.8703  140.4538  161.0248 H   0  0  0  0  0  0  0  0  0  0  0  0
  153.2928  143.8932  160.6878 H   0  0  0  0  0  0  0  0  0  0  0  0
  151.8359  145.7624  160.2192 H   0  0  0  0  0  0  0  0  0  0  0  0
  150.2282  145.3437  159.6215 H   0  0  0  0  0  0  0  0  0  0  0  0
  151.4763  145.8913  158.4942 H   0  0  0  0  0  0  0  0  0  0  0  0
  149.7632  141.2401  156.9020 H   0  0  0  0  0  0  0  0  0  0  0  0
  150.8316  138.5526  154.8809 H   0  0  0  0  0  0  0  0  0  0  0  0
  148.4803  138.2613  155.2726 H   0  0  0  0  0  0  0  0  0  0  0  0
  149.2322  138.3700  156.8474 H   0  0  0  0  0  0  0  0  0  0  0  0
  146.2646  139.0221  156.3170 H   0  0  0  0  0  0  0  0  0  0  0  0
  146.2840  140.5143  157.2657 H   0  0  0  0  0  0  0  0  0  0  0  0
  147.1129  139.0806  157.8675 H   0  0  0  0  0  0  0  0  0  0  0  0
  147.2782  140.3339  154.3583 H   0  0  0  0  0  0  0  0  0  0  0  0
  147.2382  141.7703  155.3654 H   0  0  0  0  0  0  0  0  0  0  0  0
  148.9715  141.9373  153.5459 H   0  0  0  0  0  0  0  0  0  0  0  0
  149.6876  142.0789  155.1329 H   0  0  0  0  0  0  0  0  0  0  0  0
  152.6994  140.2266  158.4913 H   0  0  0  0  0  0  0  0  0  0  0  0
  148.6219  140.6573  156.9360 H   0  0  0  0  0  0  0  0  0  0  0  0
  1  2  1  0  0  0  0
  1 19  1  0  0  0  0
  1 20  1  0  0  0  0
  1 21  1  0  0  0  0
  2 18  1  0  0  0  0
  2  3  2  0  0  0  0
  3  4  1  0  0  0  0
  3 22  1  0  0  0  0
  4  5  1  0  0  0  0
  4  6  2  0  0  0  0
  5 23  1  0  0  0  0
  5 24  1  0  0  0  0
  5 25  1  0  0  0  0
  6  7  1  0  0  0  0
  7  8  1  0  0  0  0
  7 18  2  0  0  0  0
  8  9  1  0  0  0  0
  8 26  1  0  0  0  0
  9 10  2  0  0  0  0
  9 11  1  0  0  0  0
 11 17  1  0  0  0  0
 11 12  1  0  0  0  0
 11 27  1  0  0  0  0
 12 13  1  0  0  0  0
 12 28  1  0  0  0  0
 12 29  1  0  0  0  0
 13 14  1  0  0  0  0
 13 15  1  0  0  0  0
 13 38  1  0  0  0  0
 14 30  1  0  0  0  0
 14 31  1  0  0  0  0
 14 32  1  0  0  0  0
 15 16  1  0  0  0  0
 15 33  1  0  0  0  0
 15 34  1  0  0  0  0
 16 17  1  0  0  0  0
 16 35  1  0  0  0  0
 16 36  1  0  0  0  0
 18 37  1  0  0  0  0
M  CHG  1  13   1
M  END
> <s_m_source_file>
AV-unprocessed.smi

> <i_m_source_file_index>
3314

> <i_lp_mmshare_version>
43012

> <i_f3d_flags>
0

> <s_epik_input>
W0NIM11jMVtjSF1jKFtDSDNdKW5jKFtjSF0xKVtOSF1DKD1PKVtDQEBIXTJbQ0gyXU4oW0NIM10pW0NIMl1bQ0gyXU8y

> <s_epik_cmdline>
J2VwaWtfcHl0aG9uJywgJy1waCcsICc3LjAnLCAnLXRuJywgJzgnLCAnLW1hJywgJzIwMCcsICctbWV0YWxfYmluZGluZycsICctaW1hZScsICc8aW5maWxlLm1hZT4nLCAnLW9tYWUnLCAnPG91dGZpbGUubWFlPic=

> <r_epik_Ionization_Penalty>
0.32442

> <r_epik_Ionization_Penalty_Charging>
0.314023

> <r_epik_Ionization_Penalty_Neutral>
0.0103972

> <r_epik_State_Penalty>
0.29453

> <r_epik_Charging_Adjusted_Penalty>
0.608553

> <i_epik_Tot_Q>
1

> <i_epik_Tot_abs_Q>
1

> <r_epik_Metal_State_Penalty>
0.286909

> <b_epik_Metal_Only>
0

> <s_lp_Force_Field>
OPLS_2005

> <r_lp_Energy>
14.9445

> <b_lp_Chiralities_Consistent>
1

> <s_lp_Variant>
AV-unprocessed.smi:3314-2

> <Gold.Version>
5.8.1

> <Gold.Id.Protein>
6NUR|6NUR_protein|mol2

> <Gold.PLP.Fitness>
39.8411

> <Gold.PLP.PLP>
-35.4400

> <Gold.PLP.part.hbond>
-2.0000

> <Gold.PLP.part.metal>
0.0000

> <Gold.PLP.part.buried>
-4.4197

> <Gold.PLP.part.nonpolar>
-29.6819

> <Gold.PLP.part.repulsive>
1.0748

> <Gold.PLP.ligand.clash>
0.0000

> <Gold.PLP.ligand.torsion>
0.6303

> <Gold.PLP.Chemscore.Hbond>
1.8800

> <Gold.PLP.Chemscore.CHOScore>
0.0000

> <Gold.PLP.Chemscore.Metal>
0.0000

> <Gold.Chemscore.Hbonds>
donor molecule, donor type, donor heavy atom, donor atom, acceptor molecule, acceptor atom, score
      P1  H  7989  7998       L1    17  0.88
      P1  H  7997  8010       L1    10  1.00

> <Gold.PLP.Chemscore.Internal.Correction>
0.0216

> <Gold.Rescore>
     Score         DG    S(hbond)    S(metal)    S(lipo)     H(rot)  DE(clash)    DE(int)     intcor
     14.59     -18.83       1.73        0.00      86.61       1.00       0.08       4.16       ----

> <Gold.Chemscore.Fitness>
14.5872

> <Gold.Chemscore.DG>
-18.8305

> <Gold.Chemscore.ZeroCoef>
-5.4800

> <Gold.Chemscore.Hbond>
1.7297

> <Gold.Chemscore.Metal>
0.0000

> <Gold.Chemscore.Lipo>
86.6105

> <Gold.Chemscore.Internal_Hbond>
0.0000

> <Gold.Chemscore.DEClash>
0.0834

> <Gold.Chemscore.DEInternal>
4.1600

> <Gold.Chemscore.Rot>
1.0000

> <Gold.Chemscore.Internal.Correction>
   9.000000E+99

> <Gold.Chemscore.Hbonds>
donor molecule, donor type, donor heavy atom, donor atom, acceptor molecule, acceptor atom, score
      P1  H  7989  7998       L1    17  0.34
      P1  H  7997  8010       L1    10  1.00

> <Gold.Chemscore.Hbond.Weighted>
-5.7771

> <Gold.Chemscore.Metal.Weighted>
-0.0000

> <Gold.Chemscore.Lipo.Weighted>
-10.1334

> <Gold.Chemscore.Internal_Hbond.Weighted>
0.0000

> <Gold.Chemscore.DEClash.Weighted>
0.0834

> <Gold.Chemscore.DEInternal.Weighted>
4.1600

> <Gold.Chemscore.Rot.Weighted>
2.5600

> <Gold.Chemscore.Internal.Correction.Weighted>
   9.000000E+99

> <Gold.Protein.RotatedTorsions>
[ 6907 6896 6895 6894 ] final -141.20 input  -60.11 | X-H torsion
[ 7974 7965 7964 7962 ] final    8.16 input  175.53 | X-H torsion
[ 8008 7997 7996 7995 ] final   83.56 input   59.86 | X-H torsion
[ 10167 10162 10161 10158 ] final   13.95 input  -65.29 | X-H torsion
[ 10718 10713 10712 10709 ] final  133.57 input   66.30 | X-H torsion
[ 10763 10752 10751 10750 ] final    9.10 input  -60.55 | X-H torsion
[ 11005 11000 10999 10996 ] final  -45.70 input  -57.11 | X-H torsion

> <Gold.Protein.ActiveResidues>
 VAL166  LYS551  ARG553  GLY616  TRP617  ASP618  TYR619  PRO620  LYS621  CYS622 
 ASP623  PHE694  ASN695  SER759  ASP760  ASP761  ALA762  ILE779  LEU786  VAL792 
 PHE793  MET794  SER795  GLU796  ALA797  LYS798  CYS799  TRP800  GLU811  SER814 

> <Gold.Protein.RotatedAtoms>
  151.0707  133.5469  159.2627 H   0  0  0  0  0  0  0  0  0  0  0  0  # atno 6907 bound_to 6896
  151.2409  135.0588  159.9034 H   0  0  0  0  0  0  0  0  0  0  0  0  # atno 6908 bound_to 6896
  152.5411  134.0482  159.8151 H   0  0  0  0  0  0  0  0  0  0  0  0  # atno 6909 bound_to 6896
  146.2419  139.9974  142.8419 H   0  0  0  0  0  0  0  0  0  0  0  0  # atno 7974 bound_to 7965
  155.9256  140.3418  155.6207 H   0  0  0  0  0  0  0  0  0  0  0  0  # atno 8008 bound_to 7997
  155.7221  140.0785  157.2345 H   0  0  0  0  0  0  0  0  0  0  0  0  # atno 8009 bound_to 7997
  154.4076  140.1603  156.2401 H   0  0  0  0  0  0  0  0  0  0  0  0  # atno 8010 bound_to 7997
  140.5968  143.8685  150.6926 H   0  0  0  0  0  0  0  0  0  0  0  0  # atno 10167 bound_to 10162
  157.4760  131.1083  150.9743 H   0  0  0  0  0  0  0  0  0  0  0  0  # atno 10718 bound_to 10713
  153.2177  135.6877  153.8037 H   0  0  0  0  0  0  0  0  0  0  0  0  # atno 10763 bound_to 10752
  153.7247  135.3262  155.3275 H   0  0  0  0  0  0  0  0  0  0  0  0  # atno 10764 bound_to 10752
  154.8254  135.4621  154.1012 H   0  0  0  0  0  0  0  0  0  0  0  0  # atno 10765 bound_to 10752
  141.0532  133.6735  156.3050 H   0  0  0  0  0  0  0  0  0  0  0  0  # atno 11005 bound_to 11000
  145.1447  140.9590  143.4468 LP  0  0  0  0  0  0  0  0  0  0  0  0  # atno 17320 bound_to 7965
  145.0262  139.3380  143.6047 LP  0  0  0  0  0  0  0  0  0  0  0  0  # atno 17321 bound_to 7965
  140.2221  143.3801  152.1634 LP  0  0  0  0  0  0  0  0  0  0  0  0  # atno 17342 bound_to 10162
  139.5264  144.7107  151.5215 LP  0  0  0  0  0  0  0  0  0  0  0  0  # atno 17343 bound_to 10162
  157.0492  130.5780  149.5367 LP  0  0  0  0  0  0  0  0  0  0  0  0  # atno 17370 bound_to 10713
  156.0097  130.5187  150.7947 LP  0  0  0  0  0  0  0  0  0  0  0  0  # atno 17371 bound_to 10713
  140.6015  134.5550  157.5518 LP  0  0  0  0  0  0  0  0  0  0  0  0  # atno 17394 bound_to 11000
  139.9368  134.7861  156.0782 LP  0  0  0  0  0  0  0  0  0  0  0  0  # atno 17395 bound_to 11000

$$$$
