AV-unprocessed.smi:3169|AV-procd|sdf|12103|dock1
  -GOLD-   2272017543D 1   1.00000     0.00000
 Structure written by MMmdl.
 36 37  0  0  0  0  0  0  0  0  2 V2000
  145.9293  138.4001  153.9632 O   0  0  0  0  0  0  0  0  0  0  0  0
  146.7753  137.7642  153.3339 C   0  0  0  0  0  0  0  0  0  0  0  0
  146.4897  136.7250  152.5374 N   0  0  0  0  0  0  0  0  0  0  0  0
  145.1496  136.1996  152.3065 C   0  0  0  0  0  0  0  0  0  0  0  0
  144.9861  135.6829  150.8671 C   0  0  0  0  0  0  0  0  0  0  0  0
  145.2727  134.2513  150.7700 N   0  0  0  0  0  0  0  0  0  0  0  0
  144.4004  133.2476  150.4360 C   0  0  0  0  0  0  0  0  0  0  0  0
  145.1161  132.0787  150.4787 C   0  0  0  0  0  0  0  0  0  0  0  0
  146.3933  132.4187  150.8375 N   0  3  0  0  0  0  0  0  0  0  0  0
  146.4864  133.7408  151.0140 C   0  0  0  0  0  0  0  0  0  0  0  0
  148.0905  138.0179  153.3687 N   0  0  0  0  0  0  0  0  0  0  0  0
  148.7273  139.0707  154.1535 C   0  0  0  0  0  0  0  0  0  0  0  0
  150.2615  138.9608  154.1223 C   0  0  2  0  0  0  0  0  0  0  0  0
  150.8384  137.7098  154.7865 C   0  0  0  0  0  0  0  0  0  0  0  0
  152.2363  138.1680  155.1317 C   0  0  0  0  0  0  0  0  0  0  0  0
  151.9942  139.6145  155.5538 C   0  0  0  0  0  0  0  0  0  0  0  0
  150.8465  140.0513  154.8290 O   0  0  0  0  0  0  0  0  0  0  0  0
  147.2513  136.2658  152.0594 H   0  0  0  0  0  0  0  0  0  0  0  0
  144.9335  135.4082  153.0266 H   0  0  0  0  0  0  0  0  0  0  0  0
  144.4333  136.9988  152.4992 H   0  0  0  0  0  0  0  0  0  0  0  0
  143.9681  135.8474  150.5110 H   0  0  0  0  0  0  0  0  0  0  0  0
  145.6544  136.2062  150.1813 H   0  0  0  0  0  0  0  0  0  0  0  0
  143.3629  133.4347  150.1991 H   0  0  0  0  0  0  0  0  0  0  0  0
  144.8202  131.0578  150.2861 H   0  0  0  0  0  0  0  0  0  0  0  0
  147.3675  134.2882  151.2990 H   0  0  0  0  0  0  0  0  0  0  0  0
  148.7017  137.4361  152.8146 H   0  0  0  0  0  0  0  0  0  0  0  0
  148.4254  140.0268  153.7253 H   0  0  0  0  0  0  0  0  0  0  0  0
  148.3626  139.0701  155.1821 H   0  0  0  0  0  0  0  0  0  0  0  0
  150.6174  139.0157  153.0921 H   0  0  0  0  0  0  0  0  0  0  0  0
  150.2906  137.4700  155.6990 H   0  0  0  0  0  0  0  0  0  0  0  0
  150.8229  136.8347  154.1363 H   0  0  0  0  0  0  0  0  0  0  0  0
  152.7066  137.5684  155.9115 H   0  0  0  0  0  0  0  0  0  0  0  0
  152.8701  138.1352  154.2444 H   0  0  0  0  0  0  0  0  0  0  0  0
  151.7691  139.6679  156.6193 H   0  0  0  0  0  0  0  0  0  0  0  0
  152.8556  140.2529  155.3572 H   0  0  0  0  0  0  0  0  0  0  0  0
  147.1587  131.7661  150.9529 H   0  0  0  0  0  0  0  0  0  0  0  0
  1  2  2  0  0  0  0
  2  3  1  0  0  0  0
  2 11  1  0  0  0  0
  3  4  1  0  0  0  0
  3 18  1  0  0  0  0
  4  5  1  0  0  0  0
  4 19  1  0  0  0  0
  4 20  1  0  0  0  0
  5  6  1  0  0  0  0
  5 21  1  0  0  0  0
  5 22  1  0  0  0  0
  6 10  1  0  0  0  0
  6  7  1  0  0  0  0
  7  8  2  0  0  0  0
  7 23  1  0  0  0  0
  8  9  1  0  0  0  0
  8 24  1  0  0  0  0
  9 10  2  0  0  0  0
  9 36  1  0  0  0  0
 10 25  1  0  0  0  0
 11 12  1  0  0  0  0
 11 26  1  0  0  0  0
 12 13  1  0  0  0  0
 12 27  1  0  0  0  0
 12 28  1  0  0  0  0
 13 17  1  0  0  0  0
 13 14  1  0  0  0  0
 13 29  1  0  0  0  0
 14 15  1  0  0  0  0
 14 30  1  0  0  0  0
 14 31  1  0  0  0  0
 15 16  1  0  0  0  0
 15 32  1  0  0  0  0
 15 33  1  0  0  0  0
 16 17  1  0  0  0  0
 16 34  1  0  0  0  0
 16 35  1  0  0  0  0
M  CHG  1   9   1
M  END
> <s_m_source_file>
AV-unprocessed.smi

> <i_m_source_file_index>
3169

> <i_lp_mmshare_version>
43012

> <i_f3d_flags>
0

> <s_epik_input>
TzFbQ0gyXVtDSDJdW0NIMl1bQ0BIXTFbQ0gyXVtOSF1DKD1PKVtOSF1bQ0gyXVtDSDJdbjJbY0hdW2NIXW5bY0hdMg==

> <s_epik_cmdline>
J2VwaWtfcHl0aG9uJywgJy1waCcsICc3LjAnLCAnLXRuJywgJzgnLCAnLW1hJywgJzIwMCcsICctbWV0YWxfYmluZGluZycsICctaW1hZScsICc8aW5maWxlLm1hZT4nLCAnLW9tYWUnLCAnPG91dGZpbGUubWFlPic=

> <r_lp_tautomer_probability>
1

> <r_epik_Ionization_Penalty>
0.256136

> <r_epik_Ionization_Penalty_Charging>
0

> <r_epik_Ionization_Penalty_Neutral>
0.256136

> <r_epik_State_Penalty>
0.247629

> <r_epik_Charging_Adjusted_Penalty>
0.247629

> <i_epik_Tot_Q>
1

> <i_epik_Tot_abs_Q>
1

> <r_epik_Metal_State_Penalty>
0.537113

> <b_epik_Metal_Only>
0

> <s_lp_Force_Field>
OPLS_2005

> <r_lp_Energy>
17.2765

> <b_lp_Chiralities_Consistent>
1

> <s_lp_Variant>
AV-unprocessed.smi:3169-1

> <Gold.Version>
5.8.1

> <Gold.Id.Protein>
6NUR|6NUR_protein|mol2

> <Gold.PLP.Fitness>
48.1298

> <Gold.PLP.PLP>
-33.2175

> <Gold.PLP.part.hbond>
-3.6756

> <Gold.PLP.part.metal>
0.0000

> <Gold.PLP.part.buried>
-3.5829

> <Gold.PLP.part.nonpolar>
-25.9325

> <Gold.PLP.part.repulsive>
0.3319

> <Gold.PLP.ligand.clash>
0.0000

> <Gold.PLP.ligand.torsion>
0.4587

> <Gold.PLP.Chemscore.Hbond>
3.6108

> <Gold.PLP.Chemscore.CHOScore>
1.6579

> <Gold.PLP.Chemscore.Metal>
0.0000

> <Gold.Chemscore.Hbonds>
donor molecule, donor type, donor heavy atom, donor atom, acceptor molecule, acceptor atom, score
      L1  H     3    18       P1  7948  0.91
      L1  H     9    36       P1 10747  0.71
      L1  H    11    26       P1  7948  1.00
      P1  H  7989  7998       L1    17  1.00
      L1  C     7    23       P1 10186  0.74
      L1  C    10    25       P1  7948  0.83

> <Gold.PLP.Chemscore.Internal.Correction>
0.0239

> <Gold.Rescore>
     Score         DG    S(hbond)    S(metal)    S(lipo)     H(rot)  DE(clash)    DE(int)     intcor
     16.29     -16.79       2.87        0.00      65.80       2.33       0.05       0.45       ----

> <Gold.Chemscore.Fitness>
16.2880

> <Gold.Chemscore.DG>
-16.7902

> <Gold.Chemscore.ZeroCoef>
-5.4800

> <Gold.Chemscore.Hbond>
2.8663

> <Gold.Chemscore.Metal>
0.0000

> <Gold.Chemscore.Lipo>
65.7978

> <Gold.Chemscore.Internal_Hbond>
0.0000

> <Gold.Chemscore.DEClash>
0.0492

> <Gold.Chemscore.DEInternal>
0.4530

> <Gold.Chemscore.Rot>
2.3288

> <Gold.Chemscore.Internal.Correction>
   9.000000E+99

> <Gold.Chemscore.Hbonds>
donor molecule, donor type, donor heavy atom, donor atom, acceptor molecule, acceptor atom, score
      L1  H     3    18       P1  7948  0.90
      L1  H     9    36       P1 10747  0.68
      L1  H    11    26       P1  7948  0.92
      P1  H  7989  7998       L1    17  0.07

> <Gold.Chemscore.Hbond.Weighted>
-9.5736

> <Gold.Chemscore.Metal.Weighted>
-0.0000

> <Gold.Chemscore.Lipo.Weighted>
-7.6983

> <Gold.Chemscore.Internal_Hbond.Weighted>
0.0000

> <Gold.Chemscore.DEClash.Weighted>
0.0492

> <Gold.Chemscore.DEInternal.Weighted>
0.4530

> <Gold.Chemscore.Rot.Weighted>
5.9617

> <Gold.Chemscore.Internal.Correction.Weighted>
   9.000000E+99

> <Gold.Protein.RotatedTorsions>
[ 6907 6896 6895 6894 ] final -154.84 input  -60.11 | X-H torsion
[ 7974 7965 7964 7962 ] final    7.13 input  175.53 | X-H torsion
[ 8008 7997 7996 7995 ] final   22.58 input   59.86 | X-H torsion
[ 10167 10162 10161 10158 ] final -102.67 input  -65.29 | X-H torsion
[ 10718 10713 10712 10709 ] final  -37.61 input   66.30 | X-H torsion
[ 10763 10752 10751 10750 ] final  -91.05 input  -60.55 | X-H torsion
[ 11005 11000 10999 10996 ] final  119.11 input  -57.11 | X-H torsion

> <Gold.Protein.ActiveResidues>
 VAL166  LYS551  ARG553  GLY616  TRP617  ASP618  TYR619  PRO620  LYS621  CYS622 
 ASP623  PHE694  ASN695  SER759  ASP760  ASP761  ALA762  ILE779  LEU786  VAL792 
 PHE793  MET794  SER795  GLU796  ALA797  LYS798  CYS799  TRP800  GLU811  SER814 

> <Gold.Protein.RotatedAtoms>
  151.2636  133.4290  159.2617 H   0  0  0  0  0  0  0  0  0  0  0  0  # atno 6907 bound_to 6896
  151.0509  134.9672  159.8221 H   0  0  0  0  0  0  0  0  0  0  0  0  # atno 6908 bound_to 6896
  152.5382  134.2590  159.8980 H   0  0  0  0  0  0  0  0  0  0  0  0  # atno 6909 bound_to 6896
  146.2429  140.0129  142.8405 H   0  0  0  0  0  0  0  0  0  0  0  0  # atno 7974 bound_to 7965
  154.9679  140.3086  155.5001 H   0  0  0  0  0  0  0  0  0  0  0  0  # atno 8008 bound_to 7997
  156.2969  140.2289  156.4708 H   0  0  0  0  0  0  0  0  0  0  0  0  # atno 8009 bound_to 7997
  154.7904  140.0440  157.1185 H   0  0  0  0  0  0  0  0  0  0  0  0  # atno 8010 bound_to 7997
  140.2282  143.3626  152.0910 H   0  0  0  0  0  0  0  0  0  0  0  0  # atno 10167 bound_to 10162
  156.3132  130.4255  149.8030 H   0  0  0  0  0  0  0  0  0  0  0  0  # atno 10718 bound_to 10713
  154.6721  135.5282  153.8151 H   0  0  0  0  0  0  0  0  0  0  0  0  # atno 10763 bound_to 10752
  153.0508  135.6531  154.0709 H   0  0  0  0  0  0  0  0  0  0  0  0  # atno 10764 bound_to 10752
  154.0606  135.2962  155.3305 H   0  0  0  0  0  0  0  0  0  0  0  0  # atno 10765 bound_to 10752
  139.9134  134.9626  156.7605 H   0  0  0  0  0  0  0  0  0  0  0  0  # atno 11005 bound_to 11000
  145.1311  140.9518  143.4544 LP  0  0  0  0  0  0  0  0  0  0  0  0  # atno 17320 bound_to 7965
  145.0387  139.3279  143.5988 LP  0  0  0  0  0  0  0  0  0  0  0  0  # atno 17321 bound_to 7965
  139.5119  144.6909  151.5763 LP  0  0  0  0  0  0  0  0  0  0  0  0  # atno 17342 bound_to 10162
  140.6205  143.9268  150.6522 LP  0  0  0  0  0  0  0  0  0  0  0  0  # atno 17343 bound_to 10162
  156.5365  130.8281  151.3255 LP  0  0  0  0  0  0  0  0  0  0  0  0  # atno 17370 bound_to 10713
  157.7396  130.9834  150.2322 LP  0  0  0  0  0  0  0  0  0  0  0  0  # atno 17371 bound_to 10713
  140.6701  133.9567  155.7852 LP  0  0  0  0  0  0  0  0  0  0  0  0  # atno 17394 bound_to 11000
  141.0583  134.0383  157.3692 LP  0  0  0  0  0  0  0  0  0  0  0  0  # atno 17395 bound_to 11000

$$$$
