AV-unprocessed.smi:295|AV-procd|sdf|2257|dock10
  -GOLD-   2262022143D 1   1.00000     0.00000
 Structure written by MMmdl.
 35 36  0  0  0  0  0  0  0  0  1 V2000
  150.6931  140.2473  158.0141 C   0  0  0  0  0  0  0  0  0  0  0  0
  150.9360  141.7215  158.3868 C   0  0  1  0  0  0  0  0  0  0  0  0
  152.0484  141.8399  159.4481 C   0  0  0  0  0  0  0  0  0  0  0  0
  152.3022  143.3013  159.8487 C   0  0  0  0  0  0  0  0  0  0  0  0
  152.6425  144.1582  158.6216 C   0  0  0  0  0  0  0  0  0  0  0  0
  151.5370  144.0616  157.5603 C   0  0  0  0  0  0  0  0  0  0  0  0
  151.2662  142.5986  157.1534 C   0  0  2  0  0  0  0  0  0  0  0  0
  150.1665  142.5504  156.1944 N   0  0  0  0  0  0  0  0  0  0  0  0
  149.9331  141.5617  155.3168 C   0  0  0  0  0  0  0  0  0  0  0  0
  150.6732  140.5885  155.1783 O   0  0  0  0  0  0  0  0  0  0  0  0
  148.6726  141.6908  154.4571 C   0  0  0  0  0  0  0  0  0  0  0  0
  147.8239  140.5164  154.5660 N   0  0  0  0  0  0  0  0  0  0  0  0
  147.3658  139.6864  153.6229 C   0  0  0  0  0  0  0  0  0  0  0  0
  146.5860  138.7186  154.0881 N   0  0  0  0  0  0  0  0  0  0  0  0
  146.6181  139.0401  155.4139 C   0  0  0  0  0  0  0  0  0  0  0  0
  145.8923  138.2600  156.4019 C   0  0  0  0  0  0  0  0  0  0  0  0
  145.3144  137.6387  157.1888 N   0  0  0  0  0  0  0  0  0  0  0  0
  147.3409  140.1023  155.7630 N   0  0  0  0  0  0  0  0  0  0  0  0
  151.5684  139.8129  157.5300 H   0  0  0  0  0  0  0  0  0  0  0  0
  149.8479  140.1353  157.3345 H   0  0  0  0  0  0  0  0  0  0  0  0
  150.4743  139.6511  158.9002 H   0  0  0  0  0  0  0  0  0  0  0  0
  150.0152  142.0995  158.8344 H   0  0  0  0  0  0  0  0  0  0  0  0
  151.7820  141.2626  160.3340 H   0  0  0  0  0  0  0  0  0  0  0  0
  152.9718  141.4043  159.0634 H   0  0  0  0  0  0  0  0  0  0  0  0
  151.4177  143.7047  160.3433 H   0  0  0  0  0  0  0  0  0  0  0  0
  153.1135  143.3524  160.5755 H   0  0  0  0  0  0  0  0  0  0  0  0
  152.7825  145.1978  158.9193 H   0  0  0  0  0  0  0  0  0  0  0  0
  153.5902  143.8281  158.1943 H   0  0  0  0  0  0  0  0  0  0  0  0
  150.6228  144.5114  157.9503 H   0  0  0  0  0  0  0  0  0  0  0  0
  151.8197  144.6480  156.6852 H   0  0  0  0  0  0  0  0  0  0  0  0
  152.1682  142.1963  156.6876 H   0  0  0  0  0  0  0  0  0  0  0  0
  149.5057  143.3127  156.2301 H   0  0  0  0  0  0  0  0  0  0  0  0
  148.1063  142.5683  154.7714 H   0  0  0  0  0  0  0  0  0  0  0  0
  148.9422  141.8378  153.4102 H   0  0  0  0  0  0  0  0  0  0  0  0
  147.6018  139.7979  152.5748 H   0  0  0  0  0  0  0  0  0  0  0  0
  1  2  1  0  0  0  0
  1 19  1  0  0  0  0
  1 20  1  0  0  0  0
  1 21  1  0  0  0  0
  2  7  1  0  0  0  0
  2  3  1  0  0  0  0
  2 22  1  0  0  0  0
  3  4  1  0  0  0  0
  3 23  1  0  0  0  0
  3 24  1  0  0  0  0
  4  5  1  0  0  0  0
  4 25  1  0  0  0  0
  4 26  1  0  0  0  0
  5  6  1  0  0  0  0
  5 27  1  0  0  0  0
  5 28  1  0  0  0  0
  6  7  1  0  0  0  0
  6 29  1  0  0  0  0
  6 30  1  0  0  0  0
  7  8  1  0  0  0  0
  7 31  1  0  0  0  0
  8  9  1  0  0  0  0
  8 32  1  0  0  0  0
  9 10  2  0  0  0  0
  9 11  1  0  0  0  0
 11 12  1  0  0  0  0
 11 33  1  0  0  0  0
 11 34  1  0  0  0  0
 12 18  1  0  0  0  0
 12 13  1  0  0  0  0
 13 14  2  0  0  0  0
 13 35  1  0  0  0  0
 14 15  1  0  0  0  0
 15 16  1  0  0  0  0
 15 18  2  0  0  0  0
 16 17  3  0  0  0  0
M  END
> <s_m_source_file>
AV-unprocessed.smi

> <i_m_source_file_index>
295

> <i_lp_mmshare_version>
43012

> <i_f3d_flags>
0

> <s_epik_input>
W0NIM11bQ0BASF0xW0NIMl1bQ0gyXVtDSDJdW0NIMl1bQ0BIXTFbTkhdQyg9TylbQ0gyXW4yW2NIXW5jKG4yKUMjTg==

> <s_epik_cmdline>
J2VwaWtfcHl0aG9uJywgJy1waCcsICc3LjAnLCAnLXRuJywgJzgnLCAnLW1hJywgJzIwMCcsICctbWV0YWxfYmluZGluZycsICctaW1hZScsICc8aW5maWxlLm1hZT4nLCAnLW9tYWUnLCAnPG91dGZpbGUubWFlPic=

> <r_lp_tautomer_probability>
1

> <r_epik_Ionization_Penalty>
5.31112e-08

> <r_epik_Ionization_Penalty_Charging>
0

> <r_epik_Ionization_Penalty_Neutral>
5.31112e-08

> <r_epik_State_Penalty>
-0

> <r_epik_Charging_Adjusted_Penalty>
0

> <i_epik_Tot_Q>
0

> <i_epik_Tot_abs_Q>
0

> <r_epik_Metal_State_Penalty>
-0

> <b_epik_Metal_Only>
0

> <s_lp_Force_Field>
OPLS_2005

> <r_lp_Energy>
13.6203

> <b_lp_Chiralities_Consistent>
1

> <s_lp_Variant>
AV-unprocessed.smi:295-4

> <Gold.Version>
5.8.1

> <Gold.Id.Protein>
6NUR|6NUR_protein|mol2

> <Gold.PLP.Fitness>
39.9726

> <Gold.PLP.PLP>
-31.6642

> <Gold.PLP.part.hbond>
-2.0000

> <Gold.PLP.part.metal>
0.0000

> <Gold.PLP.part.buried>
-2.9945

> <Gold.PLP.part.nonpolar>
-26.7174

> <Gold.PLP.part.repulsive>
0.3287

> <Gold.PLP.ligand.clash>
0.0000

> <Gold.PLP.ligand.torsion>
0.3367

> <Gold.PLP.Chemscore.Hbond>
1.9920

> <Gold.PLP.Chemscore.CHOScore>
1.0000

> <Gold.PLP.Chemscore.Metal>
0.0000

> <Gold.Chemscore.Hbonds>
donor molecule, donor type, donor heavy atom, donor atom, acceptor molecule, acceptor atom, score
      L1  H     8    32       P1  8028  1.00
      P1  H  7989  7998       L1    10  0.96
      L1  C    13    35       P1  7957  1.00

> <Gold.PLP.Chemscore.Internal.Correction>
0.0057

> <Gold.Rescore>
     Score         DG    S(hbond)    S(metal)    S(lipo)     H(rot)  DE(clash)    DE(int)     intcor
     14.58     -15.35       1.67        0.00      79.21       1.95       0.40       0.37       ----

> <Gold.Chemscore.Fitness>
14.5833

> <Gold.Chemscore.DG>
-15.3528

> <Gold.Chemscore.ZeroCoef>
-5.4800

> <Gold.Chemscore.Hbond>
1.6739

> <Gold.Chemscore.Metal>
0.0000

> <Gold.Chemscore.Lipo>
79.2061

> <Gold.Chemscore.Internal_Hbond>
0.0000

> <Gold.Chemscore.DEClash>
0.3954

> <Gold.Chemscore.DEInternal>
0.3741

> <Gold.Chemscore.Rot>
1.9474

> <Gold.Chemscore.Internal.Correction>
   9.000000E+99

> <Gold.Chemscore.Hbonds>
donor molecule, donor type, donor heavy atom, donor atom, acceptor molecule, acceptor atom, score
      L1  H     8    32       P1  8028  0.96
      P1  H  7989  7998       L1    10  0.50

> <Gold.Chemscore.Hbond.Weighted>
-5.5909

> <Gold.Chemscore.Metal.Weighted>
-0.0000

> <Gold.Chemscore.Lipo.Weighted>
-9.2671

> <Gold.Chemscore.Internal_Hbond.Weighted>
0.0000

> <Gold.Chemscore.DEClash.Weighted>
0.3954

> <Gold.Chemscore.DEInternal.Weighted>
0.3741

> <Gold.Chemscore.Rot.Weighted>
4.9852

> <Gold.Chemscore.Internal.Correction.Weighted>
   9.000000E+99

> <Gold.Protein.RotatedTorsions>
[ 6907 6896 6895 6894 ] final -114.52 input  -60.11 | X-H torsion
[ 7974 7965 7964 7962 ] final   58.54 input  175.53 | X-H torsion
[ 8008 7997 7996 7995 ] final   81.35 input   59.86 | X-H torsion
[ 10167 10162 10161 10158 ] final  -83.56 input  -65.29 | X-H torsion
[ 10718 10713 10712 10709 ] final   61.40 input   66.30 | X-H torsion
[ 10763 10752 10751 10750 ] final  114.77 input  -60.55 | X-H torsion
[ 11005 11000 10999 10996 ] final  150.56 input  -57.11 | X-H torsion

> <Gold.Protein.ActiveResidues>
 VAL166  LYS551  ARG553  GLY616  TRP617  ASP618  TYR619  PRO620  LYS621  CYS622 
 ASP623  PHE694  ASN695  SER759  ASP760  ASP761  ALA762  ILE779  LEU786  VAL792 
 PHE793  MET794  SER795  GLU796  ALA797  LYS798  CYS799  TRP800  GLU811  SER814 

> <Gold.Protein.RotatedAtoms>
  150.7908  133.8789  159.3279 H   0  0  0  0  0  0  0  0  0  0  0  0  # atno 6907 bound_to 6896
  151.6627  135.0985  160.0192 H   0  0  0  0  0  0  0  0  0  0  0  0  # atno 6908 bound_to 6896
  152.3982  133.6739  159.6329 H   0  0  0  0  0  0  0  0  0  0  0  0  # atno 6909 bound_to 6896
  145.9170  139.3699  143.0501 H   0  0  0  0  0  0  0  0  0  0  0  0  # atno 7974 bound_to 7965
  155.8960  140.3436  155.5991 H   0  0  0  0  0  0  0  0  0  0  0  0  # atno 8008 bound_to 7997
  155.7556  140.0825  157.2199 H   0  0  0  0  0  0  0  0  0  0  0  0  # atno 8009 bound_to 7997
  154.4038  140.1545  156.2761 H   0  0  0  0  0  0  0  0  0  0  0  0  # atno 8010 bound_to 7997
  140.4215  143.2583  151.8884 H   0  0  0  0  0  0  0  0  0  0  0  0  # atno 10167 bound_to 10162
  157.5825  130.8993  149.9456 H   0  0  0  0  0  0  0  0  0  0  0  0  # atno 10718 bound_to 10713
  153.5123  135.3615  155.2592 H   0  0  0  0  0  0  0  0  0  0  0  0  # atno 10763 bound_to 10752
  154.8741  135.4025  154.3355 H   0  0  0  0  0  0  0  0  0  0  0  0  # atno 10764 bound_to 10752
  153.4010  135.7075  153.6493 H   0  0  0  0  0  0  0  0  0  0  0  0  # atno 10765 bound_to 10752
  140.1142  134.8905  157.1980 H   0  0  0  0  0  0  0  0  0  0  0  0  # atno 11005 bound_to 11000
  145.8598  140.9481  143.0706 LP  0  0  0  0  0  0  0  0  0  0  0  0  # atno 17320 bound_to 7965
  144.6749  140.0516  143.7478 LP  0  0  0  0  0  0  0  0  0  0  0  0  # atno 17321 bound_to 7965
  139.4783  144.5432  151.8497 LP  0  0  0  0  0  0  0  0  0  0  0  0  # atno 17342 bound_to 10162
  140.4528  144.1831  150.5899 LP  0  0  0  0  0  0  0  0  0  0  0  0  # atno 17343 bound_to 10162
  156.0872  130.3667  150.0465 LP  0  0  0  0  0  0  0  0  0  0  0  0  # atno 17370 bound_to 10713
  156.8602  130.9489  151.3618 LP  0  0  0  0  0  0  0  0  0  0  0  0  # atno 17371 bound_to 10713
  140.3051  134.3088  155.7280 LP  0  0  0  0  0  0  0  0  0  0  0  0  # atno 17394 bound_to 11000
  141.2137  133.7615  156.9696 LP  0  0  0  0  0  0  0  0  0  0  0  0  # atno 17395 bound_to 11000

$$$$
