AV-unprocessed.smi:109|AV-procd|sdf|1050|dock4
  -GOLD-   2262018103D 1   1.00000     0.00000
 Structure written by MMmdl.
 58 61  0  0  0  0  0  0  0  0  1 V2000
  151.1874  139.5518  154.3854 O   0  0  0  0  0  0  0  0  0  0  0  0
  151.3310  139.2207  155.7496 C   0  0  0  0  0  0  0  0  0  0  0  0
  150.3677  140.0683  156.5986 C   0  0  0  0  0  0  0  0  0  0  0  0
  150.5576  141.5973  156.4393 C   0  0  1  0  0  0  0  0  0  0  0  0
  149.3231  142.1924  155.9212 N   0  0  0  0  0  0  0  0  0  0  0  0
  148.5529  141.5710  154.9997 C   0  0  0  0  0  0  0  0  0  0  0  0
  148.8036  141.6882  153.6708 N   0  0  0  0  0  0  0  0  0  0  0  0
  148.0289  141.0562  152.7869 C   0  0  0  0  0  0  0  0  0  0  0  0
  146.9748  140.2721  153.0161 N   0  0  0  0  0  0  0  0  0  0  0  0
  146.7093  140.1469  154.3495 C   0  0  0  0  0  0  0  0  0  0  0  0
  147.4524  140.7670  155.3947 C   0  0  0  0  0  0  0  0  0  0  0  0
  146.9071  140.4323  156.6248 N   0  0  0  0  0  0  0  0  0  0  0  0
  145.8974  139.6639  156.3211 C   0  0  0  0  0  0  0  0  0  0  0  0
  145.7088  139.4207  154.9775 N   0  0  0  0  0  0  0  0  0  0  0  0
  144.6033  138.5875  154.3839 C   0  0  1  0  0  0  0  0  0  0  0  0
  144.7713  137.2699  154.7976 O   0  0  0  0  0  0  0  0  0  0  0  0
  143.9931  137.0270  155.9603 C   0  0  2  0  0  0  0  0  0  0  0  0
  143.6961  135.5247  156.0823 C   0  0  0  0  0  0  0  0  0  0  0  0
  142.9692  135.0785  154.9574 O   0  0  0  0  0  0  0  0  0  0  0  0
  142.7336  137.8774  155.7244 C   0  0  1  0  0  0  0  0  0  0  0  0
  142.2468  138.3743  156.9547 O   0  0  0  0  0  0  0  0  0  0  0  0
  143.1943  139.0247  154.8181 C   0  0  2  0  0  0  0  0  0  0  0  0
  142.3333  139.1420  153.7031 O   0  0  0  0  0  0  0  0  0  0  0  0
  150.9643  142.3152  157.7585 C   0  0  0  0  0  0  0  0  0  0  0  0
  151.5534  143.7210  157.4715 C   0  0  0  0  0  0  0  0  0  0  0  0
  151.9743  144.4579  158.7524 C   0  0  0  0  0  0  0  0  0  0  0  0
  152.9848  143.6332  159.5577 C   0  0  0  0  0  0  0  0  0  0  0  0
  152.4134  142.2469  159.8781 C   0  0  0  0  0  0  0  0  0  0  0  0
  151.9812  141.5054  158.6022 C   0  0  0  0  0  0  0  0  0  0  0  0
  144.7678  138.6693  153.3085 H   0  0  0  0  0  0  0  0  0  0  0  0
  144.5377  137.3785  156.8370 H   0  0  0  0  0  0  0  0  0  0  0  0
  141.9603  137.2815  155.2363 H   0  0  0  0  0  0  0  0  0  0  0  0
  143.2264  139.9921  155.3185 H   0  0  0  0  0  0  0  0  0  0  0  0
  151.1570  138.7519  153.8832 H   0  0  0  0  0  0  0  0  0  0  0  0
  151.1236  138.1581  155.8787 H   0  0  0  0  0  0  0  0  0  0  0  0
  152.3682  139.3904  156.0387 H   0  0  0  0  0  0  0  0  0  0  0  0
  149.3366  139.7995  156.3648 H   0  0  0  0  0  0  0  0  0  0  0  0
  150.5319  139.7810  157.6356 H   0  0  0  0  0  0  0  0  0  0  0  0
  151.3796  141.7549  155.7412 H   0  0  0  0  0  0  0  0  0  0  0  0
  149.1127  143.1183  156.2650 H   0  0  0  0  0  0  0  0  0  0  0  0
  148.2918  141.1972  151.7490 H   0  0  0  0  0  0  0  0  0  0  0  0
  145.2539  139.2453  157.0813 H   0  0  0  0  0  0  0  0  0  0  0  0
  144.6295  134.9611  156.1113 H   0  0  0  0  0  0  0  0  0  0  0  0
  143.1529  135.2994  157.0005 H   0  0  0  0  0  0  0  0  0  0  0  0
  142.9722  134.1334  154.9530 H   0  0  0  0  0  0  0  0  0  0  0  0
  141.3062  138.4520  156.8925 H   0  0  0  0  0  0  0  0  0  0  0  0
  142.7613  139.6717  153.0481 H   0  0  0  0  0  0  0  0  0  0  0  0
  150.0646  142.4465  158.3621 H   0  0  0  0  0  0  0  0  0  0  0  0
  152.4149  143.6276  156.8088 H   0  0  0  0  0  0  0  0  0  0  0  0
  150.8309  144.3437  156.9436 H   0  0  0  0  0  0  0  0  0  0  0  0
  152.4049  145.4270  158.4988 H   0  0  0  0  0  0  0  0  0  0  0  0
  151.0946  144.6607  159.3645 H   0  0  0  0  0  0  0  0  0  0  0  0
  153.9107  143.5287  158.9906 H   0  0  0  0  0  0  0  0  0  0  0  0
  153.2416  144.1540  160.4805 H   0  0  0  0  0  0  0  0  0  0  0  0
  153.1547  141.6561  160.4169 H   0  0  0  0  0  0  0  0  0  0  0  0
  151.5575  142.3507  160.5462 H   0  0  0  0  0  0  0  0  0  0  0  0
  151.5578  140.5508  158.9100 H   0  0  0  0  0  0  0  0  0  0  0  0
  152.8599  141.2758  157.9981 H   0  0  0  0  0  0  0  0  0  0  0  0
  1  2  1  0  0  0  0
  1 34  1  0  0  0  0
  2  3  1  0  0  0  0
  2 35  1  0  0  0  0
  2 36  1  0  0  0  0
  3  4  1  0  0  0  0
  3 37  1  0  0  0  0
  3 38  1  0  0  0  0
  4  5  1  0  0  0  0
  4 24  1  0  0  0  0
  4 39  1  0  0  0  0
  5  6  1  0  0  0  0
  5 40  1  0  0  0  0
  6 11  1  0  0  0  0
  6  7  2  0  0  0  0
  7  8  1  0  0  0  0
  8  9  2  0  0  0  0
  8 41  1  0  0  0  0
  9 10  1  0  0  0  0
 10 14  1  0  0  0  0
 10 11  2  0  0  0  0
 11 12  1  0  0  0  0
 12 13  2  0  0  0  0
 13 14  1  0  0  0  0
 13 42  1  0  0  0  0
 14 15  1  0  0  0  0
 15 30  1  0  0  0  0
 15 22  1  0  0  0  0
 15 16  1  0  0  0  0
 16 17  1  0  0  0  0
 17 31  1  0  0  0  0
 17 18  1  0  0  0  0
 17 20  1  0  0  0  0
 18 19  1  0  0  0  0
 18 43  1  0  0  0  0
 18 44  1  0  0  0  0
 19 45  1  0  0  0  0
 20 32  1  0  0  0  0
 20 21  1  0  0  0  0
 20 22  1  0  0  0  0
 21 46  1  0  0  0  0
 22 33  1  0  0  0  0
 22 23  1  0  0  0  0
 23 47  1  0  0  0  0
 24 29  1  0  0  0  0
 24 25  1  0  0  0  0
 24 48  1  0  0  0  0
 25 26  1  0  0  0  0
 25 49  1  0  0  0  0
 25 50  1  0  0  0  0
 26 27  1  0  0  0  0
 26 51  1  0  0  0  0
 26 52  1  0  0  0  0
 27 28  1  0  0  0  0
 27 53  1  0  0  0  0
 27 54  1  0  0  0  0
 28 29  1  0  0  0  0
 28 55  1  0  0  0  0
 28 56  1  0  0  0  0
 29 57  1  0  0  0  0
 29 58  1  0  0  0  0
M  END
> <s_m_source_file>
AV-unprocessed.smi

> <i_m_source_file_index>
109

> <i_lp_mmshare_version>
43012

> <i_f3d_flags>
0

> <s_epik_input>
W0NIMl0xW0NIMl1bQ0gyXVtDSDJdW0NIMl1bQ0hdMVtDQEhdKFtDSDJdW0NIMl1bT0hdKVtOSF1jKG5bY0hdbjIpYyhjMjMpbltjSF1uM1tDQEBIXTRPW0NASF0oW0NIMl1bT0hdKVtDQEBIXShbT0hdKVtDQEhdNFtPSF0=

> <s_epik_cmdline>
J2VwaWtfcHl0aG9uJywgJy1waCcsICc3LjAnLCAnLXRuJywgJzgnLCAnLW1hJywgJzIwMCcsICctbWV0YWxfYmluZGluZycsICctaW1hZScsICc8aW5maWxlLm1hZT4nLCAnLW9tYWUnLCAnPG91dGZpbGUubWFlPic=

> <r_lp_tautomer_probability>
1

> <r_epik_Ionization_Penalty>
0.000793976

> <r_epik_Ionization_Penalty_Charging>
0

> <r_epik_Ionization_Penalty_Neutral>
0.000793976

> <r_epik_State_Penalty>
-0

> <r_epik_Charging_Adjusted_Penalty>
0

> <i_epik_Tot_Q>
0

> <i_epik_Tot_abs_Q>
0

> <r_epik_Metal_State_Penalty>
-0

> <b_epik_Metal_Only>
0

> <s_epik_Chemistry_Notes>
This compound contains an acetal/aminal-like group ( X-CH(R)-Y where X, Y are N, S, or O) that may be acid/base labile, releasing an aldehyde.

> <s_lp_Force_Field>
OPLS_2005

> <r_lp_Energy>
47.2869

> <b_lp_Chiralities_Consistent>
1

> <s_lp_Variant>
AV-unprocessed.smi:109-20

> <Gold.Version>
5.8.1

> <Gold.Id.Protein>
6NUR|6NUR_protein|mol2

> <Gold.PLP.Fitness>
47.6300

> <Gold.PLP.PLP>
-37.5200

> <Gold.PLP.part.hbond>
-5.7068

> <Gold.PLP.part.metal>
0.0000

> <Gold.PLP.part.buried>
-2.6043

> <Gold.PLP.part.nonpolar>
-30.0445

> <Gold.PLP.part.repulsive>
0.4944

> <Gold.PLP.ligand.clash>
0.0000

> <Gold.PLP.ligand.torsion>
2.1147

> <Gold.PLP.Chemscore.Hbond>
3.9315

> <Gold.PLP.Chemscore.CHOScore>
0.7224

> <Gold.PLP.Chemscore.Metal>
0.0000

> <Gold.Chemscore.Hbonds>
donor molecule, donor type, donor heavy atom, donor atom, acceptor molecule, acceptor atom, score
      L1  H     5    40       P1  8028  0.80
      L1  H    19    45       P1 10957  0.11
      L1  H    23    47       P1 10175  0.36
      P1  H  7989  7998       L1     1  1.00
      P1  H  8011  8017       L1     7  0.36
      L1  C     8    41       P1  7957  0.32

> <Gold.PLP.Chemscore.Internal.Correction>
0.3777

> <Gold.Rescore>
     Score         DG    S(hbond)    S(metal)    S(lipo)     H(rot)  DE(clash)    DE(int)     intcor
     10.57     -14.57       3.74        0.00      90.40       5.47       1.83       2.18       ----

> <Gold.Chemscore.Fitness>
10.5654

> <Gold.Chemscore.DG>
-14.5697

> <Gold.Chemscore.ZeroCoef>
-5.4800

> <Gold.Chemscore.Hbond>
3.7443

> <Gold.Chemscore.Metal>
0.0000

> <Gold.Chemscore.Lipo>
90.4043

> <Gold.Chemscore.Internal_Hbond>
0.0000

> <Gold.Chemscore.DEClash>
1.8267

> <Gold.Chemscore.DEInternal>
2.1775

> <Gold.Chemscore.Rot>
5.4662

> <Gold.Chemscore.Internal.Correction>
   9.000000E+99

> <Gold.Chemscore.Hbonds>
donor molecule, donor type, donor heavy atom, donor atom, acceptor molecule, acceptor atom, score
      L1  H     5    40       P1  8028  0.80
      L1  H    19    45       P1 10957  0.14
      L1  H    23    47       P1 10175  0.35
      P1  H  7989  7998       L1     1  0.85
      P1  H  8011  8017       L1     7  0.02

> <Gold.Chemscore.Hbond.Weighted>
-12.5059

> <Gold.Chemscore.Metal.Weighted>
-0.0000

> <Gold.Chemscore.Lipo.Weighted>
-10.5773

> <Gold.Chemscore.Internal_Hbond.Weighted>
0.0000

> <Gold.Chemscore.DEClash.Weighted>
1.8267

> <Gold.Chemscore.DEInternal.Weighted>
2.1775

> <Gold.Chemscore.Rot.Weighted>
13.9935

> <Gold.Chemscore.Internal.Correction.Weighted>
   9.000000E+99

> <Gold.Protein.RotatedTorsions>
[ 6907 6896 6895 6894 ] final   43.49 input  -60.11 | X-H torsion
[ 7974 7965 7964 7962 ] final  129.27 input  175.53 | X-H torsion
[ 8008 7997 7996 7995 ] final -127.23 input   59.86 | X-H torsion
[ 10167 10162 10161 10158 ] final  -66.76 input  -65.29 | X-H torsion
[ 10718 10713 10712 10709 ] final  -50.17 input   66.30 | X-H torsion
[ 10763 10752 10751 10750 ] final  -10.12 input  -60.55 | X-H torsion
[ 11005 11000 10999 10996 ] final  -58.52 input  -57.11 | X-H torsion

> <Gold.Protein.ActiveResidues>
 VAL166  LYS551  ARG553  GLY616  TRP617  ASP618  TYR619  PRO620  LYS621  CYS622 
 ASP623  PHE694  ASN695  SER759  ASP760  ASP761  ALA762  ILE779  LEU786  VAL792 
 PHE793  MET794  SER795  GLU796  ALA797  LYS798  CYS799  TRP800  GLU811  SER814 

> <Gold.Protein.RotatedAtoms>
  152.2210  134.8413  160.0485 H   0  0  0  0  0  0  0  0  0  0  0  0  # atno 6907 bound_to 6896
  151.9197  133.3577  159.3900 H   0  0  0  0  0  0  0  0  0  0  0  0  # atno 6908 bound_to 6896
  150.7000  134.4573  159.5408 H   0  0  0  0  0  0  0  0  0  0  0  0  # atno 6909 bound_to 6896
  145.0305  139.4050  143.5152 H   0  0  0  0  0  0  0  0  0  0  0  0  # atno 7974 bound_to 7965
  155.2428  140.0429  157.2977 H   0  0  0  0  0  0  0  0  0  0  0  0  # atno 8008 bound_to 7997
  154.5818  140.2402  155.8013 H   0  0  0  0  0  0  0  0  0  0  0  0  # atno 8009 bound_to 7997
  156.2198  140.2973  155.9933 H   0  0  0  0  0  0  0  0  0  0  0  0  # atno 8010 bound_to 7997
  140.5633  143.2313  151.6685 H   0  0  0  0  0  0  0  0  0  0  0  0  # atno 10167 bound_to 10162
  156.1826  130.4151  149.9486 H   0  0  0  0  0  0  0  0  0  0  0  0  # atno 10718 bound_to 10713
  153.4646  135.7016  153.6030 H   0  0  0  0  0  0  0  0  0  0  0  0  # atno 10763 bound_to 10752
  153.4310  135.3802  155.2170 H   0  0  0  0  0  0  0  0  0  0  0  0  # atno 10764 bound_to 10752
  154.8726  135.3951  154.4076 H   0  0  0  0  0  0  0  0  0  0  0  0  # atno 10765 bound_to 10752
  141.1210  133.6612  156.4932 H   0  0  0  0  0  0  0  0  0  0  0  0  # atno 11005 bound_to 11000
  146.3498  139.9852  142.8691 LP  0  0  0  0  0  0  0  0  0  0  0  0  # atno 17320 bound_to 7965
  145.1777  140.9752  143.4284 LP  0  0  0  0  0  0  0  0  0  0  0  0  # atno 17321 bound_to 7965
  139.5080  144.3625  152.0549 LP  0  0  0  0  0  0  0  0  0  0  0  0  # atno 17342 bound_to 10162
  140.2754  144.3919  150.6137 LP  0  0  0  0  0  0  0  0  0  0  0  0  # atno 17343 bound_to 10162
  156.7251  130.9022  151.3621 LP  0  0  0  0  0  0  0  0  0  0  0  0  # atno 17370 bound_to 10713
  157.6878  130.9203  150.0432 LP  0  0  0  0  0  0  0  0  0  0  0  0  # atno 17371 bound_to 10713
  140.4506  134.6932  157.5037 LP  0  0  0  0  0  0  0  0  0  0  0  0  # atno 17394 bound_to 11000
  140.0168  134.6606  155.9297 LP  0  0  0  0  0  0  0  0  0  0  0  0  # atno 17395 bound_to 11000

$$$$
