AV-unprocessed.smi:2077|AV-procd|sdf|8461|dock6
  -GOLD-   2272011163D 1   1.00000     0.00000
 Structure written by MMmdl.
 38 40  0  0  0  0  0  0  0  0  1 V2000
  152.1725  144.0332  161.1590 C   0  0  0  0  0  0  0  0  0  0  0  0
  152.4936  142.7207  160.5675 N   0  0  0  0  0  0  0  0  0  0  0  0
  151.8898  142.3749  159.3869 C   0  0  0  0  0  0  0  0  0  0  0  0
  151.0905  143.0828  158.7731 O   0  0  0  0  0  0  0  0  0  0  0  0
  152.2800  141.0522  158.8849 C   0  0  0  0  0  0  0  0  0  0  0  0
  153.1609  140.2480  159.5297 C   0  0  0  0  0  0  0  0  0  0  0  0
  153.3586  139.0586  158.8369 N   0  0  0  0  0  0  0  0  0  0  0  0
  152.5628  139.2155  157.7788 C   0  0  0  0  0  0  0  0  0  0  0  0
  151.8834  140.3788  157.7292 N   0  0  0  0  0  0  0  0  0  0  0  0
  150.9615  140.7863  156.6792 C   0  0  0  0  0  0  0  0  0  0  0  0
  150.7277  139.6819  155.6277 C   0  0  2  0  0  0  0  0  0  0  0  0
  151.8393  139.5822  154.7584 O   0  0  0  0  0  0  0  0  0  0  0  0
  149.4312  139.9097  154.8673 C   0  0  0  0  0  0  0  0  0  0  0  0
  148.8271  138.8473  154.1611 C   0  0  0  0  0  0  0  0  0  0  0  0
  147.6242  139.0562  153.4584 C   0  0  0  0  0  0  0  0  0  0  0  0
  147.0177  140.3269  153.4602 C   0  0  0  0  0  0  0  0  0  0  0  0
  147.6140  141.3895  154.1659 C   0  0  0  0  0  0  0  0  0  0  0  0
  147.0306  142.6114  154.1700 F   0  0  0  0  0  0  0  0  0  0  0  0
  148.8169  141.1815  154.8681 C   0  0  0  0  0  0  0  0  0  0  0  0
  153.7287  140.7063  160.7467 N   0  0  0  0  0  0  0  0  0  0  0  0
  154.6856  139.8511  161.4546 C   0  0  0  0  0  0  0  0  0  0  0  0
  153.3998  141.9362  161.2596 C   0  0  0  0  0  0  0  0  0  0  0  0
  153.9072  142.3268  162.3150 O   0  0  0  0  0  0  0  0  0  0  0  0
  151.4156  144.6060  160.6221 H   0  0  0  0  0  0  0  0  0  0  0  0
  153.0666  144.6573  161.2003 H   0  0  0  0  0  0  0  0  0  0  0  0
  151.7997  143.9141  162.1778 H   0  0  0  0  0  0  0  0  0  0  0  0
  152.4727  138.4599  157.0121 H   0  0  0  0  0  0  0  0  0  0  0  0
  150.0127  141.0487  157.1494 H   0  0  0  0  0  0  0  0  0  0  0  0
  151.3236  141.7025  156.2148 H   0  0  0  0  0  0  0  0  0  0  0  0
  150.6572  138.7239  156.1449 H   0  0  0  0  0  0  0  0  0  0  0  0
  151.7494  138.7933  154.2458 H   0  0  0  0  0  0  0  0  0  0  0  0
  149.2830  137.8680  154.1548 H   0  0  0  0  0  0  0  0  0  0  0  0
  147.1664  138.2406  152.9182 H   0  0  0  0  0  0  0  0  0  0  0  0
  146.0952  140.4865  152.9214 H   0  0  0  0  0  0  0  0  0  0  0  0
  149.2668  142.0011  155.4095 H   0  0  0  0  0  0  0  0  0  0  0  0
  154.3367  139.6391  162.4664 H   0  0  0  0  0  0  0  0  0  0  0  0
  155.6566  140.3431  161.5256 H   0  0  0  0  0  0  0  0  0  0  0  0
  154.8426  138.8929  160.9602 H   0  0  0  0  0  0  0  0  0  0  0  0
  1  2  1  0  0  0  0
  1 24  1  0  0  0  0
  1 25  1  0  0  0  0
  1 26  1  0  0  0  0
  2 22  1  0  0  0  0
  2  3  1  0  0  0  0
  3  4  2  0  0  0  0
  3  5  1  0  0  0  0
  5  9  1  0  0  0  0
  5  6  2  0  0  0  0
  6  7  1  0  0  0  0
  6 20  1  0  0  0  0
  7  8  2  0  0  0  0
  8  9  1  0  0  0  0
  8 27  1  0  0  0  0
  9 10  1  0  0  0  0
 10 11  1  0  0  0  0
 10 28  1  0  0  0  0
 10 29  1  0  0  0  0
 11 12  1  0  0  0  0
 11 13  1  0  0  0  0
 11 30  1  0  0  0  0
 12 31  1  0  0  0  0
 13 19  1  0  0  0  0
 13 14  2  0  0  0  0
 14 15  1  0  0  0  0
 14 32  1  0  0  0  0
 15 16  2  0  0  0  0
 15 33  1  0  0  0  0
 16 17  1  0  0  0  0
 16 34  1  0  0  0  0
 17 18  1  0  0  0  0
 17 19  2  0  0  0  0
 19 35  1  0  0  0  0
 20 21  1  0  0  0  0
 20 22  1  0  0  0  0
 21 36  1  0  0  0  0
 21 37  1  0  0  0  0
 21 38  1  0  0  0  0
 22 23  2  0  0  0  0
M  END
> <s_m_source_file>
AV-unprocessed.smi

> <i_m_source_file_index>
2077

> <i_lp_mmshare_version>
43012

> <i_f3d_flags>
0

> <s_epik_input>
Tz1jMW4oW0NIM10pYyg9TyluKFtDSDNdKWMoYzEyKW5bY0hdbjJbQ0gyXVtDQEhdKFtPSF0pYzNbY0hdW2NIXVtjSF1jKEYpW2NIXTM=

> <s_epik_cmdline>
J2VwaWtfcHl0aG9uJywgJy1waCcsICc3LjAnLCAnLXRuJywgJzgnLCAnLW1hJywgJzIwMCcsICctbWV0YWxfYmluZGluZycsICctaW1hZScsICc8aW5maWxlLm1hZT4nLCAnLW9tYWUnLCAnPG91dGZpbGUubWFlPic=

> <r_lp_tautomer_probability>
1

> <r_epik_Ionization_Penalty>
1.5338e-06

> <r_epik_Ionization_Penalty_Charging>
3.74189e-09

> <r_epik_Ionization_Penalty_Neutral>
1.53006e-06

> <r_epik_State_Penalty>
-0

> <r_epik_Charging_Adjusted_Penalty>
3.74189e-09

> <i_epik_Tot_Q>
0

> <i_epik_Tot_abs_Q>
0

> <r_epik_Metal_State_Penalty>
-0

> <b_epik_Metal_Only>
0

> <s_lp_Force_Field>
OPLS_2005

> <r_lp_Energy>
35.2177

> <b_lp_Chiralities_Consistent>
1

> <s_lp_Variant>
AV-unprocessed.smi:2077-1

> <Gold.Version>
5.8.1

> <Gold.Id.Protein>
6NUR|6NUR_protein|mol2

> <Gold.PLP.Fitness>
50.8623

> <Gold.PLP.PLP>
-49.1216

> <Gold.PLP.part.hbond>
-2.0000

> <Gold.PLP.part.metal>
0.0000

> <Gold.PLP.part.buried>
-1.0728

> <Gold.PLP.part.nonpolar>
-44.6623

> <Gold.PLP.part.repulsive>
0.0948

> <Gold.PLP.ligand.clash>
0.0000

> <Gold.PLP.ligand.torsion>
0.6149

> <Gold.PLP.Chemscore.Hbond>
0.9803

> <Gold.PLP.Chemscore.CHOScore>
0.0000

> <Gold.PLP.Chemscore.Metal>
0.0000

> <Gold.Chemscore.Hbonds>
donor molecule, donor type, donor heavy atom, donor atom, acceptor molecule, acceptor atom, score
      P1  H  7989  7998       L1    12  1.00

> <Gold.PLP.Chemscore.Internal.Correction>
0.0296

> <Gold.Rescore>
     Score         DG    S(hbond)    S(metal)    S(lipo)     H(rot)  DE(clash)    DE(int)     intcor
      9.77     -10.81       0.67        0.00      75.53       2.24       0.10       0.95       ----

> <Gold.Chemscore.Fitness>
9.7653

> <Gold.Chemscore.DG>
-10.8144

> <Gold.Chemscore.ZeroCoef>
-5.4800

> <Gold.Chemscore.Hbond>
0.6665

> <Gold.Chemscore.Metal>
0.0000

> <Gold.Chemscore.Lipo>
75.5277

> <Gold.Chemscore.Internal_Hbond>
0.0000

> <Gold.Chemscore.DEClash>
0.1027

> <Gold.Chemscore.DEInternal>
0.9464

> <Gold.Chemscore.Rot>
2.2377

> <Gold.Chemscore.Internal.Correction>
   9.000000E+99

> <Gold.Chemscore.Hbonds>
donor molecule, donor type, donor heavy atom, donor atom, acceptor molecule, acceptor atom, score
      P1  H  7989  7998       L1    12  0.22

> <Gold.Chemscore.Hbond.Weighted>
-2.2263

> <Gold.Chemscore.Metal.Weighted>
-0.0000

> <Gold.Chemscore.Lipo.Weighted>
-8.8367

> <Gold.Chemscore.Internal_Hbond.Weighted>
0.0000

> <Gold.Chemscore.DEClash.Weighted>
0.1027

> <Gold.Chemscore.DEInternal.Weighted>
0.9464

> <Gold.Chemscore.Rot.Weighted>
5.7286

> <Gold.Chemscore.Internal.Correction.Weighted>
   9.000000E+99

> <Gold.Protein.RotatedTorsions>
[ 6907 6896 6895 6894 ] final  137.44 input  -60.11 | X-H torsion
[ 7974 7965 7964 7962 ] final -118.09 input  175.53 | X-H torsion
[ 8008 7997 7996 7995 ] final  126.46 input   59.86 | X-H torsion
[ 10167 10162 10161 10158 ] final  -42.83 input  -65.29 | X-H torsion
[ 10718 10713 10712 10709 ] final  108.96 input   66.30 | X-H torsion
[ 10763 10752 10751 10750 ] final -117.14 input  -60.55 | X-H torsion
[ 11005 11000 10999 10996 ] final  -34.20 input  -57.11 | X-H torsion

> <Gold.Protein.ActiveResidues>
 VAL166  LYS551  ARG553  GLY616  TRP617  ASP618  TYR619  PRO620  LYS621  CYS622 
 ASP623  PHE694  ASN695  SER759  ASP760  ASP761  ALA762  ILE779  LEU786  VAL792 
 PHE793  MET794  SER795  GLU796  ALA797  LYS798  CYS799  TRP800  GLU811  SER814 

> <Gold.Protein.RotatedAtoms>
  152.2780  133.5444  159.5479 H   0  0  0  0  0  0  0  0  0  0  0  0  # atno 6907 bound_to 6896
  150.7185  134.0604  159.3838 H   0  0  0  0  0  0  0  0  0  0  0  0  # atno 6908 bound_to 6896
  151.8516  135.0556  160.0510 H   0  0  0  0  0  0  0  0  0  0  0  0  # atno 6909 bound_to 6896
  145.0778  140.8404  143.4057 H   0  0  0  0  0  0  0  0  0  0  0  0  # atno 7974 bound_to 7965
  156.2864  140.2692  156.2115 H   0  0  0  0  0  0  0  0  0  0  0  0  # atno 8008 bound_to 7997
  155.0260  140.0386  157.2474 H   0  0  0  0  0  0  0  0  0  0  0  0  # atno 8009 bound_to 7997
  154.7395  140.2722  155.6390 H   0  0  0  0  0  0  0  0  0  0  0  0  # atno 8010 bound_to 7997
  140.6955  143.3016  151.3265 H   0  0  0  0  0  0  0  0  0  0  0  0  # atno 10167 bound_to 10162
  157.6563  131.0904  150.6383 H   0  0  0  0  0  0  0  0  0  0  0  0  # atno 10718 bound_to 10713
  154.8544  135.4320  154.1932 H   0  0  0  0  0  0  0  0  0  0  0  0  # atno 10763 bound_to 10752
  153.2996  135.6968  153.7221 H   0  0  0  0  0  0  0  0  0  0  0  0  # atno 10764 bound_to 10752
  153.6357  135.3477  155.3030 H   0  0  0  0  0  0  0  0  0  0  0  0  # atno 10765 bound_to 10752
  140.9697  133.7116  156.1503 H   0  0  0  0  0  0  0  0  0  0  0  0  # atno 11005 bound_to 11000
  145.1215  139.2691  143.5586 LP  0  0  0  0  0  0  0  0  0  0  0  0  # atno 17320 bound_to 7965
  146.3530  140.0840  142.8616 LP  0  0  0  0  0  0  0  0  0  0  0  0  # atno 17321 bound_to 7965
  139.6406  144.0547  152.2551 LP  0  0  0  0  0  0  0  0  0  0  0  0  # atno 17342 bound_to 10162
  140.0051  144.6265  150.7696 LP  0  0  0  0  0  0  0  0  0  0  0  0  # atno 17343 bound_to 10162
  156.6690  130.4534  149.5663 LP  0  0  0  0  0  0  0  0  0  0  0  0  # atno 17370 bound_to 10713
  156.2012  130.6621  151.1169 LP  0  0  0  0  0  0  0  0  0  0  0  0  # atno 17371 bound_to 10713
  140.7347  134.4216  157.5562 LP  0  0  0  0  0  0  0  0  0  0  0  0  # atno 17394 bound_to 11000
  139.8907  134.8797  156.2354 LP  0  0  0  0  0  0  0  0  0  0  0  0  # atno 17395 bound_to 11000

$$$$
