AV-unprocessed.smi:1777|AV-procd|sdf|7177|dock1
  -GOLD-   22720 8413D 1   1.00000     0.00000
 Structure written by MMmdl.
 37 38  0  0  0  0  0  0  0  0  1 V2000
  144.3199  136.3553  152.3009 O   0  0  0  0  0  0  0  0  0  0  0  0
  145.5421  136.2604  152.1893 C   0  0  0  0  0  0  0  0  0  0  0  0
  146.4032  137.1553  152.6948 N   0  0  0  0  0  0  0  0  0  0  0  0
  146.0437  138.3599  153.4418 C   0  0  0  0  0  0  0  0  0  0  0  0
  147.1367  139.4574  153.3956 C   0  0  0  0  0  0  0  0  0  0  0  0
  147.3601  139.7508  152.0280 O   0  0  0  0  0  0  0  0  0  0  0  0
  146.7346  140.7576  154.1384 C   0  0  0  0  0  0  0  0  0  0  0  0
  147.8739  141.7901  154.2090 C   0  0  0  0  0  0  0  0  0  0  0  0
  149.1452  141.1844  154.8184 C   0  0  0  0  0  0  0  0  0  0  0  0
  149.5863  139.9401  154.0362 C   0  0  0  0  0  0  0  0  0  0  0  0
  148.4587  138.8943  153.9710 C   0  0  0  0  0  0  0  0  0  0  0  0
  146.1906  135.2824  151.5336 N   0  0  0  0  0  0  0  0  0  0  0  0
  145.6501  134.1552  150.8569 C   0  0  0  0  0  0  0  0  0  0  0  0
  146.5045  133.0576  150.6239 C   0  0  0  0  0  0  0  0  0  0  0  0
  145.9885  131.9219  149.9685 C   0  0  0  0  0  0  0  0  0  0  0  0
  144.7075  131.8217  149.5560 N   0  0  0  0  0  0  0  0  0  0  0  0
  143.8870  132.8669  149.7929 C   0  0  0  0  0  0  0  0  0  0  0  0
  144.3014  134.0489  150.4390 C   0  0  0  0  0  0  0  0  0  0  0  0
  147.3892  137.0022  152.5420 H   0  0  0  0  0  0  0  0  0  0  0  0
  145.1022  138.7619  153.0635 H   0  0  0  0  0  0  0  0  0  0  0  0
  145.8427  138.0719  154.4745 H   0  0  0  0  0  0  0  0  0  0  0  0
  148.2758  139.9542  151.9131 H   0  0  0  0  0  0  0  0  0  0  0  0
  145.8691  141.2214  153.6642 H   0  0  0  0  0  0  0  0  0  0  0  0
  146.4260  140.5066  155.1541 H   0  0  0  0  0  0  0  0  0  0  0  0
  148.0915  142.1686  153.2096 H   0  0  0  0  0  0  0  0  0  0  0  0
  147.5551  142.6501  154.7987 H   0  0  0  0  0  0  0  0  0  0  0  0
  149.9457  141.9249  154.8238 H   0  0  0  0  0  0  0  0  0  0  0  0
  148.9620  140.9179  155.8602 H   0  0  0  0  0  0  0  0  0  0  0  0
  149.8869  140.2270  153.0278 H   0  0  0  0  0  0  0  0  0  0  0  0
  150.4683  139.5030  154.5049 H   0  0  0  0  0  0  0  0  0  0  0  0
  148.2793  138.5201  154.9798 H   0  0  0  0  0  0  0  0  0  0  0  0
  148.7896  138.0344  153.3869 H   0  0  0  0  0  0  0  0  0  0  0  0
  147.1917  135.3888  151.4608 H   0  0  0  0  0  0  0  0  0  0  0  0
  147.5391  133.0828  150.9343 H   0  0  0  0  0  0  0  0  0  0  0  0
  146.6226  131.0702  149.7719 H   0  0  0  0  0  0  0  0  0  0  0  0
  142.8648  132.7560  149.4623 H   0  0  0  0  0  0  0  0  0  0  0  0
  143.5810  134.8338  150.6087 H   0  0  0  0  0  0  0  0  0  0  0  0
  1  2  2  0  0  0  0
  2  3  1  0  0  0  0
  2 12  1  0  0  0  0
  3  4  1  0  0  0  0
  3 19  1  0  0  0  0
  4  5  1  0  0  0  0
  4 20  1  0  0  0  0
  4 21  1  0  0  0  0
  5 11  1  0  0  0  0
  5  6  1  0  0  0  0
  5  7  1  0  0  0  0
  6 22  1  0  0  0  0
  7  8  1  0  0  0  0
  7 23  1  0  0  0  0
  7 24  1  0  0  0  0
  8  9  1  0  0  0  0
  8 25  1  0  0  0  0
  8 26  1  0  0  0  0
  9 10  1  0  0  0  0
  9 27  1  0  0  0  0
  9 28  1  0  0  0  0
 10 11  1  0  0  0  0
 10 29  1  0  0  0  0
 10 30  1  0  0  0  0
 11 31  1  0  0  0  0
 11 32  1  0  0  0  0
 12 13  1  0  0  0  0
 12 33  1  0  0  0  0
 13 18  1  0  0  0  0
 13 14  2  0  0  0  0
 14 15  1  0  0  0  0
 14 34  1  0  0  0  0
 15 16  2  0  0  0  0
 15 35  1  0  0  0  0
 16 17  1  0  0  0  0
 17 18  2  0  0  0  0
 17 36  1  0  0  0  0
 18 37  1  0  0  0  0
M  END
> <s_m_source_file>
AV-unprocessed.smi

> <i_m_source_file_index>
1777

> <i_lp_mmshare_version>
43012

> <i_f3d_flags>
0

> <s_epik_input>
W2NIXTFbY0hdbltjSF1bY0hdYzFbTkhdQyg9TylbTkhdW0NIMl1DMihbT0hdKVtDSDJdW0NIMl1bQ0gyXVtDSDJdW0NIMl0y

> <s_epik_cmdline>
J2VwaWtfcHl0aG9uJywgJy1waCcsICc3LjAnLCAnLXRuJywgJzgnLCAnLW1hJywgJzIwMCcsICctbWV0YWxfYmluZGluZycsICctaW1hZScsICc8aW5maWxlLm1hZT4nLCAnLW9tYWUnLCAnPG91dGZpbGUubWFlPic=

> <r_epik_Ionization_Penalty>
0.127626

> <r_epik_Ionization_Penalty_Charging>
0

> <r_epik_Ionization_Penalty_Neutral>
0.127626

> <r_epik_State_Penalty>
0.11702

> <r_epik_Charging_Adjusted_Penalty>
0.11702

> <i_epik_Tot_Q>
0

> <i_epik_Tot_abs_Q>
0

> <r_epik_Metal_State_Penalty>
0.0961027

> <b_epik_Metal_Only>
0

> <s_lp_Force_Field>
OPLS_2005

> <r_lp_Energy>
19.312

> <b_lp_Chiralities_Consistent>
1

> <s_lp_Variant>
AV-unprocessed.smi:1777-1

> <Gold.Version>
5.8.1

> <Gold.Id.Protein>
6NUR|6NUR_protein|mol2

> <Gold.PLP.Fitness>
47.7561

> <Gold.PLP.PLP>
-33.3236

> <Gold.PLP.part.hbond>
-3.4799

> <Gold.PLP.part.metal>
0.0000

> <Gold.PLP.part.buried>
-4.1576

> <Gold.PLP.part.nonpolar>
-28.4146

> <Gold.PLP.part.repulsive>
0.4228

> <Gold.PLP.ligand.clash>
0.0000

> <Gold.PLP.ligand.torsion>
0.2524

> <Gold.PLP.Chemscore.Hbond>
3.0271

> <Gold.PLP.Chemscore.CHOScore>
1.9488

> <Gold.PLP.Chemscore.Metal>
0.0000

> <Gold.Chemscore.Hbonds>
donor molecule, donor type, donor heavy atom, donor atom, acceptor molecule, acceptor atom, score
      L1  H     3    19       P1  7948  1.00
      L1  H     6    22       P1  7957  0.94
      L1  H    12    33       P1  7948  1.00
      P1  H 10785 10796       L1    16  0.05
      L1  C    15    35       P1 10747  0.96
      L1  C    17    36       P1 10186  0.98

> <Gold.PLP.Chemscore.Internal.Correction>
0.0096

> <Gold.Rescore>
     Score         DG    S(hbond)    S(metal)    S(lipo)     H(rot)  DE(clash)    DE(int)     intcor
     18.83     -20.24       2.80        0.00      84.25       1.74       0.05       1.36       ----

> <Gold.Chemscore.Fitness>
18.8336

> <Gold.Chemscore.DG>
-20.2426

> <Gold.Chemscore.ZeroCoef>
-5.4800

> <Gold.Chemscore.Hbond>
2.8002

> <Gold.Chemscore.Metal>
0.0000

> <Gold.Chemscore.Lipo>
84.2549

> <Gold.Chemscore.Internal_Hbond>
0.0000

> <Gold.Chemscore.DEClash>
0.0516

> <Gold.Chemscore.DEInternal>
1.3574

> <Gold.Chemscore.Rot>
1.7374

> <Gold.Chemscore.Internal.Correction>
   9.000000E+99

> <Gold.Chemscore.Hbonds>
donor molecule, donor type, donor heavy atom, donor atom, acceptor molecule, acceptor atom, score
      L1  H     3    19       P1  7948  0.99
      L1  H     6    22       P1  7957  0.88
      L1  H    12    33       P1  7948  0.93
      P1  H 10785 10796       L1    16  0.03

> <Gold.Chemscore.Hbond.Weighted>
-9.3526

> <Gold.Chemscore.Metal.Weighted>
-0.0000

> <Gold.Chemscore.Lipo.Weighted>
-9.8578

> <Gold.Chemscore.Internal_Hbond.Weighted>
0.0000

> <Gold.Chemscore.DEClash.Weighted>
0.0516

> <Gold.Chemscore.DEInternal.Weighted>
1.3574

> <Gold.Chemscore.Rot.Weighted>
4.4478

> <Gold.Chemscore.Internal.Correction.Weighted>
   9.000000E+99

> <Gold.Protein.RotatedTorsions>
[ 6907 6896 6895 6894 ] final  142.84 input  -60.11 | X-H torsion
[ 7974 7965 7964 7962 ] final   96.20 input  175.53 | X-H torsion
[ 8008 7997 7996 7995 ] final  -18.51 input   59.86 | X-H torsion
[ 10167 10162 10161 10158 ] final   18.47 input  -65.29 | X-H torsion
[ 10718 10713 10712 10709 ] final   -5.59 input   66.30 | X-H torsion
[ 10763 10752 10751 10750 ] final -123.48 input  -60.55 | X-H torsion
[ 11005 11000 10999 10996 ] final -120.41 input  -57.11 | X-H torsion

> <Gold.Protein.ActiveResidues>
 VAL166  LYS551  ARG553  GLY616  TRP617  ASP618  TYR619  PRO620  LYS621  CYS622 
 ASP623  PHE694  ASN695  SER759  ASP760  ASP761  ALA762  ILE779  LEU786  VAL792 
 PHE793  MET794  SER795  GLU796  ALA797  LYS798  CYS799  TRP800  GLU811  SER814 

> <Gold.Protein.RotatedAtoms>
  152.2137  133.4930  159.5123 H   0  0  0  0  0  0  0  0  0  0  0  0  # atno 6907 bound_to 6896
  150.6996  134.1433  159.4122 H   0  0  0  0  0  0  0  0  0  0  0  0  # atno 6908 bound_to 6896
  151.9353  135.0238  160.0583 H   0  0  0  0  0  0  0  0  0  0  0  0  # atno 6909 bound_to 6896
  145.4421  139.2300  143.3086 H   0  0  0  0  0  0  0  0  0  0  0  0  # atno 7974 bound_to 7965
  154.4901  140.2114  155.9568 H   0  0  0  0  0  0  0  0  0  0  0  0  # atno 8008 bound_to 7997
  156.1293  140.3200  155.8293 H   0  0  0  0  0  0  0  0  0  0  0  0  # atno 8009 bound_to 7997
  155.4326  140.0504  157.3008 H   0  0  0  0  0  0  0  0  0  0  0  0  # atno 8010 bound_to 7997
  140.5650  143.9266  150.6670 H   0  0  0  0  0  0  0  0  0  0  0  0  # atno 10167 bound_to 10162
  156.7444  130.5220  149.5817 H   0  0  0  0  0  0  0  0  0  0  0  0  # atno 10718 bound_to 10713
  154.8708  135.4097  154.2950 H   0  0  0  0  0  0  0  0  0  0  0  0  # atno 10763 bound_to 10752
  153.3819  135.7012  153.6564 H   0  0  0  0  0  0  0  0  0  0  0  0  # atno 10764 bound_to 10752
  153.5383  135.3653  155.2678 H   0  0  0  0  0  0  0  0  0  0  0  0  # atno 10765 bound_to 10752
  141.0145  134.0215  157.3368 H   0  0  0  0  0  0  0  0  0  0  0  0  # atno 11005 bound_to 11000
  146.2551  140.5170  142.8877 LP  0  0  0  0  0  0  0  0  0  0  0  0  # atno 17320 bound_to 7965
  144.8115  140.6394  143.6412 LP  0  0  0  0  0  0  0  0  0  0  0  0  # atno 17321 bound_to 7965
  140.2727  143.3444  152.1223 LP  0  0  0  0  0  0  0  0  0  0  0  0  # atno 17342 bound_to 10162
  139.5089  144.6857  151.5893 LP  0  0  0  0  0  0  0  0  0  0  0  0  # atno 17343 bound_to 10162
  156.1443  130.6266  151.0510 LP  0  0  0  0  0  0  0  0  0  0  0  0  # atno 17370 bound_to 10713
  157.6804  131.0839  150.7384 LP  0  0  0  0  0  0  0  0  0  0  0  0  # atno 17371 bound_to 10713
  139.9109  135.0190  156.7687 LP  0  0  0  0  0  0  0  0  0  0  0  0  # atno 17394 bound_to 11000
  140.6677  133.9588  155.7839 LP  0  0  0  0  0  0  0  0  0  0  0  0  # atno 17395 bound_to 11000

$$$$
