AV-unprocessed.smi:1570|AV-procd|sdf|6319|dock5
  -GOLD-   22720 6523D 1   1.00000     0.00000
 Structure written by MMmdl.
 52 54  0  0  0  0  0  0  0  0  2 V2000
  153.7450  130.5911  155.5890 C   0  0  0  0  0  0  0  0  0  0  0  0
  152.7660  130.8683  156.7370 C   0  0  0  0  0  0  0  0  0  0  0  0
  151.4578  131.2723  156.2282 N   0  0  0  0  0  0  0  0  0  0  0  0
  150.8154  132.4351  156.4872 C   0  0  0  0  0  0  0  0  0  0  0  0
  151.2236  133.3435  157.2111 O   0  0  0  0  0  0  0  0  0  0  0  0
  149.6513  132.4369  155.7952 N   0  0  0  0  0  0  0  0  0  0  0  0
  148.6517  133.5044  155.7835 C   0  0  0  0  0  0  0  0  0  0  0  0
  149.0454  134.6486  154.8267 C   0  0  1  0  0  0  0  0  0  0  0  0
  148.2567  134.5381  153.6579 O   0  0  0  0  0  0  0  0  0  0  0  0
  148.7702  136.0336  155.4470 C   0  0  0  0  0  0  0  0  0  0  0  0
  149.4503  137.1289  154.7093 N   0  3  1  0  0  0  0  0  0  0  0  0
  148.7374  138.4228  154.8251 C   0  0  0  0  0  0  0  0  0  0  0  0
  149.4453  139.5063  153.9894 C   0  0  1  0  0  0  0  0  0  0  0  0
  148.7847  140.8803  154.1456 C   0  0  0  0  0  0  0  0  0  0  0  0
  150.7984  139.6137  154.4182 O   0  0  0  0  0  0  0  0  0  0  0  0
  151.5291  138.4059  154.2355 C   0  0  1  0  0  0  0  0  0  0  0  0
  152.9849  138.6616  154.6415 C   0  0  0  0  0  0  0  0  0  0  0  0
  150.8783  137.2934  155.0782 C   0  0  0  0  0  0  0  0  0  0  0  0
  149.5533  131.2465  155.0595 C   0  0  0  0  0  0  0  0  0  0  0  0
  148.5614  130.7787  154.1795 C   0  0  0  0  0  0  0  0  0  0  0  0
  148.7724  129.5148  153.5800 C   0  0  0  0  0  0  0  0  0  0  0  0
  149.9415  128.7618  153.8624 C   0  0  0  0  0  0  0  0  0  0  0  0
  150.9255  129.2569  154.7496 C   0  0  0  0  0  0  0  0  0  0  0  0
  150.6904  130.5144  155.3326 C   0  0  0  0  0  0  0  0  0  0  0  0
  154.7191  130.2893  155.9743 H   0  0  0  0  0  0  0  0  0  0  0  0
  153.8920  131.4782  154.9724 H   0  0  0  0  0  0  0  0  0  0  0  0
  153.3811  129.7907  154.9439 H   0  0  0  0  0  0  0  0  0  0  0  0
  152.6578  129.9800  157.3598 H   0  0  0  0  0  0  0  0  0  0  0  0
  153.1686  131.6460  157.3878 H   0  0  0  0  0  0  0  0  0  0  0  0
  147.6592  133.1173  155.5512 H   0  0  0  0  0  0  0  0  0  0  0  0
  148.5817  133.8878  156.8029 H   0  0  0  0  0  0  0  0  0  0  0  0
  150.0968  134.5612  154.5560 H   0  0  0  0  0  0  0  0  0  0  0  0
  148.6612  135.0447  152.9701 H   0  0  0  0  0  0  0  0  0  0  0  0
  147.6924  136.2040  155.4610 H   0  0  0  0  0  0  0  0  0  0  0  0
  149.0919  136.0591  156.4893 H   0  0  0  0  0  0  0  0  0  0  0  0
  147.7090  138.3081  154.4803 H   0  0  0  0  0  0  0  0  0  0  0  0
  148.6936  138.7211  155.8741 H   0  0  0  0  0  0  0  0  0  0  0  0
  149.4245  139.2290  152.9338 H   0  0  0  0  0  0  0  0  0  0  0  0
  147.7462  140.8569  153.8145 H   0  0  0  0  0  0  0  0  0  0  0  0
  149.3053  141.6327  153.5526 H   0  0  0  0  0  0  0  0  0  0  0  0
  148.7978  141.2090  155.1852 H   0  0  0  0  0  0  0  0  0  0  0  0
  151.5073  138.1286  153.1800 H   0  0  0  0  0  0  0  0  0  0  0  0
  153.5927  137.7658  154.5114 H   0  0  0  0  0  0  0  0  0  0  0  0
  153.0564  138.9662  155.6861 H   0  0  0  0  0  0  0  0  0  0  0  0
  153.4260  139.4522  154.0338 H   0  0  0  0  0  0  0  0  0  0  0  0
  150.9540  137.5354  156.1398 H   0  0  0  0  0  0  0  0  0  0  0  0
  151.4215  136.3613  154.9263 H   0  0  0  0  0  0  0  0  0  0  0  0
  147.6750  131.3556  153.9627 H   0  0  0  0  0  0  0  0  0  0  0  0
  148.0351  129.1190  152.8971 H   0  0  0  0  0  0  0  0  0  0  0  0
  150.0829  127.7997  153.3925 H   0  0  0  0  0  0  0  0  0  0  0  0
  151.8191  128.6900  154.9650 H   0  0  0  0  0  0  0  0  0  0  0  0
  149.4208  136.8754  153.7315 H   0  0  0  0  0  0  0  0  0  0  0  0
  1  2  1  0  0  0  0
  1 25  1  0  0  0  0
  1 26  1  0  0  0  0
  1 27  1  0  0  0  0
  2  3  1  0  0  0  0
  2 28  1  0  0  0  0
  2 29  1  0  0  0  0
  3 24  1  0  0  0  0
  3  4  1  0  0  0  0
  4  5  2  0  0  0  0
  4  6  1  0  0  0  0
  6  7  1  0  0  0  0
  6 19  1  0  0  0  0
  7  8  1  0  0  0  0
  7 30  1  0  0  0  0
  7 31  1  0  0  0  0
  8  9  1  0  0  0  0
  8 10  1  0  0  0  0
  8 32  1  0  0  0  0
  9 33  1  0  0  0  0
 10 11  1  0  0  0  0
 10 34  1  0  0  0  0
 10 35  1  0  0  0  0
 11 18  1  0  0  0  0
 11 12  1  0  0  0  0
 11 52  1  0  0  0  0
 12 13  1  0  0  0  0
 12 36  1  0  0  0  0
 12 37  1  0  0  0  0
 13 14  1  0  0  0  0
 13 15  1  0  0  0  0
 13 38  1  0  0  0  0
 14 39  1  0  0  0  0
 14 40  1  0  0  0  0
 14 41  1  0  0  0  0
 15 16  1  0  0  0  0
 16 17  1  0  0  0  0
 16 18  1  0  0  0  0
 16 42  1  0  0  0  0
 17 43  1  0  0  0  0
 17 44  1  0  0  0  0
 17 45  1  0  0  0  0
 18 46  1  0  0  0  0
 18 47  1  0  0  0  0
 19 24  2  0  0  0  0
 19 20  1  0  0  0  0
 20 21  2  0  0  0  0
 20 48  1  0  0  0  0
 21 22  1  0  0  0  0
 21 49  1  0  0  0  0
 22 23  2  0  0  0  0
 22 50  1  0  0  0  0
 23 24  1  0  0  0  0
 23 51  1  0  0  0  0
M  CHG  1  11   1
M  END
> <s_m_source_file>
AV-unprocessed.smi

> <i_m_source_file_index>
1570

> <i_lp_mmshare_version>
43012

> <i_f3d_flags>
0

> <s_epik_input>
W2NIXTFbY0hdW2NIXVtjSF1jKGMxMiluKFtDSDJdW0NIM10pYyg9TyluMltDSDJdW0NASF0oW09IXSlbQ0gyXU4zW0NIMl1bQ0BASF0oW0NIM10pT1tDQEBIXShbQ0gzXSlbQ0gyXTM=

> <s_epik_cmdline>
J2VwaWtfcHl0aG9uJywgJy1waCcsICc3LjAnLCAnLXRuJywgJzgnLCAnLW1hJywgJzIwMCcsICctbWV0YWxfYmluZGluZycsICctaW1hZScsICc8aW5maWxlLm1hZT4nLCAnLW9tYWUnLCAnPG91dGZpbGUubWFlPic=

> <r_epik_Ionization_Penalty>
0.706332

> <r_epik_Ionization_Penalty_Charging>
0.706318

> <r_epik_Ionization_Penalty_Neutral>
1.42224e-05

> <r_epik_State_Penalty>
0.729493

> <r_epik_Charging_Adjusted_Penalty>
1.43581

> <i_epik_Tot_Q>
1

> <i_epik_Tot_abs_Q>
1

> <r_epik_Metal_State_Penalty>
0.729493

> <b_epik_Metal_Only>
0

> <s_lp_Force_Field>
OPLS_2005

> <r_lp_Energy>
52.3817

> <b_lp_Chiralities_Consistent>
1

> <s_lp_Variant>
AV-unprocessed.smi:1570-8

> <Gold.Version>
5.8.1

> <Gold.Id.Protein>
6NUR|6NUR_protein|mol2

> <Gold.PLP.Fitness>
51.8098

> <Gold.PLP.PLP>
-40.0047

> <Gold.PLP.part.hbond>
-3.9173

> <Gold.PLP.part.metal>
0.0000

> <Gold.PLP.part.buried>
-1.7877

> <Gold.PLP.part.nonpolar>
-34.8632

> <Gold.PLP.part.repulsive>
0.1257

> <Gold.PLP.ligand.clash>
0.0000

> <Gold.PLP.ligand.torsion>
1.3137

> <Gold.PLP.Chemscore.Hbond>
4.7840

> <Gold.PLP.Chemscore.CHOScore>
0.0000

> <Gold.PLP.Chemscore.Metal>
0.0000

> <Gold.Chemscore.Hbonds>
donor molecule, donor type, donor heavy atom, donor atom, acceptor molecule, acceptor atom, score
      L1  H     9    33       P1  7948  1.00
      L1  H    11    52       P1  7948  2.00
      P1  H  6896  6909       L1     5  0.74
      P1  H  7989  7998       L1    15  1.00

> <Gold.PLP.Chemscore.Internal.Correction>
0.0804

> <Gold.Rescore>
     Score         DG    S(hbond)    S(metal)    S(lipo)     H(rot)  DE(clash)    DE(int)     intcor
     19.90     -21.33       3.18        0.00      91.44       2.13       0.14       1.29       ----

> <Gold.Chemscore.Fitness>
19.9029

> <Gold.Chemscore.DG>
-21.3306

> <Gold.Chemscore.ZeroCoef>
-5.4800

> <Gold.Chemscore.Hbond>
3.1754

> <Gold.Chemscore.Metal>
0.0000

> <Gold.Chemscore.Lipo>
91.4399

> <Gold.Chemscore.Internal_Hbond>
0.0000

> <Gold.Chemscore.DEClash>
0.1389

> <Gold.Chemscore.DEInternal>
1.2889

> <Gold.Chemscore.Rot>
2.1303

> <Gold.Chemscore.Internal.Correction>
   9.000000E+99

> <Gold.Chemscore.Hbonds>
donor molecule, donor type, donor heavy atom, donor atom, acceptor molecule, acceptor atom, score
      L1  H     9    33       P1  7948  0.49
      L1  H    11    52       P1  7948  0.88
      P1  H  6896  6909       L1     5  0.70
      P1  H  7989  7998       L1    15  0.45

> <Gold.Chemscore.Hbond.Weighted>
-10.6057

> <Gold.Chemscore.Metal.Weighted>
-0.0000

> <Gold.Chemscore.Lipo.Weighted>
-10.6985

> <Gold.Chemscore.Internal_Hbond.Weighted>
0.0000

> <Gold.Chemscore.DEClash.Weighted>
0.1389

> <Gold.Chemscore.DEInternal.Weighted>
1.2889

> <Gold.Chemscore.Rot.Weighted>
5.4535

> <Gold.Chemscore.Internal.Correction.Weighted>
   9.000000E+99

> <Gold.Protein.RotatedTorsions>
[ 6907 6896 6895 6894 ] final  -29.97 input  -60.11 | X-H torsion
[ 7974 7965 7964 7962 ] final -177.82 input  175.53 | X-H torsion
[ 8008 7997 7996 7995 ] final  -29.40 input   59.86 | X-H torsion
[ 10167 10162 10161 10158 ] final -162.14 input  -65.29 | X-H torsion
[ 10718 10713 10712 10709 ] final -158.10 input   66.30 | X-H torsion
[ 10763 10752 10751 10750 ] final -153.85 input  -60.55 | X-H torsion
[ 11005 11000 10999 10996 ] final   67.32 input  -57.11 | X-H torsion

> <Gold.Protein.ActiveResidues>
 VAL166  LYS551  ARG553  GLY616  TRP617  ASP618  TYR619  PRO620  LYS621  CYS622 
 ASP623  PHE694  ASN695  SER759  ASP760  ASP761  ALA762  ILE779  LEU786  VAL792 
 PHE793  MET794  SER795  GLU796  ALA797  LYS798  CYS799  TRP800  GLU811  SER814 

> <Gold.Protein.RotatedAtoms>
  151.1119  135.0031  159.8497 H   0  0  0  0  0  0  0  0  0  0  0  0  # atno 6907 bound_to 6896
  152.5443  134.1826  159.8652 H   0  0  0  0  0  0  0  0  0  0  0  0  # atno 6908 bound_to 6896
  151.1877  133.4641  159.2627 H   0  0  0  0  0  0  0  0  0  0  0  0  # atno 6909 bound_to 6896
  144.7129  140.0961  143.6419 H   0  0  0  0  0  0  0  0  0  0  0  0  # atno 7974 bound_to 7965
  154.4292  140.1819  156.1241 H   0  0  0  0  0  0  0  0  0  0  0  0  # atno 8008 bound_to 7997
  156.0119  140.3349  155.6924 H   0  0  0  0  0  0  0  0  0  0  0  0  # atno 8009 bound_to 7997
  155.6098  140.0649  157.2700 H   0  0  0  0  0  0  0  0  0  0  0  0  # atno 8010 bound_to 7997
  139.6413  144.0253  152.2094 H   0  0  0  0  0  0  0  0  0  0  0  0  # atno 10167 bound_to 10162
  156.5494  130.8598  151.2775 H   0  0  0  0  0  0  0  0  0  0  0  0  # atno 10718 bound_to 10713
  154.7899  135.3203  154.7801 H   0  0  0  0  0  0  0  0  0  0  0  0  # atno 10763 bound_to 10752
  153.8492  135.6864  153.4798 H   0  0  0  0  0  0  0  0  0  0  0  0  # atno 10764 bound_to 10752
  153.1565  135.4678  154.9652 H   0  0  0  0  0  0  0  0  0  0  0  0  # atno 10765 bound_to 10752
  139.9778  134.6794  156.0321 H   0  0  0  0  0  0  0  0  0  0  0  0  # atno 11005 bound_to 11000
  145.9578  139.2779  143.1174 LP  0  0  0  0  0  0  0  0  0  0  0  0  # atno 17320 bound_to 7965
  145.9253  140.9086  143.0384 LP  0  0  0  0  0  0  0  0  0  0  0  0  # atno 17321 bound_to 7965
  139.9944  144.6338  150.7785 LP  0  0  0  0  0  0  0  0  0  0  0  0  # atno 17342 bound_to 10162
  140.7492  143.2935  151.3266 LP  0  0  0  0  0  0  0  0  0  0  0  0  # atno 17343 bound_to 10162
  157.7390  130.9824  150.2288 LP  0  0  0  0  0  0  0  0  0  0  0  0  # atno 17370 bound_to 10713
  156.2898  130.3744  149.7852 LP  0  0  0  0  0  0  0  0  0  0  0  0  # atno 17371 bound_to 10713
  141.1453  133.6557  156.3850 LP  0  0  0  0  0  0  0  0  0  0  0  0  # atno 17394 bound_to 11000
  140.5159  134.6350  157.5301 LP  0  0  0  0  0  0  0  0  0  0  0  0  # atno 17395 bound_to 11000

$$$$
