AV-unprocessed.smi:2066|AV-procd|sdf|8419|dock7
  -GOLD-   2272011113D 1   1.00000     0.00000
 Structure written by MMmdl.
 39 40  0  0  0  0  0  0  0  0  1 V2000
  147.1180  139.8602  152.5521 C   0  0  0  0  0  0  0  0  0  0  0  0
  147.0936  139.6476  154.0849 C   0  0  0  0  0  0  0  0  0  0  0  0
  146.1910  140.7576  154.6817 C   0  0  0  0  0  0  0  0  0  0  0  0
  146.3701  138.2931  154.3484 C   0  0  0  0  0  0  0  0  0  0  0  0
  146.7142  137.2618  153.3694 N   0  0  0  0  0  0  0  0  0  0  0  0
  145.9113  136.2685  152.9621 C   0  0  0  0  0  0  0  0  0  0  0  0
  144.7544  136.1220  153.3579 O   0  0  0  0  0  0  0  0  0  0  0  0
  146.5395  135.4667  152.0846 N   0  0  0  0  0  0  0  0  0  0  0  0
  146.0403  134.2995  151.4494 C   0  0  0  0  0  0  0  0  0  0  0  0
  146.8073  133.3062  150.9850 N   0  0  0  0  0  0  0  0  0  0  0  0
  146.0497  132.2852  150.4058 C   0  0  0  0  0  0  0  0  0  0  0  0
  144.6976  132.5197  150.4379 C   0  0  0  0  0  0  0  0  0  0  0  0
  144.3195  134.0404  151.2028 S   0  0  0  0  0  0  0  0  0  0  0  0
  148.4510  139.6743  154.6992 N   0  0  0  0  0  0  0  0  0  0  0  0
  149.0420  141.0103  154.8370 C   0  0  0  0  0  0  0  0  0  0  0  0
  150.3820  140.9742  155.5916 C   0  0  0  0  0  0  0  0  0  0  0  0
  151.2827  140.0952  154.9288 O   0  0  0  0  0  0  0  0  0  0  0  0
  150.7713  138.7721  154.8246 C   0  0  0  0  0  0  0  0  0  0  0  0
  149.4356  138.7915  154.0624 C   0  0  0  0  0  0  0  0  0  0  0  0
  146.1077  139.8479  152.1409 H   0  0  0  0  0  0  0  0  0  0  0  0
  147.6755  139.0787  152.0364 H   0  0  0  0  0  0  0  0  0  0  0  0
  147.5563  140.8186  152.2750 H   0  0  0  0  0  0  0  0  0  0  0  0
  145.1493  140.6287  154.3855 H   0  0  0  0  0  0  0  0  0  0  0  0
  146.4813  141.7525  154.3443 H   0  0  0  0  0  0  0  0  0  0  0  0
  146.2208  140.7593  155.7717 H   0  0  0  0  0  0  0  0  0  0  0  0
  146.5789  137.9421  155.3607 H   0  0  0  0  0  0  0  0  0  0  0  0
  145.2881  138.4200  154.3270 H   0  0  0  0  0  0  0  0  0  0  0  0
  147.6503  137.2962  152.9935 H   0  0  0  0  0  0  0  0  0  0  0  0
  147.4906  135.7125  151.8532 H   0  0  0  0  0  0  0  0  0  0  0  0
  146.5564  131.4249  149.9936 H   0  0  0  0  0  0  0  0  0  0  0  0
  143.9047  131.8921  150.0592 H   0  0  0  0  0  0  0  0  0  0  0  0
  149.2035  141.4544  153.8548 H   0  0  0  0  0  0  0  0  0  0  0  0
  148.3752  141.6770  155.3808 H   0  0  0  0  0  0  0  0  0  0  0  0
  150.8214  141.9710  155.6307 H   0  0  0  0  0  0  0  0  0  0  0  0
  150.2355  140.6477  156.6224 H   0  0  0  0  0  0  0  0  0  0  0  0
  151.4975  138.1500  154.3013 H   0  0  0  0  0  0  0  0  0  0  0  0
  150.6414  138.3442  155.8200 H   0  0  0  0  0  0  0  0  0  0  0  0
  149.0681  137.7682  154.0118 H   0  0  0  0  0  0  0  0  0  0  0  0
  149.6218  139.1121  153.0372 H   0  0  0  0  0  0  0  0  0  0  0  0
  1  2  1  0  0  0  0
  1 20  1  0  0  0  0
  1 21  1  0  0  0  0
  1 22  1  0  0  0  0
  2  3  1  0  0  0  0
  2  4  1  0  0  0  0
  2 14  1  0  0  0  0
  3 23  1  0  0  0  0
  3 24  1  0  0  0  0
  3 25  1  0  0  0  0
  4  5  1  0  0  0  0
  4 26  1  0  0  0  0
  4 27  1  0  0  0  0
  5  6  1  0  0  0  0
  5 28  1  0  0  0  0
  6  7  2  0  0  0  0
  6  8  1  0  0  0  0
  8  9  1  0  0  0  0
  8 29  1  0  0  0  0
  9 13  1  0  0  0  0
  9 10  2  0  0  0  0
 10 11  1  0  0  0  0
 11 12  2  0  0  0  0
 11 30  1  0  0  0  0
 12 13  1  0  0  0  0
 12 31  1  0  0  0  0
 14 19  1  0  0  0  0
 14 15  1  0  0  0  0
 15 16  1  0  0  0  0
 15 32  1  0  0  0  0
 15 33  1  0  0  0  0
 16 17  1  0  0  0  0
 16 34  1  0  0  0  0
 16 35  1  0  0  0  0
 17 18  1  0  0  0  0
 18 19  1  0  0  0  0
 18 36  1  0  0  0  0
 18 37  1  0  0  0  0
 19 38  1  0  0  0  0
 19 39  1  0  0  0  0
M  END
> <s_m_source_file>
AV-unprocessed.smi

> <i_m_source_file_index>
2066

> <i_lp_mmshare_version>
43012

> <i_f3d_flags>
0

> <s_epik_input>
W0NIMl0xW0NIMl1PW0NIMl1bQ0gyXU4xQyhbQ0gzXSkoW0NIM10pW0NIMl1bTkhdQyg9TylbTkhdYzJuW2NIXVtjSF1zMg==

> <s_epik_cmdline>
J2VwaWtfcHl0aG9uJywgJy1waCcsICc3LjAnLCAnLXRuJywgJzgnLCAnLW1hJywgJzIwMCcsICctbWV0YWxfYmluZGluZycsICctaW1hZScsICc8aW5maWxlLm1hZT4nLCAnLW9tYWUnLCAnPG91dGZpbGUubWFlPic=

> <r_lp_tautomer_probability>
0.999

> <r_epik_Ionization_Penalty>
0.219202

> <r_epik_Ionization_Penalty_Charging>
0

> <r_epik_Ionization_Penalty_Neutral>
0.219202

> <r_epik_State_Penalty>
0.209349

> <r_epik_Charging_Adjusted_Penalty>
0.209349

> <i_epik_Tot_Q>
0

> <i_epik_Tot_abs_Q>
0

> <r_epik_Metal_State_Penalty>
0.2479

> <b_epik_Metal_Only>
0

> <s_lp_Force_Field>
OPLS_2005

> <r_lp_Energy>
39.7757

> <b_lp_Chiralities_Consistent>
1

> <s_lp_Variant>
AV-unprocessed.smi:2066-1

> <Gold.Version>
5.8.1

> <Gold.Id.Protein>
6NUR|6NUR_protein|mol2

> <Gold.PLP.Fitness>
38.5536

> <Gold.PLP.PLP>
-29.1098

> <Gold.PLP.part.hbond>
-2.9631

> <Gold.PLP.part.metal>
0.0000

> <Gold.PLP.part.buried>
-2.1145

> <Gold.PLP.part.nonpolar>
-24.5360

> <Gold.PLP.part.repulsive>
0.5063

> <Gold.PLP.ligand.clash>
0.0000

> <Gold.PLP.ligand.torsion>
0.9705

> <Gold.PLP.Chemscore.Hbond>
2.8393

> <Gold.PLP.Chemscore.CHOScore>
0.9344

> <Gold.PLP.Chemscore.Metal>
0.0000

> <Gold.Chemscore.Hbonds>
donor molecule, donor type, donor heavy atom, donor atom, acceptor molecule, acceptor atom, score
      L1  H     5    28       P1  7948  0.85
      L1  H     8    29       P1  7948  0.98
      P1  H  7989  7998       L1    17  1.00
      L1  C    11    30       P1 10747  0.94

> <Gold.PLP.Chemscore.Internal.Correction>
0.0637

> <Gold.Rescore>
     Score         DG    S(hbond)    S(metal)    S(lipo)     H(rot)  DE(clash)    DE(int)     intcor
     14.13     -17.17       1.94        0.00      79.16       1.58       1.83       1.20       ----

> <Gold.Chemscore.Fitness>
14.1299

> <Gold.Chemscore.DG>
-17.1682

> <Gold.Chemscore.ZeroCoef>
-5.4800

> <Gold.Chemscore.Hbond>
1.9379

> <Gold.Chemscore.Metal>
0.0000

> <Gold.Chemscore.Lipo>
79.1645

> <Gold.Chemscore.Internal_Hbond>
0.0000

> <Gold.Chemscore.DEClash>
1.8344

> <Gold.Chemscore.DEInternal>
1.2039

> <Gold.Chemscore.Rot>
1.5807

> <Gold.Chemscore.Internal.Correction>
   9.000000E+99

> <Gold.Chemscore.Hbonds>
donor molecule, donor type, donor heavy atom, donor atom, acceptor molecule, acceptor atom, score
      L1  H     5    28       P1  7948  0.78
      L1  H     8    29       P1  7948  0.91
      P1  H  7989  7998       L1    17  0.42

> <Gold.Chemscore.Hbond.Weighted>
-6.4726

> <Gold.Chemscore.Metal.Weighted>
-0.0000

> <Gold.Chemscore.Lipo.Weighted>
-9.2622

> <Gold.Chemscore.Internal_Hbond.Weighted>
0.0000

> <Gold.Chemscore.DEClash.Weighted>
1.8344

> <Gold.Chemscore.DEInternal.Weighted>
1.2039

> <Gold.Chemscore.Rot.Weighted>
4.0466

> <Gold.Chemscore.Internal.Correction.Weighted>
   9.000000E+99

> <Gold.Protein.RotatedTorsions>
[ 6907 6896 6895 6894 ] final  -37.99 input  -60.11 | X-H torsion
[ 7974 7965 7964 7962 ] final   91.35 input  175.53 | X-H torsion
[ 8008 7997 7996 7995 ] final   73.10 input   59.86 | X-H torsion
[ 10167 10162 10161 10158 ] final -139.20 input  -65.29 | X-H torsion
[ 10718 10713 10712 10709 ] final -154.52 input   66.30 | X-H torsion
[ 10763 10752 10751 10750 ] final  -32.37 input  -60.55 | X-H torsion
[ 11005 11000 10999 10996 ] final   33.34 input  -57.11 | X-H torsion

> <Gold.Protein.ActiveResidues>
 VAL166  LYS551  ARG553  GLY616  TRP617  ASP618  TYR619  PRO620  LYS621  CYS622 
 ASP623  PHE694  ASN695  SER759  ASP760  ASP761  ALA762  ILE779  LEU786  VAL792 
 PHE793  MET794  SER795  GLU796  ALA797  LYS798  CYS799  TRP800  GLU811  SER814 

> <Gold.Protein.RotatedAtoms>
  151.0079  134.9373  159.7990 H   0  0  0  0  0  0  0  0  0  0  0  0  # atno 6907 bound_to 6896
  152.5295  134.3068  159.9108 H   0  0  0  0  0  0  0  0  0  0  0  0  # atno 6908 bound_to 6896
  151.3074  133.4054  159.2678 H   0  0  0  0  0  0  0  0  0  0  0  0  # atno 6909 bound_to 6896
  145.5069  139.2276  143.2746 H   0  0  0  0  0  0  0  0  0  0  0  0  # atno 7974 bound_to 7965
  155.7787  140.3482  155.5285 H   0  0  0  0  0  0  0  0  0  0  0  0  # atno 8008 bound_to 7997
  155.8750  140.0993  157.1545 H   0  0  0  0  0  0  0  0  0  0  0  0  # atno 8009 bound_to 7997
  154.4020  140.1333  156.4113 H   0  0  0  0  0  0  0  0  0  0  0  0  # atno 8010 bound_to 7997
  139.8403  143.7331  152.2663 H   0  0  0  0  0  0  0  0  0  0  0  0  # atno 10167 bound_to 10162
  156.5005  130.8389  151.2607 H   0  0  0  0  0  0  0  0  0  0  0  0  # atno 10718 bound_to 10713
  153.8127  135.6881  153.4838 H   0  0  0  0  0  0  0  0  0  0  0  0  # atno 10763 bound_to 10752
  153.1618  135.4577  154.9781 H   0  0  0  0  0  0  0  0  0  0  0  0  # atno 10764 bound_to 10752
  154.7961  135.3319  154.7606 H   0  0  0  0  0  0  0  0  0  0  0  0  # atno 10765 bound_to 10752
  140.2642  134.3157  155.7848 H   0  0  0  0  0  0  0  0  0  0  0  0  # atno 11005 bound_to 11000
  146.2191  140.5873  142.9025 LP  0  0  0  0  0  0  0  0  0  0  0  0  # atno 17320 bound_to 7965
  144.7749  140.5718  143.6645 LP  0  0  0  0  0  0  0  0  0  0  0  0  # atno 17321 bound_to 7965
  139.7566  144.7519  151.0427 LP  0  0  0  0  0  0  0  0  0  0  0  0  # atno 17342 bound_to 10162
  140.7798  143.4799  151.0032 LP  0  0  0  0  0  0  0  0  0  0  0  0  # atno 17343 bound_to 10162
  157.7463  130.9983  150.2849 LP  0  0  0  0  0  0  0  0  0  0  0  0  # atno 17370 bound_to 10713
  156.3338  130.3804  149.7468 LP  0  0  0  0  0  0  0  0  0  0  0  0  # atno 17371 bound_to 10713
  141.2186  133.7427  156.9234 LP  0  0  0  0  0  0  0  0  0  0  0  0  # atno 17394 bound_to 11000
  140.1435  134.9277  157.2499 LP  0  0  0  0  0  0  0  0  0  0  0  0  # atno 17395 bound_to 11000

$$$$
