AV-unprocessed.smi:1795|AV-procd|sdf|7239|dock3
  -GOLD-   22720 8483D 1   1.00000     0.00000
 Structure written by MMmdl.
 47 48  0  0  0  0  0  0  0  0  1 V2000
  145.1509  136.6091  161.9501 C   0  0  0  0  0  0  0  0  0  0  0  0
  146.5733  136.0693  162.1795 C   0  0  2  0  0  0  0  0  0  0  0  0
  147.5802  136.5256  161.1045 C   0  0  0  0  0  0  0  0  0  0  0  0
  147.4179  135.8420  159.8155 N   0  0  0  0  0  0  0  0  0  0  0  0
  148.4131  136.2782  158.8075 C   0  0  1  0  0  0  0  0  0  0  0  0
  148.2764  135.5210  157.4611 C   0  0  0  0  0  0  0  0  0  0  0  0
  148.3690  137.8054  158.5254 C   0  0  0  0  0  0  0  0  0  0  0  0
  149.6683  138.3331  158.1214 N   0  0  0  0  0  0  0  0  0  0  0  0
  150.8385  138.0214  158.6967 C   0  0  0  0  0  0  0  0  0  0  0  0
  150.9366  137.2374  159.6419 O   0  0  0  0  0  0  0  0  0  0  0  0
  152.0756  138.7144  158.1064 C   0  0  0  0  0  0  0  0  0  0  0  0
  152.3235  140.0561  158.6604 N   0  0  0  0  0  0  0  0  0  0  0  0
  151.2637  140.9821  158.5888 C   0  0  0  0  0  0  0  0  0  0  0  0
  151.3788  142.2317  159.0652 C   0  0  0  0  0  0  0  0  0  0  0  0
  152.6332  142.6204  159.6646 C   0  0  0  0  0  0  0  0  0  0  0  0
  153.6520  141.7413  159.7428 C   0  0  0  0  0  0  0  0  0  0  0  0
  153.5296  140.3733  159.2254 C   0  0  0  0  0  0  0  0  0  0  0  0
  154.4541  139.5630  159.2958 O   0  0  0  0  0  0  0  0  0  0  0  0
  147.4586  134.3979  160.0640 C   0  0  0  0  0  0  0  0  0  0  0  0
  146.4059  133.9395  161.0887 C   0  0  1  0  0  0  0  0  0  0  0  0
  146.5106  132.4408  161.3908 C   0  0  0  0  0  0  0  0  0  0  0  0
  146.5902  134.6496  162.3083 O   0  0  0  0  0  0  0  0  0  0  0  0
  145.1405  137.6987  161.9827 H   0  0  0  0  0  0  0  0  0  0  0  0
  144.4690  136.2502  162.7211 H   0  0  0  0  0  0  0  0  0  0  0  0
  144.7498  136.3103  160.9820 H   0  0  0  0  0  0  0  0  0  0  0  0
  146.9088  136.4644  163.1387 H   0  0  0  0  0  0  0  0  0  0  0  0
  147.4637  137.6016  160.9953 H   0  0  0  0  0  0  0  0  0  0  0  0
  148.5923  136.3579  161.4764 H   0  0  0  0  0  0  0  0  0  0  0  0
  149.4069  136.0537  159.1985 H   0  0  0  0  0  0  0  0  0  0  0  0
  148.9599  135.8931  156.6987 H   0  0  0  0  0  0  0  0  0  0  0  0
  147.2652  135.6077  157.0616 H   0  0  0  0  0  0  0  0  0  0  0  0
  148.5124  134.4622  157.5580 H   0  0  0  0  0  0  0  0  0  0  0  0
  147.6152  138.0136  157.7638 H   0  0  0  0  0  0  0  0  0  0  0  0
  148.0920  138.3740  159.4112 H   0  0  0  0  0  0  0  0  0  0  0  0
  149.6754  138.9859  157.3511 H   0  0  0  0  0  0  0  0  0  0  0  0
  152.9453  138.0727  158.2597 H   0  0  0  0  0  0  0  0  0  0  0  0
  151.9536  138.7721  157.0236 H   0  0  0  0  0  0  0  0  0  0  0  0
  150.3581  140.6100  158.1321 H   0  0  0  0  0  0  0  0  0  0  0  0
  150.5539  142.9267  159.0055 H   0  0  0  0  0  0  0  0  0  0  0  0
  152.7548  143.6207  160.0537 H   0  0  0  0  0  0  0  0  0  0  0  0
  154.5826  142.0495  160.1966 H   0  0  0  0  0  0  0  0  0  0  0  0
  147.2650  133.8458  159.1464 H   0  0  0  0  0  0  0  0  0  0  0  0
  148.4545  134.1097  160.4042 H   0  0  0  0  0  0  0  0  0  0  0  0
  145.4076  134.1392  160.6982 H   0  0  0  0  0  0  0  0  0  0  0  0
  146.3587  131.8473  160.4889 H   0  0  0  0  0  0  0  0  0  0  0  0
  145.7576  132.1366  162.1181 H   0  0  0  0  0  0  0  0  0  0  0  0
  147.4896  132.1872  161.7984 H   0  0  0  0  0  0  0  0  0  0  0  0
  1  2  1  0  0  0  0
  1 23  1  0  0  0  0
  1 24  1  0  0  0  0
  1 25  1  0  0  0  0
  2 22  1  0  0  0  0
  2  3  1  0  0  0  0
  2 26  1  0  0  0  0
  3  4  1  0  0  0  0
  3 27  1  0  0  0  0
  3 28  1  0  0  0  0
  4  5  1  0  0  0  0
  4 19  1  0  0  0  0
  5  6  1  0  0  0  0
  5  7  1  0  0  0  0
  5 29  1  0  0  0  0
  6 30  1  0  0  0  0
  6 31  1  0  0  0  0
  6 32  1  0  0  0  0
  7  8  1  0  0  0  0
  7 33  1  0  0  0  0
  7 34  1  0  0  0  0
  8  9  1  0  0  0  0
  8 35  1  0  0  0  0
  9 10  2  0  0  0  0
  9 11  1  0  0  0  0
 11 12  1  0  0  0  0
 11 36  1  0  0  0  0
 11 37  1  0  0  0  0
 12 17  1  0  0  0  0
 12 13  1  0  0  0  0
 13 14  2  0  0  0  0
 13 38  1  0  0  0  0
 14 15  1  0  0  0  0
 14 39  1  0  0  0  0
 15 16  2  0  0  0  0
 15 40  1  0  0  0  0
 16 17  1  0  0  0  0
 16 41  1  0  0  0  0
 17 18  2  0  0  0  0
 19 20  1  0  0  0  0
 19 42  1  0  0  0  0
 19 43  1  0  0  0  0
 20 21  1  0  0  0  0
 20 22  1  0  0  0  0
 20 44  1  0  0  0  0
 21 45  1  0  0  0  0
 21 46  1  0  0  0  0
 21 47  1  0  0  0  0
M  END
> <s_m_source_file>
AV-unprocessed.smi

> <i_m_source_file_index>
1795

> <i_lp_mmshare_version>
43012

> <i_f3d_flags>
0

> <s_epik_input>
W0NIM11bQ0BASF0xW0NIMl1OKFtDSDJdW0NASF0oTzEpW0NIM10pW0NASF0oW0NIM10pW0NIMl1bTkhdQyg9TylbQ0gyXW4yW2NIXVtjSF1bY0hdW2NIXWMyPU8=

> <s_epik_cmdline>
J2VwaWtfcHl0aG9uJywgJy1waCcsICc3LjAnLCAnLXRuJywgJzgnLCAnLW1hJywgJzIwMCcsICctbWV0YWxfYmluZGluZycsICctaW1hZScsICc8aW5maWxlLm1hZT4nLCAnLW9tYWUnLCAnPG91dGZpbGUubWFlPic=

> <r_lp_tautomer_probability>
1

> <r_epik_Ionization_Penalty>
0.237383

> <r_epik_Ionization_Penalty_Charging>
3.58805e-07

> <r_epik_Ionization_Penalty_Neutral>
0.237382

> <r_epik_State_Penalty>
0.228245

> <r_epik_Charging_Adjusted_Penalty>
0.228245

> <i_epik_Tot_Q>
0

> <i_epik_Tot_abs_Q>
0

> <r_epik_Metal_State_Penalty>
0.228221

> <b_epik_Metal_Only>
0

> <s_lp_Force_Field>
OPLS_2005

> <r_lp_Energy>
40.7521

> <b_lp_Chiralities_Consistent>
1

> <s_lp_Variant>
AV-unprocessed.smi:1795-3

> <Gold.Version>
5.8.1

> <Gold.Id.Protein>
6NUR|6NUR_protein|mol2

> <Gold.PLP.Fitness>
42.1842

> <Gold.PLP.PLP>
-37.6757

> <Gold.PLP.part.hbond>
-1.9906

> <Gold.PLP.part.metal>
0.0000

> <Gold.PLP.part.buried>
-5.8040

> <Gold.PLP.part.nonpolar>
-29.5256

> <Gold.PLP.part.repulsive>
0.1285

> <Gold.PLP.ligand.clash>
0.0000

> <Gold.PLP.ligand.torsion>
0.7876

> <Gold.PLP.Chemscore.Hbond>
2.0000

> <Gold.PLP.Chemscore.CHOScore>
0.0000

> <Gold.PLP.Chemscore.Metal>
0.0000

> <Gold.Chemscore.Hbonds>
donor molecule, donor type, donor heavy atom, donor atom, acceptor molecule, acceptor atom, score
      P1  H  6896  6909       L1    10  0.71
      P1  H  7997  8009       L1    18  0.54

> <Gold.PLP.Chemscore.Internal.Correction>
0.0837

> <Gold.Rescore>
     Score         DG    S(hbond)    S(metal)    S(lipo)     H(rot)  DE(clash)    DE(int)     intcor
     15.22     -17.51       1.71        0.00      94.00       1.83       0.12       2.17       ----

> <Gold.Chemscore.Fitness>
15.2153

> <Gold.Chemscore.DG>
-17.5130

> <Gold.Chemscore.ZeroCoef>
-5.4800

> <Gold.Chemscore.Hbond>
1.7087

> <Gold.Chemscore.Metal>
0.0000

> <Gold.Chemscore.Lipo>
94.0039

> <Gold.Chemscore.Internal_Hbond>
0.0000

> <Gold.Chemscore.DEClash>
0.1228

> <Gold.Chemscore.DEInternal>
2.1749

> <Gold.Chemscore.Rot>
1.8251

> <Gold.Chemscore.Internal.Correction>
   9.000000E+99

> <Gold.Chemscore.Hbonds>
donor molecule, donor type, donor heavy atom, donor atom, acceptor molecule, acceptor atom, score
      P1  H  6896  6909       L1    10  0.73
      P1  H  7997  8009       L1    18  0.09

> <Gold.Chemscore.Hbond.Weighted>
-5.7069

> <Gold.Chemscore.Metal.Weighted>
-0.0000

> <Gold.Chemscore.Lipo.Weighted>
-10.9985

> <Gold.Chemscore.Internal_Hbond.Weighted>
0.0000

> <Gold.Chemscore.DEClash.Weighted>
0.1228

> <Gold.Chemscore.DEInternal.Weighted>
2.1749

> <Gold.Chemscore.Rot.Weighted>
4.6724

> <Gold.Chemscore.Internal.Correction.Weighted>
   9.000000E+99

> <Gold.Protein.RotatedTorsions>
[ 6907 6896 6895 6894 ] final  108.29 input  -60.11 | X-H torsion
[ 7974 7965 7964 7962 ] final  117.88 input  175.53 | X-H torsion
[ 8008 7997 7996 7995 ] final  105.22 input   59.86 | X-H torsion
[ 10167 10162 10161 10158 ] final  -83.62 input  -65.29 | X-H torsion
[ 10718 10713 10712 10709 ] final  123.34 input   66.30 | X-H torsion
[ 10763 10752 10751 10750 ] final  -72.03 input  -60.55 | X-H torsion
[ 11005 11000 10999 10996 ] final   35.57 input  -57.11 | X-H torsion

> <Gold.Protein.ActiveResidues>
 VAL166  LYS551  ARG553  GLY616  TRP617  ASP618  TYR619  PRO620  LYS621  CYS622 
 ASP623  PHE694  ASN695  SER759  ASP760  ASP761  ALA762  ILE779  LEU786  VAL792 
 PHE793  MET794  SER795  GLU796  ALA797  LYS798  CYS799  TRP800  GLU811  SER814 

> <Gold.Protein.RotatedAtoms>
  152.5118  133.9110  159.7487 H   0  0  0  0  0  0  0  0  0  0  0  0  # atno 6907 bound_to 6896
  150.9504  133.6547  159.2780 H   0  0  0  0  0  0  0  0  0  0  0  0  # atno 6908 bound_to 6896
  151.3828  135.0948  159.9554 H   0  0  0  0  0  0  0  0  0  0  0  0  # atno 6909 bound_to 6896
  145.1620  139.3149  143.4512 H   0  0  0  0  0  0  0  0  0  0  0  0  # atno 7974 bound_to 7965
  156.1640  140.3134  155.8857 H   0  0  0  0  0  0  0  0  0  0  0  0  # atno 8008 bound_to 7997
  155.3723  140.0483  157.3062 H   0  0  0  0  0  0  0  0  0  0  0  0  # atno 8009 bound_to 7997
  154.5174  140.2186  155.9050 H   0  0  0  0  0  0  0  0  0  0  0  0  # atno 8010 bound_to 7997
  140.4210  143.2585  151.8890 H   0  0  0  0  0  0  0  0  0  0  0  0  # atno 10167 bound_to 10162
  157.5672  131.1086  150.8432 H   0  0  0  0  0  0  0  0  0  0  0  0  # atno 10718 bound_to 10713
  154.4400  135.5943  153.6123 H   0  0  0  0  0  0  0  0  0  0  0  0  # atno 10763 bound_to 10752
  152.9805  135.5996  154.3734 H   0  0  0  0  0  0  0  0  0  0  0  0  # atno 10764 bound_to 10752
  154.3582  135.2841  155.2313 H   0  0  0  0  0  0  0  0  0  0  0  0  # atno 10765 bound_to 10752
  140.2413  134.3411  155.7924 H   0  0  0  0  0  0  0  0  0  0  0  0  # atno 11005 bound_to 11000
  146.3481  140.1734  142.8589 LP  0  0  0  0  0  0  0  0  0  0  0  0  # atno 17320 bound_to 7965
  145.0321  140.8879  143.5103 LP  0  0  0  0  0  0  0  0  0  0  0  0  # atno 17321 bound_to 7965
  139.4782  144.5438  151.8489 LP  0  0  0  0  0  0  0  0  0  0  0  0  # atno 17342 bound_to 10162
  140.4534  144.1823  150.5899 LP  0  0  0  0  0  0  0  0  0  0  0  0  # atno 17343 bound_to 10162
  156.8914  130.5214  149.5286 LP  0  0  0  0  0  0  0  0  0  0  0  0  # atno 17370 bound_to 10713
  156.0720  130.5750  150.9401 LP  0  0  0  0  0  0  0  0  0  0  0  0  # atno 17371 bound_to 10713
  141.2210  133.7300  156.8890 LP  0  0  0  0  0  0  0  0  0  0  0  0  # atno 17394 bound_to 11000
  140.1650  134.9139  157.2763 LP  0  0  0  0  0  0  0  0  0  0  0  0  # atno 17395 bound_to 11000

$$$$
