AV-unprocessed.smi:2992|AV-procd|sdf|11401|dock2
  -GOLD-   2272016323D 1   1.00000     0.00000
 Structure written by MMmdl.
 46 47  0  0  0  0  0  0  0  0  1 V2000
  147.3723  135.0848  162.5479 C   0  0  0  0  0  0  0  0  0  0  0  0
  147.4120  135.2244  161.0110 C   0  0  0  0  0  0  0  0  0  0  0  0
  147.7110  133.8386  160.4071 C   0  0  0  0  0  0  0  0  0  0  0  0
  146.0274  135.6878  160.5085 C   0  0  0  0  0  0  0  0  0  0  0  0
  148.5315  136.2018  160.5501 C   0  0  0  0  0  0  0  0  0  0  0  0
  148.7774  136.2582  159.0367 C   0  0  0  0  0  0  0  0  0  0  0  0
  149.2227  135.2758  158.4439 O   0  0  0  0  0  0  0  0  0  0  0  0
  148.4730  137.4143  158.4271 N   0  0  0  0  0  0  0  0  0  0  0  0
  148.6937  137.7141  157.0170 C   0  0  0  0  0  0  0  0  0  0  0  0
  150.0039  138.4452  156.7798 C   0  0  0  0  0  0  0  0  0  0  0  0
  150.9244  137.9867  155.8162 C   0  0  0  0  0  0  0  0  0  0  0  0
  152.1297  138.6934  155.6539 C   0  0  0  0  0  0  0  0  0  0  0  0
  152.4461  139.7907  156.3724 N   0  0  0  0  0  0  0  0  0  0  0  0
  151.5649  140.2473  157.2970 C   0  0  0  0  0  0  0  0  0  0  0  0
  151.9099  141.3980  158.0392 N   0  0  0  0  0  0  0  0  0  0  0  0
  152.1460  141.1863  159.4655 C   0  0  0  0  0  0  0  0  0  0  0  0
  152.8071  142.4278  160.0893 C   0  0  0  0  0  0  0  0  0  0  0  0
  152.0160  143.5814  159.8246 O   0  0  0  0  0  0  0  0  0  0  0  0
  151.8960  143.8304  158.4282 C   0  0  0  0  0  0  0  0  0  0  0  0
  151.1970  142.6408  157.7491 C   0  0  0  0  0  0  0  0  0  0  0  0
  150.3310  139.5933  157.5306 C   0  0  0  0  0  0  0  0  0  0  0  0
  146.6616  134.3174  162.8566 H   0  0  0  0  0  0  0  0  0  0  0  0
  147.0675  136.0112  163.0352 H   0  0  0  0  0  0  0  0  0  0  0  0
  148.3484  134.8061  162.9463 H   0  0  0  0  0  0  0  0  0  0  0  0
  148.6751  133.4573  160.7457 H   0  0  0  0  0  0  0  0  0  0  0  0
  147.7381  133.8762  159.3174 H   0  0  0  0  0  0  0  0  0  0  0  0
  146.9530  133.1070  160.6897 H   0  0  0  0  0  0  0  0  0  0  0  0
  145.2537  134.9601  160.7555 H   0  0  0  0  0  0  0  0  0  0  0  0
  146.0211  135.8173  159.4257 H   0  0  0  0  0  0  0  0  0  0  0  0
  145.7272  136.6364  160.9548 H   0  0  0  0  0  0  0  0  0  0  0  0
  148.2922  137.2131  160.8820 H   0  0  0  0  0  0  0  0  0  0  0  0
  149.4691  135.9463  161.0470 H   0  0  0  0  0  0  0  0  0  0  0  0
  148.1032  138.1626  158.9950 H   0  0  0  0  0  0  0  0  0  0  0  0
  148.6755  136.8060  156.4123 H   0  0  0  0  0  0  0  0  0  0  0  0
  147.8618  138.3268  156.6684 H   0  0  0  0  0  0  0  0  0  0  0  0
  150.7182  137.1122  155.2170 H   0  0  0  0  0  0  0  0  0  0  0  0
  152.8604  138.3683  154.9282 H   0  0  0  0  0  0  0  0  0  0  0  0
  151.1910  140.9876  159.9537 H   0  0  0  0  0  0  0  0  0  0  0  0
  152.7803  140.3201  159.6471 H   0  0  0  0  0  0  0  0  0  0  0  0
  152.8991  142.3014  161.1681 H   0  0  0  0  0  0  0  0  0  0  0  0
  153.8164  142.5682  159.6985 H   0  0  0  0  0  0  0  0  0  0  0  0
  151.3171  144.7417  158.2778 H   0  0  0  0  0  0  0  0  0  0  0  0
  152.8813  144.0036  157.9924 H   0  0  0  0  0  0  0  0  0  0  0  0
  151.1573  142.8121  156.6726 H   0  0  0  0  0  0  0  0  0  0  0  0
  150.1694  142.5593  158.1059 H   0  0  0  0  0  0  0  0  0  0  0  0
  149.6476  139.9497  158.2866 H   0  0  0  0  0  0  0  0  0  0  0  0
  1  2  1  0  0  0  0
  1 22  1  0  0  0  0
  1 23  1  0  0  0  0
  1 24  1  0  0  0  0
  2  3  1  0  0  0  0
  2  4  1  0  0  0  0
  2  5  1  0  0  0  0
  3 25  1  0  0  0  0
  3 26  1  0  0  0  0
  3 27  1  0  0  0  0
  4 28  1  0  0  0  0
  4 29  1  0  0  0  0
  4 30  1  0  0  0  0
  5  6  1  0  0  0  0
  5 31  1  0  0  0  0
  5 32  1  0  0  0  0
  6  7  2  0  0  0  0
  6  8  1  0  0  0  0
  8  9  1  0  0  0  0
  8 33  1  0  0  0  0
  9 10  1  0  0  0  0
  9 34  1  0  0  0  0
  9 35  1  0  0  0  0
 10 21  1  0  0  0  0
 10 11  2  0  0  0  0
 11 12  1  0  0  0  0
 11 36  1  0  0  0  0
 12 13  2  0  0  0  0
 12 37  1  0  0  0  0
 13 14  1  0  0  0  0
 14 15  1  0  0  0  0
 14 21  2  0  0  0  0
 15 20  1  0  0  0  0
 15 16  1  0  0  0  0
 16 17  1  0  0  0  0
 16 38  1  0  0  0  0
 16 39  1  0  0  0  0
 17 18  1  0  0  0  0
 17 40  1  0  0  0  0
 17 41  1  0  0  0  0
 18 19  1  0  0  0  0
 19 20  1  0  0  0  0
 19 42  1  0  0  0  0
 19 43  1  0  0  0  0
 20 44  1  0  0  0  0
 20 45  1  0  0  0  0
 21 46  1  0  0  0  0
M  END
> <s_m_source_file>
AV-unprocessed.smi

> <i_m_source_file_index>
2992

> <i_lp_mmshare_version>
43012

> <i_f3d_flags>
0

> <s_epik_input>
W0NIM11DKFtDSDNdKShbQ0gzXSlbQ0gyXUMoPU8pW05IXVtDSDJdYzFbY0hdW2NIXW5jKFtjSF0xKU4yW0NIMl1bQ0gyXU9bQ0gyXVtDSDJdMg==

> <s_epik_cmdline>
J2VwaWtfcHl0aG9uJywgJy1waCcsICc3LjAnLCAnLXRuJywgJzgnLCAnLW1hJywgJzIwMCcsICctbWV0YWxfYmluZGluZycsICctaW1hZScsICc8aW5maWxlLm1hZT4nLCAnLW9tYWUnLCAnPG91dGZpbGUubWFlPic=

> <r_lp_tautomer_probability>
1

> <r_epik_Ionization_Penalty>
0.00548609

> <r_epik_Ionization_Penalty_Charging>
0

> <r_epik_Ionization_Penalty_Neutral>
0.00548609

> <r_epik_State_Penalty>
0.00401348

> <r_epik_Charging_Adjusted_Penalty>
0.00401348

> <i_epik_Tot_Q>
0

> <i_epik_Tot_abs_Q>
0

> <r_epik_Metal_State_Penalty>
-0

> <b_epik_Metal_Only>
0

> <s_lp_Force_Field>
OPLS_2005

> <r_lp_Energy>
16.2272

> <b_lp_Chiralities_Consistent>
1

> <s_lp_Variant>
AV-unprocessed.smi:2992-1

> <Gold.Version>
5.8.1

> <Gold.Id.Protein>
6NUR|6NUR_protein|mol2

> <Gold.PLP.Fitness>
41.0530

> <Gold.PLP.PLP>
-35.6665

> <Gold.PLP.part.hbond>
-2.0000

> <Gold.PLP.part.metal>
0.0000

> <Gold.PLP.part.buried>
-3.9024

> <Gold.PLP.part.nonpolar>
-29.5095

> <Gold.PLP.part.repulsive>
0.1512

> <Gold.PLP.ligand.clash>
0.0000

> <Gold.PLP.ligand.torsion>
0.5069

> <Gold.PLP.Chemscore.Hbond>
2.0000

> <Gold.PLP.Chemscore.CHOScore>
0.0000

> <Gold.PLP.Chemscore.Metal>
0.0000

> <Gold.Chemscore.Hbonds>
donor molecule, donor type, donor heavy atom, donor atom, acceptor molecule, acceptor atom, score
      P1  H  6896  6907       L1     7  1.00
      P1  H  7997  8009       L1    13  1.00

> <Gold.PLP.Chemscore.Internal.Correction>
0.4002

> <Gold.Rescore>
     Score         DG    S(hbond)    S(metal)    S(lipo)     H(rot)  DE(clash)    DE(int)     intcor
     16.81     -18.84       1.95        0.00      93.82       1.62       0.18       1.86       ----

> <Gold.Chemscore.Fitness>
16.8074

> <Gold.Chemscore.DG>
-18.8410

> <Gold.Chemscore.ZeroCoef>
-5.4800

> <Gold.Chemscore.Hbond>
1.9526

> <Gold.Chemscore.Metal>
0.0000

> <Gold.Chemscore.Lipo>
93.8243

> <Gold.Chemscore.Internal_Hbond>
0.0000

> <Gold.Chemscore.DEClash>
0.1784

> <Gold.Chemscore.DEInternal>
1.8552

> <Gold.Chemscore.Rot>
1.6164

> <Gold.Chemscore.Internal.Correction>
   9.000000E+99

> <Gold.Chemscore.Hbonds>
donor molecule, donor type, donor heavy atom, donor atom, acceptor molecule, acceptor atom, score
      P1  H  6896  6907       L1     7  0.74
      P1  H  7997  8009       L1    13  0.74

> <Gold.Chemscore.Hbond.Weighted>
-6.5217

> <Gold.Chemscore.Metal.Weighted>
-0.0000

> <Gold.Chemscore.Lipo.Weighted>
-10.9774

> <Gold.Chemscore.Internal_Hbond.Weighted>
0.0000

> <Gold.Chemscore.DEClash.Weighted>
0.1784

> <Gold.Chemscore.DEInternal.Weighted>
1.8552

> <Gold.Chemscore.Rot.Weighted>
4.1381

> <Gold.Chemscore.Internal.Correction.Weighted>
   9.000000E+99

> <Gold.Protein.RotatedTorsions>
[ 6907 6896 6895 6894 ] final  -78.99 input  -60.11 | X-H torsion
[ 7974 7965 7964 7962 ] final  -15.19 input  175.53 | X-H torsion
[ 8008 7997 7996 7995 ] final -156.09 input   59.86 | X-H torsion
[ 10167 10162 10161 10158 ] final  -91.79 input  -65.29 | X-H torsion
[ 10718 10713 10712 10709 ] final    5.14 input   66.30 | X-H torsion
[ 10763 10752 10751 10750 ] final  -92.44 input  -60.55 | X-H torsion
[ 11005 11000 10999 10996 ] final   23.77 input  -57.11 | X-H torsion

> <Gold.Protein.ActiveResidues>
 VAL166  LYS551  ARG553  GLY616  TRP617  ASP618  TYR619  PRO620  LYS621  CYS622 
 ASP623  PHE694  ASN695  SER759  ASP760  ASP761  ALA762  ILE779  LEU786  VAL792 
 PHE793  MET794  SER795  GLU796  ALA797  LYS798  CYS799  TRP800  GLU811  SER814 

> <Gold.Protein.RotatedAtoms>
  150.6960  134.4189  159.5195 H   0  0  0  0  0  0  0  0  0  0  0  0  # atno 6907 bound_to 6896
  152.1935  134.8648  160.0524 H   0  0  0  0  0  0  0  0  0  0  0  0  # atno 6908 bound_to 6896
  151.9594  133.3656  159.4066 H   0  0  0  0  0  0  0  0  0  0  0  0  # atno 6909 bound_to 6896
  146.2042  140.3457  142.8412 H   0  0  0  0  0  0  0  0  0  0  0  0  # atno 7974 bound_to 7965
  155.7118  140.0779  157.2368 H   0  0  0  0  0  0  0  0  0  0  0  0  # atno 8008 bound_to 7997
  154.4057  140.1628  156.2359 H   0  0  0  0  0  0  0  0  0  0  0  0  # atno 8009 bound_to 7997
  155.9275  140.3393  155.6225 H   0  0  0  0  0  0  0  0  0  0  0  0  # atno 8010 bound_to 7997
  140.3413  143.2940  151.9831 H   0  0  0  0  0  0  0  0  0  0  0  0  # atno 10167 bound_to 10162
  156.9030  130.5728  149.5648 H   0  0  0  0  0  0  0  0  0  0  0  0  # atno 10718 bound_to 10713
  154.6861  135.5231  153.8329 H   0  0  0  0  0  0  0  0  0  0  0  0  # atno 10763 bound_to 10752
  153.0599  135.6564  154.0498 H   0  0  0  0  0  0  0  0  0  0  0  0  # atno 10764 bound_to 10752
  154.0378  135.2980  155.3339 H   0  0  0  0  0  0  0  0  0  0  0  0  # atno 10765 bound_to 10752
  140.3660  134.2074  155.7669 H   0  0  0  0  0  0  0  0  0  0  0  0  # atno 11005 bound_to 11000
  144.8754  140.7329  143.6020 LP  0  0  0  0  0  0  0  0  0  0  0  0  # atno 17320 bound_to 7965
  145.3377  139.1741  143.4503 LP  0  0  0  0  0  0  0  0  0  0  0  0  # atno 17321 bound_to 7965
  139.4840  144.6154  151.7356 LP  0  0  0  0  0  0  0  0  0  0  0  0  # atno 17342 bound_to 10162
  140.5306  144.0737  150.6052 LP  0  0  0  0  0  0  0  0  0  0  0  0  # atno 17343 bound_to 10162
  156.0572  130.5632  150.9118 LP  0  0  0  0  0  0  0  0  0  0  0  0  # atno 17370 bound_to 10713
  157.6014  131.0941  150.8953 LP  0  0  0  0  0  0  0  0  0  0  0  0  # atno 17371 bound_to 10713
  141.1969  133.8071  157.0650 LP  0  0  0  0  0  0  0  0  0  0  0  0  # atno 17394 bound_to 11000
  140.0589  134.9765  157.1269 LP  0  0  0  0  0  0  0  0  0  0  0  0  # atno 17395 bound_to 11000

$$$$
