AV-unprocessed.smi:699|AV-procd|sdf|3403|dock3
  -GOLD-   22720 0383D 1   1.00000     0.00000
 Structure written by MMmdl.
 35 36  0  0  0  0  0  0  0  0  2 V2000
  142.8742  134.4692  155.3496 N   0  0  0  0  0  0  0  0  0  0  0  0
  143.2183  135.5485  154.6429 C   0  0  0  0  0  0  0  0  0  0  0  0
  142.8412  136.6776  154.9504 O   0  0  0  0  0  0  0  0  0  0  0  0
  144.1125  135.3241  153.4136 C   0  0  2  0  0  0  0  0  0  0  0  0
  143.5778  134.2179  152.4885 C   0  0  0  0  0  0  0  0  0  0  0  0
  144.8201  133.6312  151.8259 C   0  0  0  0  0  0  0  0  0  0  0  0
  145.8769  133.6561  152.9270 C   0  0  0  0  0  0  0  0  0  0  0  0
  145.5573  134.8915  153.7861 C   0  0  1  0  0  0  0  0  0  0  0  0
  146.5274  135.9571  153.5378 N   0  0  0  0  0  0  0  0  0  0  0  0
  146.4654  137.1949  154.0493 C   0  0  0  0  0  0  0  0  0  0  0  0
  145.5548  137.5828  154.7804 O   0  0  0  0  0  0  0  0  0  0  0  0
  147.5054  137.9432  153.6418 N   0  0  0  0  0  0  0  0  0  0  0  0
  147.8150  139.2885  153.9819 C   0  0  0  0  0  0  0  0  0  0  0  0
  149.1653  139.5999  154.2568 C   0  0  0  0  0  0  0  0  0  0  0  0
  149.5169  140.9173  154.6155 C   0  0  0  0  0  0  0  0  0  0  0  0
  148.5619  141.8679  154.7030 N   0  3  0  0  0  0  0  0  0  0  0  0
  147.2572  141.6157  154.4636 C   0  0  0  0  0  0  0  0  0  0  0  0
  146.8454  140.3170  154.1017 C   0  0  0  0  0  0  0  0  0  0  0  0
  142.2848  134.5715  156.1630 H   0  0  0  0  0  0  0  0  0  0  0  0
  143.1997  133.5558  155.0690 H   0  0  0  0  0  0  0  0  0  0  0  0
  144.1529  136.2461  152.8299 H   0  0  0  0  0  0  0  0  0  0  0  0
  143.0684  133.4368  153.0552 H   0  0  0  0  0  0  0  0  0  0  0  0
  142.8707  134.6028  151.7530 H   0  0  0  0  0  0  0  0  0  0  0  0
  144.6512  132.6300  151.4283 H   0  0  0  0  0  0  0  0  0  0  0  0
  145.1336  134.2711  151.0001 H   0  0  0  0  0  0  0  0  0  0  0  0
  145.7733  132.7585  153.5385 H   0  0  0  0  0  0  0  0  0  0  0  0
  146.8917  133.6543  152.5267 H   0  0  0  0  0  0  0  0  0  0  0  0
  145.6361  134.5997  154.8359 H   0  0  0  0  0  0  0  0  0  0  0  0
  147.3075  135.7260  152.9403 H   0  0  0  0  0  0  0  0  0  0  0  0
  148.1247  137.5117  152.9714 H   0  0  0  0  0  0  0  0  0  0  0  0
  149.9294  138.8388  154.1895 H   0  0  0  0  0  0  0  0  0  0  0  0
  150.5254  141.2358  154.8361 H   0  0  0  0  0  0  0  0  0  0  0  0
  146.5838  142.4532  154.5749 H   0  0  0  0  0  0  0  0  0  0  0  0
  145.7947  140.1340  153.9363 H   0  0  0  0  0  0  0  0  0  0  0  0
  148.8364  142.8149  154.9662 H   0  0  0  0  0  0  0  0  0  0  0  0
  1  2  1  0  0  0  0
  1 19  1  0  0  0  0
  1 20  1  0  0  0  0
  2  3  2  0  0  0  0
  2  4  1  0  0  0  0
  4  8  1  0  0  0  0
  4  5  1  0  0  0  0
  4 21  1  0  0  0  0
  5  6  1  0  0  0  0
  5 22  1  0  0  0  0
  5 23  1  0  0  0  0
  6  7  1  0  0  0  0
  6 24  1  0  0  0  0
  6 25  1  0  0  0  0
  7  8  1  0  0  0  0
  7 26  1  0  0  0  0
  7 27  1  0  0  0  0
  8  9  1  0  0  0  0
  8 28  1  0  0  0  0
  9 10  1  0  0  0  0
  9 29  1  0  0  0  0
 10 11  2  0  0  0  0
 10 12  1  0  0  0  0
 12 13  1  0  0  0  0
 12 30  1  0  0  0  0
 13 18  1  0  0  0  0
 13 14  2  0  0  0  0
 14 15  1  0  0  0  0
 14 31  1  0  0  0  0
 15 16  2  0  0  0  0
 15 32  1  0  0  0  0
 16 17  1  0  0  0  0
 16 35  1  0  0  0  0
 17 18  2  0  0  0  0
 17 33  1  0  0  0  0
 18 34  1  0  0  0  0
M  CHG  1  16   1
M  END
> <s_m_source_file>
AV-unprocessed.smi

> <i_m_source_file_index>
699

> <i_lp_mmshare_version>
43012

> <i_f3d_flags>
0

> <s_epik_input>
W05IMl1DKD1PKVtDQEBIXTFbQ0gyXVtDSDJdW0NIMl1bQ0BIXTFbTkhdQyg9TylbTkhdYzJbY0hdW2NIXW5bY0hdW2NIXTI=

> <s_epik_cmdline>
J2VwaWtfcHl0aG9uJywgJy1waCcsICc3LjAnLCAnLXRuJywgJzgnLCAnLW1hJywgJzIwMCcsICctbWV0YWxfYmluZGluZycsICctaW1hZScsICc8aW5maWxlLm1hZT4nLCAnLW9tYWUnLCAnPG91dGZpbGUubWFlPic=

> <r_epik_Ionization_Penalty>
1.0332

> <r_epik_Ionization_Penalty_Charging>
1.03318

> <r_epik_Ionization_Penalty_Neutral>
1.91967e-05

> <r_epik_State_Penalty>
1.08452

> <r_epik_Charging_Adjusted_Penalty>
2.11769

> <i_epik_Tot_Q>
1

> <i_epik_Tot_abs_Q>
1

> <r_epik_Metal_State_Penalty>
1.18144

> <b_epik_Metal_Only>
0

> <s_lp_Force_Field>
OPLS_2005

> <r_lp_Energy>
26.3794

> <b_lp_Chiralities_Consistent>
1

> <s_lp_Variant>
AV-unprocessed.smi:699-5

> <Gold.Version>
5.8.1

> <Gold.Id.Protein>
6NUR|6NUR_protein|mol2

> <Gold.PLP.Fitness>
42.0370

> <Gold.PLP.PLP>
-25.3394

> <Gold.PLP.part.hbond>
-5.0000

> <Gold.PLP.part.metal>
0.0000

> <Gold.PLP.part.buried>
-4.4948

> <Gold.PLP.part.nonpolar>
-17.7937

> <Gold.PLP.part.repulsive>
0.3950

> <Gold.PLP.ligand.clash>
0.0000

> <Gold.PLP.ligand.torsion>
0.5179

> <Gold.PLP.Chemscore.Hbond>
5.9104

> <Gold.PLP.Chemscore.CHOScore>
0.0000

> <Gold.PLP.Chemscore.Metal>
0.0000

> <Gold.Chemscore.Hbonds>
donor molecule, donor type, donor heavy atom, donor atom, acceptor molecule, acceptor atom, score
      L1  H     1    19       P1 11000  0.34
      L1  H     1    20       P1 10957  0.86
      L1  H     9    29       P1  7948  1.00
      L1  H    12    30       P1  7948  1.00
      L1  H    16    35       P1  8028  2.00

> <Gold.PLP.Chemscore.Internal.Correction>
0.0024

> <Gold.Rescore>
     Score         DG    S(hbond)    S(metal)    S(lipo)     H(rot)  DE(clash)    DE(int)     intcor
     19.96     -20.84       4.08        0.00      47.64       1.50       0.00       0.89       ----

> <Gold.Chemscore.Fitness>
19.9565

> <Gold.Chemscore.DG>
-20.8421

> <Gold.Chemscore.ZeroCoef>
-5.4800

> <Gold.Chemscore.Hbond>
4.0833

> <Gold.Chemscore.Metal>
0.0000

> <Gold.Chemscore.Lipo>
47.6380

> <Gold.Chemscore.Internal_Hbond>
0.0000

> <Gold.Chemscore.DEClash>
0.0000

> <Gold.Chemscore.DEInternal>
0.8856

> <Gold.Chemscore.Rot>
1.5038

> <Gold.Chemscore.Internal.Correction>
   9.000000E+99

> <Gold.Chemscore.Hbonds>
donor molecule, donor type, donor heavy atom, donor atom, acceptor molecule, acceptor atom, score
      L1  H     1    19       P1 11000  0.01
      L1  H     1    20       P1 10957  0.85
      L1  H     9    29       P1  7948  0.92
      L1  H    12    30       P1  7948  1.00
      L1  H    16    35       P1  8028  0.95

> <Gold.Chemscore.Hbond.Weighted>
-13.6381

> <Gold.Chemscore.Metal.Weighted>
-0.0000

> <Gold.Chemscore.Lipo.Weighted>
-5.5736

> <Gold.Chemscore.Internal_Hbond.Weighted>
0.0000

> <Gold.Chemscore.DEClash.Weighted>
0.0000

> <Gold.Chemscore.DEInternal.Weighted>
0.8856

> <Gold.Chemscore.Rot.Weighted>
3.8496

> <Gold.Chemscore.Internal.Correction.Weighted>
   9.000000E+99

> <Gold.Protein.RotatedTorsions>
[ 6907 6896 6895 6894 ] final   75.75 input  -60.11 | X-H torsion
[ 7974 7965 7964 7962 ] final -153.40 input  175.53 | X-H torsion
[ 8008 7997 7996 7995 ] final  128.81 input   59.86 | X-H torsion
[ 10167 10162 10161 10158 ] final  146.98 input  -65.29 | X-H torsion
[ 10718 10713 10712 10709 ] final    6.81 input   66.30 | X-H torsion
[ 10763 10752 10751 10750 ] final  -86.60 input  -60.55 | X-H torsion
[ 11005 11000 10999 10996 ] final  178.30 input  -57.11 | X-H torsion

> <Gold.Protein.ActiveResidues>
 VAL166  LYS551  ARG553  GLY616  TRP617  ASP618  TYR619  PRO620  LYS621  CYS622 
 ASP623  PHE694  ASN695  SER759  ASP760  ASP761  ALA762  ILE779  LEU786  VAL792 
 PHE793  MET794  SER795  GLU796  ALA797  LYS798  CYS799  TRP800  GLU811  SER814 

> <Gold.Protein.RotatedAtoms>
  152.5041  134.4073  159.9436 H   0  0  0  0  0  0  0  0  0  0  0  0  # atno 6907 bound_to 6896
  151.4039  133.3742  159.2743 H   0  0  0  0  0  0  0  0  0  0  0  0  # atno 6908 bound_to 6896
  150.9341  134.8776  159.7629 H   0  0  0  0  0  0  0  0  0  0  0  0  # atno 6909 bound_to 6896
  144.7742  140.4530  143.5885 H   0  0  0  0  0  0  0  0  0  0  0  0  # atno 7974 bound_to 7965
  156.2923  140.2635  156.2497 H   0  0  0  0  0  0  0  0  0  0  0  0  # atno 8008 bound_to 7997
  154.9895  140.0389  157.2331 H   0  0  0  0  0  0  0  0  0  0  0  0  # atno 8009 bound_to 7997
  154.7699  140.2776  155.6151 H   0  0  0  0  0  0  0  0  0  0  0  0  # atno 8010 bound_to 7997
  139.4898  144.5789  151.6910 H   0  0  0  0  0  0  0  0  0  0  0  0  # atno 10167 bound_to 10162
  156.9277  130.5814  149.5649 H   0  0  0  0  0  0  0  0  0  0  0  0  # atno 10718 bound_to 10713
  154.6242  135.5443  153.7609 H   0  0  0  0  0  0  0  0  0  0  0  0  # atno 10763 bound_to 10752
  153.0253  135.6420  154.1396 H   0  0  0  0  0  0  0  0  0  0  0  0  # atno 10764 bound_to 10752
  154.1329  135.2913  155.3160 H   0  0  0  0  0  0  0  0  0  0  0  0  # atno 10765 bound_to 10752
  140.3936  134.6840  157.4521 H   0  0  0  0  0  0  0  0  0  0  0  0  # atno 11005 bound_to 11000
  145.6233  139.1527  143.3010 LP  0  0  0  0  0  0  0  0  0  0  0  0  # atno 17320 bound_to 7965
  146.1911  140.6342  142.9145 LP  0  0  0  0  0  0  0  0  0  0  0  0  # atno 17321 bound_to 7965
  140.5391  144.0608  150.6081 LP  0  0  0  0  0  0  0  0  0  0  0  0  # atno 17342 bound_to 10162
  140.3624  143.2900  152.0369 LP  0  0  0  0  0  0  0  0  0  0  0  0  # atno 17343 bound_to 10162
  156.0462  130.5538  150.8885 LP  0  0  0  0  0  0  0  0  0  0  0  0  # atno 17370 bound_to 10713
  157.5867  131.0945  150.9184 LP  0  0  0  0  0  0  0  0  0  0  0  0  # atno 17371 bound_to 10713
  140.0388  134.6297  155.9008 LP  0  0  0  0  0  0  0  0  0  0  0  0  # atno 17394 bound_to 11000
  141.1882  133.6562  156.5314 LP  0  0  0  0  0  0  0  0  0  0  0  0  # atno 17395 bound_to 11000

$$$$
