AV-unprocessed.smi:2886|AV-procd|sdf|11091|dock3
  -GOLD-   2272015563D 1   1.00000     0.00000
 Structure written by MMmdl.
 28 30  0  0  0  0  0  0  0  0  3 V2000
  153.0780  136.5846  160.2808 O   0  0  0  0  0  0  0  0  0  0  0  0
  153.4411  137.7494  160.4313 C   0  0  0  0  0  0  0  0  0  0  0  0
  154.5275  138.1042  161.1804 N   0  5  0  0  0  0  0  0  0  0  0  0
  154.8934  139.3585  161.3239 N   0  3  0  0  0  0  0  0  0  0  0  0
  154.2533  140.3806  160.7648 C   0  0  0  0  0  0  0  0  0  0  0  0
  153.1077  140.1483  159.9535 C   0  0  0  0  0  0  0  0  0  0  0  0
  152.4051  141.1844  159.3512 N   0  0  0  0  0  0  0  0  0  0  0  0
  152.6650  142.6163  159.4124 C   0  0  2  0  0  0  0  0  0  0  0  0
  152.6176  143.1635  160.8413 C   0  0  0  0  0  0  0  0  0  0  0  0
  151.5663  144.2736  160.7155 C   0  0  1  0  0  0  0  0  0  0  0  0
  152.0630  145.4537  159.8680 C   0  0  0  0  0  0  0  0  0  0  0  0
  152.0142  144.8685  158.4566 C   0  0  0  0  0  0  0  0  0  0  0  0
  151.5547  143.4297  158.7275 C   0  0  2  0  0  0  0  0  0  0  0  0
  150.6665  143.6594  159.8098 O   0  0  0  0  0  0  0  0  0  0  0  0
  152.7033  138.8552  159.7928 C   0  0  0  0  0  0  0  0  0  0  0  0
  151.3157  138.4724  158.8282 Cl  0  0  0  0  0  0  0  0  0  0  0  0
  155.7143  139.6031  161.8996 H   0  0  0  0  0  0  0  0  0  0  0  0
  154.6422  141.3715  160.9619 H   0  0  0  0  0  0  0  0  0  0  0  0
  151.7118  140.9172  158.6661 H   0  0  0  0  0  0  0  0  0  0  0  0
  153.6186  142.8409  158.9349 H   0  0  0  0  0  0  0  0  0  0  0  0
  152.2822  142.4046  161.5500 H   0  0  0  0  0  0  0  0  0  0  0  0
  153.5835  143.5395  161.1801 H   0  0  0  0  0  0  0  0  0  0  0  0
  151.1179  144.5668  161.6650 H   0  0  0  0  0  0  0  0  0  0  0  0
  151.3880  146.3064  159.9520 H   0  0  0  0  0  0  0  0  0  0  0  0
  153.0629  145.7784  160.1578 H   0  0  0  0  0  0  0  0  0  0  0  0
  151.2798  145.3985  157.8493 H   0  0  0  0  0  0  0  0  0  0  0  0
  152.9757  144.9120  157.9442 H   0  0  0  0  0  0  0  0  0  0  0  0
  151.1037  142.9435  157.8615 H   0  0  0  0  0  0  0  0  0  0  0  0
  1  2  2  0  0  0  0
  2  3  1  0  0  0  0
  2 15  1  0  0  0  0
  3  4  1  0  0  0  0
  4  5  2  0  0  0  0
  4 17  1  0  0  0  0
  5  6  1  0  0  0  0
  5 18  1  0  0  0  0
  6 15  2  0  0  0  0
  6  7  1  0  0  0  0
  7  8  1  0  0  0  0
  7 19  1  0  0  0  0
  8 13  1  0  0  0  0
  8  9  1  0  0  0  0
  8 20  1  0  0  0  0
  9 10  1  0  0  0  0
  9 21  1  0  0  0  0
  9 22  1  0  0  0  0
 10 14  1  0  0  0  0
 10 11  1  0  0  0  0
 10 23  1  0  0  0  0
 11 12  1  0  0  0  0
 11 24  1  0  0  0  0
 11 25  1  0  0  0  0
 12 13  1  0  0  0  0
 12 26  1  0  0  0  0
 12 27  1  0  0  0  0
 13 14  1  0  0  0  0
 13 28  1  0  0  0  0
 15 16  1  0  0  0  0
M  CHG  1   3  -1
M  CHG  1   4   1
M  END
> <s_m_source_file>
AV-unprocessed.smi

> <i_m_source_file_index>
2886

> <i_lp_mmshare_version>
43012

> <i_f3d_flags>
0

> <s_epik_input>
Tz1jMVtuSF1uW2NIXWMoYzFDbClbTkhdW0NASF0oW0NIMl1bQ0BASF0yMylbQ0BASF0oTzMpW0NIMl1bQ0gyXTI=

> <s_epik_cmdline>
J2VwaWtfcHl0aG9uJywgJy1waCcsICc3LjAnLCAnLXRuJywgJzgnLCAnLW1hJywgJzIwMCcsICctbWV0YWxfYmluZGluZycsICctaW1hZScsICc8aW5maWxlLm1hZT4nLCAnLW9tYWUnLCAnPG91dGZpbGUubWFlPic=

> <r_lp_tautomer_probability>
0.0138196

> <r_epik_Ionization_Penalty>
2.43027

> <r_epik_Ionization_Penalty_Charging>
2.43027

> <r_epik_Ionization_Penalty_Neutral>
1.33267e-06

> <r_epik_State_Penalty>
2.7044

> <r_epik_Charging_Adjusted_Penalty>
5.13467

> <i_epik_Tot_Q>
0

> <i_epik_Tot_abs_Q>
2

> <r_epik_Metal_State_Penalty>
2.98589

> <b_epik_Metal_Only>
0

> <s_lp_Force_Field>
OPLS_2005

> <r_lp_Energy>
57.4961

> <b_lp_Chiralities_Consistent>
1

> <s_lp_Variant>
AV-unprocessed.smi:2886-5

> <Gold.Version>
5.8.1

> <Gold.Id.Protein>
6NUR|6NUR_protein|mol2

> <Gold.PLP.Fitness>
38.0591

> <Gold.PLP.PLP>
-35.0800

> <Gold.PLP.part.hbond>
-1.5877

> <Gold.PLP.part.metal>
0.0000

> <Gold.PLP.part.buried>
-5.6322

> <Gold.PLP.part.nonpolar>
-28.6391

> <Gold.PLP.part.repulsive>
0.1969

> <Gold.PLP.ligand.clash>
0.0000

> <Gold.PLP.ligand.torsion>
0.0198

> <Gold.PLP.Chemscore.Hbond>
1.0000

> <Gold.PLP.Chemscore.CHOScore>
0.0000

> <Gold.PLP.Chemscore.Metal>
0.0000

> <Gold.Chemscore.Hbonds>
donor molecule, donor type, donor heavy atom, donor atom, acceptor molecule, acceptor atom, score
      P1  H  6896  6907       L1     1  1.00

> <Gold.PLP.Chemscore.Internal.Correction>
0.0187

> <Gold.Rescore>
     Score         DG    S(hbond)    S(metal)    S(lipo)     H(rot)  DE(clash)    DE(int)     intcor
     17.80     -17.81       1.00        0.00      98.74       1.00       0.00       0.01       ----

> <Gold.Chemscore.Fitness>
17.8024

> <Gold.Chemscore.DG>
-17.8121

> <Gold.Chemscore.ZeroCoef>
-5.4800

> <Gold.Chemscore.Hbond>
1.0000

> <Gold.Chemscore.Metal>
0.0000

> <Gold.Chemscore.Lipo>
98.7363

> <Gold.Chemscore.Internal_Hbond>
0.0000

> <Gold.Chemscore.DEClash>
0.0004

> <Gold.Chemscore.DEInternal>
0.0093

> <Gold.Chemscore.Rot>
1.0000

> <Gold.Chemscore.Internal.Correction>
   9.000000E+99

> <Gold.Chemscore.Hbonds>
donor molecule, donor type, donor heavy atom, donor atom, acceptor molecule, acceptor atom, score
      P1  H  6896  6907       L1     1  1.00

> <Gold.Chemscore.Hbond.Weighted>
-3.3400

> <Gold.Chemscore.Metal.Weighted>
-0.0000

> <Gold.Chemscore.Lipo.Weighted>
-11.5521

> <Gold.Chemscore.Internal_Hbond.Weighted>
0.0000

> <Gold.Chemscore.DEClash.Weighted>
0.0004

> <Gold.Chemscore.DEInternal.Weighted>
0.0093

> <Gold.Chemscore.Rot.Weighted>
2.5600

> <Gold.Chemscore.Internal.Correction.Weighted>
   9.000000E+99

> <Gold.Protein.RotatedTorsions>
[ 6907 6896 6895 6894 ] final   36.30 input  -60.11 | X-H torsion
[ 7974 7965 7964 7962 ] final -155.76 input  175.53 | X-H torsion
[ 8008 7997 7996 7995 ] final -104.06 input   59.86 | X-H torsion
[ 10167 10162 10161 10158 ] final  -32.35 input  -65.29 | X-H torsion
[ 10718 10713 10712 10709 ] final   74.54 input   66.30 | X-H torsion
[ 10763 10752 10751 10750 ] final  107.15 input  -60.55 | X-H torsion
[ 11005 11000 10999 10996 ] final  164.49 input  -57.11 | X-H torsion

> <Gold.Protein.ActiveResidues>
 VAL166  LYS551  ARG553  GLY616  TRP617  ASP618  TYR619  PRO620  LYS621  CYS622 
 ASP623  PHE694  ASN695  SER759  ASP760  ASP761  ALA762  ILE779  LEU786  VAL792 
 PHE793  MET794  SER795  GLU796  ALA797  LYS798  CYS799  TRP800  GLU811  SER814 

> <Gold.Protein.RotatedAtoms>
  152.1278  134.9157  160.0559 H   0  0  0  0  0  0  0  0  0  0  0  0  # atno 6907 bound_to 6896
  152.0274  133.3918  159.4291 H   0  0  0  0  0  0  0  0  0  0  0  0  # atno 6908 bound_to 6896
  150.6854  134.3480  159.4940 H   0  0  0  0  0  0  0  0  0  0  0  0  # atno 6909 bound_to 6896
  144.7625  140.4204  143.5966 H   0  0  0  0  0  0  0  0  0  0  0  0  # atno 7974 bound_to 7965
  154.8798  140.0419  157.1775 H   0  0  0  0  0  0  0  0  0  0  0  0  # atno 8008 bound_to 7997
  154.8651  140.2950  155.5494 H   0  0  0  0  0  0  0  0  0  0  0  0  # atno 8009 bound_to 7997
  156.2999  140.2439  156.3631 H   0  0  0  0  0  0  0  0  0  0  0  0  # atno 8010 bound_to 7997
  140.7222  143.3701  151.1794 H   0  0  0  0  0  0  0  0  0  0  0  0  # atno 10167 bound_to 10162
  157.6596  130.9682  150.1225 H   0  0  0  0  0  0  0  0  0  0  0  0  # atno 10718 bound_to 10713
  153.4028  135.3853  155.1999 H   0  0  0  0  0  0  0  0  0  0  0  0  # atno 10763 bound_to 10752
  154.8731  135.3775  154.4597 H   0  0  0  0  0  0  0  0  0  0  0  0  # atno 10764 bound_to 10752
  153.5096  135.7087  153.5850 H   0  0  0  0  0  0  0  0  0  0  0  0  # atno 10765 bound_to 10752
  140.2465  134.8010  157.3461 H   0  0  0  0  0  0  0  0  0  0  0  0  # atno 11005 bound_to 11000
  145.6575  139.1575  143.2827 LP  0  0  0  0  0  0  0  0  0  0  0  0  # atno 17320 bound_to 7965
  146.1701  140.6658  142.9237 LP  0  0  0  0  0  0  0  0  0  0  0  0  # atno 17321 bound_to 7965
  139.7271  143.9131  152.3006 LP  0  0  0  0  0  0  0  0  0  0  0  0  # atno 17342 bound_to 10162
  139.8908  144.6967  150.8773 LP  0  0  0  0  0  0  0  0  0  0  0  0  # atno 17343 bound_to 10162
  156.2092  130.3665  149.8691 LP  0  0  0  0  0  0  0  0  0  0  0  0  # atno 17370 bound_to 10713
  156.6574  130.8768  151.3541 LP  0  0  0  0  0  0  0  0  0  0  0  0  # atno 17371 bound_to 10713
  140.1601  134.4739  155.7900 LP  0  0  0  0  0  0  0  0  0  0  0  0  # atno 17394 bound_to 11000
  141.2206  133.6898  156.7529 LP  0  0  0  0  0  0  0  0  0  0  0  0  # atno 17395 bound_to 11000

$$$$
