AV-unprocessed.smi:1622|AV-procd|sdf|6499|dock1
  -GOLD-   22720 7163D 1   1.00000     0.00000
 Structure written by MMmdl.
 40 41  0  0  0  0  0  0  0  0  3 V2000
  145.0475  133.3825  151.4130 C   0  0  0  0  0  0  0  0  0  0  0  0
  146.5763  133.3098  151.5514 C   0  0  0  0  0  0  0  0  0  0  0  0
  147.0803  132.3926  152.6993 C   0  0  2  0  0  0  0  0  0  0  0  0
  148.4805  132.8083  153.2154 C   0  0  0  0  0  0  0  0  0  0  0  0
  148.4866  134.1732  153.7272 N   0  0  0  0  0  0  0  0  0  0  0  0
  148.3683  134.5187  155.0154 C   0  0  0  0  0  0  0  0  0  0  0  0
  148.2253  133.6465  155.8751 O   0  0  0  0  0  0  0  0  0  0  0  0
  148.4267  135.8527  155.2253 N   0  5  0  0  0  0  0  0  0  0  0  0
  149.6144  136.4804  155.2292 C   0  0  0  0  0  0  0  0  0  0  0  0
  150.7149  135.9336  155.7651 N   0  0  0  0  0  0  0  0  0  0  0  0
  151.8318  136.7510  155.6668 N   0  0  0  0  0  0  0  0  0  0  0  0
  151.5552  137.9102  155.0649 C   0  0  0  0  0  0  0  0  0  0  0  0
  152.5838  138.9644  154.8378 C   0  0  0  0  0  0  0  0  0  0  0  0
  149.8818  138.0926  154.5669 S   0  0  0  0  0  0  0  0  0  0  0  0
  147.0445  130.9551  152.2994 N   0  3  0  0  0  0  0  0  0  0  0  0
  147.4423  129.9836  153.3414 C   0  0  0  0  0  0  0  0  0  0  0  0
  146.8779  128.6481  152.8713 C   0  0  0  0  0  0  0  0  0  0  0  0
  145.5449  129.0402  152.2451 C   0  0  0  0  0  0  0  0  0  0  0  0
  145.7495  130.4787  151.7497 C   0  0  0  0  0  0  0  0  0  0  0  0
  144.7685  134.0675  150.6122 H   0  0  0  0  0  0  0  0  0  0  0  0
  144.5786  133.7398  152.3297 H   0  0  0  0  0  0  0  0  0  0  0  0
  144.6192  132.4098  151.1709 H   0  0  0  0  0  0  0  0  0  0  0  0
  146.9947  132.9737  150.6024 H   0  0  0  0  0  0  0  0  0  0  0  0
  146.9642  134.3202  151.6761 H   0  0  0  0  0  0  0  0  0  0  0  0
  146.3854  132.5062  153.5332 H   0  0  0  0  0  0  0  0  0  0  0  0
  148.8033  132.1623  154.0321 H   0  0  0  0  0  0  0  0  0  0  0  0
  149.2201  132.7019  152.4201 H   0  0  0  0  0  0  0  0  0  0  0  0
  148.5973  134.9184  153.0552 H   0  0  0  0  0  0  0  0  0  0  0  0
  152.9519  139.3393  155.7930 H   0  0  0  0  0  0  0  0  0  0  0  0
  152.1581  139.7963  154.2764 H   0  0  0  0  0  0  0  0  0  0  0  0
  153.4219  138.5549  154.2735 H   0  0  0  0  0  0  0  0  0  0  0  0
  148.5241  129.9436  153.4727 H   0  0  0  0  0  0  0  0  0  0  0  0
  146.9901  130.2597  154.2957 H   0  0  0  0  0  0  0  0  0  0  0  0
  147.5318  128.2159  152.1127 H   0  0  0  0  0  0  0  0  0  0  0  0
  146.7718  127.9233  153.6791 H   0  0  0  0  0  0  0  0  0  0  0  0
  145.2443  128.3600  151.4477 H   0  0  0  0  0  0  0  0  0  0  0  0
  144.7638  129.0224  153.0062 H   0  0  0  0  0  0  0  0  0  0  0  0
  144.9169  131.0998  152.0827 H   0  0  0  0  0  0  0  0  0  0  0  0
  145.7833  130.5237  150.6607 H   0  0  0  0  0  0  0  0  0  0  0  0
  147.7190  130.8445  151.5558 H   0  0  0  0  0  0  0  0  0  0  0  0
  1  2  1  0  0  0  0
  1 20  1  0  0  0  0
  1 21  1  0  0  0  0
  1 22  1  0  0  0  0
  2  3  1  0  0  0  0
  2 23  1  0  0  0  0
  2 24  1  0  0  0  0
  3  4  1  0  0  0  0
  3 15  1  0  0  0  0
  3 25  1  0  0  0  0
  4  5  1  0  0  0  0
  4 26  1  0  0  0  0
  4 27  1  0  0  0  0
  5  6  1  0  0  0  0
  5 28  1  0  0  0  0
  6  7  2  0  0  0  0
  6  8  1  0  0  0  0
  8  9  1  0  0  0  0
  9 14  1  0  0  0  0
  9 10  2  0  0  0  0
 10 11  1  0  0  0  0
 11 12  2  0  0  0  0
 12 13  1  0  0  0  0
 12 14  1  0  0  0  0
 13 29  1  0  0  0  0
 13 30  1  0  0  0  0
 13 31  1  0  0  0  0
 15 19  1  0  0  0  0
 15 16  1  0  0  0  0
 15 40  1  0  0  0  0
 16 17  1  0  0  0  0
 16 32  1  0  0  0  0
 16 33  1  0  0  0  0
 17 18  1  0  0  0  0
 17 34  1  0  0  0  0
 17 35  1  0  0  0  0
 18 19  1  0  0  0  0
 18 36  1  0  0  0  0
 18 37  1  0  0  0  0
 19 38  1  0  0  0  0
 19 39  1  0  0  0  0
M  CHG  1   8  -1
M  CHG  1  15   1
M  END
> <s_m_source_file>
AV-unprocessed.smi

> <i_m_source_file_index>
1622

> <i_lp_mmshare_version>
43012

> <i_f3d_flags>
0

> <s_epik_input>
W0NIMl0xW0NIMl1bQ0gyXVtDSDJdTjFbQ0BIXShbQ0gyXVtDSDNdKVtDSDJdW05IXUMoPU8pW05IXWMybm5jKHMyKVtDSDNd

> <s_epik_cmdline>
J2VwaWtfcHl0aG9uJywgJy1waCcsICc3LjAnLCAnLXRuJywgJzgnLCAnLW1hJywgJzIwMCcsICctbWV0YWxfYmluZGluZycsICctaW1hZScsICc8aW5maWxlLm1hZT4nLCAnLW9tYWUnLCAnPG91dGZpbGUubWFlPic=

> <r_lp_tautomer_probability>
1

> <r_epik_Ionization_Penalty>
4.34497

> <r_epik_Ionization_Penalty_Charging>
4.23453

> <r_epik_Ionization_Penalty_Neutral>
0.110433

> <r_epik_State_Penalty>
4.23293

> <r_epik_Charging_Adjusted_Penalty>
8.46746

> <i_epik_Tot_Q>
0

> <i_epik_Tot_abs_Q>
2

> <r_epik_Metal_State_Penalty>
0.701092

> <b_epik_Metal_Only>
1

> <s_lp_Force_Field>
OPLS_2005

> <r_lp_Energy>
26.4527

> <b_lp_Chiralities_Consistent>
1

> <s_lp_Variant>
AV-unprocessed.smi:1622-3

> <Gold.Version>
5.8.1

> <Gold.Id.Protein>
6NUR|6NUR_protein|mol2

> <Gold.PLP.Fitness>
40.0787

> <Gold.PLP.PLP>
-33.5936

> <Gold.PLP.part.hbond>
-3.4022

> <Gold.PLP.part.metal>
0.0000

> <Gold.PLP.part.buried>
-4.0949

> <Gold.PLP.part.nonpolar>
-27.2648

> <Gold.PLP.part.repulsive>
0.2821

> <Gold.PLP.ligand.clash>
0.0000

> <Gold.PLP.ligand.torsion>
1.4342

> <Gold.PLP.Chemscore.Hbond>
3.0000

> <Gold.PLP.Chemscore.CHOScore>
0.0000

> <Gold.PLP.Chemscore.Metal>
0.0000

> <Gold.Chemscore.Hbonds>
donor molecule, donor type, donor heavy atom, donor atom, acceptor molecule, acceptor atom, score
      L1  H     5    28       P1  7948  1.00
      L1  H    15    40       P1 10747  1.00
      P1  H 10752 10765       L1    11  1.00

> <Gold.PLP.Chemscore.Internal.Correction>
0.3536

> <Gold.Rescore>
     Score         DG    S(hbond)    S(metal)    S(lipo)     H(rot)  DE(clash)    DE(int)     intcor
     16.12     -17.73       2.30        0.00      76.93       1.73       0.00       1.60       ----

> <Gold.Chemscore.Fitness>
16.1242

> <Gold.Chemscore.DG>
-17.7287

> <Gold.Chemscore.ZeroCoef>
-5.4800

> <Gold.Chemscore.Hbond>
2.3021

> <Gold.Chemscore.Metal>
0.0000

> <Gold.Chemscore.Lipo>
76.9306

> <Gold.Chemscore.Internal_Hbond>
0.0000

> <Gold.Chemscore.DEClash>
0.0000

> <Gold.Chemscore.DEInternal>
1.6045

> <Gold.Chemscore.Rot>
1.7348

> <Gold.Chemscore.Internal.Correction>
   9.000000E+99

> <Gold.Chemscore.Hbonds>
donor molecule, donor type, donor heavy atom, donor atom, acceptor molecule, acceptor atom, score
      L1  H     5    28       P1  7948  0.50
      L1  H    15    40       P1 10747  1.00
      P1  H 10752 10765       L1    11  0.29

> <Gold.Chemscore.Hbond.Weighted>
-7.6889

> <Gold.Chemscore.Metal.Weighted>
-0.0000

> <Gold.Chemscore.Lipo.Weighted>
-9.0009

> <Gold.Chemscore.Internal_Hbond.Weighted>
0.0000

> <Gold.Chemscore.DEClash.Weighted>
0.0000

> <Gold.Chemscore.DEInternal.Weighted>
1.6045

> <Gold.Chemscore.Rot.Weighted>
4.4411

> <Gold.Chemscore.Internal.Correction.Weighted>
   9.000000E+99

> <Gold.Protein.RotatedTorsions>
[ 6907 6896 6895 6894 ] final  -98.47 input  -60.11 | X-H torsion
[ 7974 7965 7964 7962 ] final   60.97 input  175.53 | X-H torsion
[ 8008 7997 7996 7995 ] final -147.86 input   59.86 | X-H torsion
[ 10167 10162 10161 10158 ] final -149.66 input  -65.29 | X-H torsion
[ 10718 10713 10712 10709 ] final   46.24 input   66.30 | X-H torsion
[ 10763 10752 10751 10750 ] final -153.98 input  -60.55 | X-H torsion
[ 11005 11000 10999 10996 ] final  -26.84 input  -57.11 | X-H torsion

> <Gold.Protein.ActiveResidues>
 VAL166  LYS551  ARG553  GLY616  TRP617  ASP618  TYR619  PRO620  LYS621  CYS622 
 ASP623  PHE694  ASN695  SER759  ASP760  ASP761  ALA762  ILE779  LEU786  VAL792 
 PHE793  MET794  SER795  GLU796  ALA797  LYS798  CYS799  TRP800  GLU811  SER814 

> <Gold.Protein.RotatedAtoms>
  150.7048  134.1190  159.4027 H   0  0  0  0  0  0  0  0  0  0  0  0  # atno 6907 bound_to 6896
  151.9177  135.0309  160.0529 H   0  0  0  0  0  0  0  0  0  0  0  0  # atno 6908 bound_to 6896
  152.2283  133.5002  159.5238 H   0  0  0  0  0  0  0  0  0  0  0  0  # atno 6909 bound_to 6896
  145.8901  139.3505  143.0654 H   0  0  0  0  0  0  0  0  0  0  0  0  # atno 7974 bound_to 7965
  155.5824  140.0644  157.2780 H   0  0  0  0  0  0  0  0  0  0  0  0  # atno 8008 bound_to 7997
  154.4328  140.1849  156.1037 H   0  0  0  0  0  0  0  0  0  0  0  0  # atno 8009 bound_to 7997
  156.0295  140.3308  155.7128 H   0  0  0  0  0  0  0  0  0  0  0  0  # atno 8010 bound_to 7997
  139.7423  143.8643  152.2565 H   0  0  0  0  0  0  0  0  0  0  0  0  # atno 10167 bound_to 10162
  157.4460  130.8110  149.7741 H   0  0  0  0  0  0  0  0  0  0  0  0  # atno 10718 bound_to 10713
  154.7890  135.3200  154.7820 H   0  0  0  0  0  0  0  0  0  0  0  0  # atno 10763 bound_to 10752
  153.8513  135.6862  153.4796 H   0  0  0  0  0  0  0  0  0  0  0  0  # atno 10764 bound_to 10752
  153.1553  135.4682  154.9635 H   0  0  0  0  0  0  0  0  0  0  0  0  # atno 10765 bound_to 10752
  140.9065  133.7489  156.0614 H   0  0  0  0  0  0  0  0  0  0  0  0  # atno 11005 bound_to 11000
  145.8919  140.9298  143.0548 LP  0  0  0  0  0  0  0  0  0  0  0  0  # atno 17320 bound_to 7965
  144.6730  140.0917  143.7465 LP  0  0  0  0  0  0  0  0  0  0  0  0  # atno 17321 bound_to 7965
  139.8597  144.7123  150.9114 LP  0  0  0  0  0  0  0  0  0  0  0  0  # atno 17342 bound_to 10162
  140.7787  143.3828  151.1447 LP  0  0  0  0  0  0  0  0  0  0  0  0  # atno 17343 bound_to 10162
  155.9967  130.3904  150.2767 LP  0  0  0  0  0  0  0  0  0  0  0  0  # atno 17370 bound_to 10713
  157.0935  131.0176  151.3113 LP  0  0  0  0  0  0  0  0  0  0  0  0  # atno 17371 bound_to 10713
  140.8164  134.3340  157.5396 LP  0  0  0  0  0  0  0  0  0  0  0  0  # atno 17394 bound_to 11000
  139.8750  134.9284  156.3449 LP  0  0  0  0  0  0  0  0  0  0  0  0  # atno 17395 bound_to 11000

$$$$
