AV-unprocessed.smi:2714|AV-procd|sdf|10481|dock6
  -GOLD-   2272014523D 1   1.00000     0.00000
 Structure written by MMmdl.
 46 47  0  0  0  0  0  0  0  0  1 V2000
  144.0177  143.7216  162.8737 C   0  0  0  0  0  0  0  0  0  0  0  0
  145.4007  143.7352  162.2140 C   0  0  0  0  0  0  0  0  0  0  0  0
  145.4271  144.5696  160.9201 C   0  0  0  0  0  0  0  0  0  0  0  0
  146.8399  144.7925  160.3361 C   0  0  1  0  0  0  0  0  0  0  0  0
  147.8273  145.2248  161.4338 C   0  0  0  0  0  0  0  0  0  0  0  0
  147.3707  143.5429  159.6186 C   0  0  0  0  0  0  0  0  0  0  0  0
  146.8648  142.4423  159.8389 O   0  0  0  0  0  0  0  0  0  0  0  0
  148.3920  143.7319  158.7684 N   0  0  0  0  0  0  0  0  0  0  0  0
  149.0944  142.6881  158.0294 C   0  0  0  0  0  0  0  0  0  0  0  0
  150.5249  142.5065  158.5191 C   0  0  0  0  0  0  0  0  0  0  0  0
  151.1035  143.4927  159.3466 C   0  0  0  0  0  0  0  0  0  0  0  0
  152.4159  143.3113  159.8190 C   0  0  0  0  0  0  0  0  0  0  0  0
  153.1026  142.1419  159.4454 C   0  0  0  0  0  0  0  0  0  0  0  0
  152.5645  141.1902  158.6554 N   0  0  0  0  0  0  0  0  0  0  0  0
  151.3000  141.3609  158.1973 C   0  0  0  0  0  0  0  0  0  0  0  0
  150.7786  140.3633  157.3562 N   0  0  0  0  0  0  0  0  0  0  0  0
  150.6446  139.0363  157.9459 C   0  0  0  0  0  0  0  0  0  0  0  0
  149.9086  138.1036  156.9693 C   0  0  0  0  0  0  0  0  0  0  0  0
  150.6042  138.0734  155.7259 O   0  0  0  0  0  0  0  0  0  0  0  0
  150.6692  139.3604  155.1174 C   0  0  0  0  0  0  0  0  0  0  0  0
  151.4125  140.3379  156.0446 C   0  0  0  0  0  0  0  0  0  0  0  0
  144.0287  143.1274  163.7876 H   0  0  0  0  0  0  0  0  0  0  0  0
  143.2673  143.2942  162.2081 H   0  0  0  0  0  0  0  0  0  0  0  0
  143.6975  144.7301  163.1370 H   0  0  0  0  0  0  0  0  0  0  0  0
  146.1268  144.1240  162.9286 H   0  0  0  0  0  0  0  0  0  0  0  0
  145.7025  142.7106  161.9941 H   0  0  0  0  0  0  0  0  0  0  0  0
  144.8162  144.0641  160.1711 H   0  0  0  0  0  0  0  0  0  0  0  0
  144.9424  145.5313  161.0973 H   0  0  0  0  0  0  0  0  0  0  0  0
  146.7808  145.6065  159.6116 H   0  0  0  0  0  0  0  0  0  0  0  0
  148.8324  145.3635  161.0332 H   0  0  0  0  0  0  0  0  0  0  0  0
  147.8867  144.4861  162.2341 H   0  0  0  0  0  0  0  0  0  0  0  0
  147.5224  146.1710  161.8814 H   0  0  0  0  0  0  0  0  0  0  0  0
  148.7342  144.6746  158.6506 H   0  0  0  0  0  0  0  0  0  0  0  0
  148.5699  141.7328  158.0719 H   0  0  0  0  0  0  0  0  0  0  0  0
  149.1025  142.9724  156.9768 H   0  0  0  0  0  0  0  0  0  0  0  0
  150.5485  144.3775  159.6225 H   0  0  0  0  0  0  0  0  0  0  0  0
  152.8834  144.0487  160.4546 H   0  0  0  0  0  0  0  0  0  0  0  0
  154.1111  141.9657  159.7893 H   0  0  0  0  0  0  0  0  0  0  0  0
  151.6302  138.6268  158.1722 H   0  0  0  0  0  0  0  0  0  0  0  0
  150.0958  139.1047  158.8860 H   0  0  0  0  0  0  0  0  0  0  0  0
  149.8623  137.0936  157.3762 H   0  0  0  0  0  0  0  0  0  0  0  0
  148.8801  138.4327  156.8148 H   0  0  0  0  0  0  0  0  0  0  0  0
  151.1921  139.2765  154.1646 H   0  0  0  0  0  0  0  0  0  0  0  0
  149.6634  139.7205  154.8968 H   0  0  0  0  0  0  0  0  0  0  0  0
  151.4160  141.3371  155.6078 H   0  0  0  0  0  0  0  0  0  0  0  0
  152.4536  140.0306  156.1530 H   0  0  0  0  0  0  0  0  0  0  0  0
  1  2  1  0  0  0  0
  1 22  1  0  0  0  0
  1 23  1  0  0  0  0
  1 24  1  0  0  0  0
  2  3  1  0  0  0  0
  2 25  1  0  0  0  0
  2 26  1  0  0  0  0
  3  4  1  0  0  0  0
  3 27  1  0  0  0  0
  3 28  1  0  0  0  0
  4  5  1  0  0  0  0
  4  6  1  0  0  0  0
  4 29  1  0  0  0  0
  5 30  1  0  0  0  0
  5 31  1  0  0  0  0
  5 32  1  0  0  0  0
  6  7  2  0  0  0  0
  6  8  1  0  0  0  0
  8  9  1  0  0  0  0
  8 33  1  0  0  0  0
  9 10  1  0  0  0  0
  9 34  1  0  0  0  0
  9 35  1  0  0  0  0
 10 15  1  0  0  0  0
 10 11  2  0  0  0  0
 11 12  1  0  0  0  0
 11 36  1  0  0  0  0
 12 13  2  0  0  0  0
 12 37  1  0  0  0  0
 13 14  1  0  0  0  0
 13 38  1  0  0  0  0
 14 15  2  0  0  0  0
 15 16  1  0  0  0  0
 16 21  1  0  0  0  0
 16 17  1  0  0  0  0
 17 18  1  0  0  0  0
 17 39  1  0  0  0  0
 17 40  1  0  0  0  0
 18 19  1  0  0  0  0
 18 41  1  0  0  0  0
 18 42  1  0  0  0  0
 19 20  1  0  0  0  0
 20 21  1  0  0  0  0
 20 43  1  0  0  0  0
 20 44  1  0  0  0  0
 21 45  1  0  0  0  0
 21 46  1  0  0  0  0
M  END
> <s_m_source_file>
AV-unprocessed.smi

> <i_m_source_file_index>
2714

> <i_lp_mmshare_version>
43012

> <i_f3d_flags>
0

> <s_epik_input>
W0NIM11bQ0gyXVtDSDJdW0NASF0oW0NIM10pQyg9TylbTkhdW0NIMl1jMVtjSF1bY0hdW2NIXW5jMU4yW0NIMl1bQ0gyXU9bQ0gyXVtDSDJdMg==

> <s_epik_cmdline>
J2VwaWtfcHl0aG9uJywgJy1waCcsICc3LjAnLCAnLXRuJywgJzgnLCAnLW1hJywgJzIwMCcsICctbWV0YWxfYmluZGluZycsICctaW1hZScsICc8aW5maWxlLm1hZT4nLCAnLW9tYWUnLCAnPG91dGZpbGUubWFlPic=

> <r_lp_tautomer_probability>
1

> <r_epik_Ionization_Penalty>
0.00517355

> <r_epik_Ionization_Penalty_Charging>
0

> <r_epik_Ionization_Penalty_Neutral>
0.00517355

> <r_epik_State_Penalty>
0.00376978

> <r_epik_Charging_Adjusted_Penalty>
0.00376978

> <i_epik_Tot_Q>
0

> <i_epik_Tot_abs_Q>
0

> <r_epik_Metal_State_Penalty>
-0

> <b_epik_Metal_Only>
0

> <s_lp_Force_Field>
OPLS_2005

> <r_lp_Energy>
17.5243

> <b_lp_Chiralities_Consistent>
1

> <s_lp_Variant>
AV-unprocessed.smi:2714-2

> <Gold.Version>
5.8.1

> <Gold.Id.Protein>
6NUR|6NUR_protein|mol2

> <Gold.PLP.Fitness>
43.6118

> <Gold.PLP.PLP>
-41.0442

> <Gold.PLP.part.hbond>
-3.1396

> <Gold.PLP.part.metal>
0.0000

> <Gold.PLP.part.buried>
-4.9450

> <Gold.PLP.part.nonpolar>
-34.1564

> <Gold.PLP.part.repulsive>
0.1596

> <Gold.PLP.ligand.clash>
0.0000

> <Gold.PLP.ligand.torsion>
0.8798

> <Gold.PLP.Chemscore.Hbond>
1.3760

> <Gold.PLP.Chemscore.CHOScore>
0.0000

> <Gold.PLP.Chemscore.Metal>
0.0000

> <Gold.Chemscore.Hbonds>
donor molecule, donor type, donor heavy atom, donor atom, acceptor molecule, acceptor atom, score
      L1  H     8    33       P1  8029  0.41
      P1  H  6933  6944       L1     7  0.04
      P1  H  6934  6946       L1     7  0.94

> <Gold.PLP.Chemscore.Internal.Correction>
0.1992

> <Gold.Rescore>
     Score         DG    S(hbond)    S(metal)    S(lipo)     H(rot)  DE(clash)    DE(int)     intcor
     16.65     -17.63       1.54        0.00      97.51       1.72       0.03       0.94       ----

> <Gold.Chemscore.Fitness>
16.6510

> <Gold.Chemscore.DG>
-17.6267

> <Gold.Chemscore.ZeroCoef>
-5.4800

> <Gold.Chemscore.Hbond>
1.5386

> <Gold.Chemscore.Metal>
0.0000

> <Gold.Chemscore.Lipo>
97.5110

> <Gold.Chemscore.Internal_Hbond>
0.0000

> <Gold.Chemscore.DEClash>
0.0350

> <Gold.Chemscore.DEInternal>
0.9408

> <Gold.Chemscore.Rot>
1.7192

> <Gold.Chemscore.Internal.Correction>
   9.000000E+99

> <Gold.Chemscore.Hbonds>
donor molecule, donor type, donor heavy atom, donor atom, acceptor molecule, acceptor atom, score
      L1  H     8    33       P1  8029  0.34
      P1  H  6934  6946       L1     7  0.91

> <Gold.Chemscore.Hbond.Weighted>
-5.1390

> <Gold.Chemscore.Metal.Weighted>
-0.0000

> <Gold.Chemscore.Lipo.Weighted>
-11.4088

> <Gold.Chemscore.Internal_Hbond.Weighted>
0.0000

> <Gold.Chemscore.DEClash.Weighted>
0.0350

> <Gold.Chemscore.DEInternal.Weighted>
0.9408

> <Gold.Chemscore.Rot.Weighted>
4.4011

> <Gold.Chemscore.Internal.Correction.Weighted>
   9.000000E+99

> <Gold.Protein.RotatedTorsions>
[ 6907 6896 6895 6894 ] final  136.74 input  -60.11 | X-H torsion
[ 7974 7965 7964 7962 ] final -157.05 input  175.53 | X-H torsion
[ 8008 7997 7996 7995 ] final -146.80 input   59.86 | X-H torsion
[ 10167 10162 10161 10158 ] final   -9.21 input  -65.29 | X-H torsion
[ 10718 10713 10712 10709 ] final -105.25 input   66.30 | X-H torsion
[ 10763 10752 10751 10750 ] final   79.59 input  -60.55 | X-H torsion
[ 11005 11000 10999 10996 ] final    2.12 input  -57.11 | X-H torsion

> <Gold.Protein.ActiveResidues>
 VAL166  LYS551  ARG553  GLY616  TRP617  ASP618  TYR619  PRO620  LYS621  CYS622 
 ASP623  PHE694  ASN695  SER759  ASP760  ASP761  ALA762  ILE779  LEU786  VAL792 
 PHE793  MET794  SER795  GLU796  ALA797  LYS798  CYS799  TRP800  GLU811  SER814 

> <Gold.Protein.RotatedAtoms>
  152.2860  133.5515  159.5527 H   0  0  0  0  0  0  0  0  0  0  0  0  # atno 6907 bound_to 6896
  150.7215  134.0497  159.3803 H   0  0  0  0  0  0  0  0  0  0  0  0  # atno 6908 bound_to 6896
  151.8405  135.0592  160.0498 H   0  0  0  0  0  0  0  0  0  0  0  0  # atno 6909 bound_to 6896
  144.7565  140.4023  143.6008 H   0  0  0  0  0  0  0  0  0  0  0  0  # atno 7974 bound_to 7965
  155.5652  140.0629  157.2819 H   0  0  0  0  0  0  0  0  0  0  0  0  # atno 8008 bound_to 7997
  154.4378  140.1878  156.0869 H   0  0  0  0  0  0  0  0  0  0  0  0  # atno 8009 bound_to 7997
  156.0417  140.3295  155.7255 H   0  0  0  0  0  0  0  0  0  0  0  0  # atno 8010 bound_to 7997
  140.7081  143.5883  150.8920 H   0  0  0  0  0  0  0  0  0  0  0  0  # atno 10167 bound_to 10162
  156.0338  130.5555  150.7513 H   0  0  0  0  0  0  0  0  0  0  0  0  # atno 10718 bound_to 10713
  153.0965  135.4834  154.8788 H   0  0  0  0  0  0  0  0  0  0  0  0  # atno 10763 bound_to 10752
  154.7330  135.3064  154.8861 H   0  0  0  0  0  0  0  0  0  0  0  0  # atno 10764 bound_to 10752
  153.9491  135.6825  153.4797 H   0  0  0  0  0  0  0  0  0  0  0  0  # atno 10765 bound_to 10752
  140.6079  133.9775  155.8163 H   0  0  0  0  0  0  0  0  0  0  0  0  # atno 11005 bound_to 11000
  145.6761  139.1609  143.2727 LP  0  0  0  0  0  0  0  0  0  0  0  0  # atno 17320 bound_to 7965
  146.1581  140.6828  142.9290 LP  0  0  0  0  0  0  0  0  0  0  0  0  # atno 17321 bound_to 7965
  139.9608  143.6165  152.3003 LP  0  0  0  0  0  0  0  0  0  0  0  0  # atno 17342 bound_to 10162
  139.6718  144.7660  151.1770 LP  0  0  0  0  0  0  0  0  0  0  0  0  # atno 17343 bound_to 10162
  157.5056  131.0922  151.0261 LP  0  0  0  0  0  0  0  0  0  0  0  0  # atno 17370 bound_to 10713
  157.0630  130.5833  149.5389 LP  0  0  0  0  0  0  0  0  0  0  0  0  # atno 17371 bound_to 10713
  141.0828  134.0036  157.3360 LP  0  0  0  0  0  0  0  0  0  0  0  0  # atno 17394 bound_to 11000
  139.9204  135.0200  156.8044 LP  0  0  0  0  0  0  0  0  0  0  0  0  # atno 17395 bound_to 11000

$$$$
