AV-unprocessed.smi:2902|AV-procd|sdf|11158|dock6
  -GOLD-   2272016 43D 1   1.00000     0.00000
 Structure written by MMmdl.
 47 48  0  0  0  0  0  0  0  0  1 V2000
  151.4704  138.6622  159.0850 C   0  0  0  0  0  0  0  0  0  0  0  0
  151.9425  140.1182  158.9863 C   0  0  0  0  0  0  0  0  0  0  0  0
  151.3028  140.8759  157.8079 C   0  0  1  0  0  0  0  0  0  0  0  0
  151.8400  142.1989  157.7920 O   0  0  0  0  0  0  0  0  0  0  0  0
  151.3125  143.1094  158.7532 C   0  0  0  0  0  0  0  0  0  0  0  0
  151.6318  144.5697  158.4222 C   0  0  0  0  0  0  0  0  0  0  0  0
  151.5472  145.2992  159.7667 C   0  0  0  0  0  0  0  0  0  0  0  0
  151.7970  144.2349  160.8474 C   0  0  0  0  0  0  0  0  0  0  0  0
  151.9991  142.9100  160.1033 C   0  0  0  0  0  0  0  0  0  0  0  0
  151.5787  140.1670  156.4718 C   0  0  0  0  0  0  0  0  0  0  0  0
  152.7347  140.0074  156.0797 O   0  0  0  0  0  0  0  0  0  0  0  0
  150.5020  139.7698  155.7753 N   0  0  0  0  0  0  0  0  0  0  0  0
  150.5274  139.1337  154.4598 C   0  0  1  0  0  0  0  0  0  0  0  0
  151.4678  137.9134  154.4962 C   0  0  0  0  0  0  0  0  0  0  0  0
  149.0847  138.7843  154.0122 C   0  0  1  0  0  0  0  0  0  0  0  0
  148.4188  137.7135  154.8970 C   0  0  0  0  0  0  0  0  0  0  0  0
  148.2410  139.9697  153.9481 N   0  0  0  0  0  0  0  0  0  0  0  0
  148.5508  141.2660  154.0295 C   0  0  0  0  0  0  0  0  0  0  0  0
  147.5061  142.0752  153.9246 N   0  0  0  0  0  0  0  0  0  0  0  0
  146.5146  141.1480  153.7712 C   0  0  0  0  0  0  0  0  0  0  0  0
  146.9009  139.8722  153.7790 N   0  0  0  0  0  0  0  0  0  0  0  0
  151.9514  138.1551  159.9215 H   0  0  0  0  0  0  0  0  0  0  0  0
  151.7099  138.1077  158.1775 H   0  0  0  0  0  0  0  0  0  0  0  0
  150.3924  138.6052  159.2393 H   0  0  0  0  0  0  0  0  0  0  0  0
  151.7232  140.6307  159.9240 H   0  0  0  0  0  0  0  0  0  0  0  0
  153.0284  140.1237  158.8802 H   0  0  0  0  0  0  0  0  0  0  0  0
  150.2248  140.9268  157.9753 H   0  0  0  0  0  0  0  0  0  0  0  0
  150.2371  142.9803  158.8907 H   0  0  0  0  0  0  0  0  0  0  0  0
  152.6481  144.6420  158.0324 H   0  0  0  0  0  0  0  0  0  0  0  0
  150.9635  144.9976  157.6757 H   0  0  0  0  0  0  0  0  0  0  0  0
  152.2660  146.1170  159.8223 H   0  0  0  0  0  0  0  0  0  0  0  0
  150.5531  145.7283  159.8969 H   0  0  0  0  0  0  0  0  0  0  0  0
  152.6608  144.4770  161.4677 H   0  0  0  0  0  0  0  0  0  0  0  0
  150.9307  144.1680  161.5067 H   0  0  0  0  0  0  0  0  0  0  0  0
  151.6055  142.0540  160.6519 H   0  0  0  0  0  0  0  0  0  0  0  0
  153.0663  142.7414  159.9505 H   0  0  0  0  0  0  0  0  0  0  0  0
  149.5921  139.9435  156.1772 H   0  0  0  0  0  0  0  0  0  0  0  0
  150.9332  139.8449  153.7375 H   0  0  0  0  0  0  0  0  0  0  0  0
  151.5911  137.4688  153.5086 H   0  0  0  0  0  0  0  0  0  0  0  0
  151.0858  137.1403  155.1635 H   0  0  0  0  0  0  0  0  0  0  0  0
  152.4625  138.1914  154.8462 H   0  0  0  0  0  0  0  0  0  0  0  0
  149.1426  138.3744  153.0018 H   0  0  0  0  0  0  0  0  0  0  0  0
  148.9621  136.7692  154.8643 H   0  0  0  0  0  0  0  0  0  0  0  0
  147.4007  137.5099  154.5635 H   0  0  0  0  0  0  0  0  0  0  0  0
  148.3689  138.0326  155.9385 H   0  0  0  0  0  0  0  0  0  0  0  0
  149.5608  141.6244  154.1665 H   0  0  0  0  0  0  0  0  0  0  0  0
  145.4766  141.4215  153.6508 H   0  0  0  0  0  0  0  0  0  0  0  0
  1  2  1  0  0  0  0
  1 22  1  0  0  0  0
  1 23  1  0  0  0  0
  1 24  1  0  0  0  0
  2  3  1  0  0  0  0
  2 25  1  0  0  0  0
  2 26  1  0  0  0  0
  3  4  1  0  0  0  0
  3 10  1  0  0  0  0
  3 27  1  0  0  0  0
  4  5  1  0  0  0  0
  5  9  1  0  0  0  0
  5  6  1  0  0  0  0
  5 28  1  0  0  0  0
  6  7  1  0  0  0  0
  6 29  1  0  0  0  0
  6 30  1  0  0  0  0
  7  8  1  0  0  0  0
  7 31  1  0  0  0  0
  7 32  1  0  0  0  0
  8  9  1  0  0  0  0
  8 33  1  0  0  0  0
  8 34  1  0  0  0  0
  9 35  1  0  0  0  0
  9 36  1  0  0  0  0
 10 11  2  0  0  0  0
 10 12  1  0  0  0  0
 12 13  1  0  0  0  0
 12 37  1  0  0  0  0
 13 14  1  0  0  0  0
 13 15  1  0  0  0  0
 13 38  1  0  0  0  0
 14 39  1  0  0  0  0
 14 40  1  0  0  0  0
 14 41  1  0  0  0  0
 15 16  1  0  0  0  0
 15 17  1  0  0  0  0
 15 42  1  0  0  0  0
 16 43  1  0  0  0  0
 16 44  1  0  0  0  0
 16 45  1  0  0  0  0
 17 21  1  0  0  0  0
 17 18  1  0  0  0  0
 18 19  2  0  0  0  0
 18 46  1  0  0  0  0
 19 20  1  0  0  0  0
 20 21  2  0  0  0  0
 20 47  1  0  0  0  0
M  END
> <s_m_source_file>
AV-unprocessed.smi

> <i_m_source_file_index>
2902

> <i_lp_mmshare_version>
43012

> <i_f3d_flags>
0

> <s_epik_input>
W0NIMl0xW0NIMl1bQ0gyXVtDSDJdW0NIXTFPW0NAQEhdKFtDSDJdW0NIM10pQyg9TylbTkhdW0NASF0oW0NIM10pW0NASF0oW0NIM10pbjJbY0hdbltjSF1uMg==

> <s_epik_cmdline>
J2VwaWtfcHl0aG9uJywgJy1waCcsICc3LjAnLCAnLXRuJywgJzgnLCAnLW1hJywgJzIwMCcsICctbWV0YWxfYmluZGluZycsICctaW1hZScsICc8aW5maWxlLm1hZT4nLCAnLW9tYWUnLCAnPG91dGZpbGUubWFlPic=

> <r_lp_tautomer_probability>
1

> <r_epik_Ionization_Penalty>
6.95617e-05

> <r_epik_Ionization_Penalty_Charging>
0

> <r_epik_Ionization_Penalty_Neutral>
6.95617e-05

> <r_epik_State_Penalty>
-0

> <r_epik_Charging_Adjusted_Penalty>
0

> <i_epik_Tot_Q>
0

> <i_epik_Tot_abs_Q>
0

> <r_epik_Metal_State_Penalty>
-0

> <b_epik_Metal_Only>
0

> <s_lp_Force_Field>
OPLS_2005

> <r_lp_Energy>
30.3462

> <b_lp_Chiralities_Consistent>
1

> <s_lp_Variant>
AV-unprocessed.smi:2902-8

> <Gold.Version>
5.8.1

> <Gold.Id.Protein>
6NUR|6NUR_protein|mol2

> <Gold.PLP.Fitness>
46.9227

> <Gold.PLP.PLP>
-42.2666

> <Gold.PLP.part.hbond>
-1.0000

> <Gold.PLP.part.metal>
0.0000

> <Gold.PLP.part.buried>
-1.6339

> <Gold.PLP.part.nonpolar>
-39.2081

> <Gold.PLP.part.repulsive>
0.3954

> <Gold.PLP.ligand.clash>
0.0000

> <Gold.PLP.ligand.torsion>
0.6922

> <Gold.PLP.Chemscore.Hbond>
1.0000

> <Gold.PLP.Chemscore.CHOScore>
0.9492

> <Gold.PLP.Chemscore.Metal>
0.0000

> <Gold.Chemscore.Hbonds>
donor molecule, donor type, donor heavy atom, donor atom, acceptor molecule, acceptor atom, score
      P1  H  7997  8010       L1    11  1.00
      L1  C    20    47       P1 10175  1.00

> <Gold.PLP.Chemscore.Internal.Correction>
0.1928

> <Gold.Rescore>
     Score         DG    S(hbond)    S(metal)    S(lipo)     H(rot)  DE(clash)    DE(int)     intcor
     10.97     -13.15       1.00        0.00      95.97       2.69       0.10       2.08       ----

> <Gold.Chemscore.Fitness>
10.9652

> <Gold.Chemscore.DG>
-13.1490

> <Gold.Chemscore.ZeroCoef>
-5.4800

> <Gold.Chemscore.Hbond>
0.9988

> <Gold.Chemscore.Metal>
0.0000

> <Gold.Chemscore.Lipo>
95.9683

> <Gold.Chemscore.Internal_Hbond>
0.0000

> <Gold.Chemscore.DEClash>
0.1036

> <Gold.Chemscore.DEInternal>
2.0802

> <Gold.Chemscore.Rot>
2.6935

> <Gold.Chemscore.Internal.Correction>
   9.000000E+99

> <Gold.Chemscore.Hbonds>
donor molecule, donor type, donor heavy atom, donor atom, acceptor molecule, acceptor atom, score
      P1  H  7997  8010       L1    11  0.97

> <Gold.Chemscore.Hbond.Weighted>
-3.3361

> <Gold.Chemscore.Metal.Weighted>
-0.0000

> <Gold.Chemscore.Lipo.Weighted>
-11.2283

> <Gold.Chemscore.Internal_Hbond.Weighted>
0.0000

> <Gold.Chemscore.DEClash.Weighted>
0.1036

> <Gold.Chemscore.DEInternal.Weighted>
2.0802

> <Gold.Chemscore.Rot.Weighted>
6.8954

> <Gold.Chemscore.Internal.Correction.Weighted>
   9.000000E+99

> <Gold.Protein.RotatedTorsions>
[ 6907 6896 6895 6894 ] final  -90.71 input  -60.11 | X-H torsion
[ 7974 7965 7964 7962 ] final  167.82 input  175.53 | X-H torsion
[ 8008 7997 7996 7995 ] final   68.62 input   59.86 | X-H torsion
[ 10167 10162 10161 10158 ] final -134.61 input  -65.29 | X-H torsion
[ 10718 10713 10712 10709 ] final -101.70 input   66.30 | X-H torsion
[ 10763 10752 10751 10750 ] final  -55.90 input  -60.55 | X-H torsion
[ 11005 11000 10999 10996 ] final  176.51 input  -57.11 | X-H torsion

> <Gold.Protein.ActiveResidues>
 VAL166  LYS551  ARG553  GLY616  TRP617  ASP618  TYR619  PRO620  LYS621  CYS622 
 ASP623  PHE694  ASN695  SER759  ASP760  ASP761  ALA762  ILE779  LEU786  VAL792 
 PHE793  MET794  SER795  GLU796  ALA797  LYS798  CYS799  TRP800  GLU811  SER814 

> <Gold.Protein.RotatedAtoms>
  150.6884  134.2389  159.4464 H   0  0  0  0  0  0  0  0  0  0  0  0  # atno 6907 bound_to 6896
  152.0335  134.9751  160.0582 H   0  0  0  0  0  0  0  0  0  0  0  0  # atno 6908 bound_to 6896
  152.1281  133.4357  159.4745 H   0  0  0  0  0  0  0  0  0  0  0  0  # atno 6909 bound_to 6896
  144.7410  139.8817  143.6397 H   0  0  0  0  0  0  0  0  0  0  0  0  # atno 7974 bound_to 7965
  155.7111  140.3494  155.4974 H   0  0  0  0  0  0  0  0  0  0  0  0  # atno 8008 bound_to 7997
  155.9354  140.1092  157.1120 H   0  0  0  0  0  0  0  0  0  0  0  0  # atno 8009 bound_to 7997
  154.4093  140.1223  156.4844 H   0  0  0  0  0  0  0  0  0  0  0  0  # atno 8010 bound_to 7997
  139.8862  143.6778  152.2619 H   0  0  0  0  0  0  0  0  0  0  0  0  # atno 10167 bound_to 10162
  156.0203  130.5385  150.7001 H   0  0  0  0  0  0  0  0  0  0  0  0  # atno 10718 bound_to 10713
  154.1981  135.6415  153.5079 H   0  0  0  0  0  0  0  0  0  0  0  0  # atno 10763 bound_to 10752
  153.0018  135.5445  154.6344 H   0  0  0  0  0  0  0  0  0  0  0  0  # atno 10764 bound_to 10752
  154.5750  135.2920  155.0763 H   0  0  0  0  0  0  0  0  0  0  0  0  # atno 10765 bound_to 10752
  140.3739  134.7005  157.4409 H   0  0  0  0  0  0  0  0  0  0  0  0  # atno 11005 bound_to 11000
  146.1206  139.4224  143.0230 LP  0  0  0  0  0  0  0  0  0  0  0  0  # atno 17320 bound_to 7965
  145.7310  141.0042  143.1352 LP  0  0  0  0  0  0  0  0  0  0  0  0  # atno 17321 bound_to 7965
  139.7150  144.7613  151.1048 LP  0  0  0  0  0  0  0  0  0  0  0  0  # atno 17342 bound_to 10162
  140.7735  143.5280  150.9456 LP  0  0  0  0  0  0  0  0  0  0  0  0  # atno 17343 bound_to 10162
  157.4663  131.0888  151.0691 LP  0  0  0  0  0  0  0  0  0  0  0  0  # atno 17370 bound_to 10713
  157.1165  130.6043  149.5494 LP  0  0  0  0  0  0  0  0  0  0  0  0  # atno 17371 bound_to 10713
  140.0530  134.6103  155.8839 LP  0  0  0  0  0  0  0  0  0  0  0  0  # atno 17394 bound_to 11000
  141.1945  133.6583  156.5600 LP  0  0  0  0  0  0  0  0  0  0  0  0  # atno 17395 bound_to 11000

$$$$
