AV-unprocessed.smi:1280|AV-procd|sdf|5357|dock8
  -GOLD-   22720 4493D 1   1.00000     0.00000
 Structure written by MMmdl.
 45 46  0  0  0  0  0  0  0  0  1 V2000
  149.1329  134.0918  155.4241 C   0  0  0  0  0  0  0  0  0  0  0  0
  150.5227  134.7012  156.4606 S   0  0  0  0  0  0  0  0  0  0  0  0
  151.3096  133.5436  156.9125 O   0  0  0  0  0  0  0  0  0  0  0  0
  151.1815  135.8198  155.7695 O   0  0  0  0  0  0  0  0  0  0  0  0
  149.7069  135.3496  157.8334 N   0  0  0  0  0  0  0  0  0  0  0  0
  149.8651  136.7756  158.1102 C   0  0  0  0  0  0  0  0  0  0  0  0
  151.3525  137.1430  158.1780 C   0  0  0  0  0  0  0  0  0  0  0  0
  151.6822  138.0110  159.4023 C   0  0  0  0  0  0  0  0  0  0  0  0
  151.5839  139.4315  159.0936 N   0  0  0  0  0  0  0  0  0  0  0  0
  152.6225  140.2786  159.0079 C   0  0  0  0  0  0  0  0  0  0  0  0
  153.7958  139.9283  159.1359 O   0  0  0  0  0  0  0  0  0  0  0  0
  152.2831  141.7065  158.6680 C   0  0  0  0  0  0  0  0  0  0  0  0
  152.6710  142.7225  159.5703 C   0  0  0  0  0  0  0  0  0  0  0  0
  152.3760  144.0651  159.2762 C   0  0  0  0  0  0  0  0  0  0  0  0
  151.6913  144.3483  158.0825 C   0  0  0  0  0  0  0  0  0  0  0  0
  151.2947  143.3938  157.2172 N   0  0  0  0  0  0  0  0  0  0  0  0
  151.5665  142.0942  157.4943 C   0  0  0  0  0  0  0  0  0  0  0  0
  151.0649  141.1442  156.5815 N   0  0  0  0  0  0  0  0  0  0  0  0
  150.2118  141.7093  155.5432 C   0  0  0  0  0  0  0  0  0  0  0  0
  149.4802  140.5794  154.7987 C   0  0  0  0  0  0  0  0  0  0  0  0
  150.4301  139.6496  154.2844 O   0  0  0  0  0  0  0  0  0  0  0  0
  151.2099  139.0502  155.3159 C   0  0  0  0  0  0  0  0  0  0  0  0
  151.9912  140.1391  156.0711 C   0  0  0  0  0  0  0  0  0  0  0  0
  149.5302  133.6514  154.5099 H   0  0  0  0  0  0  0  0  0  0  0  0
  148.4746  134.9217  155.1692 H   0  0  0  0  0  0  0  0  0  0  0  0
  148.5718  133.3369  155.9745 H   0  0  0  0  0  0  0  0  0  0  0  0
  148.7198  135.0934  157.8194 H   0  0  0  0  0  0  0  0  0  0  0  0
  149.3632  137.3498  157.3306 H   0  0  0  0  0  0  0  0  0  0  0  0
  149.3747  137.0108  159.0555 H   0  0  0  0  0  0  0  0  0  0  0  0
  151.9486  136.2297  158.2050 H   0  0  0  0  0  0  0  0  0  0  0  0
  151.6393  137.6734  157.2689 H   0  0  0  0  0  0  0  0  0  0  0  0
  150.9842  137.7938  160.2113 H   0  0  0  0  0  0  0  0  0  0  0  0
  152.6786  137.7777  159.7818 H   0  0  0  0  0  0  0  0  0  0  0  0
  150.6565  139.8052  158.9516 H   0  0  0  0  0  0  0  0  0  0  0  0
  153.2031  142.4812  160.4794 H   0  0  0  0  0  0  0  0  0  0  0  0
  152.6708  144.8580  159.9475 H   0  0  0  0  0  0  0  0  0  0  0  0
  151.4491  145.3671  157.8183 H   0  0  0  0  0  0  0  0  0  0  0  0
  149.4874  142.4033  155.9699 H   0  0  0  0  0  0  0  0  0  0  0  0
  150.8276  142.2799  154.8466 H   0  0  0  0  0  0  0  0  0  0  0  0
  148.7789  140.0696  155.4615 H   0  0  0  0  0  0  0  0  0  0  0  0
  148.8985  140.9884  153.9724 H   0  0  0  0  0  0  0  0  0  0  0  0
  150.5640  138.4926  155.9961 H   0  0  0  0  0  0  0  0  0  0  0  0
  151.8993  138.3332  154.8701 H   0  0  0  0  0  0  0  0  0  0  0  0
  152.7122  140.6084  155.4001 H   0  0  0  0  0  0  0  0  0  0  0  0
  152.5515  139.6962  156.8954 H   0  0  0  0  0  0  0  0  0  0  0  0
  1  2  1  0  0  0  0
  1 24  1  0  0  0  0
  1 25  1  0  0  0  0
  1 26  1  0  0  0  0
  2  3  2  0  0  0  0
  2  4  2  0  0  0  0
  2  5  1  0  0  0  0
  5  6  1  0  0  0  0
  5 27  1  0  0  0  0
  6  7  1  0  0  0  0
  6 28  1  0  0  0  0
  6 29  1  0  0  0  0
  7  8  1  0  0  0  0
  7 30  1  0  0  0  0
  7 31  1  0  0  0  0
  8  9  1  0  0  0  0
  8 32  1  0  0  0  0
  8 33  1  0  0  0  0
  9 10  1  0  0  0  0
  9 34  1  0  0  0  0
 10 11  2  0  0  0  0
 10 12  1  0  0  0  0
 12 17  1  0  0  0  0
 12 13  2  0  0  0  0
 13 14  1  0  0  0  0
 13 35  1  0  0  0  0
 14 15  2  0  0  0  0
 14 36  1  0  0  0  0
 15 16  1  0  0  0  0
 15 37  1  0  0  0  0
 16 17  2  0  0  0  0
 17 18  1  0  0  0  0
 18 23  1  0  0  0  0
 18 19  1  0  0  0  0
 19 20  1  0  0  0  0
 19 38  1  0  0  0  0
 19 39  1  0  0  0  0
 20 21  1  0  0  0  0
 20 40  1  0  0  0  0
 20 41  1  0  0  0  0
 21 22  1  0  0  0  0
 22 23  1  0  0  0  0
 22 42  1  0  0  0  0
 22 43  1  0  0  0  0
 23 44  1  0  0  0  0
 23 45  1  0  0  0  0
M  END
> <s_m_source_file>
AV-unprocessed.smi

> <i_m_source_file_index>
1280

> <i_lp_mmshare_version>
43012

> <i_f3d_flags>
0

> <s_epik_input>
W0NIM11TKD1PKSg9TylbTkhdW0NIMl1bQ0gyXVtDSDJdW05IXUMoPU8pYzFbY0hdW2NIXVtjSF1uYzFOMltDSDJdW0NIMl1PW0NIMl1bQ0gyXTI=

> <s_epik_cmdline>
J2VwaWtfcHl0aG9uJywgJy1waCcsICc3LjAnLCAnLXRuJywgJzgnLCAnLW1hJywgJzIwMCcsICctbWV0YWxfYmluZGluZycsICctaW1hZScsICc8aW5maWxlLm1hZT4nLCAnLW9tYWUnLCAnPG91dGZpbGUubWFlPic=

> <r_lp_tautomer_probability>
1

> <r_epik_Ionization_Penalty>
2.29251e-05

> <r_epik_Ionization_Penalty_Charging>
0

> <r_epik_Ionization_Penalty_Neutral>
2.29251e-05

> <r_epik_State_Penalty>
-0

> <r_epik_Charging_Adjusted_Penalty>
0

> <i_epik_Tot_Q>
0

> <i_epik_Tot_abs_Q>
0

> <r_epik_Metal_State_Penalty>
0.00766126

> <b_epik_Metal_Only>
0

> <s_lp_Force_Field>
OPLS_2005

> <r_lp_Energy>
17.2463

> <b_lp_Chiralities_Consistent>
1

> <s_lp_Variant>
AV-unprocessed.smi:1280-1

> <Gold.Version>
5.8.1

> <Gold.Id.Protein>
6NUR|6NUR_protein|mol2

> <Gold.PLP.Fitness>
49.2218

> <Gold.PLP.PLP>
-40.9500

> <Gold.PLP.part.hbond>
-4.6125

> <Gold.PLP.part.metal>
0.0000

> <Gold.PLP.part.buried>
-6.2479

> <Gold.PLP.part.nonpolar>
-30.2433

> <Gold.PLP.part.repulsive>
0.5293

> <Gold.PLP.ligand.clash>
0.0000

> <Gold.PLP.ligand.torsion>
1.8502

> <Gold.PLP.Chemscore.Hbond>
3.8480

> <Gold.PLP.Chemscore.CHOScore>
0.0000

> <Gold.PLP.Chemscore.Metal>
0.0000

> <Gold.Chemscore.Hbonds>
donor molecule, donor type, donor heavy atom, donor atom, acceptor molecule, acceptor atom, score
      P1  H  6896  6908       L1     5  0.75
      P1  H  7989  7998       L1    21  0.95
      P1  H  7997  8009       L1    11  0.62
      P1  H 10752 10764       L1     4  0.91

> <Gold.PLP.Chemscore.Internal.Correction>
0.4283

> <Gold.Rescore>
     Score         DG    S(hbond)    S(metal)    S(lipo)     H(rot)  DE(clash)    DE(int)     intcor
     12.15     -16.60       2.12        0.00      91.05       2.58       0.07       4.38       ----

> <Gold.Chemscore.Fitness>
12.1483

> <Gold.Chemscore.DG>
-16.6018

> <Gold.Chemscore.ZeroCoef>
-5.4800

> <Gold.Chemscore.Hbond>
2.1206

> <Gold.Chemscore.Metal>
0.0000

> <Gold.Chemscore.Lipo>
91.0496

> <Gold.Chemscore.Internal_Hbond>
0.0000

> <Gold.Chemscore.DEClash>
0.0708

> <Gold.Chemscore.DEInternal>
4.3828

> <Gold.Chemscore.Rot>
2.5835

> <Gold.Chemscore.Internal.Correction>
   9.000000E+99

> <Gold.Chemscore.Hbonds>
donor molecule, donor type, donor heavy atom, donor atom, acceptor molecule, acceptor atom, score
      P1  H  6896  6908       L1     5  0.09
      P1  H  7989  7998       L1    21  0.10
      P1  H  7997  8009       L1    11  0.39
      P1  H 10752 10764       L1     4  0.87

> <Gold.Chemscore.Hbond.Weighted>
-7.0828

> <Gold.Chemscore.Metal.Weighted>
-0.0000

> <Gold.Chemscore.Lipo.Weighted>
-10.6528

> <Gold.Chemscore.Internal_Hbond.Weighted>
0.0000

> <Gold.Chemscore.DEClash.Weighted>
0.0708

> <Gold.Chemscore.DEInternal.Weighted>
4.3828

> <Gold.Chemscore.Rot.Weighted>
6.6137

> <Gold.Chemscore.Internal.Correction.Weighted>
   9.000000E+99

> <Gold.Protein.RotatedTorsions>
[ 6907 6896 6895 6894 ] final  151.16 input  -60.11 | X-H torsion
[ 7974 7965 7964 7962 ] final -109.11 input  175.53 | X-H torsion
[ 8008 7997 7996 7995 ] final  143.25 input   59.86 | X-H torsion
[ 10167 10162 10161 10158 ] final  108.35 input  -65.29 | X-H torsion
[ 10718 10713 10712 10709 ] final  131.99 input   66.30 | X-H torsion
[ 10763 10752 10751 10750 ] final  -44.63 input  -60.55 | X-H torsion
[ 11005 11000 10999 10996 ] final -149.21 input  -57.11 | X-H torsion

> <Gold.Protein.ActiveResidues>
 VAL166  LYS551  ARG553  GLY616  TRP617  ASP618  TYR619  PRO620  LYS621  CYS622 
 ASP623  PHE694  ASN695  SER759  ASP760  ASP761  ALA762  ILE779  LEU786  VAL792 
 PHE793  MET794  SER795  GLU796  ALA797  LYS798  CYS799  TRP800  GLU811  SER814 

> <Gold.Protein.RotatedAtoms>
  152.1045  133.4267  159.4601 H   0  0  0  0  0  0  0  0  0  0  0  0  # atno 6907 bound_to 6896
  150.6865  134.2721  159.4602 H   0  0  0  0  0  0  0  0  0  0  0  0  # atno 6908 bound_to 6896
  152.0585  134.9609  160.0625 H   0  0  0  0  0  0  0  0  0  0  0  0  # atno 6909 bound_to 6896
  145.1845  140.8986  143.3460 H   0  0  0  0  0  0  0  0  0  0  0  0  # atno 7974 bound_to 7965
  156.2934  140.2267  156.4860 H   0  0  0  0  0  0  0  0  0  0  0  0  # atno 8008 bound_to 7997
  154.7811  140.0460  157.1149 H   0  0  0  0  0  0  0  0  0  0  0  0  # atno 8009 bound_to 7997
  154.9757  140.3072  155.4971 H   0  0  0  0  0  0  0  0  0  0  0  0  # atno 8010 bound_to 7997
  139.6853  144.7114  151.1443 H   0  0  0  0  0  0  0  0  0  0  0  0  # atno 10167 bound_to 10162
  157.4914  131.1090  150.9551 H   0  0  0  0  0  0  0  0  0  0  0  0  # atno 10718 bound_to 10713
  154.0153  135.6676  153.4768 H   0  0  0  0  0  0  0  0  0  0  0  0  # atno 10763 bound_to 10752
  153.0603  135.5031  154.8074 H   0  0  0  0  0  0  0  0  0  0  0  0  # atno 10764 bound_to 10752
  154.6970  135.3072  154.9360 H   0  0  0  0  0  0  0  0  0  0  0  0  # atno 10765 bound_to 10752
  140.7531  134.3384  157.5121 H   0  0  0  0  0  0  0  0  0  0  0  0  # atno 11005 bound_to 11000
  145.0103  139.3516  143.6123 LP  0  0  0  0  0  0  0  0  0  0  0  0  # atno 17320 bound_to 7965
  146.3447  139.9362  142.8747 LP  0  0  0  0  0  0  0  0  0  0  0  0  # atno 17321 bound_to 7965
  140.7665  143.5639  150.9069 LP  0  0  0  0  0  0  0  0  0  0  0  0  # atno 17342 bound_to 10162
  139.9313  143.6490  152.3075 LP  0  0  0  0  0  0  0  0  0  0  0  0  # atno 17343 bound_to 10162
  157.0252  130.5689  149.5336 LP  0  0  0  0  0  0  0  0  0  0  0  0  # atno 17370 bound_to 10713
  156.0176  130.5270  150.8180 LP  0  0  0  0  0  0  0  0  0  0  0  0  # atno 17371 bound_to 10713
  139.8784  134.9154  156.3131 LP  0  0  0  0  0  0  0  0  0  0  0  0  # atno 17394 bound_to 11000
  140.9732  133.7314  156.0565 LP  0  0  0  0  0  0  0  0  0  0  0  0  # atno 17395 bound_to 11000

$$$$
