AV-unprocessed.smi:2657|AV-procd|sdf|10307|dock10
  -GOLD-   2272014323D 1   1.00000     0.00000
 Structure written by MMmdl.
 46 48  0  0  0  0  0  0  0  0  1 V2000
  149.3287  135.0126  156.3233 O   0  0  0  0  0  0  0  0  0  0  0  0
  149.3909  135.3589  155.1441 C   0  0  0  0  0  0  0  0  0  0  0  0
  148.8404  134.6591  154.1421 N   0  0  0  0  0  0  0  0  0  0  0  0
  148.0699  133.4325  154.3083 C   0  0  0  0  0  0  0  0  0  0  0  0
  148.2932  132.4569  153.1342 C   0  0  0  0  0  0  0  0  0  0  0  0
  147.0397  132.1053  152.4569 N   0  0  0  0  0  0  0  0  0  0  0  0
  146.5664  130.8550  152.3557 C   0  0  0  0  0  0  0  0  0  0  0  0
  147.0858  129.8387  152.8160 O   0  0  0  0  0  0  0  0  0  0  0  0
  145.2635  130.8254  151.5686 C   0  0  0  0  0  0  0  0  0  0  0  0
  145.0352  132.2997  151.2216 C   0  0  0  0  0  0  0  0  0  0  0  0
  146.2409  132.9902  151.8439 C   0  0  0  0  0  0  0  0  0  0  0  0
  146.4241  134.2046  151.7669 O   0  0  0  0  0  0  0  0  0  0  0  0
  149.9924  136.4691  154.6832 N   0  0  0  0  0  0  0  0  0  0  0  0
  150.6457  137.5092  155.4011 C   0  0  0  0  0  0  0  0  0  0  0  0
  151.6092  138.3924  154.8590 C   0  0  0  0  0  0  0  0  0  0  0  0
  152.1740  139.3794  155.6892 C   0  0  0  0  0  0  0  0  0  0  0  0
  151.7635  139.4699  157.0401 C   0  0  0  0  0  0  0  0  0  0  0  0
  152.3175  140.4532  157.8888 N   0  0  0  0  0  0  0  0  0  0  0  0
  153.0446  140.0057  159.0756 C   0  0  0  0  0  0  0  0  0  0  0  0
  153.8173  141.1769  159.7054 C   0  0  0  0  0  0  0  0  0  0  0  0
  152.9221  142.2488  159.9810 O   0  0  0  0  0  0  0  0  0  0  0  0
  152.3091  142.7435  158.7951 C   0  0  0  0  0  0  0  0  0  0  0  0
  151.4840  141.6287  158.1295 C   0  0  0  0  0  0  0  0  0  0  0  0
  150.8413  138.6214  157.5561 N   0  0  0  0  0  0  0  0  0  0  0  0
  150.3023  137.6770  156.7574 C   0  0  0  0  0  0  0  0  0  0  0  0
  148.9386  135.0127  153.2016 H   0  0  0  0  0  0  0  0  0  0  0  0
  148.4335  132.9654  155.2238 H   0  0  0  0  0  0  0  0  0  0  0  0
  147.0117  133.6374  154.4809 H   0  0  0  0  0  0  0  0  0  0  0  0
  149.0329  132.8502  152.4342 H   0  0  0  0  0  0  0  0  0  0  0  0
  148.7344  131.5371  153.5219 H   0  0  0  0  0  0  0  0  0  0  0  0
  145.3736  130.2106  150.6746 H   0  0  0  0  0  0  0  0  0  0  0  0
  144.4560  130.4201  152.1789 H   0  0  0  0  0  0  0  0  0  0  0  0
  145.0137  132.4659  150.1443 H   0  0  0  0  0  0  0  0  0  0  0  0
  144.1104  132.6810  151.6559 H   0  0  0  0  0  0  0  0  0  0  0  0
  149.9399  136.6104  153.6849 H   0  0  0  0  0  0  0  0  0  0  0  0
  151.9314  138.3447  153.8318 H   0  0  0  0  0  0  0  0  0  0  0  0
  152.9224  140.0431  155.2832 H   0  0  0  0  0  0  0  0  0  0  0  0
  152.3383  139.5933  159.7977 H   0  0  0  0  0  0  0  0  0  0  0  0
  153.7450  139.2118  158.8132 H   0  0  0  0  0  0  0  0  0  0  0  0
  154.2879  140.8586  160.6358 H   0  0  0  0  0  0  0  0  0  0  0  0
  154.6164  141.5159  159.0442 H   0  0  0  0  0  0  0  0  0  0  0  0
  151.6642  143.5835  159.0533 H   0  0  0  0  0  0  0  0  0  0  0  0
  153.0698  143.1246  158.1119 H   0  0  0  0  0  0  0  0  0  0  0  0
  151.0495  142.0135  157.2081 H   0  0  0  0  0  0  0  0  0  0  0  0
  150.6534  141.3434  158.7764 H   0  0  0  0  0  0  0  0  0  0  0  0
  149.5717  137.0309  157.2216 H   0  0  0  0  0  0  0  0  0  0  0  0
  1  2  2  0  0  0  0
  2  3  1  0  0  0  0
  2 13  1  0  0  0  0
  3  4  1  0  0  0  0
  3 26  1  0  0  0  0
  4  5  1  0  0  0  0
  4 27  1  0  0  0  0
  4 28  1  0  0  0  0
  5  6  1  0  0  0  0
  5 29  1  0  0  0  0
  5 30  1  0  0  0  0
  6 11  1  0  0  0  0
  6  7  1  0  0  0  0
  7  8  2  0  0  0  0
  7  9  1  0  0  0  0
  9 10  1  0  0  0  0
  9 31  1  0  0  0  0
  9 32  1  0  0  0  0
 10 11  1  0  0  0  0
 10 33  1  0  0  0  0
 10 34  1  0  0  0  0
 11 12  2  0  0  0  0
 13 14  1  0  0  0  0
 13 35  1  0  0  0  0
 14 25  1  0  0  0  0
 14 15  2  0  0  0  0
 15 16  1  0  0  0  0
 15 36  1  0  0  0  0
 16 17  2  0  0  0  0
 16 37  1  0  0  0  0
 17 18  1  0  0  0  0
 17 24  1  0  0  0  0
 18 23  1  0  0  0  0
 18 19  1  0  0  0  0
 19 20  1  0  0  0  0
 19 38  1  0  0  0  0
 19 39  1  0  0  0  0
 20 21  1  0  0  0  0
 20 40  1  0  0  0  0
 20 41  1  0  0  0  0
 21 22  1  0  0  0  0
 22 23  1  0  0  0  0
 22 42  1  0  0  0  0
 22 43  1  0  0  0  0
 23 44  1  0  0  0  0
 23 45  1  0  0  0  0
 24 25  2  0  0  0  0
 25 46  1  0  0  0  0
M  END
> <s_m_source_file>
AV-unprocessed.smi

> <i_m_source_file_index>
2657

> <i_lp_mmshare_version>
43012

> <i_f3d_flags>
0

> <s_epik_input>
Tz1DMVtDSDJdW0NIMl1DKD1PKU4xW0NIMl1bQ0gyXVtOSF1DKD1PKVtOSF1jMltjSF1bY0hdYyhuW2NIXTIpTjNbQ0gyXVtDSDJdT1tDSDJdW0NIMl0z

> <s_epik_cmdline>
J2VwaWtfcHl0aG9uJywgJy1waCcsICc3LjAnLCAnLXRuJywgJzgnLCAnLW1hJywgJzIwMCcsICctbWV0YWxfYmluZGluZycsICctaW1hZScsICc8aW5maWxlLm1hZT4nLCAnLW9tYWUnLCAnPG91dGZpbGUubWFlPic=

> <r_lp_tautomer_probability>
1

> <r_epik_Ionization_Penalty>
0.00195667

> <r_epik_Ionization_Penalty_Charging>
0

> <r_epik_Ionization_Penalty_Neutral>
0.00195667

> <r_epik_State_Penalty>
0.0013118

> <r_epik_Charging_Adjusted_Penalty>
0.0013118

> <i_epik_Tot_Q>
0

> <i_epik_Tot_abs_Q>
0

> <r_epik_Metal_State_Penalty>
-0

> <b_epik_Metal_Only>
0

> <s_lp_Force_Field>
OPLS_2005

> <r_lp_Energy>
27.686

> <b_lp_Chiralities_Consistent>
1

> <s_lp_Variant>
AV-unprocessed.smi:2657-1

> <Gold.Version>
5.8.1

> <Gold.Id.Protein>
6NUR|6NUR_protein|mol2

> <Gold.PLP.Fitness>
43.4224

> <Gold.PLP.PLP>
-39.0721

> <Gold.PLP.part.hbond>
-2.2373

> <Gold.PLP.part.metal>
0.0000

> <Gold.PLP.part.buried>
-7.2466

> <Gold.PLP.part.nonpolar>
-30.8625

> <Gold.PLP.part.repulsive>
0.3768

> <Gold.PLP.ligand.clash>
0.0000

> <Gold.PLP.ligand.torsion>
0.9166

> <Gold.PLP.Chemscore.Hbond>
1.9440

> <Gold.PLP.Chemscore.CHOScore>
0.0000

> <Gold.PLP.Chemscore.Metal>
0.0000

> <Gold.Chemscore.Hbonds>
donor molecule, donor type, donor heavy atom, donor atom, acceptor molecule, acceptor atom, score
      L1  H     3    26       P1  7948  1.00
      L1  H    13    35       P1  7948  0.90

> <Gold.PLP.Chemscore.Internal.Correction>
0.3515

> <Gold.Rescore>
     Score         DG    S(hbond)    S(metal)    S(lipo)     H(rot)  DE(clash)    DE(int)     intcor
     14.44     -16.48       1.85        0.00      84.34       1.97       0.04       2.01       ----

> <Gold.Chemscore.Fitness>
14.4375

> <Gold.Chemscore.DG>
-16.4827

> <Gold.Chemscore.ZeroCoef>
-5.4800

> <Gold.Chemscore.Hbond>
1.8531

> <Gold.Chemscore.Metal>
0.0000

> <Gold.Chemscore.Lipo>
84.3350

> <Gold.Chemscore.Internal_Hbond>
0.0000

> <Gold.Chemscore.DEClash>
0.0364

> <Gold.Chemscore.DEInternal>
2.0088

> <Gold.Chemscore.Rot>
1.9742

> <Gold.Chemscore.Internal.Correction>
   9.000000E+99

> <Gold.Chemscore.Hbonds>
donor molecule, donor type, donor heavy atom, donor atom, acceptor molecule, acceptor atom, score
      L1  H     3    26       P1  7948  0.25
      L1  H    13    35       P1  7948  0.21

> <Gold.Chemscore.Hbond.Weighted>
-6.1895

> <Gold.Chemscore.Metal.Weighted>
-0.0000

> <Gold.Chemscore.Lipo.Weighted>
-9.8672

> <Gold.Chemscore.Internal_Hbond.Weighted>
0.0000

> <Gold.Chemscore.DEClash.Weighted>
0.0364

> <Gold.Chemscore.DEInternal.Weighted>
2.0088

> <Gold.Chemscore.Rot.Weighted>
5.0540

> <Gold.Chemscore.Internal.Correction.Weighted>
   9.000000E+99

> <Gold.Protein.RotatedTorsions>
[ 6907 6896 6895 6894 ] final   77.43 input  -60.11 | X-H torsion
[ 7974 7965 7964 7962 ] final -135.30 input  175.53 | X-H torsion
[ 8008 7997 7996 7995 ] final  145.26 input   59.86 | X-H torsion
[ 10167 10162 10161 10158 ] final -147.09 input  -65.29 | X-H torsion
[ 10718 10713 10712 10709 ] final  137.34 input   66.30 | X-H torsion
[ 10763 10752 10751 10750 ] final  -83.53 input  -60.55 | X-H torsion
[ 11005 11000 10999 10996 ] final   51.81 input  -57.11 | X-H torsion

> <Gold.Protein.ActiveResidues>
 VAL166  LYS551  ARG553  GLY616  TRP617  ASP618  TYR619  PRO620  LYS621  CYS622 
 ASP623  PHE694  ASN695  SER759  ASP760  ASP761  ALA762  ILE779  LEU786  VAL792 
 PHE793  MET794  SER795  GLU796  ALA797  LYS798  CYS799  TRP800  GLU811  SER814 

> <Gold.Protein.RotatedAtoms>
  152.5117  134.3817  159.9353 H   0  0  0  0  0  0  0  0  0  0  0  0  # atno 6907 bound_to 6896
  151.3775  133.3827  159.2714 H   0  0  0  0  0  0  0  0  0  0  0  0  # atno 6908 bound_to 6896
  150.9530  134.8948  159.7742 H   0  0  0  0  0  0  0  0  0  0  0  0  # atno 6909 bound_to 6896
  144.9026  140.6791  143.5075 H   0  0  0  0  0  0  0  0  0  0  0  0  # atno 7974 bound_to 7965
  156.2888  140.2214  156.5186 H   0  0  0  0  0  0  0  0  0  0  0  0  # atno 8008 bound_to 7997
  154.7547  140.0477  157.0945 H   0  0  0  0  0  0  0  0  0  0  0  0  # atno 8009 bound_to 7997
  155.0065  140.3108  155.4850 H   0  0  0  0  0  0  0  0  0  0  0  0  # atno 8010 bound_to 7997
  139.7653  143.8316  152.2615 H   0  0  0  0  0  0  0  0  0  0  0  0  # atno 10167 bound_to 10162
  157.4371  131.1054  151.0185 H   0  0  0  0  0  0  0  0  0  0  0  0  # atno 10718 bound_to 10713
  154.5888  135.5553  153.7258 H   0  0  0  0  0  0  0  0  0  0  0  0  # atno 10763 bound_to 10752
  153.0109  135.6338  154.1878 H   0  0  0  0  0  0  0  0  0  0  0  0  # atno 10764 bound_to 10752
  154.1819  135.2886  155.3029 H   0  0  0  0  0  0  0  0  0  0  0  0  # atno 10765 bound_to 10752
  140.0901  134.5220  155.8860 H   0  0  0  0  0  0  0  0  0  0  0  0  # atno 11005 bound_to 11000
  145.3591  139.1686  143.4393 LP  0  0  0  0  0  0  0  0  0  0  0  0  # atno 17320 bound_to 7965
  146.3116  140.3651  142.8668 LP  0  0  0  0  0  0  0  0  0  0  0  0  # atno 17321 bound_to 7965
  139.8335  144.7243  150.9421 LP  0  0  0  0  0  0  0  0  0  0  0  0  # atno 17342 bound_to 10162
  140.7810  143.4048  151.1088 LP  0  0  0  0  0  0  0  0  0  0  0  0  # atno 17343 bound_to 10162
  157.1061  130.6002  149.5471 LP  0  0  0  0  0  0  0  0  0  0  0  0  # atno 17370 bound_to 10713
  155.9934  130.4995  150.7381 LP  0  0  0  0  0  0  0  0  0  0  0  0  # atno 17371 bound_to 10713
  141.2075  133.6665  156.6311 LP  0  0  0  0  0  0  0  0  0  0  0  0  # atno 17394 bound_to 11000
  140.3364  134.7886  157.4365 LP  0  0  0  0  0  0  0  0  0  0  0  0  # atno 17395 bound_to 11000

$$$$
