AV-unprocessed.smi:3204|AV-procd|sdf|12253|dock9
  -GOLD-   2272018 83D 1   1.00000     0.00000
 Structure written by MMmdl.
 30 31  0  0  0  0  0  0  0  0  1 V2000
  152.8297  142.7954  162.0116 C   0  0  0  0  0  0  0  0  0  0  0  0
  153.0190  141.9567  160.7425 C   0  0  0  0  0  0  0  0  0  0  0  0
  152.4329  142.6300  159.5154 C   0  0  0  0  0  0  0  0  0  0  0  0
  152.8403  143.8942  159.2633 N   0  0  0  0  0  0  0  0  0  0  0  0
  152.3356  144.4831  158.1767 C   0  0  0  0  0  0  0  0  0  0  0  0
  151.4710  143.9514  157.3087 N   0  0  0  0  0  0  0  0  0  0  0  0
  151.0561  142.6835  157.5448 C   0  0  0  0  0  0  0  0  0  0  0  0
  150.1558  142.0727  156.6601 N   0  0  0  0  0  0  0  0  0  0  0  0
  150.6117  141.3877  155.4557 C   0  0  1  0  0  0  0  0  0  0  0  0
  151.5399  140.2218  155.7996 C   0  0  0  0  0  0  0  0  0  0  0  0
  151.3654  139.3254  154.7179 O   0  0  0  0  0  0  0  0  0  0  0  0
  149.9748  139.2812  154.4379 C   0  0  0  0  0  0  0  0  0  0  0  0
  149.4790  140.7137  154.6740 C   0  0  2  0  0  0  0  0  0  0  0  0
  149.2895  141.3545  153.4287 O   0  0  0  0  0  0  0  0  0  0  0  0
  151.5226  141.9638  158.6659 C   0  0  0  0  0  0  0  0  0  0  0  0
  151.1203  140.6925  158.9101 F   0  0  0  0  0  0  0  0  0  0  0  0
  153.2565  142.2901  162.8782 H   0  0  0  0  0  0  0  0  0  0  0  0
  151.7729  142.9706  162.2153 H   0  0  0  0  0  0  0  0  0  0  0  0
  153.3188  143.7653  161.9170 H   0  0  0  0  0  0  0  0  0  0  0  0
  154.0797  141.7624  160.5813 H   0  0  0  0  0  0  0  0  0  0  0  0
  152.5472  140.9819  160.8728 H   0  0  0  0  0  0  0  0  0  0  0  0
  152.6604  145.4936  157.9785 H   0  0  0  0  0  0  0  0  0  0  0  0
  149.1636  142.1417  156.8356 H   0  0  0  0  0  0  0  0  0  0  0  0
  151.1573  142.0816  154.8138 H   0  0  0  0  0  0  0  0  0  0  0  0
  152.5803  140.5304  155.9048 H   0  0  0  0  0  0  0  0  0  0  0  0
  151.2359  139.7236  156.7224 H   0  0  0  0  0  0  0  0  0  0  0  0
  149.7797  138.9075  153.4318 H   0  0  0  0  0  0  0  0  0  0  0  0
  149.5002  138.5981  155.1439 H   0  0  0  0  0  0  0  0  0  0  0  0
  148.5346  140.7054  155.2201 H   0  0  0  0  0  0  0  0  0  0  0  0
  149.1549  140.6891  152.7708 H   0  0  0  0  0  0  0  0  0  0  0  0
  1  2  1  0  0  0  0
  1 17  1  0  0  0  0
  1 18  1  0  0  0  0
  1 19  1  0  0  0  0
  2  3  1  0  0  0  0
  2 20  1  0  0  0  0
  2 21  1  0  0  0  0
  3 15  1  0  0  0  0
  3  4  2  0  0  0  0
  4  5  1  0  0  0  0
  5  6  2  0  0  0  0
  5 22  1  0  0  0  0
  6  7  1  0  0  0  0
  7  8  1  0  0  0  0
  7 15  2  0  0  0  0
  8  9  1  0  0  0  0
  8 23  1  0  0  0  0
  9 13  1  0  0  0  0
  9 10  1  0  0  0  0
  9 24  1  0  0  0  0
 10 11  1  0  0  0  0
 10 25  1  0  0  0  0
 10 26  1  0  0  0  0
 11 12  1  0  0  0  0
 12 13  1  0  0  0  0
 12 27  1  0  0  0  0
 12 28  1  0  0  0  0
 13 14  1  0  0  0  0
 13 29  1  0  0  0  0
 14 30  1  0  0  0  0
 15 16  1  0  0  0  0
M  END
> <s_m_source_file>
AV-unprocessed.smi

> <i_m_source_file_index>
3204

> <i_lp_mmshare_version>
43012

> <i_f3d_flags>
0

> <s_epik_input>
W0NIM11bQ0gyXWMxbltjSF1uYyhjMUYpW05IXVtDQEBIXTJbQ0gyXU9bQ0gyXVtDQEhdMltPSF0=

> <s_epik_cmdline>
J2VwaWtfcHl0aG9uJywgJy1waCcsICc3LjAnLCAnLXRuJywgJzgnLCAnLW1hJywgJzIwMCcsICctbWV0YWxfYmluZGluZycsICctaW1hZScsICc8aW5maWxlLm1hZT4nLCAnLW9tYWUnLCAnPG91dGZpbGUubWFlPic=

> <r_lp_tautomer_probability>
1

> <r_epik_Ionization_Penalty>
0.000484964

> <r_epik_Ionization_Penalty_Charging>
0

> <r_epik_Ionization_Penalty_Neutral>
0.000484964

> <r_epik_State_Penalty>
-0

> <r_epik_Charging_Adjusted_Penalty>
0

> <i_epik_Tot_Q>
0

> <i_epik_Tot_abs_Q>
0

> <r_epik_Metal_State_Penalty>
-0

> <b_epik_Metal_Only>
0

> <s_lp_Force_Field>
OPLS_2005

> <r_lp_Energy>
13.9367

> <b_lp_Chiralities_Consistent>
1

> <s_lp_Variant>
AV-unprocessed.smi:3204-4

> <Gold.Version>
5.8.1

> <Gold.Id.Protein>
6NUR|6NUR_protein|mol2

> <Gold.PLP.Fitness>
44.5095

> <Gold.PLP.PLP>
-40.5785

> <Gold.PLP.part.hbond>
-4.4285

> <Gold.PLP.part.metal>
0.0000

> <Gold.PLP.part.buried>
-5.4629

> <Gold.PLP.part.nonpolar>
-31.4948

> <Gold.PLP.part.repulsive>
0.7897

> <Gold.PLP.ligand.clash>
0.0000

> <Gold.PLP.ligand.torsion>
0.7977

> <Gold.PLP.Chemscore.Hbond>
1.8385

> <Gold.PLP.Chemscore.CHOScore>
0.0000

> <Gold.PLP.Chemscore.Metal>
0.0000

> <Gold.Chemscore.Hbonds>
donor molecule, donor type, donor heavy atom, donor atom, acceptor molecule, acceptor atom, score
      L1  H    14    30       P1  7957  0.94
      P1  H  7989  7998       L1    11  0.26
      P1  H  8011  8017       L1    14  0.58

> <Gold.PLP.Chemscore.Internal.Correction>
0.0108

> <Gold.Rescore>
     Score         DG    S(hbond)    S(metal)    S(lipo)     H(rot)  DE(clash)    DE(int)     intcor
     11.18     -12.39       1.00        0.00      70.57       1.83       0.30       0.90       ----

> <Gold.Chemscore.Fitness>
11.1837

> <Gold.Chemscore.DG>
-12.3867

> <Gold.Chemscore.ZeroCoef>
-5.4800

> <Gold.Chemscore.Hbond>
1.0011

> <Gold.Chemscore.Metal>
0.0000

> <Gold.Chemscore.Lipo>
70.5734

> <Gold.Chemscore.Internal_Hbond>
0.0000

> <Gold.Chemscore.DEClash>
0.3013

> <Gold.Chemscore.DEInternal>
0.9017

> <Gold.Chemscore.Rot>
1.8337

> <Gold.Chemscore.Internal.Correction>
   9.000000E+99

> <Gold.Chemscore.Hbonds>
donor molecule, donor type, donor heavy atom, donor atom, acceptor molecule, acceptor atom, score
      L1  H    14    30       P1  7957  0.91
      P1  H  8011  8017       L1    14  0.04

> <Gold.Chemscore.Hbond.Weighted>
-3.3438

> <Gold.Chemscore.Metal.Weighted>
-0.0000

> <Gold.Chemscore.Lipo.Weighted>
-8.2571

> <Gold.Chemscore.Internal_Hbond.Weighted>
0.0000

> <Gold.Chemscore.DEClash.Weighted>
0.3013

> <Gold.Chemscore.DEInternal.Weighted>
0.9017

> <Gold.Chemscore.Rot.Weighted>
4.6942

> <Gold.Chemscore.Internal.Correction.Weighted>
   9.000000E+99

> <Gold.Protein.RotatedTorsions>
[ 6907 6896 6895 6894 ] final -106.84 input  -60.11 | X-H torsion
[ 7974 7965 7964 7962 ] final  -60.52 input  175.53 | X-H torsion
[ 8008 7997 7996 7995 ] final   59.75 input   59.86 | X-H torsion
[ 10167 10162 10161 10158 ] final -118.35 input  -65.29 | X-H torsion
[ 10718 10713 10712 10709 ] final  -88.55 input   66.30 | X-H torsion
[ 10763 10752 10751 10750 ] final  -94.98 input  -60.55 | X-H torsion
[ 11005 11000 10999 10996 ] final -168.66 input  -57.11 | X-H torsion

> <Gold.Protein.ActiveResidues>
 VAL166  LYS551  ARG553  GLY616  TRP617  ASP618  TYR619  PRO620  LYS621  CYS622 
 ASP623  PHE694  ASN695  SER759  ASP760  ASP761  ALA762  ILE779  LEU786  VAL792 
 PHE793  MET794  SER795  GLU796  ALA797  LYS798  CYS799  TRP800  GLU811  SER814 

> <Gold.Protein.RotatedAtoms>
  150.7411  133.9916  159.3608 H   0  0  0  0  0  0  0  0  0  0  0  0  # atno 6907 bound_to 6896
  151.7865  135.0745  160.0390 H   0  0  0  0  0  0  0  0  0  0  0  0  # atno 6908 bound_to 6896
  152.3238  133.5846  159.5798 H   0  0  0  0  0  0  0  0  0  0  0  0  # atno 6909 bound_to 6896
  145.8145  140.8578  143.0165 H   0  0  0  0  0  0  0  0  0  0  0  0  # atno 7974 bound_to 7965
  155.5712  140.3490  155.4516 H   0  0  0  0  0  0  0  0  0  0  0  0  # atno 8008 bound_to 7997
  156.0443  140.1303  157.0147 H   0  0  0  0  0  0  0  0  0  0  0  0  # atno 8009 bound_to 7997
  154.4405  140.1018  156.6268 H   0  0  0  0  0  0  0  0  0  0  0  0  # atno 8010 bound_to 7997
  140.0584  143.4992  152.2045 H   0  0  0  0  0  0  0  0  0  0  0  0  # atno 10167 bound_to 10162
  155.9983  130.4840  150.5037 H   0  0  0  0  0  0  0  0  0  0  0  0  # atno 10718 bound_to 10713
  154.7106  135.5137  153.8661 H   0  0  0  0  0  0  0  0  0  0  0  0  # atno 10763 bound_to 10752
  153.0777  135.6621  154.0119 H   0  0  0  0  0  0  0  0  0  0  0  0  # atno 10764 bound_to 10752
  153.9961  135.3015  155.3387 H   0  0  0  0  0  0  0  0  0  0  0  0  # atno 10765 bound_to 10752
  140.5395  134.5537  157.5096 H   0  0  0  0  0  0  0  0  0  0  0  0  # atno 11005 bound_to 11000
  144.6754  140.0443  143.7480 LP  0  0  0  0  0  0  0  0  0  0  0  0  # atno 17320 bound_to 7965
  145.9742  139.2892  143.1081 LP  0  0  0  0  0  0  0  0  0  0  0  0  # atno 17321 bound_to 7965
  139.5909  144.7549  151.3403 LP  0  0  0  0  0  0  0  0  0  0  0  0  # atno 17342 bound_to 10162
  140.7183  143.7205  150.7700 LP  0  0  0  0  0  0  0  0  0  0  0  0  # atno 17343 bound_to 10162
  157.3018  131.0646  151.2063 LP  0  0  0  0  0  0  0  0  0  0  0  0  # atno 17370 bound_to 10713
  157.3039  130.6856  149.6179 LP  0  0  0  0  0  0  0  0  0  0  0  0  # atno 17371 bound_to 10713
  139.9512  134.7614  156.0445 LP  0  0  0  0  0  0  0  0  0  0  0  0  # atno 17394 bound_to 11000
  141.1235  133.6606  156.3277 LP  0  0  0  0  0  0  0  0  0  0  0  0  # atno 17395 bound_to 11000

$$$$
