AV-unprocessed.smi:2473|AV-procd|sdf|9744|dock6
  -GOLD-   2272013383D 1   1.00000     0.00000
 Structure written by MMmdl.
 48 49  0  0  0  0  0  0  0  0  2 V2000
  153.9059  141.6372  161.5729 C   0  0  0  0  0  0  0  0  0  0  0  0
  153.2247  142.1022  160.2778 C   0  0  1  0  0  0  0  0  0  0  0  0
  152.3403  140.9923  159.6846 C   0  0  0  0  0  0  0  0  0  0  0  0
  151.6574  141.4486  158.3812 C   0  0  1  0  0  0  0  0  0  0  0  0
  150.7822  140.3224  157.8161 C   0  0  0  0  0  0  0  0  0  0  0  0
  150.4085  139.3983  158.5390 O   0  0  0  0  0  0  0  0  0  0  0  0
  150.4821  140.3984  156.5108 N   0  0  0  0  0  0  0  0  0  0  0  0
  149.7262  139.3982  155.7634 C   0  0  0  0  0  0  0  0  0  0  0  0
  149.8868  139.5425  154.2361 C   0  0  0  0  0  0  0  0  0  0  0  0
  148.6033  139.8286  153.5110 C   0  0  0  0  0  0  0  0  0  0  0  0
  148.0116  139.0026  152.6398 N   0  3  0  0  0  0  0  0  0  0  0  0
  146.8532  139.5553  152.1669 C   0  0  0  0  0  0  0  0  0  0  0  0
  146.7319  140.7773  152.7744 C   0  0  0  0  0  0  0  0  0  0  0  0
  147.8231  140.9209  153.5924 N   0  0  0  0  0  0  0  0  0  0  0  0
  148.1245  142.0791  154.4364 C   0  0  0  0  0  0  0  0  0  0  0  0
  150.8332  142.7328  158.6276 C   0  0  0  0  0  0  0  0  0  0  0  0
  151.6617  143.8896  159.2401 C   0  0  0  0  0  0  0  0  0  0  0  0
  152.6606  144.4620  158.2104 C   0  0  0  0  0  0  0  0  0  0  0  0
  150.7023  145.0264  159.6438 C   0  0  0  0  0  0  0  0  0  0  0  0
  152.3974  143.3843  160.5071 C   0  0  0  0  0  0  0  0  0  0  0  0
  153.1727  141.3899  162.3411 H   0  0  0  0  0  0  0  0  0  0  0  0
  154.5585  142.4134  161.9735 H   0  0  0  0  0  0  0  0  0  0  0  0
  154.5176  140.7514  161.3990 H   0  0  0  0  0  0  0  0  0  0  0  0
  154.0176  142.3227  159.5630 H   0  0  0  0  0  0  0  0  0  0  0  0
  152.9476  140.1062  159.4931 H   0  0  0  0  0  0  0  0  0  0  0  0
  151.5872  140.6970  160.4176 H   0  0  0  0  0  0  0  0  0  0  0  0
  152.4325  141.6675  157.6459 H   0  0  0  0  0  0  0  0  0  0  0  0
  150.8209  141.1972  155.9940 H   0  0  0  0  0  0  0  0  0  0  0  0
  150.0075  138.3938  156.0835 H   0  0  0  0  0  0  0  0  0  0  0  0
  148.6765  139.5233  156.0302 H   0  0  0  0  0  0  0  0  0  0  0  0
  150.5942  140.3367  154.0003 H   0  0  0  0  0  0  0  0  0  0  0  0
  150.2920  138.6252  153.8082 H   0  0  0  0  0  0  0  0  0  0  0  0
  146.2193  139.0516  151.4518 H   0  0  0  0  0  0  0  0  0  0  0  0
  145.9695  141.5377  152.6847 H   0  0  0  0  0  0  0  0  0  0  0  0
  147.3068  142.7978  154.3767 H   0  0  0  0  0  0  0  0  0  0  0  0
  149.0443  142.5490  154.0876 H   0  0  0  0  0  0  0  0  0  0  0  0
  148.2422  141.7584  155.4706 H   0  0  0  0  0  0  0  0  0  0  0  0
  150.3729  143.0621  157.6946 H   0  0  0  0  0  0  0  0  0  0  0  0
  150.0064  142.5002  159.3011 H   0  0  0  0  0  0  0  0  0  0  0  0
  153.2246  145.2951  158.6309 H   0  0  0  0  0  0  0  0  0  0  0  0
  152.1431  144.8339  157.3253 H   0  0  0  0  0  0  0  0  0  0  0  0
  153.3861  143.7241  157.8713 H   0  0  0  0  0  0  0  0  0  0  0  0
  151.2424  145.8654  160.0840 H   0  0  0  0  0  0  0  0  0  0  0  0
  149.9685  144.6902  160.3772 H   0  0  0  0  0  0  0  0  0  0  0  0
  150.1516  145.4063  158.7825 H   0  0  0  0  0  0  0  0  0  0  0  0
  151.6642  143.1846  161.2901 H   0  0  0  0  0  0  0  0  0  0  0  0
  153.0423  144.1726  160.8983 H   0  0  0  0  0  0  0  0  0  0  0  0
  148.3727  138.0959  152.3711 H   0  0  0  0  0  0  0  0  0  0  0  0
  1  2  1  0  0  0  0
  1 21  1  0  0  0  0
  1 22  1  0  0  0  0
  1 23  1  0  0  0  0
  2 20  1  0  0  0  0
  2  3  1  0  0  0  0
  2 24  1  0  0  0  0
  3  4  1  0  0  0  0
  3 25  1  0  0  0  0
  3 26  1  0  0  0  0
  4  5  1  0  0  0  0
  4 16  1  0  0  0  0
  4 27  1  0  0  0  0
  5  6  2  0  0  0  0
  5  7  1  0  0  0  0
  7  8  1  0  0  0  0
  7 28  1  0  0  0  0
  8  9  1  0  0  0  0
  8 29  1  0  0  0  0
  8 30  1  0  0  0  0
  9 10  1  0  0  0  0
  9 31  1  0  0  0  0
  9 32  1  0  0  0  0
 10 14  1  0  0  0  0
 10 11  2  0  0  0  0
 11 12  1  0  0  0  0
 11 48  1  0  0  0  0
 12 13  2  0  0  0  0
 12 33  1  0  0  0  0
 13 14  1  0  0  0  0
 13 34  1  0  0  0  0
 14 15  1  0  0  0  0
 15 35  1  0  0  0  0
 15 36  1  0  0  0  0
 15 37  1  0  0  0  0
 16 17  1  0  0  0  0
 16 38  1  0  0  0  0
 16 39  1  0  0  0  0
 17 18  1  0  0  0  0
 17 19  1  0  0  0  0
 17 20  1  0  0  0  0
 18 40  1  0  0  0  0
 18 41  1  0  0  0  0
 18 42  1  0  0  0  0
 19 43  1  0  0  0  0
 19 44  1  0  0  0  0
 19 45  1  0  0  0  0
 20 46  1  0  0  0  0
 20 47  1  0  0  0  0
M  CHG  1  11   1
M  END
> <s_m_source_file>
AV-unprocessed.smi

> <i_m_source_file_index>
2473

> <i_lp_mmshare_version>
43012

> <i_f3d_flags>
0

> <s_epik_input>
W0NIM11bQ0BASF0oW0NIMl0xKVtDSDJdW0NASF0oW0NIMl1DMShbQ0gzXSlbQ0gzXSlDKD1PKVtOSF1bQ0gyXVtDSDJdYzJuW2NIXVtjSF1uMltDSDNd

> <s_epik_cmdline>
J2VwaWtfcHl0aG9uJywgJy1waCcsICc3LjAnLCAnLXRuJywgJzgnLCAnLW1hJywgJzIwMCcsICctbWV0YWxfYmluZGluZycsICctaW1hZScsICc8aW5maWxlLm1hZT4nLCAnLW9tYWUnLCAnPG91dGZpbGUubWFlPic=

> <r_lp_tautomer_probability>
1

> <r_epik_Ionization_Penalty>
0.0796112

> <r_epik_Ionization_Penalty_Charging>
0

> <r_epik_Ionization_Penalty_Neutral>
0.0796112

> <r_epik_State_Penalty>
0.0704541

> <r_epik_Charging_Adjusted_Penalty>
0.0704541

> <i_epik_Tot_Q>
1

> <i_epik_Tot_abs_Q>
1

> <r_epik_Metal_State_Penalty>
0.409899

> <b_epik_Metal_Only>
0

> <s_lp_Force_Field>
OPLS_2005

> <r_lp_Energy>
16.0975

> <b_lp_Chiralities_Consistent>
1

> <s_lp_Variant>
AV-unprocessed.smi:2473-2

> <Gold.Version>
5.8.1

> <Gold.Id.Protein>
6NUR|6NUR_protein|mol2

> <Gold.PLP.Fitness>
52.2037

> <Gold.PLP.PLP>
-45.4154

> <Gold.PLP.part.hbond>
-2.0000

> <Gold.PLP.part.metal>
0.0000

> <Gold.PLP.part.buried>
0.6929

> <Gold.PLP.part.nonpolar>
-44.3389

> <Gold.PLP.part.repulsive>
0.1087

> <Gold.PLP.ligand.clash>
0.0000

> <Gold.PLP.ligand.torsion>
1.0342

> <Gold.PLP.Chemscore.Hbond>
2.0000

> <Gold.PLP.Chemscore.CHOScore>
0.9441

> <Gold.PLP.Chemscore.Metal>
0.0000

> <Gold.Chemscore.Hbonds>
donor molecule, donor type, donor heavy atom, donor atom, acceptor molecule, acceptor atom, score
      L1  H    11    48       P1  7948  2.00
      L1  C    13    34       P1 10175  0.24

> <Gold.PLP.Chemscore.Internal.Correction>
0.0246

> <Gold.Rescore>
     Score         DG    S(hbond)    S(metal)    S(lipo)     H(rot)  DE(clash)    DE(int)     intcor
     18.29     -19.41       1.00        0.00     125.28       1.58       0.17       0.95       ----

> <Gold.Chemscore.Fitness>
18.2923

> <Gold.Chemscore.DG>
-19.4135

> <Gold.Chemscore.ZeroCoef>
-5.4800

> <Gold.Chemscore.Hbond>
0.9955

> <Gold.Chemscore.Metal>
0.0000

> <Gold.Chemscore.Lipo>
125.2823

> <Gold.Chemscore.Internal_Hbond>
0.0000

> <Gold.Chemscore.DEClash>
0.1688

> <Gold.Chemscore.DEInternal>
0.9524

> <Gold.Chemscore.Rot>
1.5818

> <Gold.Chemscore.Internal.Correction>
   9.000000E+99

> <Gold.Chemscore.Hbonds>
donor molecule, donor type, donor heavy atom, donor atom, acceptor molecule, acceptor atom, score
      L1  H    11    48       P1  7948  0.97

> <Gold.Chemscore.Hbond.Weighted>
-3.3249

> <Gold.Chemscore.Metal.Weighted>
-0.0000

> <Gold.Chemscore.Lipo.Weighted>
-14.6580

> <Gold.Chemscore.Internal_Hbond.Weighted>
0.0000

> <Gold.Chemscore.DEClash.Weighted>
0.1688

> <Gold.Chemscore.DEInternal.Weighted>
0.9524

> <Gold.Chemscore.Rot.Weighted>
4.0495

> <Gold.Chemscore.Internal.Correction.Weighted>
   9.000000E+99

> <Gold.Protein.RotatedTorsions>
[ 6907 6896 6895 6894 ] final   61.14 input  -60.11 | X-H torsion
[ 7974 7965 7964 7962 ] final -164.22 input  175.53 | X-H torsion
[ 8008 7997 7996 7995 ] final   60.98 input   59.86 | X-H torsion
[ 10167 10162 10161 10158 ] final  157.17 input  -65.29 | X-H torsion
[ 10718 10713 10712 10709 ] final  -14.29 input   66.30 | X-H torsion
[ 10763 10752 10751 10750 ] final  -81.19 input  -60.55 | X-H torsion
[ 11005 11000 10999 10996 ] final  129.65 input  -57.11 | X-H torsion

> <Gold.Protein.ActiveResidues>
 VAL166  LYS551  ARG553  GLY616  TRP617  ASP618  TYR619  PRO620  LYS621  CYS622 
 ASP623  PHE694  ASN695  SER759  ASP760  ASP761  ALA762  ILE779  LEU786  VAL792 
 PHE793  MET794  SER795  GLU796  ALA797  LYS798  CYS799  TRP800  GLU811  SER814 

> <Gold.Protein.RotatedAtoms>
  152.4064  134.6200  160.0048 H   0  0  0  0  0  0  0  0  0  0  0  0  # atno 6907 bound_to 6896
  151.6390  133.3321  159.3134 H   0  0  0  0  0  0  0  0  0  0  0  0  # atno 6908 bound_to 6896
  150.7958  134.7058  159.6620 H   0  0  0  0  0  0  0  0  0  0  0  0  # atno 6909 bound_to 6896
  144.7303  140.2992  143.6207 H   0  0  0  0  0  0  0  0  0  0  0  0  # atno 7974 bound_to 7965
  155.5911  140.3493  155.4567 H   0  0  0  0  0  0  0  0  0  0  0  0  # atno 8008 bound_to 7997
  156.0300  140.1272  157.0292 H   0  0  0  0  0  0  0  0  0  0  0  0  # atno 8009 bound_to 7997
  154.4348  140.1045  156.6072 H   0  0  0  0  0  0  0  0  0  0  0  0  # atno 8010 bound_to 7997
  139.4822  144.4942  151.8263 H   0  0  0  0  0  0  0  0  0  0  0  0  # atno 10167 bound_to 10162
  156.6181  130.4868  149.6175 H   0  0  0  0  0  0  0  0  0  0  0  0  # atno 10718 bound_to 10713
  154.5605  135.5635  153.7003 H   0  0  0  0  0  0  0  0  0  0  0  0  # atno 10763 bound_to 10752
  153.0016  135.6273  154.2251 H   0  0  0  0  0  0  0  0  0  0  0  0  # atno 10764 bound_to 10752
  154.2188  135.2870  155.2912 H   0  0  0  0  0  0  0  0  0  0  0  0  # atno 10765 bound_to 10752
  139.9627  134.9598  156.9179 H   0  0  0  0  0  0  0  0  0  0  0  0  # atno 11005 bound_to 11000
  145.7777  139.1880  143.2175 LP  0  0  0  0  0  0  0  0  0  0  0  0  # atno 17320 bound_to 7965
  146.0859  140.7711  142.9619 LP  0  0  0  0  0  0  0  0  0  0  0  0  # atno 17321 bound_to 7965
  140.4429  144.1961  150.5892 LP  0  0  0  0  0  0  0  0  0  0  0  0  # atno 17342 bound_to 10162
  140.4664  143.2429  151.9149 LP  0  0  0  0  0  0  0  0  0  0  0  0  # atno 17343 bound_to 10162
  156.2334  130.6808  151.1486 LP  0  0  0  0  0  0  0  0  0  0  0  0  # atno 17370 bound_to 10713
  157.7235  131.0665  150.6032 LP  0  0  0  0  0  0  0  0  0  0  0  0  # atno 17371 bound_to 10713
  140.5464  134.0670  155.7356 LP  0  0  0  0  0  0  0  0  0  0  0  0  # atno 17394 bound_to 11000
  141.1305  133.9309  157.2544 LP  0  0  0  0  0  0  0  0  0  0  0  0  # atno 17395 bound_to 11000

$$$$
