AV-unprocessed.smi:48|AV-procd|sdf|460|dock6
  -GOLD-   2262016333D 1   1.00000     0.00000
 Structure written by MMmdl.
 30 32  0  0  0  0  0  0  0  0  1 V2000
  143.5535  133.9214  147.8100 O   0  0  0  0  0  0  0  0  0  0  0  0
  143.8743  133.0883  148.9034 C   0  0  0  0  0  0  0  0  0  0  0  0
  144.8702  133.7974  149.8335 C   0  0  2  0  0  0  0  0  0  0  0  0
  144.9614  133.0886  151.0694 O   0  0  0  0  0  0  0  0  0  0  0  0
  145.2330  133.9658  152.1233 C   0  0  1  0  0  0  0  0  0  0  0  0
  146.5460  133.5983  152.7488 N   0  0  0  0  0  0  0  0  0  0  0  0
  147.3828  132.6185  152.3505 C   0  0  0  0  0  0  0  0  0  0  0  0
  148.5068  132.4476  153.0443 N   0  0  0  0  0  0  0  0  0  0  0  0
  148.3896  133.4371  154.0062 C   0  0  0  0  0  0  0  0  0  0  0  0
  149.2240  133.8325  155.0801 C   0  0  0  0  0  0  0  0  0  0  0  0
  150.7177  133.0254  155.3889 Cl  0  0  0  0  0  0  0  0  0  0  0  0
  148.8229  134.8609  155.8644 N   0  0  0  0  0  0  0  0  0  0  0  0
  147.6595  135.4688  155.6029 C   0  0  0  0  0  0  0  0  0  0  0  0
  146.7754  135.2080  154.6338 N   0  0  0  0  0  0  0  0  0  0  0  0
  147.1793  134.1706  153.8429 C   0  0  0  0  0  0  0  0  0  0  0  0
  145.1999  135.4010  151.5612 C   0  0  1  0  0  0  0  0  0  0  0  0
  146.4857  135.9576  151.3339 O   0  0  0  0  0  0  0  0  0  0  0  0
  144.4118  135.1881  150.2756 C   0  0  1  0  0  0  0  0  0  0  0  0
  144.6468  136.1900  149.3041 O   0  0  0  0  0  0  0  0  0  0  0  0
  145.8560  133.8697  149.3718 H   0  0  0  0  0  0  0  0  0  0  0  0
  144.4962  133.8041  152.9112 H   0  0  0  0  0  0  0  0  0  0  0  0
  144.6659  136.0517  152.2545 H   0  0  0  0  0  0  0  0  0  0  0  0
  143.3463  135.1652  150.5101 H   0  0  0  0  0  0  0  0  0  0  0  0
  144.3366  134.3747  147.5373 H   0  0  0  0  0  0  0  0  0  0  0  0
  142.9467  132.8790  149.4367 H   0  0  0  0  0  0  0  0  0  0  0  0
  144.2687  132.1343  148.5523 H   0  0  0  0  0  0  0  0  0  0  0  0
  147.1520  131.9910  151.5019 H   0  0  0  0  0  0  0  0  0  0  0  0
  147.3982  136.2807  156.2653 H   0  0  0  0  0  0  0  0  0  0  0  0
  147.0477  135.7232  152.0563 H   0  0  0  0  0  0  0  0  0  0  0  0
  144.2267  136.9874  149.5876 H   0  0  0  0  0  0  0  0  0  0  0  0
  1  2  1  0  0  0  0
  1 24  1  0  0  0  0
  2  3  1  0  0  0  0
  2 25  1  0  0  0  0
  2 26  1  0  0  0  0
  3 20  1  0  0  0  0
  3 18  1  0  0  0  0
  3  4  1  0  0  0  0
  4  5  1  0  0  0  0
  5 21  1  0  0  0  0
  5  6  1  0  0  0  0
  5 16  1  0  0  0  0
  6 15  1  0  0  0  0
  6  7  1  0  0  0  0
  7  8  2  0  0  0  0
  7 27  1  0  0  0  0
  8  9  1  0  0  0  0
  9 15  2  0  0  0  0
  9 10  1  0  0  0  0
 10 11  1  0  0  0  0
 10 12  2  0  0  0  0
 12 13  1  0  0  0  0
 13 14  2  0  0  0  0
 13 28  1  0  0  0  0
 14 15  1  0  0  0  0
 16 22  1  0  0  0  0
 16 17  1  0  0  0  0
 16 18  1  0  0  0  0
 17 29  1  0  0  0  0
 18 23  1  0  0  0  0
 18 19  1  0  0  0  0
 19 30  1  0  0  0  0
M  END
> <s_m_source_file>
AV-unprocessed.smi

> <i_m_source_file_index>
48

> <i_lp_mmshare_version>
43012

> <i_f3d_flags>
0

> <s_epik_input>
W09IXVtDSDJdW0NASF0xT1tDQEhdKFtDQEhdKFtPSF0pW0NAQEhdMVtPSF0pbihbY0hdbjIpYyhjMjMpbltjSF1uYzNDbA==

> <s_epik_cmdline>
J2VwaWtfcHl0aG9uJywgJy1waCcsICc3LjAnLCAnLXRuJywgJzgnLCAnLW1hJywgJzIwMCcsICctbWV0YWxfYmluZGluZycsICctaW1hZScsICc8aW5maWxlLm1hZT4nLCAnLW9tYWUnLCAnPG91dGZpbGUubWFlPic=

> <r_lp_tautomer_probability>
1

> <r_epik_Ionization_Penalty>
3.45505e-06

> <r_epik_Ionization_Penalty_Charging>
0

> <r_epik_Ionization_Penalty_Neutral>
3.45505e-06

> <r_epik_State_Penalty>
-0

> <r_epik_Charging_Adjusted_Penalty>
0

> <i_epik_Tot_Q>
0

> <i_epik_Tot_abs_Q>
0

> <r_epik_Metal_State_Penalty>
-0

> <b_epik_Metal_Only>
0

> <s_epik_Chemistry_Notes>
This compound contains an acetal/aminal-like group ( X-CH(R)-Y where X, Y are N, S, or O) that may be acid/base labile, releasing an aldehyde.

> <s_lp_Force_Field>
OPLS_2005

> <r_lp_Energy>
44.1755

> <b_lp_Chiralities_Consistent>
1

> <s_lp_Variant>
AV-unprocessed.smi:48-14

> <Gold.Version>
5.8.1

> <Gold.Id.Protein>
6NUR|6NUR_protein|mol2

> <Gold.PLP.Fitness>
40.3106

> <Gold.PLP.PLP>
-28.3362

> <Gold.PLP.part.hbond>
-6.7873

> <Gold.PLP.part.metal>
0.0000

> <Gold.PLP.part.buried>
0.9423

> <Gold.PLP.part.nonpolar>
-21.2082

> <Gold.PLP.part.repulsive>
0.3852

> <Gold.PLP.ligand.clash>
0.0000

> <Gold.PLP.ligand.torsion>
0.0611

> <Gold.PLP.Chemscore.Hbond>
3.2793

> <Gold.PLP.Chemscore.CHOScore>
0.7501

> <Gold.PLP.Chemscore.Metal>
0.0000

> <Gold.Chemscore.Hbonds>
donor molecule, donor type, donor heavy atom, donor atom, acceptor molecule, acceptor atom, score
      L1  H     1    24       P1  7921  1.00
      L1  H    17    29       P1  7948  0.29
      L1  H    19    30       P1 10171  1.00
      P1  H 10192 10197       L1     1  0.88
      L1  C     7    27       P1 10747  0.80

> <Gold.PLP.Chemscore.Internal.Correction>
0.0086

> <Gold.Rescore>
     Score         DG    S(hbond)    S(metal)    S(lipo)     H(rot)  DE(clash)    DE(int)     intcor
      9.51     -11.53       3.06        0.00      47.47       3.80       1.90       0.11       ----

> <Gold.Chemscore.Fitness>
9.5147

> <Gold.Chemscore.DG>
-11.5262

> <Gold.Chemscore.ZeroCoef>
-5.4800

> <Gold.Chemscore.Hbond>
3.0613

> <Gold.Chemscore.Metal>
0.0000

> <Gold.Chemscore.Lipo>
47.4702

> <Gold.Chemscore.Internal_Hbond>
0.0000

> <Gold.Chemscore.DEClash>
1.8993

> <Gold.Chemscore.DEInternal>
0.1122

> <Gold.Chemscore.Rot>
3.8017

> <Gold.Chemscore.Internal.Correction>
   9.000000E+99

> <Gold.Chemscore.Hbonds>
donor molecule, donor type, donor heavy atom, donor atom, acceptor molecule, acceptor atom, score
      L1  H     1    24       P1  7921  0.99
      L1  H    17    29       P1  7948  0.30
      L1  H    19    30       P1 10171  0.99
      P1  H 10192 10197       L1     1  0.34

> <Gold.Chemscore.Hbond.Weighted>
-10.2246

> <Gold.Chemscore.Metal.Weighted>
-0.0000

> <Gold.Chemscore.Lipo.Weighted>
-5.5540

> <Gold.Chemscore.Internal_Hbond.Weighted>
0.0000

> <Gold.Chemscore.DEClash.Weighted>
1.8993

> <Gold.Chemscore.DEInternal.Weighted>
0.1122

> <Gold.Chemscore.Rot.Weighted>
9.7324

> <Gold.Chemscore.Internal.Correction.Weighted>
   9.000000E+99

> <Gold.Protein.RotatedTorsions>
[ 6907 6896 6895 6894 ] final  -75.36 input  -60.11 | X-H torsion
[ 7974 7965 7964 7962 ] final    0.73 input  175.53 | X-H torsion
[ 8008 7997 7996 7995 ] final -140.82 input   59.86 | X-H torsion
[ 10167 10162 10161 10158 ] final -138.71 input  -65.29 | X-H torsion
[ 10718 10713 10712 10709 ] final  125.10 input   66.30 | X-H torsion
[ 10763 10752 10751 10750 ] final  -22.61 input  -60.55 | X-H torsion
[ 11005 11000 10999 10996 ] final   53.65 input  -57.11 | X-H torsion

> <Gold.Protein.ActiveResidues>
 VAL166  LYS551  ARG553  GLY616  TRP617  ASP618  TYR619  PRO620  LYS621  CYS622 
 ASP623  PHE694  ASN695  SER759  ASP760  ASP761  ALA762  ILE779  LEU786  VAL792 
 PHE793  MET794  SER795  GLU796  ALA797  LYS798  CYS799  TRP800  GLU811  SER814 

> <Gold.Protein.RotatedAtoms>
  150.7061  134.4733  159.5435 H   0  0  0  0  0  0  0  0  0  0  0  0  # atno 6907 bound_to 6896
  152.2385  134.8250  160.0473 H   0  0  0  0  0  0  0  0  0  0  0  0  # atno 6908 bound_to 6896
  151.9040  133.3510  159.3877 H   0  0  0  0  0  0  0  0  0  0  0  0  # atno 6909 bound_to 6896
  146.2436  140.1094  142.8344 H   0  0  0  0  0  0  0  0  0  0  0  0  # atno 7974 bound_to 7965
  155.4677  140.0550  157.2983 H   0  0  0  0  0  0  0  0  0  0  0  0  # atno 8008 bound_to 7997
  154.4711  140.2040  155.9947 H   0  0  0  0  0  0  0  0  0  0  0  0  # atno 8009 bound_to 7997
  156.1057  140.3212  155.8007 H   0  0  0  0  0  0  0  0  0  0  0  0  # atno 8010 bound_to 7997
  139.8451  143.7271  152.2661 H   0  0  0  0  0  0  0  0  0  0  0  0  # atno 10167 bound_to 10162
  157.5531  131.1093  150.8668 H   0  0  0  0  0  0  0  0  0  0  0  0  # atno 10718 bound_to 10713
  153.6547  135.6979  153.5197 H   0  0  0  0  0  0  0  0  0  0  0  0  # atno 10763 bound_to 10752
  153.2679  135.4224  155.0958 H   0  0  0  0  0  0  0  0  0  0  0  0  # atno 10764 bound_to 10752
  154.8467  135.3571  154.6092 H   0  0  0  0  0  0  0  0  0  0  0  0  # atno 10765 bound_to 10752
  140.0750  134.5418  155.9006 H   0  0  0  0  0  0  0  0  0  0  0  0  # atno 11005 bound_to 11000
  145.0500  140.9010  143.5001 LP  0  0  0  0  0  0  0  0  0  0  0  0  # atno 17320 bound_to 7965
  145.1190  139.2706  143.5598 LP  0  0  0  0  0  0  0  0  0  0  0  0  # atno 17321 bound_to 7965
  139.7521  144.7531  151.0491 LP  0  0  0  0  0  0  0  0  0  0  0  0  # atno 17342 bound_to 10162
  140.7794  143.4848  150.9970 LP  0  0  0  0  0  0  0  0  0  0  0  0  # atno 17343 bound_to 10162
  156.9187  130.5307  149.5279 LP  0  0  0  0  0  0  0  0  0  0  0  0  # atno 17370 bound_to 10713
  156.0594  130.5650  150.9161 LP  0  0  0  0  0  0  0  0  0  0  0  0  # atno 17371 bound_to 10713
  141.2026  133.6626  156.6015 LP  0  0  0  0  0  0  0  0  0  0  0  0  # atno 17394 bound_to 11000
  140.3571  134.7719  157.4508 LP  0  0  0  0  0  0  0  0  0  0  0  0  # atno 17395 bound_to 11000

$$$$
