AV-unprocessed.smi:36|AV-procd|sdf|293|dock1
  -GOLD-   2262016 83D 1   1.00000     0.00000
 Structure written by MMmdl.
 64 67  0  0  0  0  0  0  0  0  1 V2000
  150.4647  128.2665  165.1501 C   0  0  0  0  0  0  0  0  0  0  0  0
  151.3328  127.9419  163.9230 C   0  0  0  0  0  0  0  0  0  0  0  0
  152.5452  127.0974  164.3492 C   0  0  0  0  0  0  0  0  0  0  0  0
  150.5019  127.1693  162.8848 C   0  0  0  0  0  0  0  0  0  0  0  0
  151.9519  129.5691  163.1359 Si  0  0  0  0  0  0  0  0  0  0  0  0
  153.0616  129.2194  161.6326 C   0  0  0  0  0  0  0  0  0  0  0  0
  150.4966  130.6702  162.6061 C   0  0  0  0  0  0  0  0  0  0  0  0
  152.8503  130.4089  164.3008 O   0  0  0  0  0  0  0  0  0  0  0  0
  153.3426  131.7223  164.1219 C   0  0  0  0  0  0  0  0  0  0  0  0
  154.7454  131.8372  164.7528 C   0  0  2  0  0  0  0  0  0  0  0  0
  154.9449  133.2079  165.1078 O   0  0  0  0  0  0  0  0  0  0  0  0
  155.8841  133.8061  164.2623 C   0  0  2  0  0  0  0  0  0  0  0  0
  155.3339  135.0975  163.7544 N   0  0  0  0  0  0  0  0  0  0  0  0
  154.3047  135.8131  164.2486 C   0  0  0  0  0  0  0  0  0  0  0  0
  154.0182  136.9301  163.5835 N   0  0  0  0  0  0  0  0  0  0  0  0
  154.9608  136.9261  162.5601 C   0  0  0  0  0  0  0  0  0  0  0  0
  155.1891  137.8909  161.4622 C   0  0  0  0  0  0  0  0  0  0  0  0
  154.4131  138.9303  161.3998 N   0  0  0  0  0  0  0  0  0  0  0  0
  154.5887  139.8722  160.3937 C   0  0  0  0  0  0  0  0  0  0  0  0
  155.2278  139.7700  159.3427 O   0  0  0  0  0  0  0  0  0  0  0  0
  153.8360  141.1410  160.6320 C   0  0  0  0  0  0  0  0  0  0  0  0
  153.7088  141.6561  161.9398 C   0  0  0  0  0  0  0  0  0  0  0  0
  152.9978  142.8516  162.1625 C   0  0  0  0  0  0  0  0  0  0  0  0
  152.4129  143.5359  161.0796 C   0  0  0  0  0  0  0  0  0  0  0  0
  152.5365  143.0236  159.7735 C   0  0  0  0  0  0  0  0  0  0  0  0
  153.2457  141.8273  159.5495 C   0  0  0  0  0  0  0  0  0  0  0  0
  156.2593  137.4604  160.6665 N   0  0  0  0  0  0  0  0  0  0  0  0
  157.0146  136.2937  160.8623 C   0  0  0  0  0  0  0  0  0  0  0  0
  156.8248  135.4341  161.8275 N   0  0  0  0  0  0  0  0  0  0  0  0
  155.7728  135.8160  162.6478 C   0  0  0  0  0  0  0  0  0  0  0  0
  156.1235  132.8431  163.1045 C   0  0  0  0  0  0  0  0  0  0  0  0
  155.9173  131.5223  163.8080 C   0  0  2  0  0  0  0  0  0  0  0  0
  155.6770  130.4680  162.8979 O   0  0  0  0  0  0  0  0  0  0  0  0
  150.0964  127.3569  165.6258 H   0  0  0  0  0  0  0  0  0  0  0  0
  149.5974  128.8674  164.8759 H   0  0  0  0  0  0  0  0  0  0  0  0
  151.0274  128.8239  165.8996 H   0  0  0  0  0  0  0  0  0  0  0  0
  153.1536  127.6196  165.0878 H   0  0  0  0  0  0  0  0  0  0  0  0
  153.1866  126.8674  163.4977 H   0  0  0  0  0  0  0  0  0  0  0  0
  152.2334  126.1508  164.7921 H   0  0  0  0  0  0  0  0  0  0  0  0
  150.1448  126.2213  163.2886 H   0  0  0  0  0  0  0  0  0  0  0  0
  151.0893  126.9479  161.9930 H   0  0  0  0  0  0  0  0  0  0  0  0
  149.6282  127.7402  162.5691 H   0  0  0  0  0  0  0  0  0  0  0  0
  152.5209  128.6827  160.8534 H   0  0  0  0  0  0  0  0  0  0  0  0
  153.9264  128.6141  161.9030 H   0  0  0  0  0  0  0  0  0  0  0  0
  153.4365  130.1417  161.1895 H   0  0  0  0  0  0  0  0  0  0  0  0
  149.8690  130.1762  161.8649 H   0  0  0  0  0  0  0  0  0  0  0  0
  150.8427  131.6048  162.1653 H   0  0  0  0  0  0  0  0  0  0  0  0
  149.8604  130.9280  163.4524 H   0  0  0  0  0  0  0  0  0  0  0  0
  153.3769  131.9362  163.0535 H   0  0  0  0  0  0  0  0  0  0  0  0
  152.6465  132.4349  164.5642 H   0  0  0  0  0  0  0  0  0  0  0  0
  154.8053  131.2080  165.6404 H   0  0  0  0  0  0  0  0  0  0  0  0
  156.7873  134.0644  164.8168 H   0  0  0  0  0  0  0  0  0  0  0  0
  153.7456  135.5072  165.1206 H   0  0  0  0  0  0  0  0  0  0  0  0
  154.1547  141.1366  162.7757 H   0  0  0  0  0  0  0  0  0  0  0  0
  152.9012  143.2433  163.1642 H   0  0  0  0  0  0  0  0  0  0  0  0
  151.8683  144.4525  161.2511 H   0  0  0  0  0  0  0  0  0  0  0  0
  152.0878  143.5486  158.9432 H   0  0  0  0  0  0  0  0  0  0  0  0
  153.3356  141.4406  158.5445 H   0  0  0  0  0  0  0  0  0  0  0  0
  157.8036  136.1473  160.1236 H   0  0  0  0  0  0  0  0  0  0  0  0
  155.3729  132.9997  162.3274 H   0  0  0  0  0  0  0  0  0  0  0  0
  157.1188  132.9726  162.6786 H   0  0  0  0  0  0  0  0  0  0  0  0
  156.8052  131.2848  164.3962 H   0  0  0  0  0  0  0  0  0  0  0  0
  156.4923  130.2442  162.4756 H   0  0  0  0  0  0  0  0  0  0  0  0
  156.5081  138.0433  159.8802 H   0  0  0  0  0  0  0  0  0  0  0  0
  1  2  1  0  0  0  0
  1 34  1  0  0  0  0
  1 35  1  0  0  0  0
  1 36  1  0  0  0  0
  2  3  1  0  0  0  0
  2  4  1  0  0  0  0
  2  5  1  0  0  0  0
  3 37  1  0  0  0  0
  3 38  1  0  0  0  0
  3 39  1  0  0  0  0
  4 40  1  0  0  0  0
  4 41  1  0  0  0  0
  4 42  1  0  0  0  0
  5  6  1  0  0  0  0
  5  7  1  0  0  0  0
  5  8  1  0  0  0  0
  6 43  1  0  0  0  0
  6 44  1  0  0  0  0
  6 45  1  0  0  0  0
  7 46  1  0  0  0  0
  7 47  1  0  0  0  0
  7 48  1  0  0  0  0
  8  9  1  0  0  0  0
  9 10  1  0  0  0  0
  9 49  1  0  0  0  0
  9 50  1  0  0  0  0
 10 32  1  0  0  0  0
 10 11  1  0  0  0  0
 10 51  1  0  0  0  0
 11 12  1  0  0  0  0
 12 13  1  0  0  0  0
 12 31  1  0  0  0  0
 12 52  1  0  0  0  0
 13 30  1  0  0  0  0
 13 14  1  0  0  0  0
 14 15  2  0  0  0  0
 14 53  1  0  0  0  0
 15 16  1  0  0  0  0
 16 30  2  0  0  0  0
 16 17  1  0  0  0  0
 17 18  2  0  0  0  0
 17 27  1  0  0  0  0
 18 19  1  0  0  0  0
 19 20  2  0  0  0  0
 19 21  1  0  0  0  0
 21 26  1  0  0  0  0
 21 22  2  0  0  0  0
 22 23  1  0  0  0  0
 22 54  1  0  0  0  0
 23 24  2  0  0  0  0
 23 55  1  0  0  0  0
 24 25  1  0  0  0  0
 24 56  1  0  0  0  0
 25 26  2  0  0  0  0
 25 57  1  0  0  0  0
 26 58  1  0  0  0  0
 27 28  1  0  0  0  0
 27 64  1  0  0  0  0
 28 29  2  0  0  0  0
 28 59  1  0  0  0  0
 29 30  1  0  0  0  0
 31 32  1  0  0  0  0
 31 60  1  0  0  0  0
 31 61  1  0  0  0  0
 32 33  1  0  0  0  0
 32 62  1  0  0  0  0
 33 63  1  0  0  0  0
M  END
> <s_m_source_file>
AV-unprocessed.smi

> <i_m_source_file_index>
36

> <i_lp_mmshare_version>
43012

> <i_f3d_flags>
0

> <s_epik_input>
W0NIM11DKFtDSDNdKShbQ0gzXSlbU2ldKFtDSDNdKShbQ0gzXSlPW0NIMl1bQ0BASF0xT1tDQEhdKFtDSDJdW0NASF0xW09IXSluKFtjSF1uMiljKGMyMyluW2NIXW5jM1tOSF1DKD1PKWM0W2NIXVtjSF1bY0hdW2NIXVtjSF00

> <s_epik_cmdline>
J2VwaWtfcHl0aG9uJywgJy1waCcsICc3LjAnLCAnLXRuJywgJzgnLCAnLW1hJywgJzIwMCcsICctbWV0YWxfYmluZGluZycsICctaW1hZScsICc8aW5maWxlLm1hZT4nLCAnLW9tYWUnLCAnPG91dGZpbGUubWFlPic=

> <r_epik_Ionization_Penalty>
0.0850405

> <r_epik_Ionization_Penalty_Charging>
0.0850403

> <r_epik_Ionization_Penalty_Neutral>
1.47497e-07

> <r_epik_State_Penalty>
2.6133

> <r_epik_Charging_Adjusted_Penalty>
2.69834

> <i_epik_Tot_Q>
0

> <i_epik_Tot_abs_Q>
0

> <r_epik_Metal_State_Penalty>
2.92945

> <b_epik_Metal_Only>
0

> <s_epik_Chemistry_Notes>
This compound contains an acetal/aminal-like group ( X-CH(R)-Y where X, Y are N, S, or O) that may be acid/base labile, releasing an aldehyde.

> <s_lp_Force_Field>
OPLS_2005

> <r_lp_Energy>
48.5801

> <b_lp_Chiralities_Consistent>
1

> <s_lp_Variant>
AV-unprocessed.smi:36-15

> <Gold.Version>
5.8.1

> <Gold.Id.Protein>
6NUR|6NUR_protein|mol2

> <Gold.PLP.Fitness>
52.8470

> <Gold.PLP.PLP>
-52.6961

> <Gold.PLP.part.hbond>
-1.0000

> <Gold.PLP.part.metal>
0.0000

> <Gold.PLP.part.buried>
-7.0546

> <Gold.PLP.part.nonpolar>
-43.1230

> <Gold.PLP.part.repulsive>
0.1844

> <Gold.PLP.ligand.clash>
0.0000

> <Gold.PLP.ligand.torsion>
1.6375

> <Gold.PLP.Chemscore.Hbond>
1.0000

> <Gold.PLP.Chemscore.CHOScore>
0.0000

> <Gold.PLP.Chemscore.Metal>
0.0000

> <Gold.Chemscore.Hbonds>
donor molecule, donor type, donor heavy atom, donor atom, acceptor molecule, acceptor atom, score
      P1  H  7997  8010       L1    20  1.00

> <Gold.PLP.Chemscore.Internal.Correction>
0.4259

> <Gold.Rescore>
     Score         DG    S(hbond)    S(metal)    S(lipo)     H(rot)  DE(clash)    DE(int)     intcor
     13.92     -16.41       0.99        0.00     124.31       2.70       0.10       2.40       ----

> <Gold.Chemscore.Fitness>
13.9171

> <Gold.Chemscore.DG>
-16.4112

> <Gold.Chemscore.ZeroCoef>
-5.4800

> <Gold.Chemscore.Hbond>
0.9908

> <Gold.Chemscore.Metal>
0.0000

> <Gold.Chemscore.Lipo>
124.3102

> <Gold.Chemscore.Internal_Hbond>
0.0000

> <Gold.Chemscore.DEClash>
0.0959

> <Gold.Chemscore.DEInternal>
2.3983

> <Gold.Chemscore.Rot>
2.7041

> <Gold.Chemscore.Internal.Correction>
   9.000000E+99

> <Gold.Chemscore.Hbonds>
donor molecule, donor type, donor heavy atom, donor atom, acceptor molecule, acceptor atom, score
      P1  H  7997  8010       L1    20  0.92

> <Gold.Chemscore.Hbond.Weighted>
-3.3094

> <Gold.Chemscore.Metal.Weighted>
-0.0000

> <Gold.Chemscore.Lipo.Weighted>
-14.5443

> <Gold.Chemscore.Internal_Hbond.Weighted>
0.0000

> <Gold.Chemscore.DEClash.Weighted>
0.0959

> <Gold.Chemscore.DEInternal.Weighted>
2.3983

> <Gold.Chemscore.Rot.Weighted>
6.9225

> <Gold.Chemscore.Internal.Correction.Weighted>
   9.000000E+99

> <Gold.Protein.RotatedTorsions>
[ 6907 6896 6895 6894 ] final  -49.17 input  -60.11 | X-H torsion
[ 7974 7965 7964 7962 ] final  -29.11 input  175.53 | X-H torsion
[ 8008 7997 7996 7995 ] final  -22.34 input   59.86 | X-H torsion
[ 10167 10162 10161 10158 ] final  -31.31 input  -65.29 | X-H torsion
[ 10718 10713 10712 10709 ] final   75.16 input   66.30 | X-H torsion
[ 10763 10752 10751 10750 ] final  144.17 input  -60.55 | X-H torsion
[ 11005 11000 10999 10996 ] final  144.95 input  -57.11 | X-H torsion

> <Gold.Protein.ActiveResidues>
 VAL166  LYS551  ARG553  GLY616  TRP617  ASP618  TYR619  PRO620  LYS621  CYS622 
 ASP623  PHE694  ASN695  SER759  ASP760  ASP761  ALA762  ILE779  LEU786  VAL792 
 PHE793  MET794  SER795  GLU796  ALA797  LYS798  CYS799  TRP800  GLU811  SER814 

> <Gold.Protein.RotatedAtoms>
  150.8832  134.8226  159.7239 H   0  0  0  0  0  0  0  0  0  0  0  0  # atno 6907 bound_to 6896
  152.4791  134.4764  159.9661 H   0  0  0  0  0  0  0  0  0  0  0  0  # atno 6908 bound_to 6896
  151.4836  133.3502  159.2877 H   0  0  0  0  0  0  0  0  0  0  0  0  # atno 6909 bound_to 6896
  146.1240  140.5370  142.8723 H   0  0  0  0  0  0  0  0  0  0  0  0  # atno 7974 bound_to 7965
  154.4650  140.2010  156.0143 H   0  0  0  0  0  0  0  0  0  0  0  0  # atno 8008 bound_to 7997
  156.0910  140.3258  155.7786 H   0  0  0  0  0  0  0  0  0  0  0  0  # atno 8009 bound_to 7997
  155.4957  140.0550  157.2937 H   0  0  0  0  0  0  0  0  0  0  0  0  # atno 8010 bound_to 7997
  140.7238  143.3781  151.1652 H   0  0  0  0  0  0  0  0  0  0  0  0  # atno 10167 bound_to 10162
  157.6622  130.9713  150.1314 H   0  0  0  0  0  0  0  0  0  0  0  0  # atno 10718 bound_to 10713
  153.9845  135.2938  155.3417 H   0  0  0  0  0  0  0  0  0  0  0  0  # atno 10763 bound_to 10752
  154.7250  135.5092  153.8875 H   0  0  0  0  0  0  0  0  0  0  0  0  # atno 10764 bound_to 10752
  153.0839  135.6687  154.0104 H   0  0  0  0  0  0  0  0  0  0  0  0  # atno 10765 bound_to 10752
  140.0673  134.9171  157.1285 H   0  0  0  0  0  0  0  0  0  0  0  0  # atno 11005 bound_to 11000
  144.7624  140.5453  143.6726 LP  0  0  0  0  0  0  0  0  0  0  0  0  # atno 17320 bound_to 7965
  145.5405  139.1475  143.3449 LP  0  0  0  0  0  0  0  0  0  0  0  0  # atno 17321 bound_to 7965
  139.7365  143.8991  152.3036 LP  0  0  0  0  0  0  0  0  0  0  0  0  # atno 17342 bound_to 10162
  139.8798  144.7024  150.8891 LP  0  0  0  0  0  0  0  0  0  0  0  0  # atno 17343 bound_to 10162
  156.2160  130.3670  149.8613 LP  0  0  0  0  0  0  0  0  0  0  0  0  # atno 17370 bound_to 10713
  156.6479  130.8731  151.3526 LP  0  0  0  0  0  0  0  0  0  0  0  0  # atno 17371 bound_to 10713
  140.3680  134.2421  155.7180 LP  0  0  0  0  0  0  0  0  0  0  0  0  # atno 17394 bound_to 11000
  141.1998  133.8003  157.0521 LP  0  0  0  0  0  0  0  0  0  0  0  0  # atno 17395 bound_to 11000

$$$$
