AV-unprocessed.smi:2032|AV-procd|sdf|8235|dock1
  -GOLD-   2272010503D 1   1.00000     0.00000
 Structure written by MMmdl.
 42 43  0  0  0  0  0  0  0  0  1 V2000
  151.0088  142.2076  156.1859 C   0  0  0  0  0  0  0  0  0  0  0  0
  150.3620  140.8605  155.8466 C   0  0  1  0  0  0  0  0  0  0  0  0
  149.2062  141.0090  154.8408 C   0  0  0  0  0  0  0  0  0  0  0  0
  148.6263  139.7223  154.4435 N   0  0  0  0  0  0  0  0  0  0  0  0
  147.4987  139.8688  153.4918 C   0  0  2  0  0  0  0  0  0  0  0  0
  146.8187  141.2595  153.5757 C   0  0  0  0  0  0  0  0  0  0  0  0
  146.4190  138.7609  153.6564 C   0  0  0  0  0  0  0  0  0  0  0  0
  146.6639  137.5853  152.8230 N   0  0  0  0  0  0  0  0  0  0  0  0
  145.7385  136.6910  152.4446 C   0  0  0  0  0  0  0  0  0  0  0  0
  144.5487  136.7697  152.7513 O   0  0  0  0  0  0  0  0  0  0  0  0
  146.2827  135.7177  151.6931 N   0  0  0  0  0  0  0  0  0  0  0  0
  145.6379  134.5955  151.1094 C   0  0  0  0  0  0  0  0  0  0  0  0
  144.3119  134.4709  150.9773 N   0  0  0  0  0  0  0  0  0  0  0  0
  143.9562  133.2647  150.3688 C   0  0  0  0  0  0  0  0  0  0  0  0
  145.0318  132.4774  150.0406 C   0  0  0  0  0  0  0  0  0  0  0  0
  146.5433  133.2238  150.4865 S   0  0  0  0  0  0  0  0  0  0  0  0
  149.7085  138.8830  153.9152 C   0  0  0  0  0  0  0  0  0  0  0  0
  150.9049  138.7358  154.8763 C   0  0  2  0  0  0  0  0  0  0  0  0
  150.6169  137.8096  156.0706 C   0  0  0  0  0  0  0  0  0  0  0  0
  151.3672  140.0173  155.2953 O   0  0  0  0  0  0  0  0  0  0  0  0
  150.2831  142.8929  156.6244 H   0  0  0  0  0  0  0  0  0  0  0  0
  151.4227  142.6819  155.2956 H   0  0  0  0  0  0  0  0  0  0  0  0
  151.8203  142.0802  156.9027 H   0  0  0  0  0  0  0  0  0  0  0  0
  149.9859  140.4219  156.7712 H   0  0  0  0  0  0  0  0  0  0  0  0
  148.4563  141.6370  155.3178 H   0  0  0  0  0  0  0  0  0  0  0  0
  149.5538  141.5455  153.9566 H   0  0  0  0  0  0  0  0  0  0  0  0
  147.8991  139.7746  152.4811 H   0  0  0  0  0  0  0  0  0  0  0  0
  145.9728  141.3509  152.8964 H   0  0  0  0  0  0  0  0  0  0  0  0
  147.4893  142.0689  153.2916 H   0  0  0  0  0  0  0  0  0  0  0  0
  146.4527  141.4592  154.5833 H   0  0  0  0  0  0  0  0  0  0  0  0
  146.4082  138.3715  154.6726 H   0  0  0  0  0  0  0  0  0  0  0  0
  145.4263  139.1784  153.4781 H   0  0  0  0  0  0  0  0  0  0  0  0
  147.6153  137.4397  152.5190 H   0  0  0  0  0  0  0  0  0  0  0  0
  147.2749  135.7851  151.5212 H   0  0  0  0  0  0  0  0  0  0  0  0
  142.9110  133.0468  150.2075 H   0  0  0  0  0  0  0  0  0  0  0  0
  145.0260  131.5075  149.5663 H   0  0  0  0  0  0  0  0  0  0  0  0
  149.3523  137.8787  153.6954 H   0  0  0  0  0  0  0  0  0  0  0  0
  150.0619  139.3025  152.9720 H   0  0  0  0  0  0  0  0  0  0  0  0
  151.7265  138.2857  154.3184 H   0  0  0  0  0  0  0  0  0  0  0  0
  150.3952  136.7976  155.7309 H   0  0  0  0  0  0  0  0  0  0  0  0
  149.7635  138.1486  156.6574 H   0  0  0  0  0  0  0  0  0  0  0  0
  151.4789  137.7528  156.7352 H   0  0  0  0  0  0  0  0  0  0  0  0
  1  2  1  0  0  0  0
  1 21  1  0  0  0  0
  1 22  1  0  0  0  0
  1 23  1  0  0  0  0
  2 20  1  0  0  0  0
  2  3  1  0  0  0  0
  2 24  1  0  0  0  0
  3  4  1  0  0  0  0
  3 25  1  0  0  0  0
  3 26  1  0  0  0  0
  4  5  1  0  0  0  0
  4 17  1  0  0  0  0
  5  6  1  0  0  0  0
  5  7  1  0  0  0  0
  5 27  1  0  0  0  0
  6 28  1  0  0  0  0
  6 29  1  0  0  0  0
  6 30  1  0  0  0  0
  7  8  1  0  0  0  0
  7 31  1  0  0  0  0
  7 32  1  0  0  0  0
  8  9  1  0  0  0  0
  8 33  1  0  0  0  0
  9 10  2  0  0  0  0
  9 11  1  0  0  0  0
 11 12  1  0  0  0  0
 11 34  1  0  0  0  0
 12 16  1  0  0  0  0
 12 13  2  0  0  0  0
 13 14  1  0  0  0  0
 14 15  2  0  0  0  0
 14 35  1  0  0  0  0
 15 16  1  0  0  0  0
 15 36  1  0  0  0  0
 17 18  1  0  0  0  0
 17 37  1  0  0  0  0
 17 38  1  0  0  0  0
 18 19  1  0  0  0  0
 18 20  1  0  0  0  0
 18 39  1  0  0  0  0
 19 40  1  0  0  0  0
 19 41  1  0  0  0  0
 19 42  1  0  0  0  0
M  END
> <s_m_source_file>
AV-unprocessed.smi

> <i_m_source_file_index>
2032

> <i_lp_mmshare_version>
43012

> <i_f3d_flags>
0

> <s_epik_input>
W0NIM11bQ0BASF0xW0NIMl1OKFtDSDJdW0NASF0oTzEpW0NIM10pW0NASF0oW0NIM10pW0NIMl1bTkhdQyg9TylbTkhdYzJuW2NIXVtjSF1zMg==

> <s_epik_cmdline>
J2VwaWtfcHl0aG9uJywgJy1waCcsICc3LjAnLCAnLXRuJywgJzgnLCAnLW1hJywgJzIwMCcsICctbWV0YWxfYmluZGluZycsICctaW1hZScsICc8aW5maWxlLm1hZT4nLCAnLW9tYWUnLCAnPG91dGZpbGUubWFlPic=

> <r_lp_tautomer_probability>
0.999

> <r_epik_Ionization_Penalty>
0.219202

> <r_epik_Ionization_Penalty_Charging>
0

> <r_epik_Ionization_Penalty_Neutral>
0.219202

> <r_epik_State_Penalty>
0.209349

> <r_epik_Charging_Adjusted_Penalty>
0.209349

> <i_epik_Tot_Q>
0

> <i_epik_Tot_abs_Q>
0

> <r_epik_Metal_State_Penalty>
0.247737

> <b_epik_Metal_Only>
0

> <s_lp_Force_Field>
OPLS_2005

> <r_lp_Energy>
29.5908

> <b_lp_Chiralities_Consistent>
1

> <s_lp_Variant>
AV-unprocessed.smi:2032-5

> <Gold.Version>
5.8.1

> <Gold.Id.Protein>
6NUR|6NUR_protein|mol2

> <Gold.PLP.Fitness>
40.6177

> <Gold.PLP.PLP>
-32.9630

> <Gold.PLP.part.hbond>
-3.0000

> <Gold.PLP.part.metal>
0.0000

> <Gold.PLP.part.buried>
-5.0229

> <Gold.PLP.part.nonpolar>
-25.8420

> <Gold.PLP.part.repulsive>
0.5755

> <Gold.PLP.ligand.clash>
1.3187

> <Gold.PLP.ligand.torsion>
1.5147

> <Gold.PLP.Chemscore.Hbond>
2.9760

> <Gold.PLP.Chemscore.CHOScore>
1.0000

> <Gold.PLP.Chemscore.Metal>
0.0000

> <Gold.Chemscore.Hbonds>
donor molecule, donor type, donor heavy atom, donor atom, acceptor molecule, acceptor atom, score
      L1  H     8    33       P1  7948  0.98
      L1  H    11    34       P1  7948  1.00
      P1  H  7989  7998       L1    20  1.00
      L1  C    14    35       P1 10186  1.00

> <Gold.PLP.Chemscore.Internal.Correction>
0.0748

> <Gold.Rescore>
     Score         DG    S(hbond)    S(metal)    S(lipo)     H(rot)  DE(clash)    DE(int)     intcor
     15.32     -18.23       2.03        0.00      85.44       1.57       0.21       2.70       ----

> <Gold.Chemscore.Fitness>
15.3160

> <Gold.Chemscore.DG>
-18.2257

> <Gold.Chemscore.ZeroCoef>
-5.4800

> <Gold.Chemscore.Hbond>
2.0302

> <Gold.Chemscore.Metal>
0.0000

> <Gold.Chemscore.Lipo>
85.4433

> <Gold.Chemscore.Internal_Hbond>
0.0000

> <Gold.Chemscore.DEClash>
0.2064

> <Gold.Chemscore.DEInternal>
2.7032

> <Gold.Chemscore.Rot>
1.5750

> <Gold.Chemscore.Internal.Correction>
   9.000000E+99

> <Gold.Chemscore.Hbonds>
donor molecule, donor type, donor heavy atom, donor atom, acceptor molecule, acceptor atom, score
      L1  H     8    33       P1  7948  0.93
      L1  H    11    34       P1  7948  0.99
      P1  H  7989  7998       L1    20  0.07

> <Gold.Chemscore.Hbond.Weighted>
-6.7807

> <Gold.Chemscore.Metal.Weighted>
-0.0000

> <Gold.Chemscore.Lipo.Weighted>
-9.9969

> <Gold.Chemscore.Internal_Hbond.Weighted>
0.0000

> <Gold.Chemscore.DEClash.Weighted>
0.2064

> <Gold.Chemscore.DEInternal.Weighted>
2.7032

> <Gold.Chemscore.Rot.Weighted>
4.0319

> <Gold.Chemscore.Internal.Correction.Weighted>
   9.000000E+99

> <Gold.Protein.RotatedTorsions>
[ 6907 6896 6895 6894 ] final  -80.23 input  -60.11 | X-H torsion
[ 7974 7965 7964 7962 ] final   -9.82 input  175.53 | X-H torsion
[ 8008 7997 7996 7995 ] final  129.06 input   59.86 | X-H torsion
[ 10167 10162 10161 10158 ] final  -84.85 input  -65.29 | X-H torsion
[ 10718 10713 10712 10709 ] final  150.86 input   66.30 | X-H torsion
[ 10763 10752 10751 10750 ] final  -65.24 input  -60.55 | X-H torsion
[ 11005 11000 10999 10996 ] final  -80.79 input  -57.11 | X-H torsion

> <Gold.Protein.ActiveResidues>
 VAL166  LYS551  ARG553  GLY616  TRP617  ASP618  TYR619  PRO620  LYS621  CYS622 
 ASP623  PHE694  ASN695  SER759  ASP760  ASP761  ALA762  ILE779  LEU786  VAL792 
 PHE793  MET794  SER795  GLU796  ALA797  LYS798  CYS799  TRP800  GLU811  SER814 

> <Gold.Protein.RotatedAtoms>
  150.6933  134.4000  159.5114 H   0  0  0  0  0  0  0  0  0  0  0  0  # atno 6907 bound_to 6896
  152.1775  134.8779  160.0538 H   0  0  0  0  0  0  0  0  0  0  0  0  # atno 6908 bound_to 6896
  151.9782  133.3714  159.4134 H   0  0  0  0  0  0  0  0  0  0  0  0  # atno 6909 bound_to 6896
  146.2240  140.2673  142.8355 H   0  0  0  0  0  0  0  0  0  0  0  0  # atno 7974 bound_to 7965
  156.2928  140.2629  156.2538 H   0  0  0  0  0  0  0  0  0  0  0  0  # atno 8008 bound_to 7997
  154.9856  140.0389  157.2315 H   0  0  0  0  0  0  0  0  0  0  0  0  # atno 8009 bound_to 7997
  154.7732  140.2782  155.6126 H   0  0  0  0  0  0  0  0  0  0  0  0  # atno 8010 bound_to 7997
  140.4093  143.2629  151.9039 H   0  0  0  0  0  0  0  0  0  0  0  0  # atno 10167 bound_to 10162
  157.2781  131.0830  151.1552 H   0  0  0  0  0  0  0  0  0  0  0  0  # atno 10718 bound_to 10713
  154.3421  135.6154  153.5601 H   0  0  0  0  0  0  0  0  0  0  0  0  # atno 10763 bound_to 10752
  152.9803  135.5772  154.4840 H   0  0  0  0  0  0  0  0  0  0  0  0  # atno 10764 bound_to 10752
  154.4546  135.2854  155.1733 H   0  0  0  0  0  0  0  0  0  0  0  0  # atno 10765 bound_to 10752
  141.1667  133.7166  156.8326 H   0  0  0  0  0  0  0  0  0  0  0  0  # atno 11005 bound_to 11000
  144.9294  140.7958  143.5698 LP  0  0  0  0  0  0  0  0  0  0  0  0  # atno 17320 bound_to 7965
  145.2615  139.1990  143.4889 LP  0  0  0  0  0  0  0  0  0  0  0  0  # atno 17321 bound_to 7965
  139.4783  144.5553  151.8323 LP  0  0  0  0  0  0  0  0  0  0  0  0  # atno 17342 bound_to 10162
  140.4655  144.1661  150.5911 LP  0  0  0  0  0  0  0  0  0  0  0  0  # atno 17343 bound_to 10162
  157.2997  130.6836  149.6157 LP  0  0  0  0  0  0  0  0  0  0  0  0  # atno 17370 bound_to 10713
  155.9664  130.4396  150.5264 LP  0  0  0  0  0  0  0  0  0  0  0  0  # atno 17371 bound_to 10713
  140.2040  134.8876  157.3201 LP  0  0  0  0  0  0  0  0  0  0  0  0  # atno 17394 bound_to 11000
  140.2157  134.4085  155.7590 LP  0  0  0  0  0  0  0  0  0  0  0  0  # atno 17395 bound_to 11000

$$$$
