AV-unprocessed.smi:1464|AV-procd|sdf|5947|dock5
  -GOLD-   22720 6 33D 1   1.00000     0.00000
 Structure written by MMmdl.
 41 42  0  0  0  0  0  0  0  0  1 V2000
  152.7416  142.2617  160.2054 C   0  0  0  0  0  0  0  0  0  0  0  0
  152.6111  142.9747  158.8436 C   0  0  2  0  0  0  0  0  0  0  0  0
  152.8252  144.4961  158.9760 C   0  0  0  0  0  0  0  0  0  0  0  0
  151.6349  145.1928  159.6531 C   0  0  0  0  0  0  0  0  0  0  0  0
  150.3248  144.8961  158.9109 C   0  0  0  0  0  0  0  0  0  0  0  0
  150.0742  143.3828  158.7634 C   0  0  1  0  0  0  0  0  0  0  0  0
  148.8573  143.1894  157.9759 N   0  0  0  0  0  0  0  0  0  0  0  0
  147.7204  142.6190  158.4046 C   0  0  0  0  0  0  0  0  0  0  0  0
  147.5761  142.1603  159.5388 O   0  0  0  0  0  0  0  0  0  0  0  0
  146.5860  142.5359  157.3732 C   0  0  0  0  0  0  0  0  0  0  0  0
  147.0477  142.1818  156.0233 N   0  0  0  0  0  0  0  0  0  0  0  0
  148.3677  141.7607  155.9681 N   0  0  0  0  0  0  0  0  0  0  0  0
  148.8865  141.4135  154.8390 C   0  0  0  0  0  0  0  0  0  0  0  0
  150.1958  141.0000  154.8303 O   0  0  0  0  0  0  0  0  0  0  0  0
  148.1162  141.4571  153.6160 C   0  0  0  0  0  0  0  0  0  0  0  0
  146.8320  141.8719  153.6792 C   0  0  0  0  0  0  0  0  0  0  0  0
  146.2118  142.2725  154.9434 C   0  0  0  0  0  0  0  0  0  0  0  0
  145.0455  142.6563  155.0305 O   0  0  0  0  0  0  0  0  0  0  0  0
  151.2840  142.6762  158.0953 C   0  0  2  0  0  0  0  0  0  0  0  0
  151.0617  141.1660  157.8792 C   0  0  0  0  0  0  0  0  0  0  0  0
  150.3508  140.6404  155.6902 H   0  0  0  0  0  0  0  0  0  0  0  0
  151.9350  142.5257  160.8885 H   0  0  0  0  0  0  0  0  0  0  0  0
  153.6809  142.5238  160.6923 H   0  0  0  0  0  0  0  0  0  0  0  0
  152.7365  141.1778  160.0923 H   0  0  0  0  0  0  0  0  0  0  0  0
  153.4255  142.5967  158.2240 H   0  0  0  0  0  0  0  0  0  0  0  0
  153.7422  144.7030  159.5290 H   0  0  0  0  0  0  0  0  0  0  0  0
  152.9695  144.9253  157.9837 H   0  0  0  0  0  0  0  0  0  0  0  0
  151.5520  144.8693  160.6909 H   0  0  0  0  0  0  0  0  0  0  0  0
  151.8060  146.2692  159.6824 H   0  0  0  0  0  0  0  0  0  0  0  0
  149.4923  145.3620  159.4397 H   0  0  0  0  0  0  0  0  0  0  0  0
  150.3607  145.3612  157.9246 H   0  0  0  0  0  0  0  0  0  0  0  0
  149.9370  142.9690  159.7635 H   0  0  0  0  0  0  0  0  0  0  0  0
  148.8805  143.5268  157.0245 H   0  0  0  0  0  0  0  0  0  0  0  0
  145.8379  141.8155  157.7099 H   0  0  0  0  0  0  0  0  0  0  0  0
  146.0757  143.5008  157.3568 H   0  0  0  0  0  0  0  0  0  0  0  0
  148.5659  141.1631  152.6791 H   0  0  0  0  0  0  0  0  0  0  0  0
  146.2449  141.9094  152.7736 H   0  0  0  0  0  0  0  0  0  0  0  0
  151.3926  143.1091  157.0993 H   0  0  0  0  0  0  0  0  0  0  0  0
  150.8059  140.6610  158.8109 H   0  0  0  0  0  0  0  0  0  0  0  0
  151.9550  140.6906  157.4736 H   0  0  0  0  0  0  0  0  0  0  0  0
  150.2517  140.9786  157.1742 H   0  0  0  0  0  0  0  0  0  0  0  0
  1  2  1  0  0  0  0
  1 22  1  0  0  0  0
  1 23  1  0  0  0  0
  1 24  1  0  0  0  0
  2 19  1  0  0  0  0
  2  3  1  0  0  0  0
  2 25  1  0  0  0  0
  3  4  1  0  0  0  0
  3 26  1  0  0  0  0
  3 27  1  0  0  0  0
  4  5  1  0  0  0  0
  4 28  1  0  0  0  0
  4 29  1  0  0  0  0
  5  6  1  0  0  0  0
  5 30  1  0  0  0  0
  5 31  1  0  0  0  0
  6  7  1  0  0  0  0
  6 19  1  0  0  0  0
  6 32  1  0  0  0  0
  7  8  1  0  0  0  0
  7 33  1  0  0  0  0
  8  9  2  0  0  0  0
  8 10  1  0  0  0  0
 10 34  1  0  0  0  0
 10 35  1  0  0  0  0
 10 11  1  0  0  0  0
 11 12  1  0  0  0  0
 11 17  1  0  0  0  0
 12 13  2  0  0  0  0
 13 14  1  0  0  0  0
 13 15  1  0  0  0  0
 14 21  1  0  0  0  0
 15 36  1  0  0  0  0
 15 16  2  0  0  0  0
 16 37  1  0  0  0  0
 16 17  1  0  0  0  0
 17 18  2  0  0  0  0
 19 20  1  0  0  0  0
 19 38  1  0  0  0  0
 20 39  1  0  0  0  0
 20 40  1  0  0  0  0
 20 41  1  0  0  0  0
M  END
> <s_m_source_file>
AV-unprocessed.smi

> <i_m_source_file_index>
1464

> <i_lp_mmshare_version>
43012

> <i_f3d_flags>
0

> <s_epik_input>
W0NIM11bQ0BASF0xW0NIMl1bQ0gyXVtDSDJdW0NASF0oW0NASF0xW0NIM10pW05IXUMoPU8pW0NIMl1uMltuSF1jKD1PKVtjSF1bY0hdYzI9Tw==

> <s_epik_cmdline>
J2VwaWtfcHl0aG9uJywgJy1waCcsICc3LjAnLCAnLXRuJywgJzgnLCAnLW1hJywgJzIwMCcsICctbWV0YWxfYmluZGluZycsICctaW1hZScsICc8aW5maWxlLm1hZT4nLCAnLW9tYWUnLCAnPG91dGZpbGUubWFlPic=

> <r_lp_tautomer_probability>
0.9996

> <r_epik_Ionization_Penalty>
2.10335

> <r_epik_Ionization_Penalty_Charging>
3.98079e-08

> <r_epik_Ionization_Penalty_Neutral>
2.10335

> <r_epik_State_Penalty>
1.67957

> <r_epik_Charging_Adjusted_Penalty>
1.67957

> <i_epik_Tot_Q>
0

> <i_epik_Tot_abs_Q>
0

> <r_epik_Metal_State_Penalty>
1.67957

> <b_epik_Metal_Only>
0

> <s_lp_Force_Field>
OPLS_2005

> <r_lp_Energy>
25.8074

> <b_lp_Chiralities_Consistent>
1

> <s_lp_Variant>
AV-unprocessed.smi:1464-13

> <Gold.Version>
5.8.1

> <Gold.Id.Protein>
6NUR|6NUR_protein|mol2

> <Gold.PLP.Fitness>
46.0628

> <Gold.PLP.PLP>
-39.0802

> <Gold.PLP.part.hbond>
-5.0000

> <Gold.PLP.part.metal>
0.0000

> <Gold.PLP.part.buried>
-1.7850

> <Gold.PLP.part.nonpolar>
-33.2699

> <Gold.PLP.part.repulsive>
1.0515

> <Gold.PLP.ligand.clash>
0.0000

> <Gold.PLP.ligand.torsion>
0.3760

> <Gold.PLP.Chemscore.Hbond>
2.5752

> <Gold.PLP.Chemscore.CHOScore>
0.0000

> <Gold.PLP.Chemscore.Metal>
0.0000

> <Gold.Chemscore.Hbonds>
donor molecule, donor type, donor heavy atom, donor atom, acceptor molecule, acceptor atom, score
      L1  H     7    33       P1  8028  1.00
      P1  H  6933  6944       L1     9  0.30
      P1  H  6934  6946       L1     9  0.46
      P1  H  7989  7998       L1    14  0.69

> <Gold.PLP.Chemscore.Internal.Correction>
0.0092

> <Gold.Rescore>
     Score         DG    S(hbond)    S(metal)    S(lipo)     H(rot)  DE(clash)    DE(int)     intcor
     15.20     -17.83       2.06        0.00      95.44       2.22       0.55       2.09       ----

> <Gold.Chemscore.Fitness>
15.1959

> <Gold.Chemscore.DG>
-17.8345

> <Gold.Chemscore.ZeroCoef>
-5.4800

> <Gold.Chemscore.Hbond>
2.0591

> <Gold.Chemscore.Metal>
0.0000

> <Gold.Chemscore.Lipo>
95.4399

> <Gold.Chemscore.Internal_Hbond>
0.0000

> <Gold.Chemscore.DEClash>
0.5466

> <Gold.Chemscore.DEInternal>
2.0921

> <Gold.Chemscore.Rot>
2.2224

> <Gold.Chemscore.Internal.Correction>
   9.000000E+99

> <Gold.Chemscore.Hbonds>
donor molecule, donor type, donor heavy atom, donor atom, acceptor molecule, acceptor atom, score
      L1  H     7    33       P1  8028  0.44
      P1  H  6933  6944       L1     9  0.30
      P1  H  6934  6946       L1     9  0.46
      P1  H  7989  7998       L1    14  0.65

> <Gold.Chemscore.Hbond.Weighted>
-6.8774

> <Gold.Chemscore.Metal.Weighted>
-0.0000

> <Gold.Chemscore.Lipo.Weighted>
-11.1665

> <Gold.Chemscore.Internal_Hbond.Weighted>
0.0000

> <Gold.Chemscore.DEClash.Weighted>
0.5466

> <Gold.Chemscore.DEInternal.Weighted>
2.0921

> <Gold.Chemscore.Rot.Weighted>
5.6893

> <Gold.Chemscore.Internal.Correction.Weighted>
   9.000000E+99

> <Gold.Protein.RotatedTorsions>
[ 6907 6896 6895 6894 ] final  -54.39 input  -60.11 | X-H torsion
[ 7974 7965 7964 7962 ] final  170.99 input  175.53 | X-H torsion
[ 8008 7997 7996 7995 ] final   27.07 input   59.86 | X-H torsion
[ 10167 10162 10161 10158 ] final  -87.45 input  -65.29 | X-H torsion
[ 10718 10713 10712 10709 ] final  -88.07 input   66.30 | X-H torsion
[ 10763 10752 10751 10750 ] final   82.13 input  -60.55 | X-H torsion
[ 11005 11000 10999 10996 ] final   64.15 input  -57.11 | X-H torsion

> <Gold.Protein.ActiveResidues>
 VAL166  LYS551  ARG553  GLY616  TRP617  ASP618  TYR619  PRO620  LYS621  CYS622 
 ASP623  PHE694  ASN695  SER759  ASP760  ASP761  ALA762  ILE779  LEU786  VAL792 
 PHE793  MET794  SER795  GLU796  ALA797  LYS798  CYS799  TRP800  GLU811  SER814 

> <Gold.Protein.RotatedAtoms>
  150.8342  134.7608  159.6878 H   0  0  0  0  0  0  0  0  0  0  0  0  # atno 6907 bound_to 6896
  152.4442  134.5526  159.9881 H   0  0  0  0  0  0  0  0  0  0  0  0  # atno 6908 bound_to 6896
  151.5680  133.3356  159.3020 H   0  0  0  0  0  0  0  0  0  0  0  0  # atno 6909 bound_to 6896
  144.7307  139.9284  143.6423 H   0  0  0  0  0  0  0  0  0  0  0  0  # atno 7974 bound_to 7965
  155.0371  140.3165  155.4737 H   0  0  0  0  0  0  0  0  0  0  0  0  # atno 8008 bound_to 7997
  156.2862  140.2169  156.5437 H   0  0  0  0  0  0  0  0  0  0  0  0  # atno 8009 bound_to 7997
  154.7321  140.0480  157.0723 H   0  0  0  0  0  0  0  0  0  0  0  0  # atno 8010 bound_to 7997
  140.3843  143.2734  151.9344 H   0  0  0  0  0  0  0  0  0  0  0  0  # atno 10167 bound_to 10162
  155.9984  130.4822  150.4964 H   0  0  0  0  0  0  0  0  0  0  0  0  # atno 10718 bound_to 10713
  153.1176  135.4740  154.9141 H   0  0  0  0  0  0  0  0  0  0  0  0  # atno 10763 bound_to 10752
  154.7544  135.3114  154.8501 H   0  0  0  0  0  0  0  0  0  0  0  0  # atno 10764 bound_to 10752
  153.9073  135.6869  153.4806 H   0  0  0  0  0  0  0  0  0  0  0  0  # atno 10765 bound_to 10752
  139.9977  134.6491  155.9982 H   0  0  0  0  0  0  0  0  0  0  0  0  # atno 11005 bound_to 11000
  146.0876  139.3865  143.0425 LP  0  0  0  0  0  0  0  0  0  0  0  0  # atno 17320 bound_to 7965
  145.7755  140.9878  143.1127 LP  0  0  0  0  0  0  0  0  0  0  0  0  # atno 17321 bound_to 7965
  139.4793  144.5788  151.7967 LP  0  0  0  0  0  0  0  0  0  0  0  0  # atno 17342 bound_to 10162
  140.4905  144.1317  150.5949 LP  0  0  0  0  0  0  0  0  0  0  0  0  # atno 17343 bound_to 10162
  157.2953  131.0634  151.2105 LP  0  0  0  0  0  0  0  0  0  0  0  0  # atno 17370 bound_to 10713
  157.3104  130.6887  149.6212 LP  0  0  0  0  0  0  0  0  0  0  0  0  # atno 17371 bound_to 10713
  141.1618  133.6538  156.4343 LP  0  0  0  0  0  0  0  0  0  0  0  0  # atno 17394 bound_to 11000
  140.4786  134.6686  157.5161 LP  0  0  0  0  0  0  0  0  0  0  0  0  # atno 17395 bound_to 11000

$$$$
