AV-unprocessed.smi:662|AV-procd|sdf|3246|dock10
  -GOLD-   22720 0193D 1   1.00000     0.00000
 Structure written by MMmdl.
 33 34  0  0  0  0  0  0  0  0  1 V2000
  152.2684  140.4903  156.9172 O   0  0  0  0  0  0  0  0  0  0  0  0
  151.2005  140.8060  157.4434 C   0  0  0  0  0  0  0  0  0  0  0  0
  150.1467  139.9788  157.5308 N   0  0  0  0  0  0  0  0  0  0  0  0
  150.1044  138.6019  157.0448 C   0  0  0  0  0  0  0  0  0  0  0  0
  149.9155  137.5791  158.1819 C   0  0  0  0  0  0  0  0  0  0  0  0
  148.5305  137.0252  158.2821 C   0  0  0  0  0  0  0  0  0  0  0  0
  147.8186  137.0320  159.4117 N   0  0  0  0  0  0  0  0  0  0  0  0
  146.5325  136.5065  159.2455 C   0  0  0  0  0  0  0  0  0  0  0  0
  145.5946  136.4458  160.4164 C   0  0  0  0  0  0  0  0  0  0  0  0
  146.1686  136.9042  161.5291 F   0  0  0  0  0  0  0  0  0  0  0  0
  144.5033  137.1785  160.1972 F   0  0  0  0  0  0  0  0  0  0  0  0
  145.2032  135.1942  160.6537 F   0  0  0  0  0  0  0  0  0  0  0  0
  146.2829  136.0954  157.9586 C   0  0  0  0  0  0  0  0  0  0  0  0
  147.6497  136.3583  156.9116 S   0  0  0  0  0  0  0  0  0  0  0  0
  151.0213  142.2014  158.0515 C   0  0  1  0  0  0  0  0  0  0  0  0
  151.8660  142.4121  159.3196 C   0  0  0  0  0  0  0  0  0  0  0  0
  152.5946  143.7262  159.0667 C   0  0  0  0  0  0  0  0  0  0  0  0
  151.7930  144.3809  157.9440 C   0  0  0  0  0  0  0  0  0  0  0  0
  151.4052  143.2581  157.1071 N   0  0  0  0  0  0  0  0  0  0  0  0
  149.3117  140.3271  157.9790 H   0  0  0  0  0  0  0  0  0  0  0  0
  149.2736  138.5204  156.3439 H   0  0  0  0  0  0  0  0  0  0  0  0
  151.0044  138.3656  156.4744 H   0  0  0  0  0  0  0  0  0  0  0  0
  150.6091  136.7483  158.0484 H   0  0  0  0  0  0  0  0  0  0  0  0
  150.1731  138.0407  159.1357 H   0  0  0  0  0  0  0  0  0  0  0  0
  145.3780  135.6581  157.5641 H   0  0  0  0  0  0  0  0  0  0  0  0
  149.9713  142.3530  158.3092 H   0  0  0  0  0  0  0  0  0  0  0  0
  151.2161  142.4942  160.1915 H   0  0  0  0  0  0  0  0  0  0  0  0
  152.5745  141.6053  159.5158 H   0  0  0  0  0  0  0  0  0  0  0  0
  152.6565  144.3517  159.9575 H   0  0  0  0  0  0  0  0  0  0  0  0
  153.6119  143.5265  158.7270 H   0  0  0  0  0  0  0  0  0  0  0  0
  150.8998  144.8673  158.3390 H   0  0  0  0  0  0  0  0  0  0  0  0
  152.3700  145.1190  157.3864 H   0  0  0  0  0  0  0  0  0  0  0  0
  150.6626  143.5053  156.4689 H   0  0  0  0  0  0  0  0  0  0  0  0
  1  2  2  0  0  0  0
  2  3  1  0  0  0  0
  2 15  1  0  0  0  0
  3  4  1  0  0  0  0
  3 20  1  0  0  0  0
  4  5  1  0  0  0  0
  4 21  1  0  0  0  0
  4 22  1  0  0  0  0
  5  6  1  0  0  0  0
  5 23  1  0  0  0  0
  5 24  1  0  0  0  0
  6 14  1  0  0  0  0
  6  7  2  0  0  0  0
  7  8  1  0  0  0  0
  8  9  1  0  0  0  0
  8 13  2  0  0  0  0
  9 10  1  0  0  0  0
  9 11  1  0  0  0  0
  9 12  1  0  0  0  0
 13 14  1  0  0  0  0
 13 25  1  0  0  0  0
 15 19  1  0  0  0  0
 15 16  1  0  0  0  0
 15 26  1  0  0  0  0
 16 17  1  0  0  0  0
 16 27  1  0  0  0  0
 16 28  1  0  0  0  0
 17 18  1  0  0  0  0
 17 29  1  0  0  0  0
 17 30  1  0  0  0  0
 18 19  1  0  0  0  0
 18 31  1  0  0  0  0
 18 32  1  0  0  0  0
 19 33  1  0  0  0  0
M  END
> <s_m_source_file>
AV-unprocessed.smi

> <i_m_source_file_index>
662

> <i_lp_mmshare_version>
43012

> <i_f3d_flags>
0

> <s_epik_input>
W05IXTFbQ0gyXVtDSDJdW0NIMl1bQ0BIXTFDKD1PKVtOSF1bQ0gyXVtDSDJdYzJuYyhDKEYpKEYpRilbY0hdczI=

> <s_epik_cmdline>
J2VwaWtfcHl0aG9uJywgJy1waCcsICc3LjAnLCAnLXRuJywgJzgnLCAnLW1hJywgJzIwMCcsICctbWV0YWxfYmluZGluZycsICctaW1hZScsICc8aW5maWxlLm1hZT4nLCAnLW9tYWUnLCAnPG91dGZpbGUubWFlPic=

> <r_epik_Ionization_Penalty>
1.64272

> <r_epik_Ionization_Penalty_Charging>
0

> <r_epik_Ionization_Penalty_Neutral>
1.64272

> <r_epik_State_Penalty>
1.74416

> <r_epik_Charging_Adjusted_Penalty>
1.74416

> <i_epik_Tot_Q>
0

> <i_epik_Tot_abs_Q>
0

> <r_epik_Metal_State_Penalty>
1.74416

> <b_epik_Metal_Only>
0

> <s_lp_Force_Field>
OPLS_2005

> <r_lp_Energy>
17.8155

> <b_lp_Chiralities_Consistent>
1

> <s_lp_Variant>
AV-unprocessed.smi:662-4

> <Gold.Version>
5.8.1

> <Gold.Id.Protein>
6NUR|6NUR_protein|mol2

> <Gold.PLP.Fitness>
45.5791

> <Gold.PLP.PLP>
-41.0727

> <Gold.PLP.part.hbond>
-2.7567

> <Gold.PLP.part.metal>
0.0000

> <Gold.PLP.part.buried>
-3.4812

> <Gold.PLP.part.nonpolar>
-34.4276

> <Gold.PLP.part.repulsive>
0.1352

> <Gold.PLP.ligand.clash>
0.0000

> <Gold.PLP.ligand.torsion>
0.5567

> <Gold.PLP.Chemscore.Hbond>
1.8660

> <Gold.PLP.Chemscore.CHOScore>
0.0000

> <Gold.PLP.Chemscore.Metal>
0.0000

> <Gold.Chemscore.Hbonds>
donor molecule, donor type, donor heavy atom, donor atom, acceptor molecule, acceptor atom, score
      L1  H    19    33       P1  8028  0.36
      P1  H  7997  8010       L1     1  0.59

> <Gold.PLP.Chemscore.Internal.Correction>
0.0217

> <Gold.Rescore>
     Score         DG    S(hbond)    S(metal)    S(lipo)     H(rot)  DE(clash)    DE(int)     intcor
     14.64     -15.66       1.80        0.00      77.50       1.91       0.17       0.85       ----

> <Gold.Chemscore.Fitness>
14.6372

> <Gold.Chemscore.DG>
-15.6559

> <Gold.Chemscore.ZeroCoef>
-5.4800

> <Gold.Chemscore.Hbond>
1.7953

> <Gold.Chemscore.Metal>
0.0000

> <Gold.Chemscore.Lipo>
77.5033

> <Gold.Chemscore.Internal_Hbond>
0.0000

> <Gold.Chemscore.DEClash>
0.1707

> <Gold.Chemscore.DEInternal>
0.8480

> <Gold.Chemscore.Rot>
1.9095

> <Gold.Chemscore.Internal.Correction>
   9.000000E+99

> <Gold.Chemscore.Hbonds>
donor molecule, donor type, donor heavy atom, donor atom, acceptor molecule, acceptor atom, score
      L1  H    19    33       P1  8028  0.35
      P1  H  7997  8010       L1     1  0.58

> <Gold.Chemscore.Hbond.Weighted>
-5.9964

> <Gold.Chemscore.Metal.Weighted>
-0.0000

> <Gold.Chemscore.Lipo.Weighted>
-9.0679

> <Gold.Chemscore.Internal_Hbond.Weighted>
0.0000

> <Gold.Chemscore.DEClash.Weighted>
0.1707

> <Gold.Chemscore.DEInternal.Weighted>
0.8480

> <Gold.Chemscore.Rot.Weighted>
4.8883

> <Gold.Chemscore.Internal.Correction.Weighted>
   9.000000E+99

> <Gold.Protein.RotatedTorsions>
[ 6907 6896 6895 6894 ] final  -39.88 input  -60.11 | X-H torsion
[ 7974 7965 7964 7962 ] final   31.37 input  175.53 | X-H torsion
[ 8008 7997 7996 7995 ] final   58.16 input   59.86 | X-H torsion
[ 10167 10162 10161 10158 ] final  144.69 input  -65.29 | X-H torsion
[ 10718 10713 10712 10709 ] final -132.70 input   66.30 | X-H torsion
[ 10763 10752 10751 10750 ] final   -0.80 input  -60.55 | X-H torsion
[ 11005 11000 10999 10996 ] final   53.32 input  -57.11 | X-H torsion

> <Gold.Protein.ActiveResidues>
 VAL166  LYS551  ARG553  GLY616  TRP617  ASP618  TYR619  PRO620  LYS621  CYS622 
 ASP623  PHE694  ASN695  SER759  ASP760  ASP761  ALA762  ILE779  LEU786  VAL792 
 PHE793  MET794  SER795  GLU796  ALA797  LYS798  CYS799  TRP800  GLU811  SER814 

> <Gold.Protein.RotatedAtoms>
  150.9851  134.9198  159.7866 H   0  0  0  0  0  0  0  0  0  0  0  0  # atno 6907 bound_to 6896
  152.5234  134.3358  159.9209 H   0  0  0  0  0  0  0  0  0  0  0  0  # atno 6908 bound_to 6896
  151.3364  133.3938  159.2701 H   0  0  0  0  0  0  0  0  0  0  0  0  # atno 6909 bound_to 6896
  146.1554  139.6665  142.9070 H   0  0  0  0  0  0  0  0  0  0  0  0  # atno 7974 bound_to 7965
  155.5454  140.3485  155.4456 H   0  0  0  0  0  0  0  0  0  0  0  0  # atno 8008 bound_to 7997
  156.0621  140.1342  156.9955 H   0  0  0  0  0  0  0  0  0  0  0  0  # atno 8009 bound_to 7997
  154.4485  140.0983  156.6517 H   0  0  0  0  0  0  0  0  0  0  0  0  # atno 8010 bound_to 7997
  139.4941  144.5954  151.6594 H   0  0  0  0  0  0  0  0  0  0  0  0  # atno 10167 bound_to 10162
  156.2372  130.7074  151.0920 H   0  0  0  0  0  0  0  0  0  0  0  0  # atno 10718 bound_to 10713
  153.3366  135.6978  153.6902 H   0  0  0  0  0  0  0  0  0  0  0  0  # atno 10763 bound_to 10752
  153.5684  135.3521  155.2828 H   0  0  0  0  0  0  0  0  0  0  0  0  # atno 10764 bound_to 10752
  154.8628  135.4266  154.2568 H   0  0  0  0  0  0  0  0  0  0  0  0  # atno 10765 bound_to 10752
  140.0776  134.5382  155.8980 H   0  0  0  0  0  0  0  0  0  0  0  0  # atno 11005 bound_to 11000
  145.4721  141.0436  143.2693 LP  0  0  0  0  0  0  0  0  0  0  0  0  # atno 17320 bound_to 7965
  144.7957  139.6240  143.7094 LP  0  0  0  0  0  0  0  0  0  0  0  0  # atno 17321 bound_to 7965
  140.5591  144.0299  150.6161 LP  0  0  0  0  0  0  0  0  0  0  0  0  # atno 17342 bound_to 10162
  140.3379  143.3037  152.0619 LP  0  0  0  0  0  0  0  0  0  0  0  0  # atno 17343 bound_to 10162
  157.7160  131.0709  150.6326 LP  0  0  0  0  0  0  0  0  0  0  0  0  # atno 17370 bound_to 10713
  156.6397  130.4455  149.5757 LP  0  0  0  0  0  0  0  0  0  0  0  0  # atno 17371 bound_to 10713
  141.2035  133.6632  156.6068 LP  0  0  0  0  0  0  0  0  0  0  0  0  # atno 17394 bound_to 11000
  140.3534  134.7749  157.4483 LP  0  0  0  0  0  0  0  0  0  0  0  0  # atno 17395 bound_to 11000

$$$$
