AV-unprocessed.smi:72|AV-procd|sdf|744|dock1
  -GOLD-   2262017 73D 1   1.00000     0.00000
 Structure written by MMmdl.
 29 30  0  0  0  0  0  0  0  0  1 V2000
  153.0414  139.1041  159.4014 N   0  0  0  0  0  0  0  0  0  0  0  0
  152.2703  139.3446  158.2837 C   0  0  0  0  0  0  0  0  0  0  0  0
  150.9013  139.5482  158.5041 N   0  0  0  0  0  0  0  0  0  0  0  0
  150.1715  139.7719  157.4574 C   0  0  0  0  0  0  0  0  0  0  0  0
  150.7530  139.8070  156.1258 N   0  0  0  0  0  0  0  0  0  0  0  0
  149.9233  140.0671  154.8804 C   0  0  1  0  0  0  0  0  0  0  0  0
  148.7458  139.3114  154.9240 O   0  0  0  0  0  0  0  0  0  0  0  0
  147.6224  140.1609  155.1437 C   0  0  2  0  0  0  0  0  0  0  0  0
  146.3499  139.4915  154.6027 C   0  0  0  0  0  0  0  0  0  0  0  0
  145.2457  140.3581  154.7513 O   0  0  0  0  0  0  0  0  0  0  0  0
  148.0306  141.4171  154.3754 C   0  0  1  0  0  0  0  0  0  0  0  0
  147.2656  142.5558  154.7240 O   0  0  0  0  0  0  0  0  0  0  0  0
  149.5118  141.5498  154.7162 C   0  0  1  0  0  0  0  0  0  0  0  0
  149.7231  142.3333  155.8816 O   0  0  0  0  0  0  0  0  0  0  0  0
  152.1518  139.5983  155.9777 C   0  0  0  0  0  0  0  0  0  0  0  0
  152.6669  139.6405  154.8602 O   0  0  0  0  0  0  0  0  0  0  0  0
  152.8933  139.3583  157.1404 N   0  0  0  0  0  0  0  0  0  0  0  0
  150.5184  139.6906  154.0467 H   0  0  0  0  0  0  0  0  0  0  0  0
  147.5270  140.3949  156.2057 H   0  0  0  0  0  0  0  0  0  0  0  0
  147.9274  141.2373  153.3040 H   0  0  0  0  0  0  0  0  0  0  0  0
  150.0728  141.9959  153.8945 H   0  0  0  0  0  0  0  0  0  0  0  0
  154.0375  138.9440  159.3635 H   0  0  0  0  0  0  0  0  0  0  0  0
  152.6683  139.0720  160.3391 H   0  0  0  0  0  0  0  0  0  0  0  0
  149.0969  139.9451  157.5131 H   0  0  0  0  0  0  0  0  0  0  0  0
  146.4593  139.2825  153.5382 H   0  0  0  0  0  0  0  0  0  0  0  0
  146.1577  138.5414  155.1018 H   0  0  0  0  0  0  0  0  0  0  0  0
  144.7441  140.3460  153.9505 H   0  0  0  0  0  0  0  0  0  0  0  0
  147.8554  143.2349  155.0138 H   0  0  0  0  0  0  0  0  0  0  0  0
  149.1879  143.1100  155.8214 H   0  0  0  0  0  0  0  0  0  0  0  0
  1  2  1  0  0  0  0
  1 22  1  0  0  0  0
  1 23  1  0  0  0  0
  2 17  2  0  0  0  0
  2  3  1  0  0  0  0
  3  4  2  0  0  0  0
  4  5  1  0  0  0  0
  4 24  1  0  0  0  0
  5  6  1  0  0  0  0
  5 15  1  0  0  0  0
  6 18  1  0  0  0  0
  6 13  1  0  0  0  0
  6  7  1  0  0  0  0
  7  8  1  0  0  0  0
  8 19  1  0  0  0  0
  8  9  1  0  0  0  0
  8 11  1  0  0  0  0
  9 10  1  0  0  0  0
  9 25  1  0  0  0  0
  9 26  1  0  0  0  0
 10 27  1  0  0  0  0
 11 20  1  0  0  0  0
 11 12  1  0  0  0  0
 11 13  1  0  0  0  0
 12 28  1  0  0  0  0
 13 21  1  0  0  0  0
 13 14  1  0  0  0  0
 14 29  1  0  0  0  0
 15 16  2  0  0  0  0
 15 17  1  0  0  0  0
M  END
> <s_m_source_file>
AV-unprocessed.smi

> <i_m_source_file_index>
72

> <i_lp_mmshare_version>
43012

> <i_f3d_flags>
0

> <s_epik_input>
W05IMl1jMW5bY0hdbihjKD1PKW4xKVtDQEBIXTJPW0NASF0oW0NIMl1bT0hdKVtDQEBIXShbT0hdKVtDQEhdMltPSF0=

> <s_epik_cmdline>
J2VwaWtfcHl0aG9uJywgJy1waCcsICc3LjAnLCAnLXRuJywgJzgnLCAnLW1hJywgJzIwMCcsICctbWV0YWxfYmluZGluZycsICctaW1hZScsICc8aW5maWxlLm1hZT4nLCAnLW9tYWUnLCAnPG91dGZpbGUubWFlPic=

> <r_lp_tautomer_probability>
4.77166e-05

> <r_epik_Ionization_Penalty>
1.3546

> <r_epik_Ionization_Penalty_Charging>
1.46833e-10

> <r_epik_Ionization_Penalty_Neutral>
1.3546

> <r_epik_State_Penalty>
3.51908

> <r_epik_Charging_Adjusted_Penalty>
3.51908

> <i_epik_Tot_Q>
0

> <i_epik_Tot_abs_Q>
0

> <r_epik_Metal_State_Penalty>
3.44088

> <b_epik_Metal_Only>
1

> <s_epik_Chemistry_Notes>
This compound contains an acetal/aminal-like group ( X-CH(R)-Y where X, Y are N, S, or O) that may be acid/base labile, releasing an aldehyde.

> <s_lp_Force_Field>
OPLS_2005

> <r_lp_Energy>
34.5765

> <b_lp_Chiralities_Consistent>
1

> <s_lp_Variant>
AV-unprocessed.smi:72-82

> <Gold.Version>
5.8.1

> <Gold.Id.Protein>
6NUR|6NUR_protein|mol2

> <Gold.PLP.Fitness>
36.6459

> <Gold.PLP.PLP>
-23.6295

> <Gold.PLP.part.hbond>
-5.3708

> <Gold.PLP.part.metal>
0.0000

> <Gold.PLP.part.buried>
-3.6329

> <Gold.PLP.part.nonpolar>
-14.8766

> <Gold.PLP.part.repulsive>
0.2092

> <Gold.PLP.ligand.clash>
0.0000

> <Gold.PLP.ligand.torsion>
0.3924

> <Gold.PLP.Chemscore.Hbond>
4.5760

> <Gold.PLP.Chemscore.CHOScore>
0.0000

> <Gold.PLP.Chemscore.Metal>
0.0000

> <Gold.Chemscore.Hbonds>
donor molecule, donor type, donor heavy atom, donor atom, acceptor molecule, acceptor atom, score
      L1  H    10    27       P1 10175  1.00
      L1  H    12    28       P1  8028  1.00
      L1  H    14    29       P1  8028  1.00
      P1  H  7989  7998       L1    16  0.50
      P1  H  7997  8009       L1    17  1.00

> <Gold.PLP.Chemscore.Internal.Correction>
0.0731

> <Gold.Rescore>
     Score         DG    S(hbond)    S(metal)    S(lipo)     H(rot)  DE(clash)    DE(int)     intcor
     10.59     -11.34       4.16        0.00      20.28       4.06       0.13       0.62       ----

> <Gold.Chemscore.Fitness>
10.5928

> <Gold.Chemscore.DG>
-11.3384

> <Gold.Chemscore.ZeroCoef>
-5.4800

> <Gold.Chemscore.Hbond>
4.1554

> <Gold.Chemscore.Metal>
0.0000

> <Gold.Chemscore.Lipo>
20.2830

> <Gold.Chemscore.Internal_Hbond>
0.0000

> <Gold.Chemscore.DEClash>
0.1255

> <Gold.Chemscore.DEInternal>
0.6202

> <Gold.Chemscore.Rot>
4.0600

> <Gold.Chemscore.Internal.Correction>
   9.000000E+99

> <Gold.Chemscore.Hbonds>
donor molecule, donor type, donor heavy atom, donor atom, acceptor molecule, acceptor atom, score
      L1  H    10    27       P1 10175  1.00
      L1  H    12    28       P1  8028  0.70
      L1  H    14    29       P1  8028  0.98
      P1  H  7989  7998       L1    16  0.43
      P1  H  7997  8009       L1    17  0.35

> <Gold.Chemscore.Hbond.Weighted>
-13.8789

> <Gold.Chemscore.Metal.Weighted>
-0.0000

> <Gold.Chemscore.Lipo.Weighted>
-2.3731

> <Gold.Chemscore.Internal_Hbond.Weighted>
0.0000

> <Gold.Chemscore.DEClash.Weighted>
0.1255

> <Gold.Chemscore.DEInternal.Weighted>
0.6202

> <Gold.Chemscore.Rot.Weighted>
10.3936

> <Gold.Chemscore.Internal.Correction.Weighted>
   9.000000E+99

> <Gold.Protein.RotatedTorsions>
[ 6907 6896 6895 6894 ] final  -50.41 input  -60.11 | X-H torsion
[ 7974 7965 7964 7962 ] final    8.97 input  175.53 | X-H torsion
[ 8008 7997 7996 7995 ] final  172.82 input   59.86 | X-H torsion
[ 10167 10162 10161 10158 ] final   18.58 input  -65.29 | X-H torsion
[ 10718 10713 10712 10709 ] final -172.45 input   66.30 | X-H torsion
[ 10763 10752 10751 10750 ] final -104.84 input  -60.55 | X-H torsion
[ 11005 11000 10999 10996 ] final  -74.35 input  -57.11 | X-H torsion

> <Gold.Protein.ActiveResidues>
 VAL166  LYS551  ARG553  GLY616  TRP617  ASP618  TYR619  PRO620  LYS621  CYS622 
 ASP623  PHE694  ASN695  SER759  ASP760  ASP761  ALA762  ILE779  LEU786  VAL792 
 PHE793  MET794  SER795  GLU796  ALA797  LYS798  CYS799  TRP800  GLU811  SER814 

> <Gold.Protein.RotatedAtoms>
  150.8710  134.8084  159.7154 H   0  0  0  0  0  0  0  0  0  0  0  0  # atno 6907 bound_to 6896
  152.4714  134.4947  159.9716 H   0  0  0  0  0  0  0  0  0  0  0  0  # atno 6908 bound_to 6896
  151.5035  133.3461  159.2908 H   0  0  0  0  0  0  0  0  0  0  0  0  # atno 6909 bound_to 6896
  146.2409  139.9853  142.8431 H   0  0  0  0  0  0  0  0  0  0  0  0  # atno 7974 bound_to 7965
  156.1137  140.1476  156.9303 H   0  0  0  0  0  0  0  0  0  0  0  0  # atno 8008 bound_to 7997
  154.4785  140.0887  156.7363 H   0  0  0  0  0  0  0  0  0  0  0  0  # atno 8009 bound_to 7997
  155.4551  140.3436  155.4308 H   0  0  0  0  0  0  0  0  0  0  0  0  # atno 8010 bound_to 7997
  140.5642  143.9280  150.6665 H   0  0  0  0  0  0  0  0  0  0  0  0  # atno 10167 bound_to 10162
  156.7557  130.9395  151.3116 H   0  0  0  0  0  0  0  0  0  0  0  0  # atno 10718 bound_to 10713
  154.7906  135.4771  154.0044 H   0  0  0  0  0  0  0  0  0  0  0  0  # atno 10763 bound_to 10752
  153.1625  135.6811  153.8729 H   0  0  0  0  0  0  0  0  0  0  0  0  # atno 10764 bound_to 10752
  153.8338  135.3188  155.3399 H   0  0  0  0  0  0  0  0  0  0  0  0  # atno 10765 bound_to 10752
  141.1634  133.6909  156.7352 H   0  0  0  0  0  0  0  0  0  0  0  0  # atno 11005 bound_to 11000
  145.1554  140.9645  143.4408 LP  0  0  0  0  0  0  0  0  0  0  0  0  # atno 17320 bound_to 7965
  145.0166  139.3461  143.6093 LP  0  0  0  0  0  0  0  0  0  0  0  0  # atno 17321 bound_to 7965
  140.2739  143.3436  152.1213 LP  0  0  0  0  0  0  0  0  0  0  0  0  # atno 17342 bound_to 10162
  139.5085  144.6851  151.5909 LP  0  0  0  0  0  0  0  0  0  0  0  0  # atno 17343 bound_to 10162
  157.6757  130.9092  150.0145 LP  0  0  0  0  0  0  0  0  0  0  0  0  # atno 17370 bound_to 10713
  156.1372  130.3642  149.9639 LP  0  0  0  0  0  0  0  0  0  0  0  0  # atno 17371 bound_to 10713
  140.2716  134.8388  157.3852 LP  0  0  0  0  0  0  0  0  0  0  0  0  # atno 17394 bound_to 11000
  140.1516  134.4842  155.7957 LP  0  0  0  0  0  0  0  0  0  0  0  0  # atno 17395 bound_to 11000

$$$$
