AV-unprocessed.smi:3156|AV-procd|sdf|12036|dock6
  -GOLD-   2272017453D 1   1.00000     0.00000
 Structure written by MMmdl.
 41 42  0  0  0  0  0  0  0  0  2 V2000
  146.7765  138.8549  151.4904 C   0  0  0  0  0  0  0  0  0  0  0  0
  146.3215  138.2490  152.8282 C   0  0  1  0  0  0  0  0  0  0  0  0
  146.1805  136.7840  152.6581 N   0  3  0  0  0  0  0  0  0  0  0  0
  145.1520  136.3636  151.6838 C   0  0  0  0  0  0  0  0  0  0  0  0
  145.1123  134.8361  151.5328 C   0  0  1  0  0  0  0  0  0  0  0  0
  144.3317  134.3884  150.2785 C   0  0  0  0  0  0  0  0  0  0  0  0
  144.4138  132.8682  150.1030 C   0  0  0  0  0  0  0  0  0  0  0  0
  145.8803  132.4265  150.1195 C   0  0  0  0  0  0  0  0  0  0  0  0
  146.5850  132.9667  151.3734 C   0  0  0  0  0  0  0  0  0  0  0  0
  146.4603  134.3846  151.4269 O   0  0  0  0  0  0  0  0  0  0  0  0
  147.2984  138.5638  153.9942 C   0  0  1  0  0  0  0  0  0  0  0  0
  148.7091  137.9799  153.7838 C   0  0  0  0  0  0  0  0  0  0  0  0
  147.3880  139.9984  154.2447 N   0  0  0  0  0  0  0  0  0  0  0  0
  146.7649  141.0247  153.5641 C   0  0  0  0  0  0  0  0  0  0  0  0
  147.1608  142.1973  154.1405 C   0  0  0  0  0  0  0  0  0  0  0  0
  148.0361  141.7837  155.1827 C   0  0  0  0  0  0  0  0  0  0  0  0
  148.1725  140.4692  155.2406 N   0  0  0  0  0  0  0  0  0  0  0  0
  146.7860  139.9441  151.5231 H   0  0  0  0  0  0  0  0  0  0  0  0
  146.1009  138.5697  150.6833 H   0  0  0  0  0  0  0  0  0  0  0  0
  147.7779  138.5183  151.2202 H   0  0  0  0  0  0  0  0  0  0  0  0
  145.3450  138.6774  153.0617 H   0  0  0  0  0  0  0  0  0  0  0  0
  147.0694  136.4060  152.3631 H   0  0  0  0  0  0  0  0  0  0  0  0
  144.1700  136.7283  151.9867 H   0  0  0  0  0  0  0  0  0  0  0  0
  145.3805  136.8278  150.7235 H   0  0  0  0  0  0  0  0  0  0  0  0
  144.6658  134.3995  152.4282 H   0  0  0  0  0  0  0  0  0  0  0  0
  143.2877  134.6957  150.3450 H   0  0  0  0  0  0  0  0  0  0  0  0
  144.7437  134.8779  149.3947 H   0  0  0  0  0  0  0  0  0  0  0  0
  143.8712  132.3735  150.9097 H   0  0  0  0  0  0  0  0  0  0  0  0
  143.9357  132.5656  149.1709 H   0  0  0  0  0  0  0  0  0  0  0  0
  145.9485  131.3388  150.0859 H   0  0  0  0  0  0  0  0  0  0  0  0
  146.3864  132.7998  149.2283 H   0  0  0  0  0  0  0  0  0  0  0  0
  146.1685  132.5196  152.2772 H   0  0  0  0  0  0  0  0  0  0  0  0
  147.6434  132.7074  151.3484 H   0  0  0  0  0  0  0  0  0  0  0  0
  146.8951  138.1121  154.9018 H   0  0  0  0  0  0  0  0  0  0  0  0
  148.6987  136.8904  153.7801 H   0  0  0  0  0  0  0  0  0  0  0  0
  149.3811  138.2874  154.5859 H   0  0  0  0  0  0  0  0  0  0  0  0
  149.1451  138.3130  152.8416 H   0  0  0  0  0  0  0  0  0  0  0  0
  146.1008  140.8390  152.7327 H   0  0  0  0  0  0  0  0  0  0  0  0
  146.8681  143.1988  153.8619 H   0  0  0  0  0  0  0  0  0  0  0  0
  148.5744  142.3948  155.8922 H   0  0  0  0  0  0  0  0  0  0  0  0
  145.9472  136.3884  153.5575 H   0  0  0  0  0  0  0  0  0  0  0  0
  1  2  1  0  0  0  0
  1 18  1  0  0  0  0
  1 19  1  0  0  0  0
  1 20  1  0  0  0  0
  2  3  1  0  0  0  0
  2 11  1  0  0  0  0
  2 21  1  0  0  0  0
  3  4  1  0  0  0  0
  3 22  1  0  0  0  0
  3 41  1  0  0  0  0
  4  5  1  0  0  0  0
  4 23  1  0  0  0  0
  4 24  1  0  0  0  0
  5 10  1  0  0  0  0
  5  6  1  0  0  0  0
  5 25  1  0  0  0  0
  6  7  1  0  0  0  0
  6 26  1  0  0  0  0
  6 27  1  0  0  0  0
  7  8  1  0  0  0  0
  7 28  1  0  0  0  0
  7 29  1  0  0  0  0
  8  9  1  0  0  0  0
  8 30  1  0  0  0  0
  8 31  1  0  0  0  0
  9 10  1  0  0  0  0
  9 32  1  0  0  0  0
  9 33  1  0  0  0  0
 11 12  1  0  0  0  0
 11 13  1  0  0  0  0
 11 34  1  0  0  0  0
 12 35  1  0  0  0  0
 12 36  1  0  0  0  0
 12 37  1  0  0  0  0
 13 17  1  0  0  0  0
 13 14  1  0  0  0  0
 14 15  2  0  0  0  0
 14 38  1  0  0  0  0
 15 16  1  0  0  0  0
 15 39  1  0  0  0  0
 16 17  2  0  0  0  0
 16 40  1  0  0  0  0
M  CHG  1   3   1
M  END
> <s_m_source_file>
AV-unprocessed.smi

> <i_m_source_file_index>
3156

> <i_lp_mmshare_version>
43012

> <i_f3d_flags>
0

> <s_epik_input>
bjFbY0hdW2NIXVtjSF1uMVtDQEBIXShbQ0gzXSlbQ0BIXShbQ0gzXSlbTkhdW0NIMl1bQ0BASF0yW0NIMl1bQ0gyXVtDSDJdW0NIMl1PMg==

> <s_epik_cmdline>
J2VwaWtfcHl0aG9uJywgJy1waCcsICc3LjAnLCAnLXRuJywgJzgnLCAnLW1hJywgJzIwMCcsICctbWV0YWxfYmluZGluZycsICctaW1hZScsICc8aW5maWxlLm1hZT4nLCAnLW9tYWUnLCAnPG91dGZpbGUubWFlPic=

> <r_lp_tautomer_probability>
1

> <r_epik_Ionization_Penalty>
0.00658015

> <r_epik_Ionization_Penalty_Charging>
0.00656881

> <r_epik_Ionization_Penalty_Neutral>
1.13431e-05

> <r_epik_State_Penalty>
0.0048654

> <r_epik_Charging_Adjusted_Penalty>
0.0114342

> <i_epik_Tot_Q>
1

> <i_epik_Tot_abs_Q>
1

> <r_epik_Metal_State_Penalty>
-0

> <b_epik_Metal_Only>
0

> <s_lp_Force_Field>
OPLS_2005

> <r_lp_Energy>
18.5215

> <b_lp_Chiralities_Consistent>
1

> <s_lp_Variant>
AV-unprocessed.smi:3156-8

> <Gold.Version>
5.8.1

> <Gold.Id.Protein>
6NUR|6NUR_protein|mol2

> <Gold.PLP.Fitness>
39.9146

> <Gold.PLP.PLP>
-28.4244

> <Gold.PLP.part.hbond>
-1.0000

> <Gold.PLP.part.metal>
0.0000

> <Gold.PLP.part.buried>
3.7604

> <Gold.PLP.part.nonpolar>
-32.3273

> <Gold.PLP.part.repulsive>
0.7982

> <Gold.PLP.ligand.clash>
0.0000

> <Gold.PLP.ligand.torsion>
0.1589

> <Gold.PLP.Chemscore.Hbond>
2.0000

> <Gold.PLP.Chemscore.CHOScore>
1.9061

> <Gold.PLP.Chemscore.Metal>
0.0000

> <Gold.Chemscore.Hbonds>
donor molecule, donor type, donor heavy atom, donor atom, acceptor molecule, acceptor atom, score
      L1  H     3    22       P1  7948  2.00
      L1  C    14    38       P1 10175  1.00
      L1  C    16    40       P1  8028  0.87

> <Gold.PLP.Chemscore.Internal.Correction>
0.0896

> <Gold.Rescore>
     Score         DG    S(hbond)    S(metal)    S(lipo)     H(rot)  DE(clash)    DE(int)     intcor
     12.92     -15.20       1.00        0.00      89.52       1.59       2.08       0.20       ----

> <Gold.Chemscore.Fitness>
12.9154

> <Gold.Chemscore.DG>
-15.2011

> <Gold.Chemscore.ZeroCoef>
-5.4800

> <Gold.Chemscore.Hbond>
0.9961

> <Gold.Chemscore.Metal>
0.0000

> <Gold.Chemscore.Lipo>
89.5242

> <Gold.Chemscore.Internal_Hbond>
0.0000

> <Gold.Chemscore.DEClash>
2.0807

> <Gold.Chemscore.DEInternal>
0.2049

> <Gold.Chemscore.Rot>
1.5938

> <Gold.Chemscore.Internal.Correction>
   9.000000E+99

> <Gold.Chemscore.Hbonds>
donor molecule, donor type, donor heavy atom, donor atom, acceptor molecule, acceptor atom, score
      L1  H     3    22       P1  7948  0.99

> <Gold.Chemscore.Hbond.Weighted>
-3.3270

> <Gold.Chemscore.Metal.Weighted>
-0.0000

> <Gold.Chemscore.Lipo.Weighted>
-10.4743

> <Gold.Chemscore.Internal_Hbond.Weighted>
0.0000

> <Gold.Chemscore.DEClash.Weighted>
2.0807

> <Gold.Chemscore.DEInternal.Weighted>
0.2049

> <Gold.Chemscore.Rot.Weighted>
4.0802

> <Gold.Chemscore.Internal.Correction.Weighted>
   9.000000E+99

> <Gold.Protein.RotatedTorsions>
[ 6907 6896 6895 6894 ] final  157.91 input  -60.11 | X-H torsion
[ 7974 7965 7964 7962 ] final  141.58 input  175.53 | X-H torsion
[ 8008 7997 7996 7995 ] final   17.50 input   59.86 | X-H torsion
[ 10167 10162 10161 10158 ] final    6.60 input  -65.29 | X-H torsion
[ 10718 10713 10712 10709 ] final   23.94 input   66.30 | X-H torsion
[ 10763 10752 10751 10750 ] final   29.94 input  -60.55 | X-H torsion
[ 11005 11000 10999 10996 ] final  126.13 input  -57.11 | X-H torsion

> <Gold.Protein.ActiveResidues>
 VAL166  LYS551  ARG553  GLY616  TRP617  ASP618  TYR619  PRO620  LYS621  CYS622 
 ASP623  PHE694  ASN695  SER759  ASP760  ASP761  ALA762  ILE779  LEU786  VAL792 
 PHE793  MET794  SER795  GLU796  ALA797  LYS798  CYS799  TRP800  GLU811  SER814 

> <Gold.Protein.RotatedAtoms>
  152.0082  133.3851  159.4208 H   0  0  0  0  0  0  0  0  0  0  0  0  # atno 6907 bound_to 6896
  150.6902  134.3760  159.5022 H   0  0  0  0  0  0  0  0  0  0  0  0  # atno 6908 bound_to 6896
  152.1517  134.8983  160.0598 H   0  0  0  0  0  0  0  0  0  0  0  0  # atno 6909 bound_to 6896
  144.9084  139.5327  143.5720 H   0  0  0  0  0  0  0  0  0  0  0  0  # atno 7974 bound_to 7965
  154.8923  140.2988  155.5364 H   0  0  0  0  0  0  0  0  0  0  0  0  # atno 8008 bound_to 7997
  156.3020  140.2422  156.3874 H   0  0  0  0  0  0  0  0  0  0  0  0  # atno 8009 bound_to 7997
  154.8606  140.0405  157.1652 H   0  0  0  0  0  0  0  0  0  0  0  0  # atno 8010 bound_to 7997
  140.6419  143.7754  150.7440 H   0  0  0  0  0  0  0  0  0  0  0  0  # atno 10167 bound_to 10162
  157.1730  130.6768  149.6085 H   0  0  0  0  0  0  0  0  0  0  0  0  # atno 10718 bound_to 10713
  153.0401  135.6476  154.0968 H   0  0  0  0  0  0  0  0  0  0  0  0  # atno 10763 bound_to 10752
  154.0676  135.2883  155.3315 H   0  0  0  0  0  0  0  0  0  0  0  0  # atno 10764 bound_to 10752
  154.6616  135.5389  153.8090 H   0  0  0  0  0  0  0  0  0  0  0  0  # atno 10765 bound_to 10752
  139.9440  134.9632  156.8661 H   0  0  0  0  0  0  0  0  0  0  0  0  # atno 11005 bound_to 11000
  146.3145  139.7870  142.8994 LP  0  0  0  0  0  0  0  0  0  0  0  0  # atno 17320 bound_to 7965
  145.3497  141.0305  143.3346 LP  0  0  0  0  0  0  0  0  0  0  0  0  # atno 17321 bound_to 7965
  140.1387  143.4460  152.2207 LP  0  0  0  0  0  0  0  0  0  0  0  0  # atno 17342 bound_to 10162
  139.5628  144.7416  151.4106 LP  0  0  0  0  0  0  0  0  0  0  0  0  # atno 17343 bound_to 10162
  155.9735  130.4672  150.6318 LP  0  0  0  0  0  0  0  0  0  0  0  0  # atno 17370 bound_to 10713
  157.4025  131.0812  151.1295 LP  0  0  0  0  0  0  0  0  0  0  0  0  # atno 17371 bound_to 10713
  140.5879  134.0289  155.7488 LP  0  0  0  0  0  0  0  0  0  0  0  0  # atno 17394 bound_to 11000
  141.1085  133.9655  157.2953 LP  0  0  0  0  0  0  0  0  0  0  0  0  # atno 17395 bound_to 11000

$$$$
