AV-unprocessed.smi:1803|AV-procd|sdf|7292|dock6
  -GOLD-   22720 8553D 1   1.00000     0.00000
 Structure written by MMmdl.
 35 37  0  0  0  0  0  0  0  0  3 V2000
  148.4169  134.6197  157.8804 O   0  0  0  0  0  0  0  0  0  0  0  0
  149.1069  135.6235  158.0536 C   0  0  0  0  0  0  0  0  0  0  0  0
  149.3157  136.1871  159.2718 N   0  5  0  0  0  0  0  0  0  0  0  0
  148.4736  136.0097  160.3070 C   0  0  0  0  0  0  0  0  0  0  0  0
  147.9768  137.0356  161.0170 N   0  0  0  0  0  0  0  0  0  0  0  0
  147.1360  136.6310  162.0449 N   0  0  0  0  0  0  0  0  0  0  0  0
  147.0106  135.3046  162.0770 C   0  0  0  0  0  0  0  0  0  0  0  0
  147.9142  134.4289  160.8593 S   0  0  0  0  0  0  0  0  0  0  0  0
  149.6890  136.2031  156.9871 N   0  0  0  0  0  0  0  0  0  0  0  0
  149.5893  135.7473  155.6064 C   0  0  1  0  0  0  0  0  0  0  0  0
  150.1996  134.3544  155.3586 C   0  0  0  0  0  0  0  0  0  0  0  0
  149.2497  133.6655  154.3590 C   0  0  0  0  0  0  0  0  0  0  0  0
  148.2409  134.6856  154.0134 N   0  3  1  0  0  0  0  0  0  0  0  0
  146.9271  134.2033  153.5347 C   0  0  0  0  0  0  0  0  0  0  0  0
  146.0473  135.4128  153.1574 C   0  0  0  0  0  0  0  0  0  0  0  0
  145.9472  136.4321  154.3113 C   0  0  0  0  0  0  0  0  0  0  0  0
  147.3446  136.8263  154.8275 C   0  0  0  0  0  0  0  0  0  0  0  0
  148.1325  135.5579  155.1915 C   0  0  2  0  0  0  0  0  0  0  0  0
  146.3827  134.8390  162.8219 H   0  0  0  0  0  0  0  0  0  0  0  0
  150.2444  137.0289  157.1565 H   0  0  0  0  0  0  0  0  0  0  0  0
  150.0596  136.4737  154.9403 H   0  0  0  0  0  0  0  0  0  0  0  0
  151.2141  134.4356  154.9670 H   0  0  0  0  0  0  0  0  0  0  0  0
  150.2505  133.7729  156.2805 H   0  0  0  0  0  0  0  0  0  0  0  0
  149.7676  133.3154  153.4659 H   0  0  0  0  0  0  0  0  0  0  0  0
  148.7699  132.8068  154.8315 H   0  0  0  0  0  0  0  0  0  0  0  0
  147.0679  133.5547  152.6695 H   0  0  0  0  0  0  0  0  0  0  0  0
  146.4446  133.6075  154.3111 H   0  0  0  0  0  0  0  0  0  0  0  0
  146.4696  135.9056  152.2806 H   0  0  0  0  0  0  0  0  0  0  0  0
  145.0512  135.0752  152.8698 H   0  0  0  0  0  0  0  0  0  0  0  0
  145.4035  137.3188  153.9843 H   0  0  0  0  0  0  0  0  0  0  0  0
  145.3685  135.9985  155.1281 H   0  0  0  0  0  0  0  0  0  0  0  0
  147.8762  137.3938  154.0626 H   0  0  0  0  0  0  0  0  0  0  0  0
  147.2546  137.4786  155.6968 H   0  0  0  0  0  0  0  0  0  0  0  0
  147.6033  135.0145  155.9783 H   0  0  0  0  0  0  0  0  0  0  0  0
  148.6434  135.2496  153.2785 H   0  0  0  0  0  0  0  0  0  0  0  0
  1  2  2  0  0  0  0
  2  3  1  0  0  0  0
  2  9  1  0  0  0  0
  3  4  1  0  0  0  0
  4  8  1  0  0  0  0
  4  5  2  0  0  0  0
  5  6  1  0  0  0  0
  6  7  2  0  0  0  0
  7  8  1  0  0  0  0
  7 19  1  0  0  0  0
  9 10  1  0  0  0  0
  9 20  1  0  0  0  0
 10 18  1  0  0  0  0
 10 11  1  0  0  0  0
 10 21  1  0  0  0  0
 11 12  1  0  0  0  0
 11 22  1  0  0  0  0
 11 23  1  0  0  0  0
 12 13  1  0  0  0  0
 12 24  1  0  0  0  0
 12 25  1  0  0  0  0
 13 18  1  0  0  0  0
 13 14  1  0  0  0  0
 13 35  1  0  0  0  0
 14 15  1  0  0  0  0
 14 26  1  0  0  0  0
 14 27  1  0  0  0  0
 15 16  1  0  0  0  0
 15 28  1  0  0  0  0
 15 29  1  0  0  0  0
 16 17  1  0  0  0  0
 16 30  1  0  0  0  0
 16 31  1  0  0  0  0
 17 18  1  0  0  0  0
 17 32  1  0  0  0  0
 17 33  1  0  0  0  0
 18 34  1  0  0  0  0
M  CHG  1   3  -1
M  CHG  1  13   1
M  END
> <s_m_source_file>
AV-unprocessed.smi

> <i_m_source_file_index>
1803

> <i_lp_mmshare_version>
43012

> <i_f3d_flags>
0

> <s_epik_input>
czFbY0hdbm5jMVtOSF1DKD1PKVtOSF1bQ0BIXShbQ0gyXVtDSDJdMilbQ0BASF0oTjIzKVtDSDJdW0NIMl1bQ0gyXVtDSDJdMw==

> <s_epik_cmdline>
J2VwaWtfcHl0aG9uJywgJy1waCcsICc3LjAnLCAnLXRuJywgJzgnLCAnLW1hJywgJzIwMCcsICctbWV0YWxfYmluZGluZycsICctaW1hZScsICc8aW5maWxlLm1hZT4nLCAnLW9tYWUnLCAnPG91dGZpbGUubWFlPic=

> <r_lp_tautomer_probability>
1

> <r_epik_Ionization_Penalty>
3.78828

> <r_epik_Ionization_Penalty_Charging>
3.7591

> <r_epik_Ionization_Penalty_Neutral>
0.0291838

> <r_epik_State_Penalty>
3.757

> <r_epik_Charging_Adjusted_Penalty>
7.51609

> <i_epik_Tot_Q>
0

> <i_epik_Tot_abs_Q>
2

> <r_epik_Metal_State_Penalty>
0.558016

> <b_epik_Metal_Only>
1

> <s_lp_Force_Field>
OPLS_2005

> <r_lp_Energy>
28.5802

> <b_lp_Chiralities_Consistent>
1

> <s_lp_Variant>
AV-unprocessed.smi:1803-14

> <Gold.Version>
5.8.1

> <Gold.Id.Protein>
6NUR|6NUR_protein|mol2

> <Gold.PLP.Fitness>
36.3881

> <Gold.PLP.PLP>
-21.8688

> <Gold.PLP.part.hbond>
-3.8022

> <Gold.PLP.part.metal>
0.0000

> <Gold.PLP.part.buried>
-4.3686

> <Gold.PLP.part.nonpolar>
-14.9092

> <Gold.PLP.part.repulsive>
0.0509

> <Gold.PLP.ligand.clash>
0.0000

> <Gold.PLP.ligand.torsion>
0.6049

> <Gold.PLP.Chemscore.Hbond>
5.2366

> <Gold.PLP.Chemscore.CHOScore>
0.0000

> <Gold.PLP.Chemscore.Metal>
0.0000

> <Gold.Chemscore.Hbonds>
donor molecule, donor type, donor heavy atom, donor atom, acceptor molecule, acceptor atom, score
      L1  H    13    35       P1  7948  2.00
      P1  H  6896  6908       L1     3  1.25
      P1  H  6931  6943       L1     5  1.00
      P1  H  6934  6947       L1     5  0.42

> <Gold.PLP.Chemscore.Internal.Correction>
0.0193

> <Gold.Rescore>
     Score         DG    S(hbond)    S(metal)    S(lipo)     H(rot)  DE(clash)    DE(int)     intcor
     11.66     -13.76       1.97        0.00      36.39       1.00       0.00       2.10       ----

> <Gold.Chemscore.Fitness>
11.6609

> <Gold.Chemscore.DG>
-13.7624

> <Gold.Chemscore.ZeroCoef>
-5.4800

> <Gold.Chemscore.Hbond>
1.9714

> <Gold.Chemscore.Metal>
0.0000

> <Gold.Chemscore.Lipo>
36.3918

> <Gold.Chemscore.Internal_Hbond>
0.0000

> <Gold.Chemscore.DEClash>
0.0036

> <Gold.Chemscore.DEInternal>
2.0979

> <Gold.Chemscore.Rot>
1.0000

> <Gold.Chemscore.Internal.Correction>
   9.000000E+99

> <Gold.Chemscore.Hbonds>
donor molecule, donor type, donor heavy atom, donor atom, acceptor molecule, acceptor atom, score
      L1  H    13    35       P1  7948  0.82
      P1  H  6896  6908       L1     3  0.03
      P1  H  6931  6943       L1     5  0.28
      P1  H  6934  6947       L1     5  0.05

> <Gold.Chemscore.Hbond.Weighted>
-6.5845

> <Gold.Chemscore.Metal.Weighted>
-0.0000

> <Gold.Chemscore.Lipo.Weighted>
-4.2578

> <Gold.Chemscore.Internal_Hbond.Weighted>
0.0000

> <Gold.Chemscore.DEClash.Weighted>
0.0036

> <Gold.Chemscore.DEInternal.Weighted>
2.0979

> <Gold.Chemscore.Rot.Weighted>
2.5600

> <Gold.Chemscore.Internal.Correction.Weighted>
   9.000000E+99

> <Gold.Protein.RotatedTorsions>
[ 6907 6896 6895 6894 ] final -164.52 input  -60.11 | X-H torsion
[ 7974 7965 7964 7962 ] final  165.46 input  175.53 | X-H torsion
[ 8008 7997 7996 7995 ] final -108.62 input   59.86 | X-H torsion
[ 10167 10162 10161 10158 ] final  158.97 input  -65.29 | X-H torsion
[ 10718 10713 10712 10709 ] final   68.82 input   66.30 | X-H torsion
[ 10763 10752 10751 10750 ] final  -95.73 input  -60.55 | X-H torsion
[ 11005 11000 10999 10996 ] final   29.81 input  -57.11 | X-H torsion

> <Gold.Protein.ActiveResidues>
 VAL166  LYS551  ARG553  GLY616  TRP617  ASP618  TYR619  PRO620  LYS621  CYS622 
 ASP623  PHE694  ASN695  SER759  ASP760  ASP761  ALA762  ILE779  LEU786  VAL792 
 PHE793  MET794  SER795  GLU796  ALA797  LYS798  CYS799  TRP800  GLU811  SER814 

> <Gold.Protein.RotatedAtoms>
  151.4131  133.3721  159.2746 H   0  0  0  0  0  0  0  0  0  0  0  0  # atno 6907 bound_to 6896
  150.9348  134.8762  159.7585 H   0  0  0  0  0  0  0  0  0  0  0  0  # atno 6908 bound_to 6896
  152.5045  134.4078  159.9490 H   0  0  0  0  0  0  0  0  0  0  0  0  # atno 6909 bound_to 6896
  144.7502  139.8474  143.6369 H   0  0  0  0  0  0  0  0  0  0  0  0  # atno 7974 bound_to 7965
  154.9470  140.0401  157.2125 H   0  0  0  0  0  0  0  0  0  0  0  0  # atno 8008 bound_to 7997
  154.8014  140.2852  155.5896 H   0  0  0  0  0  0  0  0  0  0  0  0  # atno 8009 bound_to 7997
  156.2962  140.2554  156.2884 H   0  0  0  0  0  0  0  0  0  0  0  0  # atno 8010 bound_to 7997
  139.4829  144.4774  151.8492 H   0  0  0  0  0  0  0  0  0  0  0  0  # atno 10167 bound_to 10162
  157.6311  130.9394  150.0430 H   0  0  0  0  0  0  0  0  0  0  0  0  # atno 10718 bound_to 10713
  154.7175  135.5110  153.8760 H   0  0  0  0  0  0  0  0  0  0  0  0  # atno 10763 bound_to 10752
  153.0833  135.6638  154.0009 H   0  0  0  0  0  0  0  0  0  0  0  0  # atno 10764 bound_to 10752
  153.9838  135.3026  155.3397 H   0  0  0  0  0  0  0  0  0  0  0  0  # atno 10765 bound_to 10752
  140.3010  134.2757  155.7754 H   0  0  0  0  0  0  0  0  0  0  0  0  # atno 11005 bound_to 11000
  146.1440  139.4504  143.0091 LP  0  0  0  0  0  0  0  0  0  0  0  0  # atno 17320 bound_to 7965
  145.6974  141.0146  143.1523 LP  0  0  0  0  0  0  0  0  0  0  0  0  # atno 17321 bound_to 7965
  140.4247  144.2196  150.5887 LP  0  0  0  0  0  0  0  0  0  0  0  0  # atno 17342 bound_to 10162
  140.4839  143.2370  151.8916 LP  0  0  0  0  0  0  0  0  0  0  0  0  # atno 17343 bound_to 10162
  156.1516  130.3642  149.9430 LP  0  0  0  0  0  0  0  0  0  0  0  0  # atno 17370 bound_to 10713
  156.7449  130.9093  151.3634 LP  0  0  0  0  0  0  0  0  0  0  0  0  # atno 17371 bound_to 10713
  141.2128  133.7646  156.9766 LP  0  0  0  0  0  0  0  0  0  0  0  0  # atno 17394 bound_to 11000
  140.1110  134.9477  157.2064 LP  0  0  0  0  0  0  0  0  0  0  0  0  # atno 17395 bound_to 11000

$$$$
