AV-unprocessed.smi:1976|AV-procd|sdf|7987|dock2
  -GOLD-   2272010163D 1   1.00000     0.00000
 Structure written by MMmdl.
 45 47  0  0  0  0  0  0  0  0  2 V2000
  148.0840  133.4033  160.5370 O   0  0  0  0  0  0  0  0  0  0  0  0
  147.1661  133.4349  161.3577 C   0  0  0  0  0  0  0  0  0  0  0  0
  147.1452  134.4807  162.4815 C   0  0  0  0  0  0  0  0  0  0  0  0
  146.0341  135.4402  162.3664 N   0  0  0  0  0  0  0  0  0  0  0  0
  144.7318  134.9417  162.5672 C   0  0  0  0  0  0  0  0  0  0  0  0
  143.6305  135.7116  162.4774 C   0  0  0  0  0  0  0  0  0  0  0  0
  142.2416  135.1551  162.7493 C   0  0  0  0  0  0  0  0  0  0  0  0
  141.8967  134.2538  161.8295 F   0  0  0  0  0  0  0  0  0  0  0  0
  142.2168  134.5620  163.9419 F   0  0  0  0  0  0  0  0  0  0  0  0
  141.3260  136.1248  162.7491 F   0  0  0  0  0  0  0  0  0  0  0  0
  143.8469  137.1164  162.1927 C   0  0  0  0  0  0  0  0  0  0  0  0
  145.0860  137.6103  162.0021 C   0  0  0  0  0  0  0  0  0  0  0  0
  146.2723  136.7544  162.0766 C   0  0  0  0  0  0  0  0  0  0  0  0
  147.4087  137.1904  161.8914 O   0  0  0  0  0  0  0  0  0  0  0  0
  146.1254  132.5900  161.3245 N   0  0  0  0  0  0  0  0  0  0  0  0
  145.9422  131.5258  160.3412 C   0  0  2  0  0  0  0  0  0  0  0  0
  146.0859  131.9817  158.8919 C   0  0  0  0  0  0  0  0  0  0  0  0
  145.3772  130.8739  158.1079 C   0  0  0  0  0  0  0  0  0  0  0  0
  144.3679  130.2814  159.0191 N   0  3  2  0  0  0  0  0  0  0  0  0
  142.9816  130.3056  158.4809 C   0  0  0  0  0  0  0  0  0  0  0  0
  141.9569  130.0412  159.5937 C   0  0  0  0  0  0  0  0  0  0  0  0
  142.0129  131.1299  160.6822 C   0  0  0  0  0  0  0  0  0  0  0  0
  143.3776  131.8438  160.7337 C   0  0  0  0  0  0  0  0  0  0  0  0
  144.5414  130.8892  160.3699 C   0  0  2  0  0  0  0  0  0  0  0  0
  147.0996  133.9528  163.4350 H   0  0  0  0  0  0  0  0  0  0  0  0
  148.0984  135.0129  162.4971 H   0  0  0  0  0  0  0  0  0  0  0  0
  144.6840  133.8870  162.7960 H   0  0  0  0  0  0  0  0  0  0  0  0
  143.0013  137.7848  162.1257 H   0  0  0  0  0  0  0  0  0  0  0  0
  145.2090  138.6619  161.7886 H   0  0  0  0  0  0  0  0  0  0  0  0
  145.4126  132.6882  162.0333 H   0  0  0  0  0  0  0  0  0  0  0  0
  146.6765  130.7399  160.5312 H   0  0  0  0  0  0  0  0  0  0  0  0
  145.5695  132.9308  158.7410 H   0  0  0  0  0  0  0  0  0  0  0  0
  147.1248  132.1124  158.5868 H   0  0  0  0  0  0  0  0  0  0  0  0
  144.9496  131.2511  157.1779 H   0  0  0  0  0  0  0  0  0  0  0  0
  146.0886  130.0909  157.8433 H   0  0  0  0  0  0  0  0  0  0  0  0
  142.7719  131.2740  158.0231 H   0  0  0  0  0  0  0  0  0  0  0  0
  142.8938  129.5581  157.6918 H   0  0  0  0  0  0  0  0  0  0  0  0
  140.9498  129.9785  159.1803 H   0  0  0  0  0  0  0  0  0  0  0  0
  142.1634  129.0674  160.0403 H   0  0  0  0  0  0  0  0  0  0  0  0
  141.2322  131.8720  160.5102 H   0  0  0  0  0  0  0  0  0  0  0  0
  141.7911  130.6763  161.6489 H   0  0  0  0  0  0  0  0  0  0  0  0
  143.3716  132.6844  160.0382 H   0  0  0  0  0  0  0  0  0  0  0  0
  143.5149  132.2731  161.7266 H   0  0  0  0  0  0  0  0  0  0  0  0
  144.5404  130.0809  161.1027 H   0  0  0  0  0  0  0  0  0  0  0  0
  144.6187  129.3083  159.1219 H   0  0  0  0  0  0  0  0  0  0  0  0
  1  2  2  0  0  0  0
  2  3  1  0  0  0  0
  2 15  1  0  0  0  0
  3  4  1  0  0  0  0
  3 25  1  0  0  0  0
  3 26  1  0  0  0  0
  4 13  1  0  0  0  0
  4  5  1  0  0  0  0
  5  6  2  0  0  0  0
  5 27  1  0  0  0  0
  6  7  1  0  0  0  0
  6 11  1  0  0  0  0
  7  8  1  0  0  0  0
  7  9  1  0  0  0  0
  7 10  1  0  0  0  0
 11 12  2  0  0  0  0
 11 28  1  0  0  0  0
 12 13  1  0  0  0  0
 12 29  1  0  0  0  0
 13 14  2  0  0  0  0
 15 16  1  0  0  0  0
 15 30  1  0  0  0  0
 16 24  1  0  0  0  0
 16 17  1  0  0  0  0
 16 31  1  0  0  0  0
 17 18  1  0  0  0  0
 17 32  1  0  0  0  0
 17 33  1  0  0  0  0
 18 19  1  0  0  0  0
 18 34  1  0  0  0  0
 18 35  1  0  0  0  0
 19 24  1  0  0  0  0
 19 20  1  0  0  0  0
 19 45  1  0  0  0  0
 20 21  1  0  0  0  0
 20 36  1  0  0  0  0
 20 37  1  0  0  0  0
 21 22  1  0  0  0  0
 21 38  1  0  0  0  0
 21 39  1  0  0  0  0
 22 23  1  0  0  0  0
 22 40  1  0  0  0  0
 22 41  1  0  0  0  0
 23 24  1  0  0  0  0
 23 42  1  0  0  0  0
 23 43  1  0  0  0  0
 24 44  1  0  0  0  0
M  CHG  1  19   1
M  END
> <s_m_source_file>
AV-unprocessed.smi

> <i_m_source_file_index>
1976

> <i_lp_mmshare_version>
43012

> <i_f3d_flags>
0

> <s_epik_input>
W0NIMl0xW0NIMl1bQ0gyXVtDSDJdW0NASF0oTjEyKVtDQEBIXShbQ0gyXVtDSDJdMilbTkhdQyg9TylbQ0gyXW4zW2NIXWMoQyhGKShGKUYpW2NIXVtjSF1jMz1P

> <s_epik_cmdline>
J2VwaWtfcHl0aG9uJywgJy1waCcsICc3LjAnLCAnLXRuJywgJzgnLCAnLW1hJywgJzIwMCcsICctbWV0YWxfYmluZGluZycsICctaW1hZScsICc8aW5maWxlLm1hZT4nLCAnLW9tYWUnLCAnPG91dGZpbGUubWFlPic=

> <r_lp_tautomer_probability>
1

> <r_epik_Ionization_Penalty>
0.00171506

> <r_epik_Ionization_Penalty_Charging>
0.00171498

> <r_epik_Ionization_Penalty_Neutral>
7.81737e-08

> <r_epik_State_Penalty>
0.00115937

> <r_epik_Charging_Adjusted_Penalty>
0.00287436

> <i_epik_Tot_Q>
1

> <i_epik_Tot_abs_Q>
1

> <r_epik_Metal_State_Penalty>
-0

> <b_epik_Metal_Only>
0

> <s_lp_Force_Field>
OPLS_2005

> <r_lp_Energy>
52.9045

> <b_lp_Chiralities_Consistent>
1

> <s_lp_Variant>
AV-unprocessed.smi:1976-5

> <Gold.Version>
5.8.1

> <Gold.Id.Protein>
6NUR|6NUR_protein|mol2

> <Gold.PLP.Fitness>
42.5735

> <Gold.PLP.PLP>
-38.3094

> <Gold.PLP.part.hbond>
-2.0000

> <Gold.PLP.part.metal>
0.0000

> <Gold.PLP.part.buried>
-4.0672

> <Gold.PLP.part.nonpolar>
-31.2265

> <Gold.PLP.part.repulsive>
0.0155

> <Gold.PLP.ligand.clash>
0.0000

> <Gold.PLP.ligand.torsion>
0.2673

> <Gold.PLP.Chemscore.Hbond>
1.5841

> <Gold.PLP.Chemscore.CHOScore>
0.0000

> <Gold.PLP.Chemscore.Metal>
0.0000

> <Gold.Chemscore.Hbonds>
donor molecule, donor type, donor heavy atom, donor atom, acceptor molecule, acceptor atom, score
      P1  H  6931  6943       L1    14  0.91
      P1  H  6934  6947       L1    14  0.67

> <Gold.PLP.Chemscore.Internal.Correction>
0.0465

> <Gold.Rescore>
     Score         DG    S(hbond)    S(metal)    S(lipo)     H(rot)  DE(clash)    DE(int)     intcor
     11.37     -13.67       1.59        0.00      59.17       1.58       0.04       2.26       ----

> <Gold.Chemscore.Fitness>
11.3726

> <Gold.Chemscore.DG>
-13.6684

> <Gold.Chemscore.ZeroCoef>
-5.4800

> <Gold.Chemscore.Hbond>
1.5922

> <Gold.Chemscore.Metal>
0.0000

> <Gold.Chemscore.Lipo>
59.1698

> <Gold.Chemscore.Internal_Hbond>
0.0000

> <Gold.Chemscore.DEClash>
0.0405

> <Gold.Chemscore.DEInternal>
2.2554

> <Gold.Chemscore.Rot>
1.5830

> <Gold.Chemscore.Internal.Correction>
   9.000000E+99

> <Gold.Chemscore.Hbonds>
donor molecule, donor type, donor heavy atom, donor atom, acceptor molecule, acceptor atom, score
      P1  H  6931  6943       L1    14  0.89
      P1  H  6934  6947       L1    14  0.36

> <Gold.Chemscore.Hbond.Weighted>
-5.3179

> <Gold.Chemscore.Metal.Weighted>
-0.0000

> <Gold.Chemscore.Lipo.Weighted>
-6.9229

> <Gold.Chemscore.Internal_Hbond.Weighted>
0.0000

> <Gold.Chemscore.DEClash.Weighted>
0.0405

> <Gold.Chemscore.DEInternal.Weighted>
2.2554

> <Gold.Chemscore.Rot.Weighted>
4.0524

> <Gold.Chemscore.Internal.Correction.Weighted>
   9.000000E+99

> <Gold.Protein.RotatedTorsions>
[ 6907 6896 6895 6894 ] final -164.11 input  -60.11 | X-H torsion
[ 7974 7965 7964 7962 ] final  -16.76 input  175.53 | X-H torsion
[ 8008 7997 7996 7995 ] final -105.51 input   59.86 | X-H torsion
[ 10167 10162 10161 10158 ] final -106.03 input  -65.29 | X-H torsion
[ 10718 10713 10712 10709 ] final -161.64 input   66.30 | X-H torsion
[ 10763 10752 10751 10750 ] final  128.74 input  -60.55 | X-H torsion
[ 11005 11000 10999 10996 ] final -121.69 input  -57.11 | X-H torsion

> <Gold.Protein.ActiveResidues>
 VAL166  LYS551  ARG553  GLY616  TRP617  ASP618  TYR619  PRO620  LYS621  CYS622 
 ASP623  PHE694  ASN695  SER759  ASP760  ASP761  ALA762  ILE779  LEU786  VAL792 
 PHE793  MET794  SER795  GLU796  ALA797  LYS798  CYS799  TRP800  GLU811  SER814 

> <Gold.Protein.RotatedAtoms>
  151.4067  133.3740  159.2738 H   0  0  0  0  0  0  0  0  0  0  0  0  # atno 6907 bound_to 6896
  150.9393  134.8805  159.7612 H   0  0  0  0  0  0  0  0  0  0  0  0  # atno 6908 bound_to 6896
  152.5064  134.4016  159.9470 H   0  0  0  0  0  0  0  0  0  0  0  0  # atno 6909 bound_to 6896
  146.1973  140.3682  142.8436 H   0  0  0  0  0  0  0  0  0  0  0  0  # atno 7974 bound_to 7965
  154.9009  140.0413  157.1893 H   0  0  0  0  0  0  0  0  0  0  0  0  # atno 8008 bound_to 7997
  154.8444  140.2919  155.5617 H   0  0  0  0  0  0  0  0  0  0  0  0  # atno 8009 bound_to 7997
  156.2993  140.2476  156.3393 H   0  0  0  0  0  0  0  0  0  0  0  0  # atno 8010 bound_to 7997
  140.1922  143.3883  152.1197 H   0  0  0  0  0  0  0  0  0  0  0  0  # atno 10167 bound_to 10162
  156.5992  130.8803  151.2909 H   0  0  0  0  0  0  0  0  0  0  0  0  # atno 10718 bound_to 10713
  153.7304  135.3239  155.3285 H   0  0  0  0  0  0  0  0  0  0  0  0  # atno 10763 bound_to 10752
  154.8327  135.4521  154.1127 H   0  0  0  0  0  0  0  0  0  0  0  0  # atno 10764 bound_to 10752
  153.2273  135.6955  153.8011 H   0  0  0  0  0  0  0  0  0  0  0  0  # atno 10765 bound_to 10752
  141.0051  134.0346  157.3487 H   0  0  0  0  0  0  0  0  0  0  0  0  # atno 11005 bound_to 11000
  144.8607  140.7135  143.6109 LP  0  0  0  0  0  0  0  0  0  0  0  0  # atno 17320 bound_to 7965
  145.3602  139.1683  143.4387 LP  0  0  0  0  0  0  0  0  0  0  0  0  # atno 17321 bound_to 7965
  139.5251  144.7092  151.5259 LP  0  0  0  0  0  0  0  0  0  0  0  0  # atno 17342 bound_to 10162
  140.6448  143.8816  150.6726 LP  0  0  0  0  0  0  0  0  0  0  0  0  # atno 17343 bound_to 10162
  157.7284  130.9656  150.1740 LP  0  0  0  0  0  0  0  0  0  0  0  0  # atno 17370 bound_to 10713
  156.2484  130.3698  149.8260 LP  0  0  0  0  0  0  0  0  0  0  0  0  # atno 17371 bound_to 10713
  139.9059  135.0179  156.7483 LP  0  0  0  0  0  0  0  0  0  0  0  0  # atno 17394 bound_to 11000
  140.6826  133.9461  155.7919 LP  0  0  0  0  0  0  0  0  0  0  0  0  # atno 17395 bound_to 11000

$$$$
