AV-unprocessed.smi:1205|AV-procd|sdf|5046|dock8
  -GOLD-   22720 4 73D 1   1.00000     0.00000
 Structure written by MMmdl.
 49 50  0  0  0  0  0  0  0  0  2 V2000
  143.8854  143.8188  162.5273 C   0  0  0  0  0  0  0  0  0  0  0  0
  144.5676  144.0220  161.2067 C   0  0  0  0  0  0  0  0  0  0  0  0
  145.7061  143.3360  160.6914 C   0  0  0  0  0  0  0  0  0  0  0  0
  145.8833  143.9240  159.4689 C   0  0  0  0  0  0  0  0  0  0  0  0
  146.8335  143.6739  158.5293 N   0  0  0  0  0  0  0  0  0  0  0  0
  147.4979  142.5300  158.2906 C   0  0  0  0  0  0  0  0  0  0  0  0
  147.3493  141.4731  158.9045 O   0  0  0  0  0  0  0  0  0  0  0  0
  148.3578  142.6732  157.2721 N   0  0  0  0  0  0  0  0  0  0  0  0
  149.2248  141.6185  156.7568 C   0  0  0  0  0  0  0  0  0  0  0  0
  150.0032  140.8868  157.8805 C   0  0  1  0  0  0  0  0  0  0  0  0
  150.3508  139.4314  157.5131 C   0  0  0  0  0  0  0  0  0  0  0  0
  151.2223  141.6233  158.3256 N   0  3  2  0  0  0  0  0  0  0  0  0
  151.9276  140.9705  159.4601 C   0  0  0  0  0  0  0  0  0  0  0  0
  153.3000  141.6221  159.6946 C   0  0  0  0  0  0  0  0  0  0  0  0
  153.1612  143.1331  159.9242 C   0  0  0  0  0  0  0  0  0  0  0  0
  152.3951  143.7860  158.7604 C   0  0  2  0  0  0  0  0  0  0  0  0
  152.2177  145.2946  158.9821 C   0  0  0  0  0  0  0  0  0  0  0  0
  151.0385  143.0827  158.5571 C   0  0  0  0  0  0  0  0  0  0  0  0
  144.9144  144.8870  159.2931 N   0  0  0  0  0  0  0  0  0  0  0  0
  144.6918  145.7768  158.1700 C   0  0  0  0  0  0  0  0  0  0  0  0
  144.1020  144.9429  160.3702 N   0  0  0  0  0  0  0  0  0  0  0  0
  144.3598  143.0200  163.0975 H   0  0  0  0  0  0  0  0  0  0  0  0
  142.8372  143.5512  162.3911 H   0  0  0  0  0  0  0  0  0  0  0  0
  143.9231  144.7253  163.1319 H   0  0  0  0  0  0  0  0  0  0  0  0
  146.2815  142.5513  161.1587 H   0  0  0  0  0  0  0  0  0  0  0  0
  147.0530  144.4517  157.9249 H   0  0  0  0  0  0  0  0  0  0  0  0
  148.4197  143.5757  156.8235 H   0  0  0  0  0  0  0  0  0  0  0  0
  148.5857  140.9202  156.2165 H   0  0  0  0  0  0  0  0  0  0  0  0
  149.9077  142.0451  156.0208 H   0  0  0  0  0  0  0  0  0  0  0  0
  149.3503  140.8192  158.7518 H   0  0  0  0  0  0  0  0  0  0  0  0
  149.4499  138.8351  157.3654 H   0  0  0  0  0  0  0  0  0  0  0  0
  150.9240  138.9525  158.3076 H   0  0  0  0  0  0  0  0  0  0  0  0
  150.9346  139.3691  156.5950 H   0  0  0  0  0  0  0  0  0  0  0  0
  151.3232  141.0396  160.3652 H   0  0  0  0  0  0  0  0  0  0  0  0
  152.0692  139.9091  159.2529 H   0  0  0  0  0  0  0  0  0  0  0  0
  153.7914  141.1590  160.5509 H   0  0  0  0  0  0  0  0  0  0  0  0
  153.9440  141.4399  158.8330 H   0  0  0  0  0  0  0  0  0  0  0  0
  152.6358  143.3135  160.8632 H   0  0  0  0  0  0  0  0  0  0  0  0
  154.1488  143.5841  160.0282 H   0  0  0  0  0  0  0  0  0  0  0  0
  152.9834  143.6546  157.8508 H   0  0  0  0  0  0  0  0  0  0  0  0
  151.6319  145.4981  159.8791 H   0  0  0  0  0  0  0  0  0  0  0  0
  151.7062  145.7592  158.1387 H   0  0  0  0  0  0  0  0  0  0  0  0
  153.1822  145.7906  159.0952 H   0  0  0  0  0  0  0  0  0  0  0  0
  150.5258  143.5352  157.7087 H   0  0  0  0  0  0  0  0  0  0  0  0
  150.4084  143.2445  159.4326 H   0  0  0  0  0  0  0  0  0  0  0  0
  144.7115  145.2082  157.2399 H   0  0  0  0  0  0  0  0  0  0  0  0
  145.4760  146.5336  158.1429 H   0  0  0  0  0  0  0  0  0  0  0  0
  143.7235  146.2712  158.2585 H   0  0  0  0  0  0  0  0  0  0  0  0
  151.8629  141.5506  157.5482 H   0  0  0  0  0  0  0  0  0  0  0  0
  1  2  1  0  0  0  0
  1 22  1  0  0  0  0
  1 23  1  0  0  0  0
  1 24  1  0  0  0  0
  2 21  2  0  0  0  0
  2  3  1  0  0  0  0
  3  4  2  0  0  0  0
  3 25  1  0  0  0  0
  4  5  1  0  0  0  0
  4 19  1  0  0  0  0
  5  6  1  0  0  0  0
  5 26  1  0  0  0  0
  6  7  2  0  0  0  0
  6  8  1  0  0  0  0
  8  9  1  0  0  0  0
  8 27  1  0  0  0  0
  9 10  1  0  0  0  0
  9 28  1  0  0  0  0
  9 29  1  0  0  0  0
 10 11  1  0  0  0  0
 10 12  1  0  0  0  0
 10 30  1  0  0  0  0
 11 31  1  0  0  0  0
 11 32  1  0  0  0  0
 11 33  1  0  0  0  0
 12 18  1  0  0  0  0
 12 13  1  0  0  0  0
 12 49  1  0  0  0  0
 13 14  1  0  0  0  0
 13 34  1  0  0  0  0
 13 35  1  0  0  0  0
 14 15  1  0  0  0  0
 14 36  1  0  0  0  0
 14 37  1  0  0  0  0
 15 16  1  0  0  0  0
 15 38  1  0  0  0  0
 15 39  1  0  0  0  0
 16 17  1  0  0  0  0
 16 18  1  0  0  0  0
 16 40  1  0  0  0  0
 17 41  1  0  0  0  0
 17 42  1  0  0  0  0
 17 43  1  0  0  0  0
 18 44  1  0  0  0  0
 18 45  1  0  0  0  0
 19 20  1  0  0  0  0
 19 21  1  0  0  0  0
 20 46  1  0  0  0  0
 20 47  1  0  0  0  0
 20 48  1  0  0  0  0
M  CHG  1  12   1
M  END
> <s_m_source_file>
AV-unprocessed.smi

> <i_m_source_file_index>
1205

> <i_lp_mmshare_version>
43012

> <i_f3d_flags>
0

> <s_epik_input>
W0NIM11jMVtjSF1jKG4objEpW0NIM10pW05IXUMoPU8pW05IXVtDSDJdW0NASF0oW0NIM10pTjJbQ0gyXVtDSDJdW0NIMl1bQ0BASF0oW0NIM10pW0NIMl0y

> <s_epik_cmdline>
J2VwaWtfcHl0aG9uJywgJy1waCcsICc3LjAnLCAnLXRuJywgJzgnLCAnLW1hJywgJzIwMCcsICctbWV0YWxfYmluZGluZycsICctaW1hZScsICc8aW5maWxlLm1hZT4nLCAnLW9tYWUnLCAnPG91dGZpbGUubWFlPic=

> <r_lp_tautomer_probability>
1

> <r_epik_Ionization_Penalty>
0.0020309

> <r_epik_Ionization_Penalty_Charging>
0.00195276

> <r_epik_Ionization_Penalty_Neutral>
7.81448e-05

> <r_epik_State_Penalty>
0.00133177

> <r_epik_Charging_Adjusted_Penalty>
0.00328452

> <i_epik_Tot_Q>
1

> <i_epik_Tot_abs_Q>
1

> <r_epik_Metal_State_Penalty>
-0

> <b_epik_Metal_Only>
0

> <s_lp_Force_Field>
OPLS_2005

> <r_lp_Energy>
21.2667

> <b_lp_Chiralities_Consistent>
1

> <s_lp_Variant>
AV-unprocessed.smi:1205-8

> <Gold.Version>
5.8.1

> <Gold.Id.Protein>
6NUR|6NUR_protein|mol2

> <Gold.PLP.Fitness>
44.4458

> <Gold.PLP.PLP>
-38.9423

> <Gold.PLP.part.hbond>
-3.1729

> <Gold.PLP.part.metal>
0.0000

> <Gold.PLP.part.buried>
-4.1019

> <Gold.PLP.part.nonpolar>
-31.4021

> <Gold.PLP.part.repulsive>
0.2844

> <Gold.PLP.ligand.clash>
0.0000

> <Gold.PLP.ligand.torsion>
0.5631

> <Gold.PLP.Chemscore.Hbond>
2.1700

> <Gold.PLP.Chemscore.CHOScore>
0.0000

> <Gold.PLP.Chemscore.Metal>
0.0000

> <Gold.Chemscore.Hbonds>
donor molecule, donor type, donor heavy atom, donor atom, acceptor molecule, acceptor atom, score
      L1  H     5    26       P1  8029  1.00
      L1  H     8    27       P1  8028  0.80
      P1  H  6934  6946       L1     7  0.32

> <Gold.PLP.Chemscore.Internal.Correction>
0.1197

> <Gold.Rescore>
     Score         DG    S(hbond)    S(metal)    S(lipo)     H(rot)  DE(clash)    DE(int)     intcor
     14.40     -17.59       1.26        0.00      99.77       1.47       0.01       3.19       ----

> <Gold.Chemscore.Fitness>
14.3972

> <Gold.Chemscore.DG>
-17.5945

> <Gold.Chemscore.ZeroCoef>
-5.4800

> <Gold.Chemscore.Hbond>
1.2558

> <Gold.Chemscore.Metal>
0.0000

> <Gold.Chemscore.Lipo>
99.7657

> <Gold.Chemscore.Internal_Hbond>
0.0000

> <Gold.Chemscore.DEClash>
0.0105

> <Gold.Chemscore.DEInternal>
3.1868

> <Gold.Chemscore.Rot>
1.4658

> <Gold.Chemscore.Internal.Correction>
   9.000000E+99

> <Gold.Chemscore.Hbonds>
donor molecule, donor type, donor heavy atom, donor atom, acceptor molecule, acceptor atom, score
      L1  H     5    26       P1  8029  0.35
      L1  H     8    27       P1  8028  0.12
      P1  H  6934  6946       L1     7  0.32

> <Gold.Chemscore.Hbond.Weighted>
-4.1944

> <Gold.Chemscore.Metal.Weighted>
-0.0000

> <Gold.Chemscore.Lipo.Weighted>
-11.6726

> <Gold.Chemscore.Internal_Hbond.Weighted>
0.0000

> <Gold.Chemscore.DEClash.Weighted>
0.0105

> <Gold.Chemscore.DEInternal.Weighted>
3.1868

> <Gold.Chemscore.Rot.Weighted>
3.7526

> <Gold.Chemscore.Internal.Correction.Weighted>
   9.000000E+99

> <Gold.Protein.RotatedTorsions>
[ 6907 6896 6895 6894 ] final  174.95 input  -60.11 | X-H torsion
[ 7974 7965 7964 7962 ] final  -57.89 input  175.53 | X-H torsion
[ 8008 7997 7996 7995 ] final  157.50 input   59.86 | X-H torsion
[ 10167 10162 10161 10158 ] final -122.52 input  -65.29 | X-H torsion
[ 10718 10713 10712 10709 ] final  178.62 input   66.30 | X-H torsion
[ 10763 10752 10751 10750 ] final   43.00 input  -60.55 | X-H torsion
[ 11005 11000 10999 10996 ] final  -73.88 input  -57.11 | X-H torsion

> <Gold.Protein.ActiveResidues>
 VAL166  LYS551  ARG553  GLY616  TRP617  ASP618  TYR619  PRO620  LYS621  CYS622 
 ASP623  PHE694  ASN695  SER759  ASP760  ASP761  ALA762  ILE779  LEU786  VAL792 
 PHE793  MET794  SER795  GLU796  ALA797  LYS798  CYS799  TRP800  GLU811  SER814 

> <Gold.Protein.RotatedAtoms>
  151.7441  133.3323  159.3373 H   0  0  0  0  0  0  0  0  0  0  0  0  # atno 6907 bound_to 6896
  150.7561  134.6251  159.6166 H   0  0  0  0  0  0  0  0  0  0  0  0  # atno 6908 bound_to 6896
  152.3511  134.7006  160.0287 H   0  0  0  0  0  0  0  0  0  0  0  0  # atno 6909 bound_to 6896
  145.8458  140.8386  143.0011 H   0  0  0  0  0  0  0  0  0  0  0  0  # atno 7974 bound_to 7965
  156.2360  140.1883  156.7118 H   0  0  0  0  0  0  0  0  0  0  0  0  # atno 8008 bound_to 7997
  154.6107  140.0622  156.9517 H   0  0  0  0  0  0  0  0  0  0  0  0  # atno 8009 bound_to 7997
  155.2021  140.3293  155.4344 H   0  0  0  0  0  0  0  0  0  0  0  0  # atno 8010 bound_to 7997
  140.0133  143.5419  152.2253 H   0  0  0  0  0  0  0  0  0  0  0  0  # atno 10167 bound_to 10162
  156.8879  130.9837  151.3053 H   0  0  0  0  0  0  0  0  0  0  0  0  # atno 10718 bound_to 10713
  152.9870  135.6115  154.3041 H   0  0  0  0  0  0  0  0  0  0  0  0  # atno 10763 bound_to 10752
  154.2759  135.2778  155.2720 H   0  0  0  0  0  0  0  0  0  0  0  0  # atno 10764 bound_to 10752
  154.5080  135.5848  153.6639 H   0  0  0  0  0  0  0  0  0  0  0  0  # atno 10765 bound_to 10752
  141.1628  133.6893  156.7280 H   0  0  0  0  0  0  0  0  0  0  0  0  # atno 11005 bound_to 11000
  144.6731  140.0879  143.7466 LP  0  0  0  0  0  0  0  0  0  0  0  0  # atno 17320 bound_to 7965
  145.9414  139.2671  143.1266 LP  0  0  0  0  0  0  0  0  0  0  0  0  # atno 17321 bound_to 7965
  139.6190  144.7625  151.2783 LP  0  0  0  0  0  0  0  0  0  0  0  0  # atno 17342 bound_to 10162
  140.7372  143.6684  150.8103 LP  0  0  0  0  0  0  0  0  0  0  0  0  # atno 17343 bound_to 10162
  157.6101  130.8577  149.8938 LP  0  0  0  0  0  0  0  0  0  0  0  0  # atno 17370 bound_to 10713
  156.0644  130.3694  150.0911 LP  0  0  0  0  0  0  0  0  0  0  0  0  # atno 17371 bound_to 10713
  140.2766  134.8350  157.3896 LP  0  0  0  0  0  0  0  0  0  0  0  0  # atno 17394 bound_to 11000
  140.1472  134.4896  155.7988 LP  0  0  0  0  0  0  0  0  0  0  0  0  # atno 17395 bound_to 11000

$$$$
