AV-unprocessed.smi:2557|AV-procd|sdf|10030|dock3
  -GOLD-   2272014 73D 1   1.00000     0.00000
 Structure written by MMmdl.
 38 40  0  0  0  0  0  0  0  0  2 V2000
  153.4959  136.1965  159.8859 O   0  5  0  0  0  0  0  0  0  0  0  0
  153.6937  137.1944  160.6187 C   0  0  0  0  0  0  0  0  0  0  0  0
  153.5606  138.5684  160.3991 C   0  0  0  0  0  0  0  0  0  0  0  0
  153.0757  139.1006  159.0988 C   0  0  0  0  0  0  0  0  0  0  0  0
  152.7949  138.3677  158.1511 O   0  0  0  0  0  0  0  0  0  0  0  0
  152.9359  140.4900  158.9577 N   0  0  0  0  0  0  0  0  0  0  0  0
  153.2350  141.2760  159.9476 C   0  0  0  0  0  0  0  0  0  0  0  0
  153.1048  142.7971  159.8335 C   0  0  0  0  0  0  0  0  0  0  0  0
  152.2038  143.4275  160.9232 C   0  0  0  0  0  0  0  0  0  0  0  0
  152.1418  144.9576  160.7893 C   0  0  0  0  0  0  0  0  0  0  0  0
  151.6621  145.3728  159.3904 C   0  0  0  0  0  0  0  0  0  0  0  0
  152.5498  144.7581  158.2977 C   0  0  0  0  0  0  0  0  0  0  0  0
  152.6235  143.2276  158.4291 C   0  0  0  0  0  0  0  0  0  0  0  0
  153.7088  140.8585  161.1780 N   0  0  0  0  0  0  0  0  0  0  0  0
  153.8618  139.4946  161.3968 N   0  0  0  0  0  0  0  0  0  0  0  0
  154.2139  136.7315  161.9200 C   0  0  0  0  0  0  0  0  0  0  0  0
  155.3831  135.9430  161.9972 C   0  0  0  0  0  0  0  0  0  0  0  0
  155.8341  135.5211  163.2630 C   0  0  0  0  0  0  0  0  0  0  0  0
  155.2038  135.8291  164.4166 N   0  0  0  0  0  0  0  0  0  0  0  0
  154.0818  136.5763  164.3394 C   0  0  0  0  0  0  0  0  0  0  0  0
  153.5479  137.0486  163.1244 C   0  0  0  0  0  0  0  0  0  0  0  0
  154.1058  143.2079  159.9770 H   0  0  0  0  0  0  0  0  0  0  0  0
  151.1918  143.0251  160.8551 H   0  0  0  0  0  0  0  0  0  0  0  0
  152.5750  143.1682  161.9157 H   0  0  0  0  0  0  0  0  0  0  0  0
  151.4760  145.3700  161.5478 H   0  0  0  0  0  0  0  0  0  0  0  0
  153.1285  145.3823  160.9793 H   0  0  0  0  0  0  0  0  0  0  0  0
  150.6297  145.0518  159.2472 H   0  0  0  0  0  0  0  0  0  0  0  0
  151.6633  146.4596  159.3039 H   0  0  0  0  0  0  0  0  0  0  0  0
  152.1667  145.0280  157.3131 H   0  0  0  0  0  0  0  0  0  0  0  0
  153.5538  145.1791  158.3639 H   0  0  0  0  0  0  0  0  0  0  0  0
  153.2890  142.8379  157.6578 H   0  0  0  0  0  0  0  0  0  0  0  0
  151.6396  142.7996  158.2305 H   0  0  0  0  0  0  0  0  0  0  0  0
  153.9430  141.4793  161.9390 H   0  0  0  0  0  0  0  0  0  0  0  0
  154.1877  139.1881  162.3024 H   0  0  0  0  0  0  0  0  0  0  0  0
  155.9210  135.6682  161.1016 H   0  0  0  0  0  0  0  0  0  0  0  0
  156.7264  134.9193  163.3515 H   0  0  0  0  0  0  0  0  0  0  0  0
  153.5942  136.8063  165.2750 H   0  0  0  0  0  0  0  0  0  0  0  0
  152.6467  137.6436  163.1146 H   0  0  0  0  0  0  0  0  0  0  0  0
  1  2  1  0  0  0  0
  2  3  2  0  0  0  0
  2 16  1  0  0  0  0
  3 15  1  0  0  0  0
  3  4  1  0  0  0  0
  4  5  2  0  0  0  0
  4  6  1  0  0  0  0
  6  7  2  0  0  0  0
  7  8  1  0  0  0  0
  7 14  1  0  0  0  0
  8 13  1  0  0  0  0
  8  9  1  0  0  0  0
  8 22  1  0  0  0  0
  9 10  1  0  0  0  0
  9 23  1  0  0  0  0
  9 24  1  0  0  0  0
 10 11  1  0  0  0  0
 10 25  1  0  0  0  0
 10 26  1  0  0  0  0
 11 12  1  0  0  0  0
 11 27  1  0  0  0  0
 11 28  1  0  0  0  0
 12 13  1  0  0  0  0
 12 29  1  0  0  0  0
 12 30  1  0  0  0  0
 13 31  1  0  0  0  0
 13 32  1  0  0  0  0
 14 15  1  0  0  0  0
 14 33  1  0  0  0  0
 15 34  1  0  0  0  0
 16 21  1  0  0  0  0
 16 17  2  0  0  0  0
 17 18  1  0  0  0  0
 17 35  1  0  0  0  0
 18 19  2  0  0  0  0
 18 36  1  0  0  0  0
 19 20  1  0  0  0  0
 20 21  2  0  0  0  0
 20 37  1  0  0  0  0
 21 38  1  0  0  0  0
M  CHG  1   1  -1
M  END
> <s_m_source_file>
AV-unprocessed.smi

> <i_m_source_file_index>
2557

> <i_lp_mmshare_version>
43012

> <i_f3d_flags>
0

> <s_epik_input>
W2NIXTFbY0hdbltjSF1bY0hdYzFDKD1PKUMyPUMoW09IXSlOPUMoW05IXVtOSF0yKVtDSF0zW0NIMl1bQ0gyXVtDSDJdW0NIMl1bQ0gyXTM=

> <s_epik_cmdline>
J2VwaWtfcHl0aG9uJywgJy1waCcsICc3LjAnLCAnLXRuJywgJzgnLCAnLW1hJywgJzIwMCcsICctbWV0YWxfYmluZGluZycsICctaW1hZScsICc8aW5maWxlLm1hZT4nLCAnLW9tYWUnLCAnPG91dGZpbGUubWFlPic=

> <r_epik_Ionization_Penalty>
0.904364

> <r_epik_Ionization_Penalty_Charging>
0.00179702

> <r_epik_Ionization_Penalty_Neutral>
0.902567

> <r_epik_State_Penalty>
2.26092

> <r_epik_Charging_Adjusted_Penalty>
2.26271

> <i_epik_Tot_Q>
-1

> <i_epik_Tot_abs_Q>
1

> <r_epik_Metal_State_Penalty>
1.86017

> <b_epik_Metal_Only>
0

> <s_epik_Chemistry_Notes>
This compound has an imine and may undergo hydrolysis.

> <s_lp_Force_Field>
OPLS_2005

> <r_lp_Energy>
33.3792

> <b_lp_Chiralities_Consistent>
1

> <s_lp_Variant>
AV-unprocessed.smi:2557-4

> <Gold.Version>
5.8.1

> <Gold.Id.Protein>
6NUR|6NUR_protein|mol2

> <Gold.PLP.Fitness>
50.3799

> <Gold.PLP.PLP>
-44.4042

> <Gold.PLP.part.hbond>
-1.0000

> <Gold.PLP.part.metal>
0.0000

> <Gold.PLP.part.buried>
-6.1988

> <Gold.PLP.part.nonpolar>
-37.3311

> <Gold.PLP.part.repulsive>
0.1342

> <Gold.PLP.ligand.clash>
0.0000

> <Gold.PLP.ligand.torsion>
1.0973

> <Gold.PLP.Chemscore.Hbond>
2.0000

> <Gold.PLP.Chemscore.CHOScore>
0.0000

> <Gold.PLP.Chemscore.Metal>
0.0000

> <Gold.Chemscore.Hbonds>
donor molecule, donor type, donor heavy atom, donor atom, acceptor molecule, acceptor atom, score
      P1  H  6896  6909       L1     1  2.00

> <Gold.PLP.Chemscore.Internal.Correction>
2.1703

> <Gold.Rescore>
     Score         DG    S(hbond)    S(metal)    S(lipo)     H(rot)  DE(clash)    DE(int)     intcor
     18.71     -19.96       1.00        0.00     117.10       1.00       0.02       1.23       ----

> <Gold.Chemscore.Fitness>
18.7110

> <Gold.Chemscore.DG>
-19.9605

> <Gold.Chemscore.ZeroCoef>
-5.4800

> <Gold.Chemscore.Hbond>
1.0000

> <Gold.Chemscore.Metal>
0.0000

> <Gold.Chemscore.Lipo>
117.0981

> <Gold.Chemscore.Internal_Hbond>
0.0000

> <Gold.Chemscore.DEClash>
0.0178

> <Gold.Chemscore.DEInternal>
1.2317

> <Gold.Chemscore.Rot>
1.0000

> <Gold.Chemscore.Internal.Correction>
   9.000000E+99

> <Gold.Chemscore.Hbonds>
donor molecule, donor type, donor heavy atom, donor atom, acceptor molecule, acceptor atom, score
      P1  H  6896  6909       L1     1  1.00

> <Gold.Chemscore.Hbond.Weighted>
-3.3400

> <Gold.Chemscore.Metal.Weighted>
-0.0000

> <Gold.Chemscore.Lipo.Weighted>
-13.7005

> <Gold.Chemscore.Internal_Hbond.Weighted>
0.0000

> <Gold.Chemscore.DEClash.Weighted>
0.0178

> <Gold.Chemscore.DEInternal.Weighted>
1.2317

> <Gold.Chemscore.Rot.Weighted>
2.5600

> <Gold.Chemscore.Internal.Correction.Weighted>
   9.000000E+99

> <Gold.Protein.RotatedTorsions>
[ 6907 6896 6895 6894 ] final  154.45 input  -60.11 | X-H torsion
[ 7974 7965 7964 7962 ] final   31.75 input  175.53 | X-H torsion
[ 8008 7997 7996 7995 ] final   41.35 input   59.86 | X-H torsion
[ 10167 10162 10161 10158 ] final   68.43 input  -65.29 | X-H torsion
[ 10718 10713 10712 10709 ] final  -72.41 input   66.30 | X-H torsion
[ 10763 10752 10751 10750 ] final   11.34 input  -60.55 | X-H torsion
[ 11005 11000 10999 10996 ] final -108.04 input  -57.11 | X-H torsion

> <Gold.Protein.ActiveResidues>
 VAL166  LYS551  ARG553  GLY616  TRP617  ASP618  TYR619  PRO620  LYS621  CYS622 
 ASP623  PHE694  ASN695  SER759  ASP760  ASP761  ALA762  ILE779  LEU786  VAL792 
 PHE793  MET794  SER795  GLU796  ALA797  LYS798  CYS799  TRP800  GLU811  SER814 

> <Gold.Protein.RotatedAtoms>
  152.0583  133.4050  159.4406 H   0  0  0  0  0  0  0  0  0  0  0  0  # atno 6907 bound_to 6896
  150.6867  134.3230  159.4803 H   0  0  0  0  0  0  0  0  0  0  0  0  # atno 6908 bound_to 6896
  152.1048  134.9316  160.0619 H   0  0  0  0  0  0  0  0  0  0  0  0  # atno 6909 bound_to 6896
  146.1530  139.6615  142.9085 H   0  0  0  0  0  0  0  0  0  0  0  0  # atno 7974 bound_to 7965
  155.2682  140.3364  155.4267 H   0  0  0  0  0  0  0  0  0  0  0  0  # atno 8008 bound_to 7997
  156.2144  140.1783  156.7664 H   0  0  0  0  0  0  0  0  0  0  0  0  # atno 8009 bound_to 7997
  154.5733  140.0666  156.8981 H   0  0  0  0  0  0  0  0  0  0  0  0  # atno 8010 bound_to 7997
  140.0788  144.5089  150.7176 H   0  0  0  0  0  0  0  0  0  0  0  0  # atno 10167 bound_to 10162
  156.0321  130.4372  150.2589 H   0  0  0  0  0  0  0  0  0  0  0  0  # atno 10718 bound_to 10713
  153.1937  135.6846  153.8320 H   0  0  0  0  0  0  0  0  0  0  0  0  # atno 10763 bound_to 10752
  153.7610  135.3210  155.3338 H   0  0  0  0  0  0  0  0  0  0  0  0  # atno 10764 bound_to 10752
  154.8132  135.4703  154.0671 H   0  0  0  0  0  0  0  0  0  0  0  0  # atno 10765 bound_to 10752
  141.0922  133.9034  157.2047 H   0  0  0  0  0  0  0  0  0  0  0  0  # atno 11005 bound_to 11000
  145.4777  141.0437  143.2663 LP  0  0  0  0  0  0  0  0  0  0  0  0  # atno 17320 bound_to 7965
  144.7928  139.6294  143.7106 LP  0  0  0  0  0  0  0  0  0  0  0  0  # atno 17321 bound_to 7965
  140.7088  143.2489  151.4644 LP  0  0  0  0  0  0  0  0  0  0  0  0  # atno 17342 bound_to 10162
  139.5792  144.1749  152.1945 LP  0  0  0  0  0  0  0  0  0  0  0  0  # atno 17343 bound_to 10162
  157.0690  131.0111  151.3196 LP  0  0  0  0  0  0  0  0  0  0  0  0  # atno 17370 bound_to 10713
  157.5013  130.7882  149.7608 LP  0  0  0  0  0  0  0  0  0  0  0  0  # atno 17371 bound_to 10713
  139.9751  135.0116  156.9610 LP  0  0  0  0  0  0  0  0  0  0  0  0  # atno 17394 bound_to 11000
  140.5224  134.0894  155.7295 LP  0  0  0  0  0  0  0  0  0  0  0  0  # atno 17395 bound_to 11000

$$$$
