AV-unprocessed.smi:2072|AV-procd|sdf|8442|dock3
  -GOLD-   2272011143D 1   1.00000     0.00000
 Structure written by MMmdl.
 40 42  0  0  0  0  0  0  0  0  2 V2000
  150.1287  134.7490  155.8953 O   0  0  0  0  0  0  0  0  0  0  0  0
  149.7386  135.1954  154.8176 C   0  0  0  0  0  0  0  0  0  0  0  0
  149.9664  136.4366  154.3539 N   0  0  0  0  0  0  0  0  0  0  0  0
  150.6849  137.5077  154.9545 C   0  0  0  0  0  0  0  0  0  0  0  0
  151.4423  137.4100  156.1484 C   0  0  0  0  0  0  0  0  0  0  0  0
  152.1105  138.5542  156.6257 C   0  0  0  0  0  0  0  0  0  0  0  0
  152.0028  139.7520  155.8934 C   0  0  0  0  0  0  0  0  0  0  0  0
  151.2917  139.8588  154.7518 N   0  0  0  0  0  0  0  0  0  0  0  0
  150.6539  138.7581  154.3003 C   0  0  0  0  0  0  0  0  0  0  0  0
  149.0072  134.4829  153.9490 N   0  0  0  0  0  0  0  0  0  0  0  0
  148.5881  133.0974  154.1408 C   0  0  2  0  0  0  0  0  0  0  0  0
  149.7494  132.1584  154.4443 C   0  0  0  0  0  0  0  0  0  0  0  0
  149.1539  130.7881  154.1140 C   0  0  0  0  0  0  0  0  0  0  0  0
  148.2056  131.0112  152.9979 N   0  3  1  0  0  0  0  0  0  0  0  0
  146.9828  130.1730  153.0549 C   0  0  0  0  0  0  0  0  0  0  0  0
  146.0719  130.4474  151.8432 C   0  0  0  0  0  0  0  0  0  0  0  0
  145.8397  131.9513  151.5869 C   0  0  0  0  0  0  0  0  0  0  0  0
  146.4786  132.8332  152.6700 C   0  0  0  0  0  0  0  0  0  0  0  0
  147.9692  132.4782  152.8760 C   0  0  1  0  0  0  0  0  0  0  0  0
  149.5479  136.6552  153.4616 H   0  0  0  0  0  0  0  0  0  0  0  0
  151.5363  136.4921  156.7057 H   0  0  0  0  0  0  0  0  0  0  0  0
  152.6949  138.5133  157.5328 H   0  0  0  0  0  0  0  0  0  0  0  0
  152.5033  140.6469  156.2325 H   0  0  0  0  0  0  0  0  0  0  0  0
  150.0967  138.8817  153.3830 H   0  0  0  0  0  0  0  0  0  0  0  0
  148.7270  134.9290  153.0876 H   0  0  0  0  0  0  0  0  0  0  0  0
  147.8801  133.0291  154.9700 H   0  0  0  0  0  0  0  0  0  0  0  0
  150.5931  132.3669  153.7843 H   0  0  0  0  0  0  0  0  0  0  0  0
  150.0980  132.2306  155.4749 H   0  0  0  0  0  0  0  0  0  0  0  0
  149.9163  130.0560  153.8472 H   0  0  0  0  0  0  0  0  0  0  0  0
  148.6203  130.4087  154.9872 H   0  0  0  0  0  0  0  0  0  0  0  0
  147.2628  129.1194  153.0794 H   0  0  0  0  0  0  0  0  0  0  0  0
  146.4436  130.3750  153.9819 H   0  0  0  0  0  0  0  0  0  0  0  0
  146.5110  129.9988  150.9512 H   0  0  0  0  0  0  0  0  0  0  0  0
  145.1158  129.9442  151.9912 H   0  0  0  0  0  0  0  0  0  0  0  0
  146.2632  132.2182  150.6179 H   0  0  0  0  0  0  0  0  0  0  0  0
  144.7719  132.1611  151.5177 H   0  0  0  0  0  0  0  0  0  0  0  0
  146.3771  133.8837  152.3969 H   0  0  0  0  0  0  0  0  0  0  0  0
  145.9291  132.7098  153.6044 H   0  0  0  0  0  0  0  0  0  0  0  0
  148.5358  132.8016  152.0010 H   0  0  0  0  0  0  0  0  0  0  0  0
  148.6889  130.7450  152.1518 H   0  0  0  0  0  0  0  0  0  0  0  0
  1  2  2  0  0  0  0
  2  3  1  0  0  0  0
  2 10  1  0  0  0  0
  3  4  1  0  0  0  0
  3 20  1  0  0  0  0
  4  9  1  0  0  0  0
  4  5  2  0  0  0  0
  5  6  1  0  0  0  0
  5 21  1  0  0  0  0
  6  7  2  0  0  0  0
  6 22  1  0  0  0  0
  7  8  1  0  0  0  0
  7 23  1  0  0  0  0
  8  9  2  0  0  0  0
  9 24  1  0  0  0  0
 10 11  1  0  0  0  0
 10 25  1  0  0  0  0
 11 19  1  0  0  0  0
 11 12  1  0  0  0  0
 11 26  1  0  0  0  0
 12 13  1  0  0  0  0
 12 27  1  0  0  0  0
 12 28  1  0  0  0  0
 13 14  1  0  0  0  0
 13 29  1  0  0  0  0
 13 30  1  0  0  0  0
 14 19  1  0  0  0  0
 14 15  1  0  0  0  0
 14 40  1  0  0  0  0
 15 16  1  0  0  0  0
 15 31  1  0  0  0  0
 15 32  1  0  0  0  0
 16 17  1  0  0  0  0
 16 33  1  0  0  0  0
 16 34  1  0  0  0  0
 17 18  1  0  0  0  0
 17 35  1  0  0  0  0
 17 36  1  0  0  0  0
 18 19  1  0  0  0  0
 18 37  1  0  0  0  0
 18 38  1  0  0  0  0
 19 39  1  0  0  0  0
M  CHG  1  14   1
M  END
> <s_m_source_file>
AV-unprocessed.smi

> <i_m_source_file_index>
2072

> <i_lp_mmshare_version>
43012

> <i_f3d_flags>
0

> <s_epik_input>
W0NIMl0xW0NIMl1bQ0gyXVtDSDJdW0NASF0oTjEyKVtDQEBIXShbQ0gyXVtDSDJdMilbTkhdQyg9TylbTkhdYzNbY0hdW2NIXVtjSF1uW2NIXTM=

> <s_epik_cmdline>
J2VwaWtfcHl0aG9uJywgJy1waCcsICc3LjAnLCAnLXRuJywgJzgnLCAnLW1hJywgJzIwMCcsICctbWV0YWxfYmluZGluZycsICctaW1hZScsICc8aW5maWxlLm1hZT4nLCAnLW9tYWUnLCAnPG91dGZpbGUubWFlPic=

> <r_lp_tautomer_probability>
1

> <r_epik_Ionization_Penalty>
0.00482425

> <r_epik_Ionization_Penalty_Charging>
0.000974069

> <r_epik_Ionization_Penalty_Neutral>
0.00385018

> <r_epik_State_Penalty>
-0

> <r_epik_Charging_Adjusted_Penalty>
0.000974069

> <i_epik_Tot_Q>
1

> <i_epik_Tot_abs_Q>
1

> <r_epik_Metal_State_Penalty>
-0

> <b_epik_Metal_Only>
0

> <s_lp_Force_Field>
OPLS_2005

> <r_lp_Energy>
43.341

> <b_lp_Chiralities_Consistent>
1

> <s_lp_Variant>
AV-unprocessed.smi:2072-1

> <Gold.Version>
5.8.1

> <Gold.Id.Protein>
6NUR|6NUR_protein|mol2

> <Gold.PLP.Fitness>
48.9170

> <Gold.PLP.PLP>
-34.0640

> <Gold.PLP.part.hbond>
-4.8938

> <Gold.PLP.part.metal>
0.0000

> <Gold.PLP.part.buried>
-2.5074

> <Gold.PLP.part.nonpolar>
-26.5139

> <Gold.PLP.part.repulsive>
0.1832

> <Gold.PLP.ligand.clash>
0.0000

> <Gold.PLP.ligand.torsion>
0.0742

> <Gold.PLP.Chemscore.Hbond>
4.0000

> <Gold.PLP.Chemscore.CHOScore>
0.9980

> <Gold.PLP.Chemscore.Metal>
0.0000

> <Gold.Chemscore.Hbonds>
donor molecule, donor type, donor heavy atom, donor atom, acceptor molecule, acceptor atom, score
      L1  H     3    20       P1  7948  1.00
      L1  H    10    25       P1  7948  0.99
      L1  H    14    40       P1 10747  1.00
      P1  H  7989  7998       L1     8  1.00
      L1  C     9    24       P1  7957  0.97

> <Gold.PLP.Chemscore.Internal.Correction>
0.0074

> <Gold.Rescore>
     Score         DG    S(hbond)    S(metal)    S(lipo)     H(rot)  DE(clash)    DE(int)     intcor
     20.49     -22.47       3.13        0.00      77.68       1.00       0.15       1.84       ----

> <Gold.Chemscore.Fitness>
20.4890

> <Gold.Chemscore.DG>
-22.4729

> <Gold.Chemscore.ZeroCoef>
-5.4800

> <Gold.Chemscore.Hbond>
3.1329

> <Gold.Chemscore.Metal>
0.0000

> <Gold.Chemscore.Lipo>
77.6831

> <Gold.Chemscore.Internal_Hbond>
0.0000

> <Gold.Chemscore.DEClash>
0.1454

> <Gold.Chemscore.DEInternal>
1.8385

> <Gold.Chemscore.Rot>
1.0000

> <Gold.Chemscore.Internal.Correction>
   9.000000E+99

> <Gold.Chemscore.Hbonds>
donor molecule, donor type, donor heavy atom, donor atom, acceptor molecule, acceptor atom, score
      L1  H     3    20       P1  7948  0.68
      L1  H    10    25       P1  7948  0.37
      L1  H    14    40       P1 10747  0.73
      P1  H  7989  7998       L1     8  0.74

> <Gold.Chemscore.Hbond.Weighted>
-10.4639

> <Gold.Chemscore.Metal.Weighted>
-0.0000

> <Gold.Chemscore.Lipo.Weighted>
-9.0889

> <Gold.Chemscore.Internal_Hbond.Weighted>
0.0000

> <Gold.Chemscore.DEClash.Weighted>
0.1454

> <Gold.Chemscore.DEInternal.Weighted>
1.8385

> <Gold.Chemscore.Rot.Weighted>
2.5600

> <Gold.Chemscore.Internal.Correction.Weighted>
   9.000000E+99

> <Gold.Protein.RotatedTorsions>
[ 6907 6896 6895 6894 ] final   -7.05 input  -60.11 | X-H torsion
[ 7974 7965 7964 7962 ] final   46.44 input  175.53 | X-H torsion
[ 8008 7997 7996 7995 ] final  -45.57 input   59.86 | X-H torsion
[ 10167 10162 10161 10158 ] final   41.26 input  -65.29 | X-H torsion
[ 10718 10713 10712 10709 ] final  173.77 input   66.30 | X-H torsion
[ 10763 10752 10751 10750 ] final  131.86 input  -60.55 | X-H torsion
[ 11005 11000 10999 10996 ] final   44.22 input  -57.11 | X-H torsion

> <Gold.Protein.ActiveResidues>
 VAL166  LYS551  ARG553  GLY616  TRP617  ASP618  TYR619  PRO620  LYS621  CYS622 
 ASP623  PHE694  ASN695  SER759  ASP760  ASP761  ALA762  ILE779  LEU786  VAL792 
 PHE793  MET794  SER795  GLU796  ALA797  LYS798  CYS799  TRP800  GLU811  SER814 

> <Gold.Protein.RotatedAtoms>
  151.4557  135.1034  159.9710 H   0  0  0  0  0  0  0  0  0  0  0  0  # atno 6907 bound_to 6896
  152.4871  133.8398  159.7157 H   0  0  0  0  0  0  0  0  0  0  0  0  # atno 6908 bound_to 6896
  150.8991  133.7082  159.2911 H   0  0  0  0  0  0  0  0  0  0  0  0  # atno 6909 bound_to 6896
  146.0389  139.4855  142.9791 H   0  0  0  0  0  0  0  0  0  0  0  0  # atno 7974 bound_to 7965
  154.4002  140.1393  156.3868 H   0  0  0  0  0  0  0  0  0  0  0  0  # atno 8008 bound_to 7997
  155.7951  140.3477  155.5351 H   0  0  0  0  0  0  0  0  0  0  0  0  # atno 8009 bound_to 7997
  155.8540  140.0946  157.1647 H   0  0  0  0  0  0  0  0  0  0  0  0  # atno 8010 bound_to 7997
  140.3661  144.2166  150.6135 H   0  0  0  0  0  0  0  0  0  0  0  0  # atno 10167 bound_to 10162
  156.9594  131.0056  151.2931 H   0  0  0  0  0  0  0  0  0  0  0  0  # atno 10718 bound_to 10713
  153.7812  135.3168  155.3366 H   0  0  0  0  0  0  0  0  0  0  0  0  # atno 10763 bound_to 10752
  154.8161  135.4635  154.0649 H   0  0  0  0  0  0  0  0  0  0  0  0  # atno 10764 bound_to 10752
  153.1939  135.6912  153.8403 H   0  0  0  0  0  0  0  0  0  0  0  0  # atno 10765 bound_to 10752
  140.1572  134.4387  155.8341 H   0  0  0  0  0  0  0  0  0  0  0  0  # atno 11005 bound_to 11000
  145.6917  141.0162  143.1551 LP  0  0  0  0  0  0  0  0  0  0  0  0  # atno 17320 bound_to 7965
  144.7065  139.8541  143.7428 LP  0  0  0  0  0  0  0  0  0  0  0  0  # atno 17321 bound_to 7965
  140.5079  143.2299  151.8579 LP  0  0  0  0  0  0  0  0  0  0  0  0  # atno 17342 bound_to 10162
  139.4808  144.4984  151.9094 LP  0  0  0  0  0  0  0  0  0  0  0  0  # atno 17343 bound_to 10162
  157.5668  130.8283  149.8338 LP  0  0  0  0  0  0  0  0  0  0  0  0  # atno 17370 bound_to 10713
  156.0328  130.3759  150.1640 LP  0  0  0  0  0  0  0  0  0  0  0  0  # atno 17371 bound_to 10713
  141.2205  133.6897  156.7529 LP  0  0  0  0  0  0  0  0  0  0  0  0  # atno 17394 bound_to 11000
  140.2533  134.8524  157.3688 LP  0  0  0  0  0  0  0  0  0  0  0  0  # atno 17395 bound_to 11000

$$$$
