AV-unprocessed.smi:2714|AV-procd|sdf|10480|dock2
  -GOLD-   2272014523D 1   1.00000     0.00000
 Structure written by MMmdl.
 46 47  0  0  0  0  0  0  0  0  1 V2000
  154.5815  141.0363  160.1948 C   0  0  0  0  0  0  0  0  0  0  0  0
  153.1599  141.4931  160.5399 C   0  0  0  0  0  0  0  0  0  0  0  0
  152.9741  143.0126  160.3756 C   0  0  0  0  0  0  0  0  0  0  0  0
  152.6037  143.4553  158.9430 C   0  0  2  0  0  0  0  0  0  0  0  0
  152.4049  144.9793  158.8728 C   0  0  0  0  0  0  0  0  0  0  0  0
  151.3494  142.7351  158.4260 C   0  0  0  0  0  0  0  0  0  0  0  0
  150.2808  142.8352  159.0296 O   0  0  0  0  0  0  0  0  0  0  0  0
  151.4937  142.0214  157.2997 N   0  0  0  0  0  0  0  0  0  0  0  0
  150.4166  141.3322  156.5976 C   0  0  0  0  0  0  0  0  0  0  0  0
  150.8979  140.1683  155.7371 C   0  0  0  0  0  0  0  0  0  0  0  0
  152.1981  139.6544  155.9285 C   0  0  0  0  0  0  0  0  0  0  0  0
  152.6353  138.5786  155.1344 C   0  0  0  0  0  0  0  0  0  0  0  0
  151.7509  138.0557  154.1733 C   0  0  0  0  0  0  0  0  0  0  0  0
  150.5062  138.5371  153.9748 N   0  0  0  0  0  0  0  0  0  0  0  0
  150.0826  139.5729  154.7391 C   0  0  0  0  0  0  0  0  0  0  0  0
  148.7833  140.0517  154.5098 N   0  0  0  0  0  0  0  0  0  0  0  0
  148.7203  141.4515  154.1142 C   0  0  0  0  0  0  0  0  0  0  0  0
  147.2525  141.9108  154.0655 C   0  0  0  0  0  0  0  0  0  0  0  0
  146.5109  141.0591  153.1954 O   0  0  0  0  0  0  0  0  0  0  0  0
  146.5248  139.7014  153.6294 C   0  0  0  0  0  0  0  0  0  0  0  0
  147.9738  139.1875  153.6611 C   0  0  0  0  0  0  0  0  0  0  0  0
  154.6849  139.9588  160.3225 H   0  0  0  0  0  0  0  0  0  0  0  0
  155.3170  141.5202  160.8378 H   0  0  0  0  0  0  0  0  0  0  0  0
  154.8319  141.2739  159.1605 H   0  0  0  0  0  0  0  0  0  0  0  0
  152.4503  140.9664  159.9011 H   0  0  0  0  0  0  0  0  0  0  0  0
  152.9342  141.1946  161.5640 H   0  0  0  0  0  0  0  0  0  0  0  0
  152.2192  143.3653  161.0802 H   0  0  0  0  0  0  0  0  0  0  0  0
  153.9026  143.5070  160.6641 H   0  0  0  0  0  0  0  0  0  0  0  0
  153.4383  143.2074  158.2843 H   0  0  0  0  0  0  0  0  0  0  0  0
  152.1260  145.3000  157.8684 H   0  0  0  0  0  0  0  0  0  0  0  0
  153.3230  145.5045  159.1373 H   0  0  0  0  0  0  0  0  0  0  0  0
  151.6247  145.3145  159.5577 H   0  0  0  0  0  0  0  0  0  0  0  0
  152.4083  141.9878  156.8735 H   0  0  0  0  0  0  0  0  0  0  0  0
  149.7164  140.9468  157.3392 H   0  0  0  0  0  0  0  0  0  0  0  0
  149.8564  142.0474  155.9930 H   0  0  0  0  0  0  0  0  0  0  0  0
  152.8537  140.0749  156.6771 H   0  0  0  0  0  0  0  0  0  0  0  0
  153.6242  138.1635  155.2605 H   0  0  0  0  0  0  0  0  0  0  0  0
  152.0507  137.2290  153.5465 H   0  0  0  0  0  0  0  0  0  0  0  0
  149.2828  142.0621  154.8217 H   0  0  0  0  0  0  0  0  0  0  0  0
  149.1828  141.5786  153.1345 H   0  0  0  0  0  0  0  0  0  0  0  0
  146.8099  141.9004  155.0629 H   0  0  0  0  0  0  0  0  0  0  0  0
  147.1905  142.9356  153.6991 H   0  0  0  0  0  0  0  0  0  0  0  0
  146.0611  139.6173  154.6137 H   0  0  0  0  0  0  0  0  0  0  0  0
  145.9273  139.1014  152.9432 H   0  0  0  0  0  0  0  0  0  0  0  0
  148.3849  139.1713  152.6507 H   0  0  0  0  0  0  0  0  0  0  0  0
  148.0024  138.1650  154.0386 H   0  0  0  0  0  0  0  0  0  0  0  0
  1  2  1  0  0  0  0
  1 22  1  0  0  0  0
  1 23  1  0  0  0  0
  1 24  1  0  0  0  0
  2  3  1  0  0  0  0
  2 25  1  0  0  0  0
  2 26  1  0  0  0  0
  3  4  1  0  0  0  0
  3 27  1  0  0  0  0
  3 28  1  0  0  0  0
  4  5  1  0  0  0  0
  4  6  1  0  0  0  0
  4 29  1  0  0  0  0
  5 30  1  0  0  0  0
  5 31  1  0  0  0  0
  5 32  1  0  0  0  0
  6  7  2  0  0  0  0
  6  8  1  0  0  0  0
  8  9  1  0  0  0  0
  8 33  1  0  0  0  0
  9 10  1  0  0  0  0
  9 34  1  0  0  0  0
  9 35  1  0  0  0  0
 10 15  1  0  0  0  0
 10 11  2  0  0  0  0
 11 12  1  0  0  0  0
 11 36  1  0  0  0  0
 12 13  2  0  0  0  0
 12 37  1  0  0  0  0
 13 14  1  0  0  0  0
 13 38  1  0  0  0  0
 14 15  2  0  0  0  0
 15 16  1  0  0  0  0
 16 21  1  0  0  0  0
 16 17  1  0  0  0  0
 17 18  1  0  0  0  0
 17 39  1  0  0  0  0
 17 40  1  0  0  0  0
 18 19  1  0  0  0  0
 18 41  1  0  0  0  0
 18 42  1  0  0  0  0
 19 20  1  0  0  0  0
 20 21  1  0  0  0  0
 20 43  1  0  0  0  0
 20 44  1  0  0  0  0
 21 45  1  0  0  0  0
 21 46  1  0  0  0  0
M  END
> <s_m_source_file>
AV-unprocessed.smi

> <i_m_source_file_index>
2714

> <i_lp_mmshare_version>
43012

> <i_f3d_flags>
0

> <s_epik_input>
W0NIM11bQ0gyXVtDSDJdW0NASF0oW0NIM10pQyg9TylbTkhdW0NIMl1jMVtjSF1bY0hdW2NIXW5jMU4yW0NIMl1bQ0gyXU9bQ0gyXVtDSDJdMg==

> <s_epik_cmdline>
J2VwaWtfcHl0aG9uJywgJy1waCcsICc3LjAnLCAnLXRuJywgJzgnLCAnLW1hJywgJzIwMCcsICctbWV0YWxfYmluZGluZycsICctaW1hZScsICc8aW5maWxlLm1hZT4nLCAnLW9tYWUnLCAnPG91dGZpbGUubWFlPic=

> <r_lp_tautomer_probability>
1

> <r_epik_Ionization_Penalty>
0.00517355

> <r_epik_Ionization_Penalty_Charging>
0

> <r_epik_Ionization_Penalty_Neutral>
0.00517355

> <r_epik_State_Penalty>
0.00376978

> <r_epik_Charging_Adjusted_Penalty>
0.00376978

> <i_epik_Tot_Q>
0

> <i_epik_Tot_abs_Q>
0

> <r_epik_Metal_State_Penalty>
-0

> <b_epik_Metal_Only>
0

> <s_lp_Force_Field>
OPLS_2005

> <r_lp_Energy>
18.1949

> <b_lp_Chiralities_Consistent>
1

> <s_lp_Variant>
AV-unprocessed.smi:2714-1

> <Gold.Version>
5.8.1

> <Gold.Id.Protein>
6NUR|6NUR_protein|mol2

> <Gold.PLP.Fitness>
47.4870

> <Gold.PLP.PLP>
-45.6602

> <Gold.PLP.part.hbond>
-0.3600

> <Gold.PLP.part.metal>
0.0000

> <Gold.PLP.part.buried>
-1.4335

> <Gold.PLP.part.nonpolar>
-44.4121

> <Gold.PLP.part.repulsive>
1.7945

> <Gold.PLP.ligand.clash>
0.0000

> <Gold.PLP.ligand.torsion>
0.6732

> <Gold.PLP.Chemscore.Hbond>
0.0000

> <Gold.PLP.Chemscore.CHOScore>
0.9873

> <Gold.PLP.Chemscore.Metal>
0.0000

> <Gold.Chemscore.Hbonds>
donor molecule, donor type, donor heavy atom, donor atom, acceptor molecule, acceptor atom, score
      L1  C    13    38       P1  7949  0.94

> <Gold.PLP.Chemscore.Internal.Correction>
0.2112

> <Gold.Rescore>
     Score         DG    S(hbond)    S(metal)    S(lipo)     H(rot)  DE(clash)    DE(int)     intcor
     14.01     -15.42       0.00        0.00     122.61       1.72       0.71       0.70       ----

> <Gold.Chemscore.Fitness>
14.0111

> <Gold.Chemscore.DG>
-15.4237

> <Gold.Chemscore.ZeroCoef>
-5.4800

> <Gold.Chemscore.Hbond>
0.0000

> <Gold.Chemscore.Metal>
0.0000

> <Gold.Chemscore.Lipo>
122.6050

> <Gold.Chemscore.Internal_Hbond>
0.0000

> <Gold.Chemscore.DEClash>
0.7144

> <Gold.Chemscore.DEInternal>
0.6981

> <Gold.Chemscore.Rot>
1.7192

> <Gold.Chemscore.Internal.Correction>
   9.000000E+99

> <Gold.Chemscore.Hbond.Weighted>
-0.0000

> <Gold.Chemscore.Metal.Weighted>
-0.0000

> <Gold.Chemscore.Lipo.Weighted>
-14.3448

> <Gold.Chemscore.Internal_Hbond.Weighted>
0.0000

> <Gold.Chemscore.DEClash.Weighted>
0.7144

> <Gold.Chemscore.DEInternal.Weighted>
0.6981

> <Gold.Chemscore.Rot.Weighted>
4.4011

> <Gold.Chemscore.Internal.Correction.Weighted>
   9.000000E+99

> <Gold.Protein.RotatedTorsions>
[ 6907 6896 6895 6894 ] final -102.60 input  -60.11 | X-H torsion
[ 7974 7965 7964 7962 ] final -132.92 input  175.53 | X-H torsion
[ 8008 7997 7996 7995 ] final  164.14 input   59.86 | X-H torsion
[ 10167 10162 10161 10158 ] final    9.26 input  -65.29 | X-H torsion
[ 10718 10713 10712 10709 ] final  -48.33 input   66.30 | X-H torsion
[ 10763 10752 10751 10750 ] final  -34.56 input  -60.55 | X-H torsion
[ 11005 11000 10999 10996 ] final   71.94 input  -57.11 | X-H torsion

> <Gold.Protein.ActiveResidues>
 VAL166  LYS551  ARG553  GLY616  TRP617  ASP618  TYR619  PRO620  LYS621  CYS622 
 ASP623  PHE694  ASN695  SER759  ASP760  ASP761  ALA762  ILE779  LEU786  VAL792 
 PHE793  MET794  SER795  GLU796  ALA797  LYS798  CYS799  TRP800  GLU811  SER814 

> <Gold.Protein.RotatedAtoms>
  150.7203  134.0556  159.3813 H   0  0  0  0  0  0  0  0  0  0  0  0  # atno 6907 bound_to 6896
  151.8535  135.0547  160.0471 H   0  0  0  0  0  0  0  0  0  0  0  0  # atno 6908 bound_to 6896
  152.2772  133.5401  159.5512 H   0  0  0  0  0  0  0  0  0  0  0  0  # atno 6909 bound_to 6896
  144.9240  140.7049  143.4947 H   0  0  0  0  0  0  0  0  0  0  0  0  # atno 7974 bound_to 7965
  156.1903  140.1705  156.8105 H   0  0  0  0  0  0  0  0  0  0  0  0  # atno 8008 bound_to 7997
  154.5463  140.0726  156.8627 H   0  0  0  0  0  0  0  0  0  0  0  0  # atno 8009 bound_to 7997
  155.3115  140.3368  155.4246 H   0  0  0  0  0  0  0  0  0  0  0  0  # atno 8010 bound_to 7997
  140.6266  143.8088  150.7241 H   0  0  0  0  0  0  0  0  0  0  0  0  # atno 10167 bound_to 10162
  156.1999  130.4156  149.9256 H   0  0  0  0  0  0  0  0  0  0  0  0  # atno 10718 bound_to 10713
  153.8487  135.6851  153.4795 H   0  0  0  0  0  0  0  0  0  0  0  0  # atno 10763 bound_to 10752
  153.1410  135.4657  154.9494 H   0  0  0  0  0  0  0  0  0  0  0  0  # atno 10764 bound_to 10752
  154.7812  135.3269  154.7933 H   0  0  0  0  0  0  0  0  0  0  0  0  # atno 10765 bound_to 10752
  139.9517  134.7216  156.0848 H   0  0  0  0  0  0  0  0  0  0  0  0  # atno 11005 bound_to 11000
  145.3249  139.1777  143.4568 LP  0  0  0  0  0  0  0  0  0  0  0  0  # atno 17320 bound_to 7965
  146.3218  140.3271  142.8637 LP  0  0  0  0  0  0  0  0  0  0  0  0  # atno 17321 bound_to 7965
  140.1690  143.4211  152.2014 LP  0  0  0  0  0  0  0  0  0  0  0  0  # atno 17342 bound_to 10162
  139.5485  144.7318  151.4507 LP  0  0  0  0  0  0  0  0  0  0  0  0  # atno 17343 bound_to 10162
  156.6969  130.8917  151.3595 LP  0  0  0  0  0  0  0  0  0  0  0  0  # atno 17370 bound_to 10713
  157.6979  130.9302  150.0699 LP  0  0  0  0  0  0  0  0  0  0  0  0  # atno 17371 bound_to 10713
  141.1180  133.6621  156.3144 LP  0  0  0  0  0  0  0  0  0  0  0  0  # atno 17394 bound_to 11000
  140.5704  134.5845  157.5456 LP  0  0  0  0  0  0  0  0  0  0  0  0  # atno 17395 bound_to 11000

$$$$
