AV-unprocessed.smi:2482|AV-procd|sdf|9778|dock9
  -GOLD-   2272013423D 1   1.00000     0.00000
 Structure written by MMmdl.
 35 36  0  0  0  0  0  0  0  0  2 V2000
  152.6114  143.1762  160.7087 C   0  0  0  0  0  0  0  0  0  0  0  0
  152.3586  141.9654  159.8298 C   0  0  0  0  0  0  0  0  0  0  0  0
  152.9690  140.8241  160.2164 N   0  0  0  0  0  0  0  0  0  0  0  0
  152.7820  139.7186  159.4670 C   0  0  0  0  0  0  0  0  0  0  0  0
  151.9807  139.6936  158.3095 C   0  0  0  0  0  0  0  0  0  0  0  0
  151.3267  140.8839  157.9103 C   0  0  0  0  0  0  0  0  0  0  0  0
  150.5118  140.9796  156.7485 N   0  0  0  0  0  0  0  0  0  0  0  0
  150.5599  140.2540  155.6154 C   0  0  0  0  0  0  0  0  0  0  0  0
  151.3741  139.3565  155.3991 O   0  0  0  0  0  0  0  0  0  0  0  0
  149.5103  140.6089  154.5505 C   0  0  1  0  0  0  0  0  0  0  0  0
  148.6875  139.3831  154.0889 C   0  0  0  0  0  0  0  0  0  0  0  0
  147.6429  139.7896  153.1208 N   0  3  1  0  0  0  0  0  0  0  0  0
  146.8531  138.6444  152.6203 C   0  0  0  0  0  0  0  0  0  0  0  0
  146.7954  140.8675  153.6777 C   0  0  0  0  0  0  0  0  0  0  0  0
  147.6689  142.0444  154.1393 C   0  0  0  0  0  0  0  0  0  0  0  0
  148.6204  141.5852  155.0911 O   0  0  0  0  0  0  0  0  0  0  0  0
  151.5330  142.0500  158.6840 C   0  0  0  0  0  0  0  0  0  0  0  0
  150.7849  143.5488  158.2420 Cl  0  0  0  0  0  0  0  0  0  0  0  0
  151.6716  143.5534  161.1125 H   0  0  0  0  0  0  0  0  0  0  0  0
  153.0847  143.9719  160.1328 H   0  0  0  0  0  0  0  0  0  0  0  0
  153.2646  142.9334  161.5480 H   0  0  0  0  0  0  0  0  0  0  0  0
  153.2931  138.8261  159.7960 H   0  0  0  0  0  0  0  0  0  0  0  0
  151.8975  138.7740  157.7515 H   0  0  0  0  0  0  0  0  0  0  0  0
  149.7404  141.6276  156.8203 H   0  0  0  0  0  0  0  0  0  0  0  0
  150.0414  141.0394  153.6999 H   0  0  0  0  0  0  0  0  0  0  0  0
  149.3395  138.6459  153.6177 H   0  0  0  0  0  0  0  0  0  0  0  0
  148.2175  138.8961  154.9456 H   0  0  0  0  0  0  0  0  0  0  0  0
  146.3043  138.1622  153.4305 H   0  0  0  0  0  0  0  0  0  0  0  0
  147.5043  137.9014  152.1589 H   0  0  0  0  0  0  0  0  0  0  0  0
  146.1354  138.9716  151.8674 H   0  0  0  0  0  0  0  0  0  0  0  0
  146.0855  141.2060  152.9221 H   0  0  0  0  0  0  0  0  0  0  0  0
  146.2135  140.4822  154.5165 H   0  0  0  0  0  0  0  0  0  0  0  0
  148.1772  142.5098  153.2934 H   0  0  0  0  0  0  0  0  0  0  0  0
  147.0499  142.8135  154.6014 H   0  0  0  0  0  0  0  0  0  0  0  0
  148.1226  140.1811  152.3225 H   0  0  0  0  0  0  0  0  0  0  0  0
  1  2  1  0  0  0  0
  1 19  1  0  0  0  0
  1 20  1  0  0  0  0
  1 21  1  0  0  0  0
  2 17  1  0  0  0  0
  2  3  2  0  0  0  0
  3  4  1  0  0  0  0
  4  5  2  0  0  0  0
  4 22  1  0  0  0  0
  5  6  1  0  0  0  0
  5 23  1  0  0  0  0
  6  7  1  0  0  0  0
  6 17  2  0  0  0  0
  7  8  1  0  0  0  0
  7 24  1  0  0  0  0
  8  9  2  0  0  0  0
  8 10  1  0  0  0  0
 10 16  1  0  0  0  0
 10 11  1  0  0  0  0
 10 25  1  0  0  0  0
 11 12  1  0  0  0  0
 11 26  1  0  0  0  0
 11 27  1  0  0  0  0
 12 13  1  0  0  0  0
 12 14  1  0  0  0  0
 12 35  1  0  0  0  0
 13 28  1  0  0  0  0
 13 29  1  0  0  0  0
 13 30  1  0  0  0  0
 14 15  1  0  0  0  0
 14 31  1  0  0  0  0
 14 32  1  0  0  0  0
 15 16  1  0  0  0  0
 15 33  1  0  0  0  0
 15 34  1  0  0  0  0
 17 18  1  0  0  0  0
M  CHG  1  12   1
M  END
> <s_m_source_file>
AV-unprocessed.smi

> <i_m_source_file_index>
2482

> <i_lp_mmshare_version>
43012

> <i_f3d_flags>
0

> <s_epik_input>
W0NIM11jMW5bY0hdW2NIXWMoYzFDbClbTkhdQyg9TylbQ0BASF0yW0NIMl1OKFtDSDNdKVtDSDJdW0NIMl1PMg==

> <s_epik_cmdline>
J2VwaWtfcHl0aG9uJywgJy1waCcsICc3LjAnLCAnLXRuJywgJzgnLCAnLW1hJywgJzIwMCcsICctbWV0YWxfYmluZGluZycsICctaW1hZScsICc8aW5maWxlLm1hZT4nLCAnLW9tYWUnLCAnPG91dGZpbGUubWFlPic=

> <r_epik_Ionization_Penalty>
0.314226

> <r_epik_Ionization_Penalty_Charging>
0.314023

> <r_epik_Ionization_Penalty_Neutral>
0.00020299

> <r_epik_State_Penalty>
0.308208

> <r_epik_Charging_Adjusted_Penalty>
0.62223

> <i_epik_Tot_Q>
1

> <i_epik_Tot_abs_Q>
1

> <r_epik_Metal_State_Penalty>
0.314444

> <b_epik_Metal_Only>
0

> <s_lp_Force_Field>
OPLS_2005

> <r_lp_Energy>
22.3096

> <b_lp_Chiralities_Consistent>
1

> <s_lp_Variant>
AV-unprocessed.smi:2482-4

> <Gold.Version>
5.8.1

> <Gold.Id.Protein>
6NUR|6NUR_protein|mol2

> <Gold.PLP.Fitness>
37.5129

> <Gold.PLP.PLP>
-35.0339

> <Gold.PLP.part.hbond>
-1.0000

> <Gold.PLP.part.metal>
0.0000

> <Gold.PLP.part.buried>
-4.2868

> <Gold.PLP.part.nonpolar>
-30.0752

> <Gold.PLP.part.repulsive>
0.2741

> <Gold.PLP.ligand.clash>
0.0000

> <Gold.PLP.ligand.torsion>
0.2252

> <Gold.PLP.Chemscore.Hbond>
0.9760

> <Gold.PLP.Chemscore.CHOScore>
0.0000

> <Gold.PLP.Chemscore.Metal>
0.0000

> <Gold.Chemscore.Hbonds>
donor molecule, donor type, donor heavy atom, donor atom, acceptor molecule, acceptor atom, score
      L1  H    12    35       P1  7957  0.94

> <Gold.PLP.Chemscore.Internal.Correction>
0.0014

> <Gold.Rescore>
     Score         DG    S(hbond)    S(metal)    S(lipo)     H(rot)  DE(clash)    DE(int)     intcor
     15.97     -17.28       1.00        0.00      94.26       1.00       0.08       1.23       ----

> <Gold.Chemscore.Fitness>
15.9672

> <Gold.Chemscore.DG>
-17.2781

> <Gold.Chemscore.ZeroCoef>
-5.4800

> <Gold.Chemscore.Hbond>
0.9968

> <Gold.Chemscore.Metal>
0.0000

> <Gold.Chemscore.Lipo>
94.2645

> <Gold.Chemscore.Internal_Hbond>
0.0000

> <Gold.Chemscore.DEClash>
0.0776

> <Gold.Chemscore.DEInternal>
1.2332

> <Gold.Chemscore.Rot>
1.0000

> <Gold.Chemscore.Internal.Correction>
   9.000000E+99

> <Gold.Chemscore.Hbonds>
donor molecule, donor type, donor heavy atom, donor atom, acceptor molecule, acceptor atom, score
      L1  H    12    35       P1  7957  0.91

> <Gold.Chemscore.Hbond.Weighted>
-3.3292

> <Gold.Chemscore.Metal.Weighted>
-0.0000

> <Gold.Chemscore.Lipo.Weighted>
-11.0289

> <Gold.Chemscore.Internal_Hbond.Weighted>
0.0000

> <Gold.Chemscore.DEClash.Weighted>
0.0776

> <Gold.Chemscore.DEInternal.Weighted>
1.2332

> <Gold.Chemscore.Rot.Weighted>
2.5600

> <Gold.Chemscore.Internal.Correction.Weighted>
   9.000000E+99

> <Gold.Protein.RotatedTorsions>
[ 6907 6896 6895 6894 ] final  134.27 input  -60.11 | X-H torsion
[ 7974 7965 7964 7962 ] final  -77.63 input  175.53 | X-H torsion
[ 8008 7997 7996 7995 ] final  -49.49 input   59.86 | X-H torsion
[ 10167 10162 10161 10158 ] final   10.42 input  -65.29 | X-H torsion
[ 10718 10713 10712 10709 ] final -118.05 input   66.30 | X-H torsion
[ 10763 10752 10751 10750 ] final -136.05 input  -60.55 | X-H torsion
[ 11005 11000 10999 10996 ] final  142.61 input  -57.11 | X-H torsion

> <Gold.Protein.ActiveResidues>
 VAL166  LYS551  ARG553  GLY616  TRP617  ASP618  TYR619  PRO620  LYS621  CYS622 
 ASP623  PHE694  ASN695  SER759  ASP760  ASP761  ALA762  ILE779  LEU786  VAL792 
 PHE793  MET794  SER795  GLU796  ALA797  LYS798  CYS799  TRP800  GLU811  SER814 

> <Gold.Protein.RotatedAtoms>
  152.3131  133.5774  159.5693 H   0  0  0  0  0  0  0  0  0  0  0  0  # atno 6907 bound_to 6896
  150.7333  134.0122  159.3682 H   0  0  0  0  0  0  0  0  0  0  0  0  # atno 6908 bound_to 6896
  151.8013  135.0708  160.0451 H   0  0  0  0  0  0  0  0  0  0  0  0  # atno 6909 bound_to 6896
  145.5971  140.9417  143.1261 H   0  0  0  0  0  0  0  0  0  0  0  0  # atno 7974 bound_to 7965
  154.4045  140.1295  156.4511 H   0  0  0  0  0  0  0  0  0  0  0  0  # atno 8008 bound_to 7997
  155.7365  140.3490  155.5064 H   0  0  0  0  0  0  0  0  0  0  0  0  # atno 8009 bound_to 7997
  155.9078  140.1030  157.1292 H   0  0  0  0  0  0  0  0  0  0  0  0  # atno 8010 bound_to 7997
  140.6195  143.8235  150.7158 H   0  0  0  0  0  0  0  0  0  0  0  0  # atno 10167 bound_to 10162
  156.1078  130.6224  150.9242 H   0  0  0  0  0  0  0  0  0  0  0  0  # atno 10718 bound_to 10713
  154.8691  135.3684  154.4998 H   0  0  0  0  0  0  0  0  0  0  0  0  # atno 10763 bound_to 10752
  153.5640  135.7022  153.5539 H   0  0  0  0  0  0  0  0  0  0  0  0  # atno 10764 bound_to 10752
  153.3602  135.4048  155.1676 H   0  0  0  0  0  0  0  0  0  0  0  0  # atno 10765 bound_to 10752
  140.0490  134.9265  157.0983 H   0  0  0  0  0  0  0  0  0  0  0  0  # atno 11005 bound_to 11000
  144.7326  139.7681  143.7341 LP  0  0  0  0  0  0  0  0  0  0  0  0  # atno 17320 bound_to 7965
  146.1604  139.4716  142.9992 LP  0  0  0  0  0  0  0  0  0  0  0  0  # atno 17321 bound_to 7965
  140.1822  143.4105  152.1924 LP  0  0  0  0  0  0  0  0  0  0  0  0  # atno 17342 bound_to 10162
  139.5426  144.7270  151.4684 LP  0  0  0  0  0  0  0  0  0  0  0  0  # atno 17343 bound_to 10162
  157.6257  131.0926  150.8539 LP  0  0  0  0  0  0  0  0  0  0  0  0  # atno 17370 bound_to 10713
  156.8655  130.5128  149.5300 LP  0  0  0  0  0  0  0  0  0  0  0  0  # atno 17371 bound_to 10713
  140.3947  134.2146  155.7165 LP  0  0  0  0  0  0  0  0  0  0  0  0  # atno 17394 bound_to 11000
  141.1921  133.8180  157.0852 LP  0  0  0  0  0  0  0  0  0  0  0  0  # atno 17395 bound_to 11000

$$$$
