AV-unprocessed.smi:2358|AV-procd|sdf|9403|dock3
  -GOLD-   2272013 33D 1   1.00000     0.00000
 Structure written by MMmdl.
 45 47  0  0  0  0  0  0  0  0  1 V2000
  152.3200  145.3163  158.9132 C   0  0  0  0  0  0  0  0  0  0  0  0
  152.3910  143.8082  158.7880 C   0  0  0  0  0  0  0  0  0  0  0  0
  153.2488  143.0640  159.6224 C   0  0  0  0  0  0  0  0  0  0  0  0
  153.3085  141.6620  159.5029 C   0  0  0  0  0  0  0  0  0  0  0  0
  154.2332  140.8685  160.4027 C   0  0  0  0  0  0  0  0  0  0  0  0
  152.5075  141.0070  158.5451 C   0  0  0  0  0  0  0  0  0  0  0  0
  151.6451  141.7365  157.7014 C   0  0  0  0  0  0  0  0  0  0  0  0
  150.9005  141.0136  156.7936 O   0  0  0  0  0  0  0  0  0  0  0  0
  150.3451  141.6994  155.6791 C   0  0  0  0  0  0  0  0  0  0  0  0
  149.4749  140.7210  154.8727 C   0  0  2  0  0  0  0  0  0  0  0  0
  149.4262  141.1991  153.5421 O   0  0  0  0  0  0  0  0  0  0  0  0
  148.0271  140.6668  155.4097 C   0  0  0  0  0  0  0  0  0  0  0  0
  147.6088  139.2979  155.7346 N   0  0  0  0  0  0  0  0  0  0  0  0
  147.0866  138.6009  154.6603 N   0  0  0  0  0  0  0  0  0  0  0  0
  146.6871  137.3782  154.7892 C   0  0  0  0  0  0  0  0  0  0  0  0
  146.1511  136.6577  153.6484 N   0  0  0  0  0  0  0  0  0  0  0  0
  145.3794  137.2752  152.6630 C   0  0  0  0  0  0  0  0  0  0  0  0
  145.0540  136.2840  151.7633 C   0  0  0  0  0  0  0  0  0  0  0  0
  145.6031  135.0692  152.1698 N   0  0  0  0  0  0  0  0  0  0  0  0
  146.2374  135.3675  153.2958 C   0  0  0  0  0  0  0  0  0  0  0  0
  146.7732  136.7237  156.0903 C   0  0  0  0  0  0  0  0  0  0  0  0
  147.2836  137.4143  157.1328 C   0  0  0  0  0  0  0  0  0  0  0  0
  147.7501  138.7925  156.9951 C   0  0  0  0  0  0  0  0  0  0  0  0
  148.2283  139.4390  157.9268 O   0  0  0  0  0  0  0  0  0  0  0  0
  151.5920  143.1472  157.8328 C   0  0  0  0  0  0  0  0  0  0  0  0
  153.0985  145.6979  159.5745 H   0  0  0  0  0  0  0  0  0  0  0  0
  151.3521  145.6154  159.3162 H   0  0  0  0  0  0  0  0  0  0  0  0
  152.4453  145.7845  157.9364 H   0  0  0  0  0  0  0  0  0  0  0  0
  153.8622  143.5668  160.3564 H   0  0  0  0  0  0  0  0  0  0  0  0
  154.1238  139.7955  160.2414 H   0  0  0  0  0  0  0  0  0  0  0  0
  154.0137  141.0786  161.4498 H   0  0  0  0  0  0  0  0  0  0  0  0
  155.2716  141.1381  160.2084 H   0  0  0  0  0  0  0  0  0  0  0  0
  152.5524  139.9317  158.4514 H   0  0  0  0  0  0  0  0  0  0  0  0
  149.7205  142.5099  156.0579 H   0  0  0  0  0  0  0  0  0  0  0  0
  151.1202  142.1413  155.0498 H   0  0  0  0  0  0  0  0  0  0  0  0
  149.9280  139.7291  154.8955 H   0  0  0  0  0  0  0  0  0  0  0  0
  149.2722  140.4673  152.9646 H   0  0  0  0  0  0  0  0  0  0  0  0
  147.9414  141.2757  156.3114 H   0  0  0  0  0  0  0  0  0  0  0  0
  147.3380  141.1268  154.6984 H   0  0  0  0  0  0  0  0  0  0  0  0
  145.1089  138.3184  152.6458 H   0  0  0  0  0  0  0  0  0  0  0  0
  144.4664  136.3515  150.8595 H   0  0  0  0  0  0  0  0  0  0  0  0
  146.7758  134.6306  153.8740 H   0  0  0  0  0  0  0  0  0  0  0  0
  146.4399  135.7130  156.2547 H   0  0  0  0  0  0  0  0  0  0  0  0
  147.3479  136.9361  158.0993 H   0  0  0  0  0  0  0  0  0  0  0  0
  150.9432  143.7452  157.2109 H   0  0  0  0  0  0  0  0  0  0  0  0
  1  2  1  0  0  0  0
  1 26  1  0  0  0  0
  1 27  1  0  0  0  0
  1 28  1  0  0  0  0
  2 25  1  0  0  0  0
  2  3  2  0  0  0  0
  3  4  1  0  0  0  0
  3 29  1  0  0  0  0
  4  5  1  0  0  0  0
  4  6  2  0  0  0  0
  5 30  1  0  0  0  0
  5 31  1  0  0  0  0
  5 32  1  0  0  0  0
  6  7  1  0  0  0  0
  6 33  1  0  0  0  0
  7  8  1  0  0  0  0
  7 25  2  0  0  0  0
  8  9  1  0  0  0  0
  9 10  1  0  0  0  0
  9 34  1  0  0  0  0
  9 35  1  0  0  0  0
 10 11  1  0  0  0  0
 10 12  1  0  0  0  0
 10 36  1  0  0  0  0
 11 37  1  0  0  0  0
 12 13  1  0  0  0  0
 12 38  1  0  0  0  0
 12 39  1  0  0  0  0
 13 23  1  0  0  0  0
 13 14  1  0  0  0  0
 14 15  2  0  0  0  0
 15 16  1  0  0  0  0
 15 21  1  0  0  0  0
 16 20  1  0  0  0  0
 16 17  1  0  0  0  0
 17 18  2  0  0  0  0
 17 40  1  0  0  0  0
 18 19  1  0  0  0  0
 18 41  1  0  0  0  0
 19 20  2  0  0  0  0
 20 42  1  0  0  0  0
 21 22  2  0  0  0  0
 21 43  1  0  0  0  0
 22 23  1  0  0  0  0
 22 44  1  0  0  0  0
 23 24  2  0  0  0  0
 25 45  1  0  0  0  0
M  END
> <s_m_source_file>
AV-unprocessed.smi

> <i_m_source_file_index>
2358

> <i_lp_mmshare_version>
43012

> <i_f3d_flags>
0

> <s_epik_input>
W0NIM11jMVtjSF1jKFtDSDNdKVtjSF1jKFtjSF0xKU9bQ0gyXVtDQEhdKFtPSF0pW0NIMl1uMm5jKFtjSF1bY0hdYzI9TyktbjNbY0hdW2NIXW5bY0hdMw==

> <s_epik_cmdline>
J2VwaWtfcHl0aG9uJywgJy1waCcsICc3LjAnLCAnLXRuJywgJzgnLCAnLW1hJywgJzIwMCcsICctbWV0YWxfYmluZGluZycsICctaW1hZScsICc8aW5maWxlLm1hZT4nLCAnLW9tYWUnLCAnPG91dGZpbGUubWFlPic=

> <r_lp_tautomer_probability>
1

> <r_epik_Ionization_Penalty>
0.03707

> <r_epik_Ionization_Penalty_Charging>
0.0370699

> <r_epik_Ionization_Penalty_Neutral>
1.17174e-07

> <r_epik_State_Penalty>
0.0310055

> <r_epik_Charging_Adjusted_Penalty>
0.0680754

> <i_epik_Tot_Q>
0

> <i_epik_Tot_abs_Q>
0

> <r_epik_Metal_State_Penalty>
0.0291724

> <b_epik_Metal_Only>
0

> <s_lp_Force_Field>
OPLS_2005

> <r_lp_Energy>
37.1438

> <b_lp_Chiralities_Consistent>
1

> <s_lp_Variant>
AV-unprocessed.smi:2358-1

> <Gold.Version>
5.8.1

> <Gold.Id.Protein>
6NUR|6NUR_protein|mol2

> <Gold.PLP.Fitness>
48.6586

> <Gold.PLP.PLP>
-42.3185

> <Gold.PLP.part.hbond>
-3.7115

> <Gold.PLP.part.metal>
0.0000

> <Gold.PLP.part.buried>
-5.1823

> <Gold.PLP.part.nonpolar>
-33.1125

> <Gold.PLP.part.repulsive>
0.2389

> <Gold.PLP.ligand.clash>
0.0000

> <Gold.PLP.ligand.torsion>
2.1770

> <Gold.PLP.Chemscore.Hbond>
1.7447

> <Gold.PLP.Chemscore.CHOScore>
1.8028

> <Gold.PLP.Chemscore.Metal>
0.0000

> <Gold.Chemscore.Hbonds>
donor molecule, donor type, donor heavy atom, donor atom, acceptor molecule, acceptor atom, score
      L1  H    11    37       P1  7957  0.74
      P1  H  7989  7998       L1    11  0.03
      P1  H  8011  8017       L1    11  0.94
      L1  C    17    40       P1 10175  0.88
      L1  C    18    41       P1 10171  0.85

> <Gold.PLP.Chemscore.Internal.Correction>
0.0515

> <Gold.Rescore>
     Score         DG    S(hbond)    S(metal)    S(lipo)     H(rot)  DE(clash)    DE(int)     intcor
     15.17     -17.34       1.38        0.00     118.98       2.60       0.08       2.10       ----

> <Gold.Chemscore.Fitness>
15.1698

> <Gold.Chemscore.DG>
-17.3405

> <Gold.Chemscore.ZeroCoef>
-5.4800

> <Gold.Chemscore.Hbond>
1.3750

> <Gold.Chemscore.Metal>
0.0000

> <Gold.Chemscore.Lipo>
118.9765

> <Gold.Chemscore.Internal_Hbond>
0.0000

> <Gold.Chemscore.DEClash>
0.0756

> <Gold.Chemscore.DEInternal>
2.0951

> <Gold.Chemscore.Rot>
2.5986

> <Gold.Chemscore.Internal.Correction>
   9.000000E+99

> <Gold.Chemscore.Hbonds>
donor molecule, donor type, donor heavy atom, donor atom, acceptor molecule, acceptor atom, score
      L1  H    11    37       P1  7957  0.74
      P1  H  8011  8017       L1    11  0.20

> <Gold.Chemscore.Hbond.Weighted>
-4.5927

> <Gold.Chemscore.Metal.Weighted>
-0.0000

> <Gold.Chemscore.Lipo.Weighted>
-13.9203

> <Gold.Chemscore.Internal_Hbond.Weighted>
0.0000

> <Gold.Chemscore.DEClash.Weighted>
0.0756

> <Gold.Chemscore.DEInternal.Weighted>
2.0951

> <Gold.Chemscore.Rot.Weighted>
6.6524

> <Gold.Chemscore.Internal.Correction.Weighted>
   9.000000E+99

> <Gold.Protein.RotatedTorsions>
[ 6907 6896 6895 6894 ] final  -39.20 input  -60.11 | X-H torsion
[ 7974 7965 7964 7962 ] final  -79.21 input  175.53 | X-H torsion
[ 8008 7997 7996 7995 ] final -130.45 input   59.86 | X-H torsion
[ 10167 10162 10161 10158 ] final   -1.77 input  -65.29 | X-H torsion
[ 10718 10713 10712 10709 ] final  -69.86 input   66.30 | X-H torsion
[ 10763 10752 10751 10750 ] final -142.58 input  -60.55 | X-H torsion
[ 11005 11000 10999 10996 ] final -156.25 input  -57.11 | X-H torsion

> <Gold.Protein.ActiveResidues>
 VAL166  LYS551  ARG553  GLY616  TRP617  ASP618  TYR619  PRO620  LYS621  CYS622 
 ASP623  PHE694  ASN695  SER759  ASP760  ASP761  ALA762  ILE779  LEU786  VAL792 
 PHE793  MET794  SER795  GLU796  ALA797  LYS798  CYS799  TRP800  GLU811  SER814 

> <Gold.Protein.RotatedAtoms>
  150.9932  134.9262  159.7911 H   0  0  0  0  0  0  0  0  0  0  0  0  # atno 6907 bound_to 6896
  152.5257  134.3253  159.9173 H   0  0  0  0  0  0  0  0  0  0  0  0  # atno 6908 bound_to 6896
  151.3259  133.3979  159.2693 H   0  0  0  0  0  0  0  0  0  0  0  0  # atno 6909 bound_to 6896
  145.5762  140.9457  143.1368 H   0  0  0  0  0  0  0  0  0  0  0  0  # atno 7974 bound_to 7965
  155.2960  140.0450  157.3026 H   0  0  0  0  0  0  0  0  0  0  0  0  # atno 8008 bound_to 7997
  154.5514  140.2318  155.8447 H   0  0  0  0  0  0  0  0  0  0  0  0  # atno 8009 bound_to 7997
  156.1970  140.3036  155.9454 H   0  0  0  0  0  0  0  0  0  0  0  0  # atno 8010 bound_to 7997
  140.6824  143.6736  150.8164 H   0  0  0  0  0  0  0  0  0  0  0  0  # atno 10167 bound_to 10162
  156.0435  130.4320  150.2209 H   0  0  0  0  0  0  0  0  0  0  0  0  # atno 10718 bound_to 10713
  154.8503  135.3492  154.6051 H   0  0  0  0  0  0  0  0  0  0  0  0  # atno 10763 bound_to 10752
  153.6660  135.6987  153.5167 H   0  0  0  0  0  0  0  0  0  0  0  0  # atno 10764 bound_to 10752
  153.2780  135.4272  155.1009 H   0  0  0  0  0  0  0  0  0  0  0  0  # atno 10765 bound_to 10752
  140.6777  134.4179  157.5228 H   0  0  0  0  0  0  0  0  0  0  0  0  # atno 11005 bound_to 11000
  144.7415  139.7437  143.7309 LP  0  0  0  0  0  0  0  0  0  0  0  0  # atno 17320 bound_to 7965
  146.1749  139.4915  142.9904 LP  0  0  0  0  0  0  0  0  0  0  0  0  # atno 17321 bound_to 7965
  140.0438  143.5319  152.2705 LP  0  0  0  0  0  0  0  0  0  0  0  0  # atno 17342 bound_to 10162
  139.6156  144.7618  151.2854 LP  0  0  0  0  0  0  0  0  0  0  0  0  # atno 17343 bound_to 10162
  157.0302  131.0005  151.3314 LP  0  0  0  0  0  0  0  0  0  0  0  0  # atno 17370 bound_to 10713
  157.5283  130.8042  149.7887 LP  0  0  0  0  0  0  0  0  0  0  0  0  # atno 17371 bound_to 10713
  139.8961  134.8666  156.2100 LP  0  0  0  0  0  0  0  0  0  0  0  0  # atno 17394 bound_to 11000
  141.0342  133.6972  156.1484 LP  0  0  0  0  0  0  0  0  0  0  0  0  # atno 17395 bound_to 11000

$$$$
