AV-unprocessed.smi:1578|AV-procd|sdf|6350|dock8
  -GOLD-   22720 6573D 1   1.00000     0.00000
 Structure written by MMmdl.
 44 45  0  0  0  0  0  0  0  0  1 V2000
  152.5336  137.7510  159.8409 C   0  0  0  0  0  0  0  0  0  0  0  0
  151.5175  137.9090  158.6979 C   0  0  2  0  0  0  0  0  0  0  0  0
  151.6417  139.2947  158.0266 C   0  0  0  0  0  0  0  0  0  0  0  0
  150.6767  139.5752  156.9610 N   0  0  0  0  0  0  0  0  0  0  0  0
  150.4812  141.0057  156.7310 C   0  0  0  0  0  0  0  0  0  0  0  0
  149.5029  141.2814  155.5765 C   0  0  0  0  0  0  0  0  0  0  0  0
  149.9587  140.6316  154.3949 O   0  0  0  0  0  0  0  0  0  0  0  0
  150.1013  139.2258  154.5662 C   0  0  0  0  0  0  0  0  0  0  0  0
  151.0912  138.9475  155.7103 C   0  0  0  0  0  0  0  0  0  0  0  0
  150.1670  137.7426  159.2261 N   0  0  0  0  0  0  0  0  0  0  0  0
  149.3368  136.7186  158.9643 C   0  0  0  0  0  0  0  0  0  0  0  0
  149.6643  135.7533  158.2758 O   0  0  0  0  0  0  0  0  0  0  0  0
  147.9123  136.7789  159.5423 C   0  0  0  0  0  0  0  0  0  0  0  0
  147.6386  135.7947  160.6058 N   0  0  0  0  0  0  0  0  0  0  0  0
  147.7460  134.4325  160.2624 C   0  0  0  0  0  0  0  0  0  0  0  0
  147.5550  133.4361  161.1482 C   0  0  0  0  0  0  0  0  0  0  0  0
  147.6321  131.9745  160.7358 C   0  0  0  0  0  0  0  0  0  0  0  0
  147.9695  131.8544  159.4516 F   0  0  0  0  0  0  0  0  0  0  0  0
  148.5299  131.3146  161.4685 F   0  0  0  0  0  0  0  0  0  0  0  0
  146.4464  131.3926  160.9101 F   0  0  0  0  0  0  0  0  0  0  0  0
  147.1904  133.8310  162.4947 C   0  0  0  0  0  0  0  0  0  0  0  0
  147.0756  135.1288  162.8378 C   0  0  0  0  0  0  0  0  0  0  0  0
  147.3122  136.2016  161.8695 C   0  0  0  0  0  0  0  0  0  0  0  0
  147.2307  137.3908  162.1771 O   0  0  0  0  0  0  0  0  0  0  0  0
  153.5553  137.8540  159.4745 H   0  0  0  0  0  0  0  0  0  0  0  0
  152.4552  136.7694  160.3095 H   0  0  0  0  0  0  0  0  0  0  0  0
  152.3801  138.5031  160.6157 H   0  0  0  0  0  0  0  0  0  0  0  0
  151.7233  137.1371  157.9537 H   0  0  0  0  0  0  0  0  0  0  0  0
  151.6133  140.0834  158.7806 H   0  0  0  0  0  0  0  0  0  0  0  0
  152.6388  139.3540  157.5879 H   0  0  0  0  0  0  0  0  0  0  0  0
  150.0875  141.4813  157.6281 H   0  0  0  0  0  0  0  0  0  0  0  0
  151.4392  141.4809  156.5147 H   0  0  0  0  0  0  0  0  0  0  0  0
  148.5004  140.9319  155.8285 H   0  0  0  0  0  0  0  0  0  0  0  0
  149.4312  142.3531  155.3900 H   0  0  0  0  0  0  0  0  0  0  0  0
  149.1295  138.7758  154.7759 H   0  0  0  0  0  0  0  0  0  0  0  0
  150.4637  138.7883  153.6359 H   0  0  0  0  0  0  0  0  0  0  0  0
  152.0796  139.3109  155.4244 H   0  0  0  0  0  0  0  0  0  0  0  0
  151.1841  137.8698  155.8496 H   0  0  0  0  0  0  0  0  0  0  0  0
  149.8172  138.4915  159.8057 H   0  0  0  0  0  0  0  0  0  0  0  0
  147.7279  137.7908  159.9077 H   0  0  0  0  0  0  0  0  0  0  0  0
  147.2103  136.6478  158.7178 H   0  0  0  0  0  0  0  0  0  0  0  0
  148.0017  134.2489  159.2287 H   0  0  0  0  0  0  0  0  0  0  0  0
  147.0102  133.0737  163.2433 H   0  0  0  0  0  0  0  0  0  0  0  0
  146.8049  135.3866  163.8513 H   0  0  0  0  0  0  0  0  0  0  0  0
  1  2  1  0  0  0  0
  1 25  1  0  0  0  0
  1 26  1  0  0  0  0
  1 27  1  0  0  0  0
  2  3  1  0  0  0  0
  2 10  1  0  0  0  0
  2 28  1  0  0  0  0
  3  4  1  0  0  0  0
  3 29  1  0  0  0  0
  3 30  1  0  0  0  0
  4  9  1  0  0  0  0
  4  5  1  0  0  0  0
  5  6  1  0  0  0  0
  5 31  1  0  0  0  0
  5 32  1  0  0  0  0
  6  7  1  0  0  0  0
  6 33  1  0  0  0  0
  6 34  1  0  0  0  0
  7  8  1  0  0  0  0
  8  9  1  0  0  0  0
  8 35  1  0  0  0  0
  8 36  1  0  0  0  0
  9 37  1  0  0  0  0
  9 38  1  0  0  0  0
 10 11  1  0  0  0  0
 10 39  1  0  0  0  0
 11 12  2  0  0  0  0
 11 13  1  0  0  0  0
 13 14  1  0  0  0  0
 13 40  1  0  0  0  0
 13 41  1  0  0  0  0
 14 23  1  0  0  0  0
 14 15  1  0  0  0  0
 15 16  2  0  0  0  0
 15 42  1  0  0  0  0
 16 17  1  0  0  0  0
 16 21  1  0  0  0  0
 17 18  1  0  0  0  0
 17 19  1  0  0  0  0
 17 20  1  0  0  0  0
 21 22  2  0  0  0  0
 21 43  1  0  0  0  0
 22 23  1  0  0  0  0
 22 44  1  0  0  0  0
 23 24  2  0  0  0  0
M  END
> <s_m_source_file>
AV-unprocessed.smi

> <i_m_source_file_index>
1578

> <i_lp_mmshare_version>
43012

> <i_f3d_flags>
0

> <s_epik_input>
W0NIMl0xW0NIMl1PW0NIMl1bQ0gyXU4xW0NIMl1bQ0BASF0oW0NIM10pW05IXUMoPU8pW0NIMl1uMltjSF1jKEMoRikoRilGKVtjSF1bY0hdYzI9Tw==

> <s_epik_cmdline>
J2VwaWtfcHl0aG9uJywgJy1waCcsICc3LjAnLCAnLXRuJywgJzgnLCAnLW1hJywgJzIwMCcsICctbWV0YWxfYmluZGluZycsICctaW1hZScsICc8aW5maWxlLm1hZT4nLCAnLW9tYWUnLCAnPG91dGZpbGUubWFlPic=

> <r_lp_tautomer_probability>
1

> <r_epik_Ionization_Penalty>
0.237382

> <r_epik_Ionization_Penalty_Charging>
1.80451e-08

> <r_epik_Ionization_Penalty_Neutral>
0.237382

> <r_epik_State_Penalty>
0.228245

> <r_epik_Charging_Adjusted_Penalty>
0.228245

> <i_epik_Tot_Q>
0

> <i_epik_Tot_abs_Q>
0

> <r_epik_Metal_State_Penalty>
0.228219

> <b_epik_Metal_Only>
0

> <s_lp_Force_Field>
OPLS_2005

> <r_lp_Energy>
37.3685

> <b_lp_Chiralities_Consistent>
1

> <s_lp_Variant>
AV-unprocessed.smi:1578-1

> <Gold.Version>
5.8.1

> <Gold.Id.Protein>
6NUR|6NUR_protein|mol2

> <Gold.PLP.Fitness>
53.1118

> <Gold.PLP.PLP>
-44.8527

> <Gold.PLP.part.hbond>
-3.8091

> <Gold.PLP.part.metal>
0.0000

> <Gold.PLP.part.buried>
-5.3256

> <Gold.PLP.part.nonpolar>
-36.5253

> <Gold.PLP.part.repulsive>
0.9229

> <Gold.PLP.ligand.clash>
1.3799

> <Gold.PLP.ligand.torsion>
0.3751

> <Gold.PLP.Chemscore.Hbond>
3.4340

> <Gold.PLP.Chemscore.CHOScore>
0.0000

> <Gold.PLP.Chemscore.Metal>
0.0000

> <Gold.Chemscore.Hbonds>
donor molecule, donor type, donor heavy atom, donor atom, acceptor molecule, acceptor atom, score
      P1  H  6896  6908       L1    12  1.00
      P1  H  6931  6943       L1    24  0.74
      P1  H  6934  6947       L1    24  0.62
      P1  H  7989  7998       L1     7  0.61

> <Gold.PLP.Chemscore.Internal.Correction>
0.0872

> <Gold.Rescore>
     Score         DG    S(hbond)    S(metal)    S(lipo)     H(rot)  DE(clash)    DE(int)     intcor
     19.15     -19.72       3.21        0.00      75.80       2.09       0.01       0.56       ----

> <Gold.Chemscore.Fitness>
19.1511

> <Gold.Chemscore.DG>
-19.7241

> <Gold.Chemscore.ZeroCoef>
-5.4800

> <Gold.Chemscore.Hbond>
3.2131

> <Gold.Chemscore.Metal>
0.0000

> <Gold.Chemscore.Lipo>
75.8032

> <Gold.Chemscore.Internal_Hbond>
0.0000

> <Gold.Chemscore.DEClash>
0.0089

> <Gold.Chemscore.DEInternal>
0.5642

> <Gold.Chemscore.Rot>
2.0924

> <Gold.Chemscore.Internal.Correction>
   9.000000E+99

> <Gold.Chemscore.Hbonds>
donor molecule, donor type, donor heavy atom, donor atom, acceptor molecule, acceptor atom, score
      P1  H  6896  6908       L1    12  0.42
      P1  H  6931  6943       L1    24  0.53
      P1  H  6934  6947       L1    24  0.59
      P1  H  7989  7998       L1     7  0.09

> <Gold.Chemscore.Hbond.Weighted>
-10.7318

> <Gold.Chemscore.Metal.Weighted>
-0.0000

> <Gold.Chemscore.Lipo.Weighted>
-8.8690

> <Gold.Chemscore.Internal_Hbond.Weighted>
0.0000

> <Gold.Chemscore.DEClash.Weighted>
0.0089

> <Gold.Chemscore.DEInternal.Weighted>
0.5642

> <Gold.Chemscore.Rot.Weighted>
5.3566

> <Gold.Chemscore.Internal.Correction.Weighted>
   9.000000E+99

> <Gold.Protein.RotatedTorsions>
[ 6907 6896 6895 6894 ] final  168.79 input  -60.11 | X-H torsion
[ 7974 7965 7964 7962 ] final  -99.74 input  175.53 | X-H torsion
[ 8008 7997 7996 7995 ] final -147.55 input   59.86 | X-H torsion
[ 10167 10162 10161 10158 ] final  -49.32 input  -65.29 | X-H torsion
[ 10718 10713 10712 10709 ] final  100.01 input   66.30 | X-H torsion
[ 10763 10752 10751 10750 ] final -147.95 input  -60.55 | X-H torsion
[ 11005 11000 10999 10996 ] final   13.15 input  -57.11 | X-H torsion

> <Gold.Protein.ActiveResidues>
 VAL166  LYS551  ARG553  GLY616  TRP617  ASP618  TYR619  PRO620  LYS621  CYS622 
 ASP623  PHE694  ASN695  SER759  ASP760  ASP761  ALA762  ILE779  LEU786  VAL792 
 PHE793  MET794  SER795  GLU796  ALA797  LYS798  CYS799  TRP800  GLU811  SER814 

> <Gold.Protein.RotatedAtoms>
  151.8420  133.3425  159.3645 H   0  0  0  0  0  0  0  0  0  0  0  0  # atno 6907 bound_to 6896
  150.7232  134.5382  159.5743 H   0  0  0  0  0  0  0  0  0  0  0  0  # atno 6908 bound_to 6896
  152.2857  134.7779  160.0439 H   0  0  0  0  0  0  0  0  0  0  0  0  # atno 6909 bound_to 6896
  145.3036  140.9383  143.2810 H   0  0  0  0  0  0  0  0  0  0  0  0  # atno 7974 bound_to 7965
  155.5774  140.0640  157.2792 H   0  0  0  0  0  0  0  0  0  0  0  0  # atno 8008 bound_to 7997
  154.4343  140.1858  156.0987 H   0  0  0  0  0  0  0  0  0  0  0  0  # atno 8009 bound_to 7997
  156.0331  140.3304  155.7165 H   0  0  0  0  0  0  0  0  0  0  0  0  # atno 8010 bound_to 7997
  140.6691  143.2703  151.4197 H   0  0  0  0  0  0  0  0  0  0  0  0  # atno 10167 bound_to 10162
  157.6863  131.0686  150.5035 H   0  0  0  0  0  0  0  0  0  0  0  0  # atno 10718 bound_to 10713
  154.8259  135.3347  154.6898 H   0  0  0  0  0  0  0  0  0  0  0  0  # atno 10763 bound_to 10752
  153.7524  135.6938  153.4947 H   0  0  0  0  0  0  0  0  0  0  0  0  # atno 10764 bound_to 10752
  153.2167  135.4463  155.0392 H   0  0  0  0  0  0  0  0  0  0  0  0  # atno 10765 bound_to 10752
  140.4839  134.0907  155.7757 H   0  0  0  0  0  0  0  0  0  0  0  0  # atno 11005 bound_to 11000
  144.9073  139.4572  143.6603 LP  0  0  0  0  0  0  0  0  0  0  0  0  # atno 17320 bound_to 7965
  146.3143  139.7862  142.8995 LP  0  0  0  0  0  0  0  0  0  0  0  0  # atno 17321 bound_to 7965
  139.5951  144.1415  152.2134 LP  0  0  0  0  0  0  0  0  0  0  0  0  # atno 17342 bound_to 10162
  140.0781  144.5723  150.7142 LP  0  0  0  0  0  0  0  0  0  0  0  0  # atno 17343 bound_to 10162
  156.5356  130.4195  149.6179 LP  0  0  0  0  0  0  0  0  0  0  0  0  # atno 17370 bound_to 10713
  156.3030  130.7187  151.2063 LP  0  0  0  0  0  0  0  0  0  0  0  0  # atno 17371 bound_to 10713
  141.1517  133.8956  157.2080 LP  0  0  0  0  0  0  0  0  0  0  0  0  # atno 17394 bound_to 11000
  139.9809  135.0098  156.9748 LP  0  0  0  0  0  0  0  0  0  0  0  0  # atno 17395 bound_to 11000

$$$$
