AV-unprocessed.smi:926|AV-procd|sdf|4185|dock5
  -GOLD-   22720 2 93D 1   1.00000     0.00000
 Structure written by MMmdl.
 37 39  0  0  0  0  0  0  0  0  1 V2000
  149.5840  140.9507  153.9327 O   0  0  0  0  0  0  0  0  0  0  0  0
  148.8062  141.4628  154.7376 C   0  0  0  0  0  0  0  0  0  0  0  0
  147.3173  141.5583  154.4038 C   0  0  0  0  0  0  0  0  0  0  0  0
  146.7647  140.2471  154.1241 N   0  0  0  0  0  0  0  0  0  0  0  0
  147.0107  139.3837  153.1363 C   0  0  0  0  0  0  0  0  0  0  0  0
  146.2758  138.2878  153.2508 N   0  0  0  0  0  0  0  0  0  0  0  0
  145.5355  138.5239  154.3972 N   0  0  0  0  0  0  0  0  0  0  0  0
  145.8203  139.6854  154.9193 N   0  0  0  0  0  0  0  0  0  0  0  0
  149.1891  141.9627  155.9227 N   0  0  0  0  0  0  0  0  0  0  0  0
  150.5574  141.9690  156.4266 C   0  0  0  0  0  0  0  0  0  0  0  0
  150.6432  141.3598  157.8369 C   0  0  0  0  0  0  0  0  0  0  0  0
  151.0335  142.3908  158.9143 C   0  0  2  0  0  0  0  0  0  0  0  0
  150.2200  143.7048  158.8467 C   0  0  0  0  0  0  0  0  0  0  0  0
  151.3099  144.7874  158.7485 C   0  0  1  0  0  0  0  0  0  0  0  0
  152.0684  144.8795  160.0857 C   0  0  0  0  0  0  0  0  0  0  0  0
  152.9059  143.5866  160.0893 C   0  0  0  0  0  0  0  0  0  0  0  0
  152.4848  142.9058  158.7727 C   0  0  2  0  0  0  0  0  0  0  0  0
  152.3337  144.1097  157.8473 C   0  0  0  0  0  0  0  0  0  0  0  0
  146.7803  141.9928  155.2480 H   0  0  0  0  0  0  0  0  0  0  0  0
  147.1513  142.2122  153.5458 H   0  0  0  0  0  0  0  0  0  0  0  0
  147.7201  139.5577  152.3405 H   0  0  0  0  0  0  0  0  0  0  0  0
  148.4820  142.3686  156.5184 H   0  0  0  0  0  0  0  0  0  0  0  0
  151.1707  141.3967  155.7307 H   0  0  0  0  0  0  0  0  0  0  0  0
  150.9553  142.9852  156.4237 H   0  0  0  0  0  0  0  0  0  0  0  0
  149.6742  140.9321  158.0976 H   0  0  0  0  0  0  0  0  0  0  0  0
  151.3493  140.5289  157.8361 H   0  0  0  0  0  0  0  0  0  0  0  0
  150.9094  141.9220  159.8918 H   0  0  0  0  0  0  0  0  0  0  0  0
  149.5842  143.7359  157.9609 H   0  0  0  0  0  0  0  0  0  0  0  0
  149.5783  143.8401  159.7180 H   0  0  0  0  0  0  0  0  0  0  0  0
  150.9411  145.7475  158.3869 H   0  0  0  0  0  0  0  0  0  0  0  0
  152.7165  145.7565  160.1071 H   0  0  0  0  0  0  0  0  0  0  0  0
  151.3923  144.9404  160.9393 H   0  0  0  0  0  0  0  0  0  0  0  0
  153.9710  143.8213  160.0786 H   0  0  0  0  0  0  0  0  0  0  0  0
  152.7119  142.9647  160.9640 H   0  0  0  0  0  0  0  0  0  0  0  0
  153.1941  142.1497  158.4339 H   0  0  0  0  0  0  0  0  0  0  0  0
  151.9436  143.8584  156.8601 H   0  0  0  0  0  0  0  0  0  0  0  0
  153.2541  144.6847  157.7305 H   0  0  0  0  0  0  0  0  0  0  0  0
  1  2  2  0  0  0  0
  2  3  1  0  0  0  0
  2  9  1  0  0  0  0
  3  4  1  0  0  0  0
  3 19  1  0  0  0  0
  3 20  1  0  0  0  0
  4  8  1  0  0  0  0
  4  5  1  0  0  0  0
  5  6  2  0  0  0  0
  5 21  1  0  0  0  0
  6  7  1  0  0  0  0
  7  8  2  0  0  0  0
  9 10  1  0  0  0  0
  9 22  1  0  0  0  0
 10 11  1  0  0  0  0
 10 23  1  0  0  0  0
 10 24  1  0  0  0  0
 11 12  1  0  0  0  0
 11 25  1  0  0  0  0
 11 26  1  0  0  0  0
 12 17  1  0  0  0  0
 12 13  1  0  0  0  0
 12 27  1  0  0  0  0
 13 14  1  0  0  0  0
 13 28  1  0  0  0  0
 13 29  1  0  0  0  0
 14 18  1  0  0  0  0
 14 15  1  0  0  0  0
 14 30  1  0  0  0  0
 15 16  1  0  0  0  0
 15 31  1  0  0  0  0
 15 32  1  0  0  0  0
 16 17  1  0  0  0  0
 16 33  1  0  0  0  0
 16 34  1  0  0  0  0
 17 18  1  0  0  0  0
 17 35  1  0  0  0  0
 18 36  1  0  0  0  0
 18 37  1  0  0  0  0
M  END
> <s_m_source_file>
AV-unprocessed.smi

> <i_m_source_file_index>
926

> <i_lp_mmshare_version>
43012

> <i_f3d_flags>
0

> <s_epik_input>
bjFubltjSF1uMVtDSDJdQyg9TylbTkhdW0NIMl1bQ0gyXVtDQEhdKFtDSDJdW0NASF0yMylbQ0BIXShbQ0gyXTMpW0NIMl1bQ0gyXTI=

> <s_epik_cmdline>
J2VwaWtfcHl0aG9uJywgJy1waCcsICc3LjAnLCAnLXRuJywgJzgnLCAnLW1hJywgJzIwMCcsICctbWV0YWxfYmluZGluZycsICctaW1hZScsICc8aW5maWxlLm1hZT4nLCAnLW9tYWUnLCAnPG91dGZpbGUubWFlPic=

> <r_lp_tautomer_probability>
1

> <r_epik_Ionization_Penalty>
4.22645e-07

> <r_epik_Ionization_Penalty_Charging>
0

> <r_epik_Ionization_Penalty_Neutral>
4.22645e-07

> <r_epik_State_Penalty>
-0

> <r_epik_Charging_Adjusted_Penalty>
0

> <i_epik_Tot_Q>
0

> <i_epik_Tot_abs_Q>
0

> <r_epik_Metal_State_Penalty>
-0

> <b_epik_Metal_Only>
0

> <s_lp_Force_Field>
OPLS_2005

> <r_lp_Energy>
50.9279

> <b_lp_Chiralities_Consistent>
1

> <s_lp_Variant>
AV-unprocessed.smi:926-3

> <Gold.Version>
5.8.1

> <Gold.Id.Protein>
6NUR|6NUR_protein|mol2

> <Gold.PLP.Fitness>
44.5247

> <Gold.PLP.PLP>
-38.7094

> <Gold.PLP.part.hbond>
-3.0000

> <Gold.PLP.part.metal>
0.0000

> <Gold.PLP.part.buried>
-4.3909

> <Gold.PLP.part.nonpolar>
-34.2642

> <Gold.PLP.part.repulsive>
2.3192

> <Gold.PLP.ligand.clash>
0.0000

> <Gold.PLP.ligand.torsion>
0.4822

> <Gold.PLP.Chemscore.Hbond>
1.2449

> <Gold.PLP.Chemscore.CHOScore>
1.0000

> <Gold.PLP.Chemscore.Metal>
0.0000

> <Gold.Chemscore.Hbonds>
donor molecule, donor type, donor heavy atom, donor atom, acceptor molecule, acceptor atom, score
      P1  H  7989  7998       L1     1  0.39
      P1  H  8011  8017       L1     1  0.58
      L1  C     5    21       P1  7957  1.00

> <Gold.PLP.Chemscore.Internal.Correction>
0.0449

> <Gold.Rescore>
     Score         DG    S(hbond)    S(metal)    S(lipo)     H(rot)  DE(clash)    DE(int)     intcor
     12.77     -13.76       1.02        0.00      97.28       2.54       0.49       0.50       ----

> <Gold.Chemscore.Fitness>
12.7715

> <Gold.Chemscore.DG>
-13.7650

> <Gold.Chemscore.ZeroCoef>
-5.4800

> <Gold.Chemscore.Hbond>
1.0225

> <Gold.Chemscore.Metal>
0.0000

> <Gold.Chemscore.Lipo>
97.2795

> <Gold.Chemscore.Internal_Hbond>
0.0000

> <Gold.Chemscore.DEClash>
0.4934

> <Gold.Chemscore.DEInternal>
0.5001

> <Gold.Chemscore.Rot>
2.5436

> <Gold.Chemscore.Internal.Correction>
   9.000000E+99

> <Gold.Chemscore.Hbonds>
donor molecule, donor type, donor heavy atom, donor atom, acceptor molecule, acceptor atom, score
      P1  H  7989  7998       L1     1  0.38
      P1  H  8011  8017       L1     1  0.28

> <Gold.Chemscore.Hbond.Weighted>
-3.4150

> <Gold.Chemscore.Metal.Weighted>
-0.0000

> <Gold.Chemscore.Lipo.Weighted>
-11.3817

> <Gold.Chemscore.Internal_Hbond.Weighted>
0.0000

> <Gold.Chemscore.DEClash.Weighted>
0.4934

> <Gold.Chemscore.DEInternal.Weighted>
0.5001

> <Gold.Chemscore.Rot.Weighted>
6.5117

> <Gold.Chemscore.Internal.Correction.Weighted>
   9.000000E+99

> <Gold.Protein.RotatedTorsions>
[ 6907 6896 6895 6894 ] final  149.35 input  -60.11 | X-H torsion
[ 7974 7965 7964 7962 ] final   82.20 input  175.53 | X-H torsion
[ 8008 7997 7996 7995 ] final   32.80 input   59.86 | X-H torsion
[ 10167 10162 10161 10158 ] final -166.17 input  -65.29 | X-H torsion
[ 10718 10713 10712 10709 ] final   83.21 input   66.30 | X-H torsion
[ 10763 10752 10751 10750 ] final -115.23 input  -60.55 | X-H torsion
[ 11005 11000 10999 10996 ] final  -87.48 input  -57.11 | X-H torsion

> <Gold.Protein.ActiveResidues>
 VAL166  LYS551  ARG553  GLY616  TRP617  ASP618  TYR619  PRO620  LYS621  CYS622 
 ASP623  PHE694  ASN695  SER759  ASP760  ASP761  ALA762  ILE779  LEU786  VAL792 
 PHE793  MET794  SER795  GLU796  ALA797  LYS798  CYS799  TRP800  GLU811  SER814 

> <Gold.Protein.RotatedAtoms>
  152.1292  133.4398  159.4712 H   0  0  0  0  0  0  0  0  0  0  0  0  # atno 6907 bound_to 6896
  150.6877  134.2441  159.4493 H   0  0  0  0  0  0  0  0  0  0  0  0  # atno 6908 bound_to 6896
  152.0324  134.9759  160.0623 H   0  0  0  0  0  0  0  0  0  0  0  0  # atno 6909 bound_to 6896
  145.6282  139.2399  143.2099 H   0  0  0  0  0  0  0  0  0  0  0  0  # atno 7974 bound_to 7965
  155.1283  140.3255  155.4480 H   0  0  0  0  0  0  0  0  0  0  0  0  # atno 8008 bound_to 7997
  156.2642  140.2015  156.6352 H   0  0  0  0  0  0  0  0  0  0  0  0  # atno 8009 bound_to 7997
  154.6632  140.0545  157.0071 H   0  0  0  0  0  0  0  0  0  0  0  0  # atno 8010 bound_to 7997
  139.6133  144.0771  152.1863 H   0  0  0  0  0  0  0  0  0  0  0  0  # atno 10167 bound_to 10162
  157.6874  131.0081  150.2489 H   0  0  0  0  0  0  0  0  0  0  0  0  # atno 10718 bound_to 10713
  154.8473  135.4389  154.1631 H   0  0  0  0  0  0  0  0  0  0  0  0  # atno 10763 bound_to 10752
  153.2763  135.6949  153.7436 H   0  0  0  0  0  0  0  0  0  0  0  0  # atno 10764 bound_to 10752
  153.6658  135.3427  155.3115 H   0  0  0  0  0  0  0  0  0  0  0  0  # atno 10765 bound_to 10752
  141.1616  133.7514  156.9312 H   0  0  0  0  0  0  0  0  0  0  0  0  # atno 11005 bound_to 11000
  146.1377  140.7100  142.9382 LP  0  0  0  0  0  0  0  0  0  0  0  0  # atno 17320 bound_to 7965
  144.7204  140.4353  143.7012 LP  0  0  0  0  0  0  0  0  0  0  0  0  # atno 17321 bound_to 7965
  140.0395  144.6019  150.7423 LP  0  0  0  0  0  0  0  0  0  0  0  0  # atno 17342 bound_to 10162
  140.7334  143.2716  151.3870 LP  0  0  0  0  0  0  0  0  0  0  0  0  # atno 17343 bound_to 10162
  156.3089  130.3769  149.7680 LP  0  0  0  0  0  0  0  0  0  0  0  0  # atno 17370 bound_to 10713
  156.5286  130.8247  151.3229 LP  0  0  0  0  0  0  0  0  0  0  0  0  # atno 17371 bound_to 10713
  140.1385  134.9309  157.2434 LP  0  0  0  0  0  0  0  0  0  0  0  0  # atno 17394 bound_to 11000
  140.2866  134.3289  155.7327 LP  0  0  0  0  0  0  0  0  0  0  0  0  # atno 17395 bound_to 11000

$$$$
