AV-unprocessed.smi:209|AV-procd|sdf|1609|dock7
  -GOLD-   2262019533D 1   1.00000     0.00000
 Structure written by MMmdl.
 48 52  0  0  0  0  0  0  0  0  1 V2000
  151.4996  139.5809  154.7511 O   0  0  0  0  0  0  0  0  0  0  0  0
  150.4550  138.9462  154.8797 C   0  0  0  0  0  0  0  0  0  0  0  0
  150.3333  137.6181  154.9934 N   0  0  0  0  0  0  0  0  0  0  0  0
  148.9398  137.1860  155.0383 C   0  0  0  0  0  0  0  0  0  0  0  0
  148.2131  138.4147  154.4704 C   0  0  2  0  0  0  0  0  0  0  0  0
  149.0731  139.5681  154.9642 C   0  0  2  0  0  0  0  0  0  0  0  0
  148.7251  140.8323  154.1761 C   0  0  0  0  0  0  0  0  0  0  0  0
  147.2257  141.1140  154.4366 C   0  0  0  0  0  0  0  0  0  0  0  0
  146.3229  139.8762  154.1783 C   0  0  0  0  0  0  0  0  0  0  0  0
  146.8239  138.6619  154.8394 N   0  0  0  0  0  0  0  0  0  0  0  0
  146.0142  137.5927  154.6779 C   0  0  0  0  0  0  0  0  0  0  0  0
  145.4638  136.9800  155.7591 N   0  0  0  0  0  0  0  0  0  0  0  0
  144.6549  135.9301  155.5880 C   0  0  0  0  0  0  0  0  0  0  0  0
  144.2688  135.3504  154.4490 N   0  0  0  0  0  0  0  0  0  0  0  0
  144.8145  135.9715  153.3635 C   0  0  0  0  0  0  0  0  0  0  0  0
  145.6968  137.0867  153.3914 C   0  0  0  0  0  0  0  0  0  0  0  0
  146.0618  137.4420  152.1002 N   0  0  0  0  0  0  0  0  0  0  0  0
  145.4349  136.5786  151.3486 C   0  0  0  0  0  0  0  0  0  0  0  0
  144.6448  135.6723  152.0220 N   0  0  0  0  0  0  0  0  0  0  0  0
  143.8412  134.6083  151.4368 C   0  0  0  0  0  0  0  0  0  0  0  0
  144.6563  133.4209  150.8821 C   0  0  0  0  0  0  0  0  0  0  0  0
  146.1489  133.6686  151.1792 C   0  0  0  0  0  0  0  0  0  0  0  0
  146.9789  132.6197  150.7212 O   0  0  0  0  0  0  0  0  0  0  0  0
  144.0901  132.0447  151.2642 C   0  0  0  0  0  0  0  0  0  0  0  0
  143.6834  131.7584  149.9081 O   0  0  0  0  0  0  0  0  0  0  0  0
  144.3150  132.9749  149.4523 C   0  0  0  0  0  0  0  0  0  0  0  0
  148.2727  138.3677  153.3803 H   0  0  0  0  0  0  0  0  0  0  0  0
  148.8861  139.7474  156.0253 H   0  0  0  0  0  0  0  0  0  0  0  0
  151.1082  136.9708  154.9722 H   0  0  0  0  0  0  0  0  0  0  0  0
  148.7692  136.2887  154.4426 H   0  0  0  0  0  0  0  0  0  0  0  0
  148.6537  136.9857  156.0720 H   0  0  0  0  0  0  0  0  0  0  0  0
  149.3356  141.6751  154.5013 H   0  0  0  0  0  0  0  0  0  0  0  0
  148.9102  140.6889  153.1107 H   0  0  0  0  0  0  0  0  0  0  0  0
  147.1008  141.4263  155.4743 H   0  0  0  0  0  0  0  0  0  0  0  0
  146.8909  141.9524  153.8256 H   0  0  0  0  0  0  0  0  0  0  0  0
  145.3081  140.0839  154.5205 H   0  0  0  0  0  0  0  0  0  0  0  0
  146.2608  139.7022  153.1029 H   0  0  0  0  0  0  0  0  0  0  0  0
  144.2588  135.4929  156.4927 H   0  0  0  0  0  0  0  0  0  0  0  0
  145.5264  136.5853  150.2722 H   0  0  0  0  0  0  0  0  0  0  0  0
  143.1326  134.2668  152.1922 H   0  0  0  0  0  0  0  0  0  0  0  0
  143.2322  135.0509  150.6474 H   0  0  0  0  0  0  0  0  0  0  0  0
  146.4976  134.5801  150.6955 H   0  0  0  0  0  0  0  0  0  0  0  0
  146.3188  133.7896  152.2495 H   0  0  0  0  0  0  0  0  0  0  0  0
  147.8804  132.8608  150.8711 H   0  0  0  0  0  0  0  0  0  0  0  0
  144.8279  131.3289  151.6274 H   0  0  0  0  0  0  0  0  0  0  0  0
  143.2398  132.0896  151.9459 H   0  0  0  0  0  0  0  0  0  0  0  0
  143.6157  133.6249  148.9294 H   0  0  0  0  0  0  0  0  0  0  0  0
  145.1842  132.7703  148.8260 H   0  0  0  0  0  0  0  0  0  0  0  0
  1  2  2  0  0  0  0
  2  6  1  0  0  0  0
  2  3  1  0  0  0  0
  3  4  1  0  0  0  0
  3 29  1  0  0  0  0
  4  5  1  0  0  0  0
  4 30  1  0  0  0  0
  4 31  1  0  0  0  0
  5 27  1  0  0  0  0
  5 10  1  0  0  0  0
  5  6  1  0  0  0  0
  6 28  1  0  0  0  0
  6  7  1  0  0  0  0
  7  8  1  0  0  0  0
  7 32  1  0  0  0  0
  7 33  1  0  0  0  0
  8  9  1  0  0  0  0
  8 34  1  0  0  0  0
  8 35  1  0  0  0  0
  9 10  1  0  0  0  0
  9 36  1  0  0  0  0
  9 37  1  0  0  0  0
 10 11  1  0  0  0  0
 11 16  1  0  0  0  0
 11 12  2  0  0  0  0
 12 13  1  0  0  0  0
 13 14  2  0  0  0  0
 13 38  1  0  0  0  0
 14 15  1  0  0  0  0
 15 19  1  0  0  0  0
 15 16  2  0  0  0  0
 16 17  1  0  0  0  0
 17 18  2  0  0  0  0
 18 19  1  0  0  0  0
 18 39  1  0  0  0  0
 19 20  1  0  0  0  0
 20 21  1  0  0  0  0
 20 40  1  0  0  0  0
 20 41  1  0  0  0  0
 21 26  1  0  0  0  0
 21 22  1  0  0  0  0
 21 24  1  0  0  0  0
 22 23  1  0  0  0  0
 22 42  1  0  0  0  0
 22 43  1  0  0  0  0
 23 44  1  0  0  0  0
 24 25  1  0  0  0  0
 24 45  1  0  0  0  0
 24 46  1  0  0  0  0
 25 26  1  0  0  0  0
 26 47  1  0  0  0  0
 26 48  1  0  0  0  0
M  END
> <s_m_source_file>
AV-unprocessed.smi

> <i_m_source_file_index>
209

> <i_lp_mmshare_version>
43012

> <i_f3d_flags>
0

> <s_epik_input>
W0NIMl0xW05IXUMoPU8pW0NAQEhdKFtDQEBIXTEyKVtDSDJdW0NIMl1bQ0gyXU4yYyhuW2NIXW4zKWMoYzM0KW5bY0hdbjRbQ0gyXUM1KFtDSDJdW09IXSlbQ0gyXU9bQ0gyXTU=

> <s_epik_cmdline>
J2VwaWtfcHl0aG9uJywgJy1waCcsICc3LjAnLCAnLXRuJywgJzgnLCAnLW1hJywgJzIwMCcsICctbWV0YWxfYmluZGluZycsICctaW1hZScsICc8aW5maWxlLm1hZT4nLCAnLW9tYWUnLCAnPG91dGZpbGUubWFlPic=

> <r_lp_tautomer_probability>
1

> <r_epik_Ionization_Penalty>
0.00113306

> <r_epik_Ionization_Penalty_Charging>
0

> <r_epik_Ionization_Penalty_Neutral>
0.00113306

> <r_epik_State_Penalty>
0.000624042

> <r_epik_Charging_Adjusted_Penalty>
0.000624042

> <i_epik_Tot_Q>
0

> <i_epik_Tot_abs_Q>
0

> <r_epik_Metal_State_Penalty>
-0

> <b_epik_Metal_Only>
0

> <s_lp_Force_Field>
OPLS_2005

> <r_lp_Energy>
56.7924

> <b_lp_Chiralities_Consistent>
1

> <s_lp_Variant>
AV-unprocessed.smi:209-3

> <Gold.Version>
5.8.1

> <Gold.Id.Protein>
6NUR|6NUR_protein|mol2

> <Gold.PLP.Fitness>
36.3321

> <Gold.PLP.PLP>
-31.7315

> <Gold.PLP.part.hbond>
-3.0000

> <Gold.PLP.part.metal>
0.0000

> <Gold.PLP.part.buried>
-5.7101

> <Gold.PLP.part.nonpolar>
-25.0605

> <Gold.PLP.part.repulsive>
0.7051

> <Gold.PLP.ligand.clash>
0.0000

> <Gold.PLP.ligand.torsion>
1.3203

> <Gold.PLP.Chemscore.Hbond>
1.9066

> <Gold.PLP.Chemscore.CHOScore>
0.3861

> <Gold.PLP.Chemscore.Metal>
0.0000

> <Gold.Chemscore.Hbonds>
donor molecule, donor type, donor heavy atom, donor atom, acceptor molecule, acceptor atom, score
      L1  H    23    44       P1 10747  0.01
      P1  H  7989  7998       L1     1  1.00
      P1  H 10785 10796       L1    25  0.87
      L1  C    18    39       P1 10171  0.28

> <Gold.PLP.Chemscore.Internal.Correction>
0.3630

> <Gold.Rescore>
     Score         DG    S(hbond)    S(metal)    S(lipo)     H(rot)  DE(clash)    DE(int)     intcor
     11.39     -13.01       1.90        0.00      68.26       2.66       0.20       1.42       ----

> <Gold.Chemscore.Fitness>
11.3877

> <Gold.Chemscore.DG>
-13.0127

> <Gold.Chemscore.ZeroCoef>
-5.4800

> <Gold.Chemscore.Hbond>
1.9046

> <Gold.Chemscore.Metal>
0.0000

> <Gold.Chemscore.Lipo>
68.2574

> <Gold.Chemscore.Internal_Hbond>
0.0000

> <Gold.Chemscore.DEClash>
0.2043

> <Gold.Chemscore.DEInternal>
1.4207

> <Gold.Chemscore.Rot>
2.6620

> <Gold.Chemscore.Internal.Correction>
   9.000000E+99

> <Gold.Chemscore.Hbonds>
donor molecule, donor type, donor heavy atom, donor atom, acceptor molecule, acceptor atom, score
      L1  H    23    44       P1 10747  0.01
      P1  H  7989  7998       L1     1  0.98
      P1  H 10785 10796       L1    25  0.80

> <Gold.Chemscore.Hbond.Weighted>
-6.3614

> <Gold.Chemscore.Metal.Weighted>
-0.0000

> <Gold.Chemscore.Lipo.Weighted>
-7.9861

> <Gold.Chemscore.Internal_Hbond.Weighted>
0.0000

> <Gold.Chemscore.DEClash.Weighted>
0.2043

> <Gold.Chemscore.DEInternal.Weighted>
1.4207

> <Gold.Chemscore.Rot.Weighted>
6.8148

> <Gold.Chemscore.Internal.Correction.Weighted>
   9.000000E+99

> <Gold.Protein.RotatedTorsions>
[ 6907 6896 6895 6894 ] final  -41.55 input  -60.11 | X-H torsion
[ 7974 7965 7964 7962 ] final   97.08 input  175.53 | X-H torsion
[ 8008 7997 7996 7995 ] final   99.40 input   59.86 | X-H torsion
[ 10167 10162 10161 10158 ] final  -61.56 input  -65.29 | X-H torsion
[ 10718 10713 10712 10709 ] final  -39.20 input   66.30 | X-H torsion
[ 10763 10752 10751 10750 ] final  -55.95 input  -60.55 | X-H torsion
[ 11005 11000 10999 10996 ] final  139.77 input  -57.11 | X-H torsion

> <Gold.Protein.ActiveResidues>
 VAL166  LYS551  ARG553  GLY616  TRP617  ASP618  TYR619  PRO620  LYS621  CYS622 
 ASP623  PHE694  ASN695  SER759  ASP760  ASP761  ALA762  ILE779  LEU786  VAL792 
 PHE793  MET794  SER795  GLU796  ALA797  LYS798  CYS799  TRP800  GLU811  SER814 

> <Gold.Protein.RotatedAtoms>
  150.9654  134.9036  159.7755 H   0  0  0  0  0  0  0  0  0  0  0  0  # atno 6907 bound_to 6896
  152.5171  134.3614  159.9296 H   0  0  0  0  0  0  0  0  0  0  0  0  # atno 6908 bound_to 6896
  151.3625  133.3843  159.2726 H   0  0  0  0  0  0  0  0  0  0  0  0  # atno 6909 bound_to 6896
  145.4303  139.2311  143.3148 H   0  0  0  0  0  0  0  0  0  0  0  0  # atno 7974 bound_to 7965
  156.1101  140.3229  155.8061 H   0  0  0  0  0  0  0  0  0  0  0  0  # atno 8008 bound_to 7997
  155.4687  140.0545  157.2999 H   0  0  0  0  0  0  0  0  0  0  0  0  # atno 8009 bound_to 7997
  154.4754  140.2030  155.9905 H   0  0  0  0  0  0  0  0  0  0  0  0  # atno 8010 bound_to 7997
  140.5997  143.2359  151.5956 H   0  0  0  0  0  0  0  0  0  0  0  0  # atno 10167 bound_to 10162
  156.2951  130.4233  149.8199 H   0  0  0  0  0  0  0  0  0  0  0  0  # atno 10718 bound_to 10713
  154.1988  135.6414  153.5081 H   0  0  0  0  0  0  0  0  0  0  0  0  # atno 10763 bound_to 10752
  153.0017  135.5446  154.6337 H   0  0  0  0  0  0  0  0  0  0  0  0  # atno 10764 bound_to 10752
  154.5745  135.2919  155.0768 H   0  0  0  0  0  0  0  0  0  0  0  0  # atno 10765 bound_to 10752
  140.0279  134.9366  157.0604 H   0  0  0  0  0  0  0  0  0  0  0  0  # atno 11005 bound_to 11000
  146.2611  140.5038  142.8853 LP  0  0  0  0  0  0  0  0  0  0  0  0  # atno 17320 bound_to 7965
  144.8187  140.6513  143.6367 LP  0  0  0  0  0  0  0  0  0  0  0  0  # atno 17321 bound_to 7965
  139.5283  144.2993  152.1087 LP  0  0  0  0  0  0  0  0  0  0  0  0  # atno 17342 bound_to 10162
  140.2172  144.4503  150.6358 LP  0  0  0  0  0  0  0  0  0  0  0  0  # atno 17343 bound_to 10162
  156.5598  130.8378  151.3325 LP  0  0  0  0  0  0  0  0  0  0  0  0  # atno 17370 bound_to 10713
  157.7353  130.9760  150.2075 LP  0  0  0  0  0  0  0  0  0  0  0  0  # atno 17371 bound_to 10713
  140.4276  134.1815  155.7166 LP  0  0  0  0  0  0  0  0  0  0  0  0  # atno 17394 bound_to 11000
  141.1813  133.8407  157.1246 LP  0  0  0  0  0  0  0  0  0  0  0  0  # atno 17395 bound_to 11000

$$$$
