AV-unprocessed.smi:1981|AV-procd|sdf|8019|dock9
  -GOLD-   2272010213D 1   1.00000     0.00000
 Structure written by MMmdl.
 45 46  0  0  0  0  0  0  0  0  1 V2000
  147.6277  136.7263  162.9179 C   0  0  0  0  0  0  0  0  0  0  0  0
  147.8878  137.1787  161.6006 O   0  0  0  0  0  0  0  0  0  0  0  0
  148.5491  136.2030  160.8137 C   0  0  0  0  0  0  0  0  0  0  0  0
  148.2800  136.4931  159.3298 C   0  0  0  0  0  0  0  0  0  0  0  0
  149.4883  136.3118  158.5194 N   0  0  0  0  0  0  0  0  0  0  0  0
  150.2963  137.4344  158.4543 N   0  0  0  0  0  0  0  0  0  0  0  0
  151.3978  137.4047  157.7760 C   0  0  0  0  0  0  0  0  0  0  0  0
  152.2940  138.5903  157.6825 C   0  0  0  0  0  0  0  0  0  0  0  0
  153.3503  138.5596  157.0489 O   0  0  0  0  0  0  0  0  0  0  0  0
  151.8672  139.6856  158.3367 N   0  0  0  0  0  0  0  0  0  0  0  0
  152.5643  140.9662  158.3914 C   0  0  0  0  0  0  0  0  0  0  0  0
  152.9689  141.3077  159.8447 C   0  0  0  0  0  0  0  0  0  0  0  0
  153.5107  142.7441  159.9524 C   0  0  0  0  0  0  0  0  0  0  0  0
  152.5002  143.6697  159.4282 N   0  0  0  0  0  0  0  0  0  0  0  0
  151.7816  144.4967  160.2251 C   0  0  0  0  0  0  0  0  0  0  0  0
  150.6804  145.3613  159.6073 C   0  0  0  0  0  0  0  0  0  0  0  0
  151.9714  144.5821  161.4386 O   0  0  0  0  0  0  0  0  0  0  0  0
  152.2750  143.4647  157.9921 C   0  0  0  0  0  0  0  0  0  0  0  0
  151.6678  142.0662  157.7823 C   0  0  0  0  0  0  0  0  0  0  0  0
  151.8066  136.2000  157.0735 C   0  0  0  0  0  0  0  0  0  0  0  0
  151.0110  135.1108  157.1514 C   0  0  0  0  0  0  0  0  0  0  0  0
  149.7628  135.1161  157.9161 C   0  0  0  0  0  0  0  0  0  0  0  0
  149.0278  134.1338  158.0124 O   0  0  0  0  0  0  0  0  0  0  0  0
  147.1226  137.5101  163.4822 H   0  0  0  0  0  0  0  0  0  0  0  0
  148.5528  136.4789  163.4400 H   0  0  0  0  0  0  0  0  0  0  0  0
  146.9830  135.8465  162.9120 H   0  0  0  0  0  0  0  0  0  0  0  0
  149.6218  136.2302  161.0127 H   0  0  0  0  0  0  0  0  0  0  0  0
  148.1895  135.2072  161.0774 H   0  0  0  0  0  0  0  0  0  0  0  0
  147.4738  135.8551  158.9635 H   0  0  0  0  0  0  0  0  0  0  0  0
  147.9119  137.5151  159.2222 H   0  0  0  0  0  0  0  0  0  0  0  0
  150.9895  139.6239  158.8327 H   0  0  0  0  0  0  0  0  0  0  0  0
  153.4708  140.9046  157.7863 H   0  0  0  0  0  0  0  0  0  0  0  0
  152.1054  141.2022  160.5036 H   0  0  0  0  0  0  0  0  0  0  0  0
  153.7186  140.6024  160.2047 H   0  0  0  0  0  0  0  0  0  0  0  0
  153.7881  142.9605  160.9848 H   0  0  0  0  0  0  0  0  0  0  0  0
  154.4294  142.8427  159.3723 H   0  0  0  0  0  0  0  0  0  0  0  0
  149.9323  144.7403  159.1138 H   0  0  0  0  0  0  0  0  0  0  0  0
  151.0984  146.0596  158.8819 H   0  0  0  0  0  0  0  0  0  0  0  0
  150.1730  145.9443  160.3768 H   0  0  0  0  0  0  0  0  0  0  0  0
  151.6352  144.2197  157.5380 H   0  0  0  0  0  0  0  0  0  0  0  0
  153.2279  143.5388  157.4662 H   0  0  0  0  0  0  0  0  0  0  0  0
  151.5194  141.8805  156.7180 H   0  0  0  0  0  0  0  0  0  0  0  0
  150.6786  142.0355  158.2423 H   0  0  0  0  0  0  0  0  0  0  0  0
  152.7227  136.1676  156.5016 H   0  0  0  0  0  0  0  0  0  0  0  0
  151.3031  134.2081  156.6350 H   0  0  0  0  0  0  0  0  0  0  0  0
  1  2  1  0  0  0  0
  1 24  1  0  0  0  0
  1 25  1  0  0  0  0
  1 26  1  0  0  0  0
  2  3  1  0  0  0  0
  3  4  1  0  0  0  0
  3 27  1  0  0  0  0
  3 28  1  0  0  0  0
  4  5  1  0  0  0  0
  4 29  1  0  0  0  0
  4 30  1  0  0  0  0
  5 22  1  0  0  0  0
  5  6  1  0  0  0  0
  6  7  2  0  0  0  0
  7  8  1  0  0  0  0
  7 20  1  0  0  0  0
  8  9  2  0  0  0  0
  8 10  1  0  0  0  0
 10 11  1  0  0  0  0
 10 31  1  0  0  0  0
 11 19  1  0  0  0  0
 11 12  1  0  0  0  0
 11 32  1  0  0  0  0
 12 13  1  0  0  0  0
 12 33  1  0  0  0  0
 12 34  1  0  0  0  0
 13 14  1  0  0  0  0
 13 35  1  0  0  0  0
 13 36  1  0  0  0  0
 14 15  1  0  0  0  0
 14 18  1  0  0  0  0
 15 16  1  0  0  0  0
 15 17  2  0  0  0  0
 16 37  1  0  0  0  0
 16 38  1  0  0  0  0
 16 39  1  0  0  0  0
 18 19  1  0  0  0  0
 18 40  1  0  0  0  0
 18 41  1  0  0  0  0
 19 42  1  0  0  0  0
 19 43  1  0  0  0  0
 20 21  2  0  0  0  0
 20 44  1  0  0  0  0
 21 22  1  0  0  0  0
 21 45  1  0  0  0  0
 22 23  2  0  0  0  0
M  END
> <s_m_source_file>
AV-unprocessed.smi

> <i_m_source_file_index>
1981

> <i_lp_mmshare_version>
43012

> <i_f3d_flags>
0

> <s_epik_input>
W0NIM11PW0NIMl1bQ0gyXW4xbmMoW2NIXVtjSF1jMT1PKUMoPU8pW05IXVtDSF0yW0NIMl1bQ0gyXU4oQyg9TylbQ0gzXSlbQ0gyXVtDSDJdMg==

> <s_epik_cmdline>
J2VwaWtfcHl0aG9uJywgJy1waCcsICc3LjAnLCAnLXRuJywgJzgnLCAnLW1hJywgJzIwMCcsICctbWV0YWxfYmluZGluZycsICctaW1hZScsICc8aW5maWxlLm1hZT4nLCAnLW9tYWUnLCAnPG91dGZpbGUubWFlPic=

> <r_lp_tautomer_probability>
1

> <r_epik_Ionization_Penalty>
2.32097e-06

> <r_epik_Ionization_Penalty_Charging>
6.14723e-09

> <r_epik_Ionization_Penalty_Neutral>
2.31482e-06

> <r_epik_State_Penalty>
-0

> <r_epik_Charging_Adjusted_Penalty>
6.14723e-09

> <i_epik_Tot_Q>
0

> <i_epik_Tot_abs_Q>
0

> <r_epik_Metal_State_Penalty>
-0

> <b_epik_Metal_Only>
0

> <s_lp_Force_Field>
OPLS_2005

> <r_lp_Energy>
40.8399

> <b_lp_Chiralities_Consistent>
1

> <s_lp_Variant>
AV-unprocessed.smi:1981-1

> <Gold.Version>
5.8.1

> <Gold.Id.Protein>
6NUR|6NUR_protein|mol2

> <Gold.PLP.Fitness>
48.8591

> <Gold.PLP.PLP>
-42.1158

> <Gold.PLP.part.hbond>
-3.0000

> <Gold.PLP.part.metal>
0.0000

> <Gold.PLP.part.buried>
-6.7172

> <Gold.PLP.part.nonpolar>
-32.9107

> <Gold.PLP.part.repulsive>
0.5237

> <Gold.PLP.ligand.clash>
0.0000

> <Gold.PLP.ligand.torsion>
0.7932

> <Gold.PLP.Chemscore.Hbond>
2.7680

> <Gold.PLP.Chemscore.CHOScore>
0.0000

> <Gold.PLP.Chemscore.Metal>
0.0000

> <Gold.Chemscore.Hbonds>
donor molecule, donor type, donor heavy atom, donor atom, acceptor molecule, acceptor atom, score
      P1  H  6931  6943       L1     2  0.95
      P1  H  6934  6947       L1     2  0.60
      P1  H  7997  8008       L1     9  1.00

> <Gold.PLP.Chemscore.Internal.Correction>
0.0257

> <Gold.Rescore>
     Score         DG    S(hbond)    S(metal)    S(lipo)     H(rot)  DE(clash)    DE(int)     intcor
     18.76     -19.89       2.48        0.00      89.31       1.69       0.06       1.07       ----

> <Gold.Chemscore.Fitness>
18.7578

> <Gold.Chemscore.DG>
-19.8883

> <Gold.Chemscore.ZeroCoef>
-5.4800

> <Gold.Chemscore.Hbond>
2.4778

> <Gold.Chemscore.Metal>
0.0000

> <Gold.Chemscore.Lipo>
89.3076

> <Gold.Chemscore.Internal_Hbond>
0.0000

> <Gold.Chemscore.DEClash>
0.0628

> <Gold.Chemscore.DEInternal>
1.0677

> <Gold.Chemscore.Rot>
1.6861

> <Gold.Chemscore.Internal.Correction>
   9.000000E+99

> <Gold.Chemscore.Hbonds>
donor molecule, donor type, donor heavy atom, donor atom, acceptor molecule, acceptor atom, score
      P1  H  6931  6943       L1     2  0.09
      P1  H  6934  6947       L1     2  0.55
      P1  H  7997  8008       L1     9  0.97

> <Gold.Chemscore.Hbond.Weighted>
-8.2758

> <Gold.Chemscore.Metal.Weighted>
-0.0000

> <Gold.Chemscore.Lipo.Weighted>
-10.4490

> <Gold.Chemscore.Internal_Hbond.Weighted>
0.0000

> <Gold.Chemscore.DEClash.Weighted>
0.0628

> <Gold.Chemscore.DEInternal.Weighted>
1.0677

> <Gold.Chemscore.Rot.Weighted>
4.3164

> <Gold.Chemscore.Internal.Correction.Weighted>
   9.000000E+99

> <Gold.Protein.RotatedTorsions>
[ 6907 6896 6895 6894 ] final  -30.94 input  -60.11 | X-H torsion
[ 7974 7965 7964 7962 ] final   81.88 input  175.53 | X-H torsion
[ 8008 7997 7996 7995 ] final  -67.13 input   59.86 | X-H torsion
[ 10167 10162 10161 10158 ] final    0.06 input  -65.29 | X-H torsion
[ 10718 10713 10712 10709 ] final  151.27 input   66.30 | X-H torsion
[ 10763 10752 10751 10750 ] final -171.81 input  -60.55 | X-H torsion
[ 11005 11000 10999 10996 ] final  105.23 input  -57.11 | X-H torsion

> <Gold.Protein.ActiveResidues>
 VAL166  LYS551  ARG553  GLY616  TRP617  ASP618  TYR619  PRO620  LYS621  CYS622 
 ASP623  PHE694  ASN695  SER759  ASP760  ASP761  ALA762  ILE779  LEU786  VAL792 
 PHE793  MET794  SER795  GLU796  ALA797  LYS798  CYS799  TRP800  GLU811  SER814 

> <Gold.Protein.RotatedAtoms>
  151.0987  134.9960  159.8438 H   0  0  0  0  0  0  0  0  0  0  0  0  # atno 6907 bound_to 6896
  152.5435  134.1976  159.8709 H   0  0  0  0  0  0  0  0  0  0  0  0  # atno 6908 bound_to 6896
  151.2017  133.4562  159.2629 H   0  0  0  0  0  0  0  0  0  0  0  0  # atno 6909 bound_to 6896
  145.6324  139.2407  143.2077 H   0  0  0  0  0  0  0  0  0  0  0  0  # atno 7974 bound_to 7965
  154.4780  140.0899  156.7308 H   0  0  0  0  0  0  0  0  0  0  0  0  # atno 8008 bound_to 7997
  155.4546  140.3458  155.4287 H   0  0  0  0  0  0  0  0  0  0  0  0  # atno 8009 bound_to 7997
  156.1146  140.1457  156.9279 H   0  0  0  0  0  0  0  0  0  0  0  0  # atno 8010 bound_to 7997
  140.6745  143.6954  150.7994 H   0  0  0  0  0  0  0  0  0  0  0  0  # atno 10167 bound_to 10162
  157.2729  131.0820  151.1587 H   0  0  0  0  0  0  0  0  0  0  0  0  # atno 10718 bound_to 10713
  154.6263  135.2881  155.0268 H   0  0  0  0  0  0  0  0  0  0  0  0  # atno 10763 bound_to 10752
  154.1444  135.6513  153.4953 H   0  0  0  0  0  0  0  0  0  0  0  0  # atno 10764 bound_to 10752
  153.0259  135.5341  154.7073 H   0  0  0  0  0  0  0  0  0  0  0  0  # atno 10765 bound_to 10752
  139.8800  134.9328  156.5482 H   0  0  0  0  0  0  0  0  0  0  0  0  # atno 11005 bound_to 11000
  146.1346  140.7140  142.9396 LP  0  0  0  0  0  0  0  0  0  0  0  0  # atno 17320 bound_to 7965
  144.7188  140.4304  143.7023 LP  0  0  0  0  0  0  0  0  0  0  0  0  # atno 17321 bound_to 7965
  140.0645  143.5122  152.2611 LP  0  0  0  0  0  0  0  0  0  0  0  0  # atno 17342 bound_to 10162
  139.6030  144.7588  151.3126 LP  0  0  0  0  0  0  0  0  0  0  0  0  # atno 17343 bound_to 10162
  157.3052  130.6862  149.6185 LP  0  0  0  0  0  0  0  0  0  0  0  0  # atno 17370 bound_to 10713
  155.9663  130.4380  150.5199 LP  0  0  0  0  0  0  0  0  0  0  0  0  # atno 17371 bound_to 10713
  140.8260  133.8316  155.8939 LP  0  0  0  0  0  0  0  0  0  0  0  0  # atno 17394 bound_to 11000
  140.9374  134.1945  157.4822 LP  0  0  0  0  0  0  0  0  0  0  0  0  # atno 17395 bound_to 11000

$$$$
