AV-unprocessed.smi:34|AV-procd|sdf|220|dock7
  -GOLD-   2262015533D 1   1.00000     0.00000
 Structure written by MMmdl.
 55 59  0  0  0  0  0  0  0  0  1 V2000
  153.8212  140.7649  158.8282 O   0  0  0  0  0  0  0  0  0  0  0  0
  152.8705  141.4493  158.4485 C   0  0  0  0  0  0  0  0  0  0  0  0
  152.0245  141.0498  157.3377 N   0  0  0  0  0  0  0  0  0  0  0  0
  152.1550  139.9668  156.5359 C   0  0  0  0  0  0  0  0  0  0  0  0
  152.9815  139.9548  155.4573 N   0  0  0  0  0  0  0  0  0  0  0  0
  153.0803  138.8599  154.6986 C   0  0  0  0  0  0  0  0  0  0  0  0
  152.4518  137.6917  154.8388 N   0  0  0  0  0  0  0  0  0  0  0  0
  151.6142  137.6940  155.9150 C   0  0  0  0  0  0  0  0  0  0  0  0
  151.4112  138.7876  156.8030 C   0  0  0  0  0  0  0  0  0  0  0  0
  150.4903  138.4350  157.7805 N   0  0  0  0  0  0  0  0  0  0  0  0
  150.1731  137.2032  157.4858 C   0  0  0  0  0  0  0  0  0  0  0  0
  150.8063  136.6750  156.3828 N   0  0  0  0  0  0  0  0  0  0  0  0
  150.6470  135.2902  155.8315 C   0  0  1  0  0  0  0  0  0  0  0  0
  149.4831  134.7046  156.3311 O   0  0  0  0  0  0  0  0  0  0  0  0
  148.7679  134.0200  155.2994 C   0  0  1  0  0  0  0  0  0  0  0  0
  147.4383  134.7461  155.0485 C   0  0  0  0  0  0  0  0  0  0  0  0
  146.7066  134.0496  154.0527 O   0  0  0  0  0  0  0  0  0  0  0  0
  146.0955  134.7277  153.0614 C   0  0  0  0  0  0  0  0  0  0  0  0
  145.9789  135.9548  153.0433 O   0  0  0  0  0  0  0  0  0  0  0  0
  145.5672  133.8364  151.9890 C   0  0  0  0  0  0  0  0  0  0  0  0
  144.9014  134.4071  150.8792 C   0  0  0  0  0  0  0  0  0  0  0  0
  144.3911  133.5908  149.8511 C   0  0  0  0  0  0  0  0  0  0  0  0
  144.5410  132.1934  149.9203 C   0  0  0  0  0  0  0  0  0  0  0  0
  145.2010  131.6134  151.0193 C   0  0  0  0  0  0  0  0  0  0  0  0
  145.7108  132.4281  152.0490 C   0  0  0  0  0  0  0  0  0  0  0  0
  149.6864  134.0466  154.0724 C   0  0  2  0  0  0  0  0  0  0  0  0
  150.4488  132.9516  154.0651 F   0  0  0  0  0  0  0  0  0  0  0  0
  150.5629  135.2632  154.3004 C   0  0  1  0  0  0  0  0  0  0  0  0
  149.9980  136.4290  153.7275 O   0  0  0  0  0  0  0  0  0  0  0  0
  152.4647  142.7021  159.1683 C   0  0  0  0  0  0  0  0  0  0  0  0
  152.6697  142.8138  160.5620 C   0  0  0  0  0  0  0  0  0  0  0  0
  152.3039  143.9902  161.2447 C   0  0  0  0  0  0  0  0  0  0  0  0
  151.7384  145.0683  160.5382 C   0  0  0  0  0  0  0  0  0  0  0  0
  151.5425  144.9706  159.1477 C   0  0  0  0  0  0  0  0  0  0  0  0
  151.9068  143.7942  158.4639 C   0  0  0  0  0  0  0  0  0  0  0  0
  151.2388  141.6528  157.1420 H   0  0  0  0  0  0  0  0  0  0  0  0
  153.7597  138.9285  153.8617 H   0  0  0  0  0  0  0  0  0  0  0  0
  149.4669  136.6366  158.0752 H   0  0  0  0  0  0  0  0  0  0  0  0
  151.5077  134.7380  156.2114 H   0  0  0  0  0  0  0  0  0  0  0  0
  148.5664  132.9918  155.6032 H   0  0  0  0  0  0  0  0  0  0  0  0
  146.8691  134.8255  155.9748 H   0  0  0  0  0  0  0  0  0  0  0  0
  147.6246  135.7611  154.6962 H   0  0  0  0  0  0  0  0  0  0  0  0
  144.7748  135.4776  150.8040 H   0  0  0  0  0  0  0  0  0  0  0  0
  143.8844  134.0380  149.0086 H   0  0  0  0  0  0  0  0  0  0  0  0
  144.1502  131.5674  149.1318 H   0  0  0  0  0  0  0  0  0  0  0  0
  145.3172  130.5409  151.0731 H   0  0  0  0  0  0  0  0  0  0  0  0
  146.2100  131.9505  152.8794 H   0  0  0  0  0  0  0  0  0  0  0  0
  149.1510  134.0623  153.1220 H   0  0  0  0  0  0  0  0  0  0  0  0
  151.5624  135.1349  153.8831 H   0  0  0  0  0  0  0  0  0  0  0  0
  149.5745  136.1890  152.9172 H   0  0  0  0  0  0  0  0  0  0  0  0
  153.1039  141.9956  161.1184 H   0  0  0  0  0  0  0  0  0  0  0  0
  152.4583  144.0650  162.3110 H   0  0  0  0  0  0  0  0  0  0  0  0
  151.4585  145.9704  161.0619 H   0  0  0  0  0  0  0  0  0  0  0  0
  151.1146  145.8000  158.6040 H   0  0  0  0  0  0  0  0  0  0  0  0
  151.7563  143.7435  157.3953 H   0  0  0  0  0  0  0  0  0  0  0  0
  1  2  2  0  0  0  0
  2  3  1  0  0  0  0
  2 30  1  0  0  0  0
  3  4  1  0  0  0  0
  3 36  1  0  0  0  0
  4  9  1  0  0  0  0
  4  5  2  0  0  0  0
  5  6  1  0  0  0  0
  6  7  2  0  0  0  0
  6 37  1  0  0  0  0
  7  8  1  0  0  0  0
  8 12  1  0  0  0  0
  8  9  2  0  0  0  0
  9 10  1  0  0  0  0
 10 11  2  0  0  0  0
 11 12  1  0  0  0  0
 11 38  1  0  0  0  0
 12 13  1  0  0  0  0
 13 28  1  0  0  0  0
 13 14  1  0  0  0  0
 13 39  1  0  0  0  0
 14 15  1  0  0  0  0
 15 16  1  0  0  0  0
 15 26  1  0  0  0  0
 15 40  1  0  0  0  0
 16 17  1  0  0  0  0
 16 41  1  0  0  0  0
 16 42  1  0  0  0  0
 17 18  1  0  0  0  0
 18 19  2  0  0  0  0
 18 20  1  0  0  0  0
 20 25  1  0  0  0  0
 20 21  2  0  0  0  0
 21 22  1  0  0  0  0
 21 43  1  0  0  0  0
 22 23  2  0  0  0  0
 22 44  1  0  0  0  0
 23 24  1  0  0  0  0
 23 45  1  0  0  0  0
 24 25  2  0  0  0  0
 24 46  1  0  0  0  0
 25 47  1  0  0  0  0
 26 27  1  0  0  0  0
 26 28  1  0  0  0  0
 26 48  1  0  0  0  0
 28 29  1  0  0  0  0
 28 49  1  0  0  0  0
 29 50  1  0  0  0  0
 30 35  1  0  0  0  0
 30 31  2  0  0  0  0
 31 32  1  0  0  0  0
 31 51  1  0  0  0  0
 32 33  2  0  0  0  0
 32 52  1  0  0  0  0
 33 34  1  0  0  0  0
 33 53  1  0  0  0  0
 34 35  2  0  0  0  0
 34 54  1  0  0  0  0
 35 55  1  0  0  0  0
M  END
> <s_m_source_file>
AV-unprocessed.smi

> <i_m_source_file_index>
34

> <i_lp_mmshare_version>
43012

> <i_f3d_flags>
0

> <s_epik_input>
W2NIXTFbY0hdW2NIXVtjSF1bY0hdYzFDKD1PKVtOSF1jKG5bY0hdbjIpYyhjMjMpbltjSF1uM1tDQEBIXTRPW0NASF0oW0NAQEhdKEYpW0NASF00W09IXSlbQ0gyXU9DKD1PKWM1W2NIXVtjSF1bY0hdW2NIXVtjSF01

> <s_epik_cmdline>
J2VwaWtfcHl0aG9uJywgJy1waCcsICc3LjAnLCAnLXRuJywgJzgnLCAnLW1hJywgJzIwMCcsICctbWV0YWxfYmluZGluZycsICctaW1hZScsICc8aW5maWxlLm1hZT4nLCAnLW9tYWUnLCAnPG91dGZpbGUubWFlPic=

> <r_lp_tautomer_probability>
1

> <r_epik_Ionization_Penalty>
0.00257489

> <r_epik_Ionization_Penalty_Charging>
0

> <r_epik_Ionization_Penalty_Neutral>
0.00257489

> <r_epik_State_Penalty>
0.00519398

> <r_epik_Charging_Adjusted_Penalty>
0.00519398

> <i_epik_Tot_Q>
0

> <i_epik_Tot_abs_Q>
0

> <r_epik_Metal_State_Penalty>
0.335891

> <b_epik_Metal_Only>
0

> <s_epik_Chemistry_Notes>
This compound has an ester and may undergo hydrolysis at high or low pH. This compound contains an acetal/aminal-like group ( X-CH(R)-Y where X, Y are N, S, or O) that may be acid/base labile, releasing an aldehyde.

> <s_lp_Force_Field>
OPLS_2005

> <r_lp_Energy>
51.6643

> <b_lp_Chiralities_Consistent>
1

> <s_lp_Variant>
AV-unprocessed.smi:34-6

> <Gold.Version>
5.8.1

> <Gold.Id.Protein>
6NUR|6NUR_protein|mol2

> <Gold.PLP.Fitness>
63.0450

> <Gold.PLP.PLP>
-58.8019

> <Gold.PLP.part.hbond>
-3.8706

> <Gold.PLP.part.metal>
0.0000

> <Gold.PLP.part.buried>
-6.7922

> <Gold.PLP.part.nonpolar>
-48.3925

> <Gold.PLP.part.repulsive>
0.3077

> <Gold.PLP.ligand.clash>
0.0142

> <Gold.PLP.ligand.torsion>
2.0789

> <Gold.PLP.Chemscore.Hbond>
2.7520

> <Gold.PLP.Chemscore.CHOScore>
0.0000

> <Gold.PLP.Chemscore.Metal>
0.0000

> <Gold.Chemscore.Hbonds>
donor molecule, donor type, donor heavy atom, donor atom, acceptor molecule, acceptor atom, score
      L1  H    29    50       P1  7948  0.10
      P1  H  7997  8010       L1     5  0.65
      P1  H 10752 10764       L1     7  0.36

> <Gold.PLP.Chemscore.Internal.Correction>
0.1592

> <Gold.Rescore>
     Score         DG    S(hbond)    S(metal)    S(lipo)     H(rot)  DE(clash)    DE(int)     intcor
     17.91     -20.20       1.95        0.00     129.64       2.72       0.66       1.63       ----

> <Gold.Chemscore.Fitness>
17.9071

> <Gold.Chemscore.DG>
-20.2007

> <Gold.Chemscore.ZeroCoef>
-5.4800

> <Gold.Chemscore.Hbond>
1.9519

> <Gold.Chemscore.Metal>
0.0000

> <Gold.Chemscore.Lipo>
129.6432

> <Gold.Chemscore.Internal_Hbond>
0.0000

> <Gold.Chemscore.DEClash>
0.6640

> <Gold.Chemscore.DEInternal>
1.6296

> <Gold.Chemscore.Rot>
2.7215

> <Gold.Chemscore.Internal.Correction>
   9.000000E+99

> <Gold.Chemscore.Hbonds>
donor molecule, donor type, donor heavy atom, donor atom, acceptor molecule, acceptor atom, score
      L1  H    29    50       P1  7948  0.01
      P1  H  7997  8010       L1     5  0.05
      P1  H 10752 10764       L1     7  0.14

> <Gold.Chemscore.Hbond.Weighted>
-6.5195

> <Gold.Chemscore.Metal.Weighted>
-0.0000

> <Gold.Chemscore.Lipo.Weighted>
-15.1682

> <Gold.Chemscore.Internal_Hbond.Weighted>
0.0000

> <Gold.Chemscore.DEClash.Weighted>
0.6640

> <Gold.Chemscore.DEInternal.Weighted>
1.6296

> <Gold.Chemscore.Rot.Weighted>
6.9670

> <Gold.Chemscore.Internal.Correction.Weighted>
   9.000000E+99

> <Gold.Protein.RotatedTorsions>
[ 6907 6896 6895 6894 ] final   40.12 input  -60.11 | X-H torsion
[ 7974 7965 7964 7962 ] final -113.00 input  175.53 | X-H torsion
[ 8008 7997 7996 7995 ] final   75.18 input   59.86 | X-H torsion
[ 10167 10162 10161 10158 ] final  121.90 input  -65.29 | X-H torsion
[ 10718 10713 10712 10709 ] final    1.54 input   66.30 | X-H torsion
[ 10763 10752 10751 10750 ] final  -54.09 input  -60.55 | X-H torsion
[ 11005 11000 10999 10996 ] final   45.93 input  -57.11 | X-H torsion

> <Gold.Protein.ActiveResidues>
 VAL166  LYS551  ARG553  GLY616  TRP617  ASP618  TYR619  PRO620  LYS621  CYS622 
 ASP623  PHE694  ASN695  SER759  ASP760  ASP761  ALA762  ILE779  LEU786  VAL792 
 PHE793  MET794  SER795  GLU796  ALA797  LYS798  CYS799  TRP800  GLU811  SER814 

> <Gold.Protein.RotatedAtoms>
  152.1783  134.8775  160.0528 H   0  0  0  0  0  0  0  0  0  0  0  0  # atno 6907 bound_to 6896
  151.9709  133.3720  159.4079 H   0  0  0  0  0  0  0  0  0  0  0  0  # atno 6908 bound_to 6896
  150.6913  134.4064  159.5186 H   0  0  0  0  0  0  0  0  0  0  0  0  # atno 6909 bound_to 6896
  145.1373  140.8758  143.3723 H   0  0  0  0  0  0  0  0  0  0  0  0  # atno 7974 bound_to 7965
  155.8092  140.3474  155.5448 H   0  0  0  0  0  0  0  0  0  0  0  0  # atno 8008 bound_to 7997
  155.8458  140.0948  157.1726 H   0  0  0  0  0  0  0  0  0  0  0  0  # atno 8009 bound_to 7997
  154.4006  140.1386  156.3771 H   0  0  0  0  0  0  0  0  0  0  0  0  # atno 8010 bound_to 7997
  139.5891  144.7018  151.3334 H   0  0  0  0  0  0  0  0  0  0  0  0  # atno 10167 bound_to 10162
  156.8497  130.5549  149.5670 H   0  0  0  0  0  0  0  0  0  0  0  0  # atno 10718 bound_to 10713
  154.1694  135.6461  153.5005 H   0  0  0  0  0  0  0  0  0  0  0  0  # atno 10763 bound_to 10752
  153.0088  135.5379  154.6629 H   0  0  0  0  0  0  0  0  0  0  0  0  # atno 10764 bound_to 10752
  154.5964  135.2939  155.0554 H   0  0  0  0  0  0  0  0  0  0  0  0  # atno 10765 bound_to 10752
  140.1415  134.4577  155.8446 H   0  0  0  0  0  0  0  0  0  0  0  0  # atno 11005 bound_to 11000
  145.0570  139.3135  143.5899 LP  0  0  0  0  0  0  0  0  0  0  0  0  # atno 17320 bound_to 7965
  146.3508  139.9999  142.8677 LP  0  0  0  0  0  0  0  0  0  0  0  0  # atno 17321 bound_to 7965
  140.7158  143.7271  150.7652 LP  0  0  0  0  0  0  0  0  0  0  0  0  # atno 17342 bound_to 10162
  140.0823  143.4957  152.2524 LP  0  0  0  0  0  0  0  0  0  0  0  0  # atno 17343 bound_to 10162
  156.0835  130.5839  150.9606 LP  0  0  0  0  0  0  0  0  0  0  0  0  # atno 17370 bound_to 10713
  157.6310  131.0921  150.8441 LP  0  0  0  0  0  0  0  0  0  0  0  0  # atno 17371 bound_to 10713
  141.2186  133.6835  156.7255 LP  0  0  0  0  0  0  0  0  0  0  0  0  # atno 17394 bound_to 11000
  140.2716  134.8387  157.3853 LP  0  0  0  0  0  0  0  0  0  0  0  0  # atno 17395 bound_to 11000

$$$$
