AV-unprocessed.smi:196|AV-procd|sdf|1528|dock3
  -GOLD-   2262019373D 1   1.00000     0.00000
 Structure written by MMmdl.
 47 50  0  0  0  0  0  0  0  0  1 V2000
  146.3696  142.9245  154.5002 C   0  0  0  0  0  0  0  0  0  0  0  0
  146.2498  141.4191  154.2160 C   0  0  2  0  0  0  0  0  0  0  0  0
  145.5097  140.8301  155.2815 O   0  0  0  0  0  0  0  0  0  0  0  0
  145.9173  139.4814  155.4240 C   0  0  0  0  0  0  0  0  0  0  0  0
  147.4242  139.5784  155.2447 C   0  0  0  0  0  0  0  0  0  0  0  0
  147.5755  140.6104  154.1289 C   0  0  1  0  0  0  0  0  0  0  0  0
  147.5753  139.9117  152.8952 O   0  0  0  0  0  0  0  0  0  0  0  0
  148.8897  141.4299  154.2220 C   0  0  0  0  0  0  0  0  0  0  0  0
  149.5919  141.2540  155.4839 N   0  0  0  0  0  0  0  0  0  0  0  0
  149.2856  141.8448  156.6883 C   0  0  0  0  0  0  0  0  0  0  0  0
  150.0650  141.5172  157.6819 N   0  0  0  0  0  0  0  0  0  0  0  0
  150.9894  140.6434  157.1199 C   0  0  0  0  0  0  0  0  0  0  0  0
  152.1033  139.9111  157.6251 C   0  0  0  0  0  0  0  0  0  0  0  0
  152.5053  139.9597  158.9237 N   0  0  0  0  0  0  0  0  0  0  0  0
  152.6531  141.2528  159.5814 C   0  0  0  0  0  0  0  0  0  0  0  0
  153.8186  141.0880  160.5566 C   0  0  2  0  0  0  0  0  0  0  0  0
  154.9572  141.4265  159.9492 F   0  0  0  0  0  0  0  0  0  0  0  0
  153.8237  139.5906  160.8481 C   0  0  0  0  0  0  0  0  0  0  0  0
  153.3943  138.9546  159.5156 C   0  0  1  0  0  0  0  0  0  0  0  0
  152.6965  137.6040  159.7421 C   0  0  0  0  0  0  0  0  0  0  0  0
  151.4253  137.5098  159.3457 N   0  0  0  0  0  0  0  0  0  0  0  0
  153.2946  136.6580  160.2524 O   0  0  0  0  0  0  0  0  0  0  0  0
  152.7775  139.1225  156.7461 N   0  0  0  0  0  0  0  0  0  0  0  0
  152.4027  139.0573  155.4657 C   0  0  0  0  0  0  0  0  0  0  0  0
  151.3937  139.6843  154.8595 N   0  0  0  0  0  0  0  0  0  0  0  0
  150.7042  140.4698  155.7352 C   0  0  0  0  0  0  0  0  0  0  0  0
  153.7251  141.7059  161.4501 H   0  0  0  0  0  0  0  0  0  0  0  0
  154.2717  138.8286  158.8783 H   0  0  0  0  0  0  0  0  0  0  0  0
  146.9173  143.4378  153.7100 H   0  0  0  0  0  0  0  0  0  0  0  0
  146.8747  143.1154  155.4471 H   0  0  0  0  0  0  0  0  0  0  0  0
  145.3821  143.3823  154.5605 H   0  0  0  0  0  0  0  0  0  0  0  0
  145.6652  141.2882  153.3033 H   0  0  0  0  0  0  0  0  0  0  0  0
  145.6320  139.0736  156.3938 H   0  0  0  0  0  0  0  0  0  0  0  0
  145.4646  138.8708  154.6412 H   0  0  0  0  0  0  0  0  0  0  0  0
  147.8602  139.9583  156.1695 H   0  0  0  0  0  0  0  0  0  0  0  0
  147.8939  138.6182  155.0265 H   0  0  0  0  0  0  0  0  0  0  0  0
  148.3720  140.1200  152.4315 H   0  0  0  0  0  0  0  0  0  0  0  0
  149.5690  141.1559  153.4140 H   0  0  0  0  0  0  0  0  0  0  0  0
  148.6848  142.4945  154.1059 H   0  0  0  0  0  0  0  0  0  0  0  0
  148.4559  142.5256  156.8104 H   0  0  0  0  0  0  0  0  0  0  0  0
  152.8356  142.0698  158.8815 H   0  0  0  0  0  0  0  0  0  0  0  0
  151.7315  141.4690  160.1232 H   0  0  0  0  0  0  0  0  0  0  0  0
  154.7955  139.2336  161.1907 H   0  0  0  0  0  0  0  0  0  0  0  0
  153.0971  139.3783  161.6348 H   0  0  0  0  0  0  0  0  0  0  0  0
  150.9228  136.6422  159.4640 H   0  0  0  0  0  0  0  0  0  0  0  0
  150.9737  138.3068  158.9210 H   0  0  0  0  0  0  0  0  0  0  0  0
  152.9968  138.4100  154.8378 H   0  0  0  0  0  0  0  0  0  0  0  0
  1  2  1  0  0  0  0
  1 29  1  0  0  0  0
  1 30  1  0  0  0  0
  1 31  1  0  0  0  0
  2  6  1  0  0  0  0
  2  3  1  0  0  0  0
  2 32  1  0  0  0  0
  3  4  1  0  0  0  0
  4  5  1  0  0  0  0
  4 33  1  0  0  0  0
  4 34  1  0  0  0  0
  5  6  1  0  0  0  0
  5 35  1  0  0  0  0
  5 36  1  0  0  0  0
  6  7  1  0  0  0  0
  6  8  1  0  0  0  0
  7 37  1  0  0  0  0
  8  9  1  0  0  0  0
  8 38  1  0  0  0  0
  8 39  1  0  0  0  0
  9 26  1  0  0  0  0
  9 10  1  0  0  0  0
 10 11  2  0  0  0  0
 10 40  1  0  0  0  0
 11 12  1  0  0  0  0
 12 26  2  0  0  0  0
 12 13  1  0  0  0  0
 13 14  1  0  0  0  0
 13 23  2  0  0  0  0
 14 19  1  0  0  0  0
 14 15  1  0  0  0  0
 15 16  1  0  0  0  0
 15 41  1  0  0  0  0
 15 42  1  0  0  0  0
 16 27  1  0  0  0  0
 16 17  1  0  0  0  0
 16 18  1  0  0  0  0
 18 19  1  0  0  0  0
 18 43  1  0  0  0  0
 18 44  1  0  0  0  0
 19 28  1  0  0  0  0
 19 20  1  0  0  0  0
 20 21  1  0  0  0  0
 20 22  2  0  0  0  0
 21 45  1  0  0  0  0
 21 46  1  0  0  0  0
 23 24  1  0  0  0  0
 24 25  2  0  0  0  0
 24 47  1  0  0  0  0
 25 26  1  0  0  0  0
M  END
> <s_m_source_file>
AV-unprocessed.smi

> <i_m_source_file_index>
196

> <i_lp_mmshare_version>
43012

> <i_f3d_flags>
0

> <s_epik_input>
W0NIMl0xW0NIMl1PW0NAQEhdKFtDSDNdKVtDQEBdMShbT0hdKVtDSDJdbihbY0hdbjIpYyhjMjMpbltjSF1uYzNONFtDSDJdW0NASF0oRilbQ0gyXVtDQEhdNEMoPU8pW05IMl0=

> <s_epik_cmdline>
J2VwaWtfcHl0aG9uJywgJy1waCcsICc3LjAnLCAnLXRuJywgJzgnLCAnLW1hJywgJzIwMCcsICctbWV0YWxfYmluZGluZycsICctaW1hZScsICc8aW5maWxlLm1hZT4nLCAnLW9tYWUnLCAnPG91dGZpbGUubWFlPic=

> <r_lp_tautomer_probability>
1

> <r_epik_Ionization_Penalty>
0.000857933

> <r_epik_Ionization_Penalty_Charging>
0

> <r_epik_Ionization_Penalty_Neutral>
0.000857933

> <r_epik_State_Penalty>
0.000462053

> <r_epik_Charging_Adjusted_Penalty>
0.000462053

> <i_epik_Tot_Q>
0

> <i_epik_Tot_abs_Q>
0

> <r_epik_Metal_State_Penalty>
-0

> <b_epik_Metal_Only>
0

> <s_lp_Force_Field>
OPLS_2005

> <r_lp_Energy>
42.3005

> <b_lp_Chiralities_Consistent>
1

> <s_lp_Variant>
AV-unprocessed.smi:196-1

> <Gold.Version>
5.8.1

> <Gold.Id.Protein>
6NUR|6NUR_protein|mol2

> <Gold.PLP.Fitness>
52.4720

> <Gold.PLP.PLP>
-41.7508

> <Gold.PLP.part.hbond>
-3.8885

> <Gold.PLP.part.metal>
0.0000

> <Gold.PLP.part.buried>
-3.1440

> <Gold.PLP.part.nonpolar>
-34.5141

> <Gold.PLP.part.repulsive>
0.3813

> <Gold.PLP.ligand.clash>
0.0000

> <Gold.PLP.ligand.torsion>
1.7564

> <Gold.PLP.Chemscore.Hbond>
4.0000

> <Gold.PLP.Chemscore.CHOScore>
0.6536

> <Gold.PLP.Chemscore.Metal>
0.0000

> <Gold.Chemscore.Hbonds>
donor molecule, donor type, donor heavy atom, donor atom, acceptor molecule, acceptor atom, score
      L1  H     7    37       P1  7957  1.00
      P1  H  6896  6909       L1    22  0.99
      P1  H  7989  7998       L1    25  1.00
      P1  H  7997  8010       L1    23  0.80
      L1  C    10    40       P1  8028  0.65

> <Gold.PLP.Chemscore.Internal.Correction>
0.2731

> <Gold.Rescore>
     Score         DG    S(hbond)    S(metal)    S(lipo)     H(rot)  DE(clash)    DE(int)     intcor
     13.88     -16.18       3.02        0.00      62.18       2.60       0.13       2.16       ----

> <Gold.Chemscore.Fitness>
13.8848

> <Gold.Chemscore.DG>
-16.1771

> <Gold.Chemscore.ZeroCoef>
-5.4800

> <Gold.Chemscore.Hbond>
3.0150

> <Gold.Chemscore.Metal>
0.0000

> <Gold.Chemscore.Lipo>
62.1767

> <Gold.Chemscore.Internal_Hbond>
0.0000

> <Gold.Chemscore.DEClash>
0.1331

> <Gold.Chemscore.DEInternal>
2.1593

> <Gold.Chemscore.Rot>
2.5968

> <Gold.Chemscore.Internal.Correction>
   9.000000E+99

> <Gold.Chemscore.Hbonds>
donor molecule, donor type, donor heavy atom, donor atom, acceptor molecule, acceptor atom, score
      L1  H     7    37       P1  7957  0.99
      P1  H  6896  6909       L1    22  0.60
      P1  H  7989  7998       L1    25  0.25
      P1  H  7997  8010       L1    23  0.05

> <Gold.Chemscore.Hbond.Weighted>
-10.0702

> <Gold.Chemscore.Metal.Weighted>
-0.0000

> <Gold.Chemscore.Lipo.Weighted>
-7.2747

> <Gold.Chemscore.Internal_Hbond.Weighted>
0.0000

> <Gold.Chemscore.DEClash.Weighted>
0.1331

> <Gold.Chemscore.DEInternal.Weighted>
2.1593

> <Gold.Chemscore.Rot.Weighted>
6.6477

> <Gold.Chemscore.Internal.Correction.Weighted>
   9.000000E+99

> <Gold.Protein.RotatedTorsions>
[ 6907 6896 6895 6894 ] final  152.31 input  -60.11 | X-H torsion
[ 7974 7965 7964 7962 ] final -169.06 input  175.53 | X-H torsion
[ 8008 7997 7996 7995 ] final   71.23 input   59.86 | X-H torsion
[ 10167 10162 10161 10158 ] final  121.44 input  -65.29 | X-H torsion
[ 10718 10713 10712 10709 ] final -171.45 input   66.30 | X-H torsion
[ 10763 10752 10751 10750 ] final   10.06 input  -60.55 | X-H torsion
[ 11005 11000 10999 10996 ] final   -0.44 input  -57.11 | X-H torsion

> <Gold.Protein.ActiveResidues>
 VAL166  LYS551  ARG553  GLY616  TRP617  ASP618  TYR619  PRO620  LYS621  CYS622 
 ASP623  PHE694  ASN695  SER759  ASP760  ASP761  ALA762  ILE779  LEU786  VAL792 
 PHE793  MET794  SER795  GLU796  ALA797  LYS798  CYS799  TRP800  GLU811  SER814 

> <Gold.Protein.RotatedAtoms>
  152.0885  133.4188  159.4532 H   0  0  0  0  0  0  0  0  0  0  0  0  # atno 6907 bound_to 6896
  150.6862  134.2899  159.4671 H   0  0  0  0  0  0  0  0  0  0  0  0  # atno 6908 bound_to 6896
  152.0748  134.9509  160.0625 H   0  0  0  0  0  0  0  0  0  0  0  0  # atno 6909 bound_to 6896
  144.7192  140.2277  143.6308 H   0  0  0  0  0  0  0  0  0  0  0  0  # atno 7974 bound_to 7965
  155.7508  140.3488  155.5149 H   0  0  0  0  0  0  0  0  0  0  0  0  # atno 8008 bound_to 7997
  155.9006  140.1033  157.1373 H   0  0  0  0  0  0  0  0  0  0  0  0  # atno 8009 bound_to 7997
  154.4043  140.1287  156.4418 H   0  0  0  0  0  0  0  0  0  0  0  0  # atno 8010 bound_to 7997
  139.5920  144.7028  151.3268 H   0  0  0  0  0  0  0  0  0  0  0  0  # atno 10167 bound_to 10162
  156.7411  130.9342  151.3110 H   0  0  0  0  0  0  0  0  0  0  0  0  # atno 10718 bound_to 10713
  153.2072  135.6864  153.8158 H   0  0  0  0  0  0  0  0  0  0  0  0  # atno 10763 bound_to 10752
  153.7403  135.3239  155.3304 H   0  0  0  0  0  0  0  0  0  0  0  0  # atno 10764 bound_to 10752
  154.8203  135.4657  154.0864 H   0  0  0  0  0  0  0  0  0  0  0  0  # atno 10765 bound_to 10752
  140.6363  133.9529  155.8302 H   0  0  0  0  0  0  0  0  0  0  0  0  # atno 11005 bound_to 11000
  145.8440  139.2143  143.1810 LP  0  0  0  0  0  0  0  0  0  0  0  0  # atno 17320 bound_to 7965
  146.0320  140.8248  142.9871 LP  0  0  0  0  0  0  0  0  0  0  0  0  # atno 17321 bound_to 7965
  140.7181  143.7212  150.7694 LP  0  0  0  0  0  0  0  0  0  0  0  0  # atno 17342 bound_to 10162
  140.0770  143.5006  152.2550 LP  0  0  0  0  0  0  0  0  0  0  0  0  # atno 17343 bound_to 10162
  157.6818  130.9147  150.0286 LP  0  0  0  0  0  0  0  0  0  0  0  0  # atno 17370 bound_to 10713
  156.1464  130.3642  149.9504 LP  0  0  0  0  0  0  0  0  0  0  0  0  # atno 17371 bound_to 10713
  141.0639  134.0306  157.3621 LP  0  0  0  0  0  0  0  0  0  0  0  0  # atno 17394 bound_to 11000
  139.9097  135.0187  156.7638 LP  0  0  0  0  0  0  0  0  0  0  0  0  # atno 17395 bound_to 11000

$$$$
