AV-unprocessed.smi:1464|AV-procd|sdf|5940|dock9
  -GOLD-   22720 6 23D 1   1.00000     0.00000
 Structure written by MMmdl.
 40 41  0  0  0  0  0  0  0  0  2 V2000
  151.7156  145.8458  160.0576 C   0  0  0  0  0  0  0  0  0  0  0  0
  151.6349  144.3328  159.7825 C   0  0  1  0  0  0  0  0  0  0  0  0
  151.6926  144.0827  158.2621 C   0  0  0  0  0  0  0  0  0  0  0  0
  151.5816  142.5920  157.9245 C   0  0  0  0  0  0  0  0  0  0  0  0
  152.6864  141.7970  158.6258 C   0  0  0  0  0  0  0  0  0  0  0  0
  152.6493  142.0105  160.1513 C   0  0  1  0  0  0  0  0  0  0  0  0
  153.7461  141.2662  160.7678 N   0  0  0  0  0  0  0  0  0  0  0  0
  154.0589  139.9851  160.5185 C   0  0  0  0  0  0  0  0  0  0  0  0
  153.4500  139.2906  159.7027 O   0  0  0  0  0  0  0  0  0  0  0  0
  155.2545  139.4287  161.3079 C   0  0  0  0  0  0  0  0  0  0  0  0
  154.8763  138.5611  162.4329 N   0  0  0  0  0  0  0  0  0  0  0  0
  155.5355  138.9088  163.6889 N   0  5  0  0  0  0  0  0  0  0  0  0
  155.2468  138.1941  164.8087 C   0  0  0  0  0  0  0  0  0  0  0  0
  155.7483  138.4389  165.9034 O   0  0  0  0  0  0  0  0  0  0  0  0
  154.3057  137.0923  164.6934 C   0  0  0  0  0  0  0  0  0  0  0  0
  153.7293  136.7798  163.5161 C   0  0  0  0  0  0  0  0  0  0  0  0
  154.0040  137.5224  162.2920 C   0  0  0  0  0  0  0  0  0  0  0  0
  153.4855  137.2377  161.2123 O   0  0  0  0  0  0  0  0  0  0  0  0
  152.7291  143.5155  160.5276 C   0  0  2  0  0  0  0  0  0  0  0  0
  152.6526  143.7075  162.0585 C   0  0  0  0  0  0  0  0  0  0  0  0
  152.7012  146.2421  159.8117 H   0  0  0  0  0  0  0  0  0  0  0  0
  151.5070  146.0823  161.1006 H   0  0  0  0  0  0  0  0  0  0  0  0
  150.9828  146.3908  159.4619 H   0  0  0  0  0  0  0  0  0  0  0  0
  150.6609  143.9892  160.1341 H   0  0  0  0  0  0  0  0  0  0  0  0
  150.8876  144.6242  157.7638 H   0  0  0  0  0  0  0  0  0  0  0  0
  152.6255  144.4785  157.8579 H   0  0  0  0  0  0  0  0  0  0  0  0
  150.6048  142.2148  158.2297 H   0  0  0  0  0  0  0  0  0  0  0  0
  151.6479  142.4480  156.8457 H   0  0  0  0  0  0  0  0  0  0  0  0
  152.5757  140.7375  158.3911 H   0  0  0  0  0  0  0  0  0  0  0  0
  153.6576  142.1002  158.2318 H   0  0  0  0  0  0  0  0  0  0  0  0
  151.7003  141.6242  160.5292 H   0  0  0  0  0  0  0  0  0  0  0  0
  154.3020  141.7597  161.4509 H   0  0  0  0  0  0  0  0  0  0  0  0
  155.9042  138.8892  160.6171 H   0  0  0  0  0  0  0  0  0  0  0  0
  155.8533  140.2657  161.6728 H   0  0  0  0  0  0  0  0  0  0  0  0
  154.0651  136.5102  165.5708 H   0  0  0  0  0  0  0  0  0  0  0  0
  153.0370  135.9521  163.4767 H   0  0  0  0  0  0  0  0  0  0  0  0
  153.7012  143.8878  160.1999 H   0  0  0  0  0  0  0  0  0  0  0  0
  151.6821  143.3967  162.4465 H   0  0  0  0  0  0  0  0  0  0  0  0
  152.8117  144.7457  162.3468 H   0  0  0  0  0  0  0  0  0  0  0  0
  153.4150  143.1291  162.5802 H   0  0  0  0  0  0  0  0  0  0  0  0
  1  2  1  0  0  0  0
  1 21  1  0  0  0  0
  1 22  1  0  0  0  0
  1 23  1  0  0  0  0
  2 19  1  0  0  0  0
  2  3  1  0  0  0  0
  2 24  1  0  0  0  0
  3  4  1  0  0  0  0
  3 25  1  0  0  0  0
  3 26  1  0  0  0  0
  4  5  1  0  0  0  0
  4 27  1  0  0  0  0
  4 28  1  0  0  0  0
  5  6  1  0  0  0  0
  5 29  1  0  0  0  0
  5 30  1  0  0  0  0
  6  7  1  0  0  0  0
  6 19  1  0  0  0  0
  6 31  1  0  0  0  0
  7  8  1  0  0  0  0
  7 32  1  0  0  0  0
  8  9  2  0  0  0  0
  8 10  1  0  0  0  0
 10 33  1  0  0  0  0
 10 34  1  0  0  0  0
 10 11  1  0  0  0  0
 11 12  1  0  0  0  0
 11 17  1  0  0  0  0
 12 13  1  0  0  0  0
 13 14  2  0  0  0  0
 13 15  1  0  0  0  0
 15 35  1  0  0  0  0
 15 16  2  0  0  0  0
 16 36  1  0  0  0  0
 16 17  1  0  0  0  0
 17 18  2  0  0  0  0
 19 20  1  0  0  0  0
 19 37  1  0  0  0  0
 20 38  1  0  0  0  0
 20 39  1  0  0  0  0
 20 40  1  0  0  0  0
M  CHG  1  12  -1
M  END
> <s_m_source_file>
AV-unprocessed.smi

> <i_m_source_file_index>
1464

> <i_lp_mmshare_version>
43012

> <i_f3d_flags>
0

> <s_epik_input>
W0NIM11bQ0BASF0xW0NIMl1bQ0gyXVtDSDJdW0NASF0oW0NASF0xW0NIM10pW05IXUMoPU8pW0NIMl1uMltuSF1jKD1PKVtjSF1bY0hdYzI9Tw==

> <s_epik_cmdline>
J2VwaWtfcHl0aG9uJywgJy1waCcsICc3LjAnLCAnLXRuJywgJzgnLCAnLW1hJywgJzIwMCcsICctbWV0YWxfYmluZGluZycsICctaW1hZScsICc8aW5maWxlLm1hZT4nLCAnLW9tYWUnLCAnPG91dGZpbGUubWFlPic=

> <r_lp_tautomer_probability>
1

> <r_epik_Ionization_Penalty>
0.101366

> <r_epik_Ionization_Penalty_Charging>
0.101366

> <r_epik_Ionization_Penalty_Neutral>
1.90469e-08

> <r_epik_State_Penalty>
0.035861

> <r_epik_Charging_Adjusted_Penalty>
0.137227

> <i_epik_Tot_Q>
-1

> <i_epik_Tot_abs_Q>
1

> <r_epik_Metal_State_Penalty>
0.035861

> <b_epik_Metal_Only>
0

> <s_lp_Force_Field>
OPLS_2005

> <r_lp_Energy>
28.8284

> <b_lp_Chiralities_Consistent>
1

> <s_lp_Variant>
AV-unprocessed.smi:1464-6

> <Gold.Version>
5.8.1

> <Gold.Id.Protein>
6NUR|6NUR_protein|mol2

> <Gold.PLP.Fitness>
45.9496

> <Gold.PLP.PLP>
-46.7966

> <Gold.PLP.part.hbond>
0.0000

> <Gold.PLP.part.metal>
0.0000

> <Gold.PLP.part.buried>
-6.5158

> <Gold.PLP.part.nonpolar>
-39.8276

> <Gold.PLP.part.repulsive>
0.1384

> <Gold.PLP.ligand.clash>
0.0000

> <Gold.PLP.ligand.torsion>
0.4285

> <Gold.PLP.Chemscore.Hbond>
0.0000

> <Gold.PLP.Chemscore.CHOScore>
0.0000

> <Gold.PLP.Chemscore.Metal>
0.0000

> <Gold.PLP.Chemscore.Internal.Correction>
0.0100

> <Gold.Rescore>
     Score         DG    S(hbond)    S(metal)    S(lipo)     H(rot)  DE(clash)    DE(int)     intcor
     12.33     -15.49       0.30        0.00     112.87       1.64       0.17       2.98       ----

> <Gold.Chemscore.Fitness>
12.3335

> <Gold.Chemscore.DG>
-15.4873

> <Gold.Chemscore.ZeroCoef>
-5.4800

> <Gold.Chemscore.Hbond>
0.3023

> <Gold.Chemscore.Metal>
0.0000

> <Gold.Chemscore.Lipo>
112.8681

> <Gold.Chemscore.Internal_Hbond>
0.0000

> <Gold.Chemscore.DEClash>
0.1725

> <Gold.Chemscore.DEInternal>
2.9813

> <Gold.Chemscore.Rot>
1.6438

> <Gold.Chemscore.Internal.Correction>
   9.000000E+99

> <Gold.Chemscore.Hbond.Weighted>
-1.0097

> <Gold.Chemscore.Metal.Weighted>
-0.0000

> <Gold.Chemscore.Lipo.Weighted>
-13.2056

> <Gold.Chemscore.Internal_Hbond.Weighted>
0.0000

> <Gold.Chemscore.DEClash.Weighted>
0.1725

> <Gold.Chemscore.DEInternal.Weighted>
2.9813

> <Gold.Chemscore.Rot.Weighted>
4.2080

> <Gold.Chemscore.Internal.Correction.Weighted>
   9.000000E+99

> <Gold.Protein.RotatedTorsions>
[ 6907 6896 6895 6894 ] final   41.25 input  -60.11 | X-H torsion
[ 7974 7965 7964 7962 ] final  141.03 input  175.53 | X-H torsion
[ 8008 7997 7996 7995 ] final   41.23 input   59.86 | X-H torsion
[ 10167 10162 10161 10158 ] final  -45.16 input  -65.29 | X-H torsion
[ 10718 10713 10712 10709 ] final  126.49 input   66.30 | X-H torsion
[ 10763 10752 10751 10750 ] final -152.74 input  -60.55 | X-H torsion
[ 11005 11000 10999 10996 ] final  147.21 input  -57.11 | X-H torsion

> <Gold.Protein.ActiveResidues>
 VAL166  LYS551  ARG553  GLY616  TRP617  ASP618  TYR619  PRO620  LYS621  CYS622 
 ASP623  PHE694  ASN695  SER759  ASP760  ASP761  ALA762  ILE779  LEU786  VAL792 
 PHE793  MET794  SER795  GLU796  ALA797  LYS798  CYS799  TRP800  GLU811  SER814 

> <Gold.Protein.RotatedAtoms>
  152.1929  134.8656  160.0515 H   0  0  0  0  0  0  0  0  0  0  0  0  # atno 6907 bound_to 6896
  151.9538  133.3669  159.4018 H   0  0  0  0  0  0  0  0  0  0  0  0  # atno 6908 bound_to 6896
  150.6939  134.4236  159.5260 H   0  0  0  0  0  0  0  0  0  0  0  0  # atno 6909 bound_to 6896
  144.9133  139.5264  143.5698 H   0  0  0  0  0  0  0  0  0  0  0  0  # atno 7974 bound_to 7965
  155.2662  140.3363  155.4269 H   0  0  0  0  0  0  0  0  0  0  0  0  # atno 8008 bound_to 7997
  156.2153  140.1786  156.7646 H   0  0  0  0  0  0  0  0  0  0  0  0  # atno 8009 bound_to 7997
  154.5744  140.0664  156.8997 H   0  0  0  0  0  0  0  0  0  0  0  0  # atno 8010 bound_to 7997
  140.6869  143.2893  151.3600 H   0  0  0  0  0  0  0  0  0  0  0  0  # atno 10167 bound_to 10162
  157.5414  131.1097  150.8852 H   0  0  0  0  0  0  0  0  0  0  0  0  # atno 10718 bound_to 10713
  154.7974  135.3229  154.7633 H   0  0  0  0  0  0  0  0  0  0  0  0  # atno 10763 bound_to 10752
  153.8308  135.6879  153.4819 H   0  0  0  0  0  0  0  0  0  0  0  0  # atno 10764 bound_to 10752
  153.1673  135.4637  154.9796 H   0  0  0  0  0  0  0  0  0  0  0  0  # atno 10765 bound_to 10752
  140.0857  134.9071  157.1571 H   0  0  0  0  0  0  0  0  0  0  0  0  # atno 11005 bound_to 11000
  146.3169  139.7956  142.8976 LP  0  0  0  0  0  0  0  0  0  0  0  0  # atno 17320 bound_to 7965
  145.3418  141.0289  143.3388 LP  0  0  0  0  0  0  0  0  0  0  0  0  # atno 17321 bound_to 7965
  139.6235  144.0861  152.2413 LP  0  0  0  0  0  0  0  0  0  0  0  0  # atno 17342 bound_to 10162
  140.0312  144.6079  150.7486 LP  0  0  0  0  0  0  0  0  0  0  0  0  # atno 17343 bound_to 10162
  156.9403  130.5382  149.5280 LP  0  0  0  0  0  0  0  0  0  0  0  0  # atno 17370 bound_to 10713
  156.0500  130.5571  150.8968 LP  0  0  0  0  0  0  0  0  0  0  0  0  # atno 17371 bound_to 10713
  140.3424  134.2689  155.7210 LP  0  0  0  0  0  0  0  0  0  0  0  0  # atno 17394 bound_to 11000
  141.2061  133.7841  157.0193 LP  0  0  0  0  0  0  0  0  0  0  0  0  # atno 17395 bound_to 11000

$$$$
