AV-unprocessed.smi:1576|AV-procd|sdf|6343|dock10
  -GOLD-   22720 6563D 1   1.00000     0.00000
 Structure written by MMmdl.
 45 47  0  0  0  0  0  0  0  0  1 V2000
  150.0913  135.2843  156.1608 O   0  0  0  0  0  0  0  0  0  0  0  0
  149.7486  135.6458  155.0356 C   0  0  0  0  0  0  0  0  0  0  0  0
  149.8464  136.8973  154.5558 N   0  0  0  0  0  0  0  0  0  0  0  0
  150.2712  138.0739  155.2300 C   0  0  0  0  0  0  0  0  0  0  0  0
  150.5582  137.9810  156.6055 C   0  0  0  0  0  0  0  0  0  0  0  0
  151.0046  139.1239  157.2951 C   0  0  0  0  0  0  0  0  0  0  0  0
  151.1629  140.3382  156.5874 C   0  0  0  0  0  0  0  0  0  0  0  0
  151.6115  141.4959  157.2591 N   0  0  0  0  0  0  0  0  0  0  0  0
  150.8639  142.7382  157.0464 C   0  0  0  0  0  0  0  0  0  0  0  0
  151.6713  143.9604  157.5155 C   0  0  0  0  0  0  0  0  0  0  0  0
  152.1323  143.7913  158.9705 C   0  0  0  0  0  0  0  0  0  0  0  0
  152.9134  142.4776  159.1246 C   0  0  0  0  0  0  0  0  0  0  0  0
  152.0866  141.2796  158.6272 C   0  0  0  0  0  0  0  0  0  0  0  0
  150.9028  140.4238  155.2599 N   0  0  0  0  0  0  0  0  0  0  0  0
  150.4716  139.3265  154.6026 C   0  0  0  0  0  0  0  0  0  0  0  0
  149.2445  134.8127  154.1144 N   0  0  0  0  0  0  0  0  0  0  0  0
  149.0119  133.3827  154.3073 C   0  0  2  0  0  0  0  0  0  0  0  0
  148.2569  132.7844  153.1011 C   0  0  0  0  0  0  0  0  0  0  0  0
  146.7665  133.1286  153.2183 C   0  0  0  0  0  0  0  0  0  0  0  0
  146.4071  133.2106  155.0135 S   0  0  0  0  0  0  0  0  0  0  0  0
  145.8385  134.5307  155.3256 O   0  0  0  0  0  0  0  0  0  0  0  0
  145.7314  131.9754  155.4388 O   0  0  0  0  0  0  0  0  0  0  0  0
  148.1559  133.1545  155.5628 C   0  0  0  0  0  0  0  0  0  0  0  0
  149.6147  137.0180  153.5806 H   0  0  0  0  0  0  0  0  0  0  0  0
  150.4396  137.0444  157.1306 H   0  0  0  0  0  0  0  0  0  0  0  0
  151.2352  139.0541  158.3478 H   0  0  0  0  0  0  0  0  0  0  0  0
  150.6230  142.8560  155.9889 H   0  0  0  0  0  0  0  0  0  0  0  0
  149.9191  142.6846  157.5891 H   0  0  0  0  0  0  0  0  0  0  0  0
  152.5410  144.0921  156.8702 H   0  0  0  0  0  0  0  0  0  0  0  0
  151.0707  144.8647  157.4140 H   0  0  0  0  0  0  0  0  0  0  0  0
  152.7518  144.6369  159.2711 H   0  0  0  0  0  0  0  0  0  0  0  0
  151.2659  143.7852  159.6330 H   0  0  0  0  0  0  0  0  0  0  0  0
  153.8443  142.5374  158.5589 H   0  0  0  0  0  0  0  0  0  0  0  0
  153.1937  142.3291  160.1677 H   0  0  0  0  0  0  0  0  0  0  0  0
  151.2215  141.1323  159.2750 H   0  0  0  0  0  0  0  0  0  0  0  0
  152.6907  140.3767  158.7057 H   0  0  0  0  0  0  0  0  0  0  0  0
  150.3112  139.4708  153.5459 H   0  0  0  0  0  0  0  0  0  0  0  0
  149.0005  135.1945  153.2121 H   0  0  0  0  0  0  0  0  0  0  0  0
  149.9756  132.8859  154.4338 H   0  0  0  0  0  0  0  0  0  0  0  0
  148.6716  133.1064  152.1452 H   0  0  0  0  0  0  0  0  0  0  0  0
  148.3636  131.6994  153.1341 H   0  0  0  0  0  0  0  0  0  0  0  0
  146.5622  134.1095  152.7888 H   0  0  0  0  0  0  0  0  0  0  0  0
  146.1201  132.3953  152.7360 H   0  0  0  0  0  0  0  0  0  0  0  0
  148.3408  132.1605  155.9709 H   0  0  0  0  0  0  0  0  0  0  0  0
  148.3301  133.8841  156.3541 H   0  0  0  0  0  0  0  0  0  0  0  0
  1  2  2  0  0  0  0
  2  3  1  0  0  0  0
  2 16  1  0  0  0  0
  3  4  1  0  0  0  0
  3 24  1  0  0  0  0
  4 15  1  0  0  0  0
  4  5  2  0  0  0  0
  5  6  1  0  0  0  0
  5 25  1  0  0  0  0
  6  7  2  0  0  0  0
  6 26  1  0  0  0  0
  7  8  1  0  0  0  0
  7 14  1  0  0  0  0
  8 13  1  0  0  0  0
  8  9  1  0  0  0  0
  9 10  1  0  0  0  0
  9 27  1  0  0  0  0
  9 28  1  0  0  0  0
 10 11  1  0  0  0  0
 10 29  1  0  0  0  0
 10 30  1  0  0  0  0
 11 12  1  0  0  0  0
 11 31  1  0  0  0  0
 11 32  1  0  0  0  0
 12 13  1  0  0  0  0
 12 33  1  0  0  0  0
 12 34  1  0  0  0  0
 13 35  1  0  0  0  0
 13 36  1  0  0  0  0
 14 15  2  0  0  0  0
 15 37  1  0  0  0  0
 16 17  1  0  0  0  0
 16 38  1  0  0  0  0
 17 23  1  0  0  0  0
 17 18  1  0  0  0  0
 17 39  1  0  0  0  0
 18 19  1  0  0  0  0
 18 40  1  0  0  0  0
 18 41  1  0  0  0  0
 19 20  1  0  0  0  0
 19 42  1  0  0  0  0
 19 43  1  0  0  0  0
 20 21  2  0  0  0  0
 20 22  2  0  0  0  0
 20 23  1  0  0  0  0
 23 44  1  0  0  0  0
 23 45  1  0  0  0  0
M  END
> <s_m_source_file>
AV-unprocessed.smi

> <i_m_source_file_index>
1576

> <i_lp_mmshare_version>
43012

> <i_f3d_flags>
0

> <s_epik_input>
Tz1TMSg9TylbQ0gyXVtDSDJdW0NASF0oW0NIMl0xKVtOSF1DKD1PKVtOSF1jMltjSF1bY0hdYyhuW2NIXTIpTjNbQ0gyXVtDSDJdW0NIMl1bQ0gyXVtDSDJdMw==

> <s_epik_cmdline>
J2VwaWtfcHl0aG9uJywgJy1waCcsICc3LjAnLCAnLXRuJywgJzgnLCAnLW1hJywgJzIwMCcsICctbWV0YWxfYmluZGluZycsICctaW1hZScsICc8aW5maWxlLm1hZT4nLCAnLW9tYWUnLCAnPG91dGZpbGUubWFlPic=

> <r_lp_tautomer_probability>
1

> <r_epik_Ionization_Penalty>
0.0900267

> <r_epik_Ionization_Penalty_Charging>
0

> <r_epik_Ionization_Penalty_Neutral>
0.0900267

> <r_epik_State_Penalty>
0.0748882

> <r_epik_Charging_Adjusted_Penalty>
0.0748882

> <i_epik_Tot_Q>
0

> <i_epik_Tot_abs_Q>
0

> <r_epik_Metal_State_Penalty>
0.0662821

> <b_epik_Metal_Only>
0

> <s_lp_Force_Field>
OPLS_2005

> <r_lp_Energy>
21.2293

> <b_lp_Chiralities_Consistent>
1

> <s_lp_Variant>
AV-unprocessed.smi:1576-1

> <Gold.Version>
5.8.1

> <Gold.Id.Protein>
6NUR|6NUR_protein|mol2

> <Gold.PLP.Fitness>
44.1752

> <Gold.PLP.PLP>
-34.9111

> <Gold.PLP.part.hbond>
-3.0000

> <Gold.PLP.part.metal>
0.0000

> <Gold.PLP.part.buried>
-1.7436

> <Gold.PLP.part.nonpolar>
-30.4681

> <Gold.PLP.part.repulsive>
0.3627

> <Gold.PLP.ligand.clash>
0.0000

> <Gold.PLP.ligand.torsion>
0.2638

> <Gold.PLP.Chemscore.Hbond>
2.1420

> <Gold.PLP.Chemscore.CHOScore>
0.9826

> <Gold.PLP.Chemscore.Metal>
0.0000

> <Gold.Chemscore.Hbonds>
donor molecule, donor type, donor heavy atom, donor atom, acceptor molecule, acceptor atom, score
      L1  H     3    24       P1  7948  0.99
      L1  H    16    38       P1  7948  1.00
      P1  H  7989  7998       L1    14  0.15
      L1  C    15    37       P1  7957  0.97

> <Gold.PLP.Chemscore.Internal.Correction>
0.4180

> <Gold.Rescore>
     Score         DG    S(hbond)    S(metal)    S(lipo)     H(rot)  DE(clash)    DE(int)     intcor
     15.58     -18.39       1.59        0.00      91.88       1.24       0.13       2.68       ----

> <Gold.Chemscore.Fitness>
15.5805

> <Gold.Chemscore.DG>
-18.3889

> <Gold.Chemscore.ZeroCoef>
-5.4800

> <Gold.Chemscore.Hbond>
1.5942

> <Gold.Chemscore.Metal>
0.0000

> <Gold.Chemscore.Lipo>
91.8797

> <Gold.Chemscore.Internal_Hbond>
0.0000

> <Gold.Chemscore.DEClash>
0.1326

> <Gold.Chemscore.DEInternal>
2.6759

> <Gold.Chemscore.Rot>
1.2366

> <Gold.Chemscore.Internal.Correction>
   9.000000E+99

> <Gold.Chemscore.Hbonds>
donor molecule, donor type, donor heavy atom, donor atom, acceptor molecule, acceptor atom, score
      L1  H     3    24       P1  7948  0.72
      L1  H    16    38       P1  7948  0.35

> <Gold.Chemscore.Hbond.Weighted>
-5.3247

> <Gold.Chemscore.Metal.Weighted>
-0.0000

> <Gold.Chemscore.Lipo.Weighted>
-10.7499

> <Gold.Chemscore.Internal_Hbond.Weighted>
0.0000

> <Gold.Chemscore.DEClash.Weighted>
0.1326

> <Gold.Chemscore.DEInternal.Weighted>
2.6759

> <Gold.Chemscore.Rot.Weighted>
3.1657

> <Gold.Chemscore.Internal.Correction.Weighted>
   9.000000E+99

> <Gold.Protein.RotatedTorsions>
[ 6907 6896 6895 6894 ] final  -54.85 input  -60.11 | X-H torsion
[ 7974 7965 7964 7962 ] final  -19.90 input  175.53 | X-H torsion
[ 8008 7997 7996 7995 ] final   10.39 input   59.86 | X-H torsion
[ 10167 10162 10161 10158 ] final  132.93 input  -65.29 | X-H torsion
[ 10718 10713 10712 10709 ] final -104.74 input   66.30 | X-H torsion
[ 10763 10752 10751 10750 ] final   94.08 input  -60.55 | X-H torsion
[ 11005 11000 10999 10996 ] final    0.34 input  -57.11 | X-H torsion

> <Gold.Protein.ActiveResidues>
 VAL166  LYS551  ARG553  GLY616  TRP617  ASP618  TYR619  PRO620  LYS621  CYS622 
 ASP623  PHE694  ASN695  SER759  ASP760  ASP761  ALA762  ILE779  LEU786  VAL792 
 PHE793  MET794  SER795  GLU796  ALA797  LYS798  CYS799  TRP800  GLU811  SER814 

> <Gold.Protein.RotatedAtoms>
  150.8302  134.7552  159.6847 H   0  0  0  0  0  0  0  0  0  0  0  0  # atno 6907 bound_to 6896
  152.4408  134.5592  159.9899 H   0  0  0  0  0  0  0  0  0  0  0  0  # atno 6908 bound_to 6896
  151.5754  133.3347  159.3034 H   0  0  0  0  0  0  0  0  0  0  0  0  # atno 6909 bound_to 6896
  146.1817  140.4126  142.8492 H   0  0  0  0  0  0  0  0  0  0  0  0  # atno 7974 bound_to 7965
  154.7927  140.2838  155.5979 H   0  0  0  0  0  0  0  0  0  0  0  0  # atno 8008 bound_to 7997
  156.2966  140.2601  156.2707 H   0  0  0  0  0  0  0  0  0  0  0  0  # atno 8009 bound_to 7997
  154.9651  140.0377  157.2198 H   0  0  0  0  0  0  0  0  0  0  0  0  # atno 8010 bound_to 7997
  139.5318  144.6639  151.4923 H   0  0  0  0  0  0  0  0  0  0  0  0  # atno 10167 bound_to 10162
  156.0317  130.5530  150.7440 H   0  0  0  0  0  0  0  0  0  0  0  0  # atno 10718 bound_to 10713
  153.2375  135.4302  155.0662 H   0  0  0  0  0  0  0  0  0  0  0  0  # atno 10763 bound_to 10752
  154.8325  135.3394  154.6697 H   0  0  0  0  0  0  0  0  0  0  0  0  # atno 10764 bound_to 10752
  153.7122  135.7022  153.5091 H   0  0  0  0  0  0  0  0  0  0  0  0  # atno 10765 bound_to 10752
  140.6277  133.9603  155.8258 H   0  0  0  0  0  0  0  0  0  0  0  0  # atno 11005 bound_to 11000
  144.8326  140.6731  143.6281 LP  0  0  0  0  0  0  0  0  0  0  0  0  # atno 17320 bound_to 7965
  145.4057  139.1589  143.4153 LP  0  0  0  0  0  0  0  0  0  0  0  0  # atno 17321 bound_to 7965
  140.6501  143.8713  150.6777 LP  0  0  0  0  0  0  0  0  0  0  0  0  # atno 17342 bound_to 10162
  140.2075  143.3910  152.1744 LP  0  0  0  0  0  0  0  0  0  0  0  0  # atno 17343 bound_to 10162
  157.5001  131.0918  151.0324 LP  0  0  0  0  0  0  0  0  0  0  0  0  # atno 17370 bound_to 10713
  157.0707  130.5863  149.5402 LP  0  0  0  0  0  0  0  0  0  0  0  0  # atno 17371 bound_to 10713
  141.0697  134.0223  157.3543 LP  0  0  0  0  0  0  0  0  0  0  0  0  # atno 17394 bound_to 11000
  139.9128  135.0193  156.7762 LP  0  0  0  0  0  0  0  0  0  0  0  0  # atno 17395 bound_to 11000

$$$$
