AV-unprocessed.smi:2651|AV-procd|sdf|10293|dock4
  -GOLD-   2272014303D 1   1.00000     0.00000
 Structure written by MMmdl.
 43 44  0  0  0  0  0  0  0  0  1 V2000
  144.1225  132.4506  149.6487 C   0  0  0  0  0  0  0  0  0  0  0  0
  144.5346  133.5483  150.5684 C   0  0  0  0  0  0  0  0  0  0  0  0
  145.7118  134.2187  150.7487 C   0  0  0  0  0  0  0  0  0  0  0  0
  145.4025  135.1341  151.7897 C   0  0  0  0  0  0  0  0  0  0  0  0
  146.3839  136.0301  152.2852 N   0  0  0  0  0  0  0  0  0  0  0  0
  146.1952  137.0954  153.0824 C   0  0  0  0  0  0  0  0  0  0  0  0
  145.1010  137.4834  153.4898 O   0  0  0  0  0  0  0  0  0  0  0  0
  147.3661  137.6886  153.3724 N   0  0  0  0  0  0  0  0  0  0  0  0
  147.6237  138.8660  154.2159 C   0  0  2  0  0  0  0  0  0  0  0  0
  146.9875  138.5020  155.5780 C   0  0  0  0  0  0  0  0  0  0  0  0
  146.8199  140.0807  153.6589 C   0  0  0  0  0  0  0  0  0  0  0  0
  146.9324  140.2610  152.2616 O   0  0  0  0  0  0  0  0  0  0  0  0
  149.1630  139.1453  154.3765 C   0  0  0  0  0  0  0  0  0  0  0  0
  150.0132  137.8838  154.6793 C   0  0  0  0  0  0  0  0  0  0  0  0
  151.5169  138.2045  154.7001 C   0  0  0  0  0  0  0  0  0  0  0  0
  151.8373  139.3142  155.7118 C   0  0  0  0  0  0  0  0  0  0  0  0
  151.0002  140.5708  155.4329 C   0  0  0  0  0  0  0  0  0  0  0  0
  149.4978  140.2464  155.4144 C   0  0  0  0  0  0  0  0  0  0  0  0
  144.1498  135.0326  152.2062 N   0  0  0  0  0  0  0  0  0  0  0  0
  143.5871  134.0157  151.4257 O   0  0  0  0  0  0  0  0  0  0  0  0
  144.9332  132.1855  148.9699 H   0  0  0  0  0  0  0  0  0  0  0  0
  143.2638  132.7509  149.0480 H   0  0  0  0  0  0  0  0  0  0  0  0
  143.8471  131.5585  150.2114 H   0  0  0  0  0  0  0  0  0  0  0  0
  146.6424  134.0738  150.2206 H   0  0  0  0  0  0  0  0  0  0  0  0
  147.3349  135.8315  152.0124 H   0  0  0  0  0  0  0  0  0  0  0  0
  148.1893  137.2704  152.9653 H   0  0  0  0  0  0  0  0  0  0  0  0
  147.0738  139.3099  156.3037 H   0  0  0  0  0  0  0  0  0  0  0  0
  147.4367  137.6130  156.0200 H   0  0  0  0  0  0  0  0  0  0  0  0
  145.9220  138.2945  155.4690 H   0  0  0  0  0  0  0  0  0  0  0  0
  145.7646  140.0083  153.9260 H   0  0  0  0  0  0  0  0  0  0  0  0
  147.1796  141.0063  154.1099 H   0  0  0  0  0  0  0  0  0  0  0  0
  147.8487  140.3101  152.0367 H   0  0  0  0  0  0  0  0  0  0  0  0
  149.5246  139.5180  153.4179 H   0  0  0  0  0  0  0  0  0  0  0  0
  149.7320  137.4587  155.6425 H   0  0  0  0  0  0  0  0  0  0  0  0
  149.8363  137.1068  153.9362 H   0  0  0  0  0  0  0  0  0  0  0  0
  152.0849  137.3063  154.9435 H   0  0  0  0  0  0  0  0  0  0  0  0
  151.8383  138.5125  153.7043 H   0  0  0  0  0  0  0  0  0  0  0  0
  151.6358  138.9574  156.7226 H   0  0  0  0  0  0  0  0  0  0  0  0
  152.8993  139.5577  155.6744 H   0  0  0  0  0  0  0  0  0  0  0  0
  151.2074  141.3292  156.1882 H   0  0  0  0  0  0  0  0  0  0  0  0
  151.2928  141.0015  154.4743 H   0  0  0  0  0  0  0  0  0  0  0  0
  148.9450  141.1606  155.2009 H   0  0  0  0  0  0  0  0  0  0  0  0
  149.1978  139.9314  156.4136 H   0  0  0  0  0  0  0  0  0  0  0  0
  1  2  1  0  0  0  0
  1 21  1  0  0  0  0
  1 22  1  0  0  0  0
  1 23  1  0  0  0  0
  2 20  1  0  0  0  0
  2  3  2  0  0  0  0
  3  4  1  0  0  0  0
  3 24  1  0  0  0  0
  4  5  1  0  0  0  0
  4 19  2  0  0  0  0
  5  6  1  0  0  0  0
  5 25  1  0  0  0  0
  6  7  2  0  0  0  0
  6  8  1  0  0  0  0
  8  9  1  0  0  0  0
  8 26  1  0  0  0  0
  9 10  1  0  0  0  0
  9 11  1  0  0  0  0
  9 13  1  0  0  0  0
 10 27  1  0  0  0  0
 10 28  1  0  0  0  0
 10 29  1  0  0  0  0
 11 12  1  0  0  0  0
 11 30  1  0  0  0  0
 11 31  1  0  0  0  0
 12 32  1  0  0  0  0
 13 18  1  0  0  0  0
 13 14  1  0  0  0  0
 13 33  1  0  0  0  0
 14 15  1  0  0  0  0
 14 34  1  0  0  0  0
 14 35  1  0  0  0  0
 15 16  1  0  0  0  0
 15 36  1  0  0  0  0
 15 37  1  0  0  0  0
 16 17  1  0  0  0  0
 16 38  1  0  0  0  0
 16 39  1  0  0  0  0
 17 18  1  0  0  0  0
 17 40  1  0  0  0  0
 17 41  1  0  0  0  0
 18 42  1  0  0  0  0
 18 43  1  0  0  0  0
 19 20  1  0  0  0  0
M  END
> <s_m_source_file>
AV-unprocessed.smi

> <i_m_source_file_index>
2651

> <i_lp_mmshare_version>
43012

> <i_f3d_flags>
0

> <s_epik_input>
W0NIM11jMVtjSF1jKG5vMSlbTkhdQyg9TylbTkhdW0NAQF0oW0NIM10pKFtDSDJdW09IXSlbQ0hdMltDSDJdW0NIMl1bQ0gyXVtDSDJdW0NIMl0y

> <s_epik_cmdline>
J2VwaWtfcHl0aG9uJywgJy1waCcsICc3LjAnLCAnLXRuJywgJzgnLCAnLW1hJywgJzIwMCcsICctbWV0YWxfYmluZGluZycsICctaW1hZScsICc8aW5maWxlLm1hZT4nLCAnLW9tYWUnLCAnPG91dGZpbGUubWFlPic=

> <r_lp_tautomer_probability>
1

> <r_epik_Ionization_Penalty>
2.26451e-05

> <r_epik_Ionization_Penalty_Charging>
0

> <r_epik_Ionization_Penalty_Neutral>
2.26451e-05

> <r_epik_State_Penalty>
-0

> <r_epik_Charging_Adjusted_Penalty>
0

> <i_epik_Tot_Q>
0

> <i_epik_Tot_abs_Q>
0

> <r_epik_Metal_State_Penalty>
-0

> <b_epik_Metal_Only>
0

> <s_lp_Force_Field>
OPLS_2005

> <r_lp_Energy>
19.0521

> <b_lp_Chiralities_Consistent>
1

> <s_lp_Variant>
AV-unprocessed.smi:2651-2

> <Gold.Version>
5.8.1

> <Gold.Id.Protein>
6NUR|6NUR_protein|mol2

> <Gold.PLP.Fitness>
39.5919

> <Gold.PLP.PLP>
-31.3020

> <Gold.PLP.part.hbond>
-3.3550

> <Gold.PLP.part.metal>
0.0000

> <Gold.PLP.part.buried>
-4.1208

> <Gold.PLP.part.nonpolar>
-24.5334

> <Gold.PLP.part.repulsive>
0.4799

> <Gold.PLP.ligand.clash>
0.0000

> <Gold.PLP.ligand.torsion>
0.4167

> <Gold.PLP.Chemscore.Hbond>
3.0000

> <Gold.PLP.Chemscore.CHOScore>
0.0000

> <Gold.PLP.Chemscore.Metal>
0.0000

> <Gold.Chemscore.Hbonds>
donor molecule, donor type, donor heavy atom, donor atom, acceptor molecule, acceptor atom, score
      L1  H     5    25       P1  7948  1.00
      L1  H     8    26       P1  7948  1.00
      L1  H    12    32       P1  7957  1.00

> <Gold.PLP.Chemscore.Internal.Correction>
0.1234

> <Gold.Rescore>
     Score         DG    S(hbond)    S(metal)    S(lipo)     H(rot)  DE(clash)    DE(int)     intcor
     15.12     -18.09       2.93        0.00      69.89       2.09       0.07       2.90       ----

> <Gold.Chemscore.Fitness>
15.1195

> <Gold.Chemscore.DG>
-18.0912

> <Gold.Chemscore.ZeroCoef>
-5.4800

> <Gold.Chemscore.Hbond>
2.9323

> <Gold.Chemscore.Metal>
0.0000

> <Gold.Chemscore.Lipo>
69.8860

> <Gold.Chemscore.Internal_Hbond>
0.0000

> <Gold.Chemscore.DEClash>
0.0673

> <Gold.Chemscore.DEInternal>
2.9044

> <Gold.Chemscore.Rot>
2.0935

> <Gold.Chemscore.Internal.Correction>
   9.000000E+99

> <Gold.Chemscore.Hbonds>
donor molecule, donor type, donor heavy atom, donor atom, acceptor molecule, acceptor atom, score
      L1  H     5    25       P1  7948  0.97
      L1  H     8    26       P1  7948  0.96
      L1  H    12    32       P1  7957  0.98

> <Gold.Chemscore.Hbond.Weighted>
-9.7939

> <Gold.Chemscore.Metal.Weighted>
-0.0000

> <Gold.Chemscore.Lipo.Weighted>
-8.1767

> <Gold.Chemscore.Internal_Hbond.Weighted>
0.0000

> <Gold.Chemscore.DEClash.Weighted>
0.0673

> <Gold.Chemscore.DEInternal.Weighted>
2.9044

> <Gold.Chemscore.Rot.Weighted>
5.3594

> <Gold.Chemscore.Internal.Correction.Weighted>
   9.000000E+99

> <Gold.Protein.RotatedTorsions>
[ 6907 6896 6895 6894 ] final   11.98 input  -60.11 | X-H torsion
[ 7974 7965 7964 7962 ] final -179.95 input  175.53 | X-H torsion
[ 8008 7997 7996 7995 ] final  -42.55 input   59.86 | X-H torsion
[ 10167 10162 10161 10158 ] final -164.27 input  -65.29 | X-H torsion
[ 10718 10713 10712 10709 ] final   30.13 input   66.30 | X-H torsion
[ 10763 10752 10751 10750 ] final  164.03 input  -60.55 | X-H torsion
[ 11005 11000 10999 10996 ] final  -44.15 input  -57.11 | X-H torsion

> <Gold.Protein.ActiveResidues>
 VAL166  LYS551  ARG553  GLY616  TRP617  ASP618  TYR619  PRO620  LYS621  CYS622 
 ASP623  PHE694  ASN695  SER759  ASP760  ASP761  ALA762  ILE779  LEU786  VAL792 
 PHE793  MET794  SER795  GLU796  ALA797  LYS798  CYS799  TRP800  GLU811  SER814 

> <Gold.Protein.RotatedAtoms>
  151.7630  135.0805  160.0348 H   0  0  0  0  0  0  0  0  0  0  0  0  # atno 6907 bound_to 6896
  152.3340  133.5987  159.5838 H   0  0  0  0  0  0  0  0  0  0  0  0  # atno 6908 bound_to 6896
  150.7439  133.9740  159.3596 H   0  0  0  0  0  0  0  0  0  0  0  0  # atno 6909 bound_to 6896
  144.7140  140.0641  143.6431 H   0  0  0  0  0  0  0  0  0  0  0  0  # atno 7974 bound_to 7965
  154.3998  140.1470  156.3373 H   0  0  0  0  0  0  0  0  0  0  0  0  # atno 8008 bound_to 7997
  155.8388  140.3463  155.5597 H   0  0  0  0  0  0  0  0  0  0  0  0  # atno 8009 bound_to 7997
  155.8109  140.0884  157.1895 H   0  0  0  0  0  0  0  0  0  0  0  0  # atno 8010 bound_to 7997
  139.6262  144.0527  152.1977 H   0  0  0  0  0  0  0  0  0  0  0  0  # atno 10167 bound_to 10162
  157.2556  130.7136  149.6427 H   0  0  0  0  0  0  0  0  0  0  0  0  # atno 10718 bound_to 10713
  154.3027  135.2758  155.2603 H   0  0  0  0  0  0  0  0  0  0  0  0  # atno 10763 bound_to 10752
  154.5033  135.5802  153.6551 H   0  0  0  0  0  0  0  0  0  0  0  0  # atno 10764 bound_to 10752
  152.9898  135.6163  154.3199 H   0  0  0  0  0  0  0  0  0  0  0  0  # atno 10765 bound_to 10752
  141.0431  133.6772  156.2832 H   0  0  0  0  0  0  0  0  0  0  0  0  # atno 11005 bound_to 11000
  145.9839  139.2962  143.1025 LP  0  0  0  0  0  0  0  0  0  0  0  0  # atno 17320 bound_to 7965
  145.8979  140.9261  143.0518 LP  0  0  0  0  0  0  0  0  0  0  0  0  # atno 17321 bound_to 7965
  140.0181  144.6173  150.7590 LP  0  0  0  0  0  0  0  0  0  0  0  0  # atno 17342 bound_to 10162
  140.7412  143.2815  151.3584 LP  0  0  0  0  0  0  0  0  0  0  0  0  # atno 17343 bound_to 10162
  155.9665  130.4414  150.5338 LP  0  0  0  0  0  0  0  0  0  0  0  0  # atno 17370 bound_to 10713
  157.3231  131.0685  151.1917 LP  0  0  0  0  0  0  0  0  0  0  0  0  # atno 17371 bound_to 10713
  140.6197  134.5375  157.5545 LP  0  0  0  0  0  0  0  0  0  0  0  0  # atno 17394 bound_to 11000
  139.9291  134.7998  156.0982 LP  0  0  0  0  0  0  0  0  0  0  0  0  # atno 17395 bound_to 11000

$$$$
