AV-unprocessed.smi:3301|AV-procd|sdf|12652|dock8
  -GOLD-   2272018583D 1   1.00000     0.00000
 Structure written by MMmdl.
 37 38  0  0  0  0  0  0  0  0  2 V2000
  150.3545  139.8431  156.0666 C   0  0  0  0  0  0  0  0  0  0  0  0
  149.7886  141.2657  156.1682 C   0  0  2  0  0  0  0  0  0  0  0  0
  149.3684  141.8007  154.7812 C   0  0  0  0  0  0  0  0  0  0  0  0
  148.2926  141.0191  154.1613 N   0  0  0  0  0  0  0  0  0  0  0  0
  148.3271  139.6960  153.8025 C   0  0  0  0  0  0  0  0  0  0  0  0
  147.1066  139.4091  153.2480 C   0  0  0  0  0  0  0  0  0  0  0  0
  146.3761  140.5658  153.3002 N   0  3  0  0  0  0  0  0  0  0  0  0
  147.0965  141.5420  153.8620 C   0  0  0  0  0  0  0  0  0  0  0  0
  150.7926  142.1335  156.7836 N   0  0  0  0  0  0  0  0  0  0  0  0
  150.6428  142.8103  157.9334 C   0  0  0  0  0  0  0  0  0  0  0  0
  149.6245  142.7524  158.6244 O   0  0  0  0  0  0  0  0  0  0  0  0
  151.8287  143.6801  158.3669 C   0  0  0  0  0  0  0  0  0  0  0  0
  152.2481  143.4157  159.7441 N   0  0  0  0  0  0  0  0  0  0  0  0
  151.9799  144.3798  160.7985 C   0  0  0  0  0  0  0  0  0  0  0  0
  152.4482  143.7032  162.0956 C   0  0  0  0  0  0  0  0  0  0  0  0
  153.1970  142.4358  161.6684 C   0  0  0  0  0  0  0  0  0  0  0  0
  152.9168  142.3402  160.1789 C   0  0  0  0  0  0  0  0  0  0  0  0
  153.2792  141.3856  159.4922 O   0  0  0  0  0  0  0  0  0  0  0  0
  149.6202  139.1587  155.6409 H   0  0  0  0  0  0  0  0  0  0  0  0
  150.6300  139.4581  157.0491 H   0  0  0  0  0  0  0  0  0  0  0  0
  151.2432  139.8113  155.4353 H   0  0  0  0  0  0  0  0  0  0  0  0
  148.9062  141.2132  156.8085 H   0  0  0  0  0  0  0  0  0  0  0  0
  149.0361  142.8375  154.8519 H   0  0  0  0  0  0  0  0  0  0  0  0
  150.2163  141.7871  154.0950 H   0  0  0  0  0  0  0  0  0  0  0  0
  149.1984  139.0747  153.9526 H   0  0  0  0  0  0  0  0  0  0  0  0
  146.7153  138.4932  152.8302 H   0  0  0  0  0  0  0  0  0  0  0  0
  146.7797  142.5564  154.0274 H   0  0  0  0  0  0  0  0  0  0  0  0
  151.6676  142.2349  156.2894 H   0  0  0  0  0  0  0  0  0  0  0  0
  152.6605  143.4932  157.6869 H   0  0  0  0  0  0  0  0  0  0  0  0
  151.5755  144.7370  158.2649 H   0  0  0  0  0  0  0  0  0  0  0  0
  152.5424  145.2945  160.6061 H   0  0  0  0  0  0  0  0  0  0  0  0
  150.9197  144.6330  160.8389 H   0  0  0  0  0  0  0  0  0  0  0  0
  153.0831  144.3672  162.6835 H   0  0  0  0  0  0  0  0  0  0  0  0
  151.5898  143.4397  162.7148 H   0  0  0  0  0  0  0  0  0  0  0  0
  154.2706  142.5307  161.8337 H   0  0  0  0  0  0  0  0  0  0  0  0
  152.8379  141.5505  162.1942 H   0  0  0  0  0  0  0  0  0  0  0  0
  145.4280  140.6709  152.9611 H   0  0  0  0  0  0  0  0  0  0  0  0
  1  2  1  0  0  0  0
  1 19  1  0  0  0  0
  1 20  1  0  0  0  0
  1 21  1  0  0  0  0
  2  3  1  0  0  0  0
  2  9  1  0  0  0  0
  2 22  1  0  0  0  0
  3  4  1  0  0  0  0
  3 23  1  0  0  0  0
  3 24  1  0  0  0  0
  4  8  1  0  0  0  0
  4  5  1  0  0  0  0
  5  6  2  0  0  0  0
  5 25  1  0  0  0  0
  6  7  1  0  0  0  0
  6 26  1  0  0  0  0
  7  8  2  0  0  0  0
  7 37  1  0  0  0  0
  8 27  1  0  0  0  0
  9 10  1  0  0  0  0
  9 28  1  0  0  0  0
 10 11  2  0  0  0  0
 10 12  1  0  0  0  0
 12 13  1  0  0  0  0
 12 29  1  0  0  0  0
 12 30  1  0  0  0  0
 13 17  1  0  0  0  0
 13 14  1  0  0  0  0
 14 15  1  0  0  0  0
 14 31  1  0  0  0  0
 14 32  1  0  0  0  0
 15 16  1  0  0  0  0
 15 33  1  0  0  0  0
 15 34  1  0  0  0  0
 16 17  1  0  0  0  0
 16 35  1  0  0  0  0
 16 36  1  0  0  0  0
 17 18  2  0  0  0  0
M  CHG  1   7   1
M  END
> <s_m_source_file>
AV-unprocessed.smi

> <i_m_source_file_index>
3301

> <i_lp_mmshare_version>
43012

> <i_f3d_flags>
0

> <s_epik_input>
W2NIXTFuW2NIXVtjSF1uMVtDSDJdW0NAQEhdKFtDSDNdKVtOSF1DKD1PKVtDSDJdTjJbQ0gyXVtDSDJdW0NIMl1DMj1P

> <s_epik_cmdline>
J2VwaWtfcHl0aG9uJywgJy1waCcsICc3LjAnLCAnLXRuJywgJzgnLCAnLW1hJywgJzIwMCcsICctbWV0YWxfYmluZGluZycsICctaW1hZScsICc8aW5maWxlLm1hZT4nLCAnLW9tYWUnLCAnPG91dGZpbGUubWFlPic=

> <r_lp_tautomer_probability>
1

> <r_epik_Ionization_Penalty>
0.254232

> <r_epik_Ionization_Penalty_Charging>
0

> <r_epik_Ionization_Penalty_Neutral>
0.254232

> <r_epik_State_Penalty>
0.245698

> <r_epik_Charging_Adjusted_Penalty>
0.245698

> <i_epik_Tot_Q>
1

> <i_epik_Tot_abs_Q>
1

> <r_epik_Metal_State_Penalty>
0.5358

> <b_epik_Metal_Only>
0

> <s_lp_Force_Field>
OPLS_2005

> <r_lp_Energy>
13.6599

> <b_lp_Chiralities_Consistent>
1

> <s_lp_Variant>
AV-unprocessed.smi:3301-1

> <Gold.Version>
5.8.1

> <Gold.Id.Protein>
6NUR|6NUR_protein|mol2

> <Gold.PLP.Fitness>
48.1903

> <Gold.PLP.PLP>
-42.6199

> <Gold.PLP.part.hbond>
-1.0000

> <Gold.PLP.part.metal>
0.0000

> <Gold.PLP.part.buried>
-2.2017

> <Gold.PLP.part.nonpolar>
-37.5706

> <Gold.PLP.part.repulsive>
0.2288

> <Gold.PLP.ligand.clash>
0.0000

> <Gold.PLP.ligand.torsion>
0.2281

> <Gold.PLP.Chemscore.Hbond>
2.0000

> <Gold.PLP.Chemscore.CHOScore>
0.0000

> <Gold.PLP.Chemscore.Metal>
0.0000

> <Gold.Chemscore.Hbonds>
donor molecule, donor type, donor heavy atom, donor atom, acceptor molecule, acceptor atom, score
      L1  H     7    37       P1 10175  2.00

> <Gold.PLP.Chemscore.Internal.Correction>
0.0267

> <Gold.Rescore>
     Score         DG    S(hbond)    S(metal)    S(lipo)     H(rot)  DE(clash)    DE(int)     intcor
     11.87     -12.10       0.99        0.00      79.62       2.35       0.00       0.23       ----

> <Gold.Chemscore.Fitness>
11.8742

> <Gold.Chemscore.DG>
-12.1028

> <Gold.Chemscore.ZeroCoef>
-5.4800

> <Gold.Chemscore.Hbond>
0.9928

> <Gold.Chemscore.Metal>
0.0000

> <Gold.Chemscore.Lipo>
79.6170

> <Gold.Chemscore.Internal_Hbond>
0.0000

> <Gold.Chemscore.DEClash>
0.0029

> <Gold.Chemscore.DEInternal>
0.2257

> <Gold.Chemscore.Rot>
2.3470

> <Gold.Chemscore.Internal.Correction>
   9.000000E+99

> <Gold.Chemscore.Hbonds>
donor molecule, donor type, donor heavy atom, donor atom, acceptor molecule, acceptor atom, score
      L1  H     7    37       P1 10175  0.70

> <Gold.Chemscore.Hbond.Weighted>
-3.3159

> <Gold.Chemscore.Metal.Weighted>
-0.0000

> <Gold.Chemscore.Lipo.Weighted>
-9.3152

> <Gold.Chemscore.Internal_Hbond.Weighted>
0.0000

> <Gold.Chemscore.DEClash.Weighted>
0.0029

> <Gold.Chemscore.DEInternal.Weighted>
0.2257

> <Gold.Chemscore.Rot.Weighted>
6.0083

> <Gold.Chemscore.Internal.Correction.Weighted>
   9.000000E+99

> <Gold.Protein.RotatedTorsions>
[ 6907 6896 6895 6894 ] final -133.95 input  -60.11 | X-H torsion
[ 7974 7965 7964 7962 ] final -133.22 input  175.53 | X-H torsion
[ 8008 7997 7996 7995 ] final   28.80 input   59.86 | X-H torsion
[ 10167 10162 10161 10158 ] final  170.15 input  -65.29 | X-H torsion
[ 10718 10713 10712 10709 ] final  -35.70 input   66.30 | X-H torsion
[ 10763 10752 10751 10750 ] final    9.05 input  -60.55 | X-H torsion
[ 11005 11000 10999 10996 ] final  -59.22 input  -57.11 | X-H torsion

> <Gold.Protein.ActiveResidues>
 VAL166  LYS551  ARG553  GLY616  TRP617  ASP618  TYR619  PRO620  LYS621  CYS622 
 ASP623  PHE694  ASN695  SER759  ASP760  ASP761  ALA762  ILE779  LEU786  VAL792 
 PHE793  MET794  SER795  GLU796  ALA797  LYS798  CYS799  TRP800  GLU811  SER814 

> <Gold.Protein.RotatedAtoms>
  150.9801  133.6255  159.2723 H   0  0  0  0  0  0  0  0  0  0  0  0  # atno 6907 bound_to 6896
  151.3513  135.0884  159.9413 H   0  0  0  0  0  0  0  0  0  0  0  0  # atno 6908 bound_to 6896
  152.5212  133.9393  159.7673 H   0  0  0  0  0  0  0  0  0  0  0  0  # atno 6909 bound_to 6896
  144.9213  140.7017  143.4964 H   0  0  0  0  0  0  0  0  0  0  0  0  # atno 7974 bound_to 7965
  155.0644  140.3193  155.4650 H   0  0  0  0  0  0  0  0  0  0  0  0  # atno 8008 bound_to 7997
  156.2805  140.2123  156.5715 H   0  0  0  0  0  0  0  0  0  0  0  0  # atno 8009 bound_to 7997
  154.7106  140.0498  157.0534 H   0  0  0  0  0  0  0  0  0  0  0  0  # atno 8010 bound_to 7997
  139.5011  144.3628  151.9806 H   0  0  0  0  0  0  0  0  0  0  0  0  # atno 10167 bound_to 10162
  156.3356  130.4286  149.7833 H   0  0  0  0  0  0  0  0  0  0  0  0  # atno 10718 bound_to 10713
  153.2182  135.6878  153.8031 H   0  0  0  0  0  0  0  0  0  0  0  0  # atno 10763 bound_to 10752
  153.7240  135.3263  155.3273 H   0  0  0  0  0  0  0  0  0  0  0  0  # atno 10764 bound_to 10752
  154.8256  135.4620  154.1018 H   0  0  0  0  0  0  0  0  0  0  0  0  # atno 10765 bound_to 10752
  141.1239  133.6615  156.5038 H   0  0  0  0  0  0  0  0  0  0  0  0  # atno 11005 bound_to 11000
  145.3292  139.1765  143.4546 LP  0  0  0  0  0  0  0  0  0  0  0  0  # atno 17320 bound_to 7965
  146.3206  140.3319  142.8641 LP  0  0  0  0  0  0  0  0  0  0  0  0  # atno 17321 bound_to 7965
  140.3064  144.3587  150.6045 LP  0  0  0  0  0  0  0  0  0  0  0  0  # atno 17342 bound_to 10162
  140.5833  143.2171  151.7389 LP  0  0  0  0  0  0  0  0  0  0  0  0  # atno 17343 bound_to 10162
  156.5089  130.8163  151.3161 LP  0  0  0  0  0  0  0  0  0  0  0  0  # atno 17370 bound_to 10713
  157.7438  130.9920  150.2622 LP  0  0  0  0  0  0  0  0  0  0  0  0  # atno 17371 bound_to 10713
  140.4424  134.7003  157.4998 LP  0  0  0  0  0  0  0  0  0  0  0  0  # atno 17394 bound_to 11000
  140.0220  134.6533  155.9226 LP  0  0  0  0  0  0  0  0  0  0  0  0  # atno 17395 bound_to 11000

$$$$
