AV-unprocessed.smi:1165|AV-procd|sdf|4933|dock2
  -GOLD-   22720 3513D 1   1.00000     0.00000
 Structure written by MMmdl.
 40 41  0  0  0  0  0  0  0  0  2 V2000
  151.9340  144.4700  157.9573 C   0  0  0  0  0  0  0  0  0  0  0  0
  151.0625  143.5620  158.8444 C   0  0  1  0  0  0  0  0  0  0  0  0
  151.1125  142.0804  158.4257 C   0  0  0  0  0  0  0  0  0  0  0  0
  152.3780  141.4540  158.8364 N   0  0  0  0  0  0  0  0  0  0  0  0
  152.7943  139.9209  158.1214 S   0  0  0  0  0  0  0  0  0  0  0  0
  152.5837  140.0991  156.6766 O   0  0  0  0  0  0  0  0  0  0  0  0
  154.1592  139.5980  158.5720 O   0  0  0  0  0  0  0  0  0  0  0  0
  151.6398  139.0014  158.8105 N   0  5  0  0  0  0  0  0  0  0  0  0
  151.6161  137.5524  158.6355 C   0  0  0  0  0  0  0  0  0  0  0  0
  150.4563  137.1426  157.7028 C   0  0  0  0  0  0  0  0  0  0  0  0
  150.5101  137.7650  156.3113 C   0  0  0  0  0  0  0  0  0  0  0  0
  151.5665  137.4680  155.4227 C   0  0  0  0  0  0  0  0  0  0  0  0
  151.5765  138.0717  154.1507 C   0  0  0  0  0  0  0  0  0  0  0  0
  150.5293  138.9539  153.8197 C   0  0  0  0  0  0  0  0  0  0  0  0
  149.5174  139.2546  154.6615 N   0  0  0  0  0  0  0  0  0  0  0  0
  149.5141  138.6688  155.8785 C   0  0  0  0  0  0  0  0  0  0  0  0
  152.6790  141.6622  160.2632 C   0  0  0  0  0  0  0  0  0  0  0  0
  152.6262  143.1579  160.6169 C   0  0  2  0  0  0  0  0  0  0  0  0
  152.8000  143.3955  162.1213 C   0  0  0  0  0  0  0  0  0  0  0  0
  151.3703  143.7050  160.2293 O   0  0  0  0  0  0  0  0  0  0  0  0
  151.5816  144.4531  156.9257 H   0  0  0  0  0  0  0  0  0  0  0  0
  152.9776  144.1560  157.9444 H   0  0  0  0  0  0  0  0  0  0  0  0
  151.8972  145.5037  158.3013 H   0  0  0  0  0  0  0  0  0  0  0  0
  150.0337  143.9041  158.7284 H   0  0  0  0  0  0  0  0  0  0  0  0
  150.2901  141.5322  158.8864 H   0  0  0  0  0  0  0  0  0  0  0  0
  150.9823  141.9978  157.3471 H   0  0  0  0  0  0  0  0  0  0  0  0
  152.5522  137.1744  158.2236 H   0  0  0  0  0  0  0  0  0  0  0  0
  151.4872  137.0461  159.5926 H   0  0  0  0  0  0  0  0  0  0  0  0
  150.4603  136.0582  157.5876 H   0  0  0  0  0  0  0  0  0  0  0  0
  149.5000  137.3869  158.1677 H   0  0  0  0  0  0  0  0  0  0  0  0
  152.3521  136.7841  155.7091 H   0  0  0  0  0  0  0  0  0  0  0  0
  152.3663  137.8607  153.4452 H   0  0  0  0  0  0  0  0  0  0  0  0
  150.5051  139.4334  152.8523 H   0  0  0  0  0  0  0  0  0  0  0  0
  148.6905  138.9287  156.5272 H   0  0  0  0  0  0  0  0  0  0  0  0
  151.9568  141.1019  160.8583 H   0  0  0  0  0  0  0  0  0  0  0  0
  153.6635  141.2636  160.5057 H   0  0  0  0  0  0  0  0  0  0  0  0
  153.4313  143.6808  160.1001 H   0  0  0  0  0  0  0  0  0  0  0  0
  153.7549  143.0036  162.4724 H   0  0  0  0  0  0  0  0  0  0  0  0
  152.0085  142.9089  162.6918 H   0  0  0  0  0  0  0  0  0  0  0  0
  152.7723  144.4602  162.3535 H   0  0  0  0  0  0  0  0  0  0  0  0
  1  2  1  0  0  0  0
  1 21  1  0  0  0  0
  1 22  1  0  0  0  0
  1 23  1  0  0  0  0
  2 20  1  0  0  0  0
  2  3  1  0  0  0  0
  2 24  1  0  0  0  0
  3  4  1  0  0  0  0
  3 25  1  0  0  0  0
  3 26  1  0  0  0  0
  4  5  1  0  0  0  0
  4 17  1  0  0  0  0
  5  6  2  0  0  0  0
  5  7  2  0  0  0  0
  5  8  1  0  0  0  0
  8  9  1  0  0  0  0
  9 10  1  0  0  0  0
  9 27  1  0  0  0  0
  9 28  1  0  0  0  0
 10 11  1  0  0  0  0
 10 29  1  0  0  0  0
 10 30  1  0  0  0  0
 11 16  1  0  0  0  0
 11 12  2  0  0  0  0
 12 13  1  0  0  0  0
 12 31  1  0  0  0  0
 13 14  2  0  0  0  0
 13 32  1  0  0  0  0
 14 15  1  0  0  0  0
 14 33  1  0  0  0  0
 15 16  2  0  0  0  0
 16 34  1  0  0  0  0
 17 18  1  0  0  0  0
 17 35  1  0  0  0  0
 17 36  1  0  0  0  0
 18 19  1  0  0  0  0
 18 20  1  0  0  0  0
 18 37  1  0  0  0  0
 19 38  1  0  0  0  0
 19 39  1  0  0  0  0
 19 40  1  0  0  0  0
M  CHG  1   8  -1
M  END
> <s_m_source_file>
AV-unprocessed.smi

> <i_m_source_file_index>
1165

> <i_lp_mmshare_version>
43012

> <i_f3d_flags>
0

> <s_epik_input>
W0NIM11bQ0BASF0xW0NIMl1OKFtDSDJdW0NASF0oTzEpW0NIM10pUyg9TykoPU8pW05IXVtDSDJdW0NIMl1jMltjSF1bY0hdW2NIXW5bY0hdMg==

> <s_epik_cmdline>
J2VwaWtfcHl0aG9uJywgJy1waCcsICc3LjAnLCAnLXRuJywgJzgnLCAnLW1hJywgJzIwMCcsICctbWV0YWxfYmluZGluZycsICctaW1hZScsICc8aW5maWxlLm1hZT4nLCAnLW9tYWUnLCAnPG91dGZpbGUubWFlPic=

> <r_epik_Ionization_Penalty>
1.23471

> <r_epik_Ionization_Penalty_Charging>
1.20871

> <r_epik_Ionization_Penalty_Neutral>
0.025996

> <r_epik_State_Penalty>
1.46261

> <r_epik_Charging_Adjusted_Penalty>
2.67132

> <i_epik_Tot_Q>
-1

> <i_epik_Tot_abs_Q>
1

> <r_epik_Metal_State_Penalty>
0.521406

> <b_epik_Metal_Only>
0

> <s_lp_Force_Field>
OPLS_2005

> <r_lp_Energy>
6.37225

> <b_lp_Chiralities_Consistent>
1

> <s_lp_Variant>
AV-unprocessed.smi:1165-6

> <Gold.Version>
5.8.1

> <Gold.Id.Protein>
6NUR|6NUR_protein|mol2

> <Gold.PLP.Fitness>
41.8220

> <Gold.PLP.PLP>
-36.2025

> <Gold.PLP.part.hbond>
-2.0000

> <Gold.PLP.part.metal>
0.0000

> <Gold.PLP.part.buried>
-6.0171

> <Gold.PLP.part.nonpolar>
-28.2076

> <Gold.PLP.part.repulsive>
0.1776

> <Gold.PLP.ligand.clash>
0.0000

> <Gold.PLP.ligand.torsion>
1.0487

> <Gold.PLP.Chemscore.Hbond>
1.0372

> <Gold.PLP.Chemscore.CHOScore>
1.0000

> <Gold.PLP.Chemscore.Metal>
0.0000

> <Gold.Chemscore.Hbonds>
donor molecule, donor type, donor heavy atom, donor atom, acceptor molecule, acceptor atom, score
      P1  H  7997  8008       L1     7  0.11
      P1  H  7997  8009       L1     6  0.70
      L1  C    14    33       P1  7957  0.90

> <Gold.PLP.Chemscore.Internal.Correction>
1.6053

> <Gold.Rescore>
     Score         DG    S(hbond)    S(metal)    S(lipo)     H(rot)  DE(clash)    DE(int)     intcor
     15.60     -16.66       0.94        0.00     100.99       1.47       0.01       1.06       ----

> <Gold.Chemscore.Fitness>
15.5968

> <Gold.Chemscore.DG>
-16.6610

> <Gold.Chemscore.ZeroCoef>
-5.4800

> <Gold.Chemscore.Hbond>
0.9389

> <Gold.Chemscore.Metal>
0.0000

> <Gold.Chemscore.Lipo>
100.9937

> <Gold.Chemscore.Internal_Hbond>
0.0000

> <Gold.Chemscore.DEClash>
0.0089

> <Gold.Chemscore.DEInternal>
1.0554

> <Gold.Chemscore.Rot>
1.4731

> <Gold.Chemscore.Internal.Correction>
   9.000000E+99

> <Gold.Chemscore.Hbonds>
donor molecule, donor type, donor heavy atom, donor atom, acceptor molecule, acceptor atom, score
      P1  H  7997  8008       L1     7  0.11
      P1  H  7997  8009       L1     6  0.07

> <Gold.Chemscore.Hbond.Weighted>
-3.1360

> <Gold.Chemscore.Metal.Weighted>
-0.0000

> <Gold.Chemscore.Lipo.Weighted>
-11.8163

> <Gold.Chemscore.Internal_Hbond.Weighted>
0.0000

> <Gold.Chemscore.DEClash.Weighted>
0.0089

> <Gold.Chemscore.DEInternal.Weighted>
1.0554

> <Gold.Chemscore.Rot.Weighted>
3.7712

> <Gold.Chemscore.Internal.Correction.Weighted>
   9.000000E+99

> <Gold.Protein.RotatedTorsions>
[ 6907 6896 6895 6894 ] final   31.92 input  -60.11 | X-H torsion
[ 7974 7965 7964 7962 ] final -167.05 input  175.53 | X-H torsion
[ 8008 7997 7996 7995 ] final -159.22 input   59.86 | X-H torsion
[ 10167 10162 10161 10158 ] final   93.85 input  -65.29 | X-H torsion
[ 10718 10713 10712 10709 ] final  -62.88 input   66.30 | X-H torsion
[ 10763 10752 10751 10750 ] final   58.67 input  -60.55 | X-H torsion
[ 11005 11000 10999 10996 ] final  -31.84 input  -57.11 | X-H torsion

> <Gold.Protein.ActiveResidues>
 VAL166  LYS551  ARG553  GLY616  TRP617  ASP618  TYR619  PRO620  LYS621  CYS622 
 ASP623  PHE694  ASN695  SER759  ASP760  ASP761  ALA762  ILE779  LEU786  VAL792 
 PHE793  MET794  SER795  GLU796  ALA797  LYS798  CYS799  TRP800  GLU811  SER814 

> <Gold.Protein.RotatedAtoms>
  152.0671  134.9557  160.0574 H   0  0  0  0  0  0  0  0  0  0  0  0  # atno 6907 bound_to 6896
  152.0897  133.4189  159.4546 H   0  0  0  0  0  0  0  0  0  0  0  0  # atno 6908 bound_to 6896
  150.6836  134.2805  159.4669 H   0  0  0  0  0  0  0  0  0  0  0  0  # atno 6909 bound_to 6896
  144.7231  140.2576  143.6269 H   0  0  0  0  0  0  0  0  0  0  0  0  # atno 7974 bound_to 7965
  155.7593  140.0837  157.2163 H   0  0  0  0  0  0  0  0  0  0  0  0  # atno 8008 bound_to 7997
  154.4005  140.1546  156.2871 H   0  0  0  0  0  0  0  0  0  0  0  0  # atno 8009 bound_to 7997
  155.8855  140.3418  155.5921 H   0  0  0  0  0  0  0  0  0  0  0  0  # atno 8010 bound_to 7997
  139.8140  144.6761  150.9603 H   0  0  0  0  0  0  0  0  0  0  0  0  # atno 10167 bound_to 10162
  156.0826  130.4214  150.1198 H   0  0  0  0  0  0  0  0  0  0  0  0  # atno 10718 bound_to 10713
  152.9876  135.5598  154.5590 H   0  0  0  0  0  0  0  0  0  0  0  0  # atno 10763 bound_to 10752
  154.5013  135.2797  155.1420 H   0  0  0  0  0  0  0  0  0  0  0  0  # atno 10764 bound_to 10752
  154.2850  135.6337  153.5415 H   0  0  0  0  0  0  0  0  0  0  0  0  # atno 10765 bound_to 10752
  140.9502  133.7225  156.1209 H   0  0  0  0  0  0  0  0  0  0  0  0  # atno 11005 bound_to 11000
  145.8167  139.2026  143.1961 LP  0  0  0  0  0  0  0  0  0  0  0  0  # atno 17320 bound_to 7965
  146.0549  140.8031  142.9763 LP  0  0  0  0  0  0  0  0  0  0  0  0  # atno 17321 bound_to 7965
  140.7816  143.4156  151.0922 LP  0  0  0  0  0  0  0  0  0  0  0  0  # atno 17342 bound_to 10162
  139.7821  143.8340  152.3139 LP  0  0  0  0  0  0  0  0  0  0  0  0  # atno 17343 bound_to 10162
  156.9226  130.9688  151.3546 LP  0  0  0  0  0  0  0  0  0  0  0  0  # atno 17370 bound_to 10713
  157.5949  130.8470  149.8714 LP  0  0  0  0  0  0  0  0  0  0  0  0  # atno 17371 bound_to 10713
  140.7613  134.3936  157.5525 LP  0  0  0  0  0  0  0  0  0  0  0  0  # atno 17394 bound_to 11000
  139.8845  134.8963  156.2698 LP  0  0  0  0  0  0  0  0  0  0  0  0  # atno 17395 bound_to 11000

$$$$
