AV-unprocessed.smi:1976|AV-procd|sdf|7988|dock8
  -GOLD-   2272010173D 1   1.00000     0.00000
 Structure written by MMmdl.
 45 47  0  0  0  0  0  0  0  0  2 V2000
  148.7514  140.3120  156.8932 O   0  0  0  0  0  0  0  0  0  0  0  0
  149.0239  141.3704  156.3251 C   0  0  0  0  0  0  0  0  0  0  0  0
  150.4822  141.7734  156.0628 C   0  0  0  0  0  0  0  0  0  0  0  0
  151.2840  141.9047  157.2913 N   0  0  0  0  0  0  0  0  0  0  0  0
  151.1097  143.0796  158.0485 C   0  0  0  0  0  0  0  0  0  0  0  0
  151.7892  143.3271  159.1848 C   0  0  0  0  0  0  0  0  0  0  0  0
  151.5376  144.5790  160.0107 C   0  0  0  0  0  0  0  0  0  0  0  0
  152.0653  145.6544  159.4255 F   0  0  0  0  0  0  0  0  0  0  0  0
  150.2268  144.7788  160.1411 F   0  0  0  0  0  0  0  0  0  0  0  0
  152.0637  144.4656  161.2308 F   0  0  0  0  0  0  0  0  0  0  0  0
  152.7055  142.2941  159.6264 C   0  0  0  0  0  0  0  0  0  0  0  0
  152.8756  141.1592  158.9202 C   0  0  0  0  0  0  0  0  0  0  0  0
  152.1446  140.9142  157.6749 C   0  0  0  0  0  0  0  0  0  0  0  0
  152.2921  139.8825  157.0188 O   0  0  0  0  0  0  0  0  0  0  0  0
  148.0918  142.2377  155.9026 N   0  0  0  0  0  0  0  0  0  0  0  0
  146.6490  142.0436  156.0130 C   0  0  1  0  0  0  0  0  0  0  0  0
  145.8542  143.3492  155.8725 C   0  0  0  0  0  0  0  0  0  0  0  0
  144.5847  142.9721  155.0828 C   0  0  0  0  0  0  0  0  0  0  0  0
  144.6435  141.5102  154.8505 N   0  3  2  0  0  0  0  0  0  0  0  0
  143.8173  140.7546  155.8323 C   0  0  0  0  0  0  0  0  0  0  0  0
  144.0572  139.2418  155.7486 C   0  0  0  0  0  0  0  0  0  0  0  0
  145.5381  138.9291  155.9764 C   0  0  0  0  0  0  0  0  0  0  0  0
  146.3786  139.6636  154.9275 C   0  0  0  0  0  0  0  0  0  0  0  0
  146.0896  141.1814  154.8737 C   0  0  2  0  0  0  0  0  0  0  0  0
  150.9442  141.0409  155.3980 H   0  0  0  0  0  0  0  0  0  0  0  0
  150.4813  142.7080  155.5000 H   0  0  0  0  0  0  0  0  0  0  0  0
  150.3785  143.7674  157.6493 H   0  0  0  0  0  0  0  0  0  0  0  0
  153.2671  142.4332  160.5383 H   0  0  0  0  0  0  0  0  0  0  0  0
  153.5673  140.4113  159.2791 H   0  0  0  0  0  0  0  0  0  0  0  0
  148.4060  143.0870  155.4553 H   0  0  0  0  0  0  0  0  0  0  0  0
  146.3953  141.5945  156.9749 H   0  0  0  0  0  0  0  0  0  0  0  0
  145.6137  143.7687  156.8501 H   0  0  0  0  0  0  0  0  0  0  0  0
  146.4191  144.1037  155.3227 H   0  0  0  0  0  0  0  0  0  0  0  0
  143.6710  143.2773  155.5952 H   0  0  0  0  0  0  0  0  0  0  0  0
  144.5931  143.4750  154.1150 H   0  0  0  0  0  0  0  0  0  0  0  0
  144.0356  141.0978  156.8449 H   0  0  0  0  0  0  0  0  0  0  0  0
  142.7640  140.9719  155.6510 H   0  0  0  0  0  0  0  0  0  0  0  0
  143.4495  138.7270  156.4934 H   0  0  0  0  0  0  0  0  0  0  0  0
  143.7405  138.8665  154.7744 H   0  0  0  0  0  0  0  0  0  0  0  0
  145.8381  139.2312  156.9804 H   0  0  0  0  0  0  0  0  0  0  0  0
  145.7107  137.8547  155.9088 H   0  0  0  0  0  0  0  0  0  0  0  0
  147.4395  139.4803  155.0987 H   0  0  0  0  0  0  0  0  0  0  0  0
  146.1593  139.2334  153.9494 H   0  0  0  0  0  0  0  0  0  0  0  0
  146.5083  141.5573  153.9377 H   0  0  0  0  0  0  0  0  0  0  0  0
  144.2797  141.3028  153.9313 H   0  0  0  0  0  0  0  0  0  0  0  0
  1  2  2  0  0  0  0
  2  3  1  0  0  0  0
  2 15  1  0  0  0  0
  3  4  1  0  0  0  0
  3 25  1  0  0  0  0
  3 26  1  0  0  0  0
  4 13  1  0  0  0  0
  4  5  1  0  0  0  0
  5  6  2  0  0  0  0
  5 27  1  0  0  0  0
  6  7  1  0  0  0  0
  6 11  1  0  0  0  0
  7  8  1  0  0  0  0
  7  9  1  0  0  0  0
  7 10  1  0  0  0  0
 11 12  2  0  0  0  0
 11 28  1  0  0  0  0
 12 13  1  0  0  0  0
 12 29  1  0  0  0  0
 13 14  2  0  0  0  0
 15 16  1  0  0  0  0
 15 30  1  0  0  0  0
 16 24  1  0  0  0  0
 16 17  1  0  0  0  0
 16 31  1  0  0  0  0
 17 18  1  0  0  0  0
 17 32  1  0  0  0  0
 17 33  1  0  0  0  0
 18 19  1  0  0  0  0
 18 34  1  0  0  0  0
 18 35  1  0  0  0  0
 19 24  1  0  0  0  0
 19 20  1  0  0  0  0
 19 45  1  0  0  0  0
 20 21  1  0  0  0  0
 20 36  1  0  0  0  0
 20 37  1  0  0  0  0
 21 22  1  0  0  0  0
 21 38  1  0  0  0  0
 21 39  1  0  0  0  0
 22 23  1  0  0  0  0
 22 40  1  0  0  0  0
 22 41  1  0  0  0  0
 23 24  1  0  0  0  0
 23 42  1  0  0  0  0
 23 43  1  0  0  0  0
 24 44  1  0  0  0  0
M  CHG  1  19   1
M  END
> <s_m_source_file>
AV-unprocessed.smi

> <i_m_source_file_index>
1976

> <i_lp_mmshare_version>
43012

> <i_f3d_flags>
0

> <s_epik_input>
W0NIMl0xW0NIMl1bQ0gyXVtDSDJdW0NASF0oTjEyKVtDQEBIXShbQ0gyXVtDSDJdMilbTkhdQyg9TylbQ0gyXW4zW2NIXWMoQyhGKShGKUYpW2NIXVtjSF1jMz1P

> <s_epik_cmdline>
J2VwaWtfcHl0aG9uJywgJy1waCcsICc3LjAnLCAnLXRuJywgJzgnLCAnLW1hJywgJzIwMCcsICctbWV0YWxfYmluZGluZycsICctaW1hZScsICc8aW5maWxlLm1hZT4nLCAnLW9tYWUnLCAnPG91dGZpbGUubWFlPic=

> <r_lp_tautomer_probability>
1

> <r_epik_Ionization_Penalty>
0.00171506

> <r_epik_Ionization_Penalty_Charging>
0.00171498

> <r_epik_Ionization_Penalty_Neutral>
7.81737e-08

> <r_epik_State_Penalty>
0.00115937

> <r_epik_Charging_Adjusted_Penalty>
0.00287436

> <i_epik_Tot_Q>
1

> <i_epik_Tot_abs_Q>
1

> <r_epik_Metal_State_Penalty>
-0

> <b_epik_Metal_Only>
0

> <s_lp_Force_Field>
OPLS_2005

> <r_lp_Energy>
48.7142

> <b_lp_Chiralities_Consistent>
1

> <s_lp_Variant>
AV-unprocessed.smi:1976-6

> <Gold.Version>
5.8.1

> <Gold.Id.Protein>
6NUR|6NUR_protein|mol2

> <Gold.PLP.Fitness>
52.6929

> <Gold.PLP.PLP>
-40.5908

> <Gold.PLP.part.hbond>
-3.0000

> <Gold.PLP.part.metal>
0.0000

> <Gold.PLP.part.buried>
-5.6462

> <Gold.PLP.part.nonpolar>
-32.4933

> <Gold.PLP.part.repulsive>
0.0566

> <Gold.PLP.ligand.clash>
0.0000

> <Gold.PLP.ligand.torsion>
0.9761

> <Gold.PLP.Chemscore.Hbond>
3.9920

> <Gold.PLP.Chemscore.CHOScore>
0.6784

> <Gold.PLP.Chemscore.Metal>
0.0000

> <Gold.Chemscore.Hbonds>
donor molecule, donor type, donor heavy atom, donor atom, acceptor molecule, acceptor atom, score
      L1  H    15    30       P1  8028  0.94
      L1  H    19    45       P1 10175  2.00
      P1  H  7997  8010       L1    14  0.69
      L1  C     5    27       P1  8028  0.72

> <Gold.PLP.Chemscore.Internal.Correction>
0.0433

> <Gold.Rescore>
     Score         DG    S(hbond)    S(metal)    S(lipo)     H(rot)  DE(clash)    DE(int)     intcor
     18.37     -19.51       2.85        0.00      73.20       1.58       0.55       0.60       ----

> <Gold.Chemscore.Fitness>
18.3663

> <Gold.Chemscore.DG>
-19.5087

> <Gold.Chemscore.ZeroCoef>
-5.4800

> <Gold.Chemscore.Hbond>
2.8492

> <Gold.Chemscore.Metal>
0.0000

> <Gold.Chemscore.Lipo>
73.2030

> <Gold.Chemscore.Internal_Hbond>
0.0000

> <Gold.Chemscore.DEClash>
0.5472

> <Gold.Chemscore.DEInternal>
0.5951

> <Gold.Chemscore.Rot>
1.5830

> <Gold.Chemscore.Internal.Correction>
   9.000000E+99

> <Gold.Chemscore.Hbonds>
donor molecule, donor type, donor heavy atom, donor atom, acceptor molecule, acceptor atom, score
      L1  H    15    30       P1  8028  0.90
      L1  H    19    45       P1 10175  0.40
      P1  H  7997  8010       L1    14  0.14

> <Gold.Chemscore.Hbond.Weighted>
-9.5163

> <Gold.Chemscore.Metal.Weighted>
-0.0000

> <Gold.Chemscore.Lipo.Weighted>
-8.5648

> <Gold.Chemscore.Internal_Hbond.Weighted>
0.0000

> <Gold.Chemscore.DEClash.Weighted>
0.5472

> <Gold.Chemscore.DEInternal.Weighted>
0.5951

> <Gold.Chemscore.Rot.Weighted>
4.0524

> <Gold.Chemscore.Internal.Correction.Weighted>
   9.000000E+99

> <Gold.Protein.RotatedTorsions>
[ 6907 6896 6895 6894 ] final    6.86 input  -60.11 | X-H torsion
[ 7974 7965 7964 7962 ] final  -43.31 input  175.53 | X-H torsion
[ 8008 7997 7996 7995 ] final   60.49 input   59.86 | X-H torsion
[ 10167 10162 10161 10158 ] final   49.84 input  -65.29 | X-H torsion
[ 10718 10713 10712 10709 ] final   69.98 input   66.30 | X-H torsion
[ 10763 10752 10751 10750 ] final  -33.31 input  -60.55 | X-H torsion
[ 11005 11000 10999 10996 ] final -132.66 input  -57.11 | X-H torsion

> <Gold.Protein.ActiveResidues>
 VAL166  LYS551  ARG553  GLY616  TRP617  ASP618  TYR619  PRO620  LYS621  CYS622 
 ASP623  PHE694  ASN695  SER759  ASP760  ASP761  ALA762  ILE779  LEU786  VAL792 
 PHE793  MET794  SER795  GLU796  ALA797  LYS798  CYS799  TRP800  GLU811  SER814 

> <Gold.Protein.RotatedAtoms>
  151.6805  135.0962  160.0214 H   0  0  0  0  0  0  0  0  0  0  0  0  # atno 6907 bound_to 6896
  152.3838  133.6579  159.6191 H   0  0  0  0  0  0  0  0  0  0  0  0  # atno 6908 bound_to 6896
  150.7768  133.8986  159.3375 H   0  0  0  0  0  0  0  0  0  0  0  0  # atno 6909 bound_to 6896
  146.0032  140.7051  142.9260 H   0  0  0  0  0  0  0  0  0  0  0  0  # atno 7974 bound_to 7965
  155.5832  140.3492  155.4546 H   0  0  0  0  0  0  0  0  0  0  0  0  # atno 8008 bound_to 7997
  156.0357  140.1284  157.0235 H   0  0  0  0  0  0  0  0  0  0  0  0  # atno 8009 bound_to 7997
  154.4371  140.1034  156.6150 H   0  0  0  0  0  0  0  0  0  0  0  0  # atno 8010 bound_to 7997
  140.2787  144.3182  150.6270 H   0  0  0  0  0  0  0  0  0  0  0  0  # atno 10167 bound_to 10162
  157.6375  130.9454  150.0588 H   0  0  0  0  0  0  0  0  0  0  0  0  # atno 10718 bound_to 10713
  153.8282  135.6868  153.4818 H   0  0  0  0  0  0  0  0  0  0  0  0  # atno 10763 bound_to 10752
  153.1527  135.4611  154.9658 H   0  0  0  0  0  0  0  0  0  0  0  0  # atno 10764 bound_to 10752
  154.7898  135.3298  154.7747 H   0  0  0  0  0  0  0  0  0  0  0  0  # atno 10765 bound_to 10752
  140.9150  134.1519  157.4360 H   0  0  0  0  0  0  0  0  0  0  0  0  # atno 11005 bound_to 11000
  144.6926  140.3269  143.7223 LP  0  0  0  0  0  0  0  0  0  0  0  0  # atno 17320 bound_to 7965
  145.7456  139.1777  143.2351 LP  0  0  0  0  0  0  0  0  0  0  0  0  # atno 17321 bound_to 7965
  140.5830  143.2171  151.7394 LP  0  0  0  0  0  0  0  0  0  0  0  0  # atno 17342 bound_to 10162
  139.4968  144.4053  152.0139 LP  0  0  0  0  0  0  0  0  0  0  0  0  # atno 17343 bound_to 10162
  156.1627  130.3644  149.9276 LP  0  0  0  0  0  0  0  0  0  0  0  0  # atno 17370 bound_to 10713
  156.7270  130.9029  151.3623 LP  0  0  0  0  0  0  0  0  0  0  0  0  # atno 17371 bound_to 10713
  139.8764  134.9950  156.5722 LP  0  0  0  0  0  0  0  0  0  0  0  0  # atno 17394 bound_to 11000
  140.8062  133.8466  155.8769 LP  0  0  0  0  0  0  0  0  0  0  0  0  # atno 17395 bound_to 11000

$$$$
