AV-unprocessed.smi:828|AV-procd|sdf|3865|dock3
  -GOLD-   22720 1313D 1   1.00000     0.00000
 Structure written by MMmdl.
 34 35  0  0  0  0  0  0  0  0  3 V2000
  147.5981  135.8421  162.8032 C   0  0  0  0  0  0  0  0  0  0  0  0
  147.7517  135.9858  161.3279 C   0  0  0  0  0  0  0  0  0  0  0  0
  147.7398  137.1711  160.7135 N   0  0  0  0  0  0  0  0  0  0  0  0
  147.8987  137.0500  159.3407 N   0  0  0  0  0  0  0  0  0  0  0  0
  148.0182  135.7778  158.9355 C   0  0  0  0  0  0  0  0  0  0  0  0
  148.1833  135.4461  157.6443 N   0  5  0  0  0  0  0  0  0  0  0  0
  147.5633  136.1606  156.6791 C   0  0  0  0  0  0  0  0  0  0  0  0
  147.1843  137.3307  156.7648 O   0  0  0  0  0  0  0  0  0  0  0  0
  147.3623  135.4709  155.5472 N   0  0  0  0  0  0  0  0  0  0  0  0
  146.7024  135.9620  154.3416 C   0  0  0  0  0  0  0  0  0  0  0  0
  146.1938  134.8072  153.4566 C   0  0  1  0  0  0  0  0  0  0  0  0
  145.1941  135.2297  152.3743 C   0  0  0  0  0  0  0  0  0  0  0  0
  145.3161  134.1172  151.3436 C   0  0  0  0  0  0  0  0  0  0  0  0
  146.8036  133.7615  151.3810 C   0  0  0  0  0  0  0  0  0  0  0  0
  147.3031  134.1546  152.7207 N   0  3  2  0  0  0  0  0  0  0  0  0
  147.9582  133.0536  153.4605 C   0  0  0  0  0  0  0  0  0  0  0  0
  147.9601  134.6109  160.2565 S   0  0  0  0  0  0  0  0  0  0  0  0
  146.5696  136.0570  163.0939 H   0  0  0  0  0  0  0  0  0  0  0  0
  148.2624  136.5354  163.3194 H   0  0  0  0  0  0  0  0  0  0  0  0
  147.8451  134.8267  163.1132 H   0  0  0  0  0  0  0  0  0  0  0  0
  147.6968  134.5186  155.5268 H   0  0  0  0  0  0  0  0  0  0  0  0
  145.8873  136.6440  154.5902 H   0  0  0  0  0  0  0  0  0  0  0  0
  147.4339  136.5547  153.7925 H   0  0  0  0  0  0  0  0  0  0  0  0
  145.7069  134.0576  154.0840 H   0  0  0  0  0  0  0  0  0  0  0  0
  144.1785  135.3444  152.7547 H   0  0  0  0  0  0  0  0  0  0  0  0
  145.4946  136.1776  151.9253 H   0  0  0  0  0  0  0  0  0  0  0  0
  144.7210  133.2591  151.6589 H   0  0  0  0  0  0  0  0  0  0  0  0
  144.9759  134.4170  150.3520 H   0  0  0  0  0  0  0  0  0  0  0  0
  146.9661  132.7058  151.1591 H   0  0  0  0  0  0  0  0  0  0  0  0
  147.3488  134.3408  150.6353 H   0  0  0  0  0  0  0  0  0  0  0  0
  147.2604  132.2366  153.6485 H   0  0  0  0  0  0  0  0  0  0  0  0
  148.3398  133.4057  154.4190 H   0  0  0  0  0  0  0  0  0  0  0  0
  148.8003  132.6605  152.8900 H   0  0  0  0  0  0  0  0  0  0  0  0
  148.0005  134.8676  152.5613 H   0  0  0  0  0  0  0  0  0  0  0  0
  1  2  1  0  0  0  0
  1 18  1  0  0  0  0
  1 19  1  0  0  0  0
  1 20  1  0  0  0  0
  2 17  1  0  0  0  0
  2  3  2  0  0  0  0
  3  4  1  0  0  0  0
  4  5  2  0  0  0  0
  5  6  1  0  0  0  0
  5 17  1  0  0  0  0
  6  7  1  0  0  0  0
  7  8  2  0  0  0  0
  7  9  1  0  0  0  0
  9 10  1  0  0  0  0
  9 21  1  0  0  0  0
 10 11  1  0  0  0  0
 10 22  1  0  0  0  0
 10 23  1  0  0  0  0
 11 15  1  0  0  0  0
 11 12  1  0  0  0  0
 11 24  1  0  0  0  0
 12 13  1  0  0  0  0
 12 25  1  0  0  0  0
 12 26  1  0  0  0  0
 13 14  1  0  0  0  0
 13 27  1  0  0  0  0
 13 28  1  0  0  0  0
 14 15  1  0  0  0  0
 14 29  1  0  0  0  0
 14 30  1  0  0  0  0
 15 16  1  0  0  0  0
 15 34  1  0  0  0  0
 16 31  1  0  0  0  0
 16 32  1  0  0  0  0
 16 33  1  0  0  0  0
M  CHG  1   6  -1
M  CHG  1  15   1
M  END
> <s_m_source_file>
AV-unprocessed.smi

> <i_m_source_file_index>
828

> <i_lp_mmshare_version>
43012

> <i_f3d_flags>
0

> <s_epik_input>
W0NIM11jMW5uYyhzMSlbTkhdQyg9TylbTkhdW0NIMl1bQ0BASF0yW0NIMl1bQ0gyXVtDSDJdTjJbQ0gzXQ==

> <s_epik_cmdline>
J2VwaWtfcHl0aG9uJywgJy1waCcsICc3LjAnLCAnLXRuJywgJzgnLCAnLW1hJywgJzIwMCcsICctbWV0YWxfYmluZGluZycsICctaW1hZScsICc8aW5maWxlLm1hZT4nLCAnLW9tYWUnLCAnPG91dGZpbGUubWFlPic=

> <r_lp_tautomer_probability>
1

> <r_epik_Ionization_Penalty>
3.94379

> <r_epik_Ionization_Penalty_Charging>
3.83377

> <r_epik_Ionization_Penalty_Neutral>
0.110023

> <r_epik_State_Penalty>
3.83036

> <r_epik_Charging_Adjusted_Penalty>
7.66413

> <i_epik_Tot_Q>
0

> <i_epik_Tot_abs_Q>
2

> <r_epik_Metal_State_Penalty>
0.575095

> <b_epik_Metal_Only>
1

> <s_lp_Force_Field>
OPLS_2005

> <r_lp_Energy>
18.3481

> <b_lp_Chiralities_Consistent>
1

> <s_lp_Variant>
AV-unprocessed.smi:828-8

> <Gold.Version>
5.8.1

> <Gold.Id.Protein>
6NUR|6NUR_protein|mol2

> <Gold.PLP.Fitness>
32.7921

> <Gold.PLP.PLP>
-22.9482

> <Gold.PLP.part.hbond>
-3.0000

> <Gold.PLP.part.metal>
0.0000

> <Gold.PLP.part.buried>
-3.1083

> <Gold.PLP.part.nonpolar>
-16.4678

> <Gold.PLP.part.repulsive>
0.0010

> <Gold.PLP.ligand.clash>
0.0000

> <Gold.PLP.ligand.torsion>
0.6402

> <Gold.PLP.Chemscore.Hbond>
3.6960

> <Gold.PLP.Chemscore.CHOScore>
0.0000

> <Gold.PLP.Chemscore.Metal>
0.0000

> <Gold.Chemscore.Hbonds>
donor molecule, donor type, donor heavy atom, donor atom, acceptor molecule, acceptor atom, score
      L1  H    15    34       P1  7948  2.00
      P1  H  6931  6943       L1     3  0.76
      P1  H  6934  6947       L1     3  0.90

> <Gold.PLP.Chemscore.Internal.Correction>
0.0363

> <Gold.Rescore>
     Score         DG    S(hbond)    S(metal)    S(lipo)     H(rot)  DE(clash)    DE(int)     intcor
     11.57     -13.76       1.89        0.00      45.58       1.31       0.00       2.18       ----

> <Gold.Chemscore.Fitness>
11.5746

> <Gold.Chemscore.DG>
-13.7608

> <Gold.Chemscore.ZeroCoef>
-5.4800

> <Gold.Chemscore.Hbond>
1.8903

> <Gold.Chemscore.Metal>
0.0000

> <Gold.Chemscore.Lipo>
45.5839

> <Gold.Chemscore.Internal_Hbond>
0.0000

> <Gold.Chemscore.DEClash>
0.0015

> <Gold.Chemscore.DEInternal>
2.1847

> <Gold.Chemscore.Rot>
1.3149

> <Gold.Chemscore.Internal.Correction>
   9.000000E+99

> <Gold.Chemscore.Hbonds>
donor molecule, donor type, donor heavy atom, donor atom, acceptor molecule, acceptor atom, score
      L1  H    15    34       P1  7948  0.78
      P1  H  6931  6943       L1     3  0.25
      P1  H  6934  6947       L1     3  0.35

> <Gold.Chemscore.Hbond.Weighted>
-6.3137

> <Gold.Chemscore.Metal.Weighted>
-0.0000

> <Gold.Chemscore.Lipo.Weighted>
-5.3333

> <Gold.Chemscore.Internal_Hbond.Weighted>
0.0000

> <Gold.Chemscore.DEClash.Weighted>
0.0015

> <Gold.Chemscore.DEInternal.Weighted>
2.1847

> <Gold.Chemscore.Rot.Weighted>
3.3662

> <Gold.Chemscore.Internal.Correction.Weighted>
   9.000000E+99

> <Gold.Protein.RotatedTorsions>
[ 6907 6896 6895 6894 ] final   -2.97 input  -60.11 | X-H torsion
[ 7974 7965 7964 7962 ] final   -4.41 input  175.53 | X-H torsion
[ 8008 7997 7996 7995 ] final  150.54 input   59.86 | X-H torsion
[ 10167 10162 10161 10158 ] final   79.40 input  -65.29 | X-H torsion
[ 10718 10713 10712 10709 ] final  170.12 input   66.30 | X-H torsion
[ 10763 10752 10751 10750 ] final  147.42 input  -60.55 | X-H torsion
[ 11005 11000 10999 10996 ] final  108.35 input  -57.11 | X-H torsion

> <Gold.Protein.ActiveResidues>
 VAL166  LYS551  ARG553  GLY616  TRP617  ASP618  TYR619  PRO620  LYS621  CYS622 
 ASP623  PHE694  ASN695  SER759  ASP760  ASP761  ALA762  ILE779  LEU786  VAL792 
 PHE793  MET794  SER795  GLU796  ALA797  LYS798  CYS799  TRP800  GLU811  SER814 

> <Gold.Protein.RotatedAtoms>
  151.5213  135.1067  159.9878 H   0  0  0  0  0  0  0  0  0  0  0  0  # atno 6907 bound_to 6896
  152.4619  133.7836  159.6874 H   0  0  0  0  0  0  0  0  0  0  0  0  # atno 6908 bound_to 6896
  150.8585  133.7615  159.3026 H   0  0  0  0  0  0  0  0  0  0  0  0  # atno 6909 bound_to 6896
  146.2373  140.1867  142.8332 H   0  0  0  0  0  0  0  0  0  0  0  0  # atno 7974 bound_to 7965
  156.2711  140.2072  156.6033 H   0  0  0  0  0  0  0  0  0  0  0  0  # atno 8008 bound_to 7997
  154.6889  140.0532  157.0367 H   0  0  0  0  0  0  0  0  0  0  0  0  # atno 8009 bound_to 7997
  155.0894  140.3195  155.4581 H   0  0  0  0  0  0  0  0  0  0  0  0  # atno 8010 bound_to 7997
  139.9607  144.5963  150.8074 H   0  0  0  0  0  0  0  0  0  0  0  0  # atno 10167 bound_to 10162
  157.0128  131.0209  151.2798 H   0  0  0  0  0  0  0  0  0  0  0  0  # atno 10718 bound_to 10713
  154.0380  135.2892  155.3359 H   0  0  0  0  0  0  0  0  0  0  0  0  # atno 10763 bound_to 10752
  154.6947  135.5212  153.8444 H   0  0  0  0  0  0  0  0  0  0  0  0  # atno 10764 bound_to 10752
  153.0612  135.6614  154.0587 H   0  0  0  0  0  0  0  0  0  0  0  0  # atno 10765 bound_to 10752
  139.8843  134.9428  156.5959 H   0  0  0  0  0  0  0  0  0  0  0  0  # atno 11005 bound_to 11000
  144.9891  140.8530  143.5350 LP  0  0  0  0  0  0  0  0  0  0  0  0  # atno 17320 bound_to 7965
  145.1870  139.2321  143.5262 LP  0  0  0  0  0  0  0  0  0  0  0  0  # atno 17321 bound_to 7965
  140.7554  143.3045  151.2996 LP  0  0  0  0  0  0  0  0  0  0  0  0  # atno 17342 bound_to 10162
  139.6556  144.0282  152.2657 LP  0  0  0  0  0  0  0  0  0  0  0  0  # atno 17343 bound_to 10162
  157.5308  130.8057  149.7915 LP  0  0  0  0  0  0  0  0  0  0  0  0  # atno 17370 bound_to 10713
  156.0130  130.3825  150.2202 LP  0  0  0  0  0  0  0  0  0  0  0  0  # atno 17371 bound_to 10713
  140.7920  133.8574  155.8654 LP  0  0  0  0  0  0  0  0  0  0  0  0  # atno 17394 bound_to 11000
  140.9669  134.1583  157.4609 LP  0  0  0  0  0  0  0  0  0  0  0  0  # atno 17395 bound_to 11000

$$$$
