AV-unprocessed.smi:1786|AV-procd|sdf|7205|dock7
  -GOLD-   22720 8443D 1   1.00000     0.00000
 Structure written by MMmdl.
 44 45  0  0  0  0  0  0  0  0  2 V2000
  146.0251  131.1268  152.5300 C   0  0  0  0  0  0  0  0  0  0  0  0
  145.6796  132.6220  152.3856 C   0  0  1  0  0  0  0  0  0  0  0  0
  144.6498  132.7936  151.2473 C   0  0  0  0  0  0  0  0  0  0  0  0
  144.2455  134.2581  151.0536 C   0  0  0  0  0  0  0  0  0  0  0  0
  143.7244  134.8220  152.3768 C   0  0  0  0  0  0  0  0  0  0  0  0
  144.7745  134.6514  153.4836 C   0  0  0  0  0  0  0  0  0  0  0  0
  145.1730  133.2276  153.6591 N   0  3  2  0  0  0  0  0  0  0  0  0
  146.0916  133.0653  154.8193 C   0  0  0  0  0  0  0  0  0  0  0  0
  145.5254  133.7221  156.0931 C   0  0  0  0  0  0  0  0  0  0  0  0
  146.5877  134.2808  156.9207 N   0  0  0  0  0  0  0  0  0  0  0  0
  146.4764  134.5423  158.2321 C   0  0  0  0  0  0  0  0  0  0  0  0
  145.4350  134.3691  158.8663 O   0  0  0  0  0  0  0  0  0  0  0  0
  147.7286  135.0927  158.9273 C   0  0  0  0  0  0  0  0  0  0  0  0
  147.5625  135.1979  160.3862 N   0  0  0  0  0  0  0  0  0  0  0  0
  147.2490  134.0162  161.0872 C   0  0  0  0  0  0  0  0  0  0  0  0
  147.0845  134.0040  162.4194 C   0  0  0  0  0  0  0  0  0  0  0  0
  147.2341  135.2475  163.1378 C   0  0  0  0  0  0  0  0  0  0  0  0
  147.5369  136.3828  162.4774 C   0  0  0  0  0  0  0  0  0  0  0  0
  147.7242  136.3997  161.0223 C   0  0  0  0  0  0  0  0  0  0  0  0
  148.0119  137.4303  160.4121 O   0  0  0  0  0  0  0  0  0  0  0  0
  146.3392  130.7075  151.5737 H   0  0  0  0  0  0  0  0  0  0  0  0
  145.1639  130.5509  152.8703 H   0  0  0  0  0  0  0  0  0  0  0  0
  146.8447  130.9549  153.2273 H   0  0  0  0  0  0  0  0  0  0  0  0
  146.5902  133.1535  152.1037 H   0  0  0  0  0  0  0  0  0  0  0  0
  145.0583  132.4063  150.3130 H   0  0  0  0  0  0  0  0  0  0  0  0
  143.7602  132.1996  151.4618 H   0  0  0  0  0  0  0  0  0  0  0  0
  145.1031  134.8392  150.7119 H   0  0  0  0  0  0  0  0  0  0  0  0
  143.4816  134.3402  150.2799 H   0  0  0  0  0  0  0  0  0  0  0  0
  143.4741  135.8769  152.2594 H   0  0  0  0  0  0  0  0  0  0  0  0
  142.8019  134.3134  152.6602 H   0  0  0  0  0  0  0  0  0  0  0  0
  145.6581  135.2503  153.2561 H   0  0  0  0  0  0  0  0  0  0  0  0
  144.3635  135.0341  154.4190 H   0  0  0  0  0  0  0  0  0  0  0  0
  146.3168  132.0098  154.9776 H   0  0  0  0  0  0  0  0  0  0  0  0
  147.0566  133.5295  154.6090 H   0  0  0  0  0  0  0  0  0  0  0  0
  144.8473  134.5315  155.8209 H   0  0  0  0  0  0  0  0  0  0  0  0
  144.9397  133.0177  156.6836 H   0  0  0  0  0  0  0  0  0  0  0  0
  147.4740  134.4631  156.4717 H   0  0  0  0  0  0  0  0  0  0  0  0
  148.5918  134.4655  158.6950 H   0  0  0  0  0  0  0  0  0  0  0  0
  147.9571  136.0667  158.4923 H   0  0  0  0  0  0  0  0  0  0  0  0
  147.1608  133.1280  160.4783 H   0  0  0  0  0  0  0  0  0  0  0  0
  146.8497  133.0874  162.9406 H   0  0  0  0  0  0  0  0  0  0  0  0
  147.1029  135.2678  164.2097 H   0  0  0  0  0  0  0  0  0  0  0  0
  147.6445  137.3039  163.0315 H   0  0  0  0  0  0  0  0  0  0  0  0
  144.3260  132.7321  153.8981 H   0  0  0  0  0  0  0  0  0  0  0  0
  1  2  1  0  0  0  0
  1 21  1  0  0  0  0
  1 22  1  0  0  0  0
  1 23  1  0  0  0  0
  2  7  1  0  0  0  0
  2  3  1  0  0  0  0
  2 24  1  0  0  0  0
  3  4  1  0  0  0  0
  3 25  1  0  0  0  0
  3 26  1  0  0  0  0
  4  5  1  0  0  0  0
  4 27  1  0  0  0  0
  4 28  1  0  0  0  0
  5  6  1  0  0  0  0
  5 29  1  0  0  0  0
  5 30  1  0  0  0  0
  6  7  1  0  0  0  0
  6 31  1  0  0  0  0
  6 32  1  0  0  0  0
  7  8  1  0  0  0  0
  7 44  1  0  0  0  0
  8  9  1  0  0  0  0
  8 33  1  0  0  0  0
  8 34  1  0  0  0  0
  9 10  1  0  0  0  0
  9 35  1  0  0  0  0
  9 36  1  0  0  0  0
 10 11  1  0  0  0  0
 10 37  1  0  0  0  0
 11 12  2  0  0  0  0
 11 13  1  0  0  0  0
 13 14  1  0  0  0  0
 13 38  1  0  0  0  0
 13 39  1  0  0  0  0
 14 19  1  0  0  0  0
 14 15  1  0  0  0  0
 15 16  2  0  0  0  0
 15 40  1  0  0  0  0
 16 17  1  0  0  0  0
 16 41  1  0  0  0  0
 17 18  2  0  0  0  0
 17 42  1  0  0  0  0
 18 19  1  0  0  0  0
 18 43  1  0  0  0  0
 19 20  2  0  0  0  0
M  CHG  1   7   1
M  END
> <s_m_source_file>
AV-unprocessed.smi

> <i_m_source_file_index>
1786

> <i_lp_mmshare_version>
43012

> <i_f3d_flags>
0

> <s_epik_input>
W0NIM11bQ0BASF0xW0NIMl1bQ0gyXVtDSDJdW0NIMl1OMVtDSDJdW0NIMl1bTkhdQyg9TylbQ0gyXW4yW2NIXVtjSF1bY0hdW2NIXWMyPU8=

> <s_epik_cmdline>
J2VwaWtfcHl0aG9uJywgJy1waCcsICc3LjAnLCAnLXRuJywgJzgnLCAnLW1hJywgJzIwMCcsICctbWV0YWxfYmluZGluZycsICctaW1hZScsICc8aW5maWxlLm1hZT4nLCAnLW9tYWUnLCAnPG91dGZpbGUubWFlPic=

> <r_lp_tautomer_probability>
1

> <r_epik_Ionization_Penalty>
0.00237247

> <r_epik_Ionization_Penalty_Charging>
0.00237238

> <r_epik_Ionization_Penalty_Neutral>
8.2065e-08

> <r_epik_State_Penalty>
0.00163922

> <r_epik_Charging_Adjusted_Penalty>
0.0040116

> <i_epik_Tot_Q>
1

> <i_epik_Tot_abs_Q>
1

> <r_epik_Metal_State_Penalty>
-0

> <b_epik_Metal_Only>
0

> <s_lp_Force_Field>
OPLS_2005

> <r_lp_Energy>
27.3139

> <b_lp_Chiralities_Consistent>
1

> <s_lp_Variant>
AV-unprocessed.smi:1786-4

> <Gold.Version>
5.8.1

> <Gold.Id.Protein>
6NUR|6NUR_protein|mol2

> <Gold.PLP.Fitness>
43.1339

> <Gold.PLP.PLP>
-33.6621

> <Gold.PLP.part.hbond>
-3.0000

> <Gold.PLP.part.metal>
0.0000

> <Gold.PLP.part.buried>
-4.5927

> <Gold.PLP.part.nonpolar>
-27.3048

> <Gold.PLP.part.repulsive>
0.0000

> <Gold.PLP.ligand.clash>
0.0000

> <Gold.PLP.ligand.torsion>
0.4509

> <Gold.PLP.Chemscore.Hbond>
3.4400

> <Gold.PLP.Chemscore.CHOScore>
0.0000

> <Gold.PLP.Chemscore.Metal>
0.0000

> <Gold.Chemscore.Hbonds>
donor molecule, donor type, donor heavy atom, donor atom, acceptor molecule, acceptor atom, score
      L1  H     7    44       P1 10957  1.62
      P1  H  6931  6943       L1    20  0.50
      P1  H  6934  6947       L1    20  0.69

> <Gold.PLP.Chemscore.Internal.Correction>
0.0536

> <Gold.Rescore>
     Score         DG    S(hbond)    S(metal)    S(lipo)     H(rot)  DE(clash)    DE(int)     intcor
     14.81     -17.03       2.43        0.00      70.07       1.86       0.45       1.77       ----

> <Gold.Chemscore.Fitness>
14.8061

> <Gold.Chemscore.DG>
-17.0272

> <Gold.Chemscore.ZeroCoef>
-5.4800

> <Gold.Chemscore.Hbond>
2.4272

> <Gold.Chemscore.Metal>
0.0000

> <Gold.Chemscore.Lipo>
70.0737

> <Gold.Chemscore.Internal_Hbond>
0.0000

> <Gold.Chemscore.DEClash>
0.4474

> <Gold.Chemscore.DEInternal>
1.7737

> <Gold.Chemscore.Rot>
1.8586

> <Gold.Chemscore.Internal.Correction>
   9.000000E+99

> <Gold.Chemscore.Hbonds>
donor molecule, donor type, donor heavy atom, donor atom, acceptor molecule, acceptor atom, score
      L1  H     7    44       P1 10957  0.60
      P1  H  6931  6943       L1    20  0.07
      P1  H  6934  6947       L1    20  0.68

> <Gold.Chemscore.Hbond.Weighted>
-8.1067

> <Gold.Chemscore.Metal.Weighted>
-0.0000

> <Gold.Chemscore.Lipo.Weighted>
-8.1986

> <Gold.Chemscore.Internal_Hbond.Weighted>
0.0000

> <Gold.Chemscore.DEClash.Weighted>
0.4474

> <Gold.Chemscore.DEInternal.Weighted>
1.7737

> <Gold.Chemscore.Rot.Weighted>
4.7581

> <Gold.Chemscore.Internal.Correction.Weighted>
   9.000000E+99

> <Gold.Protein.RotatedTorsions>
[ 6907 6896 6895 6894 ] final   59.50 input  -60.11 | X-H torsion
[ 7974 7965 7964 7962 ] final -115.22 input  175.53 | X-H torsion
[ 8008 7997 7996 7995 ] final   23.73 input   59.86 | X-H torsion
[ 10167 10162 10161 10158 ] final -108.11 input  -65.29 | X-H torsion
[ 10718 10713 10712 10709 ] final   81.45 input   66.30 | X-H torsion
[ 10763 10752 10751 10750 ] final    8.89 input  -60.55 | X-H torsion
[ 11005 11000 10999 10996 ] final   93.23 input  -57.11 | X-H torsion

> <Gold.Protein.ActiveResidues>
 VAL166  LYS551  ARG553  GLY616  TRP617  ASP618  TYR619  PRO620  LYS621  CYS622 
 ASP623  PHE694  ASN695  SER759  ASP760  ASP761  ALA762  ILE779  LEU786  VAL792 
 PHE793  MET794  SER795  GLU796  ALA797  LYS798  CYS799  TRP800  GLU811  SER814 

> <Gold.Protein.RotatedAtoms>
  152.3920  134.6426  160.0103 H   0  0  0  0  0  0  0  0  0  0  0  0  # atno 6907 bound_to 6896
  151.6657  133.3310  159.3192 H   0  0  0  0  0  0  0  0  0  0  0  0  # atno 6908 bound_to 6896
  150.7834  134.6842  159.6506 H   0  0  0  0  0  0  0  0  0  0  0  0  # atno 6909 bound_to 6896
  145.1109  140.8611  143.3870 H   0  0  0  0  0  0  0  0  0  0  0  0  # atno 7974 bound_to 7965
  154.9854  140.3107  155.4928 H   0  0  0  0  0  0  0  0  0  0  0  0  # atno 8008 bound_to 7997
  156.2947  140.2259  156.4896 H   0  0  0  0  0  0  0  0  0  0  0  0  # atno 8009 bound_to 7997
  154.7751  140.0449  157.1071 H   0  0  0  0  0  0  0  0  0  0  0  0  # atno 8010 bound_to 7997
  140.1697  143.4053  152.1364 H   0  0  0  0  0  0  0  0  0  0  0  0  # atno 10167 bound_to 10162
  157.6833  131.0004  150.2228 H   0  0  0  0  0  0  0  0  0  0  0  0  # atno 10718 bound_to 10713
  153.2201  135.6880  153.8011 H   0  0  0  0  0  0  0  0  0  0  0  0  # atno 10763 bound_to 10752
  153.7213  135.3267  155.3268 H   0  0  0  0  0  0  0  0  0  0  0  0  # atno 10764 bound_to 10752
  154.8265  135.4613  154.1044 H   0  0  0  0  0  0  0  0  0  0  0  0  # atno 10765 bound_to 10752
  139.8813  134.8778  156.3687 H   0  0  0  0  0  0  0  0  0  0  0  0  # atno 11005 bound_to 11000
  145.0848  139.2933  143.5765 LP  0  0  0  0  0  0  0  0  0  0  0  0  # atno 17320 bound_to 7965
  146.3526  140.0366  142.8646 LP  0  0  0  0  0  0  0  0  0  0  0  0  # atno 17321 bound_to 7965
  139.5343  144.7193  151.4946 LP  0  0  0  0  0  0  0  0  0  0  0  0  # atno 17342 bound_to 10162
  140.6590  143.8539  150.6866 LP  0  0  0  0  0  0  0  0  0  0  0  0  # atno 17343 bound_to 10162
  156.2876  130.3741  149.7873 LP  0  0  0  0  0  0  0  0  0  0  0  0  # atno 17370 bound_to 10713
  156.5542  130.8355  151.3309 LP  0  0  0  0  0  0  0  0  0  0  0  0  # atno 17371 bound_to 10713
  140.9479  133.7470  156.0233 LP  0  0  0  0  0  0  0  0  0  0  0  0  # atno 17394 bound_to 11000
  140.8141  134.3365  157.5402 LP  0  0  0  0  0  0  0  0  0  0  0  0  # atno 17395 bound_to 11000

$$$$
