AV-unprocessed.smi:260|AV-procd|sdf|1975|dock9
  -GOLD-   2262021143D 1   1.00000     0.00000
 Structure written by MMmdl.
 53 56  0  0  0  0  0  0  0  0  1 V2000
  146.8478  132.4972  158.0620 C   0  0  0  0  0  0  0  0  0  0  0  0
  148.0691  132.5296  157.2721 N   0  0  0  0  0  0  0  0  0  0  0  0
  148.9342  133.5564  157.2515 C   0  0  0  0  0  0  0  0  0  0  0  0
  148.7495  134.5732  157.9226 O   0  0  0  0  0  0  0  0  0  0  0  0
  150.1925  133.4353  156.3471 C   0  0  1  0  0  0  0  0  0  0  0  0
  151.0790  132.2288  156.7355 C   0  0  0  0  0  0  0  0  0  0  0  0
  149.7730  133.3723  154.8636 C   0  0  0  0  0  0  0  0  0  0  0  0
  149.6240  134.8315  154.4270 C   0  0  0  0  0  0  0  0  0  0  0  0
  150.5378  135.5706  155.2804 N   0  0  0  0  0  0  0  0  0  0  0  0
  150.6275  136.9260  155.2850 C   0  0  0  0  0  0  0  0  0  0  0  0
  150.1602  137.6036  154.2033 N   0  0  0  0  0  0  0  0  0  0  0  0
  150.2223  138.9366  154.1552 C   0  0  0  0  0  0  0  0  0  0  0  0
  150.7054  139.7815  155.0662 N   0  0  0  0  0  0  0  0  0  0  0  0
  151.1730  139.1138  156.1591 C   0  0  0  0  0  0  0  0  0  0  0  0
  151.1695  137.7017  156.3538 C   0  0  0  0  0  0  0  0  0  0  0  0
  151.7205  137.4054  157.5964 N   0  0  0  0  0  0  0  0  0  0  0  0
  152.0343  138.5665  158.1003 C   0  0  0  0  0  0  0  0  0  0  0  0
  151.7582  139.6469  157.2947 N   0  0  0  0  0  0  0  0  0  0  0  0
  151.9996  141.0456  157.6049 C   0  0  0  0  0  0  0  0  0  0  0  0
  150.7179  141.9103  157.6222 C   0  0  2  0  0  0  0  0  0  0  0  0
  150.5175  142.3220  156.2851 O   0  0  0  0  0  0  0  0  0  0  0  0
  150.7907  143.1904  158.4869 C   0  0  2  0  0  0  0  0  0  0  0  0
  151.8539  144.2173  158.0866 C   0  0  0  0  0  0  0  0  0  0  0  0
  152.1486  144.9646  159.3766 C   0  0  0  0  0  0  0  0  0  0  0  0
  151.5802  144.0545  160.4655 C   0  0  0  0  0  0  0  0  0  0  0  0
  151.2361  142.8520  159.7929 O   0  0  0  0  0  0  0  0  0  0  0  0
  151.0117  134.7460  156.3876 C   0  0  0  0  0  0  0  0  0  0  0  0
  146.3420  131.5416  157.9242 H   0  0  0  0  0  0  0  0  0  0  0  0
  146.1664  133.2915  157.7548 H   0  0  0  0  0  0  0  0  0  0  0  0
  147.0665  132.6163  159.1239 H   0  0  0  0  0  0  0  0  0  0  0  0
  148.2722  131.7215  156.7019 H   0  0  0  0  0  0  0  0  0  0  0  0
  151.9802  132.1891  156.1228 H   0  0  0  0  0  0  0  0  0  0  0  0
  150.5573  131.2815  156.5931 H   0  0  0  0  0  0  0  0  0  0  0  0
  151.4014  132.2857  157.7760 H   0  0  0  0  0  0  0  0  0  0  0  0
  150.5606  132.9024  154.2730 H   0  0  0  0  0  0  0  0  0  0  0  0
  148.8605  132.7992  154.6933 H   0  0  0  0  0  0  0  0  0  0  0  0
  149.8682  134.9573  153.3719 H   0  0  0  0  0  0  0  0  0  0  0  0
  148.6043  135.1813  154.5913 H   0  0  0  0  0  0  0  0  0  0  0  0
  149.8296  139.3907  153.2573 H   0  0  0  0  0  0  0  0  0  0  0  0
  152.4859  138.6655  159.0766 H   0  0  0  0  0  0  0  0  0  0  0  0
  152.5197  141.1195  158.5610 H   0  0  0  0  0  0  0  0  0  0  0  0
  152.6912  141.4205  156.8490 H   0  0  0  0  0  0  0  0  0  0  0  0
  149.8623  141.3039  157.9215 H   0  0  0  0  0  0  0  0  0  0  0  0
  150.0728  143.1557  156.2917 H   0  0  0  0  0  0  0  0  0  0  0  0
  149.8149  143.6773  158.5458 H   0  0  0  0  0  0  0  0  0  0  0  0
  152.7596  143.7120  157.7491 H   0  0  0  0  0  0  0  0  0  0  0  0
  151.5193  144.8842  157.2924 H   0  0  0  0  0  0  0  0  0  0  0  0
  153.2202  145.1261  159.4987 H   0  0  0  0  0  0  0  0  0  0  0  0
  151.6570  145.9381  159.3955 H   0  0  0  0  0  0  0  0  0  0  0  0
  152.2928  143.8644  161.2682 H   0  0  0  0  0  0  0  0  0  0  0  0
  150.6820  144.4927  160.9031 H   0  0  0  0  0  0  0  0  0  0  0  0
  150.9018  135.2541  157.3472 H   0  0  0  0  0  0  0  0  0  0  0  0
  152.0753  134.5539  156.2434 H   0  0  0  0  0  0  0  0  0  0  0  0
  1  2  1  0  0  0  0
  1 28  1  0  0  0  0
  1 29  1  0  0  0  0
  1 30  1  0  0  0  0
  2  3  1  0  0  0  0
  2 31  1  0  0  0  0
  3  4  2  0  0  0  0
  3  5  1  0  0  0  0
  5 27  1  0  0  0  0
  5  6  1  0  0  0  0
  5  7  1  0  0  0  0
  6 32  1  0  0  0  0
  6 33  1  0  0  0  0
  6 34  1  0  0  0  0
  7  8  1  0  0  0  0
  7 35  1  0  0  0  0
  7 36  1  0  0  0  0
  8  9  1  0  0  0  0
  8 37  1  0  0  0  0
  8 38  1  0  0  0  0
  9 10  1  0  0  0  0
  9 27  1  0  0  0  0
 10 15  1  0  0  0  0
 10 11  2  0  0  0  0
 11 12  1  0  0  0  0
 12 13  2  0  0  0  0
 12 39  1  0  0  0  0
 13 14  1  0  0  0  0
 14 18  1  0  0  0  0
 14 15  2  0  0  0  0
 15 16  1  0  0  0  0
 16 17  2  0  0  0  0
 17 18  1  0  0  0  0
 17 40  1  0  0  0  0
 18 19  1  0  0  0  0
 19 20  1  0  0  0  0
 19 41  1  0  0  0  0
 19 42  1  0  0  0  0
 20 21  1  0  0  0  0
 20 22  1  0  0  0  0
 20 43  1  0  0  0  0
 21 44  1  0  0  0  0
 22 26  1  0  0  0  0
 22 23  1  0  0  0  0
 22 45  1  0  0  0  0
 23 24  1  0  0  0  0
 23 46  1  0  0  0  0
 23 47  1  0  0  0  0
 24 25  1  0  0  0  0
 24 48  1  0  0  0  0
 24 49  1  0  0  0  0
 25 26  1  0  0  0  0
 25 50  1  0  0  0  0
 25 51  1  0  0  0  0
 27 52  1  0  0  0  0
 27 53  1  0  0  0  0
M  END
> <s_m_source_file>
AV-unprocessed.smi

> <i_m_source_file_index>
260

> <i_lp_mmshare_version>
43012

> <i_f3d_flags>
0

> <s_epik_input>
W0NIM11bTkhdQyg9TylbQ0BAXTEoW0NIM10pW0NIMl1bQ0gyXU4oW0NIMl0xKWMobltjSF1uMiljKGMyMyluW2NIXW4zW0NIMl1bQ0BIXShbT0hdKVtDQEBIXTRbQ0gyXVtDSDJdW0NIMl1PNA==

> <s_epik_cmdline>
J2VwaWtfcHl0aG9uJywgJy1waCcsICc3LjAnLCAnLXRuJywgJzgnLCAnLW1hJywgJzIwMCcsICctbWV0YWxfYmluZGluZycsICctaW1hZScsICc8aW5maWxlLm1hZT4nLCAnLW9tYWUnLCAnPG91dGZpbGUubWFlPic=

> <r_lp_tautomer_probability>
1

> <r_epik_Ionization_Penalty>
0.00115068

> <r_epik_Ionization_Penalty_Charging>
0

> <r_epik_Ionization_Penalty_Neutral>
0.00115068

> <r_epik_State_Penalty>
0.000668876

> <r_epik_Charging_Adjusted_Penalty>
0.000668876

> <i_epik_Tot_Q>
0

> <i_epik_Tot_abs_Q>
0

> <r_epik_Metal_State_Penalty>
-0

> <b_epik_Metal_Only>
0

> <s_lp_Force_Field>
OPLS_2005

> <r_lp_Energy>
51.9197

> <b_lp_Chiralities_Consistent>
1

> <s_lp_Variant>
AV-unprocessed.smi:260-1

> <Gold.Version>
5.8.1

> <Gold.Id.Protein>
6NUR|6NUR_protein|mol2

> <Gold.PLP.Fitness>
50.6290

> <Gold.PLP.PLP>
-40.8794

> <Gold.PLP.part.hbond>
-2.6543

> <Gold.PLP.part.metal>
0.0000

> <Gold.PLP.part.buried>
-6.2734

> <Gold.PLP.part.nonpolar>
-33.3688

> <Gold.PLP.part.repulsive>
1.3698

> <Gold.PLP.ligand.clash>
0.0000

> <Gold.PLP.ligand.torsion>
0.4677

> <Gold.PLP.Chemscore.Hbond>
2.4859

> <Gold.PLP.Chemscore.CHOScore>
1.0000

> <Gold.PLP.Chemscore.Metal>
0.0000

> <Gold.Chemscore.Hbonds>
donor molecule, donor type, donor heavy atom, donor atom, acceptor molecule, acceptor atom, score
      L1  H    21    44       P1  8028  0.93
      P1  H  7989  7998       L1    13  0.35
      L1  C    12    39       P1  7957  1.00

> <Gold.PLP.Chemscore.Internal.Correction>
0.2273

> <Gold.Rescore>
     Score         DG    S(hbond)    S(metal)    S(lipo)     H(rot)  DE(clash)    DE(int)     intcor
     13.44     -15.11       1.67        0.00      89.88       2.53       0.20       1.47       ----

> <Gold.Chemscore.Fitness>
13.4433

> <Gold.Chemscore.DG>
-15.1094

> <Gold.Chemscore.ZeroCoef>
-5.4800

> <Gold.Chemscore.Hbond>
1.6706

> <Gold.Chemscore.Metal>
0.0000

> <Gold.Chemscore.Lipo>
89.8788

> <Gold.Chemscore.Internal_Hbond>
0.0000

> <Gold.Chemscore.DEClash>
0.2003

> <Gold.Chemscore.DEInternal>
1.4658

> <Gold.Chemscore.Rot>
2.5259

> <Gold.Chemscore.Internal.Correction>
   9.000000E+99

> <Gold.Chemscore.Hbonds>
donor molecule, donor type, donor heavy atom, donor atom, acceptor molecule, acceptor atom, score
      L1  H    21    44       P1  8028  0.88
      P1  H  6896  6907       L1     4  0.01
      P1  H  7989  7998       L1    13  0.01

> <Gold.Chemscore.Hbond.Weighted>
-5.5799

> <Gold.Chemscore.Metal.Weighted>
-0.0000

> <Gold.Chemscore.Lipo.Weighted>
-10.5158

> <Gold.Chemscore.Internal_Hbond.Weighted>
0.0000

> <Gold.Chemscore.DEClash.Weighted>
0.2003

> <Gold.Chemscore.DEInternal.Weighted>
1.4658

> <Gold.Chemscore.Rot.Weighted>
6.4663

> <Gold.Chemscore.Internal.Correction.Weighted>
   9.000000E+99

> <Gold.Protein.RotatedTorsions>
[ 6907 6896 6895 6894 ] final  -82.41 input  -60.11 | X-H torsion
[ 7974 7965 7964 7962 ] final  -38.33 input  175.53 | X-H torsion
[ 8008 7997 7996 7995 ] final  -19.02 input   59.86 | X-H torsion
[ 10167 10162 10161 10158 ] final  -39.79 input  -65.29 | X-H torsion
[ 10718 10713 10712 10709 ] final   24.77 input   66.30 | X-H torsion
[ 10763 10752 10751 10750 ] final  -61.62 input  -60.55 | X-H torsion
[ 11005 11000 10999 10996 ] final  116.45 input  -57.11 | X-H torsion

> <Gold.Protein.ActiveResidues>
 VAL166  LYS551  ARG553  GLY616  TRP617  ASP618  TYR619  PRO620  LYS621  CYS622 
 ASP623  PHE694  ASN695  SER759  ASP760  ASP761  ALA762  ILE779  LEU786  VAL792 
 PHE793  MET794  SER795  GLU796  ALA797  LYS798  CYS799  TRP800  GLU811  SER814 

> <Gold.Protein.RotatedAtoms>
  150.6898  134.3669  159.4974 H   0  0  0  0  0  0  0  0  0  0  0  0  # atno 6907 bound_to 6896
  152.1490  134.9000  160.0558 H   0  0  0  0  0  0  0  0  0  0  0  0  # atno 6908 bound_to 6896
  152.0105  133.3825  159.4255 H   0  0  0  0  0  0  0  0  0  0  0  0  # atno 6909 bound_to 6896
  146.0496  140.6499  142.9048 H   0  0  0  0  0  0  0  0  0  0  0  0  # atno 7974 bound_to 7965
  154.4865  140.2100  155.9643 H   0  0  0  0  0  0  0  0  0  0  0  0  # atno 8008 bound_to 7997
  156.1244  140.3208  155.8224 H   0  0  0  0  0  0  0  0  0  0  0  0  # atno 8009 bound_to 7997
  155.4410  140.0510  157.3001 H   0  0  0  0  0  0  0  0  0  0  0  0  # atno 8010 bound_to 7997
  140.7054  143.3193  151.2832 H   0  0  0  0  0  0  0  0  0  0  0  0  # atno 10167 bound_to 10162
  157.1843  130.6817  149.6125 H   0  0  0  0  0  0  0  0  0  0  0  0  # atno 10718 bound_to 10713
  154.2874  135.6260  153.5371 H   0  0  0  0  0  0  0  0  0  0  0  0  # atno 10763 bound_to 10752
  152.9857  135.5647  154.5428 H   0  0  0  0  0  0  0  0  0  0  0  0  # atno 10764 bound_to 10752
  154.5032  135.2873  155.1380 H   0  0  0  0  0  0  0  0  0  0  0  0  # atno 10765 bound_to 10752
  139.9041  134.9598  156.7199 H   0  0  0  0  0  0  0  0  0  0  0  0  # atno 11005 bound_to 11000
  144.7115  140.4058  143.7076 LP  0  0  0  0  0  0  0  0  0  0  0  0  # atno 17320 bound_to 7965
  145.6747  139.1606  143.2734 LP  0  0  0  0  0  0  0  0  0  0  0  0  # atno 17321 bound_to 7965
  139.6641  144.0136  152.2712 LP  0  0  0  0  0  0  0  0  0  0  0  0  # atno 17342 bound_to 10162
  139.9713  144.6492  150.7986 LP  0  0  0  0  0  0  0  0  0  0  0  0  # atno 17343 bound_to 10162
  155.9720  130.4636  150.6188 LP  0  0  0  0  0  0  0  0  0  0  0  0  # atno 17370 bound_to 10713
  157.3923  131.0797  151.1383 LP  0  0  0  0  0  0  0  0  0  0  0  0  # atno 17371 bound_to 10713
  140.7008  133.9308  155.8023 LP  0  0  0  0  0  0  0  0  0  0  0  0  # atno 17394 bound_to 11000
  141.0373  134.0672  157.3944 LP  0  0  0  0  0  0  0  0  0  0  0  0  # atno 17395 bound_to 11000

$$$$
