AV-unprocessed.smi:224|AV-procd|sdf|1712|dock6
  -GOLD-   2262020183D 1   1.00000     0.00000
 Structure written by MMmdl.
 56 59  0  0  0  0  0  0  0  0  2 V2000
  145.2208  132.2219  149.7879 C   0  0  0  0  0  0  0  0  0  0  0  0
  144.6349  133.5039  150.3934 C   0  0  1  0  0  0  0  0  0  0  0  0
  144.1040  134.2852  149.3424 O   0  0  0  0  0  0  0  0  0  0  0  0
  143.5184  133.2108  151.4113 C   0  0  0  0  0  0  0  0  0  0  0  0
  143.9102  133.6403  152.7832 N   0  3  2  0  0  0  0  0  0  0  0  0
  143.3498  134.9850  153.0976 C   0  0  0  0  0  0  0  0  0  0  0  0
  143.7185  135.4623  154.5126 C   0  0  0  0  0  0  0  0  0  0  0  0
  145.1574  135.3749  154.7376 N   0  0  0  0  0  0  0  0  0  0  0  0
  145.9597  136.4132  154.3764 C   0  0  0  0  0  0  0  0  0  0  0  0
  145.5065  137.3420  153.4923 N   0  0  0  0  0  0  0  0  0  0  0  0
  146.2911  138.3514  153.1045 C   0  0  0  0  0  0  0  0  0  0  0  0
  147.5447  138.6197  153.4706 N   0  0  0  0  0  0  0  0  0  0  0  0
  148.0033  137.7042  154.3706 C   0  0  0  0  0  0  0  0  0  0  0  0
  147.2822  136.5864  154.8791 C   0  0  0  0  0  0  0  0  0  0  0  0
  148.0698  135.8981  155.7954 N   0  0  0  0  0  0  0  0  0  0  0  0
  149.1955  136.5577  155.8118 C   0  0  0  0  0  0  0  0  0  0  0  0
  149.2475  137.6480  154.9738 N   0  0  0  0  0  0  0  0  0  0  0  0
  150.3750  138.5453  154.7767 C   0  0  0  0  0  0  0  0  0  0  0  0
  150.0405  140.0222  155.0925 C   0  0  2  0  0  0  0  0  0  0  0  0
  149.9101  140.7388  153.8767 O   0  0  0  0  0  0  0  0  0  0  0  0
  151.0830  140.7257  155.9579 C   0  0  0  0  0  0  0  0  0  0  0  0
  150.2475  141.7084  156.7658 C   0  0  0  0  0  0  0  0  0  0  0  0
  149.0853  140.9522  157.0575 O   0  0  0  0  0  0  0  0  0  0  0  0
  148.7400  140.1944  155.9024 C   0  0  0  0  0  0  0  0  0  0  0  0
  145.6869  134.0364  154.5080 C   0  0  0  0  0  0  0  0  0  0  0  0
  145.3729  133.5263  153.0828 C   0  0  1  0  0  0  0  0  0  0  0  0
  145.8896  132.0761  152.9757 C   0  0  0  0  0  0  0  0  0  0  0  0
  145.6668  131.5934  150.5593 H   0  0  0  0  0  0  0  0  0  0  0  0
  146.0002  132.4514  149.0603 H   0  0  0  0  0  0  0  0  0  0  0  0
  144.4550  131.6330  149.2818 H   0  0  0  0  0  0  0  0  0  0  0  0
  145.4396  134.0674  150.8661 H   0  0  0  0  0  0  0  0  0  0  0  0
  144.7385  134.3248  148.6426 H   0  0  0  0  0  0  0  0  0  0  0  0
  142.6022  133.6855  151.0689 H   0  0  0  0  0  0  0  0  0  0  0  0
  143.2878  132.1443  151.4158 H   0  0  0  0  0  0  0  0  0  0  0  0
  143.7145  135.7036  152.3627 H   0  0  0  0  0  0  0  0  0  0  0  0
  142.2646  134.9661  152.9973 H   0  0  0  0  0  0  0  0  0  0  0  0
  143.3559  136.4762  154.6869 H   0  0  0  0  0  0  0  0  0  0  0  0
  143.2205  134.8334  155.2517 H   0  0  0  0  0  0  0  0  0  0  0  0
  145.8537  139.0393  152.3960 H   0  0  0  0  0  0  0  0  0  0  0  0
  150.0266  136.2599  156.4345 H   0  0  0  0  0  0  0  0  0  0  0  0
  151.2029  138.2037  155.3995 H   0  0  0  0  0  0  0  0  0  0  0  0
  150.7099  138.4479  153.7431 H   0  0  0  0  0  0  0  0  0  0  0  0
  149.4317  140.2029  153.2629 H   0  0  0  0  0  0  0  0  0  0  0  0
  151.5444  140.0152  156.6447 H   0  0  0  0  0  0  0  0  0  0  0  0
  151.8813  141.2035  155.3884 H   0  0  0  0  0  0  0  0  0  0  0  0
  150.7492  142.0450  157.6733 H   0  0  0  0  0  0  0  0  0  0  0  0
  149.9815  142.5831  156.1702 H   0  0  0  0  0  0  0  0  0  0  0  0
  147.9717  140.7243  155.3371 H   0  0  0  0  0  0  0  0  0  0  0  0
  148.3144  139.2403  156.2148 H   0  0  0  0  0  0  0  0  0  0  0  0
  146.7604  133.9912  154.6832 H   0  0  0  0  0  0  0  0  0  0  0  0
  145.2374  133.3699  155.2452 H   0  0  0  0  0  0  0  0  0  0  0  0
  145.9139  134.1471  152.3665 H   0  0  0  0  0  0  0  0  0  0  0  0
  146.9182  132.0065  153.3307 H   0  0  0  0  0  0  0  0  0  0  0  0
  145.8981  131.6965  151.9556 H   0  0  0  0  0  0  0  0  0  0  0  0
  145.2894  131.3964  153.5819 H   0  0  0  0  0  0  0  0  0  0  0  0
  143.4626  132.9911  153.4150 H   0  0  0  0  0  0  0  0  0  0  0  0
  1  2  1  0  0  0  0
  1 28  1  0  0  0  0
  1 29  1  0  0  0  0
  1 30  1  0  0  0  0
  2  3  1  0  0  0  0
  2  4  1  0  0  0  0
  2 31  1  0  0  0  0
  3 32  1  0  0  0  0
  4  5  1  0  0  0  0
  4 33  1  0  0  0  0
  4 34  1  0  0  0  0
  5 26  1  0  0  0  0
  5  6  1  0  0  0  0
  5 56  1  0  0  0  0
  6  7  1  0  0  0  0
  6 35  1  0  0  0  0
  6 36  1  0  0  0  0
  7  8  1  0  0  0  0
  7 37  1  0  0  0  0
  7 38  1  0  0  0  0
  8  9  1  0  0  0  0
  8 25  1  0  0  0  0
  9 14  1  0  0  0  0
  9 10  2  0  0  0  0
 10 11  1  0  0  0  0
 11 12  2  0  0  0  0
 11 39  1  0  0  0  0
 12 13  1  0  0  0  0
 13 17  1  0  0  0  0
 13 14  2  0  0  0  0
 14 15  1  0  0  0  0
 15 16  2  0  0  0  0
 16 17  1  0  0  0  0
 16 40  1  0  0  0  0
 17 18  1  0  0  0  0
 18 19  1  0  0  0  0
 18 41  1  0  0  0  0
 18 42  1  0  0  0  0
 19 24  1  0  0  0  0
 19 20  1  0  0  0  0
 19 21  1  0  0  0  0
 20 43  1  0  0  0  0
 21 22  1  0  0  0  0
 21 44  1  0  0  0  0
 21 45  1  0  0  0  0
 22 23  1  0  0  0  0
 22 46  1  0  0  0  0
 22 47  1  0  0  0  0
 23 24  1  0  0  0  0
 24 48  1  0  0  0  0
 24 49  1  0  0  0  0
 25 26  1  0  0  0  0
 25 50  1  0  0  0  0
 25 51  1  0  0  0  0
 26 27  1  0  0  0  0
 26 52  1  0  0  0  0
 27 53  1  0  0  0  0
 27 54  1  0  0  0  0
 27 55  1  0  0  0  0
M  CHG  1   5   1
M  END
> <s_m_source_file>
AV-unprocessed.smi

> <i_m_source_file_index>
224

> <i_lp_mmshare_version>
43012

> <i_f3d_flags>
0

> <s_epik_input>
W0NIM11bQ0BIXShbT0hdKVtDSDJdTjFbQ0gyXVtDSDJdTihbQ0gyXVtDQEhdMVtDSDNdKWMobltjSF1uMiljKGMyMyluW2NIXW4zW0NIMl1bQ0BAXTQoW09IXSlbQ0gyXVtDSDJdT1tDSDJdNA==

> <s_epik_cmdline>
J2VwaWtfcHl0aG9uJywgJy1waCcsICc3LjAnLCAnLXRuJywgJzgnLCAnLW1hJywgJzIwMCcsICctbWV0YWxfYmluZGluZycsICctaW1hZScsICc8aW5maWxlLm1hZT4nLCAnLW9tYWUnLCAnPG91dGZpbGUubWFlPic=

> <r_lp_tautomer_probability>
1

> <r_epik_Ionization_Penalty>
0.00516958

> <r_epik_Ionization_Penalty_Charging>
0.00509693

> <r_epik_Ionization_Penalty_Neutral>
7.26542e-05

> <r_epik_State_Penalty>
-0

> <r_epik_Charging_Adjusted_Penalty>
0.00509693

> <i_epik_Tot_Q>
1

> <i_epik_Tot_abs_Q>
1

> <r_epik_Metal_State_Penalty>
-0

> <b_epik_Metal_Only>
0

> <s_lp_Force_Field>
OPLS_2005

> <r_lp_Energy>
47.1484

> <b_lp_Chiralities_Consistent>
1

> <s_lp_Variant>
AV-unprocessed.smi:224-6

> <Gold.Version>
5.8.1

> <Gold.Id.Protein>
6NUR|6NUR_protein|mol2

> <Gold.PLP.Fitness>
45.2183

> <Gold.PLP.PLP>
-33.4179

> <Gold.PLP.part.hbond>
-5.6813

> <Gold.PLP.part.metal>
0.0000

> <Gold.PLP.part.buried>
-4.2028

> <Gold.PLP.part.nonpolar>
-24.1291

> <Gold.PLP.part.repulsive>
0.5401

> <Gold.PLP.ligand.clash>
0.0000

> <Gold.PLP.ligand.torsion>
2.3906

> <Gold.PLP.Chemscore.Hbond>
4.3541

> <Gold.PLP.Chemscore.CHOScore>
0.9983

> <Gold.PLP.Chemscore.Metal>
0.0000

> <Gold.Chemscore.Hbonds>
donor molecule, donor type, donor heavy atom, donor atom, acceptor molecule, acceptor atom, score
      L1  H     3    32       P1  7921  1.00
      L1  H     5    56       P1 10957  2.00
      L1  H    20    43       P1  7957  0.47
      P1  H  7989  7998       L1    20  0.52
      P1  H  8011  8017       L1    20  0.13
      L1  C    11    39       P1 10175  0.84

> <Gold.PLP.Chemscore.Internal.Correction>
0.5245

> <Gold.Rescore>
     Score         DG    S(hbond)    S(metal)    S(lipo)     H(rot)  DE(clash)    DE(int)     intcor
     11.31     -13.76       2.62        0.00      69.62       3.36       0.26       2.19       ----

> <Gold.Chemscore.Fitness>
11.3090

> <Gold.Chemscore.DG>
-13.7565

> <Gold.Chemscore.ZeroCoef>
-5.4800

> <Gold.Chemscore.Hbond>
2.6153

> <Gold.Chemscore.Metal>
0.0000

> <Gold.Chemscore.Lipo>
69.6238

> <Gold.Chemscore.Internal_Hbond>
0.0000

> <Gold.Chemscore.DEClash>
0.2556

> <Gold.Chemscore.DEInternal>
2.1919

> <Gold.Chemscore.Rot>
3.3611

> <Gold.Chemscore.Internal.Correction>
   9.000000E+99

> <Gold.Chemscore.Hbonds>
donor molecule, donor type, donor heavy atom, donor atom, acceptor molecule, acceptor atom, score
      L1  H     3    32       P1  7921  1.00
      L1  H     5    56       P1 10957  0.79
      L1  H    20    43       P1  7957  0.47
      P1  H  7989  7998       L1    20  0.10

> <Gold.Chemscore.Hbond.Weighted>
-8.7351

> <Gold.Chemscore.Metal.Weighted>
-0.0000

> <Gold.Chemscore.Lipo.Weighted>
-8.1460

> <Gold.Chemscore.Internal_Hbond.Weighted>
0.0000

> <Gold.Chemscore.DEClash.Weighted>
0.2556

> <Gold.Chemscore.DEInternal.Weighted>
2.1919

> <Gold.Chemscore.Rot.Weighted>
8.6045

> <Gold.Chemscore.Internal.Correction.Weighted>
   9.000000E+99

> <Gold.Protein.RotatedTorsions>
[ 6907 6896 6895 6894 ] final   23.72 input  -60.11 | X-H torsion
[ 7974 7965 7964 7962 ] final   41.87 input  175.53 | X-H torsion
[ 8008 7997 7996 7995 ] final  -27.66 input   59.86 | X-H torsion
[ 10167 10162 10161 10158 ] final   27.87 input  -65.29 | X-H torsion
[ 10718 10713 10712 10709 ] final  159.39 input   66.30 | X-H torsion
[ 10763 10752 10751 10750 ] final  173.65 input  -60.55 | X-H torsion
[ 11005 11000 10999 10996 ] final  102.79 input  -57.11 | X-H torsion

> <Gold.Protein.ActiveResidues>
 VAL166  LYS551  ARG553  GLY616  TRP617  ASP618  TYR619  PRO620  LYS621  CYS622 
 ASP623  PHE694  ASN695  SER759  ASP760  ASP761  ALA762  ILE779  LEU786  VAL792 
 PHE793  MET794  SER795  GLU796  ALA797  LYS798  CYS799  TRP800  GLU811  SER814 

> <Gold.Protein.RotatedAtoms>
  151.9466  135.0189  160.0539 H   0  0  0  0  0  0  0  0  0  0  0  0  # atno 6907 bound_to 6896
  152.1990  133.4822  159.5056 H   0  0  0  0  0  0  0  0  0  0  0  0  # atno 6908 bound_to 6896
  150.6950  134.1532  159.4191 H   0  0  0  0  0  0  0  0  0  0  0  0  # atno 6909 bound_to 6896
  146.0788  139.5366  142.9550 H   0  0  0  0  0  0  0  0  0  0  0  0  # atno 7974 bound_to 7965
  154.4367  140.1866  156.0967 H   0  0  0  0  0  0  0  0  0  0  0  0  # atno 8008 bound_to 7997
  156.0324  140.3329  155.7128 H   0  0  0  0  0  0  0  0  0  0  0  0  # atno 8009 bound_to 7997
  155.5820  140.0622  157.2771 H   0  0  0  0  0  0  0  0  0  0  0  0  # atno 8010 bound_to 7997
  140.4901  144.0480  150.6294 H   0  0  0  0  0  0  0  0  0  0  0  0  # atno 10167 bound_to 10162
  157.1649  131.0596  151.2213 H   0  0  0  0  0  0  0  0  0  0  0  0  # atno 10718 bound_to 10713
  154.4431  135.2762  155.1834 H   0  0  0  0  0  0  0  0  0  0  0  0  # atno 10763 bound_to 10752
  154.3692  135.6112  153.5734 H   0  0  0  0  0  0  0  0  0  0  0  0  # atno 10764 bound_to 10752
  152.9842  135.5853  154.4762 H   0  0  0  0  0  0  0  0  0  0  0  0  # atno 10765 bound_to 10752
  139.8779  134.9238  156.5111 H   0  0  0  0  0  0  0  0  0  0  0  0  # atno 11005 bound_to 11000
  145.6257  141.0314  143.1891 LP  0  0  0  0  0  0  0  0  0  0  0  0  # atno 17320 bound_to 7965
  144.7279  139.7817  143.7358 LP  0  0  0  0  0  0  0  0  0  0  0  0  # atno 17321 bound_to 7965
  140.3747  143.2835  152.0239 LP  0  0  0  0  0  0  0  0  0  0  0  0  # atno 17342 bound_to 10162
  139.4849  144.6202  151.7269 LP  0  0  0  0  0  0  0  0  0  0  0  0  # atno 17343 bound_to 10162
  157.4098  130.7379  149.6830 LP  0  0  0  0  0  0  0  0  0  0  0  0  # atno 17370 bound_to 10713
  155.9748  130.4098  150.3899 LP  0  0  0  0  0  0  0  0  0  0  0  0  # atno 17371 bound_to 10713
  140.8519  133.8125  155.9177 LP  0  0  0  0  0  0  0  0  0  0  0  0  # atno 17394 bound_to 11000
  140.9135  134.2230  157.4971 LP  0  0  0  0  0  0  0  0  0  0  0  0  # atno 17395 bound_to 11000

$$$$
