AV-unprocessed.smi:1760|AV-procd|sdf|7091|dock10
  -GOLD-   22720 8313D 1   1.00000     0.00000
 Structure written by MMmdl.
 43 45  0  0  0  0  0  0  0  0  1 V2000
  153.9627  137.8484  160.0509 O   0  0  0  0  0  0  0  0  0  0  0  0
  154.3177  138.3180  161.1317 C   0  0  0  0  0  0  0  0  0  0  0  0
  154.7194  137.6095  162.2033 N   0  0  0  0  0  0  0  0  0  0  0  0
  154.8548  136.2187  162.3520 C   0  0  0  0  0  0  0  0  0  0  0  0
  154.5009  135.5164  163.4604 C   0  0  0  0  0  0  0  0  0  0  0  0
  154.6613  134.0743  163.5438 C   0  0  0  0  0  0  0  0  0  0  0  0
  154.3360  133.3097  164.8177 C   0  0  0  0  0  0  0  0  0  0  0  0
  155.4373  132.8004  165.3714 F   0  0  0  0  0  0  0  0  0  0  0  0
  153.7449  134.1009  165.7130 F   0  0  0  0  0  0  0  0  0  0  0  0
  153.5073  132.3038  164.5418 F   0  0  0  0  0  0  0  0  0  0  0  0
  155.1901  133.4657  162.4663 C   0  0  0  0  0  0  0  0  0  0  0  0
  155.5348  134.1768  161.3149 N   0  0  0  0  0  0  0  0  0  0  0  0
  155.4001  135.5150  161.1791 C   0  0  0  0  0  0  0  0  0  0  0  0
  155.7246  136.0681  160.1288 O   0  0  0  0  0  0  0  0  0  0  0  0
  154.3296  139.6318  161.3994 N   0  0  0  0  0  0  0  0  0  0  0  0
  153.9240  140.6957  160.4843 C   0  0  0  0  0  0  0  0  0  0  0  0
  153.6455  141.9897  161.2647 C   0  0  0  0  0  0  0  0  0  0  0  0
  153.0686  143.0762  160.3402 C   0  0  0  0  0  0  0  0  0  0  0  0
  151.8351  142.6017  159.7120 N   0  0  0  0  0  0  0  0  0  0  0  0
  151.2903  143.6633  158.8818 C   0  0  0  0  0  0  0  0  0  0  0  0
  152.2703  144.5734  158.1773 C   0  0  0  0  0  0  0  0  0  0  0  0
  151.4791  145.0859  159.3563 C   0  0  0  0  0  0  0  0  0  0  0  0
  152.1209  141.4418  158.8671 C   0  0  0  0  0  0  0  0  0  0  0  0
  152.6559  140.2800  159.7225 C   0  0  0  0  0  0  0  0  0  0  0  0
  155.9070  133.6450  160.5411 H   0  0  0  0  0  0  0  0  0  0  0  0
  154.9154  138.1393  163.0404 H   0  0  0  0  0  0  0  0  0  0  0  0
  154.0670  136.0082  164.3154 H   0  0  0  0  0  0  0  0  0  0  0  0
  155.3910  132.4064  162.4033 H   0  0  0  0  0  0  0  0  0  0  0  0
  154.6323  139.9216  162.3178 H   0  0  0  0  0  0  0  0  0  0  0  0
  154.7095  140.8991  159.7541 H   0  0  0  0  0  0  0  0  0  0  0  0
  152.9419  141.7949  162.0758 H   0  0  0  0  0  0  0  0  0  0  0  0
  154.5633  142.3503  161.7303 H   0  0  0  0  0  0  0  0  0  0  0  0
  152.8583  143.9741  160.9226 H   0  0  0  0  0  0  0  0  0  0  0  0
  153.7987  143.3524  159.5775 H   0  0  0  0  0  0  0  0  0  0  0  0
  150.3647  143.4744  158.3401 H   0  0  0  0  0  0  0  0  0  0  0  0
  153.3331  144.3925  158.3271 H   0  0  0  0  0  0  0  0  0  0  0  0
  151.9945  144.9371  157.1897 H   0  0  0  0  0  0  0  0  0  0  0  0
  150.6761  145.7919  159.1551 H   0  0  0  0  0  0  0  0  0  0  0  0
  152.0173  145.2460  160.2888 H   0  0  0  0  0  0  0  0  0  0  0  0
  151.2082  141.1281  158.3586 H   0  0  0  0  0  0  0  0  0  0  0  0
  152.8438  141.7069  158.0937 H   0  0  0  0  0  0  0  0  0  0  0  0
  152.8675  139.4201  159.0862 H   0  0  0  0  0  0  0  0  0  0  0  0
  151.8831  139.9632  160.4249 H   0  0  0  0  0  0  0  0  0  0  0  0
  1  2  2  0  0  0  0
  2  3  1  0  0  0  0
  2 15  1  0  0  0  0
  3  4  1  0  0  0  0
  3 26  1  0  0  0  0
  4 13  1  0  0  0  0
  4  5  2  0  0  0  0
  5  6  1  0  0  0  0
  5 27  1  0  0  0  0
  6  7  1  0  0  0  0
  6 11  2  0  0  0  0
  7  8  1  0  0  0  0
  7  9  1  0  0  0  0
  7 10  1  0  0  0  0
 11 12  1  0  0  0  0
 11 28  1  0  0  0  0
 12 25  1  0  0  0  0
 12 13  1  0  0  0  0
 13 14  2  0  0  0  0
 15 16  1  0  0  0  0
 15 29  1  0  0  0  0
 16 24  1  0  0  0  0
 16 17  1  0  0  0  0
 16 30  1  0  0  0  0
 17 18  1  0  0  0  0
 17 31  1  0  0  0  0
 17 32  1  0  0  0  0
 18 19  1  0  0  0  0
 18 33  1  0  0  0  0
 18 34  1  0  0  0  0
 19 20  1  0  0  0  0
 19 23  1  0  0  0  0
 20 22  1  0  0  0  0
 20 21  1  0  0  0  0
 20 35  1  0  0  0  0
 21 22  1  0  0  0  0
 21 36  1  0  0  0  0
 21 37  1  0  0  0  0
 22 38  1  0  0  0  0
 22 39  1  0  0  0  0
 23 24  1  0  0  0  0
 23 40  1  0  0  0  0
 23 41  1  0  0  0  0
 24 42  1  0  0  0  0
 24 43  1  0  0  0  0
M  END
> <s_m_source_file>
AV-unprocessed.smi

> <i_m_source_file_index>
1760

> <i_lp_mmshare_version>
43012

> <i_f3d_flags>
0

> <s_epik_input>
W0NIMl0xW0NIMl1bQ0hdMU4oW0NIMl1bQ0gyXTIpW0NIMl1bQ0gyXVtDSF0yW05IXUMoPU8pW05IXWMzW2NIXWMoQyhGKShGKUYpW2NIXVtuSF1jMz1P

> <s_epik_cmdline>
J2VwaWtfcHl0aG9uJywgJy1waCcsICc3LjAnLCAnLXRuJywgJzgnLCAnLW1hJywgJzIwMCcsICctbWV0YWxfYmluZGluZycsICctaW1hZScsICc8aW5maWxlLm1hZT4nLCAnLW9tYWUnLCAnPG91dGZpbGUubWFlPic=

> <r_lp_tautomer_probability>
0.999

> <r_epik_Ionization_Penalty>
0.980325

> <r_epik_Ionization_Penalty_Charging>
0.0037226

> <r_epik_Ionization_Penalty_Neutral>
0.976602

> <r_epik_State_Penalty>
1.02305

> <r_epik_Charging_Adjusted_Penalty>
1.02677

> <i_epik_Tot_Q>
0

> <i_epik_Tot_abs_Q>
0

> <r_epik_Metal_State_Penalty>
1.39928

> <b_epik_Metal_Only>
0

> <s_lp_Force_Field>
OPLS_2005

> <r_lp_Energy>
33.0511

> <b_lp_Chiralities_Consistent>
1

> <s_lp_Variant>
AV-unprocessed.smi:1760-3

> <Gold.Version>
5.8.1

> <Gold.Id.Protein>
6NUR|6NUR_protein|mol2

> <Gold.PLP.Fitness>
44.1657

> <Gold.PLP.PLP>
-45.7087

> <Gold.PLP.part.hbond>
0.0000

> <Gold.PLP.part.metal>
0.0000

> <Gold.PLP.part.buried>
-1.9799

> <Gold.PLP.part.nonpolar>
-43.7975

> <Gold.PLP.part.repulsive>
0.0515

> <Gold.PLP.ligand.clash>
0.2305

> <Gold.PLP.ligand.torsion>
1.2552

> <Gold.PLP.Chemscore.Hbond>
0.0000

> <Gold.PLP.Chemscore.CHOScore>
0.0000

> <Gold.PLP.Chemscore.Metal>
0.0000

> <Gold.PLP.Chemscore.Internal.Correction>
1.1980

> <Gold.Rescore>
     Score         DG    S(hbond)    S(metal)    S(lipo)     H(rot)  DE(clash)    DE(int)     intcor
      8.91     -16.42       0.00        0.00     121.33       1.27       0.93       6.58       ----

> <Gold.Chemscore.Fitness>
8.9075

> <Gold.Chemscore.DG>
-16.4161

> <Gold.Chemscore.ZeroCoef>
-5.4800

> <Gold.Chemscore.Hbond>
0.0000

> <Gold.Chemscore.Metal>
0.0000

> <Gold.Chemscore.Lipo>
121.3330

> <Gold.Chemscore.Internal_Hbond>
0.0000

> <Gold.Chemscore.DEClash>
0.9284

> <Gold.Chemscore.DEInternal>
6.5802

> <Gold.Chemscore.Rot>
1.2734

> <Gold.Chemscore.Internal.Correction>
   9.000000E+99

> <Gold.Chemscore.Hbond.Weighted>
-0.0000

> <Gold.Chemscore.Metal.Weighted>
-0.0000

> <Gold.Chemscore.Lipo.Weighted>
-14.1960

> <Gold.Chemscore.Internal_Hbond.Weighted>
0.0000

> <Gold.Chemscore.DEClash.Weighted>
0.9284

> <Gold.Chemscore.DEInternal.Weighted>
6.5802

> <Gold.Chemscore.Rot.Weighted>
3.2598

> <Gold.Chemscore.Internal.Correction.Weighted>
   9.000000E+99

> <Gold.Protein.RotatedTorsions>
[ 6907 6896 6895 6894 ] final   14.27 input  -60.11 | X-H torsion
[ 7974 7965 7964 7962 ] final  106.07 input  175.53 | X-H torsion
[ 8008 7997 7996 7995 ] final   74.08 input   59.86 | X-H torsion
[ 10167 10162 10161 10158 ] final   19.51 input  -65.29 | X-H torsion
[ 10718 10713 10712 10709 ] final   57.20 input   66.30 | X-H torsion
[ 10763 10752 10751 10750 ] final  -78.54 input  -60.55 | X-H torsion
[ 11005 11000 10999 10996 ] final   58.03 input  -57.11 | X-H torsion

> <Gold.Protein.ActiveResidues>
 VAL166  LYS551  ARG553  GLY616  TRP617  ASP618  TYR619  PRO620  LYS621  CYS622 
 ASP623  PHE694  ASN695  SER759  ASP760  ASP761  ALA762  ILE779  LEU786  VAL792 
 PHE793  MET794  SER795  GLU796  ALA797  LYS798  CYS799  TRP800  GLU811  SER814 

> <Gold.Protein.RotatedAtoms>
  151.7996  135.0712  160.0398 H   0  0  0  0  0  0  0  0  0  0  0  0  # atno 6907 bound_to 6896
  152.3098  133.5737  159.5682 H   0  0  0  0  0  0  0  0  0  0  0  0  # atno 6908 bound_to 6896
  150.7314  134.0085  159.3703 H   0  0  0  0  0  0  0  0  0  0  0  0  # atno 6909 bound_to 6896
  145.3115  139.2539  143.3760 H   0  0  0  0  0  0  0  0  0  0  0  0  # atno 7974 bound_to 7965
  155.7931  140.3478  155.5360 H   0  0  0  0  0  0  0  0  0  0  0  0  # atno 8008 bound_to 7997
  155.8614  140.0972  157.1631 H   0  0  0  0  0  0  0  0  0  0  0  0  # atno 8009 bound_to 7997
  154.4012  140.1358  156.3953 H   0  0  0  0  0  0  0  0  0  0  0  0  # atno 8010 bound_to 7997
  140.5573  143.9400  150.6618 H   0  0  0  0  0  0  0  0  0  0  0  0  # atno 10167 bound_to 10162
  157.5494  130.8755  149.8941 H   0  0  0  0  0  0  0  0  0  0  0  0  # atno 10718 bound_to 10713
  154.5272  135.5726  153.6729 H   0  0  0  0  0  0  0  0  0  0  0  0  # atno 10763 bound_to 10752
  152.9931  135.6196  154.2676 H   0  0  0  0  0  0  0  0  0  0  0  0  # atno 10764 bound_to 10752
  154.2600  135.2856  155.2761 H   0  0  0  0  0  0  0  0  0  0  0  0  # atno 10765 bound_to 10752
  140.0408  134.5876  155.9384 H   0  0  0  0  0  0  0  0  0  0  0  0  # atno 11005 bound_to 11000
  146.3116  140.3652  142.8668 LP  0  0  0  0  0  0  0  0  0  0  0  0  # atno 17320 bound_to 7965
  144.9012  140.7645  143.5866 LP  0  0  0  0  0  0  0  0  0  0  0  0  # atno 17321 bound_to 7965
  140.2842  143.3368  152.1123 LP  0  0  0  0  0  0  0  0  0  0  0  0  # atno 17342 bound_to 10162
  139.5054  144.6794  151.6047 LP  0  0  0  0  0  0  0  0  0  0  0  0  # atno 17343 bound_to 10162
  156.0564  130.3708  150.1082 LP  0  0  0  0  0  0  0  0  0  0  0  0  # atno 17370 bound_to 10713
  156.9256  130.9697  151.3541 LP  0  0  0  0  0  0  0  0  0  0  0  0  # atno 17371 bound_to 10713
  141.1882  133.6562  156.5314 LP  0  0  0  0  0  0  0  0  0  0  0  0  # atno 17394 bound_to 11000
  140.4072  134.7304  157.4815 LP  0  0  0  0  0  0  0  0  0  0  0  0  # atno 17395 bound_to 11000

$$$$
