AV-unprocessed.smi:215|AV-procd|sdf|1650|dock1
  -GOLD-   2262020 33D 1   1.00000     0.00000
 Structure written by MMmdl.
 59 62  0  0  0  0  0  0  0  0  2 V2000
  145.8856  132.1405  159.4696 C   0  0  0  0  0  0  0  0  0  0  0  0
  147.1559  132.9253  159.0784 C   0  0  2  0  0  0  0  0  0  0  0  0
  147.6638  134.0073  160.0631 C   0  0  2  0  0  0  0  0  0  0  0  0
  146.6930  134.4066  161.1278 N   0  3  2  0  0  0  0  0  0  0  0  0
  146.8873  135.7773  161.6709 C   0  0  0  0  0  0  0  0  0  0  0  0
  146.5512  133.3764  162.1914 C   0  0  0  0  0  0  0  0  0  0  0  0
  145.1545  133.3651  162.8374 C   0  0  0  0  0  0  0  0  0  0  0  0
  144.2796  132.5480  162.0888 O   0  0  0  0  0  0  0  0  0  0  0  0
  148.1771  135.1564  159.1700 C   0  0  0  0  0  0  0  0  0  0  0  0
  148.1929  134.5430  157.7709 C   0  0  0  0  0  0  0  0  0  0  0  0
  147.0979  133.5830  157.7773 N   0  0  0  0  0  0  0  0  0  0  0  0
  146.9987  132.7620  156.7055 C   0  0  0  0  0  0  0  0  0  0  0  0
  146.9015  131.4167  156.8734 N   0  0  0  0  0  0  0  0  0  0  0  0
  146.7834  130.6178  155.8083 C   0  0  0  0  0  0  0  0  0  0  0  0
  146.7427  130.9499  154.5160 N   0  0  0  0  0  0  0  0  0  0  0  0
  146.8440  132.2996  154.3448 C   0  0  0  0  0  0  0  0  0  0  0  0
  146.9674  133.2681  155.3792 C   0  0  0  0  0  0  0  0  0  0  0  0
  147.0232  134.5438  154.8351 N   0  0  0  0  0  0  0  0  0  0  0  0
  146.9280  134.3418  153.5491 C   0  0  0  0  0  0  0  0  0  0  0  0
  146.8508  133.0205  153.1620 N   0  0  0  0  0  0  0  0  0  0  0  0
  146.7066  132.5078  151.8251 C   0  0  0  0  0  0  0  0  0  0  0  0
  146.1335  133.3981  150.7156 C   0  0  0  0  0  0  0  0  0  0  0  0
  144.7756  132.6729  150.8233 C   0  0  0  0  0  0  0  0  0  0  0  0
  143.7483  133.3459  151.7563 C   0  0  0  0  0  0  0  0  0  0  0  0
  143.2783  134.5643  151.2151 O   0  0  0  0  0  0  0  0  0  0  0  0
  144.0978  132.3432  149.4828 C   0  0  0  0  0  0  0  0  0  0  0  0
  143.6710  133.5167  148.8205 O   0  0  0  0  0  0  0  0  0  0  0  0
  145.5880  131.5233  151.4581 C   0  0  0  0  0  0  0  0  0  0  0  0
  147.9532  132.1830  159.0019 H   0  0  0  0  0  0  0  0  0  0  0  0
  148.5244  133.5559  160.5590 H   0  0  0  0  0  0  0  0  0  0  0  0
  145.9756  131.7285  160.4749 H   0  0  0  0  0  0  0  0  0  0  0  0
  145.7239  131.2990  158.7957 H   0  0  0  0  0  0  0  0  0  0  0  0
  144.9873  132.7548  159.4358 H   0  0  0  0  0  0  0  0  0  0  0  0
  147.6236  135.7889  162.4751 H   0  0  0  0  0  0  0  0  0  0  0  0
  145.9506  136.1638  162.0717 H   0  0  0  0  0  0  0  0  0  0  0  0
  147.2225  136.4780  160.9069 H   0  0  0  0  0  0  0  0  0  0  0  0
  146.7405  132.3845  161.7792 H   0  0  0  0  0  0  0  0  0  0  0  0
  147.3140  133.5410  162.9537 H   0  0  0  0  0  0  0  0  0  0  0  0
  145.2203  132.9574  163.8465 H   0  0  0  0  0  0  0  0  0  0  0  0
  144.7371  134.3669  162.9336 H   0  0  0  0  0  0  0  0  0  0  0  0
  143.6038  132.2219  162.6645 H   0  0  0  0  0  0  0  0  0  0  0  0
  147.5127  136.0185  159.1645 H   0  0  0  0  0  0  0  0  0  0  0  0
  149.1620  135.5120  159.4739 H   0  0  0  0  0  0  0  0  0  0  0  0
  148.0572  135.2986  156.9963 H   0  0  0  0  0  0  0  0  0  0  0  0
  149.1479  134.0445  157.5977 H   0  0  0  0  0  0  0  0  0  0  0  0
  146.7118  129.5614  156.0214 H   0  0  0  0  0  0  0  0  0  0  0  0
  146.9177  135.1644  152.8497 H   0  0  0  0  0  0  0  0  0  0  0  0
  147.6866  132.1142  151.5524 H   0  0  0  0  0  0  0  0  0  0  0  0
  146.0895  134.4627  150.9463 H   0  0  0  0  0  0  0  0  0  0  0  0
  146.6288  133.2320  149.7571 H   0  0  0  0  0  0  0  0  0  0  0  0
  142.8847  132.7025  151.9233 H   0  0  0  0  0  0  0  0  0  0  0  0
  144.1711  133.5400  152.7423 H   0  0  0  0  0  0  0  0  0  0  0  0
  142.5836  134.3724  150.6038 H   0  0  0  0  0  0  0  0  0  0  0  0
  144.7867  131.8202  148.8189 H   0  0  0  0  0  0  0  0  0  0  0  0
  143.2426  131.6806  149.6173 H   0  0  0  0  0  0  0  0  0  0  0  0
  144.3434  133.7783  148.2102 H   0  0  0  0  0  0  0  0  0  0  0  0
  145.9198  130.7856  150.7251 H   0  0  0  0  0  0  0  0  0  0  0  0
  145.0948  131.0283  152.2937 H   0  0  0  0  0  0  0  0  0  0  0  0
  145.7983  134.4198  160.6586 H   0  0  0  0  0  0  0  0  0  0  0  0
  1  2  1  0  0  0  0
  1 31  1  0  0  0  0
  1 32  1  0  0  0  0
  1 33  1  0  0  0  0
  2 29  1  0  0  0  0
  2 11  1  0  0  0  0
  2  3  1  0  0  0  0
  3 30  1  0  0  0  0
  3  4  1  0  0  0  0
  3  9  1  0  0  0  0
  4  5  1  0  0  0  0
  4  6  1  0  0  0  0
  4 59  1  0  0  0  0
  5 34  1  0  0  0  0
  5 35  1  0  0  0  0
  5 36  1  0  0  0  0
  6  7  1  0  0  0  0
  6 37  1  0  0  0  0
  6 38  1  0  0  0  0
  7  8  1  0  0  0  0
  7 39  1  0  0  0  0
  7 40  1  0  0  0  0
  8 41  1  0  0  0  0
  9 10  1  0  0  0  0
  9 42  1  0  0  0  0
  9 43  1  0  0  0  0
 10 11  1  0  0  0  0
 10 44  1  0  0  0  0
 10 45  1  0  0  0  0
 11 12  1  0  0  0  0
 12 17  1  0  0  0  0
 12 13  2  0  0  0  0
 13 14  1  0  0  0  0
 14 15  2  0  0  0  0
 14 46  1  0  0  0  0
 15 16  1  0  0  0  0
 16 20  1  0  0  0  0
 16 17  2  0  0  0  0
 17 18  1  0  0  0  0
 18 19  2  0  0  0  0
 19 20  1  0  0  0  0
 19 47  1  0  0  0  0
 20 21  1  0  0  0  0
 21 28  1  0  0  0  0
 21 22  1  0  0  0  0
 21 48  1  0  0  0  0
 22 23  1  0  0  0  0
 22 49  1  0  0  0  0
 22 50  1  0  0  0  0
 23 24  1  0  0  0  0
 23 26  1  0  0  0  0
 23 28  1  0  0  0  0
 24 25  1  0  0  0  0
 24 51  1  0  0  0  0
 24 52  1  0  0  0  0
 25 53  1  0  0  0  0
 26 27  1  0  0  0  0
 26 54  1  0  0  0  0
 26 55  1  0  0  0  0
 27 56  1  0  0  0  0
 28 57  1  0  0  0  0
 28 58  1  0  0  0  0
M  CHG  1   4   1
M  END
> <s_m_source_file>
AV-unprocessed.smi

> <i_m_source_file_index>
215

> <i_lp_mmshare_version>
43012

> <i_f3d_flags>
0

> <s_epik_input>
W09IXVtDSDJdW0NIMl1OKFtDSDNdKVtDQEBIXShbQ0BIXTFbQ0gzXSlbQ0gyXVtDSDJdTjFjKG5bY0hdbjIpYyhjMjMpbltjSF1uM1tDSF0oW0NIMl00KVtDSDJdQzQoW0NIMl1bT0hdKVtDSDJdW09IXQ==

> <s_epik_cmdline>
J2VwaWtfcHl0aG9uJywgJy1waCcsICc3LjAnLCAnLXRuJywgJzgnLCAnLW1hJywgJzIwMCcsICctbWV0YWxfYmluZGluZycsICctaW1hZScsICc8aW5maWxlLm1hZT4nLCAnLW9tYWUnLCAnPG91dGZpbGUubWFlPic=

> <r_lp_tautomer_probability>
1

> <r_epik_Ionization_Penalty>
0.0036237

> <r_epik_Ionization_Penalty_Charging>
0.0032725

> <r_epik_Ionization_Penalty_Neutral>
0.000351196

> <r_epik_State_Penalty>
-0

> <r_epik_Charging_Adjusted_Penalty>
0.0032725

> <i_epik_Tot_Q>
1

> <i_epik_Tot_abs_Q>
1

> <r_epik_Metal_State_Penalty>
-0

> <b_epik_Metal_Only>
0

> <s_lp_Force_Field>
OPLS_2005

> <r_lp_Energy>
76.3744

> <b_lp_Chiralities_Consistent>
1

> <s_lp_Variant>
AV-unprocessed.smi:215-1

> <Gold.Version>
5.8.1

> <Gold.Id.Protein>
6NUR|6NUR_protein|mol2

> <Gold.PLP.Fitness>
44.1670

> <Gold.PLP.PLP>
-37.1461

> <Gold.PLP.part.hbond>
-3.6492

> <Gold.PLP.part.metal>
0.0000

> <Gold.PLP.part.buried>
-5.6740

> <Gold.PLP.part.nonpolar>
-27.7118

> <Gold.PLP.part.repulsive>
0.2523

> <Gold.PLP.ligand.clash>
0.0000

> <Gold.PLP.ligand.torsion>
1.4819

> <Gold.PLP.Chemscore.Hbond>
2.0000

> <Gold.PLP.Chemscore.CHOScore>
1.0000

> <Gold.PLP.Chemscore.Metal>
0.0000

> <Gold.Chemscore.Hbonds>
donor molecule, donor type, donor heavy atom, donor atom, acceptor molecule, acceptor atom, score
      L1  H    25    53       P1 10186  1.00
      L1  H    27    56       P1  7921  0.76
      L1  C    19    47       P1  7948  0.90

> <Gold.PLP.Chemscore.Internal.Correction>
0.9847

> <Gold.Rescore>
     Score         DG    S(hbond)    S(metal)    S(lipo)     H(rot)  DE(clash)    DE(int)     intcor
      5.96      -8.77       1.83        0.00      81.10       4.81       0.04       2.77       ----

> <Gold.Chemscore.Fitness>
5.9572

> <Gold.Chemscore.DG>
-8.7658

> <Gold.Chemscore.ZeroCoef>
-5.4800

> <Gold.Chemscore.Hbond>
1.8292

> <Gold.Chemscore.Metal>
0.0000

> <Gold.Chemscore.Lipo>
81.1045

> <Gold.Chemscore.Internal_Hbond>
0.0000

> <Gold.Chemscore.DEClash>
0.0406

> <Gold.Chemscore.DEInternal>
2.7680

> <Gold.Chemscore.Rot>
4.8098

> <Gold.Chemscore.Internal.Correction>
   9.000000E+99

> <Gold.Chemscore.Hbonds>
donor molecule, donor type, donor heavy atom, donor atom, acceptor molecule, acceptor atom, score
      L1  H    25    53       P1 10186  0.45
      L1  H    27    56       P1  7921  0.73

> <Gold.Chemscore.Hbond.Weighted>
-6.1096

> <Gold.Chemscore.Metal.Weighted>
-0.0000

> <Gold.Chemscore.Lipo.Weighted>
-9.4892

> <Gold.Chemscore.Internal_Hbond.Weighted>
0.0000

> <Gold.Chemscore.DEClash.Weighted>
0.0406

> <Gold.Chemscore.DEInternal.Weighted>
2.7680

> <Gold.Chemscore.Rot.Weighted>
12.3130

> <Gold.Chemscore.Internal.Correction.Weighted>
   9.000000E+99

> <Gold.Protein.RotatedTorsions>
[ 6907 6896 6895 6894 ] final  -56.26 input  -60.11 | X-H torsion
[ 7974 7965 7964 7962 ] final   88.11 input  175.53 | X-H torsion
[ 8008 7997 7996 7995 ] final -132.13 input   59.86 | X-H torsion
[ 10167 10162 10161 10158 ] final  175.09 input  -65.29 | X-H torsion
[ 10718 10713 10712 10709 ] final  -89.84 input   66.30 | X-H torsion
[ 10763 10752 10751 10750 ] final  112.19 input  -60.55 | X-H torsion
[ 11005 11000 10999 10996 ] final    3.75 input  -57.11 | X-H torsion

> <Gold.Protein.ActiveResidues>
 VAL166  LYS551  ARG553  GLY616  TRP617  ASP618  TYR619  PRO620  LYS621  CYS622 
 ASP623  PHE694  ASN695  SER759  ASP760  ASP761  ALA762  ILE779  LEU786  VAL792 
 PHE793  MET794  SER795  GLU796  ALA797  LYS798  CYS799  TRP800  GLU811  SER814 

> <Gold.Protein.RotatedAtoms>
  150.8182  134.7376  159.6748 H   0  0  0  0  0  0  0  0  0  0  0  0  # atno 6907 bound_to 6896
  152.4300  134.5793  159.9953 H   0  0  0  0  0  0  0  0  0  0  0  0  # atno 6908 bound_to 6896
  151.5984  133.3321  159.3078 H   0  0  0  0  0  0  0  0  0  0  0  0  # atno 6909 bound_to 6896
  145.5501  139.2295  143.2518 H   0  0  0  0  0  0  0  0  0  0  0  0  # atno 7974 bound_to 7965
  155.3238  140.0463  157.3040 H   0  0  0  0  0  0  0  0  0  0  0  0  # atno 8008 bound_to 7997
  154.5365  140.2274  155.8679 H   0  0  0  0  0  0  0  0  0  0  0  0  # atno 8009 bound_to 7997
  156.1840  140.3067  155.9209 H   0  0  0  0  0  0  0  0  0  0  0  0  # atno 8010 bound_to 7997
  139.5165  144.3071  152.0325 H   0  0  0  0  0  0  0  0  0  0  0  0  # atno 10167 bound_to 10162
  155.9985  130.4887  150.5233 H   0  0  0  0  0  0  0  0  0  0  0  0  # atno 10718 bound_to 10713
  153.4742  135.3694  155.2407 H   0  0  0  0  0  0  0  0  0  0  0  0  # atno 10763 bound_to 10752
  154.8756  135.3939  154.3776 H   0  0  0  0  0  0  0  0  0  0  0  0  # atno 10764 bound_to 10752
  153.4369  135.7083  153.6259 H   0  0  0  0  0  0  0  0  0  0  0  0  # atno 10765 bound_to 10752
  140.5896  133.9936  155.8083 H   0  0  0  0  0  0  0  0  0  0  0  0  # atno 11005 bound_to 11000
  146.1923  140.6323  142.9140 LP  0  0  0  0  0  0  0  0  0  0  0  0  # atno 17320 bound_to 7965
  144.7534  140.5247  143.6786 LP  0  0  0  0  0  0  0  0  0  0  0  0  # atno 17321 bound_to 7965
  140.2517  144.4162  150.6219 LP  0  0  0  0  0  0  0  0  0  0  0  0  # atno 17342 bound_to 10162
  140.6220  143.2177  151.6675 LP  0  0  0  0  0  0  0  0  0  0  0  0  # atno 17343 bound_to 10162
  157.3191  131.0678  151.1945 LP  0  0  0  0  0  0  0  0  0  0  0  0  # atno 17370 bound_to 10713
  157.2864  130.6775  149.6092 LP  0  0  0  0  0  0  0  0  0  0  0  0  # atno 17371 bound_to 10713
  141.0943  133.9868  157.3186 LP  0  0  0  0  0  0  0  0  0  0  0  0  # atno 17394 bound_to 11000
  139.9280  135.0201  156.8301 LP  0  0  0  0  0  0  0  0  0  0  0  0  # atno 17395 bound_to 11000

$$$$
