AV-unprocessed.smi:158|AV-procd|sdf|1327|dock5
  -GOLD-   2262019 23D 1   1.00000     0.00000
 Structure written by MMmdl.
 31 33  0  0  0  0  0  0  0  0  1 V2000
  154.6579  137.3908  156.4536 N   0  0  0  0  0  0  0  0  0  0  0  0
  153.6750  138.1967  156.8799 C   0  0  0  0  0  0  0  0  0  0  0  0
  153.8918  138.9466  157.9849 N   0  0  0  0  0  0  0  0  0  0  0  0
  152.9378  139.7668  158.4402 C   0  0  0  0  0  0  0  0  0  0  0  0
  153.3147  140.6762  159.8559 Cl  0  0  0  0  0  0  0  0  0  0  0  0
  151.7219  139.9610  157.9214 N   0  0  0  0  0  0  0  0  0  0  0  0
  151.4912  139.2028  156.8101 C   0  0  0  0  0  0  0  0  0  0  0  0
  152.4219  138.2998  156.2274 C   0  0  0  0  0  0  0  0  0  0  0  0
  151.8673  137.7036  155.1046 N   0  0  0  0  0  0  0  0  0  0  0  0
  150.6735  138.2267  155.0323 C   0  0  0  0  0  0  0  0  0  0  0  0
  150.3555  139.1326  156.0219 N   0  0  0  0  0  0  0  0  0  0  0  0
  149.0554  139.8737  156.1690 C   0  0  2  0  0  0  0  0  0  0  0  0
  148.0635  139.2163  155.4337 O   0  0  0  0  0  0  0  0  0  0  0  0
  147.5226  140.0815  154.4328 C   0  0  2  0  0  0  0  0  0  0  0  0
  147.0481  139.2992  153.1947 C   0  0  0  0  0  0  0  0  0  0  0  0
  146.7957  140.1855  152.1248 O   0  0  0  0  0  0  0  0  0  0  0  0
  148.5837  141.1697  154.2088 C   0  0  2  0  0  0  0  0  0  0  0  0
  149.5666  140.7699  153.2711 O   0  0  0  0  0  0  0  0  0  0  0  0
  149.1517  141.3020  155.6097 C   0  0  2  0  0  0  0  0  0  0  0  0
  150.3858  141.8097  155.6606 F   0  0  0  0  0  0  0  0  0  0  0  0
  148.8488  139.8381  157.2392 H   0  0  0  0  0  0  0  0  0  0  0  0
  146.6536  140.5526  154.8960 H   0  0  0  0  0  0  0  0  0  0  0  0
  148.1392  142.1030  153.8615 H   0  0  0  0  0  0  0  0  0  0  0  0
  148.5086  141.9443  156.2126 H   0  0  0  0  0  0  0  0  0  0  0  0
  154.5194  136.8219  155.6306 H   0  0  0  0  0  0  0  0  0  0  0  0
  155.5329  137.3523  156.9560 H   0  0  0  0  0  0  0  0  0  0  0  0
  149.9787  137.9587  154.2496 H   0  0  0  0  0  0  0  0  0  0  0  0
  147.7720  138.5465  152.8839 H   0  0  0  0  0  0  0  0  0  0  0  0
  146.1225  138.7709  153.4242 H   0  0  0  0  0  0  0  0  0  0  0  0
  147.5903  140.2822  151.6221 H   0  0  0  0  0  0  0  0  0  0  0  0
  149.1500  140.2413  152.6077 H   0  0  0  0  0  0  0  0  0  0  0  0
  1  2  1  0  0  0  0
  1 25  1  0  0  0  0
  1 26  1  0  0  0  0
  2  8  1  0  0  0  0
  2  3  2  0  0  0  0
  3  4  1  0  0  0  0
  4  5  1  0  0  0  0
  4  6  2  0  0  0  0
  6  7  1  0  0  0  0
  7 11  1  0  0  0  0
  7  8  2  0  0  0  0
  8  9  1  0  0  0  0
  9 10  2  0  0  0  0
 10 11  1  0  0  0  0
 10 27  1  0  0  0  0
 11 12  1  0  0  0  0
 12 21  1  0  0  0  0
 12 19  1  0  0  0  0
 12 13  1  0  0  0  0
 13 14  1  0  0  0  0
 14 22  1  0  0  0  0
 14 15  1  0  0  0  0
 14 17  1  0  0  0  0
 15 16  1  0  0  0  0
 15 28  1  0  0  0  0
 15 29  1  0  0  0  0
 16 30  1  0  0  0  0
 17 23  1  0  0  0  0
 17 18  1  0  0  0  0
 17 19  1  0  0  0  0
 18 31  1  0  0  0  0
 19 24  1  0  0  0  0
 19 20  1  0  0  0  0
M  END
> <s_m_source_file>
AV-unprocessed.smi

> <i_m_source_file_index>
158

> <i_lp_mmshare_version>
43012

> <i_f3d_flags>
0

> <s_epik_input>
Q2xjKG4xKW5jKFtOSDJdKWMoYzEyKW5bY0hdbjJbQ0BASF0zT1tDQEhdKFtDSDJdW09IXSlbQ0BASF0oW09IXSlbQ0BASF0zRg==

> <s_epik_cmdline>
J2VwaWtfcHl0aG9uJywgJy1waCcsICc3LjAnLCAnLXRuJywgJzgnLCAnLW1hJywgJzIwMCcsICctbWV0YWxfYmluZGluZycsICctaW1hZScsICc8aW5maWxlLm1hZT4nLCAnLW9tYWUnLCAnPG91dGZpbGUubWFlPic=

> <r_lp_tautomer_probability>
1

> <r_epik_Ionization_Penalty>
6.51543e-05

> <r_epik_Ionization_Penalty_Charging>
0

> <r_epik_Ionization_Penalty_Neutral>
6.51543e-05

> <r_epik_State_Penalty>
-0

> <r_epik_Charging_Adjusted_Penalty>
0

> <i_epik_Tot_Q>
0

> <i_epik_Tot_abs_Q>
0

> <r_epik_Metal_State_Penalty>
-0

> <b_epik_Metal_Only>
0

> <s_epik_Chemistry_Notes>
This compound contains an acetal/aminal-like group ( X-CH(R)-Y where X, Y are N, S, or O) that may be acid/base labile, releasing an aldehyde.

> <s_lp_Force_Field>
OPLS_2005

> <r_lp_Energy>
41.2985

> <b_lp_Chiralities_Consistent>
1

> <s_lp_Variant>
AV-unprocessed.smi:158-5

> <Gold.Version>
5.8.1

> <Gold.Id.Protein>
6NUR|6NUR_protein|mol2

> <Gold.PLP.Fitness>
35.3378

> <Gold.PLP.PLP>
-24.8994

> <Gold.PLP.part.hbond>
-4.8472

> <Gold.PLP.part.metal>
0.0000

> <Gold.PLP.part.buried>
-2.4597

> <Gold.PLP.part.nonpolar>
-17.7414

> <Gold.PLP.part.repulsive>
0.6638

> <Gold.PLP.ligand.clash>
0.0000

> <Gold.PLP.ligand.torsion>
0.6412

> <Gold.PLP.Chemscore.Hbond>
3.6320

> <Gold.PLP.Chemscore.CHOScore>
0.0000

> <Gold.PLP.Chemscore.Metal>
0.0000

> <Gold.Chemscore.Hbonds>
donor molecule, donor type, donor heavy atom, donor atom, acceptor molecule, acceptor atom, score
      L1  H    16    30       P1  7957  0.96
      L1  H    18    31       P1  7957  0.54
      P1  H  7989  7998       L1    18  0.27
      P1  H  7997  8009       L1     3  0.80
      P1  H  8011  8017       L1    18  1.00

> <Gold.PLP.Chemscore.Internal.Correction>
0.8248

> <Gold.Rescore>
     Score         DG    S(hbond)    S(metal)    S(lipo)     H(rot)  DE(clash)    DE(int)     intcor
      9.14      -9.91       2.47        0.00      35.79       3.12       0.00       0.77       ----

> <Gold.Chemscore.Fitness>
9.1424

> <Gold.Chemscore.DG>
-9.9122

> <Gold.Chemscore.ZeroCoef>
-5.4800

> <Gold.Chemscore.Hbond>
2.4670

> <Gold.Chemscore.Metal>
0.0000

> <Gold.Chemscore.Lipo>
35.7887

> <Gold.Chemscore.Internal_Hbond>
0.0000

> <Gold.Chemscore.DEClash>
0.0038

> <Gold.Chemscore.DEInternal>
0.7660

> <Gold.Chemscore.Rot>
3.1230

> <Gold.Chemscore.Internal.Correction>
   9.000000E+99

> <Gold.Chemscore.Hbonds>
donor molecule, donor type, donor heavy atom, donor atom, acceptor molecule, acceptor atom, score
      L1  H    16    30       P1  7957  0.90
      L1  H    18    31       P1  7957  0.50
      P1  H  7989  7998       L1    18  0.24
      P1  H  7997  8009       L1     3  0.04
      P1  H  8011  8017       L1    18  0.08

> <Gold.Chemscore.Hbond.Weighted>
-8.2398

> <Gold.Chemscore.Metal.Weighted>
-0.0000

> <Gold.Chemscore.Lipo.Weighted>
-4.1873

> <Gold.Chemscore.Internal_Hbond.Weighted>
0.0000

> <Gold.Chemscore.DEClash.Weighted>
0.0038

> <Gold.Chemscore.DEInternal.Weighted>
0.7660

> <Gold.Chemscore.Rot.Weighted>
7.9950

> <Gold.Chemscore.Internal.Correction.Weighted>
   9.000000E+99

> <Gold.Protein.RotatedTorsions>
[ 6907 6896 6895 6894 ] final  167.18 input  -60.11 | X-H torsion
[ 7974 7965 7964 7962 ] final  110.01 input  175.53 | X-H torsion
[ 8008 7997 7996 7995 ] final  128.40 input   59.86 | X-H torsion
[ 10167 10162 10161 10158 ] final   37.22 input  -65.29 | X-H torsion
[ 10718 10713 10712 10709 ] final  151.46 input   66.30 | X-H torsion
[ 10763 10752 10751 10750 ] final  144.79 input  -60.55 | X-H torsion
[ 11005 11000 10999 10996 ] final  -98.92 input  -57.11 | X-H torsion

> <Gold.Protein.ActiveResidues>
 VAL166  LYS551  ARG553  GLY616  TRP617  ASP618  TYR619  PRO620  LYS621  CYS622 
 ASP623  PHE694  ASN695  SER759  ASP760  ASP761  ALA762  ILE779  LEU786  VAL792 
 PHE793  MET794  SER795  GLU796  ALA797  LYS798  CYS799  TRP800  GLU811  SER814 

> <Gold.Protein.RotatedAtoms>
  151.8673  133.3468  159.3722 H   0  0  0  0  0  0  0  0  0  0  0  0  # atno 6907 bound_to 6896
  150.7162  134.5148  159.5634 H   0  0  0  0  0  0  0  0  0  0  0  0  # atno 6908 bound_to 6896
  152.2673  134.7971  160.0471 H   0  0  0  0  0  0  0  0  0  0  0  0  # atno 6909 bound_to 6896
  145.2604  139.2704  143.4020 H   0  0  0  0  0  0  0  0  0  0  0  0  # atno 7974 bound_to 7965
  156.2914  140.2645  156.2430 H   0  0  0  0  0  0  0  0  0  0  0  0  # atno 8008 bound_to 7997
  154.9958  140.0388  157.2357 H   0  0  0  0  0  0  0  0  0  0  0  0  # atno 8009 bound_to 7997
  154.7645  140.2767  155.6192 H   0  0  0  0  0  0  0  0  0  0  0  0  # atno 8010 bound_to 7997
  140.4053  144.1668  150.6136 H   0  0  0  0  0  0  0  0  0  0  0  0  # atno 10167 bound_to 10162
  157.2703  131.0816  151.1604 H   0  0  0  0  0  0  0  0  0  0  0  0  # atno 10718 bound_to 10713
  153.9946  135.2929  155.3408 H   0  0  0  0  0  0  0  0  0  0  0  0  # atno 10763 bound_to 10752
  154.7194  135.5115  153.8792 H   0  0  0  0  0  0  0  0  0  0  0  0  # atno 10764 bound_to 10752
  153.0794  135.6674  154.0195 H   0  0  0  0  0  0  0  0  0  0  0  0  # atno 10765 bound_to 10752
  141.1327  133.8282  157.0903 H   0  0  0  0  0  0  0  0  0  0  0  0  # atno 11005 bound_to 11000
  146.3277  140.3020  142.8621 LP  0  0  0  0  0  0  0  0  0  0  0  0  # atno 17320 bound_to 7965
  144.9423  140.8091  143.5623 LP  0  0  0  0  0  0  0  0  0  0  0  0  # atno 17321 bound_to 7965
  140.4696  143.2418  151.9107 LP  0  0  0  0  0  0  0  0  0  0  0  0  # atno 17342 bound_to 10162
  139.4783  144.5383  151.8566 LP  0  0  0  0  0  0  0  0  0  0  0  0  # atno 17343 bound_to 10162
  157.3078  130.6875  149.6199 LP  0  0  0  0  0  0  0  0  0  0  0  0  # atno 17370 bound_to 10713
  155.9663  130.4372  150.5168 LP  0  0  0  0  0  0  0  0  0  0  0  0  # atno 17371 bound_to 10713
  140.0396  134.9861  157.0937 LP  0  0  0  0  0  0  0  0  0  0  0  0  # atno 17394 bound_to 11000
  140.4156  134.1935  155.7163 LP  0  0  0  0  0  0  0  0  0  0  0  0  # atno 17395 bound_to 11000

$$$$
