AV-unprocessed.smi:490|AV-procd|sdf|2705|dock10
  -GOLD-   2262023143D 1   1.00000     0.00000
 Structure written by MMmdl.
 50 52  0  0  0  0  0  0  0  0  2 V2000
  152.0825  131.7502  156.5654 C   0  0  0  0  0  0  0  0  0  0  0  0
  151.1784  132.9081  156.1786 C   0  0  0  0  0  0  0  0  0  0  0  0
  149.9765  132.6358  155.4937 C   0  0  0  0  0  0  0  0  0  0  0  0
  149.1179  133.6836  155.1181 C   0  0  0  0  0  0  0  0  0  0  0  0
  149.4467  135.0159  155.4334 C   0  0  0  0  0  0  0  0  0  0  0  0
  148.5116  136.1370  155.0199 C   0  0  0  0  0  0  0  0  0  0  0  0
  150.6405  135.2984  156.1361 C   0  0  0  0  0  0  0  0  0  0  0  0
  150.9383  136.5998  156.4508 O   0  0  0  0  0  0  0  0  0  0  0  0
  151.3186  137.3807  155.3269 C   0  0  0  0  0  0  0  0  0  0  0  0
  151.9597  138.6889  155.8141 C   0  0  2  0  0  0  0  0  0  0  0  0
  153.2815  138.4146  156.2350 O   0  0  0  0  0  0  0  0  0  0  0  0
  151.1710  139.3097  156.9846 C   0  0  0  0  0  0  0  0  0  0  0  0
  150.9251  140.7511  156.8124 N   0  0  0  0  0  0  0  0  0  0  0  0
  150.1108  141.3992  155.9300 C   0  0  0  0  0  0  0  0  0  0  0  0
  149.2432  140.7769  154.8861 C   0  0  0  0  0  0  0  0  0  0  0  0
  149.7084  141.0312  153.5794 O   0  0  0  0  0  0  0  0  0  0  0  0
  150.2234  142.7337  156.1810 N   0  3  0  0  0  0  0  0  0  0  0  0
  151.1197  142.9435  157.2292 C   0  0  0  0  0  0  0  0  0  0  0  0
  151.5535  144.1196  157.8330 C   0  0  0  0  0  0  0  0  0  0  0  0
  152.4829  143.9854  158.8849 C   0  0  0  0  0  0  0  0  0  0  0  0
  152.9450  142.7194  159.2988 C   0  0  0  0  0  0  0  0  0  0  0  0
  152.4963  141.5337  158.6802 C   0  0  0  0  0  0  0  0  0  0  0  0
  151.5765  141.6741  157.6404 C   0  0  0  0  0  0  0  0  0  0  0  0
  151.5222  134.2468  156.4934 C   0  0  0  0  0  0  0  0  0  0  0  0
  152.8302  134.5532  157.2109 C   0  0  0  0  0  0  0  0  0  0  0  0
  151.6036  130.7903  156.3702 H   0  0  0  0  0  0  0  0  0  0  0  0
  152.3264  131.7893  157.6272 H   0  0  0  0  0  0  0  0  0  0  0  0
  153.0102  131.7840  155.9938 H   0  0  0  0  0  0  0  0  0  0  0  0
  149.7080  131.6187  155.2478 H   0  0  0  0  0  0  0  0  0  0  0  0
  148.2038  133.4590  154.5883 H   0  0  0  0  0  0  0  0  0  0  0  0
  149.0717  136.9650  154.5842 H   0  0  0  0  0  0  0  0  0  0  0  0
  147.9619  136.5095  155.8842 H   0  0  0  0  0  0  0  0  0  0  0  0
  147.7890  135.7959  154.2779 H   0  0  0  0  0  0  0  0  0  0  0  0
  152.0480  136.8121  154.7476 H   0  0  0  0  0  0  0  0  0  0  0  0
  150.4743  137.5774  154.6640 H   0  0  0  0  0  0  0  0  0  0  0  0
  151.9949  139.4045  154.9919 H   0  0  0  0  0  0  0  0  0  0  0  0
  153.2453  137.9800  157.0731 H   0  0  0  0  0  0  0  0  0  0  0  0
  150.1954  138.8295  157.0683 H   0  0  0  0  0  0  0  0  0  0  0  0
  151.6719  139.1369  157.9372 H   0  0  0  0  0  0  0  0  0  0  0  0
  149.2016  139.6987  155.0433 H   0  0  0  0  0  0  0  0  0  0  0  0
  148.2256  141.1548  154.9842 H   0  0  0  0  0  0  0  0  0  0  0  0
  149.4710  140.3012  153.0278 H   0  0  0  0  0  0  0  0  0  0  0  0
  151.2007  145.0905  157.5173 H   0  0  0  0  0  0  0  0  0  0  0  0
  152.8488  144.8714  159.3838 H   0  0  0  0  0  0  0  0  0  0  0  0
  153.6588  142.6559  160.1075 H   0  0  0  0  0  0  0  0  0  0  0  0
  152.8607  140.5709  159.0052 H   0  0  0  0  0  0  0  0  0  0  0  0
  153.0990  135.6071  157.1441 H   0  0  0  0  0  0  0  0  0  0  0  0
  153.6550  133.9881  156.7771 H   0  0  0  0  0  0  0  0  0  0  0  0
  152.7501  134.2905  158.2657 H   0  0  0  0  0  0  0  0  0  0  0  0
  149.7188  143.4476  155.6713 H   0  0  0  0  0  0  0  0  0  0  0  0
  1  2  1  0  0  0  0
  1 26  1  0  0  0  0
  1 27  1  0  0  0  0
  1 28  1  0  0  0  0
  2 24  1  0  0  0  0
  2  3  2  0  0  0  0
  3  4  1  0  0  0  0
  3 29  1  0  0  0  0
  4  5  2  0  0  0  0
  4 30  1  0  0  0  0
  5  6  1  0  0  0  0
  5  7  1  0  0  0  0
  6 31  1  0  0  0  0
  6 32  1  0  0  0  0
  6 33  1  0  0  0  0
  7  8  1  0  0  0  0
  7 24  2  0  0  0  0
  8  9  1  0  0  0  0
  9 10  1  0  0  0  0
  9 34  1  0  0  0  0
  9 35  1  0  0  0  0
 10 11  1  0  0  0  0
 10 12  1  0  0  0  0
 10 36  1  0  0  0  0
 11 37  1  0  0  0  0
 12 13  1  0  0  0  0
 12 38  1  0  0  0  0
 12 39  1  0  0  0  0
 13 23  1  0  0  0  0
 13 14  1  0  0  0  0
 14 15  1  0  0  0  0
 14 17  2  0  0  0  0
 15 16  1  0  0  0  0
 15 40  1  0  0  0  0
 15 41  1  0  0  0  0
 16 42  1  0  0  0  0
 17 18  1  0  0  0  0
 17 50  1  0  0  0  0
 18 23  2  0  0  0  0
 18 19  1  0  0  0  0
 19 20  2  0  0  0  0
 19 43  1  0  0  0  0
 20 21  1  0  0  0  0
 20 44  1  0  0  0  0
 21 22  2  0  0  0  0
 21 45  1  0  0  0  0
 22 23  1  0  0  0  0
 22 46  1  0  0  0  0
 24 25  1  0  0  0  0
 25 47  1  0  0  0  0
 25 48  1  0  0  0  0
 25 49  1  0  0  0  0
M  CHG  1  17   1
M  END
> <s_m_source_file>
AV-unprocessed.smi

> <i_m_source_file_index>
490

> <i_lp_mmshare_version>
43012

> <i_f3d_flags>
0

> <s_epik_input>
W0NIM11jMVtjSF1bY0hdYyhbQ0gzXSljKGMxW0NIM10pT1tDSDJdW0NASF0oW09IXSlbQ0gyXW4oYyhuMilbQ0gyXVtPSF0pYyhjMjMpW2NIXVtjSF1bY0hdW2NIXTM=

> <s_epik_cmdline>
J2VwaWtfcHl0aG9uJywgJy1waCcsICc3LjAnLCAnLXRuJywgJzgnLCAnLW1hJywgJzIwMCcsICctbWV0YWxfYmluZGluZycsICctaW1hZScsICc8aW5maWxlLm1hZT4nLCAnLW9tYWUnLCAnPG91dGZpbGUubWFlPic=

> <r_lp_tautomer_probability>
1

> <r_epik_Ionization_Penalty>
1.43125

> <r_epik_Ionization_Penalty_Charging>
1.43039

> <r_epik_Ionization_Penalty_Neutral>
0.000858184

> <r_epik_State_Penalty>
1.51493

> <r_epik_Charging_Adjusted_Penalty>
2.94531

> <i_epik_Tot_Q>
1

> <i_epik_Tot_abs_Q>
1

> <r_epik_Metal_State_Penalty>
5.5599

> <b_epik_Metal_Only>
0

> <s_lp_Force_Field>
OPLS_2005

> <r_lp_Energy>
24.6054

> <b_lp_Chiralities_Consistent>
1

> <s_lp_Variant>
AV-unprocessed.smi:490-3

> <Gold.Version>
5.8.1

> <Gold.Id.Protein>
6NUR|6NUR_protein|mol2

> <Gold.PLP.Fitness>
55.5109

> <Gold.PLP.PLP>
-43.4553

> <Gold.PLP.part.hbond>
-4.4557

> <Gold.PLP.part.metal>
0.0000

> <Gold.PLP.part.buried>
-0.0637

> <Gold.PLP.part.nonpolar>
-39.1360

> <Gold.PLP.part.repulsive>
0.1163

> <Gold.PLP.ligand.clash>
0.0000

> <Gold.PLP.ligand.torsion>
1.1576

> <Gold.PLP.Chemscore.Hbond>
4.7544

> <Gold.PLP.Chemscore.CHOScore>
0.0000

> <Gold.PLP.Chemscore.Metal>
0.0000

> <Gold.Chemscore.Hbonds>
donor molecule, donor type, donor heavy atom, donor atom, acceptor molecule, acceptor atom, score
      L1  H    16    42       P1  7957  0.62
      L1  H    17    50       P1  8028  1.95
      P1  H  7989  7998       L1    16  0.26
      P1  H  7997  8009       L1    11  0.83
      P1  H  8011  8017       L1    16  1.00

> <Gold.PLP.Chemscore.Internal.Correction>
0.1075

> <Gold.Rescore>
     Score         DG    S(hbond)    S(metal)    S(lipo)     H(rot)  DE(clash)    DE(int)     intcor
     17.39     -19.64       2.21        0.00     124.08       3.02       1.03       1.22       ----

> <Gold.Chemscore.Fitness>
17.3944

> <Gold.Chemscore.DG>
-19.6377

> <Gold.Chemscore.ZeroCoef>
-5.4800

> <Gold.Chemscore.Hbond>
2.2056

> <Gold.Chemscore.Metal>
0.0000

> <Gold.Chemscore.Lipo>
124.0778

> <Gold.Chemscore.Internal_Hbond>
0.0000

> <Gold.Chemscore.DEClash>
1.0266

> <Gold.Chemscore.DEInternal>
1.2167

> <Gold.Chemscore.Rot>
3.0180

> <Gold.Chemscore.Internal.Correction>
   9.000000E+99

> <Gold.Chemscore.Hbonds>
donor molecule, donor type, donor heavy atom, donor atom, acceptor molecule, acceptor atom, score
      L1  H    16    42       P1  7957  0.62
      L1  H    17    50       P1  8028  0.87
      P1  H  7989  7998       L1    16  0.05
      P1  H  7997  8009       L1    11  0.28
      P1  H  8011  8017       L1    16  0.28

> <Gold.Chemscore.Hbond.Weighted>
-7.3666

> <Gold.Chemscore.Metal.Weighted>
-0.0000

> <Gold.Chemscore.Lipo.Weighted>
-14.5171

> <Gold.Chemscore.Internal_Hbond.Weighted>
0.0000

> <Gold.Chemscore.DEClash.Weighted>
1.0266

> <Gold.Chemscore.DEInternal.Weighted>
1.2167

> <Gold.Chemscore.Rot.Weighted>
7.7260

> <Gold.Chemscore.Internal.Correction.Weighted>
   9.000000E+99

> <Gold.Protein.RotatedTorsions>
[ 6907 6896 6895 6894 ] final   22.78 input  -60.11 | X-H torsion
[ 7974 7965 7964 7962 ] final -168.95 input  175.53 | X-H torsion
[ 8008 7997 7996 7995 ] final  179.07 input   59.86 | X-H torsion
[ 10167 10162 10161 10158 ] final  156.37 input  -65.29 | X-H torsion
[ 10718 10713 10712 10709 ] final   84.09 input   66.30 | X-H torsion
[ 10763 10752 10751 10750 ] final   26.96 input  -60.55 | X-H torsion
[ 11005 11000 10999 10996 ] final  132.88 input  -57.11 | X-H torsion

> <Gold.Protein.ActiveResidues>
 VAL166  LYS551  ARG553  GLY616  TRP617  ASP618  TYR619  PRO620  LYS621  CYS622 
 ASP623  PHE694  ASN695  SER759  ASP760  ASP761  ALA762  ILE779  LEU786  VAL792 
 PHE793  MET794  SER795  GLU796  ALA797  LYS798  CYS799  TRP800  GLU811  SER814 

> <Gold.Protein.RotatedAtoms>
  151.9323  135.0251  160.0529 H   0  0  0  0  0  0  0  0  0  0  0  0  # atno 6907 bound_to 6896
  152.2108  133.4905  159.5117 H   0  0  0  0  0  0  0  0  0  0  0  0  # atno 6908 bound_to 6896
  150.6976  134.1386  159.4139 H   0  0  0  0  0  0  0  0  0  0  0  0  # atno 6909 bound_to 6896
  144.7194  140.2293  143.6306 H   0  0  0  0  0  0  0  0  0  0  0  0  # atno 7974 bound_to 7965
  156.0475  140.1317  157.0087 H   0  0  0  0  0  0  0  0  0  0  0  0  # atno 8008 bound_to 7997
  154.4419  140.1017  156.6398 H   0  0  0  0  0  0  0  0  0  0  0  0  # atno 8009 bound_to 7997
  155.5573  140.3464  155.4485 H   0  0  0  0  0  0  0  0  0  0  0  0  # atno 8010 bound_to 7997
  139.4821  144.5015  151.8161 H   0  0  0  0  0  0  0  0  0  0  0  0  # atno 10167 bound_to 10162
  157.6891  131.0118  150.2621 H   0  0  0  0  0  0  0  0  0  0  0  0  # atno 10718 bound_to 10713
  153.0588  135.6548  154.0513 H   0  0  0  0  0  0  0  0  0  0  0  0  # atno 10763 bound_to 10752
  154.0186  135.2922  155.3385 H   0  0  0  0  0  0  0  0  0  0  0  0  # atno 10764 bound_to 10752
  154.6916  135.5280  153.8467 H   0  0  0  0  0  0  0  0  0  0  0  0  # atno 10765 bound_to 10752
  139.9817  134.9546  156.9645 H   0  0  0  0  0  0  0  0  0  0  0  0  # atno 11005 bound_to 11000
  145.8426  139.2137  143.1819 LP  0  0  0  0  0  0  0  0  0  0  0  0  # atno 17320 bound_to 7965
  146.0333  140.8237  142.9865 LP  0  0  0  0  0  0  0  0  0  0  0  0  # atno 17321 bound_to 7965
  140.4509  144.1857  150.5897 LP  0  0  0  0  0  0  0  0  0  0  0  0  # atno 17342 bound_to 10162
  140.4586  143.2458  151.9250 LP  0  0  0  0  0  0  0  0  0  0  0  0  # atno 17343 bound_to 10162
  156.3198  130.3784  149.7585 LP  0  0  0  0  0  0  0  0  0  0  0  0  # atno 17370 bound_to 10713
  156.5159  130.8193  151.3186 LP  0  0  0  0  0  0  0  0  0  0  0  0  # atno 17371 bound_to 10713
  140.5083  134.1028  155.7265 LP  0  0  0  0  0  0  0  0  0  0  0  0  # atno 17394 bound_to 11000
  141.1488  133.9006  157.2149 LP  0  0  0  0  0  0  0  0  0  0  0  0  # atno 17395 bound_to 11000

$$$$
