AV-unprocessed.smi:266|AV-procd|sdf|2033|dock6
  -GOLD-   2262021243D 1   1.00000     0.00000
 Structure written by MMmdl.
 52 55  0  0  0  0  0  0  0  0  1 V2000
  145.2456  137.4941  162.3360 C   0  0  0  0  0  0  0  0  0  0  0  0
  145.7658  136.3310  161.4735 C   0  0  2  0  0  0  0  0  0  0  0  0
  144.9945  135.1812  161.8269 O   0  0  0  0  0  0  0  0  0  0  0  0
  145.8446  134.0923  162.1574 C   0  0  0  0  0  0  0  0  0  0  0  0
  147.1179  134.7609  162.6507 C   0  0  0  0  0  0  0  0  0  0  0  0
  147.2496  135.9408  161.6944 C   0  0  2  0  0  0  0  0  0  0  0  0
  147.9973  136.9638  162.3285 O   0  0  0  0  0  0  0  0  0  0  0  0
  147.9389  135.5925  160.3473 C   0  0  0  0  0  0  0  0  0  0  0  0
  148.0757  136.7184  159.4357 N   0  0  0  0  0  0  0  0  0  0  0  0
  147.0547  137.4601  158.8886 C   0  0  0  0  0  0  0  0  0  0  0  0
  147.4329  138.4228  158.0943 N   0  0  0  0  0  0  0  0  0  0  0  0
  148.8218  138.3485  158.0937 C   0  0  0  0  0  0  0  0  0  0  0  0
  149.8637  139.0786  157.4461 C   0  0  0  0  0  0  0  0  0  0  0  0
  149.6539  140.0862  156.5533 N   0  0  0  0  0  0  0  0  0  0  0  0
  148.2783  140.5102  156.3037 C   0  0  0  0  0  0  0  0  0  0  0  0
  150.7071  141.0833  156.3530 C   0  0  0  0  0  0  0  0  0  0  0  0
  150.8078  142.1179  157.4949 C   0  0  2  0  0  0  0  0  0  0  0  0
  151.7091  143.3059  157.1052 C   0  0  0  0  0  0  0  0  0  0  0  0
  151.9895  144.1437  158.3559 C   0  0  0  0  0  0  0  0  0  0  0  0
  152.0989  142.9423  159.7315 S   0  0  0  0  0  0  0  0  0  0  0  0
  153.5114  142.6353  160.0034 O   0  0  0  0  0  0  0  0  0  0  0  0
  151.1930  143.3627  160.8111 O   0  0  0  0  0  0  0  0  0  0  0  0
  151.3552  141.5413  158.8147 C   0  0  0  0  0  0  0  0  0  0  0  0
  151.1424  138.7160  157.7383 N   0  0  0  0  0  0  0  0  0  0  0  0
  151.3922  137.7067  158.5763 C   0  0  0  0  0  0  0  0  0  0  0  0
  150.5253  136.9305  159.2261 N   0  0  0  0  0  0  0  0  0  0  0  0
  149.2397  137.2913  158.9535 C   0  0  0  0  0  0  0  0  0  0  0  0
  145.7610  138.4255  162.1001 H   0  0  0  0  0  0  0  0  0  0  0  0
  145.3802  137.2927  163.3992 H   0  0  0  0  0  0  0  0  0  0  0  0
  144.1817  137.6581  162.1632 H   0  0  0  0  0  0  0  0  0  0  0  0
  145.5837  136.5687  160.4245 H   0  0  0  0  0  0  0  0  0  0  0  0
  145.3910  133.4445  162.9076 H   0  0  0  0  0  0  0  0  0  0  0  0
  146.0372  133.4976  161.2637 H   0  0  0  0  0  0  0  0  0  0  0  0
  146.9570  135.1151  163.6705 H   0  0  0  0  0  0  0  0  0  0  0  0
  147.9757  134.0902  162.6733 H   0  0  0  0  0  0  0  0  0  0  0  0
  147.6603  137.0849  163.2031 H   0  0  0  0  0  0  0  0  0  0  0  0
  148.9352  135.1858  160.5253 H   0  0  0  0  0  0  0  0  0  0  0  0
  147.3838  134.8049  159.8355 H   0  0  0  0  0  0  0  0  0  0  0  0
  146.0130  137.2576  159.0920 H   0  0  0  0  0  0  0  0  0  0  0  0
  147.6456  139.6541  156.0663 H   0  0  0  0  0  0  0  0  0  0  0  0
  148.2324  141.1978  155.4590 H   0  0  0  0  0  0  0  0  0  0  0  0
  147.8636  141.0184  157.1752 H   0  0  0  0  0  0  0  0  0  0  0  0
  151.6751  140.6223  156.1731 H   0  0  0  0  0  0  0  0  0  0  0  0
  150.4771  141.6106  155.4265 H   0  0  0  0  0  0  0  0  0  0  0  0
  149.8158  142.5257  157.6940 H   0  0  0  0  0  0  0  0  0  0  0  0
  152.6551  142.9262  156.7170 H   0  0  0  0  0  0  0  0  0  0  0  0
  151.2616  143.9105  156.3157 H   0  0  0  0  0  0  0  0  0  0  0  0
  152.9084  144.7259  158.2860 H   0  0  0  0  0  0  0  0  0  0  0  0
  151.1596  144.8196  158.5625 H   0  0  0  0  0  0  0  0  0  0  0  0
  150.5855  141.0664  159.4232 H   0  0  0  0  0  0  0  0  0  0  0  0
  152.1473  140.8160  158.6293 H   0  0  0  0  0  0  0  0  0  0  0  0
  152.4360  137.4856  158.7451 H   0  0  0  0  0  0  0  0  0  0  0  0
  1  2  1  0  0  0  0
  1 28  1  0  0  0  0
  1 29  1  0  0  0  0
  1 30  1  0  0  0  0
  2  6  1  0  0  0  0
  2  3  1  0  0  0  0
  2 31  1  0  0  0  0
  3  4  1  0  0  0  0
  4  5  1  0  0  0  0
  4 32  1  0  0  0  0
  4 33  1  0  0  0  0
  5  6  1  0  0  0  0
  5 34  1  0  0  0  0
  5 35  1  0  0  0  0
  6  7  1  0  0  0  0
  6  8  1  0  0  0  0
  7 36  1  0  0  0  0
  8  9  1  0  0  0  0
  8 37  1  0  0  0  0
  8 38  1  0  0  0  0
  9 27  1  0  0  0  0
  9 10  1  0  0  0  0
 10 11  2  0  0  0  0
 10 39  1  0  0  0  0
 11 12  1  0  0  0  0
 12 27  2  0  0  0  0
 12 13  1  0  0  0  0
 13 14  1  0  0  0  0
 13 24  2  0  0  0  0
 14 15  1  0  0  0  0
 14 16  1  0  0  0  0
 15 40  1  0  0  0  0
 15 41  1  0  0  0  0
 15 42  1  0  0  0  0
 16 17  1  0  0  0  0
 16 43  1  0  0  0  0
 16 44  1  0  0  0  0
 17 23  1  0  0  0  0
 17 18  1  0  0  0  0
 17 45  1  0  0  0  0
 18 19  1  0  0  0  0
 18 46  1  0  0  0  0
 18 47  1  0  0  0  0
 19 20  1  0  0  0  0
 19 48  1  0  0  0  0
 19 49  1  0  0  0  0
 20 21  2  0  0  0  0
 20 22  2  0  0  0  0
 20 23  1  0  0  0  0
 23 50  1  0  0  0  0
 23 51  1  0  0  0  0
 24 25  1  0  0  0  0
 25 26  2  0  0  0  0
 25 52  1  0  0  0  0
 26 27  1  0  0  0  0
M  END
> <s_m_source_file>
AV-unprocessed.smi

> <i_m_source_file_index>
266

> <i_lp_mmshare_version>
43012

> <i_f3d_flags>
0

> <s_epik_input>
W0NIMl0xW0NIMl1PW0NAQEhdKFtDSDNdKVtDQEBdMShbT0hdKVtDSDJdbihbY0hdbjIpYyhjMjMpbltjSF1uYzNOKFtDSDNdKVtDSDJdW0NAQEhdKFtDSDJdNClbQ0gyXVtDSDJdUzQoPU8pPU8=

> <s_epik_cmdline>
J2VwaWtfcHl0aG9uJywgJy1waCcsICc3LjAnLCAnLXRuJywgJzgnLCAnLW1hJywgJzIwMCcsICctbWV0YWxfYmluZGluZycsICctaW1hZScsICc8aW5maWxlLm1hZT4nLCAnLW9tYWUnLCAnPG91dGZpbGUubWFlPic=

> <r_lp_tautomer_probability>
1

> <r_epik_Ionization_Penalty>
0.00155497

> <r_epik_Ionization_Penalty_Charging>
0

> <r_epik_Ionization_Penalty_Neutral>
0.00155497

> <r_epik_State_Penalty>
-0

> <r_epik_Charging_Adjusted_Penalty>
0

> <i_epik_Tot_Q>
0

> <i_epik_Tot_abs_Q>
0

> <r_epik_Metal_State_Penalty>
-0

> <b_epik_Metal_Only>
0

> <s_lp_Force_Field>
OPLS_2005

> <r_lp_Energy>
29.9122

> <b_lp_Chiralities_Consistent>
1

> <s_lp_Variant>
AV-unprocessed.smi:266-3

> <Gold.Version>
5.8.1

> <Gold.Id.Protein>
6NUR|6NUR_protein|mol2

> <Gold.PLP.Fitness>
52.4546

> <Gold.PLP.PLP>
-46.7731

> <Gold.PLP.part.hbond>
-3.0871

> <Gold.PLP.part.metal>
0.0000

> <Gold.PLP.part.buried>
-9.0491

> <Gold.PLP.part.nonpolar>
-36.0575

> <Gold.PLP.part.repulsive>
0.1301

> <Gold.PLP.ligand.clash>
0.0000

> <Gold.PLP.ligand.torsion>
0.4203

> <Gold.PLP.Chemscore.Hbond>
1.9913

> <Gold.PLP.Chemscore.CHOScore>
0.0000

> <Gold.PLP.Chemscore.Metal>
0.0000

> <Gold.Chemscore.Hbonds>
donor molecule, donor type, donor heavy atom, donor atom, acceptor molecule, acceptor atom, score
      P1  H  6896  6908       L1    26  0.98
      P1  H  6931  6943       L1     7  1.00
      P1  H  6933  6945       L1    22  0.01

> <Gold.PLP.Chemscore.Internal.Correction>
0.5483

> <Gold.Rescore>
     Score         DG    S(hbond)    S(metal)    S(lipo)     H(rot)  DE(clash)    DE(int)     intcor
     14.06     -15.83       1.77        0.00      91.51       2.45       0.00       1.76       ----

> <Gold.Chemscore.Fitness>
14.0628

> <Gold.Chemscore.DG>
-15.8291

> <Gold.Chemscore.ZeroCoef>
-5.4800

> <Gold.Chemscore.Hbond>
1.7687

> <Gold.Chemscore.Metal>
0.0000

> <Gold.Chemscore.Lipo>
91.5054

> <Gold.Chemscore.Internal_Hbond>
0.0000

> <Gold.Chemscore.DEClash>
0.0038

> <Gold.Chemscore.DEInternal>
1.7625

> <Gold.Chemscore.Rot>
2.4471

> <Gold.Chemscore.Internal.Correction>
   9.000000E+99

> <Gold.Chemscore.Hbonds>
donor molecule, donor type, donor heavy atom, donor atom, acceptor molecule, acceptor atom, score
      P1  H  6896  6908       L1    26  0.86
      P1  H  6931  6943       L1     7  0.69
      P1  H  6933  6945       L1    22  0.01

> <Gold.Chemscore.Hbond.Weighted>
-5.9075

> <Gold.Chemscore.Metal.Weighted>
-0.0000

> <Gold.Chemscore.Lipo.Weighted>
-10.7061

> <Gold.Chemscore.Internal_Hbond.Weighted>
0.0000

> <Gold.Chemscore.DEClash.Weighted>
0.0038

> <Gold.Chemscore.DEInternal.Weighted>
1.7625

> <Gold.Chemscore.Rot.Weighted>
6.2645

> <Gold.Chemscore.Internal.Correction.Weighted>
   9.000000E+99

> <Gold.Protein.RotatedTorsions>
[ 6907 6896 6895 6894 ] final -142.82 input  -60.11 | X-H torsion
[ 7974 7965 7964 7962 ] final  120.97 input  175.53 | X-H torsion
[ 8008 7997 7996 7995 ] final  -43.83 input   59.86 | X-H torsion
[ 10167 10162 10161 10158 ] final  131.24 input  -65.29 | X-H torsion
[ 10718 10713 10712 10709 ] final  159.58 input   66.30 | X-H torsion
[ 10763 10752 10751 10750 ] final  -37.02 input  -60.55 | X-H torsion
[ 11005 11000 10999 10996 ] final   -2.27 input  -57.11 | X-H torsion

> <Gold.Protein.ActiveResidues>
 VAL166  LYS551  ARG553  GLY616  TRP617  ASP618  TYR619  PRO620  LYS621  CYS622 
 ASP623  PHE694  ASN695  SER759  ASP760  ASP761  ALA762  ILE779  LEU786  VAL792 
 PHE793  MET794  SER795  GLU796  ALA797  LYS798  CYS799  TRP800  GLU811  SER814 

> <Gold.Protein.RotatedAtoms>
  151.0922  133.5307  159.2614 H   0  0  0  0  0  0  0  0  0  0  0  0  # atno 6907 bound_to 6896
  151.2170  135.0503  159.8944 H   0  0  0  0  0  0  0  0  0  0  0  0  # atno 6908 bound_to 6896
  152.5435  134.0729  159.8255 H   0  0  0  0  0  0  0  0  0  0  0  0  # atno 6909 bound_to 6896
  145.1248  139.3365  143.4695 H   0  0  0  0  0  0  0  0  0  0  0  0  # atno 7974 bound_to 7965
  154.3997  140.1438  156.3583 H   0  0  0  0  0  0  0  0  0  0  0  0  # atno 8008 bound_to 7997
  155.8205  140.3469  155.5490 H   0  0  0  0  0  0  0  0  0  0  0  0  # atno 8009 bound_to 7997
  155.8293  140.0910  157.1793 H   0  0  0  0  0  0  0  0  0  0  0  0  # atno 8010 bound_to 7997
  139.5393  144.6714  151.4679 H   0  0  0  0  0  0  0  0  0  0  0  0  # atno 10167 bound_to 10162
  157.1622  131.0590  151.2226 H   0  0  0  0  0  0  0  0  0  0  0  0  # atno 10718 bound_to 10713
  153.8893  135.6813  153.4761 H   0  0  0  0  0  0  0  0  0  0  0  0  # atno 10763 bound_to 10752
  153.1190  135.4748  154.9161 H   0  0  0  0  0  0  0  0  0  0  0  0  # atno 10764 bound_to 10752
  154.7630  135.3216  154.8294 H   0  0  0  0  0  0  0  0  0  0  0  0  # atno 10765 bound_to 10752
  140.6565  133.9358  155.8411 H   0  0  0  0  0  0  0  0  0  0  0  0  # atno 11005 bound_to 11000
  146.3518  140.1223  142.8600 LP  0  0  0  0  0  0  0  0  0  0  0  0  # atno 17320 bound_to 7965
  145.0700  140.9148  143.4887 LP  0  0  0  0  0  0  0  0  0  0  0  0  # atno 17321 bound_to 7965
  140.6615  143.8488  150.6893 LP  0  0  0  0  0  0  0  0  0  0  0  0  # atno 17342 bound_to 10162
  140.1884  143.4056  152.1881 LP  0  0  0  0  0  0  0  0  0  0  0  0  # atno 17343 bound_to 10162
  157.4122  130.7391  149.6847 LP  0  0  0  0  0  0  0  0  0  0  0  0  # atno 17370 bound_to 10713
  155.9752  130.4092  150.3868 LP  0  0  0  0  0  0  0  0  0  0  0  0  # atno 17371 bound_to 10713
  141.0497  134.0502  157.3799 LP  0  0  0  0  0  0  0  0  0  0  0  0  # atno 17394 bound_to 11000
  139.9027  135.0170  156.7346 LP  0  0  0  0  0  0  0  0  0  0  0  0  # atno 17395 bound_to 11000

$$$$
