AV-unprocessed.smi:2451|AV-procd|sdf|9682|dock2
  -GOLD-   2272013323D 1   1.00000     0.00000
 Structure written by MMmdl.
 37 38  0  0  0  0  0  0  0  0  2 V2000
  151.8595  145.4379  160.2433 C   0  0  0  0  0  0  0  0  0  0  0  0
  152.3932  144.0606  159.8042 C   0  0  1  0  0  0  0  0  0  0  0  0
  152.5089  143.1518  161.0532 C   0  0  0  0  0  0  0  0  0  0  0  0
  153.0335  141.7615  160.6554 C   0  0  0  0  0  0  0  0  0  0  0  0
  152.1570  141.1047  159.5682 C   0  0  0  0  0  0  0  0  0  0  0  0
  152.0199  141.9668  158.2914 C   0  0  1  0  0  0  0  0  0  0  0  0
  151.0758  141.3247  157.3861 N   0  5  0  0  0  0  0  0  0  0  0  0
  151.5448  140.0300  156.5313 S   0  0  0  0  0  0  0  0  0  0  0  0
  151.2605  140.1682  155.0934 O   0  0  0  0  0  0  0  0  0  0  0  0
  152.8913  139.5650  156.9035 O   0  0  0  0  0  0  0  0  0  0  0  0
  150.3679  138.7607  157.1671 C   0  0  0  0  0  0  0  0  0  0  0  0
  150.6622  137.4213  156.5506 C   0  0  0  0  0  0  0  0  0  0  0  0
  149.8522  136.6531  155.6682 C   0  0  0  0  0  0  0  0  0  0  0  0
  150.6082  135.5431  155.4246 C   0  0  0  0  0  0  0  0  0  0  0  0
  151.7895  135.6177  156.0875 O   0  0  0  0  0  0  0  0  0  0  0  0
  151.8161  136.8213  156.8013 N   0  0  0  0  0  0  0  0  0  0  0  0
  151.5401  143.4124  158.6554 C   0  0  2  0  0  0  0  0  0  0  0  0
  151.4972  144.3311  157.4049 C   0  0  0  0  0  0  0  0  0  0  0  0
  150.8101  145.3819  160.5348 H   0  0  0  0  0  0  0  0  0  0  0  0
  151.9531  146.1833  159.4547 H   0  0  0  0  0  0  0  0  0  0  0  0
  152.4187  145.8198  161.0978 H   0  0  0  0  0  0  0  0  0  0  0  0
  153.4063  144.2234  159.4299 H   0  0  0  0  0  0  0  0  0  0  0  0
  153.1750  143.5989  161.7918 H   0  0  0  0  0  0  0  0  0  0  0  0
  151.5334  143.0513  161.5312 H   0  0  0  0  0  0  0  0  0  0  0  0
  154.0677  141.8412  160.3143 H   0  0  0  0  0  0  0  0  0  0  0  0
  153.0589  141.1191  161.5362 H   0  0  0  0  0  0  0  0  0  0  0  0
  152.5734  140.1298  159.3113 H   0  0  0  0  0  0  0  0  0  0  0  0
  151.1682  140.9115  159.9880 H   0  0  0  0  0  0  0  0  0  0  0  0
  153.0116  142.0546  157.8447 H   0  0  0  0  0  0  0  0  0  0  0  0
  150.4606  138.7213  158.2520 H   0  0  0  0  0  0  0  0  0  0  0  0
  149.3559  139.0921  156.9326 H   0  0  0  0  0  0  0  0  0  0  0  0
  148.8689  136.8797  155.2832 H   0  0  0  0  0  0  0  0  0  0  0  0
  150.4534  134.6559  154.8286 H   0  0  0  0  0  0  0  0  0  0  0  0
  150.5181  143.3288  159.0290 H   0  0  0  0  0  0  0  0  0  0  0  0
  152.4952  144.5277  157.0088 H   0  0  0  0  0  0  0  0  0  0  0  0
  151.0434  145.2941  157.6326 H   0  0  0  0  0  0  0  0  0  0  0  0
  150.8966  143.9171  156.5926 H   0  0  0  0  0  0  0  0  0  0  0  0
  1  2  1  0  0  0  0
  1 19  1  0  0  0  0
  1 20  1  0  0  0  0
  1 21  1  0  0  0  0
  2 17  1  0  0  0  0
  2  3  1  0  0  0  0
  2 22  1  0  0  0  0
  3  4  1  0  0  0  0
  3 23  1  0  0  0  0
  3 24  1  0  0  0  0
  4  5  1  0  0  0  0
  4 25  1  0  0  0  0
  4 26  1  0  0  0  0
  5  6  1  0  0  0  0
  5 27  1  0  0  0  0
  5 28  1  0  0  0  0
  6  7  1  0  0  0  0
  6 17  1  0  0  0  0
  6 29  1  0  0  0  0
  7  8  1  0  0  0  0
  8  9  2  0  0  0  0
  8 10  2  0  0  0  0
  8 11  1  0  0  0  0
 11 12  1  0  0  0  0
 11 30  1  0  0  0  0
 11 31  1  0  0  0  0
 12 16  2  0  0  0  0
 12 13  1  0  0  0  0
 13 14  2  0  0  0  0
 13 32  1  0  0  0  0
 14 15  1  0  0  0  0
 14 33  1  0  0  0  0
 15 16  1  0  0  0  0
 17 18  1  0  0  0  0
 17 34  1  0  0  0  0
 18 35  1  0  0  0  0
 18 36  1  0  0  0  0
 18 37  1  0  0  0  0
M  CHG  1   7  -1
M  END
> <s_m_source_file>
AV-unprocessed.smi

> <i_m_source_file_index>
2451

> <i_lp_mmshare_version>
43012

> <i_f3d_flags>
0

> <s_epik_input>
W0NIM11bQ0BASF0xW0NIMl1bQ0gyXVtDSDJdW0NASF0oW0NASF0xW0NIM10pW05IXVMoPU8pKD1PKVtDSDJdYzJbY0hdW2NIXW9uMg==

> <s_epik_cmdline>
J2VwaWtfcHl0aG9uJywgJy1waCcsICc3LjAnLCAnLXRuJywgJzgnLCAnLW1hJywgJzIwMCcsICctbWV0YWxfYmluZGluZycsICctaW1hZScsICc8aW5maWxlLm1hZT4nLCAnLW9tYWUnLCAnPG91dGZpbGUubWFlPic=

> <r_lp_tautomer_probability>
1

> <r_epik_Ionization_Penalty>
5.22693

> <r_epik_Ionization_Penalty_Charging>
5.22693

> <r_epik_Ionization_Penalty_Neutral>
2.67702e-10

> <r_epik_State_Penalty>
5.22685

> <r_epik_Charging_Adjusted_Penalty>
10.4538

> <i_epik_Tot_Q>
-1

> <i_epik_Tot_abs_Q>
1

> <r_epik_Metal_State_Penalty>
1.28716

> <b_epik_Metal_Only>
1

> <s_lp_Force_Field>
OPLS_2005

> <r_lp_Energy>
12.2025

> <b_lp_Chiralities_Consistent>
1

> <s_lp_Variant>
AV-unprocessed.smi:2451-14

> <Gold.Version>
5.8.1

> <Gold.Id.Protein>
6NUR|6NUR_protein|mol2

> <Gold.PLP.Fitness>
44.1655

> <Gold.PLP.PLP>
-35.7524

> <Gold.PLP.part.hbond>
-3.0000

> <Gold.PLP.part.metal>
0.0000

> <Gold.PLP.part.buried>
-4.9506

> <Gold.PLP.part.nonpolar>
-27.8734

> <Gold.PLP.part.repulsive>
0.1192

> <Gold.PLP.ligand.clash>
0.0000

> <Gold.PLP.ligand.torsion>
0.7922

> <Gold.PLP.Chemscore.Hbond>
3.0000

> <Gold.PLP.Chemscore.CHOScore>
0.0000

> <Gold.PLP.Chemscore.Metal>
0.0000

> <Gold.Chemscore.Hbonds>
donor molecule, donor type, donor heavy atom, donor atom, acceptor molecule, acceptor atom, score
      P1  H  7989  7998       L1     9  1.00
      P1  H  7997  8010       L1    10  0.99
      P1  H 10752 10764       L1    15  1.00

> <Gold.PLP.Chemscore.Internal.Correction>
0.9975

> <Gold.Rescore>
     Score         DG    S(hbond)    S(metal)    S(lipo)     H(rot)  DE(clash)    DE(int)     intcor
     21.49     -23.45       2.85        0.00     102.75       1.40       0.07       1.90       ----

> <Gold.Chemscore.Fitness>
21.4873

> <Gold.Chemscore.DG>
-23.4532

> <Gold.Chemscore.ZeroCoef>
-5.4800

> <Gold.Chemscore.Hbond>
2.8538

> <Gold.Chemscore.Metal>
0.0000

> <Gold.Chemscore.Lipo>
102.7517

> <Gold.Chemscore.Internal_Hbond>
0.0000

> <Gold.Chemscore.DEClash>
0.0682

> <Gold.Chemscore.DEInternal>
1.8977

> <Gold.Chemscore.Rot>
1.3986

> <Gold.Chemscore.Internal.Correction>
   9.000000E+99

> <Gold.Chemscore.Hbonds>
donor molecule, donor type, donor heavy atom, donor atom, acceptor molecule, acceptor atom, score
      P1  H  7989  7998       L1     9  0.99
      P1  H  7997  8010       L1    10  0.94
      P1  H 10752 10764       L1    15  0.56

> <Gold.Chemscore.Hbond.Weighted>
-9.5316

> <Gold.Chemscore.Metal.Weighted>
-0.0000

> <Gold.Chemscore.Lipo.Weighted>
-12.0220

> <Gold.Chemscore.Internal_Hbond.Weighted>
0.0000

> <Gold.Chemscore.DEClash.Weighted>
0.0682

> <Gold.Chemscore.DEInternal.Weighted>
1.8977

> <Gold.Chemscore.Rot.Weighted>
3.5804

> <Gold.Chemscore.Internal.Correction.Weighted>
   9.000000E+99

> <Gold.Protein.RotatedTorsions>
[ 6907 6896 6895 6894 ] final  110.86 input  -60.11 | X-H torsion
[ 7974 7965 7964 7962 ] final   86.16 input  175.53 | X-H torsion
[ 8008 7997 7996 7995 ] final   82.03 input   59.86 | X-H torsion
[ 10167 10162 10161 10158 ] final   33.14 input  -65.29 | X-H torsion
[ 10718 10713 10712 10709 ] final   62.30 input   66.30 | X-H torsion
[ 10763 10752 10751 10750 ] final  -39.76 input  -60.55 | X-H torsion
[ 11005 11000 10999 10996 ] final  130.52 input  -57.11 | X-H torsion

> <Gold.Protein.ActiveResidues>
 VAL166  LYS551  ARG553  GLY616  TRP617  ASP618  TYR619  PRO620  LYS621  CYS622 
 ASP623  PHE694  ASN695  SER759  ASP760  ASP761  ALA762  ILE779  LEU786  VAL792 
 PHE793  MET794  SER795  GLU796  ALA797  LYS798  CYS799  TRP800  GLU811  SER814 

> <Gold.Protein.RotatedAtoms>
  152.4998  133.8740  159.7312 H   0  0  0  0  0  0  0  0  0  0  0  0  # atno 6907 bound_to 6896
  150.9219  133.6861  159.2837 H   0  0  0  0  0  0  0  0  0  0  0  0  # atno 6908 bound_to 6896
  151.4235  135.1005  159.9673 H   0  0  0  0  0  0  0  0  0  0  0  0  # atno 6909 bound_to 6896
  145.5760  139.2319  143.2379 H   0  0  0  0  0  0  0  0  0  0  0  0  # atno 7974 bound_to 7965
  155.9051  140.3431  155.6056 H   0  0  0  0  0  0  0  0  0  0  0  0  # atno 8008 bound_to 7997
  155.7454  140.0813  157.2245 H   0  0  0  0  0  0  0  0  0  0  0  0  # atno 8009 bound_to 7997
  154.4048  140.1563  156.2650 H   0  0  0  0  0  0  0  0  0  0  0  0  # atno 8010 bound_to 7997
  140.4435  144.1153  150.6178 H   0  0  0  0  0  0  0  0  0  0  0  0  # atno 10167 bound_to 10162
  157.5891  130.9043  149.9571 H   0  0  0  0  0  0  0  0  0  0  0  0  # atno 10718 bound_to 10713
  153.9347  135.6768  153.4745 H   0  0  0  0  0  0  0  0  0  0  0  0  # atno 10763 bound_to 10752
  153.0961  135.4850  154.8779 H   0  0  0  0  0  0  0  0  0  0  0  0  # atno 10764 bound_to 10752
  154.7409  135.3160  154.8687 H   0  0  0  0  0  0  0  0  0  0  0  0  # atno 10765 bound_to 10752
  139.9677  134.9586  156.9306 H   0  0  0  0  0  0  0  0  0  0  0  0  # atno 11005 bound_to 11000
  146.1750  140.6586  142.9215 LP  0  0  0  0  0  0  0  0  0  0  0  0  # atno 17320 bound_to 7965
  144.7416  140.4956  143.6865 LP  0  0  0  0  0  0  0  0  0  0  0  0  # atno 17321 bound_to 7965
  140.4291  143.2576  151.9618 LP  0  0  0  0  0  0  0  0  0  0  0  0  # atno 17342 bound_to 10162
  139.4791  144.5760  151.8010 LP  0  0  0  0  0  0  0  0  0  0  0  0  # atno 17343 bound_to 10162
  156.0943  130.3660  150.0335 LP  0  0  0  0  0  0  0  0  0  0  0  0  # atno 17370 bound_to 10713
  156.8461  130.9443  151.3628 LP  0  0  0  0  0  0  0  0  0  0  0  0  # atno 17371 bound_to 10713
  140.5361  134.0766  155.7328 LP  0  0  0  0  0  0  0  0  0  0  0  0  # atno 17394 bound_to 11000
  141.1357  133.9226  157.2439 LP  0  0  0  0  0  0  0  0  0  0  0  0  # atno 17395 bound_to 11000

$$$$
