AV-unprocessed.smi:3002|AV-procd|sdf|11436|dock7
  -GOLD-   2272016363D 1   1.00000     0.00000
 Structure written by MMmdl.
 34 35  0  0  0  0  0  0  0  0  1 V2000
  145.9838  135.4183  151.1763 C   0  0  0  0  0  0  0  0  0  0  0  0
  146.4310  133.9457  151.0769 C   0  0  1  0  0  0  0  0  0  0  0  0
  146.9523  133.3981  152.4141 C   0  0  0  0  0  0  0  0  0  0  0  0
  146.3615  133.6426  153.4668 O   0  0  0  0  0  0  0  0  0  0  0  0
  148.0700  132.6571  152.3576 N   0  0  0  0  0  0  0  0  0  0  0  0
  148.7400  132.0610  153.5083 C   0  0  0  0  0  0  0  0  0  0  0  0
  149.5772  133.0921  154.2907 C   0  0  1  0  0  0  0  0  0  0  0  0
  148.7725  134.3569  154.6468 C   0  0  0  0  0  0  0  0  0  0  0  0
  149.5897  135.1912  155.6383 C   0  0  0  0  0  0  0  0  0  0  0  0
  150.4963  133.9805  156.6710 S   0  0  0  0  0  0  0  0  0  0  0  0
  151.9301  134.3065  156.6452 O   0  0  0  0  0  0  0  0  0  0  0  0
  149.7849  133.7904  157.9442 O   0  0  0  0  0  0  0  0  0  0  0  0
  150.1772  132.5334  155.5926 C   0  0  0  0  0  0  0  0  0  0  0  0
  145.3812  133.0802  150.5544 N   0  0  0  0  0  0  0  0  0  0  0  0
  145.4232  131.7886  150.2192 C   0  0  0  0  0  0  0  0  0  0  0  0
  144.2592  131.2972  149.8181 N   0  0  0  0  0  0  0  0  0  0  0  0
  143.4830  132.4134  149.9515 C   0  0  0  0  0  0  0  0  0  0  0  0
  144.1021  133.5050  150.4000 N   0  0  0  0  0  0  0  0  0  0  0  0
  146.8001  136.0531  151.5228 H   0  0  0  0  0  0  0  0  0  0  0  0
  145.1491  135.5496  151.8659 H   0  0  0  0  0  0  0  0  0  0  0  0
  145.6691  135.7948  150.2026 H   0  0  0  0  0  0  0  0  0  0  0  0
  147.2567  133.9102  150.3640 H   0  0  0  0  0  0  0  0  0  0  0  0
  148.4931  132.5037  151.4538 H   0  0  0  0  0  0  0  0  0  0  0  0
  148.0033  131.5934  154.1638 H   0  0  0  0  0  0  0  0  0  0  0  0
  149.3808  131.2575  153.1440 H   0  0  0  0  0  0  0  0  0  0  0  0
  150.4086  133.4148  153.6624 H   0  0  0  0  0  0  0  0  0  0  0  0
  148.5142  134.9350  153.7591 H   0  0  0  0  0  0  0  0  0  0  0  0
  147.8345  134.0651  155.1213 H   0  0  0  0  0  0  0  0  0  0  0  0
  150.3237  135.8041  155.1145 H   0  0  0  0  0  0  0  0  0  0  0  0
  148.9751  135.8389  156.2638 H   0  0  0  0  0  0  0  0  0  0  0  0
  149.4675  131.8853  156.1074 H   0  0  0  0  0  0  0  0  0  0  0  0
  151.1008  131.9773  155.4301 H   0  0  0  0  0  0  0  0  0  0  0  0
  146.3236  131.1943  150.2730 H   0  0  0  0  0  0  0  0  0  0  0  0
  142.4286  132.4199  149.7174 H   0  0  0  0  0  0  0  0  0  0  0  0
  1  2  1  0  0  0  0
  1 19  1  0  0  0  0
  1 20  1  0  0  0  0
  1 21  1  0  0  0  0
  2  3  1  0  0  0  0
  2 14  1  0  0  0  0
  2 22  1  0  0  0  0
  3  4  2  0  0  0  0
  3  5  1  0  0  0  0
  5  6  1  0  0  0  0
  5 23  1  0  0  0  0
  6  7  1  0  0  0  0
  6 24  1  0  0  0  0
  6 25  1  0  0  0  0
  7 13  1  0  0  0  0
  7  8  1  0  0  0  0
  7 26  1  0  0  0  0
  8  9  1  0  0  0  0
  8 27  1  0  0  0  0
  8 28  1  0  0  0  0
  9 10  1  0  0  0  0
  9 29  1  0  0  0  0
  9 30  1  0  0  0  0
 10 11  2  0  0  0  0
 10 12  2  0  0  0  0
 10 13  1  0  0  0  0
 13 31  1  0  0  0  0
 13 32  1  0  0  0  0
 14 18  1  0  0  0  0
 14 15  1  0  0  0  0
 15 16  2  0  0  0  0
 15 33  1  0  0  0  0
 16 17  1  0  0  0  0
 17 18  2  0  0  0  0
 17 34  1  0  0  0  0
M  END
> <s_m_source_file>
AV-unprocessed.smi

> <i_m_source_file_index>
3002

> <i_lp_mmshare_version>
43012

> <i_f3d_flags>
0

> <s_epik_input>
bjFbY0hdbltjSF1uMVtDQEhdKFtDSDNdKUMoPU8pW05IXVtDSDJdW0NAQEhdKFtDSDJdMilbQ0gyXVtDSDJdUzIoPU8pPU8=

> <s_epik_cmdline>
J2VwaWtfcHl0aG9uJywgJy1waCcsICc3LjAnLCAnLXRuJywgJzgnLCAnLW1hJywgJzIwMCcsICctbWV0YWxfYmluZGluZycsICctaW1hZScsICc8aW5maWxlLm1hZT4nLCAnLW9tYWUnLCAnPG91dGZpbGUubWFlPic=

> <r_lp_tautomer_probability>
1

> <r_epik_Ionization_Penalty>
1.1748e-05

> <r_epik_Ionization_Penalty_Charging>
0

> <r_epik_Ionization_Penalty_Neutral>
1.1748e-05

> <r_epik_State_Penalty>
-0

> <r_epik_Charging_Adjusted_Penalty>
0

> <i_epik_Tot_Q>
0

> <i_epik_Tot_abs_Q>
0

> <r_epik_Metal_State_Penalty>
-0

> <b_epik_Metal_Only>
0

> <s_lp_Force_Field>
OPLS_2005

> <r_lp_Energy>
7.1985

> <b_lp_Chiralities_Consistent>
1

> <s_lp_Variant>
AV-unprocessed.smi:3002-4

> <Gold.Version>
5.8.1

> <Gold.Id.Protein>
6NUR|6NUR_protein|mol2

> <Gold.PLP.Fitness>
41.5711

> <Gold.PLP.PLP>
-29.1438

> <Gold.PLP.part.hbond>
-4.0663

> <Gold.PLP.part.metal>
0.0000

> <Gold.PLP.part.buried>
-1.8067

> <Gold.PLP.part.nonpolar>
-24.7652

> <Gold.PLP.part.repulsive>
0.4003

> <Gold.PLP.ligand.clash>
0.0000

> <Gold.PLP.ligand.torsion>
0.7808

> <Gold.PLP.Chemscore.Hbond>
2.0474

> <Gold.PLP.Chemscore.CHOScore>
2.5809

> <Gold.PLP.Chemscore.Metal>
0.0000

> <Gold.Chemscore.Hbonds>
donor molecule, donor type, donor heavy atom, donor atom, acceptor molecule, acceptor atom, score
      L1  H     5    23       P1 10747  0.67
      P1  H  6896  6909       L1    12  1.00
      P1  H 10785 10796       L1    16  0.50
      L1  C    15    33       P1 10747  0.67
      L1  C    17    34       P1 10186  0.93
      L1  C    17    34       P1 10952  0.75

> <Gold.PLP.Chemscore.Internal.Correction>
0.1040

> <Gold.Rescore>
     Score         DG    S(hbond)    S(metal)    S(lipo)     H(rot)  DE(clash)    DE(int)     intcor
      5.45      -8.66       1.51        0.00      36.57       2.39       0.74       2.48       ----

> <Gold.Chemscore.Fitness>
5.4453

> <Gold.Chemscore.DG>
-8.6588

> <Gold.Chemscore.ZeroCoef>
-5.4800

> <Gold.Chemscore.Hbond>
1.5060

> <Gold.Chemscore.Metal>
0.0000

> <Gold.Chemscore.Lipo>
36.5719

> <Gold.Chemscore.Internal_Hbond>
0.0000

> <Gold.Chemscore.DEClash>
0.7365

> <Gold.Chemscore.DEInternal>
2.4770

> <Gold.Chemscore.Rot>
2.3946

> <Gold.Chemscore.Internal.Correction>
   9.000000E+99

> <Gold.Chemscore.Hbonds>
donor molecule, donor type, donor heavy atom, donor atom, acceptor molecule, acceptor atom, score
      L1  H     5    23       P1 10747  0.64
      P1  H  6896  6909       L1    12  0.75
      P1  H 10785 10796       L1    16  0.25

> <Gold.Chemscore.Hbond.Weighted>
-5.0300

> <Gold.Chemscore.Metal.Weighted>
-0.0000

> <Gold.Chemscore.Lipo.Weighted>
-4.2789

> <Gold.Chemscore.Internal_Hbond.Weighted>
0.0000

> <Gold.Chemscore.DEClash.Weighted>
0.7365

> <Gold.Chemscore.DEInternal.Weighted>
2.4770

> <Gold.Chemscore.Rot.Weighted>
6.1301

> <Gold.Chemscore.Internal.Correction.Weighted>
   9.000000E+99

> <Gold.Protein.RotatedTorsions>
[ 6907 6896 6895 6894 ] final   -9.78 input  -60.11 | X-H torsion
[ 7974 7965 7964 7962 ] final   84.70 input  175.53 | X-H torsion
[ 8008 7997 7996 7995 ] final -149.47 input   59.86 | X-H torsion
[ 10167 10162 10161 10158 ] final  -79.59 input  -65.29 | X-H torsion
[ 10718 10713 10712 10709 ] final   39.97 input   66.30 | X-H torsion
[ 10763 10752 10751 10750 ] final  -66.56 input  -60.55 | X-H torsion
[ 11005 11000 10999 10996 ] final  -14.41 input  -57.11 | X-H torsion

> <Gold.Protein.ActiveResidues>
 VAL166  LYS551  ARG553  GLY616  TRP617  ASP618  TYR619  PRO620  LYS621  CYS622 
 ASP623  PHE694  ASN695  SER759  ASP760  ASP761  ALA762  ILE779  LEU786  VAL792 
 PHE793  MET794  SER795  GLU796  ALA797  LYS798  CYS799  TRP800  GLU811  SER814 

> <Gold.Protein.RotatedAtoms>
  151.4124  135.0987  159.9588 H   0  0  0  0  0  0  0  0  0  0  0  0  # atno 6907 bound_to 6896
  152.5015  133.8785  159.7345 H   0  0  0  0  0  0  0  0  0  0  0  0  # atno 6908 bound_to 6896
  150.9283  133.6740  159.2844 H   0  0  0  0  0  0  0  0  0  0  0  0  # atno 6909 bound_to 6896
  145.5953  139.2344  143.2276 H   0  0  0  0  0  0  0  0  0  0  0  0  # atno 7974 bound_to 7965
  155.6081  140.0669  157.2714 H   0  0  0  0  0  0  0  0  0  0  0  0  # atno 8008 bound_to 7997
  154.4261  140.1806  156.1291 H   0  0  0  0  0  0  0  0  0  0  0  0  # atno 8009 bound_to 7997
  156.0106  140.3327  155.6941 H   0  0  0  0  0  0  0  0  0  0  0  0  # atno 8010 bound_to 7997
  140.4579  143.2462  151.8392 H   0  0  0  0  0  0  0  0  0  0  0  0  # atno 10167 bound_to 10162
  157.3768  130.7731  149.7161 H   0  0  0  0  0  0  0  0  0  0  0  0  # atno 10718 bound_to 10713
  154.3616  135.6115  153.5693 H   0  0  0  0  0  0  0  0  0  0  0  0  # atno 10763 bound_to 10752
  152.9793  135.5816  154.4626 H   0  0  0  0  0  0  0  0  0  0  0  0  # atno 10764 bound_to 10752
  154.4365  135.2849  155.1854 H   0  0  0  0  0  0  0  0  0  0  0  0  # atno 10765 bound_to 10752
  140.7861  133.8324  155.9336 H   0  0  0  0  0  0  0  0  0  0  0  0  # atno 11005 bound_to 11000
  146.1616  140.6779  142.9275 LP  0  0  0  0  0  0  0  0  0  0  0  0  # atno 17320 bound_to 7965
  144.7333  140.4736  143.6922 LP  0  0  0  0  0  0  0  0  0  0  0  0  # atno 17321 bound_to 7965
  139.4803  144.5042  151.9019 LP  0  0  0  0  0  0  0  0  0  0  0  0  # atno 17342 bound_to 10162
  140.4128  144.2346  150.5888 LP  0  0  0  0  0  0  0  0  0  0  0  0  # atno 17343 bound_to 10162
  155.9767  130.4072  150.3762 LP  0  0  0  0  0  0  0  0  0  0  0  0  # atno 17370 bound_to 10713
  157.1860  131.0404  151.2724 LP  0  0  0  0  0  0  0  0  0  0  0  0  # atno 17371 bound_to 10713
  140.9435  134.1870  157.4780 LP  0  0  0  0  0  0  0  0  0  0  0  0  # atno 17394 bound_to 11000
  139.8736  134.9881  156.5398 LP  0  0  0  0  0  0  0  0  0  0  0  0  # atno 17395 bound_to 11000

$$$$
