AV-unprocessed.smi:1213|AV-procd|sdf|5086|dock10
  -GOLD-   22720 4133D 1   1.00000     0.00000
 Structure written by MMmdl.
 37 38  0  0  0  0  0  0  0  0  2 V2000
  146.1356  136.4142  152.3012 N   0  0  0  0  0  0  0  0  0  0  0  0
  145.7385  136.7474  153.5314 C   0  0  0  0  0  0  0  0  0  0  0  0
  144.5827  137.0883  153.7772 O   0  0  0  0  0  0  0  0  0  0  0  0
  146.8014  136.7066  154.6350 C   0  0  0  0  0  0  0  0  0  0  0  0
  147.9937  137.5387  154.3284 N   0  3  2  0  0  0  0  0  0  0  0  0
  149.0896  137.3420  155.3113 C   0  0  0  0  0  0  0  0  0  0  0  0
  150.3619  138.1002  154.8894 C   0  0  0  0  0  0  0  0  0  0  0  0
  150.0957  139.5980  154.6584 C   0  0  2  0  0  0  0  0  0  0  0  0
  149.8672  140.2812  155.9317 N   0  0  0  0  0  0  0  0  0  0  0  0
  150.6519  141.2396  156.4464 C   0  0  0  0  0  0  0  0  0  0  0  0
  151.6662  141.6567  155.8872 O   0  0  0  0  0  0  0  0  0  0  0  0
  150.1819  141.6720  157.6297 N   0  0  0  0  0  0  0  0  0  0  0  0
  150.7175  142.6846  158.4684 C   0  0  0  0  0  0  0  0  0  0  0  0
  150.1296  143.1278  159.5858 N   0  0  0  0  0  0  0  0  0  0  0  0
  150.8799  144.1259  160.2126 C   0  0  0  0  0  0  0  0  0  0  0  0
  152.0455  144.4312  159.5549 C   0  0  0  0  0  0  0  0  0  0  0  0
  152.2472  143.4732  158.1125 S   0  0  0  0  0  0  0  0  0  0  0  0
  148.9070  139.7711  153.6916 C   0  0  0  0  0  0  0  0  0  0  0  0
  147.6707  138.9798  154.1519 C   0  0  0  0  0  0  0  0  0  0  0  0
  145.4721  136.4315  151.5391 H   0  0  0  0  0  0  0  0  0  0  0  0
  147.0954  136.1512  152.1296 H   0  0  0  0  0  0  0  0  0  0  0  0
  146.3712  137.0061  155.5922 H   0  0  0  0  0  0  0  0  0  0  0  0
  147.1000  135.6626  154.7390 H   0  0  0  0  0  0  0  0  0  0  0  0
  148.7588  137.6706  156.2976 H   0  0  0  0  0  0  0  0  0  0  0  0
  149.3222  136.2797  155.3943 H   0  0  0  0  0  0  0  0  0  0  0  0
  151.1454  137.9650  155.6364 H   0  0  0  0  0  0  0  0  0  0  0  0
  150.7456  137.6609  153.9674 H   0  0  0  0  0  0  0  0  0  0  0  0
  150.9869  140.0322  154.2013 H   0  0  0  0  0  0  0  0  0  0  0  0
  149.0590  139.9956  156.4650 H   0  0  0  0  0  0  0  0  0  0  0  0
  149.3391  141.2321  157.9682 H   0  0  0  0  0  0  0  0  0  0  0  0
  150.5090  144.5655  161.1266 H   0  0  0  0  0  0  0  0  0  0  0  0
  152.7942  145.1589  159.8308 H   0  0  0  0  0  0  0  0  0  0  0  0
  148.6540  140.8255  153.5748 H   0  0  0  0  0  0  0  0  0  0  0  0
  149.2008  139.4235  152.7002 H   0  0  0  0  0  0  0  0  0  0  0  0
  146.8779  139.1000  153.4132 H   0  0  0  0  0  0  0  0  0  0  0  0
  147.2882  139.3875  155.0889 H   0  0  0  0  0  0  0  0  0  0  0  0
  148.3448  137.2056  153.4414 H   0  0  0  0  0  0  0  0  0  0  0  0
  1  2  1  0  0  0  0
  1 20  1  0  0  0  0
  1 21  1  0  0  0  0
  2  3  2  0  0  0  0
  2  4  1  0  0  0  0
  4  5  1  0  0  0  0
  4 22  1  0  0  0  0
  4 23  1  0  0  0  0
  5 19  1  0  0  0  0
  5  6  1  0  0  0  0
  5 37  1  0  0  0  0
  6  7  1  0  0  0  0
  6 24  1  0  0  0  0
  6 25  1  0  0  0  0
  7  8  1  0  0  0  0
  7 26  1  0  0  0  0
  7 27  1  0  0  0  0
  8  9  1  0  0  0  0
  8 18  1  0  0  0  0
  8 28  1  0  0  0  0
  9 10  1  0  0  0  0
  9 29  1  0  0  0  0
 10 11  2  0  0  0  0
 10 12  1  0  0  0  0
 12 13  1  0  0  0  0
 12 30  1  0  0  0  0
 13 17  1  0  0  0  0
 13 14  2  0  0  0  0
 14 15  1  0  0  0  0
 15 16  2  0  0  0  0
 15 31  1  0  0  0  0
 16 17  1  0  0  0  0
 16 32  1  0  0  0  0
 18 19  1  0  0  0  0
 18 33  1  0  0  0  0
 18 34  1  0  0  0  0
 19 35  1  0  0  0  0
 19 36  1  0  0  0  0
M  CHG  1   5   1
M  END
> <s_m_source_file>
AV-unprocessed.smi

> <i_m_source_file_index>
1213

> <i_lp_mmshare_version>
43012

> <i_f3d_flags>
0

> <s_epik_input>
W05IMl1DKD1PKVtDSDJdTjFbQ0gyXVtDSDJdW0NIXShbQ0gyXVtDSDJdMSlbTkhdQyg9TylbTkhdYzJuW2NIXVtjSF1zMg==

> <s_epik_cmdline>
J2VwaWtfcHl0aG9uJywgJy1waCcsICc3LjAnLCAnLXRuJywgJzgnLCAnLW1hJywgJzIwMCcsICctbWV0YWxfYmluZGluZycsICctaW1hZScsICc8aW5maWxlLm1hZT4nLCAnLW9tYWUnLCAnPG91dGZpbGUubWFlPic=

> <r_lp_tautomer_probability>
0.999

> <r_epik_Ionization_Penalty>
0.86253

> <r_epik_Ionization_Penalty_Charging>
0.862349

> <r_epik_Ionization_Penalty_Neutral>
0.000180085

> <r_epik_State_Penalty>
0.898939

> <r_epik_Charging_Adjusted_Penalty>
1.76129

> <i_epik_Tot_Q>
1

> <i_epik_Tot_abs_Q>
1

> <r_epik_Metal_State_Penalty>
0.948529

> <b_epik_Metal_Only>
0

> <s_lp_Force_Field>
OPLS_2005

> <r_lp_Energy>
11.1317

> <b_lp_Chiralities_Consistent>
1

> <s_lp_Variant>
AV-unprocessed.smi:1213-3

> <Gold.Version>
5.8.1

> <Gold.Id.Protein>
6NUR|6NUR_protein|mol2

> <Gold.PLP.Fitness>
39.9824

> <Gold.PLP.PLP>
-31.0589

> <Gold.PLP.part.hbond>
-2.0000

> <Gold.PLP.part.metal>
0.0000

> <Gold.PLP.part.buried>
-4.3015

> <Gold.PLP.part.nonpolar>
-25.3009

> <Gold.PLP.part.repulsive>
0.4443

> <Gold.PLP.ligand.clash>
0.0000

> <Gold.PLP.ligand.torsion>
0.0505

> <Gold.PLP.Chemscore.Hbond>
3.0000

> <Gold.PLP.Chemscore.CHOScore>
0.0000

> <Gold.PLP.Chemscore.Metal>
0.0000

> <Gold.Chemscore.Hbonds>
donor molecule, donor type, donor heavy atom, donor atom, acceptor molecule, acceptor atom, score
      L1  H     1    21       P1  7948  1.00
      L1  H     5    37       P1  7948  2.00

> <Gold.PLP.Chemscore.Internal.Correction>
0.0244

> <Gold.Rescore>
     Score         DG    S(hbond)    S(metal)    S(lipo)     H(rot)  DE(clash)    DE(int)     intcor
     13.56     -15.11       1.96        0.00      71.66       2.06       0.28       1.27       ----

> <Gold.Chemscore.Fitness>
13.5634

> <Gold.Chemscore.DG>
-15.1125

> <Gold.Chemscore.ZeroCoef>
-5.4800

> <Gold.Chemscore.Hbond>
1.9551

> <Gold.Chemscore.Metal>
0.0000

> <Gold.Chemscore.Lipo>
71.6605

> <Gold.Chemscore.Internal_Hbond>
0.0000

> <Gold.Chemscore.DEClash>
0.2790

> <Gold.Chemscore.DEInternal>
1.2701

> <Gold.Chemscore.Rot>
2.0631

> <Gold.Chemscore.Internal.Correction>
   9.000000E+99

> <Gold.Chemscore.Hbonds>
donor molecule, donor type, donor heavy atom, donor atom, acceptor molecule, acceptor atom, score
      L1  H     1    21       P1  7948  1.00
      L1  H     5    37       P1  7948  0.99

> <Gold.Chemscore.Hbond.Weighted>
-6.5299

> <Gold.Chemscore.Metal.Weighted>
-0.0000

> <Gold.Chemscore.Lipo.Weighted>
-8.3843

> <Gold.Chemscore.Internal_Hbond.Weighted>
0.0000

> <Gold.Chemscore.DEClash.Weighted>
0.2790

> <Gold.Chemscore.DEInternal.Weighted>
1.2701

> <Gold.Chemscore.Rot.Weighted>
5.2816

> <Gold.Chemscore.Internal.Correction.Weighted>
   9.000000E+99

> <Gold.Protein.RotatedTorsions>
[ 6907 6896 6895 6894 ] final  131.60 input  -60.11 | X-H torsion
[ 7974 7965 7964 7962 ] final -137.66 input  175.53 | X-H torsion
[ 8008 7997 7996 7995 ] final   54.08 input   59.86 | X-H torsion
[ 10167 10162 10161 10158 ] final  -87.58 input  -65.29 | X-H torsion
[ 10718 10713 10712 10709 ] final  161.14 input   66.30 | X-H torsion
[ 10763 10752 10751 10750 ] final  -64.22 input  -60.55 | X-H torsion
[ 11005 11000 10999 10996 ] final  141.50 input  -57.11 | X-H torsion

> <Gold.Protein.ActiveResidues>
 VAL166  LYS551  ARG553  GLY616  TRP617  ASP618  TYR619  PRO620  LYS621  CYS622 
 ASP623  PHE694  ASN695  SER759  ASP760  ASP761  ALA762  ILE779  LEU786  VAL792 
 PHE793  MET794  SER795  GLU796  ALA797  LYS798  CYS799  TRP800  GLU811  SER814 

> <Gold.Protein.RotatedAtoms>
  152.3409  133.6066  159.5875 H   0  0  0  0  0  0  0  0  0  0  0  0  # atno 6907 bound_to 6896
  150.7478  133.9723  159.3558 H   0  0  0  0  0  0  0  0  0  0  0  0  # atno 6908 bound_to 6896
  151.7587  135.0816  160.0393 H   0  0  0  0  0  0  0  0  0  0  0  0  # atno 6909 bound_to 6896
  144.8823  140.6525  143.5198 H   0  0  0  0  0  0  0  0  0  0  0  0  # atno 7974 bound_to 7965
  155.4789  140.3468  155.4337 H   0  0  0  0  0  0  0  0  0  0  0  0  # atno 8008 bound_to 7997
  156.1052  140.1446  156.9442 H   0  0  0  0  0  0  0  0  0  0  0  0  # atno 8009 bound_to 7997
  154.4719  140.0898  156.7145 H   0  0  0  0  0  0  0  0  0  0  0  0  # atno 8010 bound_to 7997
  140.3831  143.2739  151.9359 H   0  0  0  0  0  0  0  0  0  0  0  0  # atno 10167 bound_to 10162
  157.1407  131.0540  151.2328 H   0  0  0  0  0  0  0  0  0  0  0  0  # atno 10718 bound_to 10713
  154.3268  135.6185  153.5533 H   0  0  0  0  0  0  0  0  0  0  0  0  # atno 10763 bound_to 10752
  152.9815  135.5737  154.5007 H   0  0  0  0  0  0  0  0  0  0  0  0  # atno 10764 bound_to 10752
  154.4686  135.2858  155.1636 H   0  0  0  0  0  0  0  0  0  0  0  0  # atno 10765 bound_to 10752
  140.0406  134.9307  157.0835 H   0  0  0  0  0  0  0  0  0  0  0  0  # atno 11005 bound_to 11000
  145.3932  139.1612  143.4218 LP  0  0  0  0  0  0  0  0  0  0  0  0  # atno 17320 bound_to 7965
  146.3002  140.4023  142.8707 LP  0  0  0  0  0  0  0  0  0  0  0  0  # atno 17321 bound_to 7965
  139.4794  144.5800  151.7949 LP  0  0  0  0  0  0  0  0  0  0  0  0  # atno 17342 bound_to 10162
  140.4917  144.1300  150.5951 LP  0  0  0  0  0  0  0  0  0  0  0  0  # atno 17343 bound_to 10162
  157.4310  130.7490  149.6990 LP  0  0  0  0  0  0  0  0  0  0  0  0  # atno 17370 bound_to 10713
  155.9789  130.4046  150.3619 LP  0  0  0  0  0  0  0  0  0  0  0  0  # atno 17371 bound_to 10713
  140.4076  134.2016  155.7163 LP  0  0  0  0  0  0  0  0  0  0  0  0  # atno 17394 bound_to 11000
  141.1881  133.8268  157.1008 LP  0  0  0  0  0  0  0  0  0  0  0  0  # atno 17395 bound_to 11000

$$$$
