AV-unprocessed.smi:2061|AV-procd|sdf|8362|dock2
  -GOLD-   2272011 33D 1   1.00000     0.00000
 Structure written by MMmdl.
 45 46  0  0  0  0  0  0  0  0  1 V2000
  145.7731  130.4376  151.9828 C   0  0  0  0  0  0  0  0  0  0  0  0
  146.8143  131.2927  152.6206 C   0  0  0  0  0  0  0  0  0  0  0  0
  147.0711  132.6343  152.5769 C   0  0  0  0  0  0  0  0  0  0  0  0
  148.2137  132.7689  153.4099 C   0  0  0  0  0  0  0  0  0  0  0  0
  148.8107  134.0367  153.6293 N   0  0  0  0  0  0  0  0  0  0  0  0
  149.5681  134.4152  154.6729 C   0  0  0  0  0  0  0  0  0  0  0  0
  149.8643  133.6992  155.6298 O   0  0  0  0  0  0  0  0  0  0  0  0
  149.9676  135.6888  154.5471 N   0  0  0  0  0  0  0  0  0  0  0  0
  150.7936  136.4214  155.5052 C   0  0  0  0  0  0  0  0  0  0  0  0
  151.2520  137.8014  154.9632 C   0  0  2  0  0  0  0  0  0  0  0  0
  152.6275  138.1383  155.5824 C   0  0  0  0  0  0  0  0  0  0  0  0
  150.2503  138.8779  155.1289 N   0  0  0  0  0  0  0  0  0  0  0  0
  149.2035  138.8343  154.1058 C   0  0  0  0  0  0  0  0  0  0  0  0
  148.1440  139.9346  154.2967 C   0  0  2  0  0  0  0  0  0  0  0  0
  147.1001  139.9302  153.1751 C   0  0  0  0  0  0  0  0  0  0  0  0
  148.7786  141.2096  154.3028 O   0  0  0  0  0  0  0  0  0  0  0  0
  149.8268  141.3533  155.2594 C   0  0  1  0  0  0  0  0  0  0  0  0
  149.2814  141.4942  156.6909 C   0  0  0  0  0  0  0  0  0  0  0  0
  150.8536  140.2136  155.1058 C   0  0  0  0  0  0  0  0  0  0  0  0
  148.6160  131.6142  153.9183 N   0  0  0  0  0  0  0  0  0  0  0  0
  147.7217  130.6624  153.4145 O   0  0  0  0  0  0  0  0  0  0  0  0
  144.8924  131.0253  151.7230 H   0  0  0  0  0  0  0  0  0  0  0  0
  145.4587  129.6393  152.6553 H   0  0  0  0  0  0  0  0  0  0  0  0
  146.1568  129.9806  151.0706 H   0  0  0  0  0  0  0  0  0  0  0  0
  146.5290  133.3936  152.0332 H   0  0  0  0  0  0  0  0  0  0  0  0
  148.6475  134.7280  152.9124 H   0  0  0  0  0  0  0  0  0  0  0  0
  149.6659  136.2014  153.7316 H   0  0  0  0  0  0  0  0  0  0  0  0
  150.2668  136.5456  156.4528 H   0  0  0  0  0  0  0  0  0  0  0  0
  151.6523  135.7999  155.7563 H   0  0  0  0  0  0  0  0  0  0  0  0
  151.4237  137.6662  153.8941 H   0  0  0  0  0  0  0  0  0  0  0  0
  153.2956  137.2771  155.5551 H   0  0  0  0  0  0  0  0  0  0  0  0
  152.5332  138.4483  156.6236 H   0  0  0  0  0  0  0  0  0  0  0  0
  153.1376  138.9333  155.0396 H   0  0  0  0  0  0  0  0  0  0  0  0
  149.6521  138.9241  153.1152 H   0  0  0  0  0  0  0  0  0  0  0  0
  148.6848  137.8777  154.1307 H   0  0  0  0  0  0  0  0  0  0  0  0
  147.6270  139.7813  155.2442 H   0  0  0  0  0  0  0  0  0  0  0  0
  146.5693  138.9788  153.1363 H   0  0  0  0  0  0  0  0  0  0  0  0
  147.5644  140.0950  152.2024 H   0  0  0  0  0  0  0  0  0  0  0  0
  146.3610  140.7168  153.3286 H   0  0  0  0  0  0  0  0  0  0  0  0
  150.3306  142.2901  155.0195 H   0  0  0  0  0  0  0  0  0  0  0  0
  150.0858  141.7221  157.3906 H   0  0  0  0  0  0  0  0  0  0  0  0
  148.7986  140.5811  157.0383 H   0  0  0  0  0  0  0  0  0  0  0  0
  148.5528  142.3027  156.7512 H   0  0  0  0  0  0  0  0  0  0  0  0
  151.5884  140.3199  155.9023 H   0  0  0  0  0  0  0  0  0  0  0  0
  151.3925  140.3489  154.1668 H   0  0  0  0  0  0  0  0  0  0  0  0
  1  2  1  0  0  0  0
  1 22  1  0  0  0  0
  1 23  1  0  0  0  0
  1 24  1  0  0  0  0
  2 21  1  0  0  0  0
  2  3  2  0  0  0  0
  3  4  1  0  0  0  0
  3 25  1  0  0  0  0
  4  5  1  0  0  0  0
  4 20  2  0  0  0  0
  5  6  1  0  0  0  0
  5 26  1  0  0  0  0
  6  7  2  0  0  0  0
  6  8  1  0  0  0  0
  8  9  1  0  0  0  0
  8 27  1  0  0  0  0
  9 10  1  0  0  0  0
  9 28  1  0  0  0  0
  9 29  1  0  0  0  0
 10 11  1  0  0  0  0
 10 12  1  0  0  0  0
 10 30  1  0  0  0  0
 11 31  1  0  0  0  0
 11 32  1  0  0  0  0
 11 33  1  0  0  0  0
 12 19  1  0  0  0  0
 12 13  1  0  0  0  0
 13 14  1  0  0  0  0
 13 34  1  0  0  0  0
 13 35  1  0  0  0  0
 14 15  1  0  0  0  0
 14 16  1  0  0  0  0
 14 36  1  0  0  0  0
 15 37  1  0  0  0  0
 15 38  1  0  0  0  0
 15 39  1  0  0  0  0
 16 17  1  0  0  0  0
 17 18  1  0  0  0  0
 17 19  1  0  0  0  0
 17 40  1  0  0  0  0
 18 41  1  0  0  0  0
 18 42  1  0  0  0  0
 18 43  1  0  0  0  0
 19 44  1  0  0  0  0
 19 45  1  0  0  0  0
 20 21  1  0  0  0  0
M  END
> <s_m_source_file>
AV-unprocessed.smi

> <i_m_source_file_index>
2061

> <i_lp_mmshare_version>
43012

> <i_f3d_flags>
0

> <s_epik_input>
W0NIM11jMVtjSF1jKG5vMSlbTkhdQyg9TylbTkhdW0NIMl1bQ0BIXShbQ0gzXSlOMltDSDJdW0NAQEhdKFtDSDNdKU9bQ0BASF0oW0NIM10pW0NIMl0y

> <s_epik_cmdline>
J2VwaWtfcHl0aG9uJywgJy1waCcsICc3LjAnLCAnLXRuJywgJzgnLCAnLW1hJywgJzIwMCcsICctbWV0YWxfYmluZGluZycsICctaW1hZScsICc8aW5maWxlLm1hZT4nLCAnLW9tYWUnLCAnPG91dGZpbGUubWFlPic=

> <r_epik_Ionization_Penalty>
0.214073

> <r_epik_Ionization_Penalty_Charging>
0

> <r_epik_Ionization_Penalty_Neutral>
0.214073

> <r_epik_State_Penalty>
0.204211

> <r_epik_Charging_Adjusted_Penalty>
0.204211

> <i_epik_Tot_Q>
0

> <i_epik_Tot_abs_Q>
0

> <r_epik_Metal_State_Penalty>
0.217067

> <b_epik_Metal_Only>
0

> <s_lp_Force_Field>
OPLS_2005

> <r_lp_Energy>
31.3151

> <b_lp_Chiralities_Consistent>
1

> <s_lp_Variant>
AV-unprocessed.smi:2061-3

> <Gold.Version>
5.8.1

> <Gold.Id.Protein>
6NUR|6NUR_protein|mol2

> <Gold.PLP.Fitness>
37.3585

> <Gold.PLP.PLP>
-33.2932

> <Gold.PLP.part.hbond>
-2.1069

> <Gold.PLP.part.metal>
0.0000

> <Gold.PLP.part.buried>
-2.1465

> <Gold.PLP.part.nonpolar>
-29.1191

> <Gold.PLP.part.repulsive>
0.4712

> <Gold.PLP.ligand.clash>
0.0000

> <Gold.PLP.ligand.torsion>
0.9738

> <Gold.PLP.Chemscore.Hbond>
1.9920

> <Gold.PLP.Chemscore.CHOScore>
0.0000

> <Gold.PLP.Chemscore.Metal>
0.0000

> <Gold.Chemscore.Hbonds>
donor molecule, donor type, donor heavy atom, donor atom, acceptor molecule, acceptor atom, score
      L1  H     5    26       P1  7948  0.95
      L1  H     8    27       P1  7948  0.99

> <Gold.PLP.Chemscore.Internal.Correction>
0.0369

> <Gold.Rescore>
     Score         DG    S(hbond)    S(metal)    S(lipo)     H(rot)  DE(clash)    DE(int)     intcor
     12.89     -14.90       1.42        0.00      73.80       1.55       0.05       1.96       ----

> <Gold.Chemscore.Fitness>
12.8870

> <Gold.Chemscore.DG>
-14.8994

> <Gold.Chemscore.ZeroCoef>
-5.4800

> <Gold.Chemscore.Hbond>
1.4209

> <Gold.Chemscore.Metal>
0.0000

> <Gold.Chemscore.Lipo>
73.8032

> <Gold.Chemscore.Internal_Hbond>
0.0000

> <Gold.Chemscore.DEClash>
0.0503

> <Gold.Chemscore.DEInternal>
1.9621

> <Gold.Chemscore.Rot>
1.5474

> <Gold.Chemscore.Internal.Correction>
   9.000000E+99

> <Gold.Chemscore.Hbonds>
donor molecule, donor type, donor heavy atom, donor atom, acceptor molecule, acceptor atom, score
      L1  H     5    26       P1  7948  0.21
      L1  H     8    27       P1  7948  0.37

> <Gold.Chemscore.Hbond.Weighted>
-4.7456

> <Gold.Chemscore.Metal.Weighted>
-0.0000

> <Gold.Chemscore.Lipo.Weighted>
-8.6350

> <Gold.Chemscore.Internal_Hbond.Weighted>
0.0000

> <Gold.Chemscore.DEClash.Weighted>
0.0503

> <Gold.Chemscore.DEInternal.Weighted>
1.9621

> <Gold.Chemscore.Rot.Weighted>
3.9612

> <Gold.Chemscore.Internal.Correction.Weighted>
   9.000000E+99

> <Gold.Protein.RotatedTorsions>
[ 6907 6896 6895 6894 ] final  -56.84 input  -60.11 | X-H torsion
[ 7974 7965 7964 7962 ] final   -7.48 input  175.53 | X-H torsion
[ 8008 7997 7996 7995 ] final  109.24 input   59.86 | X-H torsion
[ 10167 10162 10161 10158 ] final   52.49 input  -65.29 | X-H torsion
[ 10718 10713 10712 10709 ] final  -77.27 input   66.30 | X-H torsion
[ 10763 10752 10751 10750 ] final  165.17 input  -60.55 | X-H torsion
[ 11005 11000 10999 10996 ] final  142.79 input  -57.11 | X-H torsion

> <Gold.Protein.ActiveResidues>
 VAL166  LYS551  ARG553  GLY616  TRP617  ASP618  TYR619  PRO620  LYS621  CYS622 
 ASP623  PHE694  ASN695  SER759  ASP760  ASP761  ALA762  ILE779  LEU786  VAL792 
 PHE793  MET794  SER795  GLU796  ALA797  LYS798  CYS799  TRP800  GLU811  SER814 

> <Gold.Protein.RotatedAtoms>
  150.8134  134.7303  159.6708 H   0  0  0  0  0  0  0  0  0  0  0  0  # atno 6907 bound_to 6896
  152.4254  134.5875  159.9975 H   0  0  0  0  0  0  0  0  0  0  0  0  # atno 6908 bound_to 6896
  151.6078  133.3313  159.3097 H   0  0  0  0  0  0  0  0  0  0  0  0  # atno 6909 bound_to 6896
  146.2305  140.2326  142.8340 H   0  0  0  0  0  0  0  0  0  0  0  0  # atno 7974 bound_to 7965
  156.1964  140.3061  155.9437 H   0  0  0  0  0  0  0  0  0  0  0  0  # atno 8008 bound_to 7997
  155.3055  140.0448  157.3049 H   0  0  0  0  0  0  0  0  0  0  0  0  # atno 8009 bound_to 7997
  154.5516  140.2293  155.8486 H   0  0  0  0  0  0  0  0  0  0  0  0  # atno 8010 bound_to 7997
  140.2508  144.3481  150.6349 H   0  0  0  0  0  0  0  0  0  0  0  0  # atno 10167 bound_to 10162
  156.0150  130.4487  150.3319 H   0  0  0  0  0  0  0  0  0  0  0  0  # atno 10718 bound_to 10713
  154.3200  135.2756  155.2524 H   0  0  0  0  0  0  0  0  0  0  0  0  # atno 10763 bound_to 10752
  154.4882  135.5840  153.6443 H   0  0  0  0  0  0  0  0  0  0  0  0  # atno 10764 bound_to 10752
  152.9878  135.6128  154.3384 H   0  0  0  0  0  0  0  0  0  0  0  0  # atno 10765 bound_to 10752
  140.0504  134.9259  157.1006 H   0  0  0  0  0  0  0  0  0  0  0  0  # atno 11005 bound_to 11000
  144.9546  140.8213  143.5551 LP  0  0  0  0  0  0  0  0  0  0  0  0  # atno 17320 bound_to 7965
  145.2290  139.2123  143.5053 LP  0  0  0  0  0  0  0  0  0  0  0  0  # atno 17321 bound_to 7965
  140.6042  143.2167  151.7014 LP  0  0  0  0  0  0  0  0  0  0  0  0  # atno 17342 bound_to 10162
  139.5047  144.3745  152.0437 LP  0  0  0  0  0  0  0  0  0  0  0  0  # atno 17343 bound_to 10162
  157.1417  131.0298  151.2925 LP  0  0  0  0  0  0  0  0  0  0  0  0  # atno 17370 bound_to 10713
  157.4466  130.7574  149.7115 LP  0  0  0  0  0  0  0  0  0  0  0  0  # atno 17371 bound_to 10713
  140.3927  134.2168  155.7165 LP  0  0  0  0  0  0  0  0  0  0  0  0  # atno 17394 bound_to 11000
  141.1927  133.8166  157.0827 LP  0  0  0  0  0  0  0  0  0  0  0  0  # atno 17395 bound_to 11000

$$$$
