AV-unprocessed.smi:2790|AV-procd|sdf|10766|dock4
  -GOLD-   2272015203D 1   1.00000     0.00000
 Structure written by MMmdl.
 46 47  0  0  0  0  0  0  0  0  2 V2000
  145.7925  136.5191  153.6394 C   0  0  0  0  0  0  0  0  0  0  0  0
  146.2357  136.8961  152.2767 N   0  3  0  0  0  0  0  0  0  0  0  0
  145.4081  136.2491  151.2354 C   0  0  0  0  0  0  0  0  0  0  0  0
  146.3379  138.3650  152.0823 C   0  0  0  0  0  0  0  0  0  0  0  0
  146.8362  139.1021  153.3291 C   0  0  0  0  0  0  0  0  0  0  0  0
  146.1261  139.1880  154.3313 O   0  0  0  0  0  0  0  0  0  0  0  0
  148.0702  139.6181  153.2565 N   0  0  0  0  0  0  0  0  0  0  0  0
  148.7207  140.3651  154.3290 C   0  0  0  0  0  0  0  0  0  0  0  0
  149.7342  139.5008  155.1224 C   0  0  0  0  0  0  0  0  0  0  0  0
  150.4718  140.4053  156.1388 C   0  0  0  0  0  0  0  0  0  0  0  0
  151.4395  139.9056  157.0465 C   0  0  0  0  0  0  0  0  0  0  0  0
  152.0887  140.7974  157.9229 C   0  0  0  0  0  0  0  0  0  0  0  0
  151.8534  142.1245  157.9411 N   0  0  0  0  0  0  0  0  0  0  0  0
  150.9488  142.6098  157.0674 C   0  0  0  0  0  0  0  0  0  0  0  0
  150.2454  141.8031  156.1518 C   0  0  0  0  0  0  0  0  0  0  0  0
  148.9456  138.3641  155.8354 C   0  0  0  0  0  0  0  0  0  0  0  0
  149.8604  137.3460  156.5392 C   0  0  0  0  0  0  0  0  0  0  0  0
  150.8178  136.6911  155.5347 C   0  0  0  0  0  0  0  0  0  0  0  0
  151.6216  137.7508  154.7694 C   0  0  0  0  0  0  0  0  0  0  0  0
  150.6924  138.7940  154.1139 C   0  0  0  0  0  0  0  0  0  0  0  0
  144.7815  136.8788  153.8355 H   0  0  0  0  0  0  0  0  0  0  0  0
  146.4546  136.9326  154.4005 H   0  0  0  0  0  0  0  0  0  0  0  0
  145.7968  135.4349  153.7567 H   0  0  0  0  0  0  0  0  0  0  0  0
  144.3802  136.6124  151.2718 H   0  0  0  0  0  0  0  0  0  0  0  0
  145.3936  135.1671  151.3707 H   0  0  0  0  0  0  0  0  0  0  0  0
  145.8087  136.4512  150.2415 H   0  0  0  0  0  0  0  0  0  0  0  0
  147.0523  138.5792  151.2863 H   0  0  0  0  0  0  0  0  0  0  0  0
  145.3766  138.7667  151.7570 H   0  0  0  0  0  0  0  0  0  0  0  0
  148.5917  139.5015  152.3995 H   0  0  0  0  0  0  0  0  0  0  0  0
  149.2317  141.2228  153.8883 H   0  0  0  0  0  0  0  0  0  0  0  0
  147.9584  140.7704  154.9968 H   0  0  0  0  0  0  0  0  0  0  0  0
  151.7013  138.8608  157.0933 H   0  0  0  0  0  0  0  0  0  0  0  0
  152.8243  140.4333  158.6250 H   0  0  0  0  0  0  0  0  0  0  0  0
  150.7858  143.6770  157.0917 H   0  0  0  0  0  0  0  0  0  0  0  0
  149.5533  142.2711  155.4694 H   0  0  0  0  0  0  0  0  0  0  0  0
  148.2191  138.7579  156.5443 H   0  0  0  0  0  0  0  0  0  0  0  0
  148.3485  137.8255  155.0977 H   0  0  0  0  0  0  0  0  0  0  0  0
  150.4285  137.8341  157.3320 H   0  0  0  0  0  0  0  0  0  0  0  0
  149.2557  136.5786  157.0227 H   0  0  0  0  0  0  0  0  0  0  0  0
  151.4932  136.0073  156.0497 H   0  0  0  0  0  0  0  0  0  0  0  0
  150.2463  136.0881  154.8279 H   0  0  0  0  0  0  0  0  0  0  0  0
  152.3224  138.2324  155.4503 H   0  0  0  0  0  0  0  0  0  0  0  0
  152.2293  137.2676  154.0042 H   0  0  0  0  0  0  0  0  0  0  0  0
  150.0933  138.2735  153.3651 H   0  0  0  0  0  0  0  0  0  0  0  0
  151.2786  139.5145  153.5444 H   0  0  0  0  0  0  0  0  0  0  0  0
  147.1712  136.5315  152.1619 H   0  0  0  0  0  0  0  0  0  0  0  0
  1  2  1  0  0  0  0
  1 21  1  0  0  0  0
  1 22  1  0  0  0  0
  1 23  1  0  0  0  0
  2  3  1  0  0  0  0
  2  4  1  0  0  0  0
  2 46  1  0  0  0  0
  3 24  1  0  0  0  0
  3 25  1  0  0  0  0
  3 26  1  0  0  0  0
  4  5  1  0  0  0  0
  4 27  1  0  0  0  0
  4 28  1  0  0  0  0
  5  6  2  0  0  0  0
  5  7  1  0  0  0  0
  7  8  1  0  0  0  0
  7 29  1  0  0  0  0
  8  9  1  0  0  0  0
  8 30  1  0  0  0  0
  8 31  1  0  0  0  0
  9 20  1  0  0  0  0
  9 10  1  0  0  0  0
  9 16  1  0  0  0  0
 10 15  1  0  0  0  0
 10 11  2  0  0  0  0
 11 12  1  0  0  0  0
 11 32  1  0  0  0  0
 12 13  2  0  0  0  0
 12 33  1  0  0  0  0
 13 14  1  0  0  0  0
 14 15  2  0  0  0  0
 14 34  1  0  0  0  0
 15 35  1  0  0  0  0
 16 17  1  0  0  0  0
 16 36  1  0  0  0  0
 16 37  1  0  0  0  0
 17 18  1  0  0  0  0
 17 38  1  0  0  0  0
 17 39  1  0  0  0  0
 18 19  1  0  0  0  0
 18 40  1  0  0  0  0
 18 41  1  0  0  0  0
 19 20  1  0  0  0  0
 19 42  1  0  0  0  0
 19 43  1  0  0  0  0
 20 44  1  0  0  0  0
 20 45  1  0  0  0  0
M  CHG  1   2   1
M  END
> <s_m_source_file>
AV-unprocessed.smi

> <i_m_source_file_index>
2790

> <i_lp_mmshare_version>
43012

> <i_f3d_flags>
0

> <s_epik_input>
W0NIM11OKFtDSDNdKVtDSDJdQyg9TylbTkhdW0NIMl1DMShbQ0gyXVtDSDJdW0NIMl1bQ0gyXVtDSDJdMSljMltjSF1bY0hdbltjSF1bY0hdMg==

> <s_epik_cmdline>
J2VwaWtfcHl0aG9uJywgJy1waCcsICc3LjAnLCAnLXRuJywgJzgnLCAnLW1hJywgJzIwMCcsICctbWV0YWxfYmluZGluZycsICctaW1hZScsICc8aW5maWxlLm1hZT4nLCAnLW9tYWUnLCAnPG91dGZpbGUubWFlPic=

> <r_epik_Ionization_Penalty>
0.089928

> <r_epik_Ionization_Penalty_Charging>
0.0368445

> <r_epik_Ionization_Penalty_Neutral>
0.0530835

> <r_epik_State_Penalty>
0.0777876

> <r_epik_Charging_Adjusted_Penalty>
0.114632

> <i_epik_Tot_Q>
1

> <i_epik_Tot_abs_Q>
1

> <r_epik_Metal_State_Penalty>
0.0848697

> <b_epik_Metal_Only>
0

> <s_lp_Force_Field>
OPLS_2005

> <r_lp_Energy>
21.8656

> <b_lp_Chiralities_Consistent>
1

> <s_lp_Variant>
AV-unprocessed.smi:2790-1

> <Gold.Version>
5.8.1

> <Gold.Id.Protein>
6NUR|6NUR_protein|mol2

> <Gold.PLP.Fitness>
43.2433

> <Gold.PLP.PLP>
-32.9131

> <Gold.PLP.part.hbond>
-1.8772

> <Gold.PLP.part.metal>
0.0000

> <Gold.PLP.part.buried>
-2.0058

> <Gold.PLP.part.nonpolar>
-29.0905

> <Gold.PLP.part.repulsive>
0.2935

> <Gold.PLP.ligand.clash>
0.0000

> <Gold.PLP.ligand.torsion>
0.4810

> <Gold.PLP.Chemscore.Hbond>
3.0000

> <Gold.PLP.Chemscore.CHOScore>
0.7397

> <Gold.PLP.Chemscore.Metal>
0.0000

> <Gold.Chemscore.Hbonds>
donor molecule, donor type, donor heavy atom, donor atom, acceptor molecule, acceptor atom, score
      L1  H     2    46       P1  7948  2.00
      L1  H     7    29       P1  7957  1.00
      L1  C    14    34       P1  8028  0.71

> <Gold.PLP.Chemscore.Internal.Correction>
0.0730

> <Gold.Rescore>
     Score         DG    S(hbond)    S(metal)    S(lipo)     H(rot)  DE(clash)    DE(int)     intcor
     15.57     -18.20       2.00        0.00      87.91       1.65       0.04       2.59       ----

> <Gold.Chemscore.Fitness>
15.5727

> <Gold.Chemscore.DG>
-18.1995

> <Gold.Chemscore.ZeroCoef>
-5.4800

> <Gold.Chemscore.Hbond>
1.9972

> <Gold.Chemscore.Metal>
0.0000

> <Gold.Chemscore.Lipo>
87.9068

> <Gold.Chemscore.Internal_Hbond>
0.0000

> <Gold.Chemscore.DEClash>
0.0358

> <Gold.Chemscore.DEInternal>
2.5911

> <Gold.Chemscore.Rot>
1.6547

> <Gold.Chemscore.Internal.Correction>
   9.000000E+99

> <Gold.Chemscore.Hbonds>
donor molecule, donor type, donor heavy atom, donor atom, acceptor molecule, acceptor atom, score
      L1  H     2    46       P1  7948  1.00
      L1  H     7    29       P1  7957  0.97

> <Gold.Chemscore.Hbond.Weighted>
-6.6705

> <Gold.Chemscore.Metal.Weighted>
-0.0000

> <Gold.Chemscore.Lipo.Weighted>
-10.2851

> <Gold.Chemscore.Internal_Hbond.Weighted>
0.0000

> <Gold.Chemscore.DEClash.Weighted>
0.0358

> <Gold.Chemscore.DEInternal.Weighted>
2.5911

> <Gold.Chemscore.Rot.Weighted>
4.2361

> <Gold.Chemscore.Internal.Correction.Weighted>
   9.000000E+99

> <Gold.Protein.RotatedTorsions>
[ 6907 6896 6895 6894 ] final   76.71 input  -60.11 | X-H torsion
[ 7974 7965 7964 7962 ] final   95.06 input  175.53 | X-H torsion
[ 8008 7997 7996 7995 ] final  143.36 input   59.86 | X-H torsion
[ 10167 10162 10161 10158 ] final  143.72 input  -65.29 | X-H torsion
[ 10718 10713 10712 10709 ] final -178.29 input   66.30 | X-H torsion
[ 10763 10752 10751 10750 ] final -145.36 input  -60.55 | X-H torsion
[ 11005 11000 10999 10996 ] final    1.85 input  -57.11 | X-H torsion

> <Gold.Protein.ActiveResidues>
 VAL166  LYS551  ARG553  GLY616  TRP617  ASP618  TYR619  PRO620  LYS621  CYS622 
 ASP623  PHE694  ASN695  SER759  ASP760  ASP761  ALA762  ILE779  LEU786  VAL792 
 PHE793  MET794  SER795  GLU796  ALA797  LYS798  CYS799  TRP800  GLU811  SER814 

> <Gold.Protein.RotatedAtoms>
  152.5085  134.3928  159.9389 H   0  0  0  0  0  0  0  0  0  0  0  0  # atno 6907 bound_to 6896
  151.3888  133.3789  159.2726 H   0  0  0  0  0  0  0  0  0  0  0  0  # atno 6908 bound_to 6896
  150.9448  134.8874  159.7694 H   0  0  0  0  0  0  0  0  0  0  0  0  # atno 6909 bound_to 6896
  145.4573  139.2289  143.3007 H   0  0  0  0  0  0  0  0  0  0  0  0  # atno 7974 bound_to 7965
  156.2932  140.2264  156.4878 H   0  0  0  0  0  0  0  0  0  0  0  0  # atno 8008 bound_to 7997
  154.7797  140.0461  157.1139 H   0  0  0  0  0  0  0  0  0  0  0  0  # atno 8009 bound_to 7997
  154.9773  140.3074  155.4965 H   0  0  0  0  0  0  0  0  0  0  0  0  # atno 8010 bound_to 7997
  139.4963  144.6021  151.6458 H   0  0  0  0  0  0  0  0  0  0  0  0  # atno 10167 bound_to 10162
  156.8420  130.9690  151.3099 H   0  0  0  0  0  0  0  0  0  0  0  0  # atno 10718 bound_to 10713
  154.8387  135.3415  154.6492 H   0  0  0  0  0  0  0  0  0  0  0  0  # atno 10763 bound_to 10752
  153.7105  135.6964  153.5043 H   0  0  0  0  0  0  0  0  0  0  0  0  # atno 10764 bound_to 10752
  153.2455  135.4370  155.0697 H   0  0  0  0  0  0  0  0  0  0  0  0  # atno 10765 bound_to 10752
  140.6108  133.9750  155.8176 H   0  0  0  0  0  0  0  0  0  0  0  0  # atno 11005 bound_to 11000
  146.2471  140.5338  142.8909 LP  0  0  0  0  0  0  0  0  0  0  0  0  # atno 17320 bound_to 7965
  144.8024  140.6238  143.6469 LP  0  0  0  0  0  0  0  0  0  0  0  0  # atno 17321 bound_to 7965
  140.5673  144.0168  150.6199 LP  0  0  0  0  0  0  0  0  0  0  0  0  # atno 17342 bound_to 10162
  140.3274  143.3099  152.0723 LP  0  0  0  0  0  0  0  0  0  0  0  0  # atno 17343 bound_to 10162
  157.6350  130.8759  149.9342 LP  0  0  0  0  0  0  0  0  0  0  0  0  # atno 17370 bound_to 10713
  156.0875  130.3666  150.0459 LP  0  0  0  0  0  0  0  0  0  0  0  0  # atno 17371 bound_to 10713
  141.0809  134.0064  157.3387 LP  0  0  0  0  0  0  0  0  0  0  0  0  # atno 17394 bound_to 11000
  139.9193  135.0199  156.8002 LP  0  0  0  0  0  0  0  0  0  0  0  0  # atno 17395 bound_to 11000

$$$$
