AV-unprocessed.smi:501|AV-procd|sdf|2742|dock4
  -GOLD-   2262023203D 1   1.00000     0.00000
 Structure written by MMmdl.
 45 47  0  0  0  0  0  0  0  0  1 V2000
  154.7489  140.8541  162.5119 C   0  0  0  0  0  0  0  0  0  0  0  0
  153.7605  141.6929  161.7279 C   0  0  0  0  0  0  0  0  0  0  0  0
  153.1247  142.7890  162.3435 C   0  0  0  0  0  0  0  0  0  0  0  0
  152.2087  143.5697  161.6152 C   0  0  0  0  0  0  0  0  0  0  0  0
  151.9288  143.2568  160.2715 C   0  0  0  0  0  0  0  0  0  0  0  0
  152.5586  142.1658  159.6384 C   0  0  0  0  0  0  0  0  0  0  0  0
  152.2291  141.9340  158.3200 O   0  0  0  0  0  0  0  0  0  0  0  0
  150.9470  142.3433  157.8658 C   0  0  0  0  0  0  0  0  0  0  0  0
  150.9203  142.2536  156.3355 C   0  0  0  0  0  0  0  0  0  0  0  0
  150.3674  140.9871  155.8764 N   0  0  0  0  0  0  0  0  0  0  0  0
  150.7517  139.7187  156.1804 C   0  0  0  0  0  0  0  0  0  0  0  0
  151.8786  139.3976  157.1185 C   0  0  0  0  0  0  0  0  0  0  0  0
  151.4186  139.2832  158.5816 C   0  0  0  0  0  0  0  0  0  0  0  0
  150.2793  138.3833  158.7189 N   0  0  0  0  0  0  0  0  0  0  0  0
  150.3226  137.0563  158.5345 C   0  0  0  0  0  0  0  0  0  0  0  0
  151.3355  136.4284  158.2301 O   0  0  0  0  0  0  0  0  0  0  0  0
  150.0428  138.7473  155.6033 N   0  0  0  0  0  0  0  0  0  0  0  0
  149.1145  139.4448  154.8573 C   0  0  0  0  0  0  0  0  0  0  0  0
  148.0766  138.9820  154.0172 C   0  0  0  0  0  0  0  0  0  0  0  0
  147.2368  139.8978  153.3499 C   0  0  0  0  0  0  0  0  0  0  0  0
  147.4224  141.2858  153.5134 C   0  0  0  0  0  0  0  0  0  0  0  0
  148.4515  141.7674  154.3453 C   0  0  0  0  0  0  0  0  0  0  0  0
  149.2883  140.8491  155.0079 C   0  0  0  0  0  0  0  0  0  0  0  0
  153.4796  141.3832  160.3807 C   0  0  0  0  0  0  0  0  0  0  0  0
  154.4602  140.7962  163.5618 H   0  0  0  0  0  0  0  0  0  0  0  0
  155.7447  141.2936  162.4530 H   0  0  0  0  0  0  0  0  0  0  0  0
  154.7976  139.8380  162.1194 H   0  0  0  0  0  0  0  0  0  0  0  0
  153.3378  143.0341  163.3739 H   0  0  0  0  0  0  0  0  0  0  0  0
  151.7209  144.4101  162.0865 H   0  0  0  0  0  0  0  0  0  0  0  0
  151.2244  143.8621  159.7201 H   0  0  0  0  0  0  0  0  0  0  0  0
  150.1769  141.6999  158.2903 H   0  0  0  0  0  0  0  0  0  0  0  0
  150.7465  143.3692  158.1788 H   0  0  0  0  0  0  0  0  0  0  0  0
  150.3077  143.0604  155.9321 H   0  0  0  0  0  0  0  0  0  0  0  0
  151.9147  142.4047  155.9202 H   0  0  0  0  0  0  0  0  0  0  0  0
  152.3182  138.4513  156.8005 H   0  0  0  0  0  0  0  0  0  0  0  0
  152.6772  140.1309  157.0297 H   0  0  0  0  0  0  0  0  0  0  0  0
  152.2266  138.8963  159.2007 H   0  0  0  0  0  0  0  0  0  0  0  0
  151.1693  140.2676  158.9816 H   0  0  0  0  0  0  0  0  0  0  0  0
  149.3937  138.7999  158.9675 H   0  0  0  0  0  0  0  0  0  0  0  0
  149.3305  136.6058  158.6920 H   0  0  0  0  0  0  0  0  0  0  0  0
  147.9260  137.9205  153.8871 H   0  0  0  0  0  0  0  0  0  0  0  0
  146.4463  139.5335  152.7103 H   0  0  0  0  0  0  0  0  0  0  0  0
  146.7743  141.9809  152.9997 H   0  0  0  0  0  0  0  0  0  0  0  0
  148.5950  142.8301  154.4728 H   0  0  0  0  0  0  0  0  0  0  0  0
  153.9830  140.5385  159.9355 H   0  0  0  0  0  0  0  0  0  0  0  0
  1  2  1  0  0  0  0
  1 25  1  0  0  0  0
  1 26  1  0  0  0  0
  1 27  1  0  0  0  0
  2 24  1  0  0  0  0
  2  3  2  0  0  0  0
  3  4  1  0  0  0  0
  3 28  1  0  0  0  0
  4  5  2  0  0  0  0
  4 29  1  0  0  0  0
  5  6  1  0  0  0  0
  5 30  1  0  0  0  0
  6  7  1  0  0  0  0
  6 24  2  0  0  0  0
  7  8  1  0  0  0  0
  8  9  1  0  0  0  0
  8 31  1  0  0  0  0
  8 32  1  0  0  0  0
  9 10  1  0  0  0  0
  9 33  1  0  0  0  0
  9 34  1  0  0  0  0
 10 23  1  0  0  0  0
 10 11  1  0  0  0  0
 11 12  1  0  0  0  0
 11 17  2  0  0  0  0
 12 13  1  0  0  0  0
 12 35  1  0  0  0  0
 12 36  1  0  0  0  0
 13 14  1  0  0  0  0
 13 37  1  0  0  0  0
 13 38  1  0  0  0  0
 14 15  1  0  0  0  0
 14 39  1  0  0  0  0
 15 16  2  0  0  0  0
 15 40  1  0  0  0  0
 17 18  1  0  0  0  0
 18 23  2  0  0  0  0
 18 19  1  0  0  0  0
 19 20  2  0  0  0  0
 19 41  1  0  0  0  0
 20 21  1  0  0  0  0
 20 42  1  0  0  0  0
 21 22  2  0  0  0  0
 21 43  1  0  0  0  0
 22 23  1  0  0  0  0
 22 44  1  0  0  0  0
 24 45  1  0  0  0  0
M  END
> <s_m_source_file>
AV-unprocessed.smi

> <i_m_source_file_index>
501

> <i_lp_mmshare_version>
43012

> <i_f3d_flags>
0

> <s_epik_input>
W0NIM11jMVtjSF1bY0hdW2NIXWMoW2NIXTEpT1tDSDJdW0NIMl1uKGMobjIpW0NIMl1bQ0gyXVtOSF1bQ0hdPU8pYyhjMjMpW2NIXVtjSF1bY0hdW2NIXTM=

> <s_epik_cmdline>
J2VwaWtfcHl0aG9uJywgJy1waCcsICc3LjAnLCAnLXRuJywgJzgnLCAnLW1hJywgJzIwMCcsICctbWV0YWxfYmluZGluZycsICctaW1hZScsICc8aW5maWxlLm1hZT4nLCAnLW9tYWUnLCAnPG91dGZpbGUubWFlPic=

> <r_lp_tautomer_probability>
1

> <r_epik_Ionization_Penalty>
0.092246

> <r_epik_Ionization_Penalty_Charging>
0

> <r_epik_Ionization_Penalty_Neutral>
0.092246

> <r_epik_State_Penalty>
0.0825475

> <r_epik_Charging_Adjusted_Penalty>
0.0825475

> <i_epik_Tot_Q>
0

> <i_epik_Tot_abs_Q>
0

> <r_epik_Metal_State_Penalty>
0.0713424

> <b_epik_Metal_Only>
0

> <s_lp_Force_Field>
OPLS_2005

> <r_lp_Energy>
15.5248

> <b_lp_Chiralities_Consistent>
1

> <s_lp_Variant>
AV-unprocessed.smi:501-1

> <Gold.Version>
5.8.1

> <Gold.Id.Protein>
6NUR|6NUR_protein|mol2

> <Gold.PLP.Fitness>
50.5236

> <Gold.PLP.PLP>
-50.4915

> <Gold.PLP.part.hbond>
-1.0000

> <Gold.PLP.part.metal>
0.0000

> <Gold.PLP.part.buried>
-3.6650

> <Gold.PLP.part.nonpolar>
-45.8494

> <Gold.PLP.part.repulsive>
0.2299

> <Gold.PLP.ligand.clash>
0.0000

> <Gold.PLP.ligand.torsion>
1.0879

> <Gold.PLP.Chemscore.Hbond>
0.6560

> <Gold.PLP.Chemscore.CHOScore>
0.0000

> <Gold.PLP.Chemscore.Metal>
0.0000

> <Gold.Chemscore.Hbonds>
donor molecule, donor type, donor heavy atom, donor atom, acceptor molecule, acceptor atom, score
      P1  H  6896  6907       L1    16  0.27

> <Gold.PLP.Chemscore.Internal.Correction>
0.2398

> <Gold.Rescore>
     Score         DG    S(hbond)    S(metal)    S(lipo)     H(rot)  DE(clash)    DE(int)     intcor
     14.03     -17.91       0.97        0.00     135.73       2.61       0.29       3.59       ----

> <Gold.Chemscore.Fitness>
14.0288

> <Gold.Chemscore.DG>
-17.9070

> <Gold.Chemscore.ZeroCoef>
-5.4800

> <Gold.Chemscore.Hbond>
0.9684

> <Gold.Chemscore.Metal>
0.0000

> <Gold.Chemscore.Lipo>
135.7252

> <Gold.Chemscore.Internal_Hbond>
0.0000

> <Gold.Chemscore.DEClash>
0.2866

> <Gold.Chemscore.DEInternal>
3.5916

> <Gold.Chemscore.Rot>
2.6122

> <Gold.Chemscore.Internal.Correction>
   9.000000E+99

> <Gold.Chemscore.Hbonds>
donor molecule, donor type, donor heavy atom, donor atom, acceptor molecule, acceptor atom, score
      P1  H  6896  6907       L1    16  0.02

> <Gold.Chemscore.Hbond.Weighted>
-3.2344

> <Gold.Chemscore.Metal.Weighted>
-0.0000

> <Gold.Chemscore.Lipo.Weighted>
-15.8799

> <Gold.Chemscore.Internal_Hbond.Weighted>
0.0000

> <Gold.Chemscore.DEClash.Weighted>
0.2866

> <Gold.Chemscore.DEInternal.Weighted>
3.5916

> <Gold.Chemscore.Rot.Weighted>
6.6872

> <Gold.Chemscore.Internal.Correction.Weighted>
   9.000000E+99

> <Gold.Protein.RotatedTorsions>
[ 6907 6896 6895 6894 ] final  -38.66 input  -60.11 | X-H torsion
[ 7974 7965 7964 7962 ] final   15.53 input  175.53 | X-H torsion
[ 8008 7997 7996 7995 ] final  -47.56 input   59.86 | X-H torsion
[ 10167 10162 10161 10158 ] final  -78.39 input  -65.29 | X-H torsion
[ 10718 10713 10712 10709 ] final -175.10 input   66.30 | X-H torsion
[ 10763 10752 10751 10750 ] final    1.09 input  -60.55 | X-H torsion
[ 11005 11000 10999 10996 ] final  159.95 input  -57.11 | X-H torsion

> <Gold.Protein.ActiveResidues>
 VAL166  LYS551  ARG553  GLY616  TRP617  ASP618  TYR619  PRO620  LYS621  CYS622 
 ASP623  PHE694  ASN695  SER759  ASP760  ASP761  ALA762  ILE779  LEU786  VAL792 
 PHE793  MET794  SER795  GLU796  ALA797  LYS798  CYS799  TRP800  GLU811  SER814 

> <Gold.Protein.RotatedAtoms>
  150.9998  134.9312  159.7946 H   0  0  0  0  0  0  0  0  0  0  0  0  # atno 6907 bound_to 6896
  152.5274  134.3170  159.9144 H   0  0  0  0  0  0  0  0  0  0  0  0  # atno 6908 bound_to 6896
  151.3176  133.4012  159.2686 H   0  0  0  0  0  0  0  0  0  0  0  0  # atno 6909 bound_to 6896
  146.2276  139.8881  142.8559 H   0  0  0  0  0  0  0  0  0  0  0  0  # atno 7974 bound_to 7965
  154.4018  140.1343  156.4195 H   0  0  0  0  0  0  0  0  0  0  0  0  # atno 8008 bound_to 7997
  155.7657  140.3485  155.5200 H   0  0  0  0  0  0  0  0  0  0  0  0  # atno 8009 bound_to 7997
  155.8816  140.0988  157.1471 H   0  0  0  0  0  0  0  0  0  0  0  0  # atno 8010 bound_to 7997
  140.4686  143.2433  151.8240 H   0  0  0  0  0  0  0  0  0  0  0  0  # atno 10167 bound_to 10162
  156.7949  130.9531  151.3120 H   0  0  0  0  0  0  0  0  0  0  0  0  # atno 10718 bound_to 10713
  153.3124  135.6963  153.7103 H   0  0  0  0  0  0  0  0  0  0  0  0  # atno 10763 bound_to 10752
  153.5975  135.3468  155.2934 H   0  0  0  0  0  0  0  0  0  0  0  0  # atno 10764 bound_to 10752
  154.8578  135.4332  154.2266 H   0  0  0  0  0  0  0  0  0  0  0  0  # atno 10765 bound_to 10752
  140.2012  134.8336  157.3020 H   0  0  0  0  0  0  0  0  0  0  0  0  # atno 11005 bound_to 11000
  145.2445  141.0021  143.3916 LP  0  0  0  0  0  0  0  0  0  0  0  0  # atno 17320 bound_to 7965
  144.9424  139.4174  143.6442 LP  0  0  0  0  0  0  0  0  0  0  0  0  # atno 17321 bound_to 7965
  139.4815  144.4920  151.9173 LP  0  0  0  0  0  0  0  0  0  0  0  0  # atno 17342 bound_to 10162
  140.4005  144.2499  150.5893 LP  0  0  0  0  0  0  0  0  0  0  0  0  # atno 17343 bound_to 10162
  157.6582  130.8943  149.9774 LP  0  0  0  0  0  0  0  0  0  0  0  0  # atno 17370 bound_to 10713
  156.1136  130.3649  150.0006 LP  0  0  0  0  0  0  0  0  0  0  0  0  # atno 17371 bound_to 10713
  140.2052  134.4206  155.7641 LP  0  0  0  0  0  0  0  0  0  0  0  0  # atno 17394 bound_to 11000
  141.2227  133.7091  156.8249 LP  0  0  0  0  0  0  0  0  0  0  0  0  # atno 17395 bound_to 11000

$$$$
