AV-unprocessed.smi:2104|AV-procd|sdf|8587|dock7
  -GOLD-   2272011323D 1   1.00000     0.00000
 Structure written by MMmdl.
 42 43  0  0  0  0  0  0  0  0  2 V2000
  154.2483  133.6055  165.3372 C   0  0  0  0  0  0  0  0  0  0  0  0
  154.2797  134.5751  164.2059 C   0  0  0  0  0  0  0  0  0  0  0  0
  153.9713  135.9023  164.1137 C   0  0  0  0  0  0  0  0  0  0  0  0
  154.2370  136.2040  162.7503 C   0  0  0  0  0  0  0  0  0  0  0  0
  154.0725  137.3997  162.1641 N   0  5  0  0  0  0  0  0  0  0  0  0
  153.6614  137.4772  160.8771 C   0  0  0  0  0  0  0  0  0  0  0  0
  153.1729  136.5632  160.2089 O   0  0  0  0  0  0  0  0  0  0  0  0
  153.8322  138.6870  160.3288 N   0  0  0  0  0  0  0  0  0  0  0  0
  153.5129  139.0468  158.9526 C   0  0  0  0  0  0  0  0  0  0  0  0
  152.4884  140.1857  158.9234 C   0  0  0  0  0  0  0  0  0  0  0  0
  152.8486  141.1394  159.9118 O   0  0  0  0  0  0  0  0  0  0  0  0
  151.9929  142.2713  159.9901 C   0  0  2  0  0  0  0  0  0  0  0  0
  151.8834  142.9342  158.6010 C   0  0  0  0  0  0  0  0  0  0  0  0
  151.0927  144.2493  158.6631 C   0  0  0  0  0  0  0  0  0  0  0  0
  151.7092  145.2150  159.6848 C   0  0  0  0  0  0  0  0  0  0  0  0
  151.8057  144.5616  161.0718 C   0  0  0  0  0  0  0  0  0  0  0  0
  152.6014  143.2418  161.0273 C   0  0  1  0  0  0  0  0  0  0  0  0
  152.6771  142.6041  162.4247 C   0  0  0  0  0  0  0  0  0  0  0  0
  154.6520  135.1481  162.0702 N   0  0  0  0  0  0  0  0  0  0  0  0
  154.6897  134.1008  162.9989 O   0  0  0  0  0  0  0  0  0  0  0  0
  153.3821  133.7836  165.9746 H   0  0  0  0  0  0  0  0  0  0  0  0
  155.1448  133.7007  165.9497 H   0  0  0  0  0  0  0  0  0  0  0  0
  154.1936  132.5794  164.9731 H   0  0  0  0  0  0  0  0  0  0  0  0
  153.6172  136.5563  164.8962 H   0  0  0  0  0  0  0  0  0  0  0  0
  154.2396  139.4068  160.9072 H   0  0  0  0  0  0  0  0  0  0  0  0
  154.4140  139.3473  158.4156 H   0  0  0  0  0  0  0  0  0  0  0  0
  153.1111  138.1693  158.4450 H   0  0  0  0  0  0  0  0  0  0  0  0
  152.4788  140.6494  157.9368 H   0  0  0  0  0  0  0  0  0  0  0  0
  151.4880  139.7925  159.1116 H   0  0  0  0  0  0  0  0  0  0  0  0
  151.0003  141.9753  160.3358 H   0  0  0  0  0  0  0  0  0  0  0  0
  152.8829  143.1308  158.2111 H   0  0  0  0  0  0  0  0  0  0  0  0
  151.4037  142.2592  157.8925 H   0  0  0  0  0  0  0  0  0  0  0  0
  151.0685  144.7160  157.6779 H   0  0  0  0  0  0  0  0  0  0  0  0
  150.0568  144.0416  158.9335 H   0  0  0  0  0  0  0  0  0  0  0  0
  152.7032  145.5167  159.3518 H   0  0  0  0  0  0  0  0  0  0  0  0
  151.1125  146.1257  159.7434 H   0  0  0  0  0  0  0  0  0  0  0  0
  152.2751  145.2563  161.7692 H   0  0  0  0  0  0  0  0  0  0  0  0
  150.8012  144.3737  161.4536 H   0  0  0  0  0  0  0  0  0  0  0  0
  153.6204  143.4762  160.7151 H   0  0  0  0  0  0  0  0  0  0  0  0
  151.6873  142.3264  162.7879 H   0  0  0  0  0  0  0  0  0  0  0  0
  153.1166  143.2920  163.1472 H   0  0  0  0  0  0  0  0  0  0  0  0
  153.2920  141.7035  162.4184 H   0  0  0  0  0  0  0  0  0  0  0  0
  1  2  1  0  0  0  0
  1 21  1  0  0  0  0
  1 22  1  0  0  0  0
  1 23  1  0  0  0  0
  2 20  1  0  0  0  0
  2  3  2  0  0  0  0
  3  4  1  0  0  0  0
  3 24  1  0  0  0  0
  4  5  1  0  0  0  0
  4 19  2  0  0  0  0
  5  6  1  0  0  0  0
  6  7  2  0  0  0  0
  6  8  1  0  0  0  0
  8  9  1  0  0  0  0
  8 25  1  0  0  0  0
  9 10  1  0  0  0  0
  9 26  1  0  0  0  0
  9 27  1  0  0  0  0
 10 11  1  0  0  0  0
 10 28  1  0  0  0  0
 10 29  1  0  0  0  0
 11 12  1  0  0  0  0
 12 17  1  0  0  0  0
 12 13  1  0  0  0  0
 12 30  1  0  0  0  0
 13 14  1  0  0  0  0
 13 31  1  0  0  0  0
 13 32  1  0  0  0  0
 14 15  1  0  0  0  0
 14 33  1  0  0  0  0
 14 34  1  0  0  0  0
 15 16  1  0  0  0  0
 15 35  1  0  0  0  0
 15 36  1  0  0  0  0
 16 17  1  0  0  0  0
 16 37  1  0  0  0  0
 16 38  1  0  0  0  0
 17 18  1  0  0  0  0
 17 39  1  0  0  0  0
 18 40  1  0  0  0  0
 18 41  1  0  0  0  0
 18 42  1  0  0  0  0
 19 20  1  0  0  0  0
M  CHG  1   5  -1
M  END
> <s_m_source_file>
AV-unprocessed.smi

> <i_m_source_file_index>
2104

> <i_lp_mmshare_version>
43012

> <i_f3d_flags>
0

> <s_epik_input>
W0NIM11jMVtjSF1jKG5vMSlbTkhdQyg9TylbTkhdW0NIMl1bQ0gyXU9bQ0BASF0yW0NIMl1bQ0gyXVtDSDJdW0NIMl1bQ0BIXTJbQ0gzXQ==

> <s_epik_cmdline>
J2VwaWtfcHl0aG9uJywgJy1waCcsICc3LjAnLCAnLXRuJywgJzgnLCAnLW1hJywgJzIwMCcsICctbWV0YWxfYmluZGluZycsICctaW1hZScsICc8aW5maWxlLm1hZT4nLCAnLW9tYWUnLCAnPG91dGZpbGUubWFlPic=

> <r_lp_tautomer_probability>
1

> <r_epik_Ionization_Penalty>
6.47137

> <r_epik_Ionization_Penalty_Charging>
6.47125

> <r_epik_Ionization_Penalty_Neutral>
0.000118933

> <r_epik_State_Penalty>
6.47124

> <r_epik_Charging_Adjusted_Penalty>
12.9425

> <i_epik_Tot_Q>
-1

> <i_epik_Tot_abs_Q>
1

> <r_epik_Metal_State_Penalty>
2.3995

> <b_epik_Metal_Only>
1

> <s_lp_Force_Field>
OPLS_2005

> <r_lp_Energy>
5.464

> <b_lp_Chiralities_Consistent>
1

> <s_lp_Variant>
AV-unprocessed.smi:2104-5

> <Gold.Version>
5.8.1

> <Gold.Id.Protein>
6NUR|6NUR_protein|mol2

> <Gold.PLP.Fitness>
48.7372

> <Gold.PLP.PLP>
-46.3978

> <Gold.PLP.part.hbond>
-0.9948

> <Gold.PLP.part.metal>
0.0000

> <Gold.PLP.part.buried>
-5.3919

> <Gold.PLP.part.nonpolar>
-40.2626

> <Gold.PLP.part.repulsive>
0.0325

> <Gold.PLP.ligand.clash>
0.0000

> <Gold.PLP.ligand.torsion>
0.3743

> <Gold.PLP.Chemscore.Hbond>
1.0000

> <Gold.PLP.Chemscore.CHOScore>
0.0000

> <Gold.PLP.Chemscore.Metal>
0.0000

> <Gold.Chemscore.Hbonds>
donor molecule, donor type, donor heavy atom, donor atom, acceptor molecule, acceptor atom, score
      P1  H  6896  6908       L1     7  1.00

> <Gold.PLP.Chemscore.Internal.Correction>
0.0880

> <Gold.Rescore>
     Score         DG    S(hbond)    S(metal)    S(lipo)     H(rot)  DE(clash)    DE(int)     intcor
     17.04     -19.10       0.99        0.00     125.51       1.71       0.22       1.83       ----

> <Gold.Chemscore.Fitness>
17.0408

> <Gold.Chemscore.DG>
-19.0984

> <Gold.Chemscore.ZeroCoef>
-5.4800

> <Gold.Chemscore.Hbond>
0.9918

> <Gold.Chemscore.Metal>
0.0000

> <Gold.Chemscore.Lipo>
125.5063

> <Gold.Chemscore.Internal_Hbond>
0.0000

> <Gold.Chemscore.DEClash>
0.2235

> <Gold.Chemscore.DEInternal>
1.8340

> <Gold.Chemscore.Rot>
1.7103

> <Gold.Chemscore.Internal.Correction>
   9.000000E+99

> <Gold.Chemscore.Hbonds>
donor molecule, donor type, donor heavy atom, donor atom, acceptor molecule, acceptor atom, score
      P1  H  6896  6908       L1     7  1.00

> <Gold.Chemscore.Hbond.Weighted>
-3.3125

> <Gold.Chemscore.Metal.Weighted>
-0.0000

> <Gold.Chemscore.Lipo.Weighted>
-14.6842

> <Gold.Chemscore.Internal_Hbond.Weighted>
0.0000

> <Gold.Chemscore.DEClash.Weighted>
0.2235

> <Gold.Chemscore.DEInternal.Weighted>
1.8340

> <Gold.Chemscore.Rot.Weighted>
4.3784

> <Gold.Chemscore.Internal.Correction.Weighted>
   9.000000E+99

> <Gold.Protein.RotatedTorsions>
[ 6907 6896 6895 6894 ] final  -84.88 input  -60.11 | X-H torsion
[ 7974 7965 7964 7962 ] final  -68.78 input  175.53 | X-H torsion
[ 8008 7997 7996 7995 ] final  162.17 input   59.86 | X-H torsion
[ 10167 10162 10161 10158 ] final   12.30 input  -65.29 | X-H torsion
[ 10718 10713 10712 10709 ] final  -73.84 input   66.30 | X-H torsion
[ 10763 10752 10751 10750 ] final -121.73 input  -60.55 | X-H torsion
[ 11005 11000 10999 10996 ] final  178.45 input  -57.11 | X-H torsion

> <Gold.Protein.ActiveResidues>
 VAL166  LYS551  ARG553  GLY616  TRP617  ASP618  TYR619  PRO620  LYS621  CYS622 
 ASP623  PHE694  ASN695  SER759  ASP760  ASP761  ALA762  ILE779  LEU786  VAL792 
 PHE793  MET794  SER795  GLU796  ALA797  LYS798  CYS799  TRP800  GLU811  SER814 

> <Gold.Protein.RotatedAtoms>
  150.6873  134.3290  159.4818 H   0  0  0  0  0  0  0  0  0  0  0  0  # atno 6907 bound_to 6896
  152.1157  134.9240  160.0574 H   0  0  0  0  0  0  0  0  0  0  0  0  # atno 6908 bound_to 6896
  152.0465  133.3965  159.4396 H   0  0  0  0  0  0  0  0  0  0  0  0  # atno 6909 bound_to 6896
  145.7121  140.9074  143.0675 H   0  0  0  0  0  0  0  0  0  0  0  0  # atno 7974 bound_to 7965
  156.2051  140.1757  156.7817 H   0  0  0  0  0  0  0  0  0  0  0  0  # atno 8008 bound_to 7997
  154.5644  140.0694  156.8899 H   0  0  0  0  0  0  0  0  0  0  0  0  # atno 8009 bound_to 7997
  155.2788  140.3347  155.4262 H   0  0  0  0  0  0  0  0  0  0  0  0  # atno 8010 bound_to 7997
  140.6077  143.8474  150.7031 H   0  0  0  0  0  0  0  0  0  0  0  0  # atno 10167 bound_to 10162
  156.0265  130.4403  150.2803 H   0  0  0  0  0  0  0  0  0  0  0  0  # atno 10718 bound_to 10713
  154.8674  135.4157  154.2667 H   0  0  0  0  0  0  0  0  0  0  0  0  # atno 10763 bound_to 10752
  153.3585  135.7002  153.6737 H   0  0  0  0  0  0  0  0  0  0  0  0  # atno 10764 bound_to 10752
  153.5647  135.3603  155.2786 H   0  0  0  0  0  0  0  0  0  0  0  0  # atno 10765 bound_to 10752
  140.3952  134.6826  157.4531 H   0  0  0  0  0  0  0  0  0  0  0  0  # atno 11005 bound_to 11000
  144.6939  139.9089  143.7462 LP  0  0  0  0  0  0  0  0  0  0  0  0  # atno 17320 bound_to 7965
  146.0703  139.3692  143.0527 LP  0  0  0  0  0  0  0  0  0  0  0  0  # atno 17321 bound_to 7965
  140.2035  143.3940  152.1773 LP  0  0  0  0  0  0  0  0  0  0  0  0  # atno 17342 bound_to 10162
  139.5337  144.7187  151.4967 LP  0  0  0  0  0  0  0  0  0  0  0  0  # atno 17343 bound_to 10162
  157.0906  131.0168  151.3123 LP  0  0  0  0  0  0  0  0  0  0  0  0  # atno 17370 bound_to 10713
  157.4857  130.7791  149.7457 LP  0  0  0  0  0  0  0  0  0  0  0  0  # atno 17371 bound_to 10713
  140.0377  134.6313  155.9022 LP  0  0  0  0  0  0  0  0  0  0  0  0  # atno 17394 bound_to 11000
  141.1876  133.6560  156.5290 LP  0  0  0  0  0  0  0  0  0  0  0  0  # atno 17395 bound_to 11000

$$$$
