AV-unprocessed.smi:160|AV-procd|sdf|1345|dock4
  -GOLD-   2262019 43D 1   1.00000     0.00000
 Structure written by MMmdl.
 29 30  0  0  0  0  0  0  0  0  1 V2000
  149.2341  133.7056  155.2742 N   0  0  0  0  0  0  0  0  0  0  0  0
  150.1142  134.2000  156.1509 C   0  0  0  0  0  0  0  0  0  0  0  0
  150.4823  133.5699  157.1409 O   0  0  0  0  0  0  0  0  0  0  0  0
  150.6348  135.5810  155.8623 C   0  0  0  0  0  0  0  0  0  0  0  0
  151.7318  136.0717  156.5116 N   0  0  0  0  0  0  0  0  0  0  0  0
  151.7889  137.2708  155.9465 C   0  0  0  0  0  0  0  0  0  0  0  0
  150.8384  137.4936  155.0331 N   0  0  0  0  0  0  0  0  0  0  0  0
  150.5652  138.7231  154.2218 C   0  0  2  0  0  0  0  0  0  0  0  0
  151.2172  139.7928  154.8392 O   0  0  0  0  0  0  0  0  0  0  0  0
  150.2858  140.5514  155.6050 C   0  0  1  0  0  0  0  0  0  0  0  0
  150.8249  141.9613  155.9052 C   0  0  0  0  0  0  0  0  0  0  0  0
  149.9785  142.6182  156.8248 O   0  0  0  0  0  0  0  0  0  0  0  0
  149.0273  140.4920  154.7294 C   0  0  1  0  0  0  0  0  0  0  0  0
  149.0970  141.4620  153.6959 O   0  0  0  0  0  0  0  0  0  0  0  0
  149.0610  139.0596  154.1942 C   0  0  1  0  0  0  0  0  0  0  0  0
  148.4861  138.9510  152.9047 O   0  0  0  0  0  0  0  0  0  0  0  0
  150.0562  136.3861  154.9694 N   0  0  0  0  0  0  0  0  0  0  0  0
  151.0007  138.5191  153.2427 H   0  0  0  0  0  0  0  0  0  0  0  0
  150.0757  140.0314  156.5411 H   0  0  0  0  0  0  0  0  0  0  0  0
  148.1231  140.6807  155.3090 H   0  0  0  0  0  0  0  0  0  0  0  0
  148.5175  138.4020  154.8735 H   0  0  0  0  0  0  0  0  0  0  0  0
  148.8445  132.7854  155.4162 H   0  0  0  0  0  0  0  0  0  0  0  0
  148.9610  134.2610  154.4765 H   0  0  0  0  0  0  0  0  0  0  0  0
  152.5397  138.0032  156.2050 H   0  0  0  0  0  0  0  0  0  0  0  0
  151.8446  141.9257  156.2898 H   0  0  0  0  0  0  0  0  0  0  0  0
  150.8401  142.5589  154.9934 H   0  0  0  0  0  0  0  0  0  0  0  0
  149.4698  143.2628  156.3570 H   0  0  0  0  0  0  0  0  0  0  0  0
  149.2569  141.0138  152.8790 H   0  0  0  0  0  0  0  0  0  0  0  0
  148.6569  138.0832  152.5715 H   0  0  0  0  0  0  0  0  0  0  0  0
  1  2  1  0  0  0  0
  1 22  1  0  0  0  0
  1 23  1  0  0  0  0
  2  3  2  0  0  0  0
  2  4  1  0  0  0  0
  4 17  2  0  0  0  0
  4  5  1  0  0  0  0
  5  6  2  0  0  0  0
  6  7  1  0  0  0  0
  6 24  1  0  0  0  0
  7  8  1  0  0  0  0
  7 17  1  0  0  0  0
  8 18  1  0  0  0  0
  8 15  1  0  0  0  0
  8  9  1  0  0  0  0
  9 10  1  0  0  0  0
 10 19  1  0  0  0  0
 10 11  1  0  0  0  0
 10 13  1  0  0  0  0
 11 12  1  0  0  0  0
 11 25  1  0  0  0  0
 11 26  1  0  0  0  0
 12 27  1  0  0  0  0
 13 20  1  0  0  0  0
 13 14  1  0  0  0  0
 13 15  1  0  0  0  0
 14 28  1  0  0  0  0
 15 21  1  0  0  0  0
 15 16  1  0  0  0  0
 16 29  1  0  0  0  0
M  END
> <s_m_source_file>
AV-unprocessed.smi

> <i_m_source_file_index>
160

> <i_lp_mmshare_version>
43012

> <i_f3d_flags>
0

> <s_epik_input>
W05IMl1DKD1PKWMxbltjSF1uKG4xKVtDQEBIXTJPW0NASF0oW0NIMl1bT0hdKVtDQEBIXShbT0hdKVtDQEhdMltPSF0=

> <s_epik_cmdline>
J2VwaWtfcHl0aG9uJywgJy1waCcsICc3LjAnLCAnLXRuJywgJzgnLCAnLW1hJywgJzIwMCcsICctbWV0YWxfYmluZGluZycsICctaW1hZScsICc8aW5maWxlLm1hZT4nLCAnLW9tYWUnLCAnPG91dGZpbGUubWFlPic=

> <r_lp_tautomer_probability>
1

> <r_epik_Ionization_Penalty>
1.06932e-05

> <r_epik_Ionization_Penalty_Charging>
0

> <r_epik_Ionization_Penalty_Neutral>
1.06932e-05

> <r_epik_State_Penalty>
-0

> <r_epik_Charging_Adjusted_Penalty>
0

> <i_epik_Tot_Q>
0

> <i_epik_Tot_abs_Q>
0

> <r_epik_Metal_State_Penalty>
0.0142097

> <b_epik_Metal_Only>
0

> <s_epik_Chemistry_Notes>
This compound contains an acetal/aminal-like group ( X-CH(R)-Y where X, Y are N, S, or O) that may be acid/base labile, releasing an aldehyde.

> <s_lp_Force_Field>
OPLS_2005

> <r_lp_Energy>
41.9483

> <b_lp_Chiralities_Consistent>
1

> <s_lp_Variant>
AV-unprocessed.smi:160-3

> <Gold.Version>
5.8.1

> <Gold.Id.Protein>
6NUR|6NUR_protein|mol2

> <Gold.PLP.Fitness>
43.3294

> <Gold.PLP.PLP>
-29.1409

> <Gold.PLP.part.hbond>
-8.2192

> <Gold.PLP.part.metal>
0.0000

> <Gold.PLP.part.buried>
-6.1412

> <Gold.PLP.part.nonpolar>
-15.2180

> <Gold.PLP.part.repulsive>
0.2374

> <Gold.PLP.ligand.clash>
0.0000

> <Gold.PLP.ligand.torsion>
0.6321

> <Gold.PLP.Chemscore.Hbond>
5.1440

> <Gold.PLP.Chemscore.CHOScore>
0.0000

> <Gold.PLP.Chemscore.Metal>
0.0000

> <Gold.Chemscore.Hbonds>
donor molecule, donor type, donor heavy atom, donor atom, acceptor molecule, acceptor atom, score
      L1  H    12    27       P1  8028  1.00
      L1  H    14    28       P1  7957  1.00
      L1  H    16    29       P1  7948  1.00
      P1  H  6896  6907       L1     3  0.44
      P1  H  7989  7998       L1     9  1.00
      P1  H 10752 10764       L1     5  0.33

> <Gold.PLP.Chemscore.Internal.Correction>
0.0207

> <Gold.Rescore>
     Score         DG    S(hbond)    S(metal)    S(lipo)     H(rot)  DE(clash)    DE(int)     intcor
     11.05     -11.47       4.03        0.00      24.95       4.06       0.00       0.41       ----

> <Gold.Chemscore.Fitness>
11.0494

> <Gold.Chemscore.DG>
-11.4650

> <Gold.Chemscore.ZeroCoef>
-5.4800

> <Gold.Chemscore.Hbond>
4.0297

> <Gold.Chemscore.Metal>
0.0000

> <Gold.Chemscore.Lipo>
24.9532

> <Gold.Chemscore.Internal_Hbond>
0.0000

> <Gold.Chemscore.DEClash>
0.0029

> <Gold.Chemscore.DEInternal>
0.4127

> <Gold.Chemscore.Rot>
4.0600

> <Gold.Chemscore.Internal.Correction>
   9.000000E+99

> <Gold.Chemscore.Hbonds>
donor molecule, donor type, donor heavy atom, donor atom, acceptor molecule, acceptor atom, score
      L1  H    12    27       P1  8028  1.00
      L1  H    14    28       P1  7957  0.96
      L1  H    16    29       P1  7948  0.98
      P1  H  6896  6907       L1     3  0.45
      P1  H  7989  7998       L1     9  0.20
      P1  H 10752 10764       L1     5  0.01

> <Gold.Chemscore.Hbond.Weighted>
-13.4591

> <Gold.Chemscore.Metal.Weighted>
-0.0000

> <Gold.Chemscore.Lipo.Weighted>
-2.9195

> <Gold.Chemscore.Internal_Hbond.Weighted>
0.0000

> <Gold.Chemscore.DEClash.Weighted>
0.0029

> <Gold.Chemscore.DEInternal.Weighted>
0.4127

> <Gold.Chemscore.Rot.Weighted>
10.3936

> <Gold.Chemscore.Internal.Correction.Weighted>
   9.000000E+99

> <Gold.Protein.RotatedTorsions>
[ 6907 6896 6895 6894 ] final -153.03 input  -60.11 | X-H torsion
[ 7974 7965 7964 7962 ] final -150.81 input  175.53 | X-H torsion
[ 8008 7997 7996 7995 ] final  115.36 input   59.86 | X-H torsion
[ 10167 10162 10161 10158 ] final  -20.64 input  -65.29 | X-H torsion
[ 10718 10713 10712 10709 ] final -132.29 input   66.30 | X-H torsion
[ 10763 10752 10751 10750 ] final  -11.62 input  -60.55 | X-H torsion
[ 11005 11000 10999 10996 ] final   88.12 input  -57.11 | X-H torsion

> <Gold.Protein.ActiveResidues>
 VAL166  LYS551  ARG553  GLY616  TRP617  ASP618  TYR619  PRO620  LYS621  CYS622 
 ASP623  PHE694  ASN695  SER759  ASP760  ASP761  ALA762  ILE779  LEU786  VAL792 
 PHE793  MET794  SER795  GLU796  ALA797  LYS798  CYS799  TRP800  GLU811  SER814 

> <Gold.Protein.RotatedAtoms>
  151.2365  133.4422  159.2605 H   0  0  0  0  0  0  0  0  0  0  0  0  # atno 6907 bound_to 6896
  151.0745  134.9819  159.8335 H   0  0  0  0  0  0  0  0  0  0  0  0  # atno 6908 bound_to 6896
  152.5416  134.2309  159.8877 H   0  0  0  0  0  0  0  0  0  0  0  0  # atno 6909 bound_to 6896
  144.7886  140.4881  143.5789 H   0  0  0  0  0  0  0  0  0  0  0  0  # atno 7974 bound_to 7965
  156.2377  140.2940  156.0357 H   0  0  0  0  0  0  0  0  0  0  0  0  # atno 8008 bound_to 7997
  155.2044  140.0410  157.2940 H   0  0  0  0  0  0  0  0  0  0  0  0  # atno 8009 bound_to 7997
  154.6109  140.2451  155.7677 H   0  0  0  0  0  0  0  0  0  0  0  0  # atno 8010 bound_to 7997
  140.7277  143.4703  151.0255 H   0  0  0  0  0  0  0  0  0  0  0  0  # atno 10167 bound_to 10162
  156.2331  130.7049  151.0879 H   0  0  0  0  0  0  0  0  0  0  0  0  # atno 10718 bound_to 10713
  153.4864  135.7017  153.5909 H   0  0  0  0  0  0  0  0  0  0  0  0  # atno 10763 bound_to 10752
  153.4100  135.3851  155.2044 H   0  0  0  0  0  0  0  0  0  0  0  0  # atno 10764 bound_to 10752
  154.8719  135.3902  154.4319 H   0  0  0  0  0  0  0  0  0  0  0  0  # atno 10765 bound_to 10752
  139.8903  134.8467  156.2956 H   0  0  0  0  0  0  0  0  0  0  0  0  # atno 11005 bound_to 11000
  145.5856  139.1492  143.3211 LP  0  0  0  0  0  0  0  0  0  0  0  0  # atno 17320 bound_to 7965
  146.2128  140.5984  142.9052 LP  0  0  0  0  0  0  0  0  0  0  0  0  # atno 17321 bound_to 7965
  139.8395  143.7583  152.3180 LP  0  0  0  0  0  0  0  0  0  0  0  0  # atno 17342 bound_to 10162
  139.7727  144.7471  151.0202 LP  0  0  0  0  0  0  0  0  0  0  0  0  # atno 17343 bound_to 10162
  157.7142  131.0718  150.6390 LP  0  0  0  0  0  0  0  0  0  0  0  0  # atno 17370 bound_to 10713
  156.6458  130.4471  149.5736 LP  0  0  0  0  0  0  0  0  0  0  0  0  # atno 17371 bound_to 10713
  140.9947  133.7187  156.0868 LP  0  0  0  0  0  0  0  0  0  0  0  0  # atno 17394 bound_to 11000
  140.7578  134.3973  157.5531 LP  0  0  0  0  0  0  0  0  0  0  0  0  # atno 17395 bound_to 11000

$$$$
