AV-unprocessed.smi:3056|AV-procd|sdf|11649|dock2
  -GOLD-   2272017 43D 1   1.00000     0.00000
 Structure written by MMmdl.
 48 49  0  0  0  0  0  0  0  0  2 V2000
  145.8982  137.5315  151.3244 C   0  0  0  0  0  0  0  0  0  0  0  0
  146.4378  138.8112  151.8955 C   0  0  0  0  0  0  0  0  0  0  0  0
  146.6435  140.0493  151.2235 C   0  0  0  0  0  0  0  0  0  0  0  0
  147.1341  140.9879  152.0158 N   0  0  0  0  0  0  0  0  0  0  0  0
  147.2591  140.3864  153.2197 N   0  0  0  0  0  0  0  0  0  0  0  0
  147.7742  141.1326  154.3607 C   0  0  2  0  0  0  0  0  0  0  0  0
  147.1289  142.5312  154.3995 C   0  0  0  0  0  0  0  0  0  0  0  0
  149.3282  141.1644  154.3769 C   0  0  2  0  0  0  0  0  0  0  0  0
  149.9493  139.8020  154.0166 C   0  0  0  0  0  0  0  0  0  0  0  0
  149.8375  141.5815  155.7056 N   0  3  0  0  0  0  0  0  0  0  0  0
  151.3126  141.6003  155.8489 C   0  0  0  0  0  0  0  0  0  0  0  0
  151.8504  140.5012  156.7819 C   0  0  0  0  0  0  0  0  0  0  0  0
  152.3282  139.4811  156.2830 O   0  0  0  0  0  0  0  0  0  0  0  0
  151.7756  140.6817  158.1223 N   0  0  0  0  0  0  0  0  0  0  0  0
  152.3001  139.7744  159.1478 C   0  0  0  0  0  0  0  0  0  0  0  0
  153.4110  140.5069  159.9208 C   0  0  0  0  0  0  0  0  0  0  0  0
  152.8923  141.7093  160.4836 O   0  0  0  0  0  0  0  0  0  0  0  0
  152.3573  142.6051  159.5110 C   0  0  2  0  0  0  0  0  0  0  0  0
  151.8620  143.8612  160.2358 C   0  0  0  0  0  0  0  0  0  0  0  0
  151.2281  141.8938  158.7389 C   0  0  0  0  0  0  0  0  0  0  0  0
  146.8430  139.0720  153.1738 C   0  0  0  0  0  0  0  0  0  0  0  0
  146.0199  137.4890  150.2418 H   0  0  0  0  0  0  0  0  0  0  0  0
  144.8346  137.4165  151.5332 H   0  0  0  0  0  0  0  0  0  0  0  0
  146.4042  136.6589  151.7382 H   0  0  0  0  0  0  0  0  0  0  0  0
  146.4514  140.2923  150.1888 H   0  0  0  0  0  0  0  0  0  0  0  0
  147.4440  140.5994  155.2537 H   0  0  0  0  0  0  0  0  0  0  0  0
  147.3609  143.0553  155.3264 H   0  0  0  0  0  0  0  0  0  0  0  0
  146.0424  142.4604  154.3375 H   0  0  0  0  0  0  0  0  0  0  0  0
  147.4673  143.1522  153.5693 H   0  0  0  0  0  0  0  0  0  0  0  0
  149.6736  141.8770  153.6259 H   0  0  0  0  0  0  0  0  0  0  0  0
  149.6943  139.4943  153.0024 H   0  0  0  0  0  0  0  0  0  0  0  0
  149.6113  139.0197  154.6971 H   0  0  0  0  0  0  0  0  0  0  0  0
  151.0375  139.8402  154.0713 H   0  0  0  0  0  0  0  0  0  0  0  0
  149.4771  142.5041  155.9011 H   0  0  0  0  0  0  0  0  0  0  0  0
  151.7764  141.5240  154.8655 H   0  0  0  0  0  0  0  0  0  0  0  0
  151.5923  142.5671  156.2682 H   0  0  0  0  0  0  0  0  0  0  0  0
  151.4928  139.4965  159.8271 H   0  0  0  0  0  0  0  0  0  0  0  0
  152.6944  138.8394  158.7543 H   0  0  0  0  0  0  0  0  0  0  0  0
  153.7902  139.8762  160.7248 H   0  0  0  0  0  0  0  0  0  0  0  0
  154.2548  140.7341  159.2672 H   0  0  0  0  0  0  0  0  0  0  0  0
  153.1513  142.8919  158.8189 H   0  0  0  0  0  0  0  0  0  0  0  0
  151.4524  144.5853  159.5313 H   0  0  0  0  0  0  0  0  0  0  0  0
  152.6761  144.3466  160.7746 H   0  0  0  0  0  0  0  0  0  0  0  0
  151.0822  143.6188  160.9582 H   0  0  0  0  0  0  0  0  0  0  0  0
  150.7901  142.5783  158.0112 H   0  0  0  0  0  0  0  0  0  0  0  0
  150.4186  141.6180  159.4167 H   0  0  0  0  0  0  0  0  0  0  0  0
  146.8696  138.4351  154.0458 H   0  0  0  0  0  0  0  0  0  0  0  0
  149.4760  140.9431  156.4004 H   0  0  0  0  0  0  0  0  0  0  0  0
  1  2  1  0  0  0  0
  1 22  1  0  0  0  0
  1 23  1  0  0  0  0
  1 24  1  0  0  0  0
  2 21  2  0  0  0  0
  2  3  1  0  0  0  0
  3  4  2  0  0  0  0
  3 25  1  0  0  0  0
  4  5  1  0  0  0  0
  5  6  1  0  0  0  0
  5 21  1  0  0  0  0
  6  7  1  0  0  0  0
  6  8  1  0  0  0  0
  6 26  1  0  0  0  0
  7 27  1  0  0  0  0
  7 28  1  0  0  0  0
  7 29  1  0  0  0  0
  8  9  1  0  0  0  0
  8 10  1  0  0  0  0
  8 30  1  0  0  0  0
  9 31  1  0  0  0  0
  9 32  1  0  0  0  0
  9 33  1  0  0  0  0
 10 11  1  0  0  0  0
 10 34  1  0  0  0  0
 10 48  1  0  0  0  0
 11 12  1  0  0  0  0
 11 35  1  0  0  0  0
 11 36  1  0  0  0  0
 12 13  2  0  0  0  0
 12 14  1  0  0  0  0
 14 20  1  0  0  0  0
 14 15  1  0  0  0  0
 15 16  1  0  0  0  0
 15 37  1  0  0  0  0
 15 38  1  0  0  0  0
 16 17  1  0  0  0  0
 16 39  1  0  0  0  0
 16 40  1  0  0  0  0
 17 18  1  0  0  0  0
 18 19  1  0  0  0  0
 18 20  1  0  0  0  0
 18 41  1  0  0  0  0
 19 42  1  0  0  0  0
 19 43  1  0  0  0  0
 19 44  1  0  0  0  0
 20 45  1  0  0  0  0
 20 46  1  0  0  0  0
 21 47  1  0  0  0  0
M  CHG  1  10   1
M  END
> <s_m_source_file>
AV-unprocessed.smi

> <i_m_source_file_index>
3056

> <i_lp_mmshare_version>
43012

> <i_f3d_flags>
0

> <s_epik_input>
W0NIM11jMVtjSF1ubihbY0hdMSlbQ0BIXShbQ0gzXSlbQ0BIXShbQ0gzXSlbTkhdW0NIMl1DKD1PKU4yW0NIMl1bQ0gyXU9bQ0BASF0oW0NIM10pW0NIMl0y

> <s_epik_cmdline>
J2VwaWtfcHl0aG9uJywgJy1waCcsICc3LjAnLCAnLXRuJywgJzgnLCAnLW1hJywgJzIwMCcsICctbWV0YWxfYmluZGluZycsICctaW1hZScsICc8aW5maWxlLm1hZT4nLCAnLW9tYWUnLCAnPG91dGZpbGUubWFlPic=

> <r_lp_tautomer_probability>
1

> <r_epik_Ionization_Penalty>
0.233715

> <r_epik_Ionization_Penalty_Charging>
0.233698

> <r_epik_Ionization_Penalty_Neutral>
1.68157e-05

> <r_epik_State_Penalty>
0.225221

> <r_epik_Charging_Adjusted_Penalty>
0.458919

> <i_epik_Tot_Q>
1

> <i_epik_Tot_abs_Q>
1

> <r_epik_Metal_State_Penalty>
0.225535

> <b_epik_Metal_Only>
0

> <s_lp_Force_Field>
OPLS_2005

> <r_lp_Energy>
28.5623

> <b_lp_Chiralities_Consistent>
1

> <s_lp_Variant>
AV-unprocessed.smi:3056-5

> <Gold.Version>
5.8.1

> <Gold.Id.Protein>
6NUR|6NUR_protein|mol2

> <Gold.PLP.Fitness>
48.7961

> <Gold.PLP.PLP>
-42.1153

> <Gold.PLP.part.hbond>
-1.5953

> <Gold.PLP.part.metal>
0.0000

> <Gold.PLP.part.buried>
-4.3571

> <Gold.PLP.part.nonpolar>
-36.8322

> <Gold.PLP.part.repulsive>
1.7691

> <Gold.PLP.ligand.clash>
0.0000

> <Gold.PLP.ligand.torsion>
1.3867

> <Gold.PLP.Chemscore.Hbond>
2.5038

> <Gold.PLP.Chemscore.CHOScore>
0.6035

> <Gold.PLP.Chemscore.Metal>
0.0000

> <Gold.Chemscore.Hbonds>
donor molecule, donor type, donor heavy atom, donor atom, acceptor molecule, acceptor atom, score
      L1  H    10    34       P1  8028  0.62
      P1  H  7997  8008       L1    13  0.47

> <Gold.PLP.Chemscore.Internal.Correction>
0.1325

> <Gold.Rescore>
     Score         DG    S(hbond)    S(metal)    S(lipo)     H(rot)  DE(clash)    DE(int)     intcor
     15.08     -19.33       1.85        0.00     103.42       1.74       1.44       2.81       ----

> <Gold.Chemscore.Fitness>
15.0836

> <Gold.Chemscore.DG>
-19.3303

> <Gold.Chemscore.ZeroCoef>
-5.4800

> <Gold.Chemscore.Hbond>
1.8540

> <Gold.Chemscore.Metal>
0.0000

> <Gold.Chemscore.Lipo>
103.4237

> <Gold.Chemscore.Internal_Hbond>
0.0000

> <Gold.Chemscore.DEClash>
1.4368

> <Gold.Chemscore.DEInternal>
2.8099

> <Gold.Chemscore.Rot>
1.7354

> <Gold.Chemscore.Internal.Correction>
   9.000000E+99

> <Gold.Chemscore.Hbonds>
donor molecule, donor type, donor heavy atom, donor atom, acceptor molecule, acceptor atom, score
      L1  H    10    34       P1  8028  0.31
      P1  H  7997  8008       L1    13  0.05

> <Gold.Chemscore.Hbond.Weighted>
-6.1924

> <Gold.Chemscore.Metal.Weighted>
-0.0000

> <Gold.Chemscore.Lipo.Weighted>
-12.1006

> <Gold.Chemscore.Internal_Hbond.Weighted>
0.0000

> <Gold.Chemscore.DEClash.Weighted>
1.4368

> <Gold.Chemscore.DEInternal.Weighted>
2.8099

> <Gold.Chemscore.Rot.Weighted>
4.4426

> <Gold.Chemscore.Internal.Correction.Weighted>
   9.000000E+99

> <Gold.Protein.RotatedTorsions>
[ 6907 6896 6895 6894 ] final -156.18 input  -60.11 | X-H torsion
[ 7974 7965 7964 7962 ] final -166.24 input  175.53 | X-H torsion
[ 8008 7997 7996 7995 ] final  -61.20 input   59.86 | X-H torsion
[ 10167 10162 10161 10158 ] final  163.54 input  -65.29 | X-H torsion
[ 10718 10713 10712 10709 ] final -138.64 input   66.30 | X-H torsion
[ 10763 10752 10751 10750 ] final  -85.65 input  -60.55 | X-H torsion
[ 11005 11000 10999 10996 ] final -156.37 input  -57.11 | X-H torsion

> <Gold.Protein.ActiveResidues>
 VAL166  LYS551  ARG553  GLY616  TRP617  ASP618  TYR619  PRO620  LYS621  CYS622 
 ASP623  PHE694  ASN695  SER759  ASP760  ASP761  ALA762  ILE779  LEU786  VAL792 
 PHE793  MET794  SER795  GLU796  ALA797  LYS798  CYS799  TRP800  GLU811  SER814 

> <Gold.Protein.RotatedAtoms>
  151.2837  133.4197  159.2628 H   0  0  0  0  0  0  0  0  0  0  0  0  # atno 6907 bound_to 6896
  151.0338  134.9559  159.8135 H   0  0  0  0  0  0  0  0  0  0  0  0  # atno 6908 bound_to 6896
  152.5351  134.2797  159.9055 H   0  0  0  0  0  0  0  0  0  0  0  0  # atno 6909 bound_to 6896
  144.7250  140.2695  143.6253 H   0  0  0  0  0  0  0  0  0  0  0  0  # atno 7974 bound_to 7965
  154.4436  140.1023  156.6393 H   0  0  0  0  0  0  0  0  0  0  0  0  # atno 8008 bound_to 7997
  155.5519  140.3486  155.4452 H   0  0  0  0  0  0  0  0  0  0  0  0  # atno 8009 bound_to 7997
  156.0522  140.1306  157.0026 H   0  0  0  0  0  0  0  0  0  0  0  0  # atno 8010 bound_to 7997
  139.4875  144.4326  151.9051 H   0  0  0  0  0  0  0  0  0  0  0  0  # atno 10167 bound_to 10162
  156.3017  130.7432  151.1485 H   0  0  0  0  0  0  0  0  0  0  0  0  # atno 10718 bound_to 10713
  154.6135  135.5477  153.7499 H   0  0  0  0  0  0  0  0  0  0  0  0  # atno 10763 bound_to 10752
  153.0206  135.6395  154.1543 H   0  0  0  0  0  0  0  0  0  0  0  0  # atno 10764 bound_to 10752
  154.1480  135.2904  155.3123 H   0  0  0  0  0  0  0  0  0  0  0  0  # atno 10765 bound_to 10752
  140.6763  134.4193  157.5229 H   0  0  0  0  0  0  0  0  0  0  0  0  # atno 11005 bound_to 11000
  145.8057  139.1982  143.2022 LP  0  0  0  0  0  0  0  0  0  0  0  0  # atno 17320 bound_to 7965
  146.0639  140.7941  142.9721 LP  0  0  0  0  0  0  0  0  0  0  0  0  # atno 17321 bound_to 7965
  140.3775  144.2778  150.5912 LP  0  0  0  0  0  0  0  0  0  0  0  0  # atno 17342 bound_to 10162
  140.5264  143.2253  151.8309 LP  0  0  0  0  0  0  0  0  0  0  0  0  # atno 17343 bound_to 10162
  157.7369  131.0557  150.5384 LP  0  0  0  0  0  0  0  0  0  0  0  0  # atno 17370 bound_to 10713
  156.5512  130.4232  149.6106 LP  0  0  0  0  0  0  0  0  0  0  0  0  # atno 17371 bound_to 10713
  139.8965  134.8657  156.2083 LP  0  0  0  0  0  0  0  0  0  0  0  0  # atno 17394 bound_to 11000
  141.0352  133.6967  156.1501 LP  0  0  0  0  0  0  0  0  0  0  0  0  # atno 17395 bound_to 11000

$$$$
