AV-unprocessed.smi:1770|AV-procd|sdf|7155|dock6
  -GOLD-   22720 8393D 1   1.00000     0.00000
 Structure written by MMmdl.
 37 38  0  0  0  0  0  0  0  0  1 V2000
  151.9168  138.3076  154.7590 C   0  0  0  0  0  0  0  0  0  0  0  0
  152.1508  137.2004  155.6107 O   0  0  0  0  0  0  0  0  0  0  0  0
  151.6946  137.4277  156.9380 C   0  0  0  0  0  0  0  0  0  0  0  0
  152.3570  138.6808  157.5196 C   0  0  0  0  0  0  0  0  0  0  0  0
  153.5832  138.7185  157.6064 O   0  0  0  0  0  0  0  0  0  0  0  0
  151.5306  139.6824  157.8745 N   0  0  0  0  0  0  0  0  0  0  0  0
  151.8234  140.9652  158.4227 C   0  0  0  0  0  0  0  0  0  0  0  0
  152.8407  141.1893  159.3829 C   0  0  0  0  0  0  0  0  0  0  0  0
  153.0596  142.4944  159.8593 C   0  0  0  0  0  0  0  0  0  0  0  0
  152.2511  143.5321  159.3638 C   0  0  0  0  0  0  0  0  0  0  0  0
  151.2688  143.3347  158.4619 N   0  0  0  0  0  0  0  0  0  0  0  0
  151.0480  142.0795  158.0005 C   0  0  0  0  0  0  0  0  0  0  0  0
  149.9955  141.9069  157.0794 N   0  0  0  0  0  0  0  0  0  0  0  0
  150.4391  141.5009  155.7472 C   0  0  0  0  0  0  0  0  0  0  0  0
  149.3146  141.6986  154.7167 C   0  0  0  0  0  0  0  0  0  0  0  0
  148.0311  140.9759  155.1574 C   0  0  0  0  0  0  0  0  0  0  0  0
  147.6307  141.4158  156.5756 C   0  0  0  0  0  0  0  0  0  0  0  0
  148.7958  141.2241  157.5621 C   0  0  0  0  0  0  0  0  0  0  0  0
  152.2844  138.0832  153.7577 H   0  0  0  0  0  0  0  0  0  0  0  0
  152.4358  139.1973  155.1175 H   0  0  0  0  0  0  0  0  0  0  0  0
  150.8515  138.5294  154.6849 H   0  0  0  0  0  0  0  0  0  0  0  0
  150.6113  137.5567  156.9471 H   0  0  0  0  0  0  0  0  0  0  0  0
  151.9361  136.5744  157.5737 H   0  0  0  0  0  0  0  0  0  0  0  0
  150.5534  139.5202  157.6768 H   0  0  0  0  0  0  0  0  0  0  0  0
  153.4517  140.3916  159.7737 H   0  0  0  0  0  0  0  0  0  0  0  0
  153.8295  142.6943  160.5896 H   0  0  0  0  0  0  0  0  0  0  0  0
  152.3913  144.5467  159.7061 H   0  0  0  0  0  0  0  0  0  0  0  0
  151.3207  142.0647  155.4413 H   0  0  0  0  0  0  0  0  0  0  0  0
  150.7341  140.4514  155.7798 H   0  0  0  0  0  0  0  0  0  0  0  0
  149.1130  142.7644  154.5988 H   0  0  0  0  0  0  0  0  0  0  0  0
  149.6340  141.3336  153.7403 H   0  0  0  0  0  0  0  0  0  0  0  0
  147.2224  141.1821  154.4557 H   0  0  0  0  0  0  0  0  0  0  0  0
  148.1931  139.8975  155.1400 H   0  0  0  0  0  0  0  0  0  0  0  0
  147.3354  142.4657  156.5615 H   0  0  0  0  0  0  0  0  0  0  0  0
  146.7596  140.8532  156.9119 H   0  0  0  0  0  0  0  0  0  0  0  0
  149.0069  140.1608  157.6832 H   0  0  0  0  0  0  0  0  0  0  0  0
  148.5180  141.6125  158.5429 H   0  0  0  0  0  0  0  0  0  0  0  0
  1  2  1  0  0  0  0
  1 19  1  0  0  0  0
  1 20  1  0  0  0  0
  1 21  1  0  0  0  0
  2  3  1  0  0  0  0
  3  4  1  0  0  0  0
  3 22  1  0  0  0  0
  3 23  1  0  0  0  0
  4  5  2  0  0  0  0
  4  6  1  0  0  0  0
  6  7  1  0  0  0  0
  6 24  1  0  0  0  0
  7 12  1  0  0  0  0
  7  8  2  0  0  0  0
  8  9  1  0  0  0  0
  8 25  1  0  0  0  0
  9 10  2  0  0  0  0
  9 26  1  0  0  0  0
 10 11  1  0  0  0  0
 10 27  1  0  0  0  0
 11 12  2  0  0  0  0
 12 13  1  0  0  0  0
 13 18  1  0  0  0  0
 13 14  1  0  0  0  0
 14 15  1  0  0  0  0
 14 28  1  0  0  0  0
 14 29  1  0  0  0  0
 15 16  1  0  0  0  0
 15 30  1  0  0  0  0
 15 31  1  0  0  0  0
 16 17  1  0  0  0  0
 16 32  1  0  0  0  0
 16 33  1  0  0  0  0
 17 18  1  0  0  0  0
 17 34  1  0  0  0  0
 17 35  1  0  0  0  0
 18 36  1  0  0  0  0
 18 37  1  0  0  0  0
M  END
> <s_m_source_file>
AV-unprocessed.smi

> <i_m_source_file_index>
1770

> <i_lp_mmshare_version>
43012

> <i_f3d_flags>
0

> <s_epik_input>
W0NIM11PW0NIMl1DKD1PKVtOSF1jMVtjSF1bY0hdW2NIXW5jMU4yW0NIMl1bQ0gyXVtDSDJdW0NIMl1bQ0gyXTI=

> <s_epik_cmdline>
J2VwaWtfcHl0aG9uJywgJy1waCcsICc3LjAnLCAnLXRuJywgJzgnLCAnLW1hJywgJzIwMCcsICctbWV0YWxfYmluZGluZycsICctaW1hZScsICc8aW5maWxlLm1hZT4nLCAnLW9tYWUnLCAnPG91dGZpbGUubWFlPic=

> <r_lp_tautomer_probability>
1

> <r_epik_Ionization_Penalty>
0.0272113

> <r_epik_Ionization_Penalty_Charging>
0

> <r_epik_Ionization_Penalty_Neutral>
0.0272113

> <r_epik_State_Penalty>
0.0213264

> <r_epik_Charging_Adjusted_Penalty>
0.0213264

> <i_epik_Tot_Q>
0

> <i_epik_Tot_abs_Q>
0

> <r_epik_Metal_State_Penalty>
0.0203232

> <b_epik_Metal_Only>
0

> <s_lp_Force_Field>
OPLS_2005

> <r_lp_Energy>
23.4593

> <b_lp_Chiralities_Consistent>
1

> <s_lp_Variant>
AV-unprocessed.smi:1770-1

> <Gold.Version>
5.8.1

> <Gold.Id.Protein>
6NUR|6NUR_protein|mol2

> <Gold.PLP.Fitness>
36.0491

> <Gold.PLP.PLP>
-30.9484

> <Gold.PLP.part.hbond>
-2.0000

> <Gold.PLP.part.metal>
0.0000

> <Gold.PLP.part.buried>
-4.0429

> <Gold.PLP.part.nonpolar>
-24.7631

> <Gold.PLP.part.repulsive>
0.2927

> <Gold.PLP.ligand.clash>
0.0000

> <Gold.PLP.ligand.torsion>
0.4474

> <Gold.PLP.Chemscore.Hbond>
1.8960

> <Gold.PLP.Chemscore.CHOScore>
0.0000

> <Gold.PLP.Chemscore.Metal>
0.0000

> <Gold.Chemscore.Hbonds>
donor molecule, donor type, donor heavy atom, donor atom, acceptor molecule, acceptor atom, score
      P1  H  7997  8010       L1     5  1.00
      P1  H 10752 10765       L1     2  0.90

> <Gold.PLP.Chemscore.Internal.Correction>
0.3075

> <Gold.Rescore>
     Score         DG    S(hbond)    S(metal)    S(lipo)     H(rot)  DE(clash)    DE(int)     intcor
     15.45     -16.89       1.79        0.00      76.89       1.39       0.26       1.17       ----

> <Gold.Chemscore.Fitness>
15.4535

> <Gold.Chemscore.DG>
-16.8893

> <Gold.Chemscore.ZeroCoef>
-5.4800

> <Gold.Chemscore.Hbond>
1.7907

> <Gold.Chemscore.Metal>
0.0000

> <Gold.Chemscore.Lipo>
76.8883

> <Gold.Chemscore.Internal_Hbond>
0.0000

> <Gold.Chemscore.DEClash>
0.2618

> <Gold.Chemscore.DEInternal>
1.1740

> <Gold.Chemscore.Rot>
1.3937

> <Gold.Chemscore.Internal.Correction>
   9.000000E+99

> <Gold.Chemscore.Hbonds>
donor molecule, donor type, donor heavy atom, donor atom, acceptor molecule, acceptor atom, score
      P1  H  7997  8010       L1     5  0.95
      P1  H 10752 10765       L1     2  0.78

> <Gold.Chemscore.Hbond.Weighted>
-5.9811

> <Gold.Chemscore.Metal.Weighted>
-0.0000

> <Gold.Chemscore.Lipo.Weighted>
-8.9959

> <Gold.Chemscore.Internal_Hbond.Weighted>
0.0000

> <Gold.Chemscore.DEClash.Weighted>
0.2618

> <Gold.Chemscore.DEInternal.Weighted>
1.1740

> <Gold.Chemscore.Rot.Weighted>
3.5678

> <Gold.Chemscore.Internal.Correction.Weighted>
   9.000000E+99

> <Gold.Protein.RotatedTorsions>
[ 6907 6896 6895 6894 ] final  111.02 input  -60.11 | X-H torsion
[ 7974 7965 7964 7962 ] final -104.64 input  175.53 | X-H torsion
[ 8008 7997 7996 7995 ] final   23.02 input   59.86 | X-H torsion
[ 10167 10162 10161 10158 ] final -170.68 input  -65.29 | X-H torsion
[ 10718 10713 10712 10709 ] final   53.83 input   66.30 | X-H torsion
[ 10763 10752 10751 10750 ] final -168.10 input  -60.55 | X-H torsion
[ 11005 11000 10999 10996 ] final  123.94 input  -57.11 | X-H torsion

> <Gold.Protein.ActiveResidues>
 VAL166  LYS551  ARG553  GLY616  TRP617  ASP618  TYR619  PRO620  LYS621  CYS622 
 ASP623  PHE694  ASN695  SER759  ASP760  ASP761  ALA762  ILE779  LEU786  VAL792 
 PHE793  MET794  SER795  GLU796  ALA797  LYS798  CYS799  TRP800  GLU811  SER814 

> <Gold.Protein.RotatedAtoms>
  152.4990  133.8716  159.7301 H   0  0  0  0  0  0  0  0  0  0  0  0  # atno 6907 bound_to 6896
  150.9201  133.6881  159.2841 H   0  0  0  0  0  0  0  0  0  0  0  0  # atno 6908 bound_to 6896
  151.4261  135.1008  159.9681 H   0  0  0  0  0  0  0  0  0  0  0  0  # atno 6909 bound_to 6896
  145.2406  140.9204  143.3152 H   0  0  0  0  0  0  0  0  0  0  0  0  # atno 7974 bound_to 7965
  154.9746  140.3094  155.4973 H   0  0  0  0  0  0  0  0  0  0  0  0  # atno 8008 bound_to 7997
  156.2961  140.2278  156.4780 H   0  0  0  0  0  0  0  0  0  0  0  0  # atno 8009 bound_to 7997
  154.7845  140.0444  157.1142 H   0  0  0  0  0  0  0  0  0  0  0  0  # atno 8010 bound_to 7997
  139.5847  144.1345  152.1560 H   0  0  0  0  0  0  0  0  0  0  0  0  # atno 10167 bound_to 10162
  157.5203  130.8560  149.8549 H   0  0  0  0  0  0  0  0  0  0  0  0  # atno 10718 bound_to 10713
  154.6663  135.2932  154.9801 H   0  0  0  0  0  0  0  0  0  0  0  0  # atno 10763 bound_to 10752
  154.0843  135.6600  153.4846 H   0  0  0  0  0  0  0  0  0  0  0  0  # atno 10764 bound_to 10752
  153.0459  135.5205  154.7638 H   0  0  0  0  0  0  0  0  0  0  0  0  # atno 10765 bound_to 10752
  139.9336  134.9640  156.8335 H   0  0  0  0  0  0  0  0  0  0  0  0  # atno 11005 bound_to 11000
  144.9592  139.3998  143.6364 LP  0  0  0  0  0  0  0  0  0  0  0  0  # atno 17320 bound_to 7965
  146.3329  139.8637  142.8852 LP  0  0  0  0  0  0  0  0  0  0  0  0  # atno 17321 bound_to 7965
  140.0906  144.5624  150.7057 LP  0  0  0  0  0  0  0  0  0  0  0  0  # atno 17342 bound_to 10162
  140.7120  143.2513  151.4551 LP  0  0  0  0  0  0  0  0  0  0  0  0  # atno 17343 bound_to 10162
  156.0348  130.3754  150.1589 LP  0  0  0  0  0  0  0  0  0  0  0  0  # atno 17370 bound_to 10713
  156.9777  130.9854  151.3444 LP  0  0  0  0  0  0  0  0  0  0  0  0  # atno 17371 bound_to 10713
  140.6136  134.0059  155.7587 LP  0  0  0  0  0  0  0  0  0  0  0  0  # atno 17394 bound_to 11000
  141.0937  133.9876  157.3195 LP  0  0  0  0  0  0  0  0  0  0  0  0  # atno 17395 bound_to 11000

$$$$
