AV-unprocessed.smi:2568|AV-procd|sdf|10092|dock10
  -GOLD-   2272014113D 1   1.00000     0.00000
 Structure written by MMmdl.
 25 26  0  0  0  0  0  0  0  0  2 V2000
  153.3315  137.5522  155.6007 C   0  0  0  0  0  0  0  0  0  0  0  0
  152.1262  137.9037  154.7971 C   0  0  0  0  0  0  0  0  0  0  0  0
  151.6409  137.0734  153.8755 N   0  0  0  0  0  0  0  0  0  0  0  0
  150.5804  137.7636  153.4063 N   0  0  0  0  0  0  0  0  0  0  0  0
  150.4893  138.9282  154.0529 C   0  0  0  0  0  0  0  0  0  0  0  0
  149.4176  139.9271  153.7493 C   0  0  2  0  0  0  0  0  0  0  0  0
  149.5935  141.2377  154.5406 C   0  0  0  0  0  0  0  0  0  0  0  0
  148.4572  142.1420  154.2773 N   0  3  0  0  0  0  0  0  0  0  0  0
  147.1661  141.4839  154.5604 C   0  0  0  0  0  0  0  0  0  0  0  0
  147.0620  140.1621  153.7793 C   0  0  0  0  0  0  0  0  0  0  0  0
  148.1716  139.3276  154.0961 O   0  0  0  0  0  0  0  0  0  0  0  0
  151.4533  139.0828  154.9560 N   0  0  0  0  0  0  0  0  0  0  0  0
  149.9740  137.4124  152.6789 H   0  0  0  0  0  0  0  0  0  0  0  0
  153.8148  136.6571  155.2072 H   0  0  0  0  0  0  0  0  0  0  0  0
  153.0503  137.3657  156.6373 H   0  0  0  0  0  0  0  0  0  0  0  0
  154.0522  138.3700  155.5784 H   0  0  0  0  0  0  0  0  0  0  0  0
  149.4299  140.1326  152.6770 H   0  0  0  0  0  0  0  0  0  0  0  0
  149.6432  141.0340  155.6113 H   0  0  0  0  0  0  0  0  0  0  0  0
  150.5238  141.7344  154.2636 H   0  0  0  0  0  0  0  0  0  0  0  0
  148.5459  142.9688  154.8509 H   0  0  0  0  0  0  0  0  0  0  0  0
  147.0877  141.2950  155.6319 H   0  0  0  0  0  0  0  0  0  0  0  0
  146.3503  142.1552  154.2917 H   0  0  0  0  0  0  0  0  0  0  0  0
  146.1411  139.6414  154.0427 H   0  0  0  0  0  0  0  0  0  0  0  0
  147.0271  140.3465  152.7044 H   0  0  0  0  0  0  0  0  0  0  0  0
  148.4761  142.4127  153.3044 H   0  0  0  0  0  0  0  0  0  0  0  0
  1  2  1  0  0  0  0
  1 14  1  0  0  0  0
  1 15  1  0  0  0  0
  1 16  1  0  0  0  0
  2 12  1  0  0  0  0
  2  3  2  0  0  0  0
  3  4  1  0  0  0  0
  4 13  1  0  0  0  0
  4  5  1  0  0  0  0
  5  6  1  0  0  0  0
  5 12  2  0  0  0  0
  6 11  1  0  0  0  0
  6  7  1  0  0  0  0
  6 17  1  0  0  0  0
  7  8  1  0  0  0  0
  7 18  1  0  0  0  0
  7 19  1  0  0  0  0
  8  9  1  0  0  0  0
  8 20  1  0  0  0  0
  8 25  1  0  0  0  0
  9 10  1  0  0  0  0
  9 21  1  0  0  0  0
  9 22  1  0  0  0  0
 10 11  1  0  0  0  0
 10 23  1  0  0  0  0
 10 24  1  0  0  0  0
M  CHG  1   8   1
M  END
> <s_m_source_file>
AV-unprocessed.smi

> <i_m_source_file_index>
2568

> <i_lp_mmshare_version>
43012

> <i_f3d_flags>
0

> <s_epik_input>
W0NIM11jMW5bbkhdYyhuMSlbQ0BASF0yW0NIMl1bTkhdW0NIMl1bQ0gyXU8y

> <s_epik_cmdline>
J2VwaWtfcHl0aG9uJywgJy1waCcsICc3LjAnLCAnLXRuJywgJzgnLCAnLW1hJywgJzIwMCcsICctbWV0YWxfYmluZGluZycsICctaW1hZScsICc8aW5maWxlLm1hZT4nLCAnLW9tYWUnLCAnPG91dGZpbGUubWFlPic=

> <r_epik_Ionization_Penalty>
0.166663

> <r_epik_Ionization_Penalty_Charging>
0.125708

> <r_epik_Ionization_Penalty_Neutral>
0.0409555

> <r_epik_State_Penalty>
1.3004

> <r_epik_Charging_Adjusted_Penalty>
1.42611

> <i_epik_Tot_Q>
1

> <i_epik_Tot_abs_Q>
1

> <r_epik_Metal_State_Penalty>
1.60166

> <b_epik_Metal_Only>
0

> <s_lp_Force_Field>
OPLS_2005

> <r_lp_Energy>
12.4533

> <b_lp_Chiralities_Consistent>
1

> <s_lp_Variant>
AV-unprocessed.smi:2568-5

> <Gold.Version>
5.8.1

> <Gold.Id.Protein>
6NUR|6NUR_protein|mol2

> <Gold.PLP.Fitness>
30.0523

> <Gold.PLP.PLP>
-18.1265

> <Gold.PLP.part.hbond>
-3.7066

> <Gold.PLP.part.metal>
0.0000

> <Gold.PLP.part.buried>
-2.8328

> <Gold.PLP.part.nonpolar>
-13.7903

> <Gold.PLP.part.repulsive>
1.4451

> <Gold.PLP.ligand.clash>
0.0000

> <Gold.PLP.ligand.torsion>
0.0376

> <Gold.PLP.Chemscore.Hbond>
4.0000

> <Gold.PLP.Chemscore.CHOScore>
0.0000

> <Gold.PLP.Chemscore.Metal>
0.0000

> <Gold.Chemscore.Hbonds>
donor molecule, donor type, donor heavy atom, donor atom, acceptor molecule, acceptor atom, score
      L1  H     4    13       P1  7948  0.70
      L1  H     8    20       P1  8028  2.00
      P1  H 10752 10765       L1     3  0.75

> <Gold.PLP.Chemscore.Internal.Correction>
0.0010

> <Gold.Rescore>
     Score         DG    S(hbond)    S(metal)    S(lipo)     H(rot)  DE(clash)    DE(int)     intcor
     13.37     -13.47       2.15        0.00      28.73       1.00       0.00       0.10       ----

> <Gold.Chemscore.Fitness>
13.3710

> <Gold.Chemscore.DG>
-13.4700

> <Gold.Chemscore.ZeroCoef>
-5.4800

> <Gold.Chemscore.Hbond>
2.1523

> <Gold.Chemscore.Metal>
0.0000

> <Gold.Chemscore.Lipo>
28.7292

> <Gold.Chemscore.Internal_Hbond>
0.0000

> <Gold.Chemscore.DEClash>
0.0000

> <Gold.Chemscore.DEInternal>
0.0990

> <Gold.Chemscore.Rot>
1.0000

> <Gold.Chemscore.Internal.Correction>
   9.000000E+99

> <Gold.Chemscore.Hbonds>
donor molecule, donor type, donor heavy atom, donor atom, acceptor molecule, acceptor atom, score
      L1  H     4    13       P1  7948  0.07
      L1  H     8    20       P1  8028  0.99
      P1  H 10752 10765       L1     3  0.09

> <Gold.Chemscore.Hbond.Weighted>
-7.1887

> <Gold.Chemscore.Metal.Weighted>
-0.0000

> <Gold.Chemscore.Lipo.Weighted>
-3.3613

> <Gold.Chemscore.Internal_Hbond.Weighted>
0.0000

> <Gold.Chemscore.DEClash.Weighted>
0.0000

> <Gold.Chemscore.DEInternal.Weighted>
0.0990

> <Gold.Chemscore.Rot.Weighted>
2.5600

> <Gold.Chemscore.Internal.Correction.Weighted>
   9.000000E+99

> <Gold.Protein.RotatedTorsions>
[ 6907 6896 6895 6894 ] final -120.94 input  -60.11 | X-H torsion
[ 7974 7965 7964 7962 ] final  -54.78 input  175.53 | X-H torsion
[ 8008 7997 7996 7995 ] final   72.75 input   59.86 | X-H torsion
[ 10167 10162 10161 10158 ] final  -21.77 input  -65.29 | X-H torsion
[ 10718 10713 10712 10709 ] final -121.08 input   66.30 | X-H torsion
[ 10763 10752 10751 10750 ] final  154.43 input  -60.55 | X-H torsion
[ 11005 11000 10999 10996 ] final -167.69 input  -57.11 | X-H torsion

> <Gold.Protein.ActiveResidues>
 VAL166  LYS551  ARG553  GLY616  TRP617  ASP618  TYR619  PRO620  LYS621  CYS622 
 ASP623  PHE694  ASN695  SER759  ASP760  ASP761  ALA762  ILE779  LEU786  VAL792 
 PHE793  MET794  SER795  GLU796  ALA797  LYS798  CYS799  TRP800  GLU811  SER814 

> <Gold.Protein.RotatedAtoms>
  150.8438  133.7894  159.3050 H   0  0  0  0  0  0  0  0  0  0  0  0  # atno 6907 bound_to 6896
  151.5587  135.1064  159.9977 H   0  0  0  0  0  0  0  0  0  0  0  0  # atno 6908 bound_to 6896
  152.4496  133.7561  159.6777 H   0  0  0  0  0  0  0  0  0  0  0  0  # atno 6909 bound_to 6896
  145.8816  140.8140  142.9837 H   0  0  0  0  0  0  0  0  0  0  0  0  # atno 7974 bound_to 7965
  155.7734  140.3484  155.5259 H   0  0  0  0  0  0  0  0  0  0  0  0  # atno 8008 bound_to 7997
  155.8799  140.1000  157.1513 H   0  0  0  0  0  0  0  0  0  0  0  0  # atno 8009 bound_to 7997
  154.4024  140.1324  156.4171 H   0  0  0  0  0  0  0  0  0  0  0  0  # atno 8010 bound_to 7997
  140.7283  143.4597  151.0397 H   0  0  0  0  0  0  0  0  0  0  0  0  # atno 10167 bound_to 10162
  156.1308  130.6394  150.9619 H   0  0  0  0  0  0  0  0  0  0  0  0  # atno 10718 bound_to 10713
  154.1522  135.2814  155.3132 H   0  0  0  0  0  0  0  0  0  0  0  0  # atno 10763 bound_to 10752
  154.6209  135.5467  153.7577 H   0  0  0  0  0  0  0  0  0  0  0  0  # atno 10764 bound_to 10752
  153.0217  135.6439  154.1666 H   0  0  0  0  0  0  0  0  0  0  0  0  # atno 10765 bound_to 10752
  140.5504  134.5433  157.5121 H   0  0  0  0  0  0  0  0  0  0  0  0  # atno 11005 bound_to 11000
  144.6727  140.1393  143.7438 LP  0  0  0  0  0  0  0  0  0  0  0  0  # atno 17320 bound_to 7965
  145.9016  139.2434  143.1490 LP  0  0  0  0  0  0  0  0  0  0  0  0  # atno 17321 bound_to 7965
  139.8281  143.7729  152.3179 LP  0  0  0  0  0  0  0  0  0  0  0  0  # atno 17342 bound_to 10162
  139.7835  144.7436  151.0055 LP  0  0  0  0  0  0  0  0  0  0  0  0  # atno 17343 bound_to 10162
  157.6486  131.0900  150.8099 LP  0  0  0  0  0  0  0  0  0  0  0  0  # atno 17370 bound_to 10713
  156.8184  130.4975  149.5346 LP  0  0  0  0  0  0  0  0  0  0  0  0  # atno 17371 bound_to 10713
  139.9458  134.7705  156.0566 LP  0  0  0  0  0  0  0  0  0  0  0  0  # atno 17394 bound_to 11000
  141.1175  133.6623  156.3130 LP  0  0  0  0  0  0  0  0  0  0  0  0  # atno 17395 bound_to 11000

$$$$
