AV-unprocessed.smi:2396|AV-procd|sdf|9492|dock2
  -GOLD-   2272013123D 1   1.00000     0.00000
 Structure written by MMmdl.
 32 32  0  0  0  0  0  0  0  0  1 V2000
  150.7433  135.7309  156.2365 C   0  0  0  0  0  0  0  0  0  0  0  0
  149.4160  136.0219  155.5238 C   0  0  0  0  0  0  0  0  0  0  0  0
  149.1420  135.0420  154.4793 N   0  0  0  0  0  0  0  0  0  0  0  0
  148.9684  133.7270  154.6823 C   0  0  0  0  0  0  0  0  0  0  0  0
  149.0268  133.2037  155.7959 O   0  0  0  0  0  0  0  0  0  0  0  0
  148.6919  132.8812  153.4343 C   0  0  0  0  0  0  0  0  0  0  0  0
  147.4596  133.2721  152.7703 N   0  0  0  0  0  0  0  0  0  0  0  0
  146.9073  132.7627  151.6174 C   0  0  0  0  0  0  0  0  0  0  0  0
  145.7503  133.4470  151.3707 C   0  0  0  0  0  0  0  0  0  0  0  0
  144.8161  133.2485  150.2035 C   0  0  0  0  0  0  0  0  0  0  0  0
  143.5424  132.4879  150.6031 C   0  0  0  0  0  0  0  0  0  0  0  0
  142.7720  132.1646  149.4648 O   0  0  0  0  0  0  0  0  0  0  0  0
  145.6680  134.3740  152.4595 C   0  0  0  0  0  0  0  0  0  0  0  0
  144.6310  135.4305  152.7634 C   0  0  0  0  0  0  0  0  0  0  0  0
  143.4403  134.8513  152.9157 F   0  0  0  0  0  0  0  0  0  0  0  0
  144.9165  136.1105  153.8716 F   0  0  0  0  0  0  0  0  0  0  0  0
  144.5597  136.2963  151.7517 F   0  0  0  0  0  0  0  0  0  0  0  0
  146.7000  134.2584  153.2860 N   0  0  0  0  0  0  0  0  0  0  0  0
  150.9202  136.4528  157.0340 H   0  0  0  0  0  0  0  0  0  0  0  0
  151.5863  135.7879  155.5469 H   0  0  0  0  0  0  0  0  0  0  0  0
  150.7410  134.7363  156.6832 H   0  0  0  0  0  0  0  0  0  0  0  0
  148.5978  135.9892  156.2437 H   0  0  0  0  0  0  0  0  0  0  0  0
  149.4215  137.0300  155.1062 H   0  0  0  0  0  0  0  0  0  0  0  0
  149.0820  135.3888  153.5328 H   0  0  0  0  0  0  0  0  0  0  0  0
  149.5111  132.9790  152.7204 H   0  0  0  0  0  0  0  0  0  0  0  0
  148.6353  131.8292  153.7176 H   0  0  0  0  0  0  0  0  0  0  0  0
  147.3842  131.9661  151.0653 H   0  0  0  0  0  0  0  0  0  0  0  0
  144.5166  134.2198  149.8086 H   0  0  0  0  0  0  0  0  0  0  0  0
  145.3050  132.7491  149.3676 H   0  0  0  0  0  0  0  0  0  0  0  0
  143.7843  131.5813  151.1590 H   0  0  0  0  0  0  0  0  0  0  0  0
  142.9293  133.1105  151.2552 H   0  0  0  0  0  0  0  0  0  0  0  0
  142.0820  132.8043  149.3765 H   0  0  0  0  0  0  0  0  0  0  0  0
  1  2  1  0  0  0  0
  1 19  1  0  0  0  0
  1 20  1  0  0  0  0
  1 21  1  0  0  0  0
  2  3  1  0  0  0  0
  2 22  1  0  0  0  0
  2 23  1  0  0  0  0
  3  4  1  0  0  0  0
  3 24  1  0  0  0  0
  4  5  2  0  0  0  0
  4  6  1  0  0  0  0
  6  7  1  0  0  0  0
  6 25  1  0  0  0  0
  6 26  1  0  0  0  0
  7 18  1  0  0  0  0
  7  8  1  0  0  0  0
  8  9  2  0  0  0  0
  8 27  1  0  0  0  0
  9 10  1  0  0  0  0
  9 13  1  0  0  0  0
 10 11  1  0  0  0  0
 10 28  1  0  0  0  0
 10 29  1  0  0  0  0
 11 12  1  0  0  0  0
 11 30  1  0  0  0  0
 11 31  1  0  0  0  0
 12 32  1  0  0  0  0
 13 14  1  0  0  0  0
 13 18  2  0  0  0  0
 14 15  1  0  0  0  0
 14 16  1  0  0  0  0
 14 17  1  0  0  0  0
M  END
> <s_m_source_file>
AV-unprocessed.smi

> <i_m_source_file_index>
2396

> <i_lp_mmshare_version>
43012

> <i_f3d_flags>
0

> <s_epik_input>
W0NIM11bQ0gyXVtOSF1DKD1PKVtDSDJdbjFbY0hdYyhjKG4xKUMoRikoRilGKVtDSDJdW0NIMl1bT0hd

> <s_epik_cmdline>
J2VwaWtfcHl0aG9uJywgJy1waCcsICc3LjAnLCAnLXRuJywgJzgnLCAnLW1hJywgJzIwMCcsICctbWV0YWxfYmluZGluZycsICctaW1hZScsICc8aW5maWxlLm1hZT4nLCAnLW9tYWUnLCAnPG91dGZpbGUubWFlPic=

> <r_lp_tautomer_probability>
1

> <r_epik_Ionization_Penalty>
2.37964e-07

> <r_epik_Ionization_Penalty_Charging>
0

> <r_epik_Ionization_Penalty_Neutral>
2.37964e-07

> <r_epik_State_Penalty>
-0

> <r_epik_Charging_Adjusted_Penalty>
0

> <i_epik_Tot_Q>
0

> <i_epik_Tot_abs_Q>
0

> <r_epik_Metal_State_Penalty>
-0

> <b_epik_Metal_Only>
0

> <s_lp_Force_Field>
OPLS_2005

> <r_lp_Energy>
5.98536

> <b_lp_Chiralities_Consistent>
1

> <s_lp_Variant>
AV-unprocessed.smi:2396-1

> <Gold.Version>
5.8.1

> <Gold.Id.Protein>
6NUR|6NUR_protein|mol2

> <Gold.PLP.Fitness>
41.4814

> <Gold.PLP.PLP>
-30.7308

> <Gold.PLP.part.hbond>
-3.7427

> <Gold.PLP.part.metal>
0.0000

> <Gold.PLP.part.buried>
-3.5565

> <Gold.PLP.part.nonpolar>
-23.7277

> <Gold.PLP.part.repulsive>
0.1158

> <Gold.PLP.ligand.clash>
0.0000

> <Gold.PLP.ligand.torsion>
0.2363

> <Gold.PLP.Chemscore.Hbond>
2.7963

> <Gold.PLP.Chemscore.CHOScore>
0.9079

> <Gold.PLP.Chemscore.Metal>
0.0000

> <Gold.Chemscore.Hbonds>
donor molecule, donor type, donor heavy atom, donor atom, acceptor molecule, acceptor atom, score
      L1  H     3    24       P1  7948  1.00
      L1  H    12    32       P1 10186  1.00
      P1  H 10785 10796       L1    12  0.60
      L1  C     8    27       P1 10747  1.00

> <Gold.PLP.Chemscore.Internal.Correction>
0.1108

> <Gold.Rescore>
     Score         DG    S(hbond)    S(metal)    S(lipo)     H(rot)  DE(clash)    DE(int)     intcor
     10.03     -11.92       2.42        0.00      48.54       2.86       0.03       1.87       ----

> <Gold.Chemscore.Fitness>
10.0256

> <Gold.Chemscore.DG>
-11.9188

> <Gold.Chemscore.ZeroCoef>
-5.4800

> <Gold.Chemscore.Hbond>
2.4214

> <Gold.Chemscore.Metal>
0.0000

> <Gold.Chemscore.Lipo>
48.5408

> <Gold.Chemscore.Internal_Hbond>
0.0000

> <Gold.Chemscore.DEClash>
0.0270

> <Gold.Chemscore.DEInternal>
1.8662

> <Gold.Chemscore.Rot>
2.8625

> <Gold.Chemscore.Internal.Correction>
   9.000000E+99

> <Gold.Chemscore.Hbonds>
donor molecule, donor type, donor heavy atom, donor atom, acceptor molecule, acceptor atom, score
      L1  H     3    24       P1  7948  0.55
      L1  H    12    32       P1 10186  0.99
      P1  H 10785 10796       L1    12  0.50

> <Gold.Chemscore.Hbond.Weighted>
-8.0874

> <Gold.Chemscore.Metal.Weighted>
-0.0000

> <Gold.Chemscore.Lipo.Weighted>
-5.6793

> <Gold.Chemscore.Internal_Hbond.Weighted>
0.0000

> <Gold.Chemscore.DEClash.Weighted>
0.0270

> <Gold.Chemscore.DEInternal.Weighted>
1.8662

> <Gold.Chemscore.Rot.Weighted>
7.3279

> <Gold.Chemscore.Internal.Correction.Weighted>
   9.000000E+99

> <Gold.Protein.RotatedTorsions>
[ 6907 6896 6895 6894 ] final   46.67 input  -60.11 | X-H torsion
[ 7974 7965 7964 7962 ] final -130.48 input  175.53 | X-H torsion
[ 8008 7997 7996 7995 ] final   63.15 input   59.86 | X-H torsion
[ 10167 10162 10161 10158 ] final  118.15 input  -65.29 | X-H torsion
[ 10718 10713 10712 10709 ] final  135.40 input   66.30 | X-H torsion
[ 10763 10752 10751 10750 ] final  -96.91 input  -60.55 | X-H torsion
[ 11005 11000 10999 10996 ] final  -75.43 input  -57.11 | X-H torsion

> <Gold.Protein.ActiveResidues>
 VAL166  LYS551  ARG553  GLY616  TRP617  ASP618  TYR619  PRO620  LYS621  CYS622 
 ASP623  PHE694  ASN695  SER759  ASP760  ASP761  ALA762  ILE779  LEU786  VAL792 
 PHE793  MET794  SER795  GLU796  ALA797  LYS798  CYS799  TRP800  GLU811  SER814 

> <Gold.Protein.RotatedAtoms>
  152.2591  134.8052  160.0433 H   0  0  0  0  0  0  0  0  0  0  0  0  # atno 6907 bound_to 6896
  151.8705  133.3469  159.3741 H   0  0  0  0  0  0  0  0  0  0  0  0  # atno 6908 bound_to 6896
  150.7110  134.5044  159.5621 H   0  0  0  0  0  0  0  0  0  0  0  0  # atno 6909 bound_to 6896
  144.9471  140.7303  143.4811 H   0  0  0  0  0  0  0  0  0  0  0  0  # atno 7974 bound_to 7965
  155.6257  140.3496  155.4666 H   0  0  0  0  0  0  0  0  0  0  0  0  # atno 8008 bound_to 7997
  156.0044  140.1220  157.0540 H   0  0  0  0  0  0  0  0  0  0  0  0  # atno 8009 bound_to 7997
  154.4259  140.1094  156.5728 H   0  0  0  0  0  0  0  0  0  0  0  0  # atno 8010 bound_to 7997
  139.6131  144.7086  151.2800 H   0  0  0  0  0  0  0  0  0  0  0  0  # atno 10167 bound_to 10162
  157.4575  131.1071  150.9960 H   0  0  0  0  0  0  0  0  0  0  0  0  # atno 10718 bound_to 10713
  154.7281  135.5066  153.8920 H   0  0  0  0  0  0  0  0  0  0  0  0  # atno 10763 bound_to 10752
  153.0924  135.6663  153.9837 H   0  0  0  0  0  0  0  0  0  0  0  0  # atno 10764 bound_to 10752
  153.9644  135.3044  155.3411 H   0  0  0  0  0  0  0  0  0  0  0  0  # atno 10765 bound_to 10752
  141.1645  133.6946  156.7516 H   0  0  0  0  0  0  0  0  0  0  0  0  # atno 11005 bound_to 11000
  145.2901  139.1886  143.4745 LP  0  0  0  0  0  0  0  0  0  0  0  0  # atno 17320 bound_to 7965
  146.3307  140.2877  142.8613 LP  0  0  0  0  0  0  0  0  0  0  0  0  # atno 17321 bound_to 7965
  140.7332  143.6800  150.8009 LP  0  0  0  0  0  0  0  0  0  0  0  0  # atno 17342 bound_to 10162
  140.0398  143.5358  152.2723 LP  0  0  0  0  0  0  0  0  0  0  0  0  # atno 17343 bound_to 10162
  157.0769  130.5887  149.5413 LP  0  0  0  0  0  0  0  0  0  0  0  0  # atno 17370 bound_to 10713
  156.0013  130.5093  150.7675 LP  0  0  0  0  0  0  0  0  0  0  0  0  # atno 17371 bound_to 10713
  140.2600  134.8474  157.3749 LP  0  0  0  0  0  0  0  0  0  0  0  0  # atno 17394 bound_to 11000
  140.1620  134.4716  155.7888 LP  0  0  0  0  0  0  0  0  0  0  0  0  # atno 17395 bound_to 11000

$$$$
