AV-unprocessed.smi:3313|AV-procd|sdf|12730|dock6
  -GOLD-   2272019 73D 1   1.00000     0.00000
 Structure written by MMmdl.
 43 43  0  0  0  0  0  0  0  0  2 V2000
  151.1247  141.6662  156.2946 C   0  0  0  0  0  0  0  0  0  0  0  0
  150.8088  142.3040  157.6578 C   0  0  1  0  0  0  0  0  0  0  0  0
  151.8454  143.3905  158.0044 C   0  0  0  0  0  0  0  0  0  0  0  0
  152.1481  143.4337  159.4241 N   0  0  0  0  0  0  0  0  0  0  0  0
  152.7639  142.4722  160.1974 C   0  0  0  0  0  0  0  0  0  0  0  0
  152.8264  142.9558  161.4728 C   0  0  0  0  0  0  0  0  0  0  0  0
  152.2161  144.2378  161.3794 C   0  0  0  0  0  0  0  0  0  0  0  0
  151.8086  144.5200  160.1522 N   0  0  0  0  0  0  0  0  0  0  0  0
  149.4445  142.8787  157.6661 N   0  3  0  0  0  0  0  0  0  0  0  0
  148.3404  141.8968  157.5900 C   0  0  0  0  0  0  0  0  0  0  0  0
  146.9615  142.5847  157.5495 C   0  0  0  0  0  0  0  0  0  0  0  0
  146.5132  143.1819  158.8895 C   0  0  0  0  0  0  0  0  0  0  0  0
  146.2015  142.4471  159.8272 O   0  0  0  0  0  0  0  0  0  0  0  0
  146.4865  144.5252  158.9493 N   0  0  0  0  0  0  0  0  0  0  0  0
  146.0948  145.3816  160.0755 C   0  0  0  0  0  0  0  0  0  0  0  0
  147.2112  145.2718  161.1291 C   0  0  0  0  0  0  0  0  0  0  0  0
  144.7690  144.8941  160.6974 C   0  0  0  0  0  0  0  0  0  0  0  0
  145.9747  146.8527  159.6243 C   0  0  0  0  0  0  0  0  0  0  0  0
  152.1382  141.2642  156.2774 H   0  0  0  0  0  0  0  0  0  0  0  0
  151.0448  142.3958  155.4877 H   0  0  0  0  0  0  0  0  0  0  0  0
  150.4503  140.8413  156.0661 H   0  0  0  0  0  0  0  0  0  0  0  0
  150.8646  141.5298  158.4250 H   0  0  0  0  0  0  0  0  0  0  0  0
  152.7785  143.2014  157.4715 H   0  0  0  0  0  0  0  0  0  0  0  0
  151.5001  144.3746  157.6828 H   0  0  0  0  0  0  0  0  0  0  0  0
  153.1025  141.5347  159.7810 H   0  0  0  0  0  0  0  0  0  0  0  0
  153.2464  142.4693  162.3407 H   0  0  0  0  0  0  0  0  0  0  0  0
  152.0576  144.9660  162.1612 H   0  0  0  0  0  0  0  0  0  0  0  0
  149.3362  143.3885  158.5320 H   0  0  0  0  0  0  0  0  0  0  0  0
  148.4635  141.2593  156.7143 H   0  0  0  0  0  0  0  0  0  0  0  0
  148.3894  141.2433  158.4618 H   0  0  0  0  0  0  0  0  0  0  0  0
  146.9808  143.3889  156.8132 H   0  0  0  0  0  0  0  0  0  0  0  0
  146.2097  141.8714  157.2081 H   0  0  0  0  0  0  0  0  0  0  0  0
  146.7700  145.0177  158.1143 H   0  0  0  0  0  0  0  0  0  0  0  0
  146.9947  145.8873  162.0030 H   0  0  0  0  0  0  0  0  0  0  0  0
  148.1712  145.6001  160.7286 H   0  0  0  0  0  0  0  0  0  0  0  0
  147.3332  144.2445  161.4751 H   0  0  0  0  0  0  0  0  0  0  0  0
  144.8297  143.8451  160.9902 H   0  0  0  0  0  0  0  0  0  0  0  0
  143.9292  144.9970  160.0100 H   0  0  0  0  0  0  0  0  0  0  0  0
  144.5209  145.4685  161.5903 H   0  0  0  0  0  0  0  0  0  0  0  0
  145.7763  147.5076  160.4732 H   0  0  0  0  0  0  0  0  0  0  0  0
  145.1622  147.0001  158.9130 H   0  0  0  0  0  0  0  0  0  0  0  0
  146.8943  147.1999  159.1521 H   0  0  0  0  0  0  0  0  0  0  0  0
  149.3608  143.5321  156.9001 H   0  0  0  0  0  0  0  0  0  0  0  0
  1  2  1  0  0  0  0
  1 19  1  0  0  0  0
  1 20  1  0  0  0  0
  1 21  1  0  0  0  0
  2  3  1  0  0  0  0
  2  9  1  0  0  0  0
  2 22  1  0  0  0  0
  3  4  1  0  0  0  0
  3 23  1  0  0  0  0
  3 24  1  0  0  0  0
  4  8  1  0  0  0  0
  4  5  1  0  0  0  0
  5  6  2  0  0  0  0
  5 25  1  0  0  0  0
  6  7  1  0  0  0  0
  6 26  1  0  0  0  0
  7  8  2  0  0  0  0
  7 27  1  0  0  0  0
  9 10  1  0  0  0  0
  9 28  1  0  0  0  0
  9 43  1  0  0  0  0
 10 11  1  0  0  0  0
 10 29  1  0  0  0  0
 10 30  1  0  0  0  0
 11 12  1  0  0  0  0
 11 31  1  0  0  0  0
 11 32  1  0  0  0  0
 12 13  2  0  0  0  0
 12 14  1  0  0  0  0
 14 15  1  0  0  0  0
 14 33  1  0  0  0  0
 15 16  1  0  0  0  0
 15 17  1  0  0  0  0
 15 18  1  0  0  0  0
 16 34  1  0  0  0  0
 16 35  1  0  0  0  0
 16 36  1  0  0  0  0
 17 37  1  0  0  0  0
 17 38  1  0  0  0  0
 17 39  1  0  0  0  0
 18 40  1  0  0  0  0
 18 41  1  0  0  0  0
 18 42  1  0  0  0  0
M  CHG  1   9   1
M  END
> <s_m_source_file>
AV-unprocessed.smi

> <i_m_source_file_index>
3313

> <i_lp_mmshare_version>
43012

> <i_f3d_flags>
0

> <s_epik_input>
bjFbY0hdW2NIXVtjSF1uMVtDSDJdW0NAQEhdKFtDSDNdKVtOSF1bQ0gyXVtDSDJdQyg9TylbTkhdQyhbQ0gzXSkoW0NIM10pW0NIM10=

> <s_epik_cmdline>
J2VwaWtfcHl0aG9uJywgJy1waCcsICc3LjAnLCAnLXRuJywgJzgnLCAnLW1hJywgJzIwMCcsICctbWV0YWxfYmluZGluZycsICctaW1hZScsICc8aW5maWxlLm1hZT4nLCAnLW9tYWUnLCAnPG91dGZpbGUubWFlPic=

> <r_lp_tautomer_probability>
1

> <r_epik_Ionization_Penalty>
0.0056766

> <r_epik_Ionization_Penalty_Charging>
0.00567288

> <r_epik_Ionization_Penalty_Neutral>
3.71277e-06

> <r_epik_State_Penalty>
0.0041598

> <r_epik_Charging_Adjusted_Penalty>
0.00983268

> <i_epik_Tot_Q>
1

> <i_epik_Tot_abs_Q>
1

> <r_epik_Metal_State_Penalty>
-0

> <b_epik_Metal_Only>
0

> <s_lp_Force_Field>
OPLS_2005

> <r_lp_Energy>
4.0528

> <b_lp_Chiralities_Consistent>
1

> <s_lp_Variant>
AV-unprocessed.smi:3313-2

> <Gold.Version>
5.8.1

> <Gold.Id.Protein>
6NUR|6NUR_protein|mol2

> <Gold.PLP.Fitness>
50.2876

> <Gold.PLP.PLP>
-39.8810

> <Gold.PLP.part.hbond>
-3.0000

> <Gold.PLP.part.metal>
0.0000

> <Gold.PLP.part.buried>
-6.0700

> <Gold.PLP.part.nonpolar>
-29.8553

> <Gold.PLP.part.repulsive>
0.1450

> <Gold.PLP.ligand.clash>
0.0000

> <Gold.PLP.ligand.torsion>
0.8545

> <Gold.PLP.Chemscore.Hbond>
4.0000

> <Gold.PLP.Chemscore.CHOScore>
0.0000

> <Gold.PLP.Chemscore.Metal>
0.0000

> <Gold.Chemscore.Hbonds>
donor molecule, donor type, donor heavy atom, donor atom, acceptor molecule, acceptor atom, score
      L1  H     9    43       P1  8028  2.00
      L1  H    14    33       P1  8029  1.00
      P1  H  6934  6946       L1    13  1.00

> <Gold.PLP.Chemscore.Internal.Correction>
0.1156

> <Gold.Rescore>
     Score         DG    S(hbond)    S(metal)    S(lipo)     H(rot)  DE(clash)    DE(int)     intcor
     19.27     -20.06       2.91        0.00      89.83       2.20       0.03       0.76       ----

> <Gold.Chemscore.Fitness>
19.2731

> <Gold.Chemscore.DG>
-20.0624

> <Gold.Chemscore.ZeroCoef>
-5.4800

> <Gold.Chemscore.Hbond>
2.9077

> <Gold.Chemscore.Metal>
0.0000

> <Gold.Chemscore.Lipo>
89.8264

> <Gold.Chemscore.Internal_Hbond>
0.0000

> <Gold.Chemscore.DEClash>
0.0260

> <Gold.Chemscore.DEInternal>
0.7634

> <Gold.Chemscore.Rot>
2.2027

> <Gold.Chemscore.Internal.Correction>
   9.000000E+99

> <Gold.Chemscore.Hbonds>
donor molecule, donor type, donor heavy atom, donor atom, acceptor molecule, acceptor atom, score
      L1  H     9    43       P1  8028  0.93
      L1  H    14    33       P1  8029  0.89
      P1  H  6934  6946       L1    13  0.99

> <Gold.Chemscore.Hbond.Weighted>
-9.7117

> <Gold.Chemscore.Metal.Weighted>
-0.0000

> <Gold.Chemscore.Lipo.Weighted>
-10.5097

> <Gold.Chemscore.Internal_Hbond.Weighted>
0.0000

> <Gold.Chemscore.DEClash.Weighted>
0.0260

> <Gold.Chemscore.DEInternal.Weighted>
0.7634

> <Gold.Chemscore.Rot.Weighted>
5.6390

> <Gold.Chemscore.Internal.Correction.Weighted>
   9.000000E+99

> <Gold.Protein.RotatedTorsions>
[ 6907 6896 6895 6894 ] final -127.52 input  -60.11 | X-H torsion
[ 7974 7965 7964 7962 ] final  139.59 input  175.53 | X-H torsion
[ 8008 7997 7996 7995 ] final  146.22 input   59.86 | X-H torsion
[ 10167 10162 10161 10158 ] final   65.55 input  -65.29 | X-H torsion
[ 10718 10713 10712 10709 ] final  116.19 input   66.30 | X-H torsion
[ 10763 10752 10751 10750 ] final  129.20 input  -60.55 | X-H torsion
[ 11005 11000 10999 10996 ] final   84.13 input  -57.11 | X-H torsion

> <Gold.Protein.ActiveResidues>
 VAL166  LYS551  ARG553  GLY616  TRP617  ASP618  TYR619  PRO620  LYS621  CYS622 
 ASP623  PHE694  ASN695  SER759  ASP760  ASP761  ALA762  ILE779  LEU786  VAL792 
 PHE793  MET794  SER795  GLU796  ALA797  LYS798  CYS799  TRP800  GLU811  SER814 

> <Gold.Protein.RotatedAtoms>
  150.9082  133.7031  159.2861 H   0  0  0  0  0  0  0  0  0  0  0  0  # atno 6907 bound_to 6896
  151.4527  135.1030  159.9712 H   0  0  0  0  0  0  0  0  0  0  0  0  # atno 6908 bound_to 6896
  152.4915  133.8464  159.7234 H   0  0  0  0  0  0  0  0  0  0  0  0  # atno 6909 bound_to 6896
  144.9265  139.5101  143.5638 H   0  0  0  0  0  0  0  0  0  0  0  0  # atno 7974 bound_to 7965
  156.2861  140.2188  156.5342 H   0  0  0  0  0  0  0  0  0  0  0  0  # atno 8008 bound_to 7997
  154.7424  140.0486  157.0844 H   0  0  0  0  0  0  0  0  0  0  0  0  # atno 8009 bound_to 7997
  155.0214  140.3124  155.4795 H   0  0  0  0  0  0  0  0  0  0  0  0  # atno 8010 bound_to 7997
  140.1100  144.4826  150.6984 H   0  0  0  0  0  0  0  0  0  0  0  0  # atno 10167 bound_to 10162
  157.6176  131.1022  150.7438 H   0  0  0  0  0  0  0  0  0  0  0  0  # atno 10718 bound_to 10713
  153.7380  135.3228  155.3298 H   0  0  0  0  0  0  0  0  0  0  0  0  # atno 10763 bound_to 10752
  154.8304  135.4538  154.1055 H   0  0  0  0  0  0  0  0  0  0  0  0  # atno 10764 bound_to 10752
  153.2222  135.6949  153.8069 H   0  0  0  0  0  0  0  0  0  0  0  0  # atno 10765 bound_to 10752
  139.9009  134.8195  156.2404 H   0  0  0  0  0  0  0  0  0  0  0  0  # atno 11005 bound_to 11000
  146.3228  139.8183  142.8932 LP  0  0  0  0  0  0  0  0  0  0  0  0  # atno 17320 bound_to 7965
  145.3211  141.0244  143.3500 LP  0  0  0  0  0  0  0  0  0  0  0  0  # atno 17321 bound_to 7965
  140.6931  143.2387  151.5077 LP  0  0  0  0  0  0  0  0  0  0  0  0  # atno 17342 bound_to 10162
  139.5624  144.2124  152.1712 LP  0  0  0  0  0  0  0  0  0  0  0  0  # atno 17343 bound_to 10162
  156.7802  130.4857  149.5402 LP  0  0  0  0  0  0  0  0  0  0  0  0  # atno 17370 bound_to 10713
  156.1305  130.6174  151.0326 LP  0  0  0  0  0  0  0  0  0  0  0  0  # atno 17371 bound_to 10713
  141.0288  133.7000  156.1395 LP  0  0  0  0  0  0  0  0  0  0  0  0  # atno 17394 bound_to 11000
  140.7126  134.4445  157.5580 LP  0  0  0  0  0  0  0  0  0  0  0  0  # atno 17395 bound_to 11000

$$$$
