AV-unprocessed.smi:767|AV-procd|sdf|3657|dock3
  -GOLD-   22720 1 63D 1   1.00000     0.00000
 Structure written by MMmdl.
 47 49  0  0  0  0  0  0  0  0  1 V2000
  145.4740  136.5741  151.3512 C   0  0  0  0  0  0  0  0  0  0  0  0
  146.0880  137.7594  152.0668 C   0  0  0  0  0  0  0  0  0  0  0  0
  145.8682  137.9641  153.4453 C   0  0  0  0  0  0  0  0  0  0  0  0
  146.4646  139.0815  154.0608 C   0  0  0  0  0  0  0  0  0  0  0  0
  147.2570  139.9465  153.2785 C   0  0  0  0  0  0  0  0  0  0  0  0
  147.9261  141.1592  153.8939 C   0  0  0  0  0  0  0  0  0  0  0  0
  149.1294  140.7729  154.7687 C   0  0  0  0  0  0  0  0  0  0  0  0
  149.6542  141.9222  155.4957 N   0  0  0  0  0  0  0  0  0  0  0  0
  150.6699  141.8803  156.3688 C   0  0  0  0  0  0  0  0  0  0  0  0
  151.2840  140.8555  156.6663 O   0  0  0  0  0  0  0  0  0  0  0  0
  150.9414  143.0906  156.8733 N   0  0  0  0  0  0  0  0  0  0  0  0
  152.0092  143.3625  157.8278 C   0  0  2  0  0  0  0  0  0  0  0  0
  152.0500  142.3427  158.9662 C   0  0  1  0  0  0  0  0  0  0  0  0
  153.0137  141.2951  159.3969 C   0  0  0  0  0  0  0  0  0  0  0  0
  153.0307  141.6335  160.9118 C   0  0  0  0  0  0  0  0  0  0  0  0
  152.3427  142.9017  161.0437 O   0  0  0  0  0  0  0  0  0  0  0  0
  152.5354  143.5206  159.7883 C   0  0  2  0  0  0  0  0  0  0  0  0
  151.6145  144.4137  158.9327 C   0  0  0  0  0  0  0  0  0  0  0  0
  152.1239  145.8352  158.6929 C   0  0  0  0  0  0  0  0  0  0  0  0
  150.1410  144.5499  159.3671 C   0  0  0  0  0  0  0  0  0  0  0  0
  147.4168  139.6498  151.9083 C   0  0  0  0  0  0  0  0  0  0  0  0
  146.8476  138.5816  151.3096 N   0  0  0  0  0  0  0  0  0  0  0  0
  144.6523  136.1497  151.9287 H   0  0  0  0  0  0  0  0  0  0  0  0
  146.2232  135.7970  151.1990 H   0  0  0  0  0  0  0  0  0  0  0  0
  145.0837  136.8715  150.3772 H   0  0  0  0  0  0  0  0  0  0  0  0
  145.2576  137.2829  154.0198 H   0  0  0  0  0  0  0  0  0  0  0  0
  146.3167  139.2677  155.1146 H   0  0  0  0  0  0  0  0  0  0  0  0
  148.2396  141.8302  153.0931 H   0  0  0  0  0  0  0  0  0  0  0  0
  147.1932  141.7087  154.4863 H   0  0  0  0  0  0  0  0  0  0  0  0
  148.8306  140.0208  155.4995 H   0  0  0  0  0  0  0  0  0  0  0  0
  149.9170  140.3223  154.1620 H   0  0  0  0  0  0  0  0  0  0  0  0
  149.2151  142.8135  155.3173 H   0  0  0  0  0  0  0  0  0  0  0  0
  150.3842  143.8757  156.5695 H   0  0  0  0  0  0  0  0  0  0  0  0
  152.9882  143.5348  157.3710 H   0  0  0  0  0  0  0  0  0  0  0  0
  151.0376  142.0260  159.2285 H   0  0  0  0  0  0  0  0  0  0  0  0
  152.6593  140.2834  159.1974 H   0  0  0  0  0  0  0  0  0  0  0  0
  153.9936  141.4279  158.9359 H   0  0  0  0  0  0  0  0  0  0  0  0
  152.5153  140.8766  161.5036 H   0  0  0  0  0  0  0  0  0  0  0  0
  154.0539  141.7141  161.2808 H   0  0  0  0  0  0  0  0  0  0  0  0
  153.5940  143.7608  159.6355 H   0  0  0  0  0  0  0  0  0  0  0  0
  152.0773  146.4359  159.6017 H   0  0  0  0  0  0  0  0  0  0  0  0
  151.5395  146.3466  157.9274 H   0  0  0  0  0  0  0  0  0  0  0  0
  153.1614  145.8377  158.3577 H   0  0  0  0  0  0  0  0  0  0  0  0
  150.0577  145.1147  160.2960 H   0  0  0  0  0  0  0  0  0  0  0  0
  149.6434  143.5970  159.5377 H   0  0  0  0  0  0  0  0  0  0  0  0
  149.5536  145.0780  158.6153 H   0  0  0  0  0  0  0  0  0  0  0  0
  148.0197  140.2844  151.2756 H   0  0  0  0  0  0  0  0  0  0  0  0
  1  2  1  0  0  0  0
  1 23  1  0  0  0  0
  1 24  1  0  0  0  0
  1 25  1  0  0  0  0
  2 22  1  0  0  0  0
  2  3  2  0  0  0  0
  3  4  1  0  0  0  0
  3 26  1  0  0  0  0
  4  5  2  0  0  0  0
  4 27  1  0  0  0  0
  5  6  1  0  0  0  0
  5 21  1  0  0  0  0
  6  7  1  0  0  0  0
  6 28  1  0  0  0  0
  6 29  1  0  0  0  0
  7  8  1  0  0  0  0
  7 30  1  0  0  0  0
  7 31  1  0  0  0  0
  8  9  1  0  0  0  0
  8 32  1  0  0  0  0
  9 10  2  0  0  0  0
  9 11  1  0  0  0  0
 11 12  1  0  0  0  0
 11 33  1  0  0  0  0
 12 18  1  0  0  0  0
 12 13  1  0  0  0  0
 12 34  1  0  0  0  0
 13 17  1  0  0  0  0
 13 14  1  0  0  0  0
 13 35  1  0  0  0  0
 14 15  1  0  0  0  0
 14 36  1  0  0  0  0
 14 37  1  0  0  0  0
 15 16  1  0  0  0  0
 15 38  1  0  0  0  0
 15 39  1  0  0  0  0
 16 17  1  0  0  0  0
 17 18  1  0  0  0  0
 17 40  1  0  0  0  0
 18 19  1  0  0  0  0
 18 20  1  0  0  0  0
 19 41  1  0  0  0  0
 19 42  1  0  0  0  0
 19 43  1  0  0  0  0
 20 44  1  0  0  0  0
 20 45  1  0  0  0  0
 20 46  1  0  0  0  0
 21 22  2  0  0  0  0
 21 47  1  0  0  0  0
M  END
> <s_m_source_file>
AV-unprocessed.smi

> <i_m_source_file_index>
767

> <i_lp_mmshare_version>
43012

> <i_f3d_flags>
0

> <s_epik_input>
W0NIM11jMVtjSF1bY0hdYyhbY0hdbjEpW0NIMl1bQ0gyXVtOSF1DKD1PKVtOSF1bQ0BIXTJDKFtDSDNdKShbQ0gzXSlbQ0BIXShbQ0BASF0yMylPW0NIMl1bQ0gyXTM=

> <s_epik_cmdline>
J2VwaWtfcHl0aG9uJywgJy1waCcsICc3LjAnLCAnLXRuJywgJzgnLCAnLW1hJywgJzIwMCcsICctbWV0YWxfYmluZGluZycsICctaW1hZScsICc8aW5maWxlLm1hZT4nLCAnLW9tYWUnLCAnPG91dGZpbGUubWFlPic=

> <r_epik_Ionization_Penalty>
0.0567523

> <r_epik_Ionization_Penalty_Charging>
0

> <r_epik_Ionization_Penalty_Neutral>
0.0567523

> <r_epik_State_Penalty>
0.0489186

> <r_epik_Charging_Adjusted_Penalty>
0.0489186

> <i_epik_Tot_Q>
0

> <i_epik_Tot_abs_Q>
0

> <r_epik_Metal_State_Penalty>
0.044622

> <b_epik_Metal_Only>
0

> <s_lp_Force_Field>
OPLS_2005

> <r_lp_Energy>
54.5337

> <b_lp_Chiralities_Consistent>
1

> <s_lp_Variant>
AV-unprocessed.smi:767-1

> <Gold.Version>
5.8.1

> <Gold.Id.Protein>
6NUR|6NUR_protein|mol2

> <Gold.PLP.Fitness>
52.3882

> <Gold.PLP.PLP>
-43.4413

> <Gold.PLP.part.hbond>
-3.0000

> <Gold.PLP.part.metal>
0.0000

> <Gold.PLP.part.buried>
1.1497

> <Gold.PLP.part.nonpolar>
-42.7014

> <Gold.PLP.part.repulsive>
1.1266

> <Gold.PLP.ligand.clash>
0.0000

> <Gold.PLP.ligand.torsion>
0.4219

> <Gold.PLP.Chemscore.Hbond>
2.8866

> <Gold.PLP.Chemscore.CHOScore>
0.2857

> <Gold.PLP.Chemscore.Metal>
0.0000

> <Gold.Chemscore.Hbonds>
donor molecule, donor type, donor heavy atom, donor atom, acceptor molecule, acceptor atom, score
      L1  H     8    32       P1  8028  1.00
      L1  H    11    33       P1  8028  1.00
      P1  H  7954  7966       L1    22  0.93

> <Gold.PLP.Chemscore.Internal.Correction>
0.2737

> <Gold.Rescore>
     Score         DG    S(hbond)    S(metal)    S(lipo)     H(rot)  DE(clash)    DE(int)     intcor
     21.24     -25.62       2.40        0.00     135.25       1.45       2.83       1.55       ----

> <Gold.Chemscore.Fitness>
21.2393

> <Gold.Chemscore.DG>
-25.6207

> <Gold.Chemscore.ZeroCoef>
-5.4800

> <Gold.Chemscore.Hbond>
2.4036

> <Gold.Chemscore.Metal>
0.0000

> <Gold.Chemscore.Lipo>
135.2479

> <Gold.Chemscore.Internal_Hbond>
0.0000

> <Gold.Chemscore.DEClash>
2.8347

> <Gold.Chemscore.DEInternal>
1.5468

> <Gold.Chemscore.Rot>
1.4497

> <Gold.Chemscore.Internal.Correction>
   9.000000E+99

> <Gold.Chemscore.Hbonds>
donor molecule, donor type, donor heavy atom, donor atom, acceptor molecule, acceptor atom, score
      L1  H     8    32       P1  8028  0.97
      L1  H    11    33       P1  8028  0.98
      P1  H  7954  7966       L1    22  0.56

> <Gold.Chemscore.Hbond.Weighted>
-8.0280

> <Gold.Chemscore.Metal.Weighted>
-0.0000

> <Gold.Chemscore.Lipo.Weighted>
-15.8240

> <Gold.Chemscore.Internal_Hbond.Weighted>
0.0000

> <Gold.Chemscore.DEClash.Weighted>
2.8347

> <Gold.Chemscore.DEInternal.Weighted>
1.5468

> <Gold.Chemscore.Rot.Weighted>
3.7112

> <Gold.Chemscore.Internal.Correction.Weighted>
   9.000000E+99

> <Gold.Protein.RotatedTorsions>
[ 6907 6896 6895 6894 ] final  -28.13 input  -60.11 | X-H torsion
[ 7974 7965 7964 7962 ] final   -7.71 input  175.53 | X-H torsion
[ 8008 7997 7996 7995 ] final -155.98 input   59.86 | X-H torsion
[ 10167 10162 10161 10158 ] final   76.04 input  -65.29 | X-H torsion
[ 10718 10713 10712 10709 ] final  150.71 input   66.30 | X-H torsion
[ 10763 10752 10751 10750 ] final  -88.89 input  -60.55 | X-H torsion
[ 11005 11000 10999 10996 ] final   89.70 input  -57.11 | X-H torsion

> <Gold.Protein.ActiveResidues>
 VAL166  LYS551  ARG553  GLY616  TRP617  ASP618  TYR619  PRO620  LYS621  CYS622 
 ASP623  PHE694  ASN695  SER759  ASP760  ASP761  ALA762  ILE779  LEU786  VAL792 
 PHE793  MET794  SER795  GLU796  ALA797  LYS798  CYS799  TRP800  GLU811  SER814 

> <Gold.Protein.RotatedAtoms>
  151.1373  135.0161  159.8609 H   0  0  0  0  0  0  0  0  0  0  0  0  # atno 6907 bound_to 6896
  152.5452  134.1540  159.8540 H   0  0  0  0  0  0  0  0  0  0  0  0  # atno 6908 bound_to 6896
  151.1612  133.4798  159.2627 H   0  0  0  0  0  0  0  0  0  0  0  0  # atno 6909 bound_to 6896
  146.2300  140.2360  142.8342 H   0  0  0  0  0  0  0  0  0  0  0  0  # atno 7974 bound_to 7965
  155.7102  140.0777  157.2374 H   0  0  0  0  0  0  0  0  0  0  0  0  # atno 8008 bound_to 7997
  154.4059  140.1631  156.2341 H   0  0  0  0  0  0  0  0  0  0  0  0  # atno 8009 bound_to 7997
  155.9290  140.3392  155.6236 H   0  0  0  0  0  0  0  0  0  0  0  0  # atno 8010 bound_to 7997
  139.9965  144.5718  150.7773 H   0  0  0  0  0  0  0  0  0  0  0  0  # atno 10167 bound_to 10162
  157.2800  131.0833  151.1539 H   0  0  0  0  0  0  0  0  0  0  0  0  # atno 10718 bound_to 10713
  154.6494  135.5361  153.7883 H   0  0  0  0  0  0  0  0  0  0  0  0  # atno 10763 bound_to 10752
  153.0377  135.6478  154.1040 H   0  0  0  0  0  0  0  0  0  0  0  0  # atno 10764 bound_to 10752
  154.0958  135.2936  155.3242 H   0  0  0  0  0  0  0  0  0  0  0  0  # atno 10765 bound_to 10752
  139.8870  134.8568  156.3180 H   0  0  0  0  0  0  0  0  0  0  0  0  # atno 11005 bound_to 11000
  144.9521  140.8189  143.5565 LP  0  0  0  0  0  0  0  0  0  0  0  0  # atno 17320 bound_to 7965
  145.2321  139.2110  143.5037 LP  0  0  0  0  0  0  0  0  0  0  0  0  # atno 17321 bound_to 7965
  140.7435  143.2847  151.3497 LP  0  0  0  0  0  0  0  0  0  0  0  0  # atno 17342 bound_to 10162
  139.6302  144.0735  152.2470 LP  0  0  0  0  0  0  0  0  0  0  0  0  # atno 17343 bound_to 10162
  157.2977  130.6827  149.6147 LP  0  0  0  0  0  0  0  0  0  0  0  0  # atno 17370 bound_to 10713
  155.9664  130.4401  150.5288 LP  0  0  0  0  0  0  0  0  0  0  0  0  # atno 17371 bound_to 10713
  140.9806  133.7270  156.0666 LP  0  0  0  0  0  0  0  0  0  0  0  0  # atno 17394 bound_to 11000
  140.7754  134.3785  157.5499 LP  0  0  0  0  0  0  0  0  0  0  0  0  # atno 17395 bound_to 11000

$$$$
