AV-unprocessed.smi:3225|AV-procd|sdf|12312|dock1
  -GOLD-   2272018153D 1   1.00000     0.00000
 Structure written by MMmdl.
 41 42  0  0  0  0  0  0  0  0  2 V2000
  143.8829  136.8334  152.5869 C   0  0  0  0  0  0  0  0  0  0  0  0
  145.2540  136.3296  152.1072 C   0  0  1  0  0  0  0  0  0  0  0  0
  145.1944  135.6483  150.7247 C   0  0  0  0  0  0  0  0  0  0  0  0
  145.2339  134.1990  150.8042 N   0  0  0  0  0  0  0  0  0  0  0  0
  144.2476  133.2926  150.4748 C   0  0  0  0  0  0  0  0  0  0  0  0
  144.7485  132.0446  150.7106 C   0  0  0  0  0  0  0  0  0  0  0  0
  146.0682  132.2926  151.1818 C   0  0  0  0  0  0  0  0  0  0  0  0
  146.3561  133.5832  151.2347 N   0  0  0  0  0  0  0  0  0  0  0  0
  146.2160  137.4527  152.0699 N   0  3  0  0  0  0  0  0  0  0  0  0
  146.2693  138.2619  153.3039 C   0  0  0  0  0  0  0  0  0  0  0  0
  147.6353  138.9413  153.4611 C   0  0  0  0  0  0  0  0  0  0  0  0
  147.5148  140.4686  153.5970 C   0  0  0  0  0  0  0  0  0  0  0  0
  148.3155  140.9773  154.7078 N   0  0  0  0  0  0  0  0  0  0  0  0
  147.6973  141.7338  155.7841 C   0  0  0  0  0  0  0  0  0  0  0  0
  148.8072  141.9344  156.8270 C   0  0  0  0  0  0  0  0  0  0  0  0
  150.1074  141.4770  156.1563 C   0  0  0  0  0  0  0  0  0  0  0  0
  149.6327  140.8119  154.8762 C   0  0  0  0  0  0  0  0  0  0  0  0
  150.3899  140.2109  154.1154 O   0  0  0  0  0  0  0  0  0  0  0  0
  143.1720  136.0140  152.6975 H   0  0  0  0  0  0  0  0  0  0  0  0
  143.4564  137.5520  151.8864 H   0  0  0  0  0  0  0  0  0  0  0  0
  143.9637  137.3224  153.5584 H   0  0  0  0  0  0  0  0  0  0  0  0
  145.6013  135.5916  152.8326 H   0  0  0  0  0  0  0  0  0  0  0  0
  144.2833  135.9386  150.1991 H   0  0  0  0  0  0  0  0  0  0  0  0
  146.0297  135.9772  150.1047 H   0  0  0  0  0  0  0  0  0  0  0  0
  143.2818  133.6065  150.1070 H   0  0  0  0  0  0  0  0  0  0  0  0
  144.2491  131.0979  150.5661 H   0  0  0  0  0  0  0  0  0  0  0  0
  146.8202  131.5784  151.4836 H   0  0  0  0  0  0  0  0  0  0  0  0
  147.1371  137.0768  151.8947 H   0  0  0  0  0  0  0  0  0  0  0  0
  145.4804  139.0147  153.2726 H   0  0  0  0  0  0  0  0  0  0  0  0
  146.0721  137.6180  154.1623 H   0  0  0  0  0  0  0  0  0  0  0  0
  148.1425  138.5313  154.3357 H   0  0  0  0  0  0  0  0  0  0  0  0
  148.2623  138.7040  152.6002 H   0  0  0  0  0  0  0  0  0  0  0  0
  147.8334  140.9502  152.6717 H   0  0  0  0  0  0  0  0  0  0  0  0
  146.4717  140.7526  153.7460 H   0  0  0  0  0  0  0  0  0  0  0  0
  147.3433  142.6903  155.3974 H   0  0  0  0  0  0  0  0  0  0  0  0
  146.8454  141.1982  156.2050 H   0  0  0  0  0  0  0  0  0  0  0  0
  148.8659  142.9734  157.1529 H   0  0  0  0  0  0  0  0  0  0  0  0
  148.6089  141.3263  157.7104 H   0  0  0  0  0  0  0  0  0  0  0  0
  150.7501  142.3232  155.9117 H   0  0  0  0  0  0  0  0  0  0  0  0
  150.6675  140.7795  156.7798 H   0  0  0  0  0  0  0  0  0  0  0  0
  145.9670  138.0593  151.3016 H   0  0  0  0  0  0  0  0  0  0  0  0
  1  2  1  0  0  0  0
  1 19  1  0  0  0  0
  1 20  1  0  0  0  0
  1 21  1  0  0  0  0
  2  3  1  0  0  0  0
  2  9  1  0  0  0  0
  2 22  1  0  0  0  0
  3  4  1  0  0  0  0
  3 23  1  0  0  0  0
  3 24  1  0  0  0  0
  4  8  1  0  0  0  0
  4  5  1  0  0  0  0
  5  6  2  0  0  0  0
  5 25  1  0  0  0  0
  6  7  1  0  0  0  0
  6 26  1  0  0  0  0
  7  8  2  0  0  0  0
  7 27  1  0  0  0  0
  9 10  1  0  0  0  0
  9 28  1  0  0  0  0
  9 41  1  0  0  0  0
 10 11  1  0  0  0  0
 10 29  1  0  0  0  0
 10 30  1  0  0  0  0
 11 12  1  0  0  0  0
 11 31  1  0  0  0  0
 11 32  1  0  0  0  0
 12 13  1  0  0  0  0
 12 33  1  0  0  0  0
 12 34  1  0  0  0  0
 13 17  1  0  0  0  0
 13 14  1  0  0  0  0
 14 15  1  0  0  0  0
 14 35  1  0  0  0  0
 14 36  1  0  0  0  0
 15 16  1  0  0  0  0
 15 37  1  0  0  0  0
 15 38  1  0  0  0  0
 16 17  1  0  0  0  0
 16 39  1  0  0  0  0
 16 40  1  0  0  0  0
 17 18  2  0  0  0  0
M  CHG  1   9   1
M  END
> <s_m_source_file>
AV-unprocessed.smi

> <i_m_source_file_index>
3225

> <i_lp_mmshare_version>
43012

> <i_f3d_flags>
0

> <s_epik_input>
bjFbY0hdW2NIXVtjSF1uMVtDSDJdW0NAQEhdKFtDSDNdKVtOSF1bQ0gyXVtDSDJdW0NIMl1OMltDSDJdW0NIMl1bQ0gyXUMyPU8=

> <s_epik_cmdline>
J2VwaWtfcHl0aG9uJywgJy1waCcsICc3LjAnLCAnLXRuJywgJzgnLCAnLW1hJywgJzIwMCcsICctbWV0YWxfYmluZGluZycsICctaW1hZScsICc8aW5maWxlLm1hZT4nLCAnLW9tYWUnLCAnPG91dGZpbGUubWFlPic=

> <r_lp_tautomer_probability>
1

> <r_epik_Ionization_Penalty>
0.00490443

> <r_epik_Ionization_Penalty_Charging>
0.00490019

> <r_epik_Ionization_Penalty_Neutral>
4.24076e-06

> <r_epik_State_Penalty>
0.00355741

> <r_epik_Charging_Adjusted_Penalty>
0.0084576

> <i_epik_Tot_Q>
1

> <i_epik_Tot_abs_Q>
1

> <r_epik_Metal_State_Penalty>
-0

> <b_epik_Metal_Only>
0

> <s_lp_Force_Field>
OPLS_2005

> <r_lp_Energy>
22.636

> <b_lp_Chiralities_Consistent>
1

> <s_lp_Variant>
AV-unprocessed.smi:3225-2

> <Gold.Version>
5.8.1

> <Gold.Id.Protein>
6NUR|6NUR_protein|mol2

> <Gold.PLP.Fitness>
45.9937

> <Gold.PLP.PLP>
-34.0642

> <Gold.PLP.part.hbond>
-1.7807

> <Gold.PLP.part.metal>
0.0000

> <Gold.PLP.part.buried>
-3.6468

> <Gold.PLP.part.nonpolar>
-29.3221

> <Gold.PLP.part.repulsive>
0.8366

> <Gold.PLP.ligand.clash>
0.0000

> <Gold.PLP.ligand.torsion>
1.5648

> <Gold.PLP.Chemscore.Hbond>
3.0000

> <Gold.PLP.Chemscore.CHOScore>
2.0000

> <Gold.PLP.Chemscore.Metal>
0.0000

> <Gold.Chemscore.Hbonds>
donor molecule, donor type, donor heavy atom, donor atom, acceptor molecule, acceptor atom, score
      L1  H     9    28       P1  7948  2.00
      P1  H  7989  7998       L1    18  0.99
      L1  C     5    25       P1 10186  1.00
      L1  C     7    27       P1 10747  0.88

> <Gold.PLP.Chemscore.Internal.Correction>
0.0591

> <Gold.Rescore>
     Score         DG    S(hbond)    S(metal)    S(lipo)     H(rot)  DE(clash)    DE(int)     intcor
     13.44     -14.88       1.98        0.00      71.74       2.19       0.01       1.43       ----

> <Gold.Chemscore.Fitness>
13.4407

> <Gold.Chemscore.DG>
-14.8802

> <Gold.Chemscore.ZeroCoef>
-5.4800

> <Gold.Chemscore.Hbond>
1.9787

> <Gold.Chemscore.Metal>
0.0000

> <Gold.Chemscore.Lipo>
71.7407

> <Gold.Chemscore.Internal_Hbond>
0.0000

> <Gold.Chemscore.DEClash>
0.0107

> <Gold.Chemscore.DEInternal>
1.4287

> <Gold.Chemscore.Rot>
2.1884

> <Gold.Chemscore.Internal.Correction>
   9.000000E+99

> <Gold.Chemscore.Hbonds>
donor molecule, donor type, donor heavy atom, donor atom, acceptor molecule, acceptor atom, score
      L1  H     9    28       P1  7948  0.97
      P1  H  7989  7998       L1    18  0.87

> <Gold.Chemscore.Hbond.Weighted>
-6.6088

> <Gold.Chemscore.Metal.Weighted>
-0.0000

> <Gold.Chemscore.Lipo.Weighted>
-8.3937

> <Gold.Chemscore.Internal_Hbond.Weighted>
0.0000

> <Gold.Chemscore.DEClash.Weighted>
0.0107

> <Gold.Chemscore.DEInternal.Weighted>
1.4287

> <Gold.Chemscore.Rot.Weighted>
5.6023

> <Gold.Chemscore.Internal.Correction.Weighted>
   9.000000E+99

> <Gold.Protein.RotatedTorsions>
[ 6907 6896 6895 6894 ] final  -22.44 input  -60.11 | X-H torsion
[ 7974 7965 7964 7962 ] final -138.39 input  175.53 | X-H torsion
[ 8008 7997 7996 7995 ] final   83.44 input   59.86 | X-H torsion
[ 10167 10162 10161 10158 ] final  167.98 input  -65.29 | X-H torsion
[ 10718 10713 10712 10709 ] final   48.63 input   66.30 | X-H torsion
[ 10763 10752 10751 10750 ] final  -78.78 input  -60.55 | X-H torsion
[ 11005 11000 10999 10996 ] final -141.08 input  -57.11 | X-H torsion

> <Gold.Protein.ActiveResidues>
 VAL166  LYS551  ARG553  GLY616  TRP617  ASP618  TYR619  PRO620  LYS621  CYS622 
 ASP623  PHE694  ASN695  SER759  ASP760  ASP761  ALA762  ILE779  LEU786  VAL792 
 PHE793  MET794  SER795  GLU796  ALA797  LYS798  CYS799  TRP800  GLU811  SER814 

> <Gold.Protein.RotatedAtoms>
  151.2185  135.0509  159.8939 H   0  0  0  0  0  0  0  0  0  0  0  0  # atno 6907 bound_to 6896
  152.5418  134.0666  159.8186 H   0  0  0  0  0  0  0  0  0  0  0  0  # atno 6908 bound_to 6896
  151.0829  133.5327  159.2651 H   0  0  0  0  0  0  0  0  0  0  0  0  # atno 6909 bound_to 6896
  144.8762  140.6440  143.5235 H   0  0  0  0  0  0  0  0  0  0  0  0  # atno 7974 bound_to 7965
  155.9239  140.3419  155.6195 H   0  0  0  0  0  0  0  0  0  0  0  0  # atno 8008 bound_to 7997
  155.7239  140.0787  157.2337 H   0  0  0  0  0  0  0  0  0  0  0  0  # atno 8009 bound_to 7997
  154.4074  140.1600  156.2421 H   0  0  0  0  0  0  0  0  0  0  0  0  # atno 8010 bound_to 7997
  139.4957  144.3863  151.9567 H   0  0  0  0  0  0  0  0  0  0  0  0  # atno 10167 bound_to 10162
  157.4706  130.8253  149.7984 H   0  0  0  0  0  0  0  0  0  0  0  0  # atno 10718 bound_to 10713
  154.5302  135.5718  153.6753 H   0  0  0  0  0  0  0  0  0  0  0  0  # atno 10763 bound_to 10752
  152.9937  135.6203  154.2638 H   0  0  0  0  0  0  0  0  0  0  0  0  # atno 10764 bound_to 10752
  154.2564  135.2857  155.2775 H   0  0  0  0  0  0  0  0  0  0  0  0  # atno 10765 bound_to 10752
  140.8359  134.2460  157.4834 H   0  0  0  0  0  0  0  0  0  0  0  0  # atno 11005 bound_to 11000
  145.4038  139.1592  143.4163 LP  0  0  0  0  0  0  0  0  0  0  0  0  # atno 17320 bound_to 7965
  146.2964  140.4137  142.8720 LP  0  0  0  0  0  0  0  0  0  0  0  0  # atno 17321 bound_to 7965
  140.3300  144.3327  150.5989 LP  0  0  0  0  0  0  0  0  0  0  0  0  # atno 17342 bound_to 10162
  140.5653  143.2187  151.7695 LP  0  0  0  0  0  0  0  0  0  0  0  0  # atno 17343 bound_to 10162
  156.0071  130.3850  150.2391 LP  0  0  0  0  0  0  0  0  0  0  0  0  # atno 17370 bound_to 10713
  157.0574  131.0080  151.3234 LP  0  0  0  0  0  0  0  0  0  0  0  0  # atno 17371 bound_to 10713
  139.8704  134.9610  156.4383 LP  0  0  0  0  0  0  0  0  0  0  0  0  # atno 17394 bound_to 11000
  140.8948  133.7822  155.9612 LP  0  0  0  0  0  0  0  0  0  0  0  0  # atno 17395 bound_to 11000

$$$$
