AV-unprocessed.smi:915|AV-procd|sdf|4157|dock3
  -GOLD-   22720 2 63D 1   1.00000     0.00000
 Structure written by MMmdl.
 33 34  0  0  0  0  0  0  0  0  2 V2000
  145.2259  143.1355  155.1199 C   0  0  0  0  0  0  0  0  0  0  0  0
  146.0633  142.4628  156.2134 C   0  0  0  0  0  0  0  0  0  0  0  0
  147.0255  141.4584  155.6560 C   0  0  0  0  0  0  0  0  0  0  0  0
  146.7216  140.2597  155.0685 C   0  0  0  0  0  0  0  0  0  0  0  0
  148.1555  139.4102  154.5701 S   0  0  0  0  0  0  0  0  0  0  0  0
  149.1562  140.7279  155.1853 C   0  0  0  0  0  0  0  0  0  0  0  0
  150.5056  140.6985  155.1115 N   0  5  0  0  0  0  0  0  0  0  0  0
  151.3462  140.5236  156.1631 C   0  0  0  0  0  0  0  0  0  0  0  0
  152.3291  139.7819  156.2240 O   0  0  0  0  0  0  0  0  0  0  0  0
  151.0205  141.2688  157.2274 N   0  0  0  0  0  0  0  0  0  0  0  0
  151.7470  141.2923  158.4910 C   0  0  0  0  0  0  0  0  0  0  0  0
  152.4033  142.6619  158.7284 C   0  0  1  0  0  0  0  0  0  0  0  0
  151.5082  143.8310  158.2955 C   0  0  0  0  0  0  0  0  0  0  0  0
  151.9885  145.0676  159.0558 C   0  0  0  0  0  0  0  0  0  0  0  0
  152.1819  144.6302  160.5077 C   0  0  0  0  0  0  0  0  0  0  0  0
  152.8218  142.9371  160.4765 S   0  0  0  0  0  0  0  0  0  0  0  0
  148.3988  141.7044  155.7108 N   0  0  0  0  0  0  0  0  0  0  0  0
  144.5343  143.8597  155.5503 H   0  0  0  0  0  0  0  0  0  0  0  0
  144.6383  142.4014  154.5676 H   0  0  0  0  0  0  0  0  0  0  0  0
  145.8606  143.6625  154.4071 H   0  0  0  0  0  0  0  0  0  0  0  0
  146.6029  143.2280  156.7721 H   0  0  0  0  0  0  0  0  0  0  0  0
  145.3979  141.9817  156.9310 H   0  0  0  0  0  0  0  0  0  0  0  0
  145.7483  139.8248  154.8996 H   0  0  0  0  0  0  0  0  0  0  0  0
  150.2145  141.8713  157.1488 H   0  0  0  0  0  0  0  0  0  0  0  0
  151.0503  141.0713  159.3011 H   0  0  0  0  0  0  0  0  0  0  0  0
  152.5027  140.5051  158.4932 H   0  0  0  0  0  0  0  0  0  0  0  0
  153.3362  142.7209  158.1659 H   0  0  0  0  0  0  0  0  0  0  0  0
  151.5381  143.9823  157.2159 H   0  0  0  0  0  0  0  0  0  0  0  0
  150.4707  143.6269  158.5640 H   0  0  0  0  0  0  0  0  0  0  0  0
  152.9406  145.4038  158.6433 H   0  0  0  0  0  0  0  0  0  0  0  0
  151.2857  145.8968  158.9729 H   0  0  0  0  0  0  0  0  0  0  0  0
  152.8517  145.2943  161.0543 H   0  0  0  0  0  0  0  0  0  0  0  0
  151.2227  144.6214  161.0264 H   0  0  0  0  0  0  0  0  0  0  0  0
  1  2  1  0  0  0  0
  1 18  1  0  0  0  0
  1 19  1  0  0  0  0
  1 20  1  0  0  0  0
  2  3  1  0  0  0  0
  2 21  1  0  0  0  0
  2 22  1  0  0  0  0
  3 17  1  0  0  0  0
  3  4  2  0  0  0  0
  4  5  1  0  0  0  0
  4 23  1  0  0  0  0
  5  6  1  0  0  0  0
  6  7  1  0  0  0  0
  6 17  2  0  0  0  0
  7  8  1  0  0  0  0
  8  9  2  0  0  0  0
  8 10  1  0  0  0  0
 10 11  1  0  0  0  0
 10 24  1  0  0  0  0
 11 12  1  0  0  0  0
 11 25  1  0  0  0  0
 11 26  1  0  0  0  0
 12 16  1  0  0  0  0
 12 13  1  0  0  0  0
 12 27  1  0  0  0  0
 13 14  1  0  0  0  0
 13 28  1  0  0  0  0
 13 29  1  0  0  0  0
 14 15  1  0  0  0  0
 14 30  1  0  0  0  0
 14 31  1  0  0  0  0
 15 16  1  0  0  0  0
 15 32  1  0  0  0  0
 15 33  1  0  0  0  0
M  CHG  1   7  -1
M  END
> <s_m_source_file>
AV-unprocessed.smi

> <i_m_source_file_index>
915

> <i_lp_mmshare_version>
43012

> <i_f3d_flags>
0

> <s_epik_input>
W0NIM11bQ0gyXWMxW2NIXXNjKG4xKVtOSF1DKD1PKVtOSF1bQ0gyXVtDQEBIXTJbQ0gyXVtDSDJdW0NIMl1TMg==

> <s_epik_cmdline>
J2VwaWtfcHl0aG9uJywgJy1waCcsICc3LjAnLCAnLXRuJywgJzgnLCAnLW1hJywgJzIwMCcsICctbWV0YWxfYmluZGluZycsICctaW1hZScsICc8aW5maWxlLm1hZT4nLCAnLW9tYWUnLCAnPG91dGZpbGUubWFlPic=

> <r_lp_tautomer_probability>
0.999

> <r_epik_Ionization_Penalty>
8.73043

> <r_epik_Ionization_Penalty_Charging>
6.79141

> <r_epik_Ionization_Penalty_Neutral>
1.93902

> <r_epik_State_Penalty>
6.79158

> <r_epik_Charging_Adjusted_Penalty>
13.583

> <i_epik_Tot_Q>
-1

> <i_epik_Tot_abs_Q>
1

> <r_epik_Metal_State_Penalty>
2.71141

> <b_epik_Metal_Only>
1

> <s_lp_Force_Field>
OPLS_2005

> <r_lp_Energy>
9.1846

> <b_lp_Chiralities_Consistent>
1

> <s_lp_Variant>
AV-unprocessed.smi:915-4

> <Gold.Version>
5.8.1

> <Gold.Id.Protein>
6NUR|6NUR_protein|mol2

> <Gold.PLP.Fitness>
45.1142

> <Gold.PLP.PLP>
-41.7390

> <Gold.PLP.part.hbond>
-1.9820

> <Gold.PLP.part.metal>
0.0000

> <Gold.PLP.part.buried>
-3.8306

> <Gold.PLP.part.nonpolar>
-35.0672

> <Gold.PLP.part.repulsive>
0.5321

> <Gold.PLP.ligand.clash>
0.0000

> <Gold.PLP.ligand.torsion>
1.3268

> <Gold.PLP.Chemscore.Hbond>
2.0000

> <Gold.PLP.Chemscore.CHOScore>
0.0000

> <Gold.PLP.Chemscore.Metal>
0.0000

> <Gold.Chemscore.Hbonds>
donor molecule, donor type, donor heavy atom, donor atom, acceptor molecule, acceptor atom, score
      P1  H  7989  7998       L1     7  0.90
      P1  H  7997  8010       L1     9  0.94

> <Gold.PLP.Chemscore.Internal.Correction>
0.0288

> <Gold.Rescore>
     Score         DG    S(hbond)    S(metal)    S(lipo)     H(rot)  DE(clash)    DE(int)     intcor
     17.36     -19.03       1.73        0.00      95.61       1.33       0.14       1.53       ----

> <Gold.Chemscore.Fitness>
17.3619

> <Gold.Chemscore.DG>
-19.0341

> <Gold.Chemscore.ZeroCoef>
-5.4800

> <Gold.Chemscore.Hbond>
1.7288

> <Gold.Chemscore.Metal>
0.0000

> <Gold.Chemscore.Lipo>
95.6065

> <Gold.Chemscore.Internal_Hbond>
0.0000

> <Gold.Chemscore.DEClash>
0.1410

> <Gold.Chemscore.DEInternal>
1.5313

> <Gold.Chemscore.Rot>
1.3305

> <Gold.Chemscore.Internal.Correction>
   9.000000E+99

> <Gold.Chemscore.Hbonds>
donor molecule, donor type, donor heavy atom, donor atom, acceptor molecule, acceptor atom, score
      P1  H  7989  7998       L1     7  0.52
      P1  H  7997  8010       L1     9  0.90

> <Gold.Chemscore.Hbond.Weighted>
-5.7742

> <Gold.Chemscore.Metal.Weighted>
-0.0000

> <Gold.Chemscore.Lipo.Weighted>
-11.1860

> <Gold.Chemscore.Internal_Hbond.Weighted>
0.0000

> <Gold.Chemscore.DEClash.Weighted>
0.1410

> <Gold.Chemscore.DEInternal.Weighted>
1.5313

> <Gold.Chemscore.Rot.Weighted>
3.4060

> <Gold.Chemscore.Internal.Correction.Weighted>
   9.000000E+99

> <Gold.Protein.RotatedTorsions>
[ 6907 6896 6895 6894 ] final  112.62 input  -60.11 | X-H torsion
[ 7974 7965 7964 7962 ] final  -36.99 input  175.53 | X-H torsion
[ 8008 7997 7996 7995 ] final   68.13 input   59.86 | X-H torsion
[ 10167 10162 10161 10158 ] final   21.57 input  -65.29 | X-H torsion
[ 10718 10713 10712 10709 ] final -109.75 input   66.30 | X-H torsion
[ 10763 10752 10751 10750 ] final  110.10 input  -60.55 | X-H torsion
[ 11005 11000 10999 10996 ] final  -88.43 input  -57.11 | X-H torsion

> <Gold.Protein.ActiveResidues>
 VAL166  LYS551  ARG553  GLY616  TRP617  ASP618  TYR619  PRO620  LYS621  CYS622 
 ASP623  PHE694  ASN695  SER759  ASP760  ASP761  ALA762  ILE779  LEU786  VAL792 
 PHE793  MET794  SER795  GLU796  ALA797  LYS798  CYS799  TRP800  GLU811  SER814 

> <Gold.Protein.RotatedAtoms>
  152.4906  133.8491  159.7191 H   0  0  0  0  0  0  0  0  0  0  0  0  # atno 6907 bound_to 6896
  150.9033  133.7081  159.2880 H   0  0  0  0  0  0  0  0  0  0  0  0  # atno 6908 bound_to 6896
  151.4515  135.1034  159.9751 H   0  0  0  0  0  0  0  0  0  0  0  0  # atno 6909 bound_to 6896
  146.0614  140.6343  142.8995 H   0  0  0  0  0  0  0  0  0  0  0  0  # atno 7974 bound_to 7965
  155.7036  140.3495  155.4943 H   0  0  0  0  0  0  0  0  0  0  0  0  # atno 8008 bound_to 7997
  155.9419  140.1103  157.1071 H   0  0  0  0  0  0  0  0  0  0  0  0  # atno 8009 bound_to 7997
  154.4104  140.1211  156.4924 H   0  0  0  0  0  0  0  0  0  0  0  0  # atno 8010 bound_to 7997
  140.5416  143.9667  150.6522 H   0  0  0  0  0  0  0  0  0  0  0  0  # atno 10167 bound_to 10162
  156.0553  130.5780  150.8142 H   0  0  0  0  0  0  0  0  0  0  0  0  # atno 10718 bound_to 10713
  153.4442  135.3759  155.2246 H   0  0  0  0  0  0  0  0  0  0  0  0  # atno 10763 bound_to 10752
  154.8755  135.3870  154.4116 H   0  0  0  0  0  0  0  0  0  0  0  0  # atno 10764 bound_to 10752
  153.4666  135.7087  153.6082 H   0  0  0  0  0  0  0  0  0  0  0  0  # atno 10765 bound_to 10752
  141.1602  133.7569  156.9450 H   0  0  0  0  0  0  0  0  0  0  0  0  # atno 11005 bound_to 11000
  144.7177  140.4266  143.7032 LP  0  0  0  0  0  0  0  0  0  0  0  0  # atno 17320 bound_to 7965
  145.6554  139.1572  143.2838 LP  0  0  0  0  0  0  0  0  0  0  0  0  # atno 17321 bound_to 7965
  140.3069  143.3223  152.0917 LP  0  0  0  0  0  0  0  0  0  0  0  0  # atno 17342 bound_to 10162
  139.4991  144.6661  151.6353 LP  0  0  0  0  0  0  0  0  0  0  0  0  # atno 17343 bound_to 10162
  157.5518  131.0944  150.9685 LP  0  0  0  0  0  0  0  0  0  0  0  0  # atno 17370 bound_to 10713
  156.9943  130.5575  149.5306 LP  0  0  0  0  0  0  0  0  0  0  0  0  # atno 17371 bound_to 10713
  140.1296  134.9365  157.2318 LP  0  0  0  0  0  0  0  0  0  0  0  0  # atno 17394 bound_to 11000
  140.2970  134.3175  155.7300 LP  0  0  0  0  0  0  0  0  0  0  0  0  # atno 17395 bound_to 11000

$$$$
