AV-unprocessed.smi:992|AV-procd|sdf|4333|dock2
  -GOLD-   22720 2233D 1   1.00000     0.00000
 Structure written by MMmdl.
 33 34  0  0  0  0  0  0  0  0  2 V2000
  152.2239  145.4262  158.7203 C   0  0  0  0  0  0  0  0  0  0  0  0
  151.7573  143.9849  158.9503 C   0  0  1  0  0  0  0  0  0  0  0  0
  151.3345  143.2960  157.6389 C   0  0  0  0  0  0  0  0  0  0  0  0
  150.9911  141.9032  157.8937 N   0  0  0  0  0  0  0  0  0  0  0  0
  150.4992  141.2427  156.7603 C   0  0  0  0  0  0  0  0  0  0  0  0
  150.9227  139.9518  156.3653 C   0  0  0  0  0  0  0  0  0  0  0  0
  150.3702  139.3677  155.2069 C   0  0  0  0  0  0  0  0  0  0  0  0
  149.4065  140.0822  154.4649 C   0  0  0  0  0  0  0  0  0  0  0  0
  148.8441  139.5291  153.3163 N   0  0  0  0  0  0  0  0  0  0  0  0
  149.0204  141.3658  154.9026 C   0  0  0  0  0  0  0  0  0  0  0  0
  149.5736  141.8904  156.0180 N   0  3  0  0  0  0  0  0  0  0  0  0
  152.0652  141.1783  158.5604 C   0  0  0  0  0  0  0  0  0  0  0  0
  152.4721  141.9092  159.8539 C   0  0  1  0  0  0  0  0  0  0  0  0
  153.6654  141.2399  160.5442 C   0  0  0  0  0  0  0  0  0  0  0  0
  152.8323  143.2512  159.5334 O   0  0  0  0  0  0  0  0  0  0  0  0
  151.4290  146.0308  158.2831 H   0  0  0  0  0  0  0  0  0  0  0  0
  153.0810  145.4618  158.0470 H   0  0  0  0  0  0  0  0  0  0  0  0
  152.5186  145.8952  159.6595 H   0  0  0  0  0  0  0  0  0  0  0  0
  150.9161  143.9996  159.6460 H   0  0  0  0  0  0  0  0  0  0  0  0
  150.4779  143.8121  157.2033 H   0  0  0  0  0  0  0  0  0  0  0  0
  152.1467  143.3480  156.9123 H   0  0  0  0  0  0  0  0  0  0  0  0
  151.6617  139.4119  156.9390 H   0  0  0  0  0  0  0  0  0  0  0  0
  150.6855  138.3826  154.8949 H   0  0  0  0  0  0  0  0  0  0  0  0
  149.1082  138.6112  152.9871 H   0  0  0  0  0  0  0  0  0  0  0  0
  148.1524  140.0256  152.7724 H   0  0  0  0  0  0  0  0  0  0  0  0
  148.2919  141.9863  154.4005 H   0  0  0  0  0  0  0  0  0  0  0  0
  151.7364  140.1639  158.7900 H   0  0  0  0  0  0  0  0  0  0  0  0
  152.9246  141.0964  157.8934 H   0  0  0  0  0  0  0  0  0  0  0  0
  151.6313  141.9213  160.5499 H   0  0  0  0  0  0  0  0  0  0  0  0
  153.4331  140.2107  160.8189 H   0  0  0  0  0  0  0  0  0  0  0  0
  153.9376  141.7727  161.4558 H   0  0  0  0  0  0  0  0  0  0  0  0
  154.5406  141.2239  159.8940 H   0  0  0  0  0  0  0  0  0  0  0  0
  149.2776  142.8209  156.3140 H   0  0  0  0  0  0  0  0  0  0  0  0
  1  2  1  0  0  0  0
  1 16  1  0  0  0  0
  1 17  1  0  0  0  0
  1 18  1  0  0  0  0
  2 15  1  0  0  0  0
  2  3  1  0  0  0  0
  2 19  1  0  0  0  0
  3  4  1  0  0  0  0
  3 20  1  0  0  0  0
  3 21  1  0  0  0  0
  4  5  1  0  0  0  0
  4 12  1  0  0  0  0
  5 11  1  0  0  0  0
  5  6  2  0  0  0  0
  6  7  1  0  0  0  0
  6 22  1  0  0  0  0
  7  8  2  0  0  0  0
  7 23  1  0  0  0  0
  8  9  1  0  0  0  0
  8 10  1  0  0  0  0
  9 24  1  0  0  0  0
  9 25  1  0  0  0  0
 10 11  2  0  0  0  0
 10 26  1  0  0  0  0
 11 33  1  0  0  0  0
 12 13  1  0  0  0  0
 12 27  1  0  0  0  0
 12 28  1  0  0  0  0
 13 14  1  0  0  0  0
 13 15  1  0  0  0  0
 13 29  1  0  0  0  0
 14 30  1  0  0  0  0
 14 31  1  0  0  0  0
 14 32  1  0  0  0  0
M  CHG  1  11   1
M  END
> <s_m_source_file>
AV-unprocessed.smi

> <i_m_source_file_index>
992

> <i_lp_mmshare_version>
43012

> <i_f3d_flags>
0

> <s_epik_input>
W0NIM11bQ0BASF0xW0NIMl1OKFtDSDJdW0NASF0oTzEpW0NIM10pYzJbY0hdW2NIXWMoW05IMl0pW2NIXW4y

> <s_epik_cmdline>
J2VwaWtfcHl0aG9uJywgJy1waCcsICc3LjAnLCAnLXRuJywgJzgnLCAnLW1hJywgJzIwMCcsICctbWV0YWxfYmluZGluZycsICctaW1hZScsICc8aW5maWxlLm1hZT4nLCAnLW9tYWUnLCAnPG91dGZpbGUubWFlPic=

> <r_lp_tautomer_probability>
0.999846

> <r_epik_Ionization_Penalty>
2.28753

> <r_epik_Ionization_Penalty_Charging>
2.28753

> <r_epik_Ionization_Penalty_Neutral>
1.09395e-07

> <r_epik_State_Penalty>
2.43729

> <r_epik_Charging_Adjusted_Penalty>
4.72482

> <i_epik_Tot_Q>
1

> <i_epik_Tot_abs_Q>
1

> <r_epik_Metal_State_Penalty>
6.52028

> <b_epik_Metal_Only>
0

> <s_lp_Force_Field>
OPLS_2005

> <r_lp_Energy>
24.8857

> <b_lp_Chiralities_Consistent>
1

> <s_lp_Variant>
AV-unprocessed.smi:992-5

> <Gold.Version>
5.8.1

> <Gold.Id.Protein>
6NUR|6NUR_protein|mol2

> <Gold.PLP.Fitness>
39.2372

> <Gold.PLP.PLP>
-34.1720

> <Gold.PLP.part.hbond>
-0.9680

> <Gold.PLP.part.metal>
0.0000

> <Gold.PLP.part.buried>
-5.2637

> <Gold.PLP.part.nonpolar>
-28.2876

> <Gold.PLP.part.repulsive>
0.2894

> <Gold.PLP.ligand.clash>
0.0000

> <Gold.PLP.ligand.torsion>
0.1998

> <Gold.PLP.Chemscore.Hbond>
1.7920

> <Gold.PLP.Chemscore.CHOScore>
0.0000

> <Gold.PLP.Chemscore.Metal>
0.0000

> <Gold.Chemscore.Hbonds>
donor molecule, donor type, donor heavy atom, donor atom, acceptor molecule, acceptor atom, score
      L1  H    11    33       P1  8028  1.69

> <Gold.PLP.Chemscore.Internal.Correction>
0.0888

> <Gold.Rescore>
     Score         DG    S(hbond)    S(metal)    S(lipo)     H(rot)  DE(clash)    DE(int)     intcor
     16.71     -16.98       0.92        0.00      93.80       1.00       0.13       0.14       ----

> <Gold.Chemscore.Fitness>
16.7074

> <Gold.Chemscore.DG>
-16.9778

> <Gold.Chemscore.ZeroCoef>
-5.4800

> <Gold.Chemscore.Hbond>
0.9231

> <Gold.Chemscore.Metal>
0.0000

> <Gold.Chemscore.Lipo>
93.7991

> <Gold.Chemscore.Internal_Hbond>
0.0000

> <Gold.Chemscore.DEClash>
0.1300

> <Gold.Chemscore.DEInternal>
0.1404

> <Gold.Chemscore.Rot>
1.0000

> <Gold.Chemscore.Internal.Correction>
   9.000000E+99

> <Gold.Chemscore.Hbonds>
donor molecule, donor type, donor heavy atom, donor atom, acceptor molecule, acceptor atom, score
      L1  H    11    33       P1  8028  0.79

> <Gold.Chemscore.Hbond.Weighted>
-3.0833

> <Gold.Chemscore.Metal.Weighted>
-0.0000

> <Gold.Chemscore.Lipo.Weighted>
-10.9745

> <Gold.Chemscore.Internal_Hbond.Weighted>
0.0000

> <Gold.Chemscore.DEClash.Weighted>
0.1300

> <Gold.Chemscore.DEInternal.Weighted>
0.1404

> <Gold.Chemscore.Rot.Weighted>
2.5600

> <Gold.Chemscore.Internal.Correction.Weighted>
   9.000000E+99

> <Gold.Protein.RotatedTorsions>
[ 6907 6896 6895 6894 ] final   20.43 input  -60.11 | X-H torsion
[ 7974 7965 7964 7962 ] final  104.94 input  175.53 | X-H torsion
[ 8008 7997 7996 7995 ] final -120.03 input   59.86 | X-H torsion
[ 10167 10162 10161 10158 ] final  -39.86 input  -65.29 | X-H torsion
[ 10718 10713 10712 10709 ] final   23.72 input   66.30 | X-H torsion
[ 10763 10752 10751 10750 ] final  126.83 input  -60.55 | X-H torsion
[ 11005 11000 10999 10996 ] final  148.87 input  -57.11 | X-H torsion

> <Gold.Protein.ActiveResidues>
 VAL166  LYS551  ARG553  GLY616  TRP617  ASP618  TYR619  PRO620  LYS621  CYS622 
 ASP623  PHE694  ASN695  SER759  ASP760  ASP761  ALA762  ILE779  LEU786  VAL792 
 PHE793  MET794  SER795  GLU796  ALA797  LYS798  CYS799  TRP800  GLU811  SER814 

> <Gold.Protein.RotatedAtoms>
  151.8963  135.0396  160.0502 H   0  0  0  0  0  0  0  0  0  0  0  0  # atno 6907 bound_to 6896
  152.2395  133.5119  159.5270 H   0  0  0  0  0  0  0  0  0  0  0  0  # atno 6908 bound_to 6896
  150.7049  134.1025  159.4013 H   0  0  0  0  0  0  0  0  0  0  0  0  # atno 6909 bound_to 6896
  145.3262  139.2499  143.3685 H   0  0  0  0  0  0  0  0  0  0  0  0  # atno 7974 bound_to 7965
  155.1252  140.0399  157.2760 H   0  0  0  0  0  0  0  0  0  0  0  0  # atno 8008 bound_to 7997
  154.6584  140.2585  155.7110 H   0  0  0  0  0  0  0  0  0  0  0  0  # atno 8009 bound_to 7997
  156.2608  140.2822  156.1046 H   0  0  0  0  0  0  0  0  0  0  0  0  # atno 8010 bound_to 7997
  140.7052  143.3188  151.2842 H   0  0  0  0  0  0  0  0  0  0  0  0  # atno 10167 bound_to 10162
  157.1700  130.6755  149.6074 H   0  0  0  0  0  0  0  0  0  0  0  0  # atno 10718 bound_to 10713
  153.6997  135.3285  155.3221 H   0  0  0  0  0  0  0  0  0  0  0  0  # atno 10763 bound_to 10752
  154.8416  135.4451  154.1424 H   0  0  0  0  0  0  0  0  0  0  0  0  # atno 10764 bound_to 10752
  153.2488  135.6979  153.7780 H   0  0  0  0  0  0  0  0  0  0  0  0  # atno 10765 bound_to 10752
  140.0996  134.8991  157.1776 H   0  0  0  0  0  0  0  0  0  0  0  0  # atno 11005 bound_to 11000
  146.3063  140.3831  142.8686 LP  0  0  0  0  0  0  0  0  0  0  0  0  # atno 17320 bound_to 7965
  144.8900  140.7511  143.5933 LP  0  0  0  0  0  0  0  0  0  0  0  0  # atno 17321 bound_to 7965
  139.6636  144.0145  152.2708 LP  0  0  0  0  0  0  0  0  0  0  0  0  # atno 17342 bound_to 10162
  139.9721  144.6487  150.7980 LP  0  0  0  0  0  0  0  0  0  0  0  0  # atno 17343 bound_to 10162
  155.9740  130.4682  150.6352 LP  0  0  0  0  0  0  0  0  0  0  0  0  # atno 17370 bound_to 10713
  157.4052  131.0815  151.1272 LP  0  0  0  0  0  0  0  0  0  0  0  0  # atno 17371 bound_to 10713
  140.3238  134.2887  155.7241 LP  0  0  0  0  0  0  0  0  0  0  0  0  # atno 17394 bound_to 11000
  141.2102  133.7726  156.9948 LP  0  0  0  0  0  0  0  0  0  0  0  0  # atno 17395 bound_to 11000

$$$$
