AV-unprocessed.smi:2260|AV-procd|sdf|9135|dock6
  -GOLD-   2272012343D 1   1.00000     0.00000
 Structure written by MMmdl.
 42 43  0  0  0  0  0  0  0  0  1 V2000
  148.8687  140.7158  154.1175 C   0  0  0  0  0  0  0  0  0  0  0  0
  150.0187  139.7778  154.4409 C   0  0  0  0  0  0  0  0  0  0  0  0
  150.1468  138.5206  154.0033 C   0  0  0  0  0  0  0  0  0  0  0  0
  151.6211  137.7607  154.5537 S   0  0  0  0  0  0  0  0  0  0  0  0
  152.0830  139.2656  155.4276 C   0  0  0  0  0  0  0  0  0  0  0  0
  153.1282  139.3721  156.0673 O   0  0  0  0  0  0  0  0  0  0  0  0
  151.0801  140.2158  155.2431 N   0  0  0  0  0  0  0  0  0  0  0  0
  151.1541  141.5463  155.8523 C   0  0  0  0  0  0  0  0  0  0  0  0
  150.6281  141.5254  157.2948 C   0  0  0  0  0  0  0  0  0  0  0  0
  150.8193  142.8346  157.8992 N   0  0  0  0  0  0  0  0  0  0  0  0
  151.2011  142.7270  159.3043 C   0  0  1  0  0  0  0  0  0  0  0  0
  152.5233  141.9353  159.3753 C   0  0  0  0  0  0  0  0  0  0  0  0
  153.0010  141.7752  160.8244 C   0  0  0  0  0  0  0  0  0  0  0  0
  153.1360  143.1387  161.5136 C   0  0  0  0  0  0  0  0  0  0  0  0
  151.8205  143.9336  161.4358 C   0  0  0  0  0  0  0  0  0  0  0  0
  151.2943  144.1278  159.9894 C   0  0  0  0  0  0  0  0  0  0  0  0
  152.2185  145.1046  159.2221 C   0  0  0  0  0  0  0  0  0  0  0  0
  149.8917  144.7652  160.0839 C   0  0  0  0  0  0  0  0  0  0  0  0
  148.3272  140.3612  153.2401 H   0  0  0  0  0  0  0  0  0  0  0  0
  149.2183  141.7245  153.8990 H   0  0  0  0  0  0  0  0  0  0  0  0
  148.1692  140.7597  154.9525 H   0  0  0  0  0  0  0  0  0  0  0  0
  149.4527  137.9891  153.3694 H   0  0  0  0  0  0  0  0  0  0  0  0
  152.1752  141.9269  155.8204 H   0  0  0  0  0  0  0  0  0  0  0  0
  150.5680  142.2504  155.2585 H   0  0  0  0  0  0  0  0  0  0  0  0
  149.5698  141.2626  157.3048 H   0  0  0  0  0  0  0  0  0  0  0  0
  151.1569  140.7732  157.8815 H   0  0  0  0  0  0  0  0  0  0  0  0
  151.5351  143.3358  157.3928 H   0  0  0  0  0  0  0  0  0  0  0  0
  150.4543  142.1386  159.8410 H   0  0  0  0  0  0  0  0  0  0  0  0
  152.3892  140.9477  158.9320 H   0  0  0  0  0  0  0  0  0  0  0  0
  153.2988  142.4270  158.7872 H   0  0  0  0  0  0  0  0  0  0  0  0
  152.2927  141.1554  161.3757 H   0  0  0  0  0  0  0  0  0  0  0  0
  153.9559  141.2495  160.8466 H   0  0  0  0  0  0  0  0  0  0  0  0
  153.4174  142.9960  162.5573 H   0  0  0  0  0  0  0  0  0  0  0  0
  153.9477  143.7057  161.0575 H   0  0  0  0  0  0  0  0  0  0  0  0
  151.0689  143.4060  162.0250 H   0  0  0  0  0  0  0  0  0  0  0  0
  151.9524  144.9012  161.9223 H   0  0  0  0  0  0  0  0  0  0  0  0
  152.3069  146.0552  159.7491 H   0  0  0  0  0  0  0  0  0  0  0  0
  151.8316  145.3279  158.2277 H   0  0  0  0  0  0  0  0  0  0  0  0
  153.2267  144.7136  159.0945 H   0  0  0  0  0  0  0  0  0  0  0  0
  149.9189  145.7027  160.6406 H   0  0  0  0  0  0  0  0  0  0  0  0
  149.1861  144.1051  160.5893 H   0  0  0  0  0  0  0  0  0  0  0  0
  149.4826  144.9894  159.0982 H   0  0  0  0  0  0  0  0  0  0  0  0
  1  2  1  0  0  0  0
  1 19  1  0  0  0  0
  1 20  1  0  0  0  0
  1 21  1  0  0  0  0
  2  7  1  0  0  0  0
  2  3  2  0  0  0  0
  3  4  1  0  0  0  0
  3 22  1  0  0  0  0
  4  5  1  0  0  0  0
  5  6  2  0  0  0  0
  5  7  1  0  0  0  0
  7  8  1  0  0  0  0
  8  9  1  0  0  0  0
  8 23  1  0  0  0  0
  8 24  1  0  0  0  0
  9 10  1  0  0  0  0
  9 25  1  0  0  0  0
  9 26  1  0  0  0  0
 10 11  1  0  0  0  0
 10 27  1  0  0  0  0
 11 16  1  0  0  0  0
 11 12  1  0  0  0  0
 11 28  1  0  0  0  0
 12 13  1  0  0  0  0
 12 29  1  0  0  0  0
 12 30  1  0  0  0  0
 13 14  1  0  0  0  0
 13 31  1  0  0  0  0
 13 32  1  0  0  0  0
 14 15  1  0  0  0  0
 14 33  1  0  0  0  0
 14 34  1  0  0  0  0
 15 16  1  0  0  0  0
 15 35  1  0  0  0  0
 15 36  1  0  0  0  0
 16 17  1  0  0  0  0
 16 18  1  0  0  0  0
 17 37  1  0  0  0  0
 17 38  1  0  0  0  0
 17 39  1  0  0  0  0
 18 40  1  0  0  0  0
 18 41  1  0  0  0  0
 18 42  1  0  0  0  0
M  END
> <s_m_source_file>
AV-unprocessed.smi

> <i_m_source_file_index>
2260

> <i_lp_mmshare_version>
43012

> <i_f3d_flags>
0

> <s_epik_input>
W0NIM11jMVtjSF1zYyg9TyluMVtDSDJdW0NIMl1bTkhdW0NAQEhdKEMyKFtDSDNdKVtDSDNdKVtDSDJdW0NIMl1bQ0gyXVtDSDJdMg==

> <s_epik_cmdline>
J2VwaWtfcHl0aG9uJywgJy1waCcsICc3LjAnLCAnLXRuJywgJzgnLCAnLW1hJywgJzIwMCcsICctbWV0YWxfYmluZGluZycsICctaW1hZScsICc8aW5maWxlLm1hZT4nLCAnLW9tYWUnLCAnPG91dGZpbGUubWFlPic=

> <r_epik_Ionization_Penalty>
2.34504

> <r_epik_Ionization_Penalty_Charging>
4.7617e-06

> <r_epik_Ionization_Penalty_Neutral>
2.34504

> <r_epik_State_Penalty>
2.49894

> <r_epik_Charging_Adjusted_Penalty>
2.49895

> <i_epik_Tot_Q>
0

> <i_epik_Tot_abs_Q>
0

> <r_epik_Metal_State_Penalty>
2.49894

> <b_epik_Metal_Only>
0

> <s_lp_Force_Field>
OPLS_2005

> <r_lp_Energy>
26.7026

> <b_lp_Chiralities_Consistent>
1

> <s_lp_Variant>
AV-unprocessed.smi:2260-4

> <Gold.Version>
5.8.1

> <Gold.Id.Protein>
6NUR|6NUR_protein|mol2

> <Gold.PLP.Fitness>
49.5297

> <Gold.PLP.PLP>
-44.7517

> <Gold.PLP.part.hbond>
-1.0000

> <Gold.PLP.part.metal>
0.0000

> <Gold.PLP.part.buried>
-4.6197

> <Gold.PLP.part.nonpolar>
-39.4781

> <Gold.PLP.part.repulsive>
0.0000

> <Gold.PLP.ligand.clash>
0.0000

> <Gold.PLP.ligand.torsion>
0.6171

> <Gold.PLP.Chemscore.Hbond>
1.0000

> <Gold.PLP.Chemscore.CHOScore>
1.0000

> <Gold.PLP.Chemscore.Metal>
0.0000

> <Gold.Chemscore.Hbonds>
donor molecule, donor type, donor heavy atom, donor atom, acceptor molecule, acceptor atom, score
      P1  H  7997  8009       L1     6  0.88
      L1  C     3    22       P1  7948  1.00

> <Gold.PLP.Chemscore.Internal.Correction>
0.0122

> <Gold.Rescore>
     Score         DG    S(hbond)    S(metal)    S(lipo)     H(rot)  DE(clash)    DE(int)     intcor
     19.18     -20.25       1.00        0.00     129.00       1.43       0.50       0.58       ----

> <Gold.Chemscore.Fitness>
19.1776

> <Gold.Chemscore.DG>
-20.2548

> <Gold.Chemscore.ZeroCoef>
-5.4800

> <Gold.Chemscore.Hbond>
0.9996

> <Gold.Chemscore.Metal>
0.0000

> <Gold.Chemscore.Lipo>
128.9991

> <Gold.Chemscore.Internal_Hbond>
0.0000

> <Gold.Chemscore.DEClash>
0.5006

> <Gold.Chemscore.DEInternal>
0.5766

> <Gold.Chemscore.Rot>
1.4285

> <Gold.Chemscore.Internal.Correction>
   9.000000E+99

> <Gold.Chemscore.Hbonds>
donor molecule, donor type, donor heavy atom, donor atom, acceptor molecule, acceptor atom, score
      P1  H  7997  8009       L1     6  0.85

> <Gold.Chemscore.Hbond.Weighted>
-3.3388

> <Gold.Chemscore.Metal.Weighted>
-0.0000

> <Gold.Chemscore.Lipo.Weighted>
-15.0929

> <Gold.Chemscore.Internal_Hbond.Weighted>
0.0000

> <Gold.Chemscore.DEClash.Weighted>
0.5006

> <Gold.Chemscore.DEInternal.Weighted>
0.5766

> <Gold.Chemscore.Rot.Weighted>
3.6569

> <Gold.Chemscore.Internal.Correction.Weighted>
   9.000000E+99

> <Gold.Protein.RotatedTorsions>
[ 6907 6896 6895 6894 ] final   77.19 input  -60.11 | X-H torsion
[ 7974 7965 7964 7962 ] final  140.27 input  175.53 | X-H torsion
[ 8008 7997 7996 7995 ] final -172.91 input   59.86 | X-H torsion
[ 10167 10162 10161 10158 ] final   98.54 input  -65.29 | X-H torsion
[ 10718 10713 10712 10709 ] final  146.29 input   66.30 | X-H torsion
[ 10763 10752 10751 10750 ] final -123.63 input  -60.55 | X-H torsion
[ 11005 11000 10999 10996 ] final  120.87 input  -57.11 | X-H torsion

> <Gold.Protein.ActiveResidues>
 VAL166  LYS551  ARG553  GLY616  TRP617  ASP618  TYR619  PRO620  LYS621  CYS622 
 ASP623  PHE694  ASN695  SER759  ASP760  ASP761  ALA762  ILE779  LEU786  VAL792 
 PHE793  MET794  SER795  GLU796  ALA797  LYS798  CYS799  TRP800  GLU811  SER814 

> <Gold.Protein.RotatedAtoms>
  152.5107  134.3854  159.9365 H   0  0  0  0  0  0  0  0  0  0  0  0  # atno 6907 bound_to 6896
  151.3812  133.3814  159.2718 H   0  0  0  0  0  0  0  0  0  0  0  0  # atno 6908 bound_to 6896
  150.9503  134.8924  159.7726 H   0  0  0  0  0  0  0  0  0  0  0  0  # atno 6909 bound_to 6896
  144.9202  139.5178  143.5667 H   0  0  0  0  0  0  0  0  0  0  0  0  # atno 7974 bound_to 7965
  155.9506  140.1125  157.0980 H   0  0  0  0  0  0  0  0  0  0  0  0  # atno 8008 bound_to 7997
  154.4109  140.1201  156.5114 H   0  0  0  0  0  0  0  0  0  0  0  0  # atno 8009 bound_to 7997
  155.6847  140.3473  155.4871 H   0  0  0  0  0  0  0  0  0  0  0  0  # atno 8010 bound_to 7997
  139.7699  144.6926  151.0170 H   0  0  0  0  0  0  0  0  0  0  0  0  # atno 10167 bound_to 10162
  157.3350  131.0926  151.1131 H   0  0  0  0  0  0  0  0  0  0  0  0  # atno 10718 bound_to 10713
  154.8711  135.4092  154.2974 H   0  0  0  0  0  0  0  0  0  0  0  0  # atno 10763 bound_to 10752
  153.3839  135.7012  153.6550 H   0  0  0  0  0  0  0  0  0  0  0  0  # atno 10764 bound_to 10752
  153.5361  135.3657  155.2669 H   0  0  0  0  0  0  0  0  0  0  0  0  # atno 10765 bound_to 10752
  139.9202  134.9636  156.7872 H   0  0  0  0  0  0  0  0  0  0  0  0  # atno 11005 bound_to 11000
  146.3201  139.8075  142.8952 LP  0  0  0  0  0  0  0  0  0  0  0  0  # atno 17320 bound_to 7965
  145.3309  141.0266  143.3447 LP  0  0  0  0  0  0  0  0  0  0  0  0  # atno 17321 bound_to 7965
  140.7813  143.4600  151.0291 LP  0  0  0  0  0  0  0  0  0  0  0  0  # atno 17342 bound_to 10162
  139.8284  143.7725  152.3179 LP  0  0  0  0  0  0  0  0  0  0  0  0  # atno 17343 bound_to 10162
  157.2364  130.6549  149.5871 LP  0  0  0  0  0  0  0  0  0  0  0  0  # atno 17370 bound_to 10713
  155.9700  130.4582  150.5991 LP  0  0  0  0  0  0  0  0  0  0  0  0  # atno 17371 bound_to 10713
  140.6496  133.9743  155.7748 LP  0  0  0  0  0  0  0  0  0  0  0  0  # atno 17394 bound_to 11000
  141.0717  134.0196  157.3517 LP  0  0  0  0  0  0  0  0  0  0  0  0  # atno 17395 bound_to 11000

$$$$
