AV-unprocessed.smi:2568|AV-procd|sdf|10095|dock3
  -GOLD-   2272014113D 1   1.00000     0.00000
 Structure written by MMmdl.
 25 26  0  0  0  0  0  0  0  0  2 V2000
  151.1553  143.5761  158.1318 C   0  0  0  0  0  0  0  0  0  0  0  0
  150.8126  142.3492  157.3565 C   0  0  0  0  0  0  0  0  0  0  0  0
  151.2267  141.1141  157.6533 N   0  0  0  0  0  0  0  0  0  0  0  0
  150.6766  140.2972  156.6803 N   0  0  0  0  0  0  0  0  0  0  0  0
  149.9770  141.1118  155.8829 C   0  0  0  0  0  0  0  0  0  0  0  0
  149.2101  140.6790  154.6730 C   0  0  1  0  0  0  0  0  0  0  0  0
  149.4026  139.1826  154.3589 C   0  0  0  0  0  0  0  0  0  0  0  0
  148.5460  138.7907  153.2227 N   0  3  0  0  0  0  0  0  0  0  0  0
  147.1317  139.1357  153.4686 C   0  0  0  0  0  0  0  0  0  0  0  0
  147.0033  140.6292  153.8165 C   0  0  0  0  0  0  0  0  0  0  0  0
  147.8321  140.9357  154.9332 O   0  0  0  0  0  0  0  0  0  0  0  0
  150.0376  142.3966  156.2636 N   0  0  0  0  0  0  0  0  0  0  0  0
  149.6042  143.2027  155.8369 H   0  0  0  0  0  0  0  0  0  0  0  0
  151.6632  143.3114  159.0598 H   0  0  0  0  0  0  0  0  0  0  0  0
  150.2495  144.1308  158.3781 H   0  0  0  0  0  0  0  0  0  0  0  0
  151.8132  144.2175  157.5452 H   0  0  0  0  0  0  0  0  0  0  0  0
  149.5327  141.2844  153.8235 H   0  0  0  0  0  0  0  0  0  0  0  0
  150.4443  138.9692  154.1180 H   0  0  0  0  0  0  0  0  0  0  0  0
  149.1411  138.5737  155.2257 H   0  0  0  0  0  0  0  0  0  0  0  0
  148.8594  139.2789  152.3959 H   0  0  0  0  0  0  0  0  0  0  0  0
  146.5403  138.8939  152.5853 H   0  0  0  0  0  0  0  0  0  0  0  0
  146.7512  138.5245  154.2882 H   0  0  0  0  0  0  0  0  0  0  0  0
  147.2778  141.2529  152.9642 H   0  0  0  0  0  0  0  0  0  0  0  0
  145.9698  140.8699  154.0664 H   0  0  0  0  0  0  0  0  0  0  0  0
  148.6271  137.7956  153.0681 H   0  0  0  0  0  0  0  0  0  0  0  0
  1 14  1  0  0  0  0
  1 15  1  0  0  0  0
  1 16  1  0  0  0  0
  1  2  1  0  0  0  0
  2  3  2  0  0  0  0
  2 12  1  0  0  0  0
  3  4  1  0  0  0  0
  4  5  2  0  0  0  0
  5 12  1  0  0  0  0
  5  6  1  0  0  0  0
  6 11  1  0  0  0  0
  6  7  1  0  0  0  0
  6 17  1  0  0  0  0
  7  8  1  0  0  0  0
  7 18  1  0  0  0  0
  7 19  1  0  0  0  0
  8  9  1  0  0  0  0
  8 20  1  0  0  0  0
  8 25  1  0  0  0  0
  9 10  1  0  0  0  0
  9 21  1  0  0  0  0
  9 22  1  0  0  0  0
 10 11  1  0  0  0  0
 10 23  1  0  0  0  0
 10 24  1  0  0  0  0
 12 13  1  0  0  0  0
M  CHG  1   8   1
M  END
> <s_m_source_file>
AV-unprocessed.smi

> <i_m_source_file_index>
2568

> <i_lp_mmshare_version>
43012

> <i_f3d_flags>
0

> <s_epik_input>
W0NIM11jMW5bbkhdYyhuMSlbQ0BASF0yW0NIMl1bTkhdW0NIMl1bQ0gyXU8y

> <s_epik_cmdline>
J2VwaWtfcHl0aG9uJywgJy1waCcsICc3LjAnLCAnLXRuJywgJzgnLCAnLW1hJywgJzIwMCcsICctbWV0YWxfYmluZGluZycsICctaW1hZScsICc8aW5maWxlLm1hZT4nLCAnLW9tYWUnLCAnPG91dGZpbGUubWFlPic=

> <r_lp_tautomer_probability>
0.0517155

> <r_epik_Ionization_Penalty>
0.290065

> <r_epik_Ionization_Penalty_Charging>
0.125708

> <r_epik_Ionization_Penalty_Neutral>
0.164357

> <r_epik_State_Penalty>
2.14308

> <r_epik_Charging_Adjusted_Penalty>
2.26879

> <i_epik_Tot_Q>
1

> <i_epik_Tot_abs_Q>
1

> <r_epik_Metal_State_Penalty>
2.44434

> <b_epik_Metal_Only>
0

> <s_lp_Force_Field>
OPLS_2005

> <r_lp_Energy>
13.5699

> <b_lp_Chiralities_Consistent>
1

> <s_lp_Variant>
AV-unprocessed.smi:2568-8

> <Gold.Version>
5.8.1

> <Gold.Id.Protein>
6NUR|6NUR_protein|mol2

> <Gold.PLP.Fitness>
34.1405

> <Gold.PLP.PLP>
-22.3881

> <Gold.PLP.part.hbond>
-3.0000

> <Gold.PLP.part.metal>
0.0000

> <Gold.PLP.part.buried>
-4.5408

> <Gold.PLP.part.nonpolar>
-17.2606

> <Gold.PLP.part.repulsive>
0.3173

> <Gold.PLP.ligand.clash>
0.0000

> <Gold.PLP.ligand.torsion>
0.0523

> <Gold.PLP.Chemscore.Hbond>
3.9520

> <Gold.PLP.Chemscore.CHOScore>
0.0000

> <Gold.PLP.Chemscore.Metal>
0.0000

> <Gold.Chemscore.Hbonds>
donor molecule, donor type, donor heavy atom, donor atom, acceptor molecule, acceptor atom, score
      L1  H     8    20       P1  7957  1.00
      L1  H     8    25       P1  7948  1.98
      L1  H    12    13       P1  8028  1.00

> <Gold.PLP.Chemscore.Internal.Correction>
0.0009

> <Gold.Rescore>
     Score         DG    S(hbond)    S(metal)    S(lipo)     H(rot)  DE(clash)    DE(int)     intcor
     17.02     -17.03       2.89        0.00      38.22       1.00       0.00       0.01       ----

> <Gold.Chemscore.Fitness>
17.0227

> <Gold.Chemscore.DG>
-17.0329

> <Gold.Chemscore.ZeroCoef>
-5.4800

> <Gold.Chemscore.Hbond>
2.8864

> <Gold.Chemscore.Metal>
0.0000

> <Gold.Chemscore.Lipo>
38.2246

> <Gold.Chemscore.Internal_Hbond>
0.0000

> <Gold.Chemscore.DEClash>
0.0000

> <Gold.Chemscore.DEInternal>
0.0102

> <Gold.Chemscore.Rot>
1.0000

> <Gold.Chemscore.Internal.Correction>
   9.000000E+99

> <Gold.Chemscore.Hbonds>
donor molecule, donor type, donor heavy atom, donor atom, acceptor molecule, acceptor atom, score
      L1  H     8    20       P1  7957  0.99
      L1  H     8    25       P1  7948  0.92
      L1  H    12    13       P1  8028  1.00

> <Gold.Chemscore.Hbond.Weighted>
-9.6406

> <Gold.Chemscore.Metal.Weighted>
-0.0000

> <Gold.Chemscore.Lipo.Weighted>
-4.4723

> <Gold.Chemscore.Internal_Hbond.Weighted>
0.0000

> <Gold.Chemscore.DEClash.Weighted>
0.0000

> <Gold.Chemscore.DEInternal.Weighted>
0.0102

> <Gold.Chemscore.Rot.Weighted>
2.5600

> <Gold.Chemscore.Internal.Correction.Weighted>
   9.000000E+99

> <Gold.Protein.RotatedTorsions>
[ 6907 6896 6895 6894 ] final  113.35 input  -60.11 | X-H torsion
[ 7974 7965 7964 7962 ] final  -86.75 input  175.53 | X-H torsion
[ 8008 7997 7996 7995 ] final  -34.27 input   59.86 | X-H torsion
[ 10167 10162 10161 10158 ] final   55.59 input  -65.29 | X-H torsion
[ 10718 10713 10712 10709 ] final   36.75 input   66.30 | X-H torsion
[ 10763 10752 10751 10750 ] final  150.88 input  -60.55 | X-H torsion
[ 11005 11000 10999 10996 ] final   38.39 input  -57.11 | X-H torsion

> <Gold.Protein.ActiveResidues>
 VAL166  LYS551  ARG553  GLY616  TRP617  ASP618  TYR619  PRO620  LYS621  CYS622 
 ASP623  PHE694  ASN695  SER759  ASP760  ASP761  ALA762  ILE779  LEU786  VAL792 
 PHE793  MET794  SER795  GLU796  ALA797  LYS798  CYS799  TRP800  GLU811  SER814 

> <Gold.Protein.RotatedAtoms>
  152.4865  133.8388  159.7141 H   0  0  0  0  0  0  0  0  0  0  0  0  # atno 6907 bound_to 6896
  150.8957  133.7175  159.2899 H   0  0  0  0  0  0  0  0  0  0  0  0  # atno 6908 bound_to 6896
  151.4633  135.1044  159.9783 H   0  0  0  0  0  0  0  0  0  0  0  0  # atno 6909 bound_to 6896
  145.4757  140.9558  143.1892 H   0  0  0  0  0  0  0  0  0  0  0  0  # atno 7974 bound_to 7965
  154.4125  140.1688  156.2022 H   0  0  0  0  0  0  0  0  0  0  0  0  # atno 8008 bound_to 7997
  155.9514  140.3400  155.6388 H   0  0  0  0  0  0  0  0  0  0  0  0  # atno 8009 bound_to 7997
  155.6865  140.0728  157.2455 H   0  0  0  0  0  0  0  0  0  0  0  0  # atno 8010 bound_to 7997
  140.2178  144.3821  150.6463 H   0  0  0  0  0  0  0  0  0  0  0  0  # atno 10167 bound_to 10162
  157.3386  130.7536  149.6896 H   0  0  0  0  0  0  0  0  0  0  0  0  # atno 10718 bound_to 10713
  154.0947  135.2850  155.3264 H   0  0  0  0  0  0  0  0  0  0  0  0  # atno 10763 bound_to 10752
  154.6596  135.5339  153.8004 H   0  0  0  0  0  0  0  0  0  0  0  0  # atno 10764 bound_to 10752
  153.0400  135.6530  154.1114 H   0  0  0  0  0  0  0  0  0  0  0  0  # atno 10765 bound_to 10752
  140.2131  134.3731  155.8039 H   0  0  0  0  0  0  0  0  0  0  0  0  # atno 11005 bound_to 11000
  144.7918  139.6312  143.7110 LP  0  0  0  0  0  0  0  0  0  0  0  0  # atno 17320 bound_to 7965
  146.2370  139.5926  142.9517 LP  0  0  0  0  0  0  0  0  0  0  0  0  # atno 17321 bound_to 7965
  140.6277  143.2183  151.6561 LP  0  0  0  0  0  0  0  0  0  0  0  0  # atno 17342 bound_to 10162
  139.5155  144.3375  152.0771 LP  0  0  0  0  0  0  0  0  0  0  0  0  # atno 17343 bound_to 10162
  155.9704  130.4174  150.4278 LP  0  0  0  0  0  0  0  0  0  0  0  0  # atno 17370 bound_to 10713
  157.2322  131.0507  151.2485 LP  0  0  0  0  0  0  0  0  0  0  0  0  # atno 17371 bound_to 10713
  141.2225  133.7153  156.8451 LP  0  0  0  0  0  0  0  0  0  0  0  0  # atno 17394 bound_to 11000
  140.1929  134.8952  157.3082 LP  0  0  0  0  0  0  0  0  0  0  0  0  # atno 17395 bound_to 11000

$$$$
