AV-unprocessed.smi:339|AV-procd|sdf|2378|dock5
  -GOLD-   2262022303D 1   1.00000     0.00000
 Structure written by MMmdl.
 45 46  0  0  0  0  0  0  0  0  1 V2000
  150.7446  141.5107  156.7041 C   0  0  0  0  0  0  0  0  0  0  0  0
  151.5146  142.1475  157.8465 C   0  0  0  0  0  0  0  0  0  0  0  0
  151.2194  143.4727  158.2275 C   0  0  0  0  0  0  0  0  0  0  0  0
  151.9320  144.0847  159.2750 C   0  0  0  0  0  0  0  0  0  0  0  0
  152.9466  143.3757  159.9440 C   0  0  0  0  0  0  0  0  0  0  0  0
  153.2501  142.0497  159.5725 C   0  0  0  0  0  0  0  0  0  0  0  0
  154.3536  141.3030  160.2986 C   0  0  0  0  0  0  0  0  0  0  0  0
  152.5238  141.4276  158.5298 C   0  0  0  0  0  0  0  0  0  0  0  0
  152.8192  140.1399  158.1634 O   0  0  0  0  0  0  0  0  0  0  0  0
  152.5514  139.1815  159.1767 C   0  0  0  0  0  0  0  0  0  0  0  0
  151.6324  138.0927  158.5994 C   0  0  2  0  0  0  0  0  0  0  0  0
  151.3667  137.1737  159.6415 O   0  0  0  0  0  0  0  0  0  0  0  0
  152.3088  137.3198  157.4450 C   0  0  0  0  0  0  0  0  0  0  0  0
  151.3764  136.4073  156.7713 N   0  0  0  0  0  0  0  0  0  0  0  0
  151.8271  135.1046  156.6913 N   0  0  0  0  0  0  0  0  0  0  0  0
  151.1120  134.1770  156.1448 C   0  0  0  0  0  0  0  0  0  0  0  0
  151.7054  132.7941  156.1161 C   0  0  0  0  0  0  0  0  0  0  0  0
  149.7994  134.5042  155.5970 C   0  0  0  0  0  0  0  0  0  0  0  0
  148.9998  133.3710  154.9682 C   0  0  0  0  0  0  0  0  0  0  0  0
  149.3726  135.7896  155.6718 C   0  0  0  0  0  0  0  0  0  0  0  0
  148.1074  136.2047  155.1575 C   0  0  0  0  0  0  0  0  0  0  0  0
  147.0721  136.5321  154.7558 N   0  0  0  0  0  0  0  0  0  0  0  0
  150.1786  136.8457  156.2888 C   0  0  0  0  0  0  0  0  0  0  0  0
  149.8195  138.0210  156.3753 O   0  0  0  0  0  0  0  0  0  0  0  0
  150.3208  142.2705  156.0470 H   0  0  0  0  0  0  0  0  0  0  0  0
  149.9284  140.9015  157.0920 H   0  0  0  0  0  0  0  0  0  0  0  0
  151.3936  140.8746  156.1017 H   0  0  0  0  0  0  0  0  0  0  0  0
  150.4466  144.0264  157.7145 H   0  0  0  0  0  0  0  0  0  0  0  0
  151.7037  145.1007  159.5620 H   0  0  0  0  0  0  0  0  0  0  0  0
  153.4929  143.8553  160.7432 H   0  0  0  0  0  0  0  0  0  0  0  0
  154.9541  140.7207  159.5994 H   0  0  0  0  0  0  0  0  0  0  0  0
  153.9271  140.6236  161.0361 H   0  0  0  0  0  0  0  0  0  0  0  0
  155.0206  141.9923  160.8165 H   0  0  0  0  0  0  0  0  0  0  0  0
  153.5034  138.7418  159.4772 H   0  0  0  0  0  0  0  0  0  0  0  0
  152.1165  139.6340  160.0698 H   0  0  0  0  0  0  0  0  0  0  0  0
  150.7017  138.5493  158.2603 H   0  0  0  0  0  0  0  0  0  0  0  0
  150.9205  137.6301  160.3380 H   0  0  0  0  0  0  0  0  0  0  0  0
  152.6977  138.0216  156.7051 H   0  0  0  0  0  0  0  0  0  0  0  0
  153.1883  136.7834  157.8073 H   0  0  0  0  0  0  0  0  0  0  0  0
  151.7280  132.4024  155.0989 H   0  0  0  0  0  0  0  0  0  0  0  0
  151.1190  132.1100  156.7298 H   0  0  0  0  0  0  0  0  0  0  0  0
  152.7287  132.7825  156.4947 H   0  0  0  0  0  0  0  0  0  0  0  0
  147.9936  133.6821  154.6890 H   0  0  0  0  0  0  0  0  0  0  0  0
  148.8991  132.5365  155.6629 H   0  0  0  0  0  0  0  0  0  0  0  0
  149.4967  133.0105  154.0672 H   0  0  0  0  0  0  0  0  0  0  0  0
  1  2  1  0  0  0  0
  1 25  1  0  0  0  0
  1 26  1  0  0  0  0
  1 27  1  0  0  0  0
  2  8  1  0  0  0  0
  2  3  2  0  0  0  0
  3  4  1  0  0  0  0
  3 28  1  0  0  0  0
  4  5  2  0  0  0  0
  4 29  1  0  0  0  0
  5  6  1  0  0  0  0
  5 30  1  0  0  0  0
  6  7  1  0  0  0  0
  6  8  2  0  0  0  0
  7 31  1  0  0  0  0
  7 32  1  0  0  0  0
  7 33  1  0  0  0  0
  8  9  1  0  0  0  0
  9 10  1  0  0  0  0
 10 11  1  0  0  0  0
 10 34  1  0  0  0  0
 10 35  1  0  0  0  0
 11 12  1  0  0  0  0
 11 13  1  0  0  0  0
 11 36  1  0  0  0  0
 12 37  1  0  0  0  0
 13 14  1  0  0  0  0
 13 38  1  0  0  0  0
 13 39  1  0  0  0  0
 14 23  1  0  0  0  0
 14 15  1  0  0  0  0
 15 16  2  0  0  0  0
 16 17  1  0  0  0  0
 16 18  1  0  0  0  0
 17 40  1  0  0  0  0
 17 41  1  0  0  0  0
 17 42  1  0  0  0  0
 18 19  1  0  0  0  0
 18 20  2  0  0  0  0
 19 43  1  0  0  0  0
 19 44  1  0  0  0  0
 19 45  1  0  0  0  0
 20 21  1  0  0  0  0
 20 23  1  0  0  0  0
 21 22  3  0  0  0  0
 23 24  2  0  0  0  0
M  END
> <s_m_source_file>
AV-unprocessed.smi

> <i_m_source_file_index>
339

> <i_lp_mmshare_version>
43012

> <i_f3d_flags>
0

> <s_epik_input>
W0NIM11jMVtjSF1bY0hdW2NIXWMoW0NIM10pYzFPW0NIMl1bQ0BIXShbT0hdKVtDSDJdbjJuYyhbQ0gzXSljKFtDSDNdKWMoQyNOKWMyPU8=

> <s_epik_cmdline>
J2VwaWtfcHl0aG9uJywgJy1waCcsICc3LjAnLCAnLXRuJywgJzgnLCAnLW1hJywgJzIwMCcsICctbWV0YWxfYmluZGluZycsICctaW1hZScsICc8aW5maWxlLm1hZT4nLCAnLW9tYWUnLCAnPG91dGZpbGUubWFlPic=

> <r_lp_tautomer_probability>
1

> <r_epik_Ionization_Penalty>
1.17331e-07

> <r_epik_Ionization_Penalty_Charging>
1.57223e-10

> <r_epik_Ionization_Penalty_Neutral>
1.17174e-07

> <r_epik_State_Penalty>
-0

> <r_epik_Charging_Adjusted_Penalty>
1.57223e-10

> <i_epik_Tot_Q>
0

> <i_epik_Tot_abs_Q>
0

> <r_epik_Metal_State_Penalty>
-0

> <b_epik_Metal_Only>
0

> <s_lp_Force_Field>
OPLS_2005

> <r_lp_Energy>
35.9352

> <b_lp_Chiralities_Consistent>
1

> <s_lp_Variant>
AV-unprocessed.smi:339-1

> <Gold.Version>
5.8.1

> <Gold.Id.Protein>
6NUR|6NUR_protein|mol2

> <Gold.PLP.Fitness>
45.8471

> <Gold.PLP.PLP>
-39.3210

> <Gold.PLP.part.hbond>
-3.1524

> <Gold.PLP.part.metal>
0.0000

> <Gold.PLP.part.buried>
-5.3673

> <Gold.PLP.part.nonpolar>
-28.7994

> <Gold.PLP.part.repulsive>
0.1552

> <Gold.PLP.ligand.clash>
0.0000

> <Gold.PLP.ligand.torsion>
0.4772

> <Gold.PLP.Chemscore.Hbond>
2.4686

> <Gold.PLP.Chemscore.CHOScore>
0.0000

> <Gold.PLP.Chemscore.Metal>
0.0000

> <Gold.Chemscore.Hbonds>
donor molecule, donor type, donor heavy atom, donor atom, acceptor molecule, acceptor atom, score
      P1  H  6896  6908       L1    12  0.99
      P1  H  7997  8010       L1     9  0.79
      P1  H 10752 10763       L1    15  0.76

> <Gold.PLP.Chemscore.Internal.Correction>
0.0747

> <Gold.Rescore>
     Score         DG    S(hbond)    S(metal)    S(lipo)     H(rot)  DE(clash)    DE(int)     intcor
     15.32     -18.40       1.59        0.00     115.19       2.29       0.16       2.92       ----

> <Gold.Chemscore.Fitness>
15.3187

> <Gold.Chemscore.DG>
-18.4030

> <Gold.Chemscore.ZeroCoef>
-5.4800

> <Gold.Chemscore.Hbond>
1.5896

> <Gold.Chemscore.Metal>
0.0000

> <Gold.Chemscore.Lipo>
115.1899

> <Gold.Chemscore.Internal_Hbond>
0.0000

> <Gold.Chemscore.DEClash>
0.1596

> <Gold.Chemscore.DEInternal>
2.9246

> <Gold.Chemscore.Rot>
2.2905

> <Gold.Chemscore.Internal.Correction>
   9.000000E+99

> <Gold.Chemscore.Hbonds>
donor molecule, donor type, donor heavy atom, donor atom, acceptor molecule, acceptor atom, score
      P1  H  6896  6908       L1    12  0.76
      P1  H  7997  8010       L1     9  0.58
      P1  H 10752 10763       L1    15  0.05

> <Gold.Chemscore.Hbond.Weighted>
-5.3093

> <Gold.Chemscore.Metal.Weighted>
-0.0000

> <Gold.Chemscore.Lipo.Weighted>
-13.4772

> <Gold.Chemscore.Internal_Hbond.Weighted>
0.0000

> <Gold.Chemscore.DEClash.Weighted>
0.1596

> <Gold.Chemscore.DEInternal.Weighted>
2.9246

> <Gold.Chemscore.Rot.Weighted>
5.8636

> <Gold.Chemscore.Internal.Correction.Weighted>
   9.000000E+99

> <Gold.Protein.RotatedTorsions>
[ 6907 6896 6895 6894 ] final -130.92 input  -60.11 | X-H torsion
[ 7974 7965 7964 7962 ] final   30.91 input  175.53 | X-H torsion
[ 8008 7997 7996 7995 ] final   33.57 input   59.86 | X-H torsion
[ 10167 10162 10161 10158 ] final  121.58 input  -65.29 | X-H torsion
[ 10718 10713 10712 10709 ] final  -70.39 input   66.30 | X-H torsion
[ 10763 10752 10751 10750 ] final  106.13 input  -60.55 | X-H torsion
[ 11005 11000 10999 10996 ] final   99.48 input  -57.11 | X-H torsion

> <Gold.Protein.ActiveResidues>
 VAL166  LYS551  ARG553  GLY616  TRP617  ASP618  TYR619  PRO620  LYS621  CYS622 
 ASP623  PHE694  ASN695  SER759  ASP760  ASP761  ALA762  ILE779  LEU786  VAL792 
 PHE793  MET794  SER795  GLU796  ALA797  LYS798  CYS799  TRP800  GLU811  SER814 

> <Gold.Protein.RotatedAtoms>
  150.9451  133.6612  159.2782 H   0  0  0  0  0  0  0  0  0  0  0  0  # atno 6907 bound_to 6896
  151.3987  135.0966  159.9559 H   0  0  0  0  0  0  0  0  0  0  0  0  # atno 6908 bound_to 6896
  152.5086  133.8950  159.7467 H   0  0  0  0  0  0  0  0  0  0  0  0  # atno 6909 bound_to 6896
  146.1583  139.6726  142.9051 H   0  0  0  0  0  0  0  0  0  0  0  0  # atno 7974 bound_to 7965
  155.1407  140.3266  155.4453 H   0  0  0  0  0  0  0  0  0  0  0  0  # atno 8008 bound_to 7997
  156.2606  140.1994  156.6472 H   0  0  0  0  0  0  0  0  0  0  0  0  # atno 8009 bound_to 7997
  154.6544  140.0554  156.9979 H   0  0  0  0  0  0  0  0  0  0  0  0  # atno 8010 bound_to 7997
  139.5911  144.7025  151.3289 H   0  0  0  0  0  0  0  0  0  0  0  0  # atno 10167 bound_to 10162
  156.0410  130.4330  150.2288 H   0  0  0  0  0  0  0  0  0  0  0  0  # atno 10718 bound_to 10713
  153.3887  135.3887  155.1908 H   0  0  0  0  0  0  0  0  0  0  0  0  # atno 10763 bound_to 10752
  154.8717  135.3743  154.4764 H   0  0  0  0  0  0  0  0  0  0  0  0  # atno 10764 bound_to 10752
  153.5249  135.7086  153.5774 H   0  0  0  0  0  0  0  0  0  0  0  0  # atno 10765 bound_to 10752
  139.8771  134.9097  156.4612 H   0  0  0  0  0  0  0  0  0  0  0  0  # atno 11005 bound_to 11000
  145.4653  141.0434  143.2728 LP  0  0  0  0  0  0  0  0  0  0  0  0  # atno 17320 bound_to 7965
  144.7992  139.6174  143.7079 LP  0  0  0  0  0  0  0  0  0  0  0  0  # atno 17321 bound_to 7965
  140.7173  143.7231  150.7681 LP  0  0  0  0  0  0  0  0  0  0  0  0  # atno 17342 bound_to 10162
  140.0787  143.4990  152.2542 LP  0  0  0  0  0  0  0  0  0  0  0  0  # atno 17343 bound_to 10162
  157.0383  131.0027  151.3291 LP  0  0  0  0  0  0  0  0  0  0  0  0  # atno 17370 bound_to 10713
  157.5228  130.8009  149.7828 LP  0  0  0  0  0  0  0  0  0  0  0  0  # atno 17371 bound_to 10713
  140.8862  133.7881  155.9521 LP  0  0  0  0  0  0  0  0  0  0  0  0  # atno 17394 bound_to 11000
  140.8801  134.2621  157.5148 LP  0  0  0  0  0  0  0  0  0  0  0  0  # atno 17395 bound_to 11000

$$$$
