AV-unprocessed.smi:639|AV-procd|sdf|3146|dock1
  -GOLD-   22720 0 73D 1   1.00000     0.00000
 Structure written by MMmdl.
 23 24  0  0  0  0  0  0  0  0  2 V2000
  153.3644  142.9137  160.3269 C   0  0  0  0  0  0  0  0  0  0  0  0
  152.3583  142.5524  159.3516 N   0  0  0  0  0  0  0  0  0  0  0  0
  152.1143  141.3223  158.7819 C   0  0  0  0  0  0  0  0  0  0  0  0
  151.0674  141.4650  157.9122 C   0  0  0  0  0  0  0  0  0  0  0  0
  150.4148  140.4112  157.0366 C   0  0  1  0  0  0  0  0  0  0  0  0
  149.8826  139.2240  157.8622 C   0  0  0  0  0  0  0  0  0  0  0  0
  149.3587  140.9565  156.2085 N   0  0  0  0  0  0  0  0  0  0  0  0
  149.6564  140.8605  154.9135 C   0  0  0  0  0  0  0  0  0  0  0  0
  148.8944  141.2754  154.0433 O   0  0  0  0  0  0  0  0  0  0  0  0
  150.8558  140.2673  154.7549 N   0  5  0  0  0  0  0  0  0  0  0  0
  151.3954  139.9487  155.9519 C   0  0  0  0  0  0  0  0  0  0  0  0
  152.4584  139.3881  156.2181 O   0  0  0  0  0  0  0  0  0  0  0  0
  150.7410  142.8489  158.0301 C   0  0  0  0  0  0  0  0  0  0  0  0
  151.5108  143.4939  158.8917 N   0  0  0  0  0  0  0  0  0  0  0  0
  153.9625  142.0403  160.5886 H   0  0  0  0  0  0  0  0  0  0  0  0
  152.8843  143.2980  161.2272 H   0  0  0  0  0  0  0  0  0  0  0  0
  154.0196  143.6810  159.9136 H   0  0  0  0  0  0  0  0  0  0  0  0
  152.7018  140.4518  159.0345 H   0  0  0  0  0  0  0  0  0  0  0  0
  150.6777  138.7487  158.4377 H   0  0  0  0  0  0  0  0  0  0  0  0
  149.4387  138.4584  157.2244 H   0  0  0  0  0  0  0  0  0  0  0  0
  149.1161  139.5494  158.5661 H   0  0  0  0  0  0  0  0  0  0  0  0
  148.5143  141.3671  156.5785 H   0  0  0  0  0  0  0  0  0  0  0  0
  149.9683  143.4021  157.5167 H   0  0  0  0  0  0  0  0  0  0  0  0
  1  2  1  0  0  0  0
  1 15  1  0  0  0  0
  1 16  1  0  0  0  0
  1 17  1  0  0  0  0
  2 14  1  0  0  0  0
  2  3  1  0  0  0  0
  3  4  2  0  0  0  0
  3 18  1  0  0  0  0
  4  5  1  0  0  0  0
  4 13  1  0  0  0  0
  5 11  1  0  0  0  0
  5  6  1  0  0  0  0
  5  7  1  0  0  0  0
  6 19  1  0  0  0  0
  6 20  1  0  0  0  0
  6 21  1  0  0  0  0
  7  8  1  0  0  0  0
  7 22  1  0  0  0  0
  8  9  2  0  0  0  0
  8 10  1  0  0  0  0
 10 11  1  0  0  0  0
 11 12  2  0  0  0  0
 13 14  2  0  0  0  0
 13 23  1  0  0  0  0
M  CHG  1  10  -1
M  END
> <s_m_source_file>
AV-unprocessed.smi

> <i_m_source_file_index>
639

> <i_lp_mmshare_version>
43012

> <i_f3d_flags>
0

> <s_epik_input>
W0NIM11uMVtjSF1jKFtjSF1uMSlbQ0BAXTIoW0NIM10pW05IXUMoPU8pW05IXUMyPU8=

> <s_epik_cmdline>
J2VwaWtfcHl0aG9uJywgJy1waCcsICc3LjAnLCAnLXRuJywgJzgnLCAnLW1hJywgJzIwMCcsICctbWV0YWxfYmluZGluZycsICctaW1hZScsICc8aW5maWxlLm1hZT4nLCAnLW9tYWUnLCAnPG91dGZpbGUubWFlPic=

> <r_lp_tautomer_probability>
1

> <r_epik_Ionization_Penalty>
1.82128

> <r_epik_Ionization_Penalty_Charging>
1.82122

> <r_epik_Ionization_Penalty_Neutral>
5.526e-05

> <r_epik_State_Penalty>
1.93645

> <r_epik_Charging_Adjusted_Penalty>
3.75767

> <i_epik_Tot_Q>
-1

> <i_epik_Tot_abs_Q>
1

> <r_epik_Metal_State_Penalty>
0.532903

> <b_epik_Metal_Only>
0

> <s_lp_Force_Field>
OPLS_2005

> <r_lp_Energy>
3.65424

> <b_lp_Chiralities_Consistent>
1

> <s_lp_Variant>
AV-unprocessed.smi:639-3

> <Gold.Version>
5.8.1

> <Gold.Id.Protein>
6NUR|6NUR_protein|mol2

> <Gold.PLP.Fitness>
36.2718

> <Gold.PLP.PLP>
-24.9068

> <Gold.PLP.part.hbond>
-3.7626

> <Gold.PLP.part.metal>
0.0000

> <Gold.PLP.part.buried>
-3.5433

> <Gold.PLP.part.nonpolar>
-18.6242

> <Gold.PLP.part.repulsive>
0.7375

> <Gold.PLP.ligand.clash>
0.0000

> <Gold.PLP.ligand.torsion>
0.0615

> <Gold.PLP.Chemscore.Hbond>
2.8000

> <Gold.PLP.Chemscore.CHOScore>
1.0000

> <Gold.PLP.Chemscore.Metal>
0.0000

> <Gold.Chemscore.Hbonds>
donor molecule, donor type, donor heavy atom, donor atom, acceptor molecule, acceptor atom, score
      P1  H  7989  7998       L1    10  1.00
      P1  H  7997  8008       L1    12  1.00
      P1  H  8011  8017       L1     9  0.36
      L1  C    13    23       P1  8028  1.00

> <Gold.PLP.Chemscore.Internal.Correction>
0.0881

> <Gold.Rescore>
     Score         DG    S(hbond)    S(metal)    S(lipo)     H(rot)  DE(clash)    DE(int)     intcor
     14.60     -14.80       2.16        0.00      39.86       1.00       0.15       0.05       ----

> <Gold.Chemscore.Fitness>
14.6005

> <Gold.Chemscore.DG>
-14.8013

> <Gold.Chemscore.ZeroCoef>
-5.4800

> <Gold.Chemscore.Hbond>
2.1611

> <Gold.Chemscore.Metal>
0.0000

> <Gold.Chemscore.Lipo>
39.8576

> <Gold.Chemscore.Internal_Hbond>
0.0000

> <Gold.Chemscore.DEClash>
0.1513

> <Gold.Chemscore.DEInternal>
0.0495

> <Gold.Chemscore.Rot>
1.0000

> <Gold.Chemscore.Internal.Correction>
   9.000000E+99

> <Gold.Chemscore.Hbonds>
donor molecule, donor type, donor heavy atom, donor atom, acceptor molecule, acceptor atom, score
      P1  H  7989  7998       L1    10  0.77
      P1  H  7997  8008       L1    12  0.94
      P1  H  8011  8017       L1     9  0.35

> <Gold.Chemscore.Hbond.Weighted>
-7.2180

> <Gold.Chemscore.Metal.Weighted>
-0.0000

> <Gold.Chemscore.Lipo.Weighted>
-4.6633

> <Gold.Chemscore.Internal_Hbond.Weighted>
0.0000

> <Gold.Chemscore.DEClash.Weighted>
0.1513

> <Gold.Chemscore.DEInternal.Weighted>
0.0495

> <Gold.Chemscore.Rot.Weighted>
2.5600

> <Gold.Chemscore.Internal.Correction.Weighted>
   9.000000E+99

> <Gold.Protein.RotatedTorsions>
[ 6907 6896 6895 6894 ] final  164.19 input  -60.11 | X-H torsion
[ 7974 7965 7964 7962 ] final   46.97 input  175.53 | X-H torsion
[ 8008 7997 7996 7995 ] final  -47.03 input   59.86 | X-H torsion
[ 10167 10162 10161 10158 ] final -161.59 input  -65.29 | X-H torsion
[ 10718 10713 10712 10709 ] final -114.16 input   66.30 | X-H torsion
[ 10763 10752 10751 10750 ] final  169.60 input  -60.55 | X-H torsion
[ 11005 11000 10999 10996 ] final   -5.85 input  -57.11 | X-H torsion

> <Gold.Protein.ActiveResidues>
 VAL166  LYS551  ARG553  GLY616  TRP617  ASP618  TYR619  PRO620  LYS621  CYS622 
 ASP623  PHE694  ASN695  SER759  ASP760  ASP761  ALA762  ILE779  LEU786  VAL792 
 PHE793  MET794  SER795  GLU796  ALA797  LYS798  CYS799  TRP800  GLU811  SER814 

> <Gold.Protein.RotatedAtoms>
  151.9137  133.3567  159.3872 H   0  0  0  0  0  0  0  0  0  0  0  0  # atno 6907 bound_to 6896
  150.7052  134.4706  159.5433 H   0  0  0  0  0  0  0  0  0  0  0  0  # atno 6908 bound_to 6896
  152.2317  134.8316  160.0523 H   0  0  0  0  0  0  0  0  0  0  0  0  # atno 6909 bound_to 6896
  146.0341  139.4799  142.9819 H   0  0  0  0  0  0  0  0  0  0  0  0  # atno 7974 bound_to 7965
  154.4013  140.1356  156.4109 H   0  0  0  0  0  0  0  0  0  0  0  0  # atno 8008 bound_to 7997
  155.7735  140.3483  155.5239 H   0  0  0  0  0  0  0  0  0  0  0  0  # atno 8009 bound_to 7997
  155.8744  140.0977  157.1519 H   0  0  0  0  0  0  0  0  0  0  0  0  # atno 8010 bound_to 7997
  139.6454  144.0182  152.2123 H   0  0  0  0  0  0  0  0  0  0  0  0  # atno 10167 bound_to 10162
  156.0812  130.6011  150.8737 H   0  0  0  0  0  0  0  0  0  0  0  0  # atno 10718 bound_to 10713
  154.3854  135.2753  155.2186 H   0  0  0  0  0  0  0  0  0  0  0  0  # atno 10763 bound_to 10752
  154.4275  135.5985  153.6051 H   0  0  0  0  0  0  0  0  0  0  0  0  # atno 10764 bound_to 10752
  152.9833  135.5987  154.4102 H   0  0  0  0  0  0  0  0  0  0  0  0  # atno 10765 bound_to 10752
  140.6957  133.9033  155.8648 H   0  0  0  0  0  0  0  0  0  0  0  0  # atno 11005 bound_to 11000
  145.6993  141.0141  143.1513 LP  0  0  0  0  0  0  0  0  0  0  0  0  # atno 17320 bound_to 7965
  144.7043  139.8625  143.7434 LP  0  0  0  0  0  0  0  0  0  0  0  0  # atno 17321 bound_to 7965
  139.9882  144.6380  150.7838 LP  0  0  0  0  0  0  0  0  0  0  0  0  # atno 17342 bound_to 10162
  140.7512  143.2968  151.3183 LP  0  0  0  0  0  0  0  0  0  0  0  0  # atno 17343 bound_to 10162
  157.5929  131.0944  150.9089 LP  0  0  0  0  0  0  0  0  0  0  0  0  # atno 17370 bound_to 10713
  156.9261  130.5333  149.5279 LP  0  0  0  0  0  0  0  0  0  0  0  0  # atno 17371 bound_to 10713
  141.0205  134.0895  157.4125 LP  0  0  0  0  0  0  0  0  0  0  0  0  # atno 17394 bound_to 11000
  139.8911  135.0116  156.6772 LP  0  0  0  0  0  0  0  0  0  0  0  0  # atno 17395 bound_to 11000

$$$$
