AV-unprocessed.smi:2888|AV-procd|sdf|11100|dock1
  -GOLD-   2272015573D 1   1.00000     0.00000
 Structure written by MMmdl.
 33 35  0  0  0  0  0  0  0  0  1 V2000
  153.9518  140.7776  160.5810 C   0  0  0  0  0  0  0  0  0  0  0  0
  153.0422  141.6920  159.7887 C   0  0  0  0  0  0  0  0  0  0  0  0
  152.9699  143.0753  160.0554 C   0  0  0  0  0  0  0  0  0  0  0  0
  152.0840  143.8172  159.2461 C   0  0  0  0  0  0  0  0  0  0  0  0
  151.9122  145.3109  159.4231 C   0  0  0  0  0  0  0  0  0  0  0  0
  151.3503  143.2336  158.2724 N   0  0  0  0  0  0  0  0  0  0  0  0
  151.5006  141.9172  158.1047 C   0  0  0  0  0  0  0  0  0  0  0  0
  150.7417  141.3559  157.0942 N   0  0  0  0  0  0  0  0  0  0  0  0
  150.8105  139.9558  156.6950 C   0  0  2  0  0  0  0  0  0  0  0  0
  152.2006  139.5439  156.1943 C   0  0  0  0  0  0  0  0  0  0  0  0
  151.8832  138.9907  154.7997 C   0  0  1  0  0  0  0  0  0  0  0  0
  151.0990  137.6726  154.8614 C   0  0  0  0  0  0  0  0  0  0  0  0
  149.7146  138.1530  155.2961 C   0  0  0  0  0  0  0  0  0  0  0  0
  149.9406  139.6621  155.4612 C   0  0  2  0  0  0  0  0  0  0  0  0
  150.8601  139.8873  154.4044 O   0  0  0  0  0  0  0  0  0  0  0  0
  152.3071  141.1165  158.8122 N   0  0  0  0  0  0  0  0  0  0  0  0
  154.4401  141.3157  161.3941 H   0  0  0  0  0  0  0  0  0  0  0  0
  154.7242  140.3609  159.9343 H   0  0  0  0  0  0  0  0  0  0  0  0
  153.3817  139.9542  161.0120 H   0  0  0  0  0  0  0  0  0  0  0  0
  153.5591  143.5390  160.8329 H   0  0  0  0  0  0  0  0  0  0  0  0
  152.4543  145.6681  160.2990 H   0  0  0  0  0  0  0  0  0  0  0  0
  150.8585  145.5610  159.5504 H   0  0  0  0  0  0  0  0  0  0  0  0
  152.2890  145.8411  158.5484 H   0  0  0  0  0  0  0  0  0  0  0  0
  150.2344  141.9918  156.4962 H   0  0  0  0  0  0  0  0  0  0  0  0
  150.4889  139.3346  157.5322 H   0  0  0  0  0  0  0  0  0  0  0  0
  152.8708  140.4013  156.1137 H   0  0  0  0  0  0  0  0  0  0  0  0
  152.6770  138.8045  156.8390 H   0  0  0  0  0  0  0  0  0  0  0  0
  152.7420  138.9652  154.1285 H   0  0  0  0  0  0  0  0  0  0  0  0
  151.0493  137.2012  153.8793 H   0  0  0  0  0  0  0  0  0  0  0  0
  151.5410  136.9620  155.5606 H   0  0  0  0  0  0  0  0  0  0  0  0
  148.9798  137.9565  154.5146 H   0  0  0  0  0  0  0  0  0  0  0  0
  149.3698  137.6786  156.2154 H   0  0  0  0  0  0  0  0  0  0  0  0
  149.0235  140.2495  155.4012 H   0  0  0  0  0  0  0  0  0  0  0  0
  1  2  1  0  0  0  0
  1 17  1  0  0  0  0
  1 18  1  0  0  0  0
  1 19  1  0  0  0  0
  2 16  1  0  0  0  0
  2  3  2  0  0  0  0
  3  4  1  0  0  0  0
  3 20  1  0  0  0  0
  4  5  1  0  0  0  0
  4  6  2  0  0  0  0
  5 21  1  0  0  0  0
  5 22  1  0  0  0  0
  5 23  1  0  0  0  0
  6  7  1  0  0  0  0
  7  8  1  0  0  0  0
  7 16  2  0  0  0  0
  8  9  1  0  0  0  0
  8 24  1  0  0  0  0
  9 14  1  0  0  0  0
  9 10  1  0  0  0  0
  9 25  1  0  0  0  0
 10 11  1  0  0  0  0
 10 26  1  0  0  0  0
 10 27  1  0  0  0  0
 11 15  1  0  0  0  0
 11 12  1  0  0  0  0
 11 28  1  0  0  0  0
 12 13  1  0  0  0  0
 12 29  1  0  0  0  0
 12 30  1  0  0  0  0
 13 14  1  0  0  0  0
 13 31  1  0  0  0  0
 13 32  1  0  0  0  0
 14 15  1  0  0  0  0
 14 33  1  0  0  0  0
M  END
> <s_m_source_file>
AV-unprocessed.smi

> <i_m_source_file_index>
2888

> <i_lp_mmshare_version>
43012

> <i_f3d_flags>
0

> <s_epik_input>
W0NIM11jMVtjSF1jKFtDSDNdKW5jKG4xKVtOSF1bQ0BIXShbQ0gyXVtDQEBIXTIzKVtDQEBIXShPMylbQ0gyXVtDSDJdMg==

> <s_epik_cmdline>
J2VwaWtfcHl0aG9uJywgJy1waCcsICc3LjAnLCAnLXRuJywgJzgnLCAnLW1hJywgJzIwMCcsICctbWV0YWxfYmluZGluZycsICctaW1hZScsICc8aW5maWxlLm1hZT4nLCAnLW9tYWUnLCAnPG91dGZpbGUubWFlPic=

> <r_lp_tautomer_probability>
1

> <r_epik_Ionization_Penalty>
0.00890508

> <r_epik_Ionization_Penalty_Charging>
0

> <r_epik_Ionization_Penalty_Neutral>
0.00890508

> <r_epik_State_Penalty>
0.0067342

> <r_epik_Charging_Adjusted_Penalty>
0.0067342

> <i_epik_Tot_Q>
0

> <i_epik_Tot_abs_Q>
0

> <r_epik_Metal_State_Penalty>
0.00663442

> <b_epik_Metal_Only>
0

> <s_lp_Force_Field>
OPLS_2005

> <r_lp_Energy>
31.5378

> <b_lp_Chiralities_Consistent>
1

> <s_lp_Variant>
AV-unprocessed.smi:2888-1

> <Gold.Version>
5.8.1

> <Gold.Id.Protein>
6NUR|6NUR_protein|mol2

> <Gold.PLP.Fitness>
38.6020

> <Gold.PLP.PLP>
-35.6158

> <Gold.PLP.part.hbond>
-1.0000

> <Gold.PLP.part.metal>
0.0000

> <Gold.PLP.part.buried>
-4.5528

> <Gold.PLP.part.nonpolar>
-30.7516

> <Gold.PLP.part.repulsive>
0.2404

> <Gold.PLP.ligand.clash>
0.0000

> <Gold.PLP.ligand.torsion>
0.0163

> <Gold.PLP.Chemscore.Hbond>
1.0000

> <Gold.PLP.Chemscore.CHOScore>
0.0000

> <Gold.PLP.Chemscore.Metal>
0.0000

> <Gold.Chemscore.Hbonds>
donor molecule, donor type, donor heavy atom, donor atom, acceptor molecule, acceptor atom, score
      P1  H  7989  7998       L1    15  1.00

> <Gold.PLP.Chemscore.Internal.Correction>
0.0187

> <Gold.Rescore>
     Score         DG    S(hbond)    S(metal)    S(lipo)     H(rot)  DE(clash)    DE(int)     intcor
     16.97     -17.06       1.00        0.00      92.42       1.00       0.07       0.02       ----

> <Gold.Chemscore.Fitness>
16.9734

> <Gold.Chemscore.DG>
-17.0634

> <Gold.Chemscore.ZeroCoef>
-5.4800

> <Gold.Chemscore.Hbond>
0.9972

> <Gold.Chemscore.Metal>
0.0000

> <Gold.Chemscore.Lipo>
92.4166

> <Gold.Chemscore.Internal_Hbond>
0.0000

> <Gold.Chemscore.DEClash>
0.0724

> <Gold.Chemscore.DEInternal>
0.0176

> <Gold.Chemscore.Rot>
1.0000

> <Gold.Chemscore.Internal.Correction>
   9.000000E+99

> <Gold.Chemscore.Hbonds>
donor molecule, donor type, donor heavy atom, donor atom, acceptor molecule, acceptor atom, score
      P1  H  7989  7998       L1    15  0.33

> <Gold.Chemscore.Hbond.Weighted>
-3.3306

> <Gold.Chemscore.Metal.Weighted>
-0.0000

> <Gold.Chemscore.Lipo.Weighted>
-10.8127

> <Gold.Chemscore.Internal_Hbond.Weighted>
0.0000

> <Gold.Chemscore.DEClash.Weighted>
0.0724

> <Gold.Chemscore.DEInternal.Weighted>
0.0176

> <Gold.Chemscore.Rot.Weighted>
2.5600

> <Gold.Chemscore.Internal.Correction.Weighted>
   9.000000E+99

> <Gold.Protein.RotatedTorsions>
[ 6907 6896 6895 6894 ] final  135.62 input  -60.11 | X-H torsion
[ 7974 7965 7964 7962 ] final   97.79 input  175.53 | X-H torsion
[ 8008 7997 7996 7995 ] final  -20.69 input   59.86 | X-H torsion
[ 10167 10162 10161 10158 ] final   78.36 input  -65.29 | X-H torsion
[ 10718 10713 10712 10709 ] final  104.55 input   66.30 | X-H torsion
[ 10763 10752 10751 10750 ] final   88.51 input  -60.55 | X-H torsion
[ 11005 11000 10999 10996 ] final   35.88 input  -57.11 | X-H torsion

> <Gold.Protein.ActiveResidues>
 VAL166  LYS551  ARG553  GLY616  TRP617  ASP618  TYR619  PRO620  LYS621  CYS622 
 ASP623  PHE694  ASN695  SER759  ASP760  ASP761  ALA762  ILE779  LEU786  VAL792 
 PHE793  MET794  SER795  GLU796  ALA797  LYS798  CYS799  TRP800  GLU811  SER814 

> <Gold.Protein.RotatedAtoms>
  152.2984  133.5631  159.5602 H   0  0  0  0  0  0  0  0  0  0  0  0  # atno 6907 bound_to 6896
  150.7266  134.0326  159.3747 H   0  0  0  0  0  0  0  0  0  0  0  0  # atno 6908 bound_to 6896
  151.8228  135.0646  160.0478 H   0  0  0  0  0  0  0  0  0  0  0  0  # atno 6909 bound_to 6896
  145.4208  139.2322  143.3197 H   0  0  0  0  0  0  0  0  0  0  0  0  # atno 7974 bound_to 7965
  154.4753  140.2055  155.9893 H   0  0  0  0  0  0  0  0  0  0  0  0  # atno 8008 bound_to 7997
  156.1079  140.3233  155.8002 H   0  0  0  0  0  0  0  0  0  0  0  0  # atno 8009 bound_to 7997
  155.4685  140.0529  157.2973 H   0  0  0  0  0  0  0  0  0  0  0  0  # atno 8010 bound_to 7997
  139.9718  144.5889  150.7979 H   0  0  0  0  0  0  0  0  0  0  0  0  # atno 10167 bound_to 10162
  157.6736  131.0806  150.5723 H   0  0  0  0  0  0  0  0  0  0  0  0  # atno 10718 bound_to 10713
  153.1776  135.4504  154.9986 H   0  0  0  0  0  0  0  0  0  0  0  0  # atno 10763 bound_to 10752
  154.8008  135.3255  154.7556 H   0  0  0  0  0  0  0  0  0  0  0  0  # atno 10764 bound_to 10752
  153.8024  135.6961  153.4908 H   0  0  0  0  0  0  0  0  0  0  0  0  # atno 10765 bound_to 10752
  140.2382  134.3446  155.7936 H   0  0  0  0  0  0  0  0  0  0  0  0  # atno 11005 bound_to 11000
  146.2658  140.4932  142.8835 LP  0  0  0  0  0  0  0  0  0  0  0  0  # atno 17320 bound_to 7965
  144.8247  140.6608  143.6330 LP  0  0  0  0  0  0  0  0  0  0  0  0  # atno 17321 bound_to 7965
  140.7519  143.2981  151.3151 LP  0  0  0  0  0  0  0  0  0  0  0  0  # atno 17342 bound_to 10162
  139.6476  144.0423  152.2602 LP  0  0  0  0  0  0  0  0  0  0  0  0  # atno 17343 bound_to 10162
  156.6024  130.4358  149.5892 LP  0  0  0  0  0  0  0  0  0  0  0  0  # atno 17370 bound_to 10713
  156.2496  130.6899  151.1632 LP  0  0  0  0  0  0  0  0  0  0  0  0  # atno 17371 bound_to 10713
  141.2212  133.7284  156.8843 LP  0  0  0  0  0  0  0  0  0  0  0  0  # atno 17394 bound_to 11000
  140.1680  134.9120  157.2798 LP  0  0  0  0  0  0  0  0  0  0  0  0  # atno 17395 bound_to 11000

$$$$
