AV-unprocessed.smi:2073|AV-procd|sdf|8450|dock8
  -GOLD-   2272011143D 1   1.00000     0.00000
 Structure written by MMmdl.
 28 28  0  0  0  0  0  0  0  0  1 V2000
  153.0773  144.2373  158.0811 C   0  0  0  0  0  0  0  0  0  0  0  0
  151.5604  143.9854  158.0595 C   0  0  0  0  0  0  0  0  0  0  0  0
  150.9641  144.0523  159.4750 C   0  0  0  0  0  0  0  0  0  0  0  0
  151.2423  142.6369  157.3990 C   0  0  0  0  0  0  0  0  0  0  0  0
  151.6640  141.5964  157.9060 O   0  0  0  0  0  0  0  0  0  0  0  0
  150.5003  142.6930  156.2764 N   0  0  0  0  0  0  0  0  0  0  0  0
  150.0669  141.6204  155.4541 C   0  0  0  0  0  0  0  0  0  0  0  0
  150.7530  140.4871  155.2707 N   0  0  0  0  0  0  0  0  0  0  0  0
  150.1017  139.6073  154.3995 C   0  0  0  0  0  0  0  0  0  0  0  0
  150.7268  138.2837  154.0671 C   0  0  0  0  0  0  0  0  0  0  0  0
  152.0658  138.1322  154.7915 C   0  0  0  0  0  0  0  0  0  0  0  0
  152.9832  139.0807  154.5822 N   0  0  0  0  0  0  0  0  0  0  0  0
  152.2688  137.1732  155.5331 O   0  0  0  0  0  0  0  0  0  0  0  0
  148.9015  140.0925  153.9385 C   0  0  0  0  0  0  0  0  0  0  0  0
  148.5490  141.6782  154.5717 S   0  0  0  0  0  0  0  0  0  0  0  0
  153.5038  144.1805  157.0786 H   0  0  0  0  0  0  0  0  0  0  0  0
  153.5971  143.5102  158.7065 H   0  0  0  0  0  0  0  0  0  0  0  0
  153.3014  145.2291  158.4745 H   0  0  0  0  0  0  0  0  0  0  0  0
  151.0998  144.7771  157.4659 H   0  0  0  0  0  0  0  0  0  0  0  0
  149.8892  143.8672  159.4623 H   0  0  0  0  0  0  0  0  0  0  0  0
  151.1202  145.0370  159.9159 H   0  0  0  0  0  0  0  0  0  0  0  0
  151.4211  143.3176  160.1395 H   0  0  0  0  0  0  0  0  0  0  0  0
  150.2207  143.6138  155.9714 H   0  0  0  0  0  0  0  0  0  0  0  0
  150.0666  137.4606  154.3447 H   0  0  0  0  0  0  0  0  0  0  0  0
  150.8902  138.1957  152.9922 H   0  0  0  0  0  0  0  0  0  0  0  0
  153.8780  139.0269  155.0479 H   0  0  0  0  0  0  0  0  0  0  0  0
  152.7752  139.8538  153.9671 H   0  0  0  0  0  0  0  0  0  0  0  0
  148.2077  139.6147  153.2629 H   0  0  0  0  0  0  0  0  0  0  0  0
  1  2  1  0  0  0  0
  1 16  1  0  0  0  0
  1 17  1  0  0  0  0
  1 18  1  0  0  0  0
  2  3  1  0  0  0  0
  2  4  1  0  0  0  0
  2 19  1  0  0  0  0
  3 20  1  0  0  0  0
  3 21  1  0  0  0  0
  3 22  1  0  0  0  0
  4  5  2  0  0  0  0
  4  6  1  0  0  0  0
  6  7  1  0  0  0  0
  6 23  1  0  0  0  0
  7 15  1  0  0  0  0
  7  8  2  0  0  0  0
  8  9  1  0  0  0  0
  9 10  1  0  0  0  0
  9 14  2  0  0  0  0
 10 11  1  0  0  0  0
 10 24  1  0  0  0  0
 10 25  1  0  0  0  0
 11 12  1  0  0  0  0
 11 13  2  0  0  0  0
 12 26  1  0  0  0  0
 12 27  1  0  0  0  0
 14 15  1  0  0  0  0
 14 28  1  0  0  0  0
M  END
> <s_m_source_file>
AV-unprocessed.smi

> <i_m_source_file_index>
2073

> <i_lp_mmshare_version>
43012

> <i_f3d_flags>
0

> <s_epik_input>
W0NIM11bQ0hdKFtDSDNdKUMoPU8pW05IXWMxbmMoW2NIXXMxKVtDSDJdQyg9TylbTkgyXQ==

> <s_epik_cmdline>
J2VwaWtfcHl0aG9uJywgJy1waCcsICc3LjAnLCAnLXRuJywgJzgnLCAnLW1hJywgJzIwMCcsICctbWV0YWxfYmluZGluZycsICctaW1hZScsICc8aW5maWxlLm1hZT4nLCAnLW9tYWUnLCAnPG91dGZpbGUubWFlPic=

> <r_lp_tautomer_probability>
1

> <r_epik_Ionization_Penalty>
0.000158353

> <r_epik_Ionization_Penalty_Charging>
0

> <r_epik_Ionization_Penalty_Neutral>
0.000158353

> <r_epik_State_Penalty>
-0

> <r_epik_Charging_Adjusted_Penalty>
0

> <i_epik_Tot_Q>
0

> <i_epik_Tot_abs_Q>
0

> <r_epik_Metal_State_Penalty>
0.0986865

> <b_epik_Metal_Only>
0

> <s_lp_Force_Field>
OPLS_2005

> <r_lp_Energy>
2.86857

> <b_lp_Chiralities_Consistent>
1

> <s_lp_Variant>
AV-unprocessed.smi:2073-1

> <Gold.Version>
5.8.1

> <Gold.Id.Protein>
6NUR|6NUR_protein|mol2

> <Gold.PLP.Fitness>
39.1678

> <Gold.PLP.PLP>
-33.1594

> <Gold.PLP.part.hbond>
-3.0000

> <Gold.PLP.part.metal>
0.0000

> <Gold.PLP.part.buried>
-2.0934

> <Gold.PLP.part.nonpolar>
-28.7798

> <Gold.PLP.part.repulsive>
0.5125

> <Gold.PLP.ligand.clash>
0.0000

> <Gold.PLP.ligand.torsion>
0.2257

> <Gold.PLP.Chemscore.Hbond>
1.8160

> <Gold.PLP.Chemscore.CHOScore>
0.3316

> <Gold.PLP.Chemscore.Metal>
0.0000

> <Gold.Chemscore.Hbonds>
donor molecule, donor type, donor heavy atom, donor atom, acceptor molecule, acceptor atom, score
      L1  H     6    23       P1  8028  0.96
      P1  H 10752 10764       L1    13  0.82
      L1  C    14    28       P1  7957  0.29

> <Gold.PLP.Chemscore.Internal.Correction>
0.0171

> <Gold.Rescore>
     Score         DG    S(hbond)    S(metal)    S(lipo)     H(rot)  DE(clash)    DE(int)     intcor
     12.49     -14.39       1.77        0.00      68.01       1.93       0.45       1.44       ----

> <Gold.Chemscore.Fitness>
12.4928

> <Gold.Chemscore.DG>
-14.3859

> <Gold.Chemscore.ZeroCoef>
-5.4800

> <Gold.Chemscore.Hbond>
1.7652

> <Gold.Chemscore.Metal>
0.0000

> <Gold.Chemscore.Lipo>
68.0079

> <Gold.Chemscore.Internal_Hbond>
0.0000

> <Gold.Chemscore.DEClash>
0.4522

> <Gold.Chemscore.DEInternal>
1.4409

> <Gold.Chemscore.Rot>
1.9323

> <Gold.Chemscore.Internal.Correction>
   9.000000E+99

> <Gold.Chemscore.Hbonds>
donor molecule, donor type, donor heavy atom, donor atom, acceptor molecule, acceptor atom, score
      L1  H     6    23       P1  8028  0.92
      P1  H 10752 10764       L1    13  0.80

> <Gold.Chemscore.Hbond.Weighted>
-5.8957

> <Gold.Chemscore.Metal.Weighted>
-0.0000

> <Gold.Chemscore.Lipo.Weighted>
-7.9569

> <Gold.Chemscore.Internal_Hbond.Weighted>
0.0000

> <Gold.Chemscore.DEClash.Weighted>
0.4522

> <Gold.Chemscore.DEInternal.Weighted>
1.4409

> <Gold.Chemscore.Rot.Weighted>
4.9468

> <Gold.Chemscore.Internal.Correction.Weighted>
   9.000000E+99

> <Gold.Protein.RotatedTorsions>
[ 6907 6896 6895 6894 ] final -139.34 input  -60.11 | X-H torsion
[ 7974 7965 7964 7962 ] final -115.86 input  175.53 | X-H torsion
[ 8008 7997 7996 7995 ] final  128.82 input   59.86 | X-H torsion
[ 10167 10162 10161 10158 ] final  177.75 input  -65.29 | X-H torsion
[ 10718 10713 10712 10709 ] final  176.01 input   66.30 | X-H torsion
[ 10763 10752 10751 10750 ] final  -42.78 input  -60.55 | X-H torsion
[ 11005 11000 10999 10996 ] final    2.78 input  -57.11 | X-H torsion

> <Gold.Protein.ActiveResidues>
 VAL166  LYS551  ARG553  GLY616  TRP617  ASP618  TYR619  PRO620  LYS621  CYS622 
 ASP623  PHE694  ASN695  SER759  ASP760  ASP761  ALA762  ILE779  LEU786  VAL792 
 PHE793  MET794  SER795  GLU796  ALA797  LYS798  CYS799  TRP800  GLU811  SER814 

> <Gold.Protein.RotatedAtoms>
  151.0465  133.5661  159.2645 H   0  0  0  0  0  0  0  0  0  0  0  0  # atno 6907 bound_to 6896
  151.2688  135.0677  159.9136 H   0  0  0  0  0  0  0  0  0  0  0  0  # atno 6908 bound_to 6896
  152.5374  134.0199  159.8030 H   0  0  0  0  0  0  0  0  0  0  0  0  # atno 6909 bound_to 6896
  145.1035  140.8567  143.3912 H   0  0  0  0  0  0  0  0  0  0  0  0  # atno 7974 bound_to 7965
  156.2923  140.2635  156.2498 H   0  0  0  0  0  0  0  0  0  0  0  0  # atno 8008 bound_to 7997
  154.9893  140.0389  157.2331 H   0  0  0  0  0  0  0  0  0  0  0  0  # atno 8009 bound_to 7997
  154.7700  140.2776  155.6150 H   0  0  0  0  0  0  0  0  0  0  0  0  # atno 8010 bound_to 7997
  139.5266  144.2761  152.0587 H   0  0  0  0  0  0  0  0  0  0  0  0  # atno 10167 bound_to 10162
  156.9264  130.9957  151.2995 H   0  0  0  0  0  0  0  0  0  0  0  0  # atno 10718 bound_to 10713
  153.9847  135.6712  153.4751 H   0  0  0  0  0  0  0  0  0  0  0  0  # atno 10763 bound_to 10752
  153.0732  135.4963  154.8346 H   0  0  0  0  0  0  0  0  0  0  0  0  # atno 10764 bound_to 10752
  154.7144  135.3104  154.9109 H   0  0  0  0  0  0  0  0  0  0  0  0  # atno 10765 bound_to 10752
  140.6004  133.9841  155.8129 H   0  0  0  0  0  0  0  0  0  0  0  0  # atno 11005 bound_to 11000
  145.0929  139.2877  143.5726 LP  0  0  0  0  0  0  0  0  0  0  0  0  # atno 17320 bound_to 7965
  146.3529  140.0471  142.8638 LP  0  0  0  0  0  0  0  0  0  0  0  0  # atno 17321 bound_to 7965
  140.2218  144.4458  150.6338 LP  0  0  0  0  0  0  0  0  0  0  0  0  # atno 17342 bound_to 10162
  140.6413  143.2204  151.6283 LP  0  0  0  0  0  0  0  0  0  0  0  0  # atno 17343 bound_to 10162
  157.5875  130.8420  149.8610 LP  0  0  0  0  0  0  0  0  0  0  0  0  # atno 17370 bound_to 10713
  156.0467  130.3726  150.1300 LP  0  0  0  0  0  0  0  0  0  0  0  0  # atno 17371 bound_to 10713
  141.0876  133.9967  157.3289 LP  0  0  0  0  0  0  0  0  0  0  0  0  # atno 17394 bound_to 11000
  139.9235  135.0201  156.8149 LP  0  0  0  0  0  0  0  0  0  0  0  0  # atno 17395 bound_to 11000

$$$$
