AV-unprocessed.smi:91|AV-procd|sdf|837|dock9
  -GOLD-   2262017263D 1   1.00000     0.00000
 Structure written by MMmdl.
 60 63  0  0  0  0  0  0  0  0  1 V2000
  155.3040  140.1754  160.9479 C   0  0  0  0  0  0  0  0  0  0  0  0
  154.1354  140.9738  160.8862 O   0  0  0  0  0  0  0  0  0  0  0  0
  153.3894  140.7538  159.6995 C   0  0  0  0  0  0  0  0  0  0  0  0
  152.1943  141.7152  159.6411 C   0  0  2  0  0  0  0  0  0  0  0  0
  151.1202  141.2793  158.6288 C   0  0  0  0  0  0  0  0  0  0  0  0
  150.0768  142.2946  158.5511 N   0  0  0  0  0  0  0  0  0  0  0  0
  148.9005  141.9712  157.9584 C   0  0  0  0  0  0  0  0  0  0  0  0
  147.7553  141.9365  158.6912 N   0  0  0  0  0  0  0  0  0  0  0  0
  146.5943  141.6136  158.1132 C   0  0  0  0  0  0  0  0  0  0  0  0
  146.3551  141.3008  156.8385 N   0  0  0  0  0  0  0  0  0  0  0  0
  147.4980  141.3441  156.0959 C   0  0  0  0  0  0  0  0  0  0  0  0
  148.8005  141.6660  156.5717 C   0  0  0  0  0  0  0  0  0  0  0  0
  149.7120  141.6209  155.5230 N   0  0  0  0  0  0  0  0  0  0  0  0
  148.9913  141.2855  154.4882 C   0  0  0  0  0  0  0  0  0  0  0  0
  147.6507  141.1061  154.7408 N   0  0  0  0  0  0  0  0  0  0  0  0
  146.6322  140.7433  153.7707 C   0  0  0  0  0  0  0  0  0  0  0  0
  146.7445  139.2718  153.3007 C   0  0  2  0  0  0  0  0  0  0  0  0
  146.5072  139.1171  151.7785 C   0  0  0  0  0  0  0  0  0  0  0  0
  146.8307  137.8149  151.3352 O   0  0  0  0  0  0  0  0  0  0  0  0
  145.8403  138.3329  154.1389 C   0  0  1  0  0  0  0  0  0  0  0  0
  146.2503  136.8705  154.1264 C   0  0  0  0  0  0  0  0  0  0  0  0
  145.5229  136.3245  155.3490 C   0  0  0  0  0  0  0  0  0  0  0  0
  145.5158  137.3895  156.2920 O   0  0  0  0  0  0  0  0  0  0  0  0
  145.8527  138.6138  155.6465 C   0  0  0  0  0  0  0  0  0  0  0  0
  150.5955  143.6181  158.2247 C   0  0  0  0  0  0  0  0  0  0  0  0
  151.6839  144.0492  159.2326 C   0  0  0  0  0  0  0  0  0  0  0  0
  152.4234  145.2860  158.7000 C   0  0  0  0  0  0  0  0  0  0  0  0
  151.0849  144.3739  160.6178 C   0  0  0  0  0  0  0  0  0  0  0  0
  152.6780  143.0221  159.3271 O   0  0  0  0  0  0  0  0  0  0  0  0
  155.8400  140.3807  161.8743 H   0  0  0  0  0  0  0  0  0  0  0  0
  155.9745  140.3934  160.1155 H   0  0  0  0  0  0  0  0  0  0  0  0
  155.0574  139.1132  160.9299 H   0  0  0  0  0  0  0  0  0  0  0  0
  154.0300  140.9128  158.8307 H   0  0  0  0  0  0  0  0  0  0  0  0
  153.0380  139.7216  159.6592 H   0  0  0  0  0  0  0  0  0  0  0  0
  151.7529  141.7362  160.6375 H   0  0  0  0  0  0  0  0  0  0  0  0
  151.5596  141.1427  157.6395 H   0  0  0  0  0  0  0  0  0  0  0  0
  150.6959  140.3214  158.9329 H   0  0  0  0  0  0  0  0  0  0  0  0
  145.7340  141.6057  158.7660 H   0  0  0  0  0  0  0  0  0  0  0  0
  149.4185  141.1656  153.5032 H   0  0  0  0  0  0  0  0  0  0  0  0
  145.6626  140.9267  154.2336 H   0  0  0  0  0  0  0  0  0  0  0  0
  146.6976  141.4224  152.9199 H   0  0  0  0  0  0  0  0  0  0  0  0
  147.7752  138.9622  153.4803 H   0  0  0  0  0  0  0  0  0  0  0  0
  145.4694  139.3266  151.5199 H   0  0  0  0  0  0  0  0  0  0  0  0
  147.1043  139.8351  151.2169 H   0  0  0  0  0  0  0  0  0  0  0  0
  147.4386  137.4299  151.9480 H   0  0  0  0  0  0  0  0  0  0  0  0
  144.8105  138.4037  153.7848 H   0  0  0  0  0  0  0  0  0  0  0  0
  145.9689  136.3513  153.2100 H   0  0  0  0  0  0  0  0  0  0  0  0
  147.3290  136.7738  154.2584 H   0  0  0  0  0  0  0  0  0  0  0  0
  144.4911  136.0754  155.0977 H   0  0  0  0  0  0  0  0  0  0  0  0
  145.9991  135.4320  155.7554 H   0  0  0  0  0  0  0  0  0  0  0  0
  146.8489  138.9086  155.9789 H   0  0  0  0  0  0  0  0  0  0  0  0
  145.1574  139.4055  155.9269 H   0  0  0  0  0  0  0  0  0  0  0  0
  151.0176  143.5743  157.2196 H   0  0  0  0  0  0  0  0  0  0  0  0
  149.8044  144.3667  158.1936 H   0  0  0  0  0  0  0  0  0  0  0  0
  151.7457  146.1313  158.5755 H   0  0  0  0  0  0  0  0  0  0  0  0
  152.8826  145.0851  157.7315 H   0  0  0  0  0  0  0  0  0  0  0  0
  153.2170  145.5946  159.3810 H   0  0  0  0  0  0  0  0  0  0  0  0
  150.4193  145.2359  160.5610 H   0  0  0  0  0  0  0  0  0  0  0  0
  151.8679  144.6088  161.3394 H   0  0  0  0  0  0  0  0  0  0  0  0
  150.4979  143.5500  161.0224 H   0  0  0  0  0  0  0  0  0  0  0  0
  1  2  1  0  0  0  0
  1 30  1  0  0  0  0
  1 31  1  0  0  0  0
  1 32  1  0  0  0  0
  2  3  1  0  0  0  0
  3  4  1  0  0  0  0
  3 33  1  0  0  0  0
  3 34  1  0  0  0  0
  4 29  1  0  0  0  0
  4  5  1  0  0  0  0
  4 35  1  0  0  0  0
  5  6  1  0  0  0  0
  5 36  1  0  0  0  0
  5 37  1  0  0  0  0
  6  7  1  0  0  0  0
  6 25  1  0  0  0  0
  7 12  1  0  0  0  0
  7  8  2  0  0  0  0
  8  9  1  0  0  0  0
  9 10  2  0  0  0  0
  9 38  1  0  0  0  0
 10 11  1  0  0  0  0
 11 15  1  0  0  0  0
 11 12  2  0  0  0  0
 12 13  1  0  0  0  0
 13 14  2  0  0  0  0
 14 15  1  0  0  0  0
 14 39  1  0  0  0  0
 15 16  1  0  0  0  0
 16 17  1  0  0  0  0
 16 40  1  0  0  0  0
 16 41  1  0  0  0  0
 17 18  1  0  0  0  0
 17 20  1  0  0  0  0
 17 42  1  0  0  0  0
 18 19  1  0  0  0  0
 18 43  1  0  0  0  0
 18 44  1  0  0  0  0
 19 45  1  0  0  0  0
 20 24  1  0  0  0  0
 20 21  1  0  0  0  0
 20 46  1  0  0  0  0
 21 22  1  0  0  0  0
 21 47  1  0  0  0  0
 21 48  1  0  0  0  0
 22 23  1  0  0  0  0
 22 49  1  0  0  0  0
 22 50  1  0  0  0  0
 23 24  1  0  0  0  0
 24 51  1  0  0  0  0
 24 52  1  0  0  0  0
 25 26  1  0  0  0  0
 25 53  1  0  0  0  0
 25 54  1  0  0  0  0
 26 27  1  0  0  0  0
 26 28  1  0  0  0  0
 26 29  1  0  0  0  0
 27 55  1  0  0  0  0
 27 56  1  0  0  0  0
 27 57  1  0  0  0  0
 28 58  1  0  0  0  0
 28 59  1  0  0  0  0
 28 60  1  0  0  0  0
M  END
> <s_m_source_file>
AV-unprocessed.smi

> <i_m_source_file_index>
91

> <i_lp_mmshare_version>
43012

> <i_f3d_flags>
0

> <s_epik_input>
W0NIM11PW0NIMl1bQ0BASF0oTzEpW0NIMl1OKFtDSDJdQzEoW0NIM10pW0NIM10pYyhuW2NIXW4yKWMoYzIzKW5bY0hdbjNbQ0gyXVtDQEhdKFtDSDJdW09IXSlbQ0BASF00W0NIMl1bQ0gyXU9bQ0gyXTQ=

> <s_epik_cmdline>
J2VwaWtfcHl0aG9uJywgJy1waCcsICc3LjAnLCAnLXRuJywgJzgnLCAnLW1hJywgJzIwMCcsICctbWV0YWxfYmluZGluZycsICctaW1hZScsICc8aW5maWxlLm1hZT4nLCAnLW9tYWUnLCAnPG91dGZpbGUubWFlPic=

> <r_lp_tautomer_probability>
1

> <r_epik_Ionization_Penalty>
8.63591e-05

> <r_epik_Ionization_Penalty_Charging>
0

> <r_epik_Ionization_Penalty_Neutral>
8.63591e-05

> <r_epik_State_Penalty>
-0

> <r_epik_Charging_Adjusted_Penalty>
0

> <i_epik_Tot_Q>
0

> <i_epik_Tot_abs_Q>
0

> <r_epik_Metal_State_Penalty>
-0

> <b_epik_Metal_Only>
0

> <s_lp_Force_Field>
OPLS_2005

> <r_lp_Energy>
47.5582

> <b_lp_Chiralities_Consistent>
1

> <s_lp_Variant>
AV-unprocessed.smi:91-5

> <Gold.Version>
5.8.1

> <Gold.Id.Protein>
6NUR|6NUR_protein|mol2

> <Gold.PLP.Fitness>
51.2625

> <Gold.PLP.PLP>
-45.0686

> <Gold.PLP.part.hbond>
-2.5343

> <Gold.PLP.part.metal>
0.0000

> <Gold.PLP.part.buried>
-5.9296

> <Gold.PLP.part.nonpolar>
-35.7814

> <Gold.PLP.part.repulsive>
0.3325

> <Gold.PLP.ligand.clash>
0.0000

> <Gold.PLP.ligand.torsion>
1.2229

> <Gold.PLP.Chemscore.Hbond>
1.7040

> <Gold.PLP.Chemscore.CHOScore>
1.0000

> <Gold.PLP.Chemscore.Metal>
0.0000

> <Gold.Chemscore.Hbonds>
donor molecule, donor type, donor heavy atom, donor atom, acceptor molecule, acceptor atom, score
      L1  H    19    45       P1  7948  0.70
      P1  H  6934  6946       L1     8  0.01
      P1  H  7954  7966       L1    19  0.65
      L1  C    14    39       P1  7957  0.83

> <Gold.PLP.Chemscore.Internal.Correction>
0.5278

> <Gold.Rescore>
     Score         DG    S(hbond)    S(metal)    S(lipo)     H(rot)  DE(clash)    DE(int)     intcor
     12.85     -15.43       1.38        0.00     112.00       3.03       0.82       1.75       ----

> <Gold.Chemscore.Fitness>
12.8547

> <Gold.Chemscore.DG>
-15.4284

> <Gold.Chemscore.ZeroCoef>
-5.4800

> <Gold.Chemscore.Hbond>
1.3763

> <Gold.Chemscore.Metal>
0.0000

> <Gold.Chemscore.Lipo>
112.0022

> <Gold.Chemscore.Internal_Hbond>
0.0000

> <Gold.Chemscore.DEClash>
0.8203

> <Gold.Chemscore.DEInternal>
1.7534

> <Gold.Chemscore.Rot>
3.0284

> <Gold.Chemscore.Internal.Correction>
   9.000000E+99

> <Gold.Chemscore.Hbonds>
donor molecule, donor type, donor heavy atom, donor atom, acceptor molecule, acceptor atom, score
      L1  H    19    45       P1  7948  0.70
      P1  H  7954  7966       L1    19  0.04

> <Gold.Chemscore.Hbond.Weighted>
-4.5969

> <Gold.Chemscore.Metal.Weighted>
-0.0000

> <Gold.Chemscore.Lipo.Weighted>
-13.1043

> <Gold.Chemscore.Internal_Hbond.Weighted>
0.0000

> <Gold.Chemscore.DEClash.Weighted>
0.8203

> <Gold.Chemscore.DEInternal.Weighted>
1.7534

> <Gold.Chemscore.Rot.Weighted>
7.7528

> <Gold.Chemscore.Internal.Correction.Weighted>
   9.000000E+99

> <Gold.Protein.RotatedTorsions>
[ 6907 6896 6895 6894 ] final  -21.50 input  -60.11 | X-H torsion
[ 7974 7965 7964 7962 ] final  162.64 input  175.53 | X-H torsion
[ 8008 7997 7996 7995 ] final  144.07 input   59.86 | X-H torsion
[ 10167 10162 10161 10158 ] final  -80.72 input  -65.29 | X-H torsion
[ 10718 10713 10712 10709 ] final  -79.52 input   66.30 | X-H torsion
[ 10763 10752 10751 10750 ] final   14.26 input  -60.55 | X-H torsion
[ 11005 11000 10999 10996 ] final   31.08 input  -57.11 | X-H torsion

> <Gold.Protein.ActiveResidues>
 VAL166  LYS551  ARG553  GLY616  TRP617  ASP618  TYR619  PRO620  LYS621  CYS622 
 ASP623  PHE694  ASN695  SER759  ASP760  ASP761  ALA762  ILE779  LEU786  VAL792 
 PHE793  MET794  SER795  GLU796  ALA797  LYS798  CYS799  TRP800  GLU811  SER814 

> <Gold.Protein.RotatedAtoms>
  151.2324  135.0559  159.8992 H   0  0  0  0  0  0  0  0  0  0  0  0  # atno 6907 bound_to 6896
  152.5403  134.0523  159.8125 H   0  0  0  0  0  0  0  0  0  0  0  0  # atno 6908 bound_to 6896
  151.0704  133.5422  159.2659 H   0  0  0  0  0  0  0  0  0  0  0  0  # atno 6909 bound_to 6896
  144.7627  139.8069  143.6326 H   0  0  0  0  0  0  0  0  0  0  0  0  # atno 7974 bound_to 7965
  156.2916  140.2245  156.4993 H   0  0  0  0  0  0  0  0  0  0  0  0  # atno 8008 bound_to 7997
  154.7704  140.0467  157.1068 H   0  0  0  0  0  0  0  0  0  0  0  0  # atno 8009 bound_to 7997
  154.9881  140.3087  155.4921 H   0  0  0  0  0  0  0  0  0  0  0  0  # atno 8010 bound_to 7997
  140.4478  143.2493  151.8533 H   0  0  0  0  0  0  0  0  0  0  0  0  # atno 10167 bound_to 10162
  156.0091  130.4548  150.3661 H   0  0  0  0  0  0  0  0  0  0  0  0  # atno 10718 bound_to 10713
  153.1639  135.6801  153.8703 H   0  0  0  0  0  0  0  0  0  0  0  0  # atno 10763 bound_to 10752
  153.8089  135.3145  155.3400 H   0  0  0  0  0  0  0  0  0  0  0  0  # atno 10764 bound_to 10752
  154.7952  135.4811  154.0234 H   0  0  0  0  0  0  0  0  0  0  0  0  # atno 10765 bound_to 10752
  140.2877  134.2900  155.7784 H   0  0  0  0  0  0  0  0  0  0  0  0  # atno 11005 bound_to 11000
  146.1705  139.4854  142.9930 LP  0  0  0  0  0  0  0  0  0  0  0  0  # atno 17320 bound_to 7965
  145.6568  141.0250  143.1730 LP  0  0  0  0  0  0  0  0  0  0  0  0  # atno 17321 bound_to 7965
  139.4794  144.5156  151.8873 LP  0  0  0  0  0  0  0  0  0  0  0  0  # atno 17342 bound_to 10162
  140.4243  144.2201  150.5887 LP  0  0  0  0  0  0  0  0  0  0  0  0  # atno 17343 bound_to 10162
  157.1747  131.0377  151.2778 LP  0  0  0  0  0  0  0  0  0  0  0  0  # atno 17370 bound_to 10713
  157.4198  130.7431  149.6904 LP  0  0  0  0  0  0  0  0  0  0  0  0  # atno 17371 bound_to 10713
  141.2152  133.7565  156.9577 LP  0  0  0  0  0  0  0  0  0  0  0  0  # atno 17394 bound_to 11000
  140.1225  134.9408  157.2223 LP  0  0  0  0  0  0  0  0  0  0  0  0  # atno 17395 bound_to 11000

$$$$
