AV-unprocessed.smi:2190|AV-procd|sdf|8891|dock3
  -GOLD-   2272012 93D 1   1.00000     0.00000
 Structure written by MMmdl.
 47 49  0  0  0  0  0  0  0  0  2 V2000
  155.1482  129.2796  155.2675 C   0  0  0  0  0  0  0  0  0  0  0  0
  154.0555  130.2043  155.7635 C   0  0  0  0  0  0  0  0  0  0  0  0
  154.3741  131.3057  156.5806 C   0  0  0  0  0  0  0  0  0  0  0  0
  153.3539  132.1581  157.0392 C   0  0  0  0  0  0  0  0  0  0  0  0
  152.0105  131.9151  156.6855 C   0  0  0  0  0  0  0  0  0  0  0  0
  150.9232  132.8449  157.1905 C   0  0  0  0  0  0  0  0  0  0  0  0
  151.6761  130.8119  155.8659 C   0  0  0  0  0  0  0  0  0  0  0  0
  150.3434  130.6305  155.5571 O   0  0  0  0  0  0  0  0  0  0  0  0
  149.9786  129.5178  154.7514 C   0  0  0  0  0  0  0  0  0  0  0  0
  149.1703  130.0230  153.5463 C   0  0  1  0  0  0  0  0  0  0  0  0
  148.8453  128.9155  152.7294 O   0  0  0  0  0  0  0  0  0  0  0  0
  147.8712  130.7283  153.9840 C   0  0  0  0  0  0  0  0  0  0  0  0
  147.6297  131.9872  153.2582 N   0  0  0  0  0  0  0  0  0  0  0  0
  148.2772  133.1860  153.3390 C   0  0  0  0  0  0  0  0  0  0  0  0
  149.4417  133.5253  154.2102 C   0  0  0  0  0  0  0  0  0  0  0  0
  149.6294  134.9175  154.3338 O   0  0  0  0  0  0  0  0  0  0  0  0
  147.6733  134.0317  152.4576 N   0  3  0  0  0  0  0  0  0  0  0  0
  146.6330  133.3706  151.8045 C   0  0  0  0  0  0  0  0  0  0  0  0
  145.7430  133.8140  150.8310 C   0  0  0  0  0  0  0  0  0  0  0  0
  144.7974  132.8777  150.3645 C   0  0  0  0  0  0  0  0  0  0  0  0
  144.7631  131.5593  150.8628 C   0  0  0  0  0  0  0  0  0  0  0  0
  145.6697  131.1222  151.8509 C   0  0  0  0  0  0  0  0  0  0  0  0
  146.6001  132.0547  152.3103 C   0  0  0  0  0  0  0  0  0  0  0  0
  152.7135  129.9586  155.4099 C   0  0  0  0  0  0  0  0  0  0  0  0
  156.1341  129.7282  155.3929 H   0  0  0  0  0  0  0  0  0  0  0  0
  155.0101  129.0576  154.2089 H   0  0  0  0  0  0  0  0  0  0  0  0
  155.1260  128.3410  155.8214 H   0  0  0  0  0  0  0  0  0  0  0  0
  155.3995  131.5004  156.8591 H   0  0  0  0  0  0  0  0  0  0  0  0
  153.6084  133.0008  157.6652 H   0  0  0  0  0  0  0  0  0  0  0  0
  150.3915  133.2965  156.3523 H   0  0  0  0  0  0  0  0  0  0  0  0
  151.3358  133.6480  157.8016 H   0  0  0  0  0  0  0  0  0  0  0  0
  150.2046  132.2933  157.7970 H   0  0  0  0  0  0  0  0  0  0  0  0
  150.8525  128.9529  154.4214 H   0  0  0  0  0  0  0  0  0  0  0  0
  149.3553  128.8511  155.3497 H   0  0  0  0  0  0  0  0  0  0  0  0
  149.7754  130.7223  152.9681 H   0  0  0  0  0  0  0  0  0  0  0  0
  148.9527  129.1710  151.8257 H   0  0  0  0  0  0  0  0  0  0  0  0
  147.0091  130.0712  153.8705 H   0  0  0  0  0  0  0  0  0  0  0  0
  147.9194  130.9715  155.0456 H   0  0  0  0  0  0  0  0  0  0  0  0
  149.2870  133.0992  155.2017 H   0  0  0  0  0  0  0  0  0  0  0  0
  150.3495  133.0756  153.8088 H   0  0  0  0  0  0  0  0  0  0  0  0
  149.2039  135.3447  153.6058 H   0  0  0  0  0  0  0  0  0  0  0  0
  145.7701  134.8224  150.4450 H   0  0  0  0  0  0  0  0  0  0  0  0
  144.0865  133.1759  149.6074 H   0  0  0  0  0  0  0  0  0  0  0  0
  144.0276  130.8676  150.4784 H   0  0  0  0  0  0  0  0  0  0  0  0
  145.6367  130.1073  152.2182 H   0  0  0  0  0  0  0  0  0  0  0  0
  152.5038  129.1039  154.7852 H   0  0  0  0  0  0  0  0  0  0  0  0
  147.9602  134.9908  152.3107 H   0  0  0  0  0  0  0  0  0  0  0  0
  1  2  1  0  0  0  0
  1 25  1  0  0  0  0
  1 26  1  0  0  0  0
  1 27  1  0  0  0  0
  2 24  1  0  0  0  0
  2  3  2  0  0  0  0
  3  4  1  0  0  0  0
  3 28  1  0  0  0  0
  4  5  2  0  0  0  0
  4 29  1  0  0  0  0
  5  6  1  0  0  0  0
  5  7  1  0  0  0  0
  6 30  1  0  0  0  0
  6 31  1  0  0  0  0
  6 32  1  0  0  0  0
  7  8  1  0  0  0  0
  7 24  2  0  0  0  0
  8  9  1  0  0  0  0
  9 10  1  0  0  0  0
  9 33  1  0  0  0  0
  9 34  1  0  0  0  0
 10 11  1  0  0  0  0
 10 12  1  0  0  0  0
 10 35  1  0  0  0  0
 11 36  1  0  0  0  0
 12 13  1  0  0  0  0
 12 37  1  0  0  0  0
 12 38  1  0  0  0  0
 13 23  1  0  0  0  0
 13 14  1  0  0  0  0
 14 15  1  0  0  0  0
 14 17  2  0  0  0  0
 15 16  1  0  0  0  0
 15 39  1  0  0  0  0
 15 40  1  0  0  0  0
 16 41  1  0  0  0  0
 17 18  1  0  0  0  0
 17 47  1  0  0  0  0
 18 23  2  0  0  0  0
 18 19  1  0  0  0  0
 19 20  2  0  0  0  0
 19 42  1  0  0  0  0
 20 21  1  0  0  0  0
 20 43  1  0  0  0  0
 21 22  2  0  0  0  0
 21 44  1  0  0  0  0
 22 23  1  0  0  0  0
 22 45  1  0  0  0  0
 24 46  1  0  0  0  0
M  CHG  1  17   1
M  END
> <s_m_source_file>
AV-unprocessed.smi

> <i_m_source_file_index>
2190

> <i_lp_mmshare_version>
43012

> <i_f3d_flags>
0

> <s_epik_input>
W0NIM11jMVtjSF1bY0hdYyhbQ0gzXSljKFtjSF0xKU9bQ0gyXVtDQEhdKFtPSF0pW0NIMl1uKGMobjIpW0NIMl1bT0hdKWMoYzIzKVtjSF1bY0hdW2NIXVtjSF0z

> <s_epik_cmdline>
J2VwaWtfcHl0aG9uJywgJy1waCcsICc3LjAnLCAnLXRuJywgJzgnLCAnLW1hJywgJzIwMCcsICctbWV0YWxfYmluZGluZycsICctaW1hZScsICc8aW5maWxlLm1hZT4nLCAnLW9tYWUnLCAnPG91dGZpbGUubWFlPic=

> <r_lp_tautomer_probability>
1

> <r_epik_Ionization_Penalty>
1.43125

> <r_epik_Ionization_Penalty_Charging>
1.43039

> <r_epik_Ionization_Penalty_Neutral>
0.000858184

> <r_epik_State_Penalty>
1.51493

> <r_epik_Charging_Adjusted_Penalty>
2.94531

> <i_epik_Tot_Q>
1

> <i_epik_Tot_abs_Q>
1

> <r_epik_Metal_State_Penalty>
5.5599

> <b_epik_Metal_Only>
0

> <s_lp_Force_Field>
OPLS_2005

> <r_lp_Energy>
19.5123

> <b_lp_Chiralities_Consistent>
1

> <s_lp_Variant>
AV-unprocessed.smi:2190-4

> <Gold.Version>
5.8.1

> <Gold.Id.Protein>
6NUR|6NUR_protein|mol2

> <Gold.PLP.Fitness>
53.0889

> <Gold.PLP.PLP>
-44.1040

> <Gold.PLP.part.hbond>
-3.0000

> <Gold.PLP.part.metal>
0.0000

> <Gold.PLP.part.buried>
-3.7215

> <Gold.PLP.part.nonpolar>
-36.7727

> <Gold.PLP.part.repulsive>
0.0226

> <Gold.PLP.ligand.clash>
0.0000

> <Gold.PLP.ligand.torsion>
1.3430

> <Gold.PLP.Chemscore.Hbond>
3.8640

> <Gold.PLP.Chemscore.CHOScore>
0.0000

> <Gold.PLP.Chemscore.Metal>
0.0000

> <Gold.Chemscore.Hbonds>
donor molecule, donor type, donor heavy atom, donor atom, acceptor molecule, acceptor atom, score
      L1  H    11    36       P1 10747  0.12
      L1  H    16    41       P1  7948  1.00
      L1  H    17    47       P1  7948  2.00

> <Gold.PLP.Chemscore.Internal.Correction>
0.0789

> <Gold.Rescore>
     Score         DG    S(hbond)    S(metal)    S(lipo)     H(rot)  DE(clash)    DE(int)     intcor
     13.35     -14.97       1.33        0.00     109.70       3.05       0.42       1.20       ----

> <Gold.Chemscore.Fitness>
13.3470

> <Gold.Chemscore.DG>
-14.9664

> <Gold.Chemscore.ZeroCoef>
-5.4800

> <Gold.Chemscore.Hbond>
1.3332

> <Gold.Chemscore.Metal>
0.0000

> <Gold.Chemscore.Lipo>
109.7033

> <Gold.Chemscore.Internal_Hbond>
0.0000

> <Gold.Chemscore.DEClash>
0.4195

> <Gold.Chemscore.DEInternal>
1.1999

> <Gold.Chemscore.Rot>
3.0476

> <Gold.Chemscore.Internal.Correction>
   9.000000E+99

> <Gold.Chemscore.Hbonds>
donor molecule, donor type, donor heavy atom, donor atom, acceptor molecule, acceptor atom, score
      L1  H    16    41       P1  7948  0.39
      L1  H    17    47       P1  7948  0.76

> <Gold.Chemscore.Hbond.Weighted>
-4.4529

> <Gold.Chemscore.Metal.Weighted>
-0.0000

> <Gold.Chemscore.Lipo.Weighted>
-12.8353

> <Gold.Chemscore.Internal_Hbond.Weighted>
0.0000

> <Gold.Chemscore.DEClash.Weighted>
0.4195

> <Gold.Chemscore.DEInternal.Weighted>
1.1999

> <Gold.Chemscore.Rot.Weighted>
7.8018

> <Gold.Chemscore.Internal.Correction.Weighted>
   9.000000E+99

> <Gold.Protein.RotatedTorsions>
[ 6907 6896 6895 6894 ] final  147.83 input  -60.11 | X-H torsion
[ 7974 7965 7964 7962 ] final  161.65 input  175.53 | X-H torsion
[ 8008 7997 7996 7995 ] final  -22.42 input   59.86 | X-H torsion
[ 10167 10162 10161 10158 ] final   58.02 input  -65.29 | X-H torsion
[ 10718 10713 10712 10709 ] final  -41.01 input   66.30 | X-H torsion
[ 10763 10752 10751 10750 ] final  141.44 input  -60.55 | X-H torsion
[ 11005 11000 10999 10996 ] final  121.45 input  -57.11 | X-H torsion

> <Gold.Protein.ActiveResidues>
 VAL166  LYS551  ARG553  GLY616  TRP617  ASP618  TYR619  PRO620  LYS621  CYS622 
 ASP623  PHE694  ASN695  SER759  ASP760  ASP761  ALA762  ILE779  LEU786  VAL792 
 PHE793  MET794  SER795  GLU796  ALA797  LYS798  CYS799  TRP800  GLU811  SER814 

> <Gold.Protein.RotatedAtoms>
  152.1496  133.4513  159.4806 H   0  0  0  0  0  0  0  0  0  0  0  0  # atno 6907 bound_to 6896
  150.6894  134.2206  159.4404 H   0  0  0  0  0  0  0  0  0  0  0  0  # atno 6908 bound_to 6896
  152.0101  134.9880  160.0618 H   0  0  0  0  0  0  0  0  0  0  0  0  # atno 6909 bound_to 6896
  144.7675  139.7928  143.6309 H   0  0  0  0  0  0  0  0  0  0  0  0  # atno 7974 bound_to 7965
  154.4645  140.2008  156.0155 H   0  0  0  0  0  0  0  0  0  0  0  0  # atno 8008 bound_to 7997
  156.0902  140.3259  155.7777 H   0  0  0  0  0  0  0  0  0  0  0  0  # atno 8009 bound_to 7997
  155.4969  140.0550  157.2936 H   0  0  0  0  0  0  0  0  0  0  0  0  # atno 8010 bound_to 7997
  140.1917  144.4079  150.6568 H   0  0  0  0  0  0  0  0  0  0  0  0  # atno 10167 bound_to 10162
  156.2751  130.4211  149.8397 H   0  0  0  0  0  0  0  0  0  0  0  0  # atno 10718 bound_to 10713
  153.9393  135.2981  155.3443 H   0  0  0  0  0  0  0  0  0  0  0  0  # atno 10763 bound_to 10752
  154.7485  135.4991  153.9251 H   0  0  0  0  0  0  0  0  0  0  0  0  # atno 10764 bound_to 10752
  153.1051  135.6744  153.9708 H   0  0  0  0  0  0  0  0  0  0  0  0  # atno 10765 bound_to 10752
  139.9226  134.9639  156.7960 H   0  0  0  0  0  0  0  0  0  0  0  0  # atno 11005 bound_to 11000
  146.1795  139.4980  142.9876 LP  0  0  0  0  0  0  0  0  0  0  0  0  # atno 17320 bound_to 7965
  145.6425  141.0281  143.1804 LP  0  0  0  0  0  0  0  0  0  0  0  0  # atno 17321 bound_to 7965
  140.6451  143.2212  151.6203 LP  0  0  0  0  0  0  0  0  0  0  0  0  # atno 17342 bound_to 10162
  139.5253  144.3078  152.1019 LP  0  0  0  0  0  0  0  0  0  0  0  0  # atno 17343 bound_to 10162
  156.5864  130.8488  151.3396 LP  0  0  0  0  0  0  0  0  0  0  0  0  # atno 17370 bound_to 10713
  157.7296  130.9674  150.1796 LP  0  0  0  0  0  0  0  0  0  0  0  0  # atno 17371 bound_to 10713
  140.6428  133.9802  155.7716 LP  0  0  0  0  0  0  0  0  0  0  0  0  # atno 17394 bound_to 11000
  141.0760  134.0135  157.3457 LP  0  0  0  0  0  0  0  0  0  0  0  0  # atno 17395 bound_to 11000

$$$$
