AV-unprocessed.smi:3255|AV-procd|sdf|12458|dock10
  -GOLD-   2272018353D 1   1.00000     0.00000
 Structure written by MMmdl.
 39 40  0  0  0  0  0  0  0  0  2 V2000
  143.2415  134.6044  152.5086 C   0  0  0  0  0  0  0  0  0  0  0  0
  143.8118  135.0344  151.1493 C   0  0  1  0  0  0  0  0  0  0  0  0
  144.4154  136.3599  151.2788 N   0  0  0  0  0  0  0  0  0  0  0  0
  145.1814  136.7677  152.3000 C   0  0  0  0  0  0  0  0  0  0  0  0
  145.5040  136.0571  153.2525 O   0  0  0  0  0  0  0  0  0  0  0  0
  145.5429  138.0517  152.1711 N   0  0  0  0  0  0  0  0  0  0  0  0
  146.3455  138.7832  153.1436 C   0  0  0  0  0  0  0  0  0  0  0  0
  146.8319  140.1264  152.5736 C   0  0  0  0  0  0  0  0  0  0  0  0
  147.7086  140.8259  153.5130 N   0  0  0  0  0  0  0  0  0  0  0  0
  148.9400  140.4246  153.9630 C   0  0  0  0  0  0  0  0  0  0  0  0
  149.3749  141.3967  154.8272 C   0  0  0  0  0  0  0  0  0  0  0  0
  148.3907  142.3480  154.8685 N   0  3  0  0  0  0  0  0  0  0  0  0
  147.3778  141.9986  154.0687 C   0  0  0  0  0  0  0  0  0  0  0  0
  144.8147  133.9970  150.5918 C   0  0  2  0  0  0  0  0  0  0  0  0
  144.2236  132.6569  150.1329 C   0  0  0  0  0  0  0  0  0  0  0  0
  145.3897  131.7170  150.3379 C   0  0  0  0  0  0  0  0  0  0  0  0
  145.9916  132.2610  151.6281 C   0  0  0  0  0  0  0  0  0  0  0  0
  145.8085  133.6712  151.5631 O   0  0  0  0  0  0  0  0  0  0  0  0
  142.7507  133.6335  152.4377 H   0  0  0  0  0  0  0  0  0  0  0  0
  142.5010  135.3199  152.8677 H   0  0  0  0  0  0  0  0  0  0  0  0
  144.0236  134.5276  153.2646 H   0  0  0  0  0  0  0  0  0  0  0  0
  142.9696  135.0958  150.4576 H   0  0  0  0  0  0  0  0  0  0  0  0
  144.2105  137.0227  150.5456 H   0  0  0  0  0  0  0  0  0  0  0  0
  145.2330  138.5581  151.3545 H   0  0  0  0  0  0  0  0  0  0  0  0
  145.7654  138.9398  154.0548 H   0  0  0  0  0  0  0  0  0  0  0  0
  147.1987  138.1641  153.4222 H   0  0  0  0  0  0  0  0  0  0  0  0
  147.3825  139.9754  151.6442 H   0  0  0  0  0  0  0  0  0  0  0  0
  145.9927  140.7857  152.3450 H   0  0  0  0  0  0  0  0  0  0  0  0
  149.4027  139.5018  153.6439 H   0  0  0  0  0  0  0  0  0  0  0  0
  150.2862  141.4804  155.4013 H   0  0  0  0  0  0  0  0  0  0  0  0
  146.4708  142.5533  153.9047 H   0  0  0  0  0  0  0  0  0  0  0  0
  145.3536  134.4398  149.7527 H   0  0  0  0  0  0  0  0  0  0  0  0
  143.3924  132.3428  150.7645 H   0  0  0  0  0  0  0  0  0  0  0  0
  143.8727  132.6811  149.1010 H   0  0  0  0  0  0  0  0  0  0  0  0
  145.0918  130.6709  150.4141 H   0  0  0  0  0  0  0  0  0  0  0  0
  146.1020  131.8142  149.5175 H   0  0  0  0  0  0  0  0  0  0  0  0
  145.4457  131.8801  152.4923 H   0  0  0  0  0  0  0  0  0  0  0  0
  147.0430  131.9984  151.7462 H   0  0  0  0  0  0  0  0  0  0  0  0
  148.4215  143.1943  155.4235 H   0  0  0  0  0  0  0  0  0  0  0  0
  1  2  1  0  0  0  0
  1 19  1  0  0  0  0
  1 20  1  0  0  0  0
  1 21  1  0  0  0  0
  2  3  1  0  0  0  0
  2 14  1  0  0  0  0
  2 22  1  0  0  0  0
  3  4  1  0  0  0  0
  3 23  1  0  0  0  0
  4  5  2  0  0  0  0
  4  6  1  0  0  0  0
  6  7  1  0  0  0  0
  6 24  1  0  0  0  0
  7  8  1  0  0  0  0
  7 25  1  0  0  0  0
  7 26  1  0  0  0  0
  8  9  1  0  0  0  0
  8 27  1  0  0  0  0
  8 28  1  0  0  0  0
  9 13  1  0  0  0  0
  9 10  1  0  0  0  0
 10 11  2  0  0  0  0
 10 29  1  0  0  0  0
 11 12  1  0  0  0  0
 11 30  1  0  0  0  0
 12 13  2  0  0  0  0
 12 39  1  0  0  0  0
 13 31  1  0  0  0  0
 14 18  1  0  0  0  0
 14 15  1  0  0  0  0
 14 32  1  0  0  0  0
 15 16  1  0  0  0  0
 15 33  1  0  0  0  0
 15 34  1  0  0  0  0
 16 17  1  0  0  0  0
 16 35  1  0  0  0  0
 16 36  1  0  0  0  0
 17 18  1  0  0  0  0
 17 37  1  0  0  0  0
 17 38  1  0  0  0  0
M  CHG  1  12   1
M  END
> <s_m_source_file>
AV-unprocessed.smi

> <i_m_source_file_index>
3255

> <i_lp_mmshare_version>
43012

> <i_f3d_flags>
0

> <s_epik_input>
TzFbQ0gyXVtDSDJdW0NIMl1bQ0BIXTFbQ0BIXShbQ0gzXSlbTkhdQyg9TylbTkhdW0NIMl1bQ0gyXW4yW2NIXVtjSF1uW2NIXTI=

> <s_epik_cmdline>
J2VwaWtfcHl0aG9uJywgJy1waCcsICc3LjAnLCAnLXRuJywgJzgnLCAnLW1hJywgJzIwMCcsICctbWV0YWxfYmluZGluZycsICctaW1hZScsICc8aW5maWxlLm1hZT4nLCAnLW9tYWUnLCAnPG91dGZpbGUubWFlPic=

> <r_lp_tautomer_probability>
1

> <r_epik_Ionization_Penalty>
0.256241

> <r_epik_Ionization_Penalty_Charging>
0

> <r_epik_Ionization_Penalty_Neutral>
0.256241

> <r_epik_State_Penalty>
0.247735

> <r_epik_Charging_Adjusted_Penalty>
0.247735

> <i_epik_Tot_Q>
1

> <i_epik_Tot_abs_Q>
1

> <r_epik_Metal_State_Penalty>
0.537184

> <b_epik_Metal_Only>
0

> <s_lp_Force_Field>
OPLS_2005

> <r_lp_Energy>
18.6285

> <b_lp_Chiralities_Consistent>
1

> <s_lp_Variant>
AV-unprocessed.smi:3255-2

> <Gold.Version>
5.8.1

> <Gold.Id.Protein>
6NUR|6NUR_protein|mol2

> <Gold.PLP.Fitness>
46.8077

> <Gold.PLP.PLP>
-34.8418

> <Gold.PLP.part.hbond>
-3.9267

> <Gold.PLP.part.metal>
0.0000

> <Gold.PLP.part.buried>
-0.3494

> <Gold.PLP.part.nonpolar>
-32.0802

> <Gold.PLP.part.repulsive>
0.4932

> <Gold.PLP.ligand.clash>
0.0000

> <Gold.PLP.ligand.torsion>
0.4763

> <Gold.PLP.Chemscore.Hbond>
3.8960

> <Gold.PLP.Chemscore.CHOScore>
0.4040

> <Gold.PLP.Chemscore.Metal>
0.0000

> <Gold.Chemscore.Hbonds>
donor molecule, donor type, donor heavy atom, donor atom, acceptor molecule, acceptor atom, score
      L1  H     3    23       P1 10171  1.00
      L1  H     6    24       P1 10171  0.87
      L1  H    12    39       P1  8028  2.00
      L1  C    10    29       P1  7957  0.35

> <Gold.PLP.Chemscore.Internal.Correction>
0.0184

> <Gold.Rescore>
     Score         DG    S(hbond)    S(metal)    S(lipo)     H(rot)  DE(clash)    DE(int)     intcor
     15.76     -18.27       2.81        0.00      78.56       2.26       0.34       2.18       ----

> <Gold.Chemscore.Fitness>
15.7572

> <Gold.Chemscore.DG>
-18.2746

> <Gold.Chemscore.ZeroCoef>
-5.4800

> <Gold.Chemscore.Hbond>
2.8138

> <Gold.Chemscore.Metal>
0.0000

> <Gold.Chemscore.Lipo>
78.5649

> <Gold.Chemscore.Internal_Hbond>
0.0000

> <Gold.Chemscore.DEClash>
0.3392

> <Gold.Chemscore.DEInternal>
2.1782

> <Gold.Chemscore.Rot>
2.2640

> <Gold.Chemscore.Internal.Correction>
   9.000000E+99

> <Gold.Chemscore.Hbonds>
donor molecule, donor type, donor heavy atom, donor atom, acceptor molecule, acceptor atom, score
      L1  H     3    23       P1 10171  0.99
      L1  H     6    24       P1 10171  0.81
      L1  H    12    39       P1  8028  0.93

> <Gold.Chemscore.Hbond.Weighted>
-9.3982

> <Gold.Chemscore.Metal.Weighted>
-0.0000

> <Gold.Chemscore.Lipo.Weighted>
-9.1921

> <Gold.Chemscore.Internal_Hbond.Weighted>
0.0000

> <Gold.Chemscore.DEClash.Weighted>
0.3392

> <Gold.Chemscore.DEInternal.Weighted>
2.1782

> <Gold.Chemscore.Rot.Weighted>
5.7958

> <Gold.Chemscore.Internal.Correction.Weighted>
   9.000000E+99

> <Gold.Protein.RotatedTorsions>
[ 6907 6896 6895 6894 ] final   48.83 input  -60.11 | X-H torsion
[ 7974 7965 7964 7962 ] final -158.03 input  175.53 | X-H torsion
[ 8008 7997 7996 7995 ] final  -23.19 input   59.86 | X-H torsion
[ 10167 10162 10161 10158 ] final   96.66 input  -65.29 | X-H torsion
[ 10718 10713 10712 10709 ] final  -50.80 input   66.30 | X-H torsion
[ 10763 10752 10751 10750 ] final -106.12 input  -60.55 | X-H torsion
[ 11005 11000 10999 10996 ] final  -69.20 input  -57.11 | X-H torsion

> <Gold.Protein.ActiveResidues>
 VAL166  LYS551  ARG553  GLY616  TRP617  ASP618  TYR619  PRO620  LYS621  CYS622 
 ASP623  PHE694  ASN695  SER759  ASP760  ASP761  ALA762  ILE779  LEU786  VAL792 
 PHE793  MET794  SER795  GLU796  ALA797  LYS798  CYS799  TRP800  GLU811  SER814 

> <Gold.Protein.RotatedAtoms>
  152.2839  134.7797  160.0390 H   0  0  0  0  0  0  0  0  0  0  0  0  # atno 6907 bound_to 6896
  151.8367  133.3412  159.3638 H   0  0  0  0  0  0  0  0  0  0  0  0  # atno 6908 bound_to 6896
  150.7201  134.5359  159.5768 H   0  0  0  0  0  0  0  0  0  0  0  0  # atno 6909 bound_to 6896
  144.7523  140.3885  143.6039 H   0  0  0  0  0  0  0  0  0  0  0  0  # atno 7974 bound_to 7965
  154.4599  140.1987  156.0273 H   0  0  0  0  0  0  0  0  0  0  0  0  # atno 8008 bound_to 7997
  156.0820  140.3270  155.7677 H   0  0  0  0  0  0  0  0  0  0  0  0  # atno 8009 bound_to 7997
  155.5096  140.0560  157.2916 H   0  0  0  0  0  0  0  0  0  0  0  0  # atno 8010 bound_to 7997
  139.7874  144.6865  150.9939 H   0  0  0  0  0  0  0  0  0  0  0  0  # atno 10167 bound_to 10162
  156.1768  130.4150  149.9566 H   0  0  0  0  0  0  0  0  0  0  0  0  # atno 10718 bound_to 10713
  154.7991  135.4724  154.0233 H   0  0  0  0  0  0  0  0  0  0  0  0  # atno 10763 bound_to 10752
  153.1752  135.6831  153.8560 H   0  0  0  0  0  0  0  0  0  0  0  0  # atno 10764 bound_to 10752
  153.8128  135.3214  155.3380 H   0  0  0  0  0  0  0  0  0  0  0  0  # atno 10765 bound_to 10752
  141.1549  133.6758  156.6562 H   0  0  0  0  0  0  0  0  0  0  0  0  # atno 11005 bound_to 11000
  145.6901  139.1637  143.2651 LP  0  0  0  0  0  0  0  0  0  0  0  0  # atno 17320 bound_to 7965
  146.1489  140.6954  142.9331 LP  0  0  0  0  0  0  0  0  0  0  0  0  # atno 17321 bound_to 7965
  140.7820  143.4417  151.0541 LP  0  0  0  0  0  0  0  0  0  0  0  0  # atno 17342 bound_to 10162
  139.8096  143.7970  152.3170 LP  0  0  0  0  0  0  0  0  0  0  0  0  # atno 17343 bound_to 10162
  156.7349  130.9057  151.3628 LP  0  0  0  0  0  0  0  0  0  0  0  0  # atno 17370 bound_to 10713
  157.6841  130.9168  150.0341 LP  0  0  0  0  0  0  0  0  0  0  0  0  # atno 17371 bound_to 10713
  140.3282  134.7951  157.4306 LP  0  0  0  0  0  0  0  0  0  0  0  0  # atno 17394 bound_to 11000
  140.1039  134.5436  155.8327 LP  0  0  0  0  0  0  0  0  0  0  0  0  # atno 17395 bound_to 11000

$$$$
