AV-unprocessed.smi:33|AV-procd|sdf|210|dock5
  -GOLD-   2262015503D 1   1.00000     0.00000
 Structure written by MMmdl.
 67 72  0  0  0  0  0  0  0  0  1 V2000
  153.1434  140.1024  158.2393 O   0  0  0  0  0  0  0  0  0  0  0  0
  152.3755  141.0665  158.2401 C   0  0  0  0  0  0  0  0  0  0  0  0
  151.4401  141.2753  157.2947 O   0  0  0  0  0  0  0  0  0  0  0  0
  151.6534  140.8204  155.9689 C   0  0  0  0  0  0  0  0  0  0  0  0
  150.9849  139.4510  155.8046 C   0  0  1  0  0  0  0  0  0  0  0  0
  150.0232  139.2276  156.8353 O   0  0  0  0  0  0  0  0  0  0  0  0
  149.0032  138.3914  156.3694 C   0  0  2  0  0  0  0  0  0  0  0  0
  149.0144  137.1327  157.1796 N   0  0  0  0  0  0  0  0  0  0  0  0
  150.0239  136.6919  158.0069 C   0  0  0  0  0  0  0  0  0  0  0  0
  149.8010  135.5571  158.6121 N   0  0  0  0  0  0  0  0  0  0  0  0
  148.5461  135.1771  158.1568 C   0  0  0  0  0  0  0  0  0  0  0  0
  147.7028  134.0611  158.4069 C   0  0  0  0  0  0  0  0  0  0  0  0
  148.0440  133.0573  159.2485 N   0  0  0  0  0  0  0  0  0  0  0  0
  147.4659  133.0933  160.5991 C   0  0  0  0  0  0  0  0  0  0  0  0
  147.3245  132.0434  161.2289 O   0  0  0  0  0  0  0  0  0  0  0  0
  147.0077  134.3943  161.1946 C   0  0  0  0  0  0  0  0  0  0  0  0
  145.8314  134.4408  161.9744 C   0  0  0  0  0  0  0  0  0  0  0  0
  145.4078  135.6555  162.5479 C   0  0  0  0  0  0  0  0  0  0  0  0
  146.1672  136.8263  162.3615 C   0  0  0  0  0  0  0  0  0  0  0  0
  147.3557  136.7809  161.6083 C   0  0  0  0  0  0  0  0  0  0  0  0
  147.7794  135.5673  161.0333 C   0  0  0  0  0  0  0  0  0  0  0  0
  148.9548  132.0236  158.7343 C   0  0  0  0  0  0  0  0  0  0  0  0
  149.6419  131.3726  159.5238 O   0  0  0  0  0  0  0  0  0  0  0  0
  149.0951  131.7968  157.2554 C   0  0  0  0  0  0  0  0  0  0  0  0
  150.3599  131.4952  156.7040 C   0  0  0  0  0  0  0  0  0  0  0  0
  150.4957  131.2675  155.3209 C   0  0  0  0  0  0  0  0  0  0  0  0
  149.3657  131.3217  154.4830 C   0  0  0  0  0  0  0  0  0  0  0  0
  148.0974  131.5940  155.0300 C   0  0  0  0  0  0  0  0  0  0  0  0
  147.9606  131.8220  156.4128 C   0  0  0  0  0  0  0  0  0  0  0  0
  146.5039  134.0117  157.7714 N   0  0  0  0  0  0  0  0  0  0  0  0
  146.1535  134.9979  156.9413 C   0  0  0  0  0  0  0  0  0  0  0  0
  146.8359  136.0988  156.6185 N   0  0  0  0  0  0  0  0  0  0  0  0
  148.0422  136.1535  157.2537 C   0  0  0  0  0  0  0  0  0  0  0  0
  149.2813  138.1092  154.8861 C   0  0  1  0  0  0  0  0  0  0  0  0
  148.1189  138.0920  154.0822 O   0  0  0  0  0  0  0  0  0  0  0  0
  150.1687  139.2894  154.5243 C   0  0  1  0  0  0  0  0  0  0  0  0
  149.4403  140.3936  154.3325 F   0  0  0  0  0  0  0  0  0  0  0  0
  152.3845  142.1263  159.2896 C   0  0  0  0  0  0  0  0  0  0  0  0
  152.9290  141.8366  160.5626 C   0  0  0  0  0  0  0  0  0  0  0  0
  152.9529  142.8181  161.5725 C   0  0  0  0  0  0  0  0  0  0  0  0
  152.4330  144.1013  161.3215 C   0  0  0  0  0  0  0  0  0  0  0  0
  151.8885  144.4020  160.0594 C   0  0  0  0  0  0  0  0  0  0  0  0
  151.8634  143.4219  159.0482 C   0  0  0  0  0  0  0  0  0  0  0  0
  151.2538  141.5352  155.2480 H   0  0  0  0  0  0  0  0  0  0  0  0
  152.7262  140.7335  155.7912 H   0  0  0  0  0  0  0  0  0  0  0  0
  151.7453  138.6712  155.8335 H   0  0  0  0  0  0  0  0  0  0  0  0
  148.0330  138.8533  156.5581 H   0  0  0  0  0  0  0  0  0  0  0  0
  150.9386  137.2473  158.1547 H   0  0  0  0  0  0  0  0  0  0  0  0
  145.2409  133.5484  162.1244 H   0  0  0  0  0  0  0  0  0  0  0  0
  144.5002  135.6883  163.1322 H   0  0  0  0  0  0  0  0  0  0  0  0
  145.8422  137.7572  162.8020 H   0  0  0  0  0  0  0  0  0  0  0  0
  147.9440  137.6764  161.4726 H   0  0  0  0  0  0  0  0  0  0  0  0
  148.6964  135.5427  160.4624 H   0  0  0  0  0  0  0  0  0  0  0  0
  151.2343  131.4512  157.3370 H   0  0  0  0  0  0  0  0  0  0  0  0
  151.4676  131.0503  154.9029 H   0  0  0  0  0  0  0  0  0  0  0  0
  149.4709  131.1479  153.4222 H   0  0  0  0  0  0  0  0  0  0  0  0
  147.2286  131.6267  154.3894 H   0  0  0  0  0  0  0  0  0  0  0  0
  146.9813  132.0249  156.8218 H   0  0  0  0  0  0  0  0  0  0  0  0
  145.1873  134.8917  156.4707 H   0  0  0  0  0  0  0  0  0  0  0  0
  149.8341  137.1759  154.7728 H   0  0  0  0  0  0  0  0  0  0  0  0
  148.3000  137.5862  153.3045 H   0  0  0  0  0  0  0  0  0  0  0  0
  150.7770  139.1238  153.6346 H   0  0  0  0  0  0  0  0  0  0  0  0
  153.3343  140.8585  160.7785 H   0  0  0  0  0  0  0  0  0  0  0  0
  153.3715  142.5853  162.5406 H   0  0  0  0  0  0  0  0  0  0  0  0
  152.4519  144.8541  162.0958 H   0  0  0  0  0  0  0  0  0  0  0  0
  151.4896  145.3869  159.8654 H   0  0  0  0  0  0  0  0  0  0  0  0
  151.4394  143.6868  158.0905 H   0  0  0  0  0  0  0  0  0  0  0  0
  1  2  2  0  0  0  0
  2  3  1  0  0  0  0
  2 38  1  0  0  0  0
  3  4  1  0  0  0  0
  4  5  1  0  0  0  0
  4 44  1  0  0  0  0
  4 45  1  0  0  0  0
  5 36  1  0  0  0  0
  5  6  1  0  0  0  0
  5 46  1  0  0  0  0
  6  7  1  0  0  0  0
  7  8  1  0  0  0  0
  7 34  1  0  0  0  0
  7 47  1  0  0  0  0
  8 33  1  0  0  0  0
  8  9  1  0  0  0  0
  9 10  2  0  0  0  0
  9 48  1  0  0  0  0
 10 11  1  0  0  0  0
 11 33  2  0  0  0  0
 11 12  1  0  0  0  0
 12 13  1  0  0  0  0
 12 30  2  0  0  0  0
 13 14  1  0  0  0  0
 13 22  1  0  0  0  0
 14 15  2  0  0  0  0
 14 16  1  0  0  0  0
 16 21  1  0  0  0  0
 16 17  2  0  0  0  0
 17 18  1  0  0  0  0
 17 49  1  0  0  0  0
 18 19  2  0  0  0  0
 18 50  1  0  0  0  0
 19 20  1  0  0  0  0
 19 51  1  0  0  0  0
 20 21  2  0  0  0  0
 20 52  1  0  0  0  0
 21 53  1  0  0  0  0
 22 23  2  0  0  0  0
 22 24  1  0  0  0  0
 24 29  1  0  0  0  0
 24 25  2  0  0  0  0
 25 26  1  0  0  0  0
 25 54  1  0  0  0  0
 26 27  2  0  0  0  0
 26 55  1  0  0  0  0
 27 28  1  0  0  0  0
 27 56  1  0  0  0  0
 28 29  2  0  0  0  0
 28 57  1  0  0  0  0
 29 58  1  0  0  0  0
 30 31  1  0  0  0  0
 31 32  2  0  0  0  0
 31 59  1  0  0  0  0
 32 33  1  0  0  0  0
 34 35  1  0  0  0  0
 34 36  1  0  0  0  0
 34 60  1  0  0  0  0
 35 61  1  0  0  0  0
 36 37  1  0  0  0  0
 36 62  1  0  0  0  0
 38 43  1  0  0  0  0
 38 39  2  0  0  0  0
 39 40  1  0  0  0  0
 39 63  1  0  0  0  0
 40 41  2  0  0  0  0
 40 64  1  0  0  0  0
 41 42  1  0  0  0  0
 41 65  1  0  0  0  0
 42 43  2  0  0  0  0
 42 66  1  0  0  0  0
 43 67  1  0  0  0  0
M  END
> <s_m_source_file>
AV-unprocessed.smi

> <i_m_source_file_index>
33

> <i_lp_mmshare_version>
43012

> <i_f3d_flags>
0

> <s_epik_input>
W2NIXTFbY0hdW2NIXVtjSF1bY0hdYzFDKD1PKU9bQ0gyXVtDQEBIXTJPW0NASF0oW0NAQEhdKFtPSF0pW0NAQEhdMkYpbihbY0hdbjMpYyhjMzQpbltjSF1uYzROKEMoPU8pYzVbY0hdW2NIXVtjSF1bY0hdW2NIXTUpQyg9TyljNltjSF1bY0hdW2NIXVtjSF1bY0hdNg==

> <s_epik_cmdline>
J2VwaWtfcHl0aG9uJywgJy1waCcsICc3LjAnLCAnLXRuJywgJzgnLCAnLW1hJywgJzIwMCcsICctbWV0YWxfYmluZGluZycsICctaW1hZScsICc8aW5maWxlLm1hZT4nLCAnLW9tYWUnLCAnPG91dGZpbGUubWFlPic=

> <r_lp_tautomer_probability>
1

> <r_epik_Ionization_Penalty>
0.00067664

> <r_epik_Ionization_Penalty_Charging>
0

> <r_epik_Ionization_Penalty_Neutral>
0.00067664

> <r_epik_State_Penalty>
0.000428095

> <r_epik_Charging_Adjusted_Penalty>
0.000428095

> <i_epik_Tot_Q>
0

> <i_epik_Tot_abs_Q>
0

> <r_epik_Metal_State_Penalty>
-0

> <b_epik_Metal_Only>
0

> <s_epik_Chemistry_Notes>
This compound has an ester and may undergo hydrolysis at high or low pH. This compound contains an acetal/aminal-like group ( X-CH(R)-Y where X, Y are N, S, or O) that may be acid/base labile, releasing an aldehyde.

> <s_lp_Force_Field>
OPLS_2005

> <r_lp_Energy>
69.9903

> <b_lp_Chiralities_Consistent>
1

> <s_lp_Variant>
AV-unprocessed.smi:33-12

> <Gold.Version>
5.8.1

> <Gold.Id.Protein>
6NUR|6NUR_protein|mol2

> <Gold.PLP.Fitness>
66.1291

> <Gold.PLP.PLP>
-62.2718

> <Gold.PLP.part.hbond>
-3.1640

> <Gold.PLP.part.metal>
0.0000

> <Gold.PLP.part.buried>
-5.7382

> <Gold.PLP.part.nonpolar>
-52.1881

> <Gold.PLP.part.repulsive>
0.0204

> <Gold.PLP.ligand.clash>
0.0000

> <Gold.PLP.ligand.torsion>
4.9801

> <Gold.PLP.Chemscore.Hbond>
2.9833

> <Gold.PLP.Chemscore.CHOScore>
0.0000

> <Gold.PLP.Chemscore.Metal>
0.0000

> <Gold.Chemscore.Hbonds>
donor molecule, donor type, donor heavy atom, donor atom, acceptor molecule, acceptor atom, score
      L1  H    35    61       P1  7948  0.89
      P1  H  6896  6908       L1    10  1.00
      P1  H  7997  8009       L1     1  1.00

> <Gold.PLP.Chemscore.Internal.Correction>
4.8678

> <Gold.Rescore>
     Score         DG    S(hbond)    S(metal)    S(lipo)     H(rot)  DE(clash)    DE(int)     intcor
     20.77     -27.38       2.90        0.00     159.59       2.52       0.19       6.42       ----

> <Gold.Chemscore.Fitness>
20.7733

> <Gold.Chemscore.DG>
-27.3834

> <Gold.Chemscore.ZeroCoef>
-5.4800

> <Gold.Chemscore.Hbond>
2.9026

> <Gold.Chemscore.Metal>
0.0000

> <Gold.Chemscore.Lipo>
159.5885

> <Gold.Chemscore.Internal_Hbond>
0.0000

> <Gold.Chemscore.DEClash>
0.1930

> <Gold.Chemscore.DEInternal>
6.4170

> <Gold.Chemscore.Rot>
2.5247

> <Gold.Chemscore.Internal.Correction>
   9.000000E+99

> <Gold.Chemscore.Hbonds>
donor molecule, donor type, donor heavy atom, donor atom, acceptor molecule, acceptor atom, score
      L1  H    35    61       P1  7948  0.86
      P1  H  6896  6908       L1    10  0.98
      P1  H  7997  8009       L1     1  0.92

> <Gold.Chemscore.Hbond.Weighted>
-9.6948

> <Gold.Chemscore.Metal.Weighted>
-0.0000

> <Gold.Chemscore.Lipo.Weighted>
-18.6719

> <Gold.Chemscore.Internal_Hbond.Weighted>
0.0000

> <Gold.Chemscore.DEClash.Weighted>
0.1930

> <Gold.Chemscore.DEInternal.Weighted>
6.4170

> <Gold.Chemscore.Rot.Weighted>
6.4633

> <Gold.Chemscore.Internal.Correction.Weighted>
   9.000000E+99

> <Gold.Protein.RotatedTorsions>
[ 6907 6896 6895 6894 ] final  178.52 input  -60.11 | X-H torsion
[ 7974 7965 7964 7962 ] final -155.63 input  175.53 | X-H torsion
[ 8008 7997 7996 7995 ] final  157.68 input   59.86 | X-H torsion
[ 10167 10162 10161 10158 ] final  -33.28 input  -65.29 | X-H torsion
[ 10718 10713 10712 10709 ] final  138.21 input   66.30 | X-H torsion
[ 10763 10752 10751 10750 ] final  133.72 input  -60.55 | X-H torsion
[ 11005 11000 10999 10996 ] final  -48.77 input  -57.11 | X-H torsion

> <Gold.Protein.ActiveResidues>
 VAL166  LYS551  ARG553  GLY616  TRP617  ASP618  TYR619  PRO620  LYS621  CYS622 
 ASP623  PHE694  ASN695  SER759  ASP760  ASP761  ALA762  ILE779  LEU786  VAL792 
 PHE793  MET794  SER795  GLU796  ALA797  LYS798  CYS799  TRP800  GLU811  SER814 

> <Gold.Protein.RotatedAtoms>
  151.6865  133.3311  159.3232 H   0  0  0  0  0  0  0  0  0  0  0  0  # atno 6907 bound_to 6896
  150.7798  134.6735  159.6414 H   0  0  0  0  0  0  0  0  0  0  0  0  # atno 6908 bound_to 6896
  152.3852  134.6531  160.0180 H   0  0  0  0  0  0  0  0  0  0  0  0  # atno 6909 bound_to 6896
  144.7631  140.4222  143.5962 H   0  0  0  0  0  0  0  0  0  0  0  0  # atno 7974 bound_to 7965
  156.2349  140.1878  156.7146 H   0  0  0  0  0  0  0  0  0  0  0  0  # atno 8008 bound_to 7997
  154.6088  140.0625  156.9494 H   0  0  0  0  0  0  0  0  0  0  0  0  # atno 8009 bound_to 7997
  155.2051  140.3295  155.4340 H   0  0  0  0  0  0  0  0  0  0  0  0  # atno 8010 bound_to 7997
  140.7207  143.3632  151.1923 H   0  0  0  0  0  0  0  0  0  0  0  0  # atno 10167 bound_to 10162
  157.4278  131.1045  151.0284 H   0  0  0  0  0  0  0  0  0  0  0  0  # atno 10718 bound_to 10713
  153.8117  135.3128  155.3401 H   0  0  0  0  0  0  0  0  0  0  0  0  # atno 10763 bound_to 10752
  154.8048  135.4704  154.0369 H   0  0  0  0  0  0  0  0  0  0  0  0  # atno 10764 bound_to 10752
  153.1749  135.6884  153.8645 H   0  0  0  0  0  0  0  0  0  0  0  0  # atno 10765 bound_to 10752
  141.0720  133.6676  156.3489 H   0  0  0  0  0  0  0  0  0  0  0  0  # atno 11005 bound_to 11000
  145.6556  139.1572  143.2837 LP  0  0  0  0  0  0  0  0  0  0  0  0  # atno 17320 bound_to 7965
  146.1713  140.6641  142.9232 LP  0  0  0  0  0  0  0  0  0  0  0  0  # atno 17321 bound_to 7965
  139.7188  143.9257  152.2977 LP  0  0  0  0  0  0  0  0  0  0  0  0  # atno 17342 bound_to 10162
  139.9007  144.6913  150.8668 LP  0  0  0  0  0  0  0  0  0  0  0  0  # atno 17343 bound_to 10162
  157.1191  130.6054  149.5500 LP  0  0  0  0  0  0  0  0  0  0  0  0  # atno 17370 bound_to 10713
  155.9902  130.4953  150.7248 LP  0  0  0  0  0  0  0  0  0  0  0  0  # atno 17371 bound_to 10713
  140.5653  134.5894  157.5444 LP  0  0  0  0  0  0  0  0  0  0  0  0  # atno 17394 bound_to 11000
  139.9533  134.7578  156.0398 LP  0  0  0  0  0  0  0  0  0  0  0  0  # atno 17395 bound_to 11000

$$$$
