AV-unprocessed.smi:2482|AV-procd|sdf|9776|dock6
  -GOLD-   2272013413D 1   1.00000     0.00000
 Structure written by MMmdl.
 35 36  0  0  0  0  0  0  0  0  2 V2000
  153.4101  142.8950  162.7859 C   0  0  0  0  0  0  0  0  0  0  0  0
  152.7180  143.0362  161.4405 C   0  0  0  0  0  0  0  0  0  0  0  0
  152.0023  144.1736  161.2994 N   0  0  0  0  0  0  0  0  0  0  0  0
  151.3510  144.3812  160.1372 C   0  0  0  0  0  0  0  0  0  0  0  0
  151.3858  143.4765  159.0601 C   0  0  0  0  0  0  0  0  0  0  0  0
  152.1453  142.2915  159.1966 C   0  0  0  0  0  0  0  0  0  0  0  0
  152.2183  141.3064  158.1756 N   0  0  0  0  0  0  0  0  0  0  0  0
  151.5858  141.2958  156.9882 C   0  0  0  0  0  0  0  0  0  0  0  0
  150.8050  142.1707  156.6126 O   0  0  0  0  0  0  0  0  0  0  0  0
  151.9086  140.0981  156.0721 C   0  0  1  0  0  0  0  0  0  0  0  0
  151.6881  138.7117  156.7232 C   0  0  0  0  0  0  0  0  0  0  0  0
  150.2444  138.4303  156.9056 N   0  3  2  0  0  0  0  0  0  0  0  0
  149.9957  137.1426  157.5878 C   0  0  0  0  0  0  0  0  0  0  0  0
  149.5219  138.5457  155.6187 C   0  0  0  0  0  0  0  0  0  0  0  0
  149.7590  139.9303  154.9942 C   0  0  0  0  0  0  0  0  0  0  0  0
  151.1607  140.1652  154.8525 O   0  0  0  0  0  0  0  0  0  0  0  0
  152.8161  142.0567  160.4197 C   0  0  0  0  0  0  0  0  0  0  0  0
  153.7410  140.6073  160.6378 Cl  0  0  0  0  0  0  0  0  0  0  0  0
  154.0031  141.9867  162.8732 H   0  0  0  0  0  0  0  0  0  0  0  0
  152.6706  142.8865  163.5870 H   0  0  0  0  0  0  0  0  0  0  0  0
  154.0775  143.7410  162.9518 H   0  0  0  0  0  0  0  0  0  0  0  0
  150.7786  145.2943  160.0659 H   0  0  0  0  0  0  0  0  0  0  0  0
  150.8253  143.6957  158.1638 H   0  0  0  0  0  0  0  0  0  0  0  0
  152.9104  140.5846  158.3180 H   0  0  0  0  0  0  0  0  0  0  0  0
  152.9630  140.1884  155.8093 H   0  0  0  0  0  0  0  0  0  0  0  0
  152.1274  137.9382  156.0912 H   0  0  0  0  0  0  0  0  0  0  0  0
  152.2027  138.6514  157.6835 H   0  0  0  0  0  0  0  0  0  0  0  0
  150.3706  136.3062  156.9964 H   0  0  0  0  0  0  0  0  0  0  0  0
  148.9280  136.9946  157.7530 H   0  0  0  0  0  0  0  0  0  0  0  0
  150.4885  137.1227  158.5604 H   0  0  0  0  0  0  0  0  0  0  0  0
  149.8622  137.7652  154.9364 H   0  0  0  0  0  0  0  0  0  0  0  0
  148.4544  138.3904  155.7781 H   0  0  0  0  0  0  0  0  0  0  0  0
  149.2975  139.9780  154.0077 H   0  0  0  0  0  0  0  0  0  0  0  0
  149.2883  140.7114  155.5926 H   0  0  0  0  0  0  0  0  0  0  0  0
  149.8817  139.1531  157.5116 H   0  0  0  0  0  0  0  0  0  0  0  0
  1  2  1  0  0  0  0
  1 19  1  0  0  0  0
  1 20  1  0  0  0  0
  1 21  1  0  0  0  0
  2 17  1  0  0  0  0
  2  3  2  0  0  0  0
  3  4  1  0  0  0  0
  4  5  2  0  0  0  0
  4 22  1  0  0  0  0
  5  6  1  0  0  0  0
  5 23  1  0  0  0  0
  6  7  1  0  0  0  0
  6 17  2  0  0  0  0
  7  8  1  0  0  0  0
  7 24  1  0  0  0  0
  8  9  2  0  0  0  0
  8 10  1  0  0  0  0
 10 16  1  0  0  0  0
 10 11  1  0  0  0  0
 10 25  1  0  0  0  0
 11 12  1  0  0  0  0
 11 26  1  0  0  0  0
 11 27  1  0  0  0  0
 12 13  1  0  0  0  0
 12 14  1  0  0  0  0
 12 35  1  0  0  0  0
 13 28  1  0  0  0  0
 13 29  1  0  0  0  0
 13 30  1  0  0  0  0
 14 15  1  0  0  0  0
 14 31  1  0  0  0  0
 14 32  1  0  0  0  0
 15 16  1  0  0  0  0
 15 33  1  0  0  0  0
 15 34  1  0  0  0  0
 17 18  1  0  0  0  0
M  CHG  1  12   1
M  END
> <s_m_source_file>
AV-unprocessed.smi

> <i_m_source_file_index>
2482

> <i_lp_mmshare_version>
43012

> <i_f3d_flags>
0

> <s_epik_input>
W0NIM11jMW5bY0hdW2NIXWMoYzFDbClbTkhdQyg9TylbQ0BASF0yW0NIMl1OKFtDSDNdKVtDSDJdW0NIMl1PMg==

> <s_epik_cmdline>
J2VwaWtfcHl0aG9uJywgJy1waCcsICc3LjAnLCAnLXRuJywgJzgnLCAnLW1hJywgJzIwMCcsICctbWV0YWxfYmluZGluZycsICctaW1hZScsICc8aW5maWxlLm1hZT4nLCAnLW9tYWUnLCAnPG91dGZpbGUubWFlPic=

> <r_epik_Ionization_Penalty>
0.314226

> <r_epik_Ionization_Penalty_Charging>
0.314023

> <r_epik_Ionization_Penalty_Neutral>
0.00020299

> <r_epik_State_Penalty>
0.308208

> <r_epik_Charging_Adjusted_Penalty>
0.62223

> <i_epik_Tot_Q>
1

> <i_epik_Tot_abs_Q>
1

> <r_epik_Metal_State_Penalty>
0.314444

> <b_epik_Metal_Only>
0

> <s_lp_Force_Field>
OPLS_2005

> <r_lp_Energy>
21.5381

> <b_lp_Chiralities_Consistent>
1

> <s_lp_Variant>
AV-unprocessed.smi:2482-2

> <Gold.Version>
5.8.1

> <Gold.Id.Protein>
6NUR|6NUR_protein|mol2

> <Gold.PLP.Fitness>
37.4313

> <Gold.PLP.PLP>
-34.4982

> <Gold.PLP.part.hbond>
-1.0000

> <Gold.PLP.part.metal>
0.0000

> <Gold.PLP.part.buried>
-6.6606

> <Gold.PLP.part.nonpolar>
-26.3687

> <Gold.PLP.part.repulsive>
0.4062

> <Gold.PLP.ligand.clash>
0.0000

> <Gold.PLP.ligand.torsion>
0.0427

> <Gold.PLP.Chemscore.Hbond>
1.0000

> <Gold.PLP.Chemscore.CHOScore>
0.0000

> <Gold.PLP.Chemscore.Metal>
0.0000

> <Gold.Chemscore.Hbonds>
donor molecule, donor type, donor heavy atom, donor atom, acceptor molecule, acceptor atom, score
      P1  H  7989  7998       L1    16  1.00

> <Gold.PLP.Chemscore.Internal.Correction>
0.0186

> <Gold.Rescore>
     Score         DG    S(hbond)    S(metal)    S(lipo)     H(rot)  DE(clash)    DE(int)     intcor
     14.83     -17.44       0.96        0.00      96.60       1.00       0.06       2.55       ----

> <Gold.Chemscore.Fitness>
14.8319

> <Gold.Chemscore.DG>
-17.4440

> <Gold.Chemscore.ZeroCoef>
-5.4800

> <Gold.Chemscore.Hbond>
0.9646

> <Gold.Chemscore.Metal>
0.0000

> <Gold.Chemscore.Lipo>
96.5998

> <Gold.Chemscore.Internal_Hbond>
0.0000

> <Gold.Chemscore.DEClash>
0.0605

> <Gold.Chemscore.DEInternal>
2.5516

> <Gold.Chemscore.Rot>
1.0000

> <Gold.Chemscore.Internal.Correction>
   9.000000E+99

> <Gold.Chemscore.Hbonds>
donor molecule, donor type, donor heavy atom, donor atom, acceptor molecule, acceptor atom, score
      P1  H  7989  7998       L1    16  0.92

> <Gold.Chemscore.Hbond.Weighted>
-3.2218

> <Gold.Chemscore.Metal.Weighted>
-0.0000

> <Gold.Chemscore.Lipo.Weighted>
-11.3022

> <Gold.Chemscore.Internal_Hbond.Weighted>
0.0000

> <Gold.Chemscore.DEClash.Weighted>
0.0605

> <Gold.Chemscore.DEInternal.Weighted>
2.5516

> <Gold.Chemscore.Rot.Weighted>
2.5600

> <Gold.Chemscore.Internal.Correction.Weighted>
   9.000000E+99

> <Gold.Protein.RotatedTorsions>
[ 6907 6896 6895 6894 ] final   22.29 input  -60.11 | X-H torsion
[ 7974 7965 7964 7962 ] final -144.62 input  175.53 | X-H torsion
[ 8008 7997 7996 7995 ] final   35.97 input   59.86 | X-H torsion
[ 10167 10162 10161 10158 ] final -125.09 input  -65.29 | X-H torsion
[ 10718 10713 10712 10709 ] final   60.29 input   66.30 | X-H torsion
[ 10763 10752 10751 10750 ] final  -63.73 input  -60.55 | X-H torsion
[ 11005 11000 10999 10996 ] final   14.91 input  -57.11 | X-H torsion

> <Gold.Protein.ActiveResidues>
 VAL166  LYS551  ARG553  GLY616  TRP617  ASP618  TYR619  PRO620  LYS621  CYS622 
 ASP623  PHE694  ASN695  SER759  ASP760  ASP761  ALA762  ILE779  LEU786  VAL792 
 PHE793  MET794  SER795  GLU796  ALA797  LYS798  CYS799  TRP800  GLU811  SER814 

> <Gold.Protein.RotatedAtoms>
  151.9248  135.0282  160.0524 H   0  0  0  0  0  0  0  0  0  0  0  0  # atno 6907 bound_to 6896
  152.2169  133.4949  159.5149 H   0  0  0  0  0  0  0  0  0  0  0  0  # atno 6908 bound_to 6896
  150.6990  134.1311  159.4112 H   0  0  0  0  0  0  0  0  0  0  0  0  # atno 6909 bound_to 6896
  144.8284  140.5686  143.5531 H   0  0  0  0  0  0  0  0  0  0  0  0  # atno 7974 bound_to 7965
  155.1798  140.3299  155.4377 H   0  0  0  0  0  0  0  0  0  0  0  0  # atno 8008 bound_to 7997
  156.2481  140.1929  156.6847 H   0  0  0  0  0  0  0  0  0  0  0  0  # atno 8009 bound_to 7997
  154.6279  140.0586  156.9682 H   0  0  0  0  0  0  0  0  0  0  0  0  # atno 8010 bound_to 7997
  139.9858  143.5694  152.2361 H   0  0  0  0  0  0  0  0  0  0  0  0  # atno 10167 bound_to 10162
  157.5741  130.8930  149.9317 H   0  0  0  0  0  0  0  0  0  0  0  0  # atno 10718 bound_to 10713
  154.3194  135.6199  153.5501 H   0  0  0  0  0  0  0  0  0  0  0  0  # atno 10763 bound_to 10752
  152.9821  135.5720  154.5087 H   0  0  0  0  0  0  0  0  0  0  0  0  # atno 10764 bound_to 10752
  154.4752  135.2861  155.1589 H   0  0  0  0  0  0  0  0  0  0  0  0  # atno 10765 bound_to 10752
  140.4642  134.1097  155.7721 H   0  0  0  0  0  0  0  0  0  0  0  0  # atno 11005 bound_to 11000
  145.4949  139.1486  143.3689 LP  0  0  0  0  0  0  0  0  0  0  0  0  # atno 17320 bound_to 7965
  146.2589  140.5088  142.8862 LP  0  0  0  0  0  0  0  0  0  0  0  0  # atno 17321 bound_to 7965
  139.6376  144.7651  151.2405 LP  0  0  0  0  0  0  0  0  0  0  0  0  # atno 17342 bound_to 10162
  140.7473  143.6371  150.8369 LP  0  0  0  0  0  0  0  0  0  0  0  0  # atno 17343 bound_to 10162
  156.0786  130.3676  150.0627 LP  0  0  0  0  0  0  0  0  0  0  0  0  # atno 17370 bound_to 10713
  156.8775  130.9545  151.3603 LP  0  0  0  0  0  0  0  0  0  0  0  0  # atno 17371 bound_to 10713
  141.1607  133.8798  157.1855 LP  0  0  0  0  0  0  0  0  0  0  0  0  # atno 17394 bound_to 11000
  139.9926  135.0059  157.0010 LP  0  0  0  0  0  0  0  0  0  0  0  0  # atno 17395 bound_to 11000

$$$$
