AV-unprocessed.smi:218|AV-procd|sdf|1666|dock1
  -GOLD-   2262020 73D 1   1.00000     0.00000
 Structure written by MMmdl.
 54 57  0  0  0  0  0  0  0  0  1 V2000
  151.7749  143.4239  160.4091 C   0  0  0  0  0  0  0  0  0  0  0  0
  151.7355  143.1385  158.9031 C   0  0  0  0  0  0  0  0  0  0  0  0
  151.5822  144.4381  158.0945 C   0  0  0  0  0  0  0  0  0  0  0  0
  150.6199  142.2753  158.6727 O   0  0  0  0  0  0  0  0  0  0  0  0
  150.5695  141.4934  157.5344 C   0  0  0  0  0  0  0  0  0  0  0  0
  149.5381  141.7347  156.6036 C   0  0  0  0  0  0  0  0  0  0  0  0
  149.4633  140.9345  155.4447 C   0  0  0  0  0  0  0  0  0  0  0  0
  148.3585  141.1416  154.4231 C   0  0  0  0  0  0  0  0  0  0  0  0
  148.2559  140.1009  153.4058 N   0  0  0  0  0  0  0  0  0  0  0  0
  147.3248  139.1261  153.5016 C   0  0  0  0  0  0  0  0  0  0  0  0
  146.8111  138.7596  154.7049 N   0  0  0  0  0  0  0  0  0  0  0  0
  145.8802  137.8035  154.7708 C   0  0  0  0  0  0  0  0  0  0  0  0
  145.3284  137.1070  153.7752 N   0  0  0  0  0  0  0  0  0  0  0  0
  145.8381  137.4720  152.5634 C   0  0  0  0  0  0  0  0  0  0  0  0
  146.8341  138.4648  152.3457 C   0  0  0  0  0  0  0  0  0  0  0  0
  147.1054  138.5693  150.9878 N   0  0  0  0  0  0  0  0  0  0  0  0
  146.3089  137.6923  150.4381 C   0  0  0  0  0  0  0  0  0  0  0  0
  145.5106  136.9885  151.3124 N   0  0  0  0  0  0  0  0  0  0  0  0
  144.5050  135.9346  150.9791 C   0  0  2  0  0  0  0  0  0  0  0  0
  143.3653  136.1623  151.7450 O   0  0  0  0  0  0  0  0  0  0  0  0
  142.7808  134.9131  152.0821 C   0  0  2  0  0  0  0  0  0  0  0  0
  141.8194  135.0587  153.2744 C   0  0  0  0  0  0  0  0  0  0  0  0
  140.9462  133.9511  153.3286 O   0  0  0  0  0  0  0  0  0  0  0  0
  143.9987  134.0049  152.3148 C   0  0  2  0  0  0  0  0  0  0  0  0
  144.4845  134.1100  153.6401 O   0  0  0  0  0  0  0  0  0  0  0  0
  145.0349  134.5313  151.3238 C   0  0  1  0  0  0  0  0  0  0  0  0
  145.0534  133.7013  150.1793 O   0  0  0  0  0  0  0  0  0  0  0  0
  150.4266  139.9228  155.2614 C   0  0  0  0  0  0  0  0  0  0  0  0
  151.4226  139.7600  156.2433 C   0  0  0  0  0  0  0  0  0  0  0  0
  151.4968  140.5194  157.3570 N   0  0  0  0  0  0  0  0  0  0  0  0
  144.2862  136.0748  149.9193 H   0  0  0  0  0  0  0  0  0  0  0  0
  142.2424  134.5395  151.2084 H   0  0  0  0  0  0  0  0  0  0  0  0
  143.7486  132.9567  152.1433 H   0  0  0  0  0  0  0  0  0  0  0  0
  146.0382  134.5765  151.7515 H   0  0  0  0  0  0  0  0  0  0  0  0
  152.6110  144.0757  160.6639 H   0  0  0  0  0  0  0  0  0  0  0  0
  151.8901  142.5007  160.9775 H   0  0  0  0  0  0  0  0  0  0  0  0
  150.8577  143.9091  160.7445 H   0  0  0  0  0  0  0  0  0  0  0  0
  152.6745  142.6467  158.6446 H   0  0  0  0  0  0  0  0  0  0  0  0
  152.4113  145.1185  158.2903 H   0  0  0  0  0  0  0  0  0  0  0  0
  150.6579  144.9552  158.3540 H   0  0  0  0  0  0  0  0  0  0  0  0
  151.5633  144.2480  157.0218 H   0  0  0  0  0  0  0  0  0  0  0  0
  148.8151  142.5171  156.7815 H   0  0  0  0  0  0  0  0  0  0  0  0
  147.3983  141.2501  154.9295 H   0  0  0  0  0  0  0  0  0  0  0  0
  148.5423  142.0889  153.9164 H   0  0  0  0  0  0  0  0  0  0  0  0
  148.9336  140.1447  152.6584 H   0  0  0  0  0  0  0  0  0  0  0  0
  145.5243  137.5648  155.7622 H   0  0  0  0  0  0  0  0  0  0  0  0
  146.2806  137.5344  149.3698 H   0  0  0  0  0  0  0  0  0  0  0  0
  142.3801  135.0764  154.2095 H   0  0  0  0  0  0  0  0  0  0  0  0
  141.2494  135.9868  153.2164 H   0  0  0  0  0  0  0  0  0  0  0  0
  141.4522  133.1834  153.5485 H   0  0  0  0  0  0  0  0  0  0  0  0
  144.0395  133.4722  154.1765 H   0  0  0  0  0  0  0  0  0  0  0  0
  145.4870  132.8920  150.4028 H   0  0  0  0  0  0  0  0  0  0  0  0
  150.4072  139.2863  154.3890 H   0  0  0  0  0  0  0  0  0  0  0  0
  152.1777  138.9955  156.1340 H   0  0  0  0  0  0  0  0  0  0  0  0
  1  2  1  0  0  0  0
  1 35  1  0  0  0  0
  1 36  1  0  0  0  0
  1 37  1  0  0  0  0
  2  3  1  0  0  0  0
  2  4  1  0  0  0  0
  2 38  1  0  0  0  0
  3 39  1  0  0  0  0
  3 40  1  0  0  0  0
  3 41  1  0  0  0  0
  4  5  1  0  0  0  0
  5 30  1  0  0  0  0
  5  6  2  0  0  0  0
  6  7  1  0  0  0  0
  6 42  1  0  0  0  0
  7  8  1  0  0  0  0
  7 28  2  0  0  0  0
  8  9  1  0  0  0  0
  8 43  1  0  0  0  0
  8 44  1  0  0  0  0
  9 10  1  0  0  0  0
  9 45  1  0  0  0  0
 10 15  1  0  0  0  0
 10 11  2  0  0  0  0
 11 12  1  0  0  0  0
 12 13  2  0  0  0  0
 12 46  1  0  0  0  0
 13 14  1  0  0  0  0
 14 18  1  0  0  0  0
 14 15  2  0  0  0  0
 15 16  1  0  0  0  0
 16 17  2  0  0  0  0
 17 18  1  0  0  0  0
 17 47  1  0  0  0  0
 18 19  1  0  0  0  0
 19 31  1  0  0  0  0
 19 26  1  0  0  0  0
 19 20  1  0  0  0  0
 20 21  1  0  0  0  0
 21 32  1  0  0  0  0
 21 22  1  0  0  0  0
 21 24  1  0  0  0  0
 22 23  1  0  0  0  0
 22 48  1  0  0  0  0
 22 49  1  0  0  0  0
 23 50  1  0  0  0  0
 24 33  1  0  0  0  0
 24 25  1  0  0  0  0
 24 26  1  0  0  0  0
 25 51  1  0  0  0  0
 26 34  1  0  0  0  0
 26 27  1  0  0  0  0
 27 52  1  0  0  0  0
 28 29  1  0  0  0  0
 28 53  1  0  0  0  0
 29 30  2  0  0  0  0
 29 54  1  0  0  0  0
M  END
> <s_m_source_file>
AV-unprocessed.smi

> <i_m_source_file_index>
218

> <i_lp_mmshare_version>
43012

> <i_f3d_flags>
0

> <s_epik_input>
W0NIM11bQ0hdKFtDSDNdKU9jMVtjSF1jKFtjSF1bY0hdbjEpW0NIMl1bTkhdYyhuW2NIXW4yKWMoYzIzKW5bY0hdbjNbQ0BASF00T1tDQEhdKFtDSDJdW09IXSlbQ0BASF0oW09IXSlbQ0BIXTRbT0hd

> <s_epik_cmdline>
J2VwaWtfcHl0aG9uJywgJy1waCcsICc3LjAnLCAnLXRuJywgJzgnLCAnLW1hJywgJzIwMCcsICctbWV0YWxfYmluZGluZycsICctaW1hZScsICc8aW5maWxlLm1hZT4nLCAnLW9tYWUnLCAnPG91dGZpbGUubWFlPic=

> <r_lp_tautomer_probability>
1

> <r_epik_Ionization_Penalty>
0.00457014

> <r_epik_Ionization_Penalty_Charging>
0

> <r_epik_Ionization_Penalty_Neutral>
0.00457014

> <r_epik_State_Penalty>
-0

> <r_epik_Charging_Adjusted_Penalty>
0

> <i_epik_Tot_Q>
0

> <i_epik_Tot_abs_Q>
0

> <r_epik_Metal_State_Penalty>
-0

> <b_epik_Metal_Only>
0

> <s_epik_Chemistry_Notes>
This compound contains an acetal/aminal-like group ( X-CH(R)-Y where X, Y are N, S, or O) that may be acid/base labile, releasing an aldehyde.

> <s_lp_Force_Field>
OPLS_2005

> <r_lp_Energy>
40.0122

> <b_lp_Chiralities_Consistent>
1

> <s_lp_Variant>
AV-unprocessed.smi:218-5

> <Gold.Version>
5.8.1

> <Gold.Id.Protein>
6NUR|6NUR_protein|mol2

> <Gold.PLP.Fitness>
56.0586

> <Gold.PLP.PLP>
-47.0030

> <Gold.PLP.part.hbond>
-6.0595

> <Gold.PLP.part.metal>
0.0000

> <Gold.PLP.part.buried>
5.5264

> <Gold.PLP.part.nonpolar>
-50.3318

> <Gold.PLP.part.repulsive>
2.1882

> <Gold.PLP.ligand.clash>
0.0000

> <Gold.PLP.ligand.torsion>
1.2110

> <Gold.PLP.Chemscore.Hbond>
3.5335

> <Gold.PLP.Chemscore.CHOScore>
0.1399

> <Gold.PLP.Chemscore.Metal>
0.0000

> <Gold.Chemscore.Hbonds>
donor molecule, donor type, donor heavy atom, donor atom, acceptor molecule, acceptor atom, score
      L1  H     9    45       P1  7957  1.00
      L1  H    23    50       P1 10957  0.57
      L1  H    25    51       P1 10957  0.39
      P1  H  7954  7966       L1    16  0.05
      P1  H 10995 11001       L1    23  0.16

> <Gold.PLP.Chemscore.Internal.Correction>
0.4575

> <Gold.Rescore>
     Score         DG    S(hbond)    S(metal)    S(lipo)     H(rot)  DE(clash)    DE(int)     intcor
      6.85     -12.73       2.58        0.00      95.57       4.90       3.59       2.29       ----

> <Gold.Chemscore.Fitness>
6.8513

> <Gold.Chemscore.DG>
-12.7317

> <Gold.Chemscore.ZeroCoef>
-5.4800

> <Gold.Chemscore.Hbond>
2.5812

> <Gold.Chemscore.Metal>
0.0000

> <Gold.Chemscore.Lipo>
95.5737

> <Gold.Chemscore.Internal_Hbond>
0.0000

> <Gold.Chemscore.DEClash>
3.5910

> <Gold.Chemscore.DEInternal>
2.2895

> <Gold.Chemscore.Rot>
4.9029

> <Gold.Chemscore.Internal.Correction>
   9.000000E+99

> <Gold.Chemscore.Hbonds>
donor molecule, donor type, donor heavy atom, donor atom, acceptor molecule, acceptor atom, score
      L1  H     9    45       P1  7957  0.99
      L1  H    23    50       P1 10957  0.46
      L1  H    25    51       P1 10957  0.39
      P1  H 10995 11001       L1    23  0.01

> <Gold.Chemscore.Hbond.Weighted>
-8.6211

> <Gold.Chemscore.Metal.Weighted>
-0.0000

> <Gold.Chemscore.Lipo.Weighted>
-11.1821

> <Gold.Chemscore.Internal_Hbond.Weighted>
0.0000

> <Gold.Chemscore.DEClash.Weighted>
3.5910

> <Gold.Chemscore.DEInternal.Weighted>
2.2895

> <Gold.Chemscore.Rot.Weighted>
12.5515

> <Gold.Chemscore.Internal.Correction.Weighted>
   9.000000E+99

> <Gold.Protein.RotatedTorsions>
[ 6907 6896 6895 6894 ] final   -9.09 input  -60.11 | X-H torsion
[ 7974 7965 7964 7962 ] final  -30.69 input  175.53 | X-H torsion
[ 8008 7997 7996 7995 ] final  -61.12 input   59.86 | X-H torsion
[ 10167 10162 10161 10158 ] final  159.42 input  -65.29 | X-H torsion
[ 10718 10713 10712 10709 ] final  178.16 input   66.30 | X-H torsion
[ 10763 10752 10751 10750 ] final   73.29 input  -60.55 | X-H torsion
[ 11005 11000 10999 10996 ] final   25.10 input  -57.11 | X-H torsion

> <Gold.Protein.ActiveResidues>
 VAL166  LYS551  ARG553  GLY616  TRP617  ASP618  TYR619  PRO620  LYS621  CYS622 
 ASP623  PHE694  ASN695  SER759  ASP760  ASP761  ALA762  ILE779  LEU786  VAL792 
 PHE793  MET794  SER795  GLU796  ALA797  LYS798  CYS799  TRP800  GLU811  SER814 

> <Gold.Protein.RotatedAtoms>
  151.4232  135.1000  159.9619 H   0  0  0  0  0  0  0  0  0  0  0  0  # atno 6907 bound_to 6896
  152.4981  133.8687  159.7298 H   0  0  0  0  0  0  0  0  0  0  0  0  # atno 6908 bound_to 6896
  150.9208  133.6825  159.2860 H   0  0  0  0  0  0  0  0  0  0  0  0  # atno 6909 bound_to 6896
  146.1124  140.5573  142.8772 H   0  0  0  0  0  0  0  0  0  0  0  0  # atno 7974 bound_to 7965
  154.4432  140.1024  156.6381 H   0  0  0  0  0  0  0  0  0  0  0  0  # atno 8008 bound_to 7997
  155.5531  140.3486  155.4455 H   0  0  0  0  0  0  0  0  0  0  0  0  # atno 8009 bound_to 7997
  156.0514  140.1305  157.0035 H   0  0  0  0  0  0  0  0  0  0  0  0  # atno 8010 bound_to 7997
  139.4832  144.4731  151.8548 H   0  0  0  0  0  0  0  0  0  0  0  0  # atno 10167 bound_to 10162
  156.8947  130.9859  151.3044 H   0  0  0  0  0  0  0  0  0  0  0  0  # atno 10718 bound_to 10713
  153.0512  135.5068  154.7872 H   0  0  0  0  0  0  0  0  0  0  0  0  # atno 10763 bound_to 10752
  154.6733  135.2956  154.9715 H   0  0  0  0  0  0  0  0  0  0  0  0  # atno 10764 bound_to 10752
  154.0526  135.6702  153.4855 H   0  0  0  0  0  0  0  0  0  0  0  0  # atno 10765 bound_to 10752
  140.3515  134.2223  155.7679 H   0  0  0  0  0  0  0  0  0  0  0  0  # atno 11005 bound_to 11000
  144.7523  140.5221  143.6793 LP  0  0  0  0  0  0  0  0  0  0  0  0  # atno 17320 bound_to 7965
  145.5637  139.1480  143.3327 LP  0  0  0  0  0  0  0  0  0  0  0  0  # atno 17321 bound_to 7965
  140.4201  144.2254  150.5887 LP  0  0  0  0  0  0  0  0  0  0  0  0  # atno 17342 bound_to 10162
  140.4882  143.2356  151.8857 LP  0  0  0  0  0  0  0  0  0  0  0  0  # atno 17343 bound_to 10162
  157.6062  130.8549  149.8880 LP  0  0  0  0  0  0  0  0  0  0  0  0  # atno 17370 bound_to 10713
  156.0611  130.3699  150.0979 LP  0  0  0  0  0  0  0  0  0  0  0  0  # atno 17371 bound_to 10713
  141.2010  133.7972  157.0459 LP  0  0  0  0  0  0  0  0  0  0  0  0  # atno 17394 bound_to 11000
  140.0699  134.9708  157.1449 LP  0  0  0  0  0  0  0  0  0  0  0  0  # atno 17395 bound_to 11000

$$$$
