AV-unprocessed.smi:967|AV-procd|sdf|4286|dock4
  -GOLD-   22720 2193D 1   1.00000     0.00000
 Structure written by MMmdl.
 43 44  0  0  0  0  0  0  0  0  2 V2000
  145.4838  137.8214  152.8199 C   0  0  0  0  0  0  0  0  0  0  0  0
  146.6717  138.4710  152.2869 N   0  0  0  0  0  0  0  0  0  0  0  0
  146.5584  138.9931  150.9333 C   0  0  0  0  0  0  0  0  0  0  0  0
  147.2377  139.3904  153.1809 C   0  0  0  0  0  0  0  0  0  0  0  0
  148.4998  139.1610  153.7669 C   0  0  0  0  0  0  0  0  0  0  0  0
  149.0310  140.1139  154.6601 C   0  0  0  0  0  0  0  0  0  0  0  0
  148.3013  141.2877  154.9489 C   0  0  0  0  0  0  0  0  0  0  0  0
  148.8715  142.2146  155.8629 N   0  0  0  0  0  0  0  0  0  0  0  0
  150.0198  142.1084  156.5540 C   0  0  0  0  0  0  0  0  0  0  0  0
  150.7806  141.1417  156.5211 O   0  0  0  0  0  0  0  0  0  0  0  0
  150.2280  143.1949  157.3116 N   0  0  0  0  0  0  0  0  0  0  0  0
  151.3610  143.4116  158.2075 C   0  0  2  0  0  0  0  0  0  0  0  0
  151.6973  142.1032  158.9467 C   0  0  0  0  0  0  0  0  0  0  0  0
  152.8357  142.3037  159.9624 C   0  0  0  0  0  0  0  0  0  0  0  0
  152.5407  143.4457  160.9535 C   0  0  2  0  0  0  0  0  0  0  0  0
  151.5020  143.0662  161.8350 O   0  0  0  0  0  0  0  0  0  0  0  0
  152.1627  144.7471  160.2209 C   0  0  0  0  0  0  0  0  0  0  0  0
  151.0262  144.5354  159.2053 C   0  0  0  0  0  0  0  0  0  0  0  0
  147.0330  141.4583  154.3414 C   0  0  0  0  0  0  0  0  0  0  0  0
  146.5592  140.5197  153.4933 N   0  3  0  0  0  0  0  0  0  0  0  0
  145.6620  137.4534  153.8313 H   0  0  0  0  0  0  0  0  0  0  0  0
  145.2079  136.9709  152.1959 H   0  0  0  0  0  0  0  0  0  0  0  0
  144.6402  138.5121  152.8470 H   0  0  0  0  0  0  0  0  0  0  0  0
  147.4924  139.4577  150.6153 H   0  0  0  0  0  0  0  0  0  0  0  0
  145.7624  139.7357  150.8662 H   0  0  0  0  0  0  0  0  0  0  0  0
  146.3305  138.1860  150.2366 H   0  0  0  0  0  0  0  0  0  0  0  0
  149.0569  138.2643  153.5367 H   0  0  0  0  0  0  0  0  0  0  0  0
  149.9964  139.9436  155.1144 H   0  0  0  0  0  0  0  0  0  0  0  0
  148.3152  143.0350  156.0540 H   0  0  0  0  0  0  0  0  0  0  0  0
  149.5409  143.9338  157.2746 H   0  0  0  0  0  0  0  0  0  0  0  0
  152.2414  143.7176  157.6395 H   0  0  0  0  0  0  0  0  0  0  0  0
  150.8110  141.7312  159.4631 H   0  0  0  0  0  0  0  0  0  0  0  0
  151.9803  141.3320  158.2292 H   0  0  0  0  0  0  0  0  0  0  0  0
  153.0260  141.3747  160.5011 H   0  0  0  0  0  0  0  0  0  0  0  0
  153.7539  142.5332  159.4203 H   0  0  0  0  0  0  0  0  0  0  0  0
  153.4260  143.6242  161.5644 H   0  0  0  0  0  0  0  0  0  0  0  0
  151.4735  143.6844  162.5493 H   0  0  0  0  0  0  0  0  0  0  0  0
  151.8851  145.5196  160.9391 H   0  0  0  0  0  0  0  0  0  0  0  0
  153.0399  145.1245  159.6938 H   0  0  0  0  0  0  0  0  0  0  0  0
  150.8385  145.4660  158.6685 H   0  0  0  0  0  0  0  0  0  0  0  0
  150.1038  144.2962  159.7368 H   0  0  0  0  0  0  0  0  0  0  0  0
  146.3718  142.2959  154.5049 H   0  0  0  0  0  0  0  0  0  0  0  0
  145.6432  140.6693  153.0700 H   0  0  0  0  0  0  0  0  0  0  0  0
  1  2  1  0  0  0  0
  1 21  1  0  0  0  0
  1 22  1  0  0  0  0
  1 23  1  0  0  0  0
  2  3  1  0  0  0  0
  2  4  1  0  0  0  0
  3 24  1  0  0  0  0
  3 25  1  0  0  0  0
  3 26  1  0  0  0  0
  4 20  1  0  0  0  0
  4  5  2  0  0  0  0
  5  6  1  0  0  0  0
  5 27  1  0  0  0  0
  6  7  2  0  0  0  0
  6 28  1  0  0  0  0
  7  8  1  0  0  0  0
  7 19  1  0  0  0  0
  8  9  1  0  0  0  0
  8 29  1  0  0  0  0
  9 10  2  0  0  0  0
  9 11  1  0  0  0  0
 11 12  1  0  0  0  0
 11 30  1  0  0  0  0
 12 18  1  0  0  0  0
 12 13  1  0  0  0  0
 12 31  1  0  0  0  0
 13 14  1  0  0  0  0
 13 32  1  0  0  0  0
 13 33  1  0  0  0  0
 14 15  1  0  0  0  0
 14 34  1  0  0  0  0
 14 35  1  0  0  0  0
 15 16  1  0  0  0  0
 15 17  1  0  0  0  0
 15 36  1  0  0  0  0
 16 37  1  0  0  0  0
 17 18  1  0  0  0  0
 17 38  1  0  0  0  0
 17 39  1  0  0  0  0
 18 40  1  0  0  0  0
 18 41  1  0  0  0  0
 19 20  2  0  0  0  0
 19 42  1  0  0  0  0
 20 43  1  0  0  0  0
M  CHG  1  20   1
M  END
> <s_m_source_file>
AV-unprocessed.smi

> <i_m_source_file_index>
967

> <i_lp_mmshare_version>
43012

> <i_f3d_flags>
0

> <s_epik_input>
W0NIM11OKFtDSDNdKWMxW2NIXVtjSF1jKFtjSF1uMSlbTkhdQyg9TylbTkhdW0NAQEhdMltDSDJdW0NIMl1bQ0BASF0oW09IXSlbQ0gyXVtDSDJdMg==

> <s_epik_cmdline>
J2VwaWtfcHl0aG9uJywgJy1waCcsICc3LjAnLCAnLXRuJywgJzgnLCAnLW1hJywgJzIwMCcsICctbWV0YWxfYmluZGluZycsICctaW1hZScsICc8aW5maWxlLm1hZT4nLCAnLW9tYWUnLCAnPG91dGZpbGUubWFlPic=

> <r_lp_tautomer_probability>
0.999994

> <r_epik_Ionization_Penalty>
0.251848

> <r_epik_Ionization_Penalty_Charging>
0.251826

> <r_epik_Ionization_Penalty_Neutral>
2.16844e-05

> <r_epik_State_Penalty>
0.243201

> <r_epik_Charging_Adjusted_Penalty>
0.495027

> <i_epik_Tot_Q>
1

> <i_epik_Tot_abs_Q>
1

> <r_epik_Metal_State_Penalty>
0.534113

> <b_epik_Metal_Only>
0

> <s_lp_Force_Field>
OPLS_2005

> <r_lp_Energy>
23.5814

> <b_lp_Chiralities_Consistent>
1

> <s_lp_Variant>
AV-unprocessed.smi:967-2

> <Gold.Version>
5.8.1

> <Gold.Id.Protein>
6NUR|6NUR_protein|mol2

> <Gold.PLP.Fitness>
50.5423

> <Gold.PLP.PLP>
-40.0682

> <Gold.PLP.part.hbond>
-4.9922

> <Gold.PLP.part.metal>
0.0000

> <Gold.PLP.part.buried>
-0.6532

> <Gold.PLP.part.nonpolar>
-34.8280

> <Gold.PLP.part.repulsive>
0.4686

> <Gold.PLP.ligand.clash>
0.0000

> <Gold.PLP.ligand.torsion>
0.3561

> <Gold.PLP.Chemscore.Hbond>
3.6640

> <Gold.PLP.Chemscore.CHOScore>
0.0000

> <Gold.PLP.Chemscore.Metal>
0.0000

> <Gold.Chemscore.Hbonds>
donor molecule, donor type, donor heavy atom, donor atom, acceptor molecule, acceptor atom, score
      L1  H     8    29       P1  8028  0.48
      L1  H    11    30       P1  8028  0.51
      L1  H    20    43       P1 10175  1.89
      P1  H  6933  6945       L1    16  0.66

> <Gold.PLP.Chemscore.Internal.Correction>
0.1943

> <Gold.Rescore>
     Score         DG    S(hbond)    S(metal)    S(lipo)     H(rot)  DE(clash)    DE(int)     intcor
     18.31     -22.23       2.70        0.00     103.97       1.73       0.63       3.29       ----

> <Gold.Chemscore.Fitness>
18.3111

> <Gold.Chemscore.DG>
-22.2329

> <Gold.Chemscore.ZeroCoef>
-5.4800

> <Gold.Chemscore.Hbond>
2.6996

> <Gold.Chemscore.Metal>
0.0000

> <Gold.Chemscore.Lipo>
103.9717

> <Gold.Chemscore.Internal_Hbond>
0.0000

> <Gold.Chemscore.DEClash>
0.6341

> <Gold.Chemscore.DEInternal>
3.2877

> <Gold.Chemscore.Rot>
1.7299

> <Gold.Chemscore.Internal.Correction>
   9.000000E+99

> <Gold.Chemscore.Hbonds>
donor molecule, donor type, donor heavy atom, donor atom, acceptor molecule, acceptor atom, score
      L1  H     8    29       P1  8028  0.41
      L1  H    11    30       P1  8028  0.29
      L1  H    20    43       P1 10175  0.67
      P1  H  6933  6945       L1    16  0.29

> <Gold.Chemscore.Hbond.Weighted>
-9.0167

> <Gold.Chemscore.Metal.Weighted>
-0.0000

> <Gold.Chemscore.Lipo.Weighted>
-12.1647

> <Gold.Chemscore.Internal_Hbond.Weighted>
0.0000

> <Gold.Chemscore.DEClash.Weighted>
0.6341

> <Gold.Chemscore.DEInternal.Weighted>
3.2877

> <Gold.Chemscore.Rot.Weighted>
4.4285

> <Gold.Chemscore.Internal.Correction.Weighted>
   9.000000E+99

> <Gold.Protein.RotatedTorsions>
[ 6907 6896 6895 6894 ] final   53.66 input  -60.11 | X-H torsion
[ 7974 7965 7964 7962 ] final  -46.25 input  175.53 | X-H torsion
[ 8008 7997 7996 7995 ] final  -34.09 input   59.86 | X-H torsion
[ 10167 10162 10161 10158 ] final  131.81 input  -65.29 | X-H torsion
[ 10718 10713 10712 10709 ] final  -82.93 input   66.30 | X-H torsion
[ 10763 10752 10751 10750 ] final  -44.54 input  -60.55 | X-H torsion
[ 11005 11000 10999 10996 ] final  -87.36 input  -57.11 | X-H torsion

> <Gold.Protein.ActiveResidues>
 VAL166  LYS551  ARG553  GLY616  TRP617  ASP618  TYR619  PRO620  LYS621  CYS622 
 ASP623  PHE694  ASN695  SER759  ASP760  ASP761  ALA762  ILE779  LEU786  VAL792 
 PHE793  MET794  SER795  GLU796  ALA797  LYS798  CYS799  TRP800  GLU811  SER814 

> <Gold.Protein.RotatedAtoms>
  152.3360  134.7197  160.0276 H   0  0  0  0  0  0  0  0  0  0  0  0  # atno 6907 bound_to 6896
  151.7598  133.3327  159.3422 H   0  0  0  0  0  0  0  0  0  0  0  0  # atno 6908 bound_to 6896
  150.7451  134.6048  159.6100 H   0  0  0  0  0  0  0  0  0  0  0  0  # atno 6909 bound_to 6896
  145.9738  140.7355  142.9397 H   0  0  0  0  0  0  0  0  0  0  0  0  # atno 7974 bound_to 7965
  154.4130  140.1693  156.1993 H   0  0  0  0  0  0  0  0  0  0  0  0  # atno 8008 bound_to 7997
  155.9537  140.3399  155.6407 H   0  0  0  0  0  0  0  0  0  0  0  0  # atno 8009 bound_to 7997
  155.6837  140.0725  157.2466 H   0  0  0  0  0  0  0  0  0  0  0  0  # atno 8010 bound_to 7997
  139.5367  144.6690  151.4762 H   0  0  0  0  0  0  0  0  0  0  0  0  # atno 10167 bound_to 10162
  156.0025  130.4649  150.4179 H   0  0  0  0  0  0  0  0  0  0  0  0  # atno 10718 bound_to 10713
  154.0137  135.6678  153.4767 H   0  0  0  0  0  0  0  0  0  0  0  0  # atno 10763 bound_to 10752
  153.0610  135.5028  154.8088 H   0  0  0  0  0  0  0  0  0  0  0  0  # atno 10764 bound_to 10752
  154.6980  135.3073  154.9347 H   0  0  0  0  0  0  0  0  0  0  0  0  # atno 10765 bound_to 10752
  141.1618  133.7507  156.9295 H   0  0  0  0  0  0  0  0  0  0  0  0  # atno 11005 bound_to 11000
  144.6843  140.2794  143.7294 LP  0  0  0  0  0  0  0  0  0  0  0  0  # atno 17320 bound_to 7965
  145.7867  139.1911  143.2126 LP  0  0  0  0  0  0  0  0  0  0  0  0  # atno 17321 bound_to 7965
  140.6577  143.8564  150.6853 LP  0  0  0  0  0  0  0  0  0  0  0  0  # atno 17342 bound_to 10162
  140.1949  143.4006  152.1835 LP  0  0  0  0  0  0  0  0  0  0  0  0  # atno 17343 bound_to 10162
  157.2237  131.0488  151.2532 LP  0  0  0  0  0  0  0  0  0  0  0  0  # atno 17370 bound_to 10713
  157.3776  130.7214  149.6608 LP  0  0  0  0  0  0  0  0  0  0  0  0  # atno 17371 bound_to 10713
  140.1396  134.9302  157.2449 LP  0  0  0  0  0  0  0  0  0  0  0  0  # atno 17394 bound_to 11000
  140.2853  134.3303  155.7331 LP  0  0  0  0  0  0  0  0  0  0  0  0  # atno 17395 bound_to 11000

$$$$
