AV-unprocessed.smi:249|AV-procd|sdf|1907|dock5
  -GOLD-   2262020593D 1   1.00000     0.00000
 Structure written by MMmdl.
 64 67  0  0  0  0  0  0  0  0  2 V2000
  145.7988  131.2498  151.9529 C   0  0  0  0  0  0  0  0  0  0  0  0
  145.7878  132.6451  152.5959 C   0  0  0  0  0  0  0  0  0  0  0  0
  145.4664  132.6174  154.0534 N   0  3  1  0  0  0  0  0  0  0  0  0
  146.3191  131.6876  154.8475 C   0  0  0  0  0  0  0  0  0  0  0  0
  147.7504  132.2297  155.0271 C   0  0  0  0  0  0  0  0  0  0  0  0
  147.7274  133.6310  155.6661 C   0  0  1  0  0  0  0  0  0  0  0  0
  149.0731  134.1848  155.8346 N   0  0  0  0  0  0  0  0  0  0  0  0
  150.2440  133.5188  155.2685 C   0  0  0  0  0  0  0  0  0  0  0  0
  149.2716  135.2387  156.6694 C   0  0  0  0  0  0  0  0  0  0  0  0
  148.3741  135.4509  157.6679 N   0  0  0  0  0  0  0  0  0  0  0  0
  148.5197  136.4832  158.5031 C   0  0  0  0  0  0  0  0  0  0  0  0
  149.4799  137.4083  158.5254 N   0  0  0  0  0  0  0  0  0  0  0  0
  150.3977  137.1919  157.5410 C   0  0  0  0  0  0  0  0  0  0  0  0
  150.3712  136.1430  156.5771 C   0  0  0  0  0  0  0  0  0  0  0  0
  151.4811  136.2461  155.7446 N   0  0  0  0  0  0  0  0  0  0  0  0
  152.1147  137.3005  156.1795 C   0  0  0  0  0  0  0  0  0  0  0  0
  151.5435  137.9190  157.2678 N   0  0  0  0  0  0  0  0  0  0  0  0
  152.0312  139.1099  157.9420 C   0  0  0  0  0  0  0  0  0  0  0  0
  151.2288  140.4091  157.6502 C   0  0  2  0  0  0  0  0  0  0  0  0
  151.5607  140.8971  156.2189 C   0  0  0  0  0  0  0  0  0  0  0  0
  151.0613  140.0072  155.2416 O   0  0  0  0  0  0  0  0  0  0  0  0
  151.4704  141.5298  158.7056 C   0  0  1  0  0  0  0  0  0  0  0  0
  152.8901  141.6104  159.2479 C   0  0  0  0  0  0  0  0  0  0  0  0
  152.9327  143.0089  159.8450 C   0  0  0  0  0  0  0  0  0  0  0  0
  152.1838  143.8010  158.9380 O   0  0  0  0  0  0  0  0  0  0  0  0
  151.2882  142.9726  158.2025 C   0  0  0  0  0  0  0  0  0  0  0  0
  146.8042  134.5753  154.8722 C   0  0  0  0  0  0  0  0  0  0  0  0
  145.3996  133.9570  154.7149 C   0  0  1  0  0  0  0  0  0  0  0  0
  144.3990  134.9226  154.0553 C   0  0  0  0  0  0  0  0  0  0  0  0
  145.8815  131.3318  150.8688 H   0  0  0  0  0  0  0  0  0  0  0  0
  144.8800  130.7050  152.1716 H   0  0  0  0  0  0  0  0  0  0  0  0
  146.6419  130.6472  152.2891 H   0  0  0  0  0  0  0  0  0  0  0  0
  146.7370  133.1486  152.4141 H   0  0  0  0  0  0  0  0  0  0  0  0
  145.0331  133.2210  152.0641 H   0  0  0  0  0  0  0  0  0  0  0  0
  145.8603  131.5578  155.8287 H   0  0  0  0  0  0  0  0  0  0  0  0
  146.3402  130.6919  154.4077 H   0  0  0  0  0  0  0  0  0  0  0  0
  148.3220  131.5477  155.6576 H   0  0  0  0  0  0  0  0  0  0  0  0
  148.2603  132.2498  154.0640 H   0  0  0  0  0  0  0  0  0  0  0  0
  147.2803  133.4885  156.6490 H   0  0  0  0  0  0  0  0  0  0  0  0
  150.9686  134.2505  154.9092 H   0  0  0  0  0  0  0  0  0  0  0  0
  149.9726  132.8812  154.4278 H   0  0  0  0  0  0  0  0  0  0  0  0
  150.7281  132.8951  156.0207 H   0  0  0  0  0  0  0  0  0  0  0  0
  147.7581  136.5816  159.2624 H   0  0  0  0  0  0  0  0  0  0  0  0
  153.0290  137.6506  155.7225 H   0  0  0  0  0  0  0  0  0  0  0  0
  152.0445  138.9182  159.0158 H   0  0  0  0  0  0  0  0  0  0  0  0
  153.0732  139.2296  157.6449 H   0  0  0  0  0  0  0  0  0  0  0  0
  150.1644  140.1712  157.6628 H   0  0  0  0  0  0  0  0  0  0  0  0
  151.1078  141.8653  156.0101 H   0  0  0  0  0  0  0  0  0  0  0  0
  152.6372  141.0108  156.0872 H   0  0  0  0  0  0  0  0  0  0  0  0
  150.2108  139.7018  155.5181 H   0  0  0  0  0  0  0  0  0  0  0  0
  150.8009  141.3716  159.5530 H   0  0  0  0  0  0  0  0  0  0  0  0
  153.1140  140.8438  159.9902 H   0  0  0  0  0  0  0  0  0  0  0  0
  153.6161  141.5285  158.4373 H   0  0  0  0  0  0  0  0  0  0  0  0
  152.4421  143.0246  160.8192 H   0  0  0  0  0  0  0  0  0  0  0  0
  153.9479  143.3872  159.9656 H   0  0  0  0  0  0  0  0  0  0  0  0
  151.5455  143.0597  157.1466 H   0  0  0  0  0  0  0  0  0  0  0  0
  150.2668  143.3275  158.3333 H   0  0  0  0  0  0  0  0  0  0  0  0
  146.7281  135.5305  155.3933 H   0  0  0  0  0  0  0  0  0  0  0  0
  147.2263  134.7976  153.8921 H   0  0  0  0  0  0  0  0  0  0  0  0
  145.0124  133.7753  155.7191 H   0  0  0  0  0  0  0  0  0  0  0  0
  144.2313  135.7921  154.6916 H   0  0  0  0  0  0  0  0  0  0  0  0
  143.4323  134.4440  153.8960 H   0  0  0  0  0  0  0  0  0  0  0  0
  144.7566  135.2981  153.0966 H   0  0  0  0  0  0  0  0  0  0  0  0
  144.5292  132.2444  154.1069 H   0  0  0  0  0  0  0  0  0  0  0  0
  1  2  1  0  0  0  0
  1 30  1  0  0  0  0
  1 31  1  0  0  0  0
  1 32  1  0  0  0  0
  2  3  1  0  0  0  0
  2 33  1  0  0  0  0
  2 34  1  0  0  0  0
  3 28  1  0  0  0  0
  3  4  1  0  0  0  0
  3 64  1  0  0  0  0
  4  5  1  0  0  0  0
  4 35  1  0  0  0  0
  4 36  1  0  0  0  0
  5  6  1  0  0  0  0
  5 37  1  0  0  0  0
  5 38  1  0  0  0  0
  6  7  1  0  0  0  0
  6 27  1  0  0  0  0
  6 39  1  0  0  0  0
  7  8  1  0  0  0  0
  7  9  1  0  0  0  0
  8 40  1  0  0  0  0
  8 41  1  0  0  0  0
  8 42  1  0  0  0  0
  9 14  1  0  0  0  0
  9 10  2  0  0  0  0
 10 11  1  0  0  0  0
 11 12  2  0  0  0  0
 11 43  1  0  0  0  0
 12 13  1  0  0  0  0
 13 17  1  0  0  0  0
 13 14  2  0  0  0  0
 14 15  1  0  0  0  0
 15 16  2  0  0  0  0
 16 17  1  0  0  0  0
 16 44  1  0  0  0  0
 17 18  1  0  0  0  0
 18 19  1  0  0  0  0
 18 45  1  0  0  0  0
 18 46  1  0  0  0  0
 19 20  1  0  0  0  0
 19 22  1  0  0  0  0
 19 47  1  0  0  0  0
 20 21  1  0  0  0  0
 20 48  1  0  0  0  0
 20 49  1  0  0  0  0
 21 50  1  0  0  0  0
 22 26  1  0  0  0  0
 22 23  1  0  0  0  0
 22 51  1  0  0  0  0
 23 24  1  0  0  0  0
 23 52  1  0  0  0  0
 23 53  1  0  0  0  0
 24 25  1  0  0  0  0
 24 54  1  0  0  0  0
 24 55  1  0  0  0  0
 25 26  1  0  0  0  0
 26 56  1  0  0  0  0
 26 57  1  0  0  0  0
 27 28  1  0  0  0  0
 27 58  1  0  0  0  0
 27 59  1  0  0  0  0
 28 29  1  0  0  0  0
 28 60  1  0  0  0  0
 29 61  1  0  0  0  0
 29 62  1  0  0  0  0
 29 63  1  0  0  0  0
M  CHG  1   3   1
M  END
> <s_m_source_file>
AV-unprocessed.smi

> <i_m_source_file_index>
249

> <i_lp_mmshare_version>
43012

> <i_f3d_flags>
0

> <s_epik_input>
W0NIM11bQ0gyXU4xW0NIMl1bQ0gyXVtDQEhdKFtDSDJdW0NASF0xW0NIM10pTihbQ0gzXSljKG5bY0hdbjIpYyhjMjMpbltjSF1uM1tDSDJdW0NASF0oW0NIMl1bT0hdKVtDQEBIXTRbQ0gyXVtDSDJdT1tDSDJdNA==

> <s_epik_cmdline>
J2VwaWtfcHl0aG9uJywgJy1waCcsICc3LjAnLCAnLXRuJywgJzgnLCAnLW1hJywgJzIwMCcsICctbWV0YWxfYmluZGluZycsICctaW1hZScsICc8aW5maWxlLm1hZT4nLCAnLW9tYWUnLCAnPG91dGZpbGUubWFlPic=

> <r_lp_tautomer_probability>
1

> <r_epik_Ionization_Penalty>
0.00294688

> <r_epik_Ionization_Penalty_Charging>
0.00169971

> <r_epik_Ionization_Penalty_Neutral>
0.00124717

> <r_epik_State_Penalty>
-0

> <r_epik_Charging_Adjusted_Penalty>
0.00169971

> <i_epik_Tot_Q>
1

> <i_epik_Tot_abs_Q>
1

> <r_epik_Metal_State_Penalty>
-0

> <b_epik_Metal_Only>
0

> <s_lp_Force_Field>
OPLS_2005

> <r_lp_Energy>
54.7906

> <b_lp_Chiralities_Consistent>
1

> <s_lp_Variant>
AV-unprocessed.smi:249-10

> <Gold.Version>
5.8.1

> <Gold.Id.Protein>
6NUR|6NUR_protein|mol2

> <Gold.PLP.Fitness>
43.0326

> <Gold.PLP.PLP>
-33.7883

> <Gold.PLP.part.hbond>
-3.0000

> <Gold.PLP.part.metal>
0.0000

> <Gold.PLP.part.buried>
-8.6861

> <Gold.PLP.part.nonpolar>
-22.8649

> <Gold.PLP.part.repulsive>
0.1170

> <Gold.PLP.ligand.clash>
0.0000

> <Gold.PLP.ligand.torsion>
1.5347

> <Gold.PLP.Chemscore.Hbond>
3.9000

> <Gold.PLP.Chemscore.CHOScore>
0.0000

> <Gold.PLP.Chemscore.Metal>
0.0000

> <Gold.Chemscore.Hbonds>
donor molecule, donor type, donor heavy atom, donor atom, acceptor molecule, acceptor atom, score
      L1  H     3    64       P1 10957  2.00
      P1  H  7989  7998       L1    21  1.00
      P1  H 10752 10765       L1    15  0.80

> <Gold.PLP.Chemscore.Internal.Correction>
0.6137

> <Gold.Rescore>
     Score         DG    S(hbond)    S(metal)    S(lipo)     H(rot)  DE(clash)    DE(int)     intcor
     11.57     -14.41       1.64        0.00      87.66       2.65       0.06       2.78       ----

> <Gold.Chemscore.Fitness>
11.5686

> <Gold.Chemscore.DG>
-14.4111

> <Gold.Chemscore.ZeroCoef>
-5.4800

> <Gold.Chemscore.Hbond>
1.6355

> <Gold.Chemscore.Metal>
0.0000

> <Gold.Chemscore.Lipo>
87.6620

> <Gold.Chemscore.Internal_Hbond>
0.0000

> <Gold.Chemscore.DEClash>
0.0580

> <Gold.Chemscore.DEInternal>
2.7845

> <Gold.Chemscore.Rot>
2.6515

> <Gold.Chemscore.Internal.Correction>
   9.000000E+99

> <Gold.Chemscore.Hbonds>
donor molecule, donor type, donor heavy atom, donor atom, acceptor molecule, acceptor atom, score
      L1  H     3    64       P1 10957  0.28
      P1  H  7989  7998       L1    21  0.37
      P1  H 10752 10765       L1    15  0.11

> <Gold.Chemscore.Hbond.Weighted>
-5.4626

> <Gold.Chemscore.Metal.Weighted>
-0.0000

> <Gold.Chemscore.Lipo.Weighted>
-10.2565

> <Gold.Chemscore.Internal_Hbond.Weighted>
0.0000

> <Gold.Chemscore.DEClash.Weighted>
0.0580

> <Gold.Chemscore.DEInternal.Weighted>
2.7845

> <Gold.Chemscore.Rot.Weighted>
6.7880

> <Gold.Chemscore.Internal.Correction.Weighted>
   9.000000E+99

> <Gold.Protein.RotatedTorsions>
[ 6907 6896 6895 6894 ] final  -15.35 input  -60.11 | X-H torsion
[ 7974 7965 7964 7962 ] final -137.61 input  175.53 | X-H torsion
[ 8008 7997 7996 7995 ] final -170.55 input   59.86 | X-H torsion
[ 10167 10162 10161 10158 ] final -115.18 input  -65.29 | X-H torsion
[ 10718 10713 10712 10709 ] final  -22.25 input   66.30 | X-H torsion
[ 10763 10752 10751 10750 ] final  178.87 input  -60.55 | X-H torsion
[ 11005 11000 10999 10996 ] final  -43.17 input  -57.11 | X-H torsion

> <Gold.Protein.ActiveResidues>
 VAL166  LYS551  ARG553  GLY616  TRP617  ASP618  TYR619  PRO620  LYS621  CYS622 
 ASP623  PHE694  ASN695  SER759  ASP760  ASP761  ALA762  ILE779  LEU786  VAL792 
 PHE793  MET794  SER795  GLU796  ALA797  LYS798  CYS799  TRP800  GLU811  SER814 

> <Gold.Protein.RotatedAtoms>
  151.3254  135.0829  159.9319 H   0  0  0  0  0  0  0  0  0  0  0  0  # atno 6907 bound_to 6896
  152.5247  133.9597  159.7721 H   0  0  0  0  0  0  0  0  0  0  0  0  # atno 6908 bound_to 6896
  150.9925  133.6082  159.2736 H   0  0  0  0  0  0  0  0  0  0  0  0  # atno 6909 bound_to 6896
  144.8827  140.6530  143.5195 H   0  0  0  0  0  0  0  0  0  0  0  0  # atno 7974 bound_to 7965
  155.9199  140.1072  157.1215 H   0  0  0  0  0  0  0  0  0  0  0  0  # atno 8008 bound_to 7997
  154.4052  140.1258  156.4731 H   0  0  0  0  0  0  0  0  0  0  0  0  # atno 8009 bound_to 7997
  155.7209  140.3470  155.5018 H   0  0  0  0  0  0  0  0  0  0  0  0  # atno 8010 bound_to 7997
  140.0929  143.4683  152.1859 H   0  0  0  0  0  0  0  0  0  0  0  0  # atno 10167 bound_to 10162
  156.5071  130.4601  149.6669 H   0  0  0  0  0  0  0  0  0  0  0  0  # atno 10718 bound_to 10713
  154.5132  135.2789  155.1325 H   0  0  0  0  0  0  0  0  0  0  0  0  # atno 10763 bound_to 10752
  154.2912  135.6266  153.5389 H   0  0  0  0  0  0  0  0  0  0  0  0  # atno 10764 bound_to 10752
  152.9922  135.5674  154.5603 H   0  0  0  0  0  0  0  0  0  0  0  0  # atno 10765 bound_to 10752
  141.0366  133.6797  156.2696 H   0  0  0  0  0  0  0  0  0  0  0  0  # atno 11005 bound_to 11000
  145.3925  139.1614  143.4221 LP  0  0  0  0  0  0  0  0  0  0  0  0  # atno 17320 bound_to 7965
  146.3005  140.4015  142.8706 LP  0  0  0  0  0  0  0  0  0  0  0  0  # atno 17321 bound_to 7965
  139.5714  144.7465  151.3880 LP  0  0  0  0  0  0  0  0  0  0  0  0  # atno 17342 bound_to 10162
  140.7019  143.7611  150.7417 LP  0  0  0  0  0  0  0  0  0  0  0  0  # atno 17343 bound_to 10162
  156.3276  130.7314  151.2238 LP  0  0  0  0  0  0  0  0  0  0  0  0  # atno 17370 bound_to 10713
  157.7455  131.0438  150.4764 LP  0  0  0  0  0  0  0  0  0  0  0  0  # atno 17371 bound_to 10713
  140.6311  134.5262  157.5559 LP  0  0  0  0  0  0  0  0  0  0  0  0  # atno 17394 bound_to 11000
  139.9245  134.8083  156.1111 LP  0  0  0  0  0  0  0  0  0  0  0  0  # atno 17395 bound_to 11000

$$$$
