AV-unprocessed.smi:112|AV-procd|sdf|1089|dock2
  -GOLD-   2262018193D 1   1.00000     0.00000
 Structure written by MMmdl.
 54 57  0  0  0  0  0  0  0  0  3 V2000
  149.6983  134.3561  155.7253 C   0  0  0  0  0  0  0  0  0  0  0  0
  149.4228  135.8169  155.4034 C   0  0  0  0  0  0  0  0  0  0  0  0
  148.1689  136.2872  155.2095 C   0  0  0  0  0  0  0  0  0  0  0  0
  147.8839  137.6111  154.9204 N   0  0  0  0  0  0  0  0  0  0  0  0
  146.4683  138.1147  154.7171 C   0  0  2  0  0  0  0  0  0  0  0  0
  145.4446  136.9863  154.9008 C   0  0  0  0  0  0  0  0  0  0  0  0
  144.4261  137.3321  153.8373 C   0  0  2  0  0  0  0  0  0  0  0  0
  143.6196  136.2246  153.4887 O   0  0  0  0  0  0  0  0  0  0  0  0
  145.3040  137.8709  152.7006 C   0  0  2  0  0  0  0  0  0  0  0  0
  145.9794  136.7868  151.8311 C   0  0  0  0  0  0  0  0  0  0  0  0
  146.5326  137.3761  150.6738 O   0  0  0  0  0  0  0  0  0  0  0  0
  146.3097  138.5982  153.4107 O   0  0  0  0  0  0  0  0  0  0  0  0
  148.9415  138.5317  154.7742 C   0  0  0  0  0  0  0  0  0  0  0  0
  148.7145  139.7106  154.4917 O   0  0  0  0  0  0  0  0  0  0  0  0
  150.2634  138.0714  154.9653 N   0  0  0  0  0  0  0  0  0  0  0  0
  151.3743  139.0421  154.8402 C   0  0  0  0  0  0  0  0  0  0  0  0
  152.0241  139.4205  156.1897 C   0  0  0  0  0  0  0  0  0  0  0  0
  153.0094  138.7889  156.5730 O   0  0  0  0  0  0  0  0  0  0  0  0
  151.4759  140.4429  156.8925 N   0  0  0  0  0  0  0  0  0  0  0  0
  150.2975  141.2016  156.4383 C   0  0  0  0  0  0  0  0  0  0  0  0
  150.0280  142.2724  157.5178 C   0  0  0  0  0  0  0  0  0  0  0  0
  151.1052  142.0133  158.5289 C   0  0  0  0  0  0  0  0  0  0  0  0
  151.3155  142.7136  159.7290 C   0  0  0  0  0  0  0  0  0  0  0  0
  152.3918  142.3286  160.5666 C   0  0  0  0  0  0  0  0  0  0  0  0
  152.6447  143.0432  161.8337 N   0  3  0  0  0  0  0  0  0  0  0  0
  152.1315  144.1463  161.9917 O   0  0  0  0  0  0  0  0  0  0  0  0
  153.3569  142.5023  162.6736 O   0  5  0  0  0  0  0  0  0  0  0  0
  153.2232  141.2477  160.1694 C   0  0  0  0  0  0  0  0  0  0  0  0
  152.9967  140.5545  158.9601 C   0  0  0  0  0  0  0  0  0  0  0  0
  151.9198  140.9560  158.1404 C   0  0  0  0  0  0  0  0  0  0  0  0
  150.5642  136.7284  155.2990 C   0  0  0  0  0  0  0  0  0  0  0  0
  151.7295  136.3743  155.4889 O   0  0  0  0  0  0  0  0  0  0  0  0
  148.7806  133.7688  155.7697 H   0  0  0  0  0  0  0  0  0  0  0  0
  150.1976  134.2658  156.6908 H   0  0  0  0  0  0  0  0  0  0  0  0
  150.3411  133.9125  154.9642 H   0  0  0  0  0  0  0  0  0  0  0  0
  147.3616  135.5756  155.2878 H   0  0  0  0  0  0  0  0  0  0  0  0
  146.3444  138.9397  155.4209 H   0  0  0  0  0  0  0  0  0  0  0  0
  145.9146  136.0227  154.6951 H   0  0  0  0  0  0  0  0  0  0  0  0
  145.0368  136.9771  155.9120 H   0  0  0  0  0  0  0  0  0  0  0  0
  143.7819  138.1325  154.2046 H   0  0  0  0  0  0  0  0  0  0  0  0
  143.0831  135.9956  154.2323 H   0  0  0  0  0  0  0  0  0  0  0  0
  144.7240  138.5439  152.0676 H   0  0  0  0  0  0  0  0  0  0  0  0
  146.7443  136.2362  152.3778 H   0  0  0  0  0  0  0  0  0  0  0  0
  145.2472  136.0555  151.4888 H   0  0  0  0  0  0  0  0  0  0  0  0
  145.8523  137.8545  150.2255 H   0  0  0  0  0  0  0  0  0  0  0  0
  152.1496  138.6580  154.1760 H   0  0  0  0  0  0  0  0  0  0  0  0
  151.0227  139.9469  154.3432 H   0  0  0  0  0  0  0  0  0  0  0  0
  150.4866  141.6732  155.4731 H   0  0  0  0  0  0  0  0  0  0  0  0
  149.4324  140.5453  156.3367 H   0  0  0  0  0  0  0  0  0  0  0  0
  150.1155  143.2830  157.1181 H   0  0  0  0  0  0  0  0  0  0  0  0
  149.0427  142.1546  157.9698 H   0  0  0  0  0  0  0  0  0  0  0  0
  150.6601  143.5298  159.9944 H   0  0  0  0  0  0  0  0  0  0  0  0
  154.0489  140.9369  160.7923 H   0  0  0  0  0  0  0  0  0  0  0  0
  153.6518  139.7395  158.6965 H   0  0  0  0  0  0  0  0  0  0  0  0
  1  2  1  0  0  0  0
  1 33  1  0  0  0  0
  1 34  1  0  0  0  0
  1 35  1  0  0  0  0
  2 31  1  0  0  0  0
  2  3  2  0  0  0  0
  3  4  1  0  0  0  0
  3 36  1  0  0  0  0
  4  5  1  0  0  0  0
  4 13  1  0  0  0  0
  5 12  1  0  0  0  0
  5  6  1  0  0  0  0
  5 37  1  0  0  0  0
  6  7  1  0  0  0  0
  6 38  1  0  0  0  0
  6 39  1  0  0  0  0
  7  8  1  0  0  0  0
  7  9  1  0  0  0  0
  7 40  1  0  0  0  0
  8 41  1  0  0  0  0
  9 10  1  0  0  0  0
  9 12  1  0  0  0  0
  9 42  1  0  0  0  0
 10 11  1  0  0  0  0
 10 43  1  0  0  0  0
 10 44  1  0  0  0  0
 11 45  1  0  0  0  0
 13 14  2  0  0  0  0
 13 15  1  0  0  0  0
 15 16  1  0  0  0  0
 15 31  1  0  0  0  0
 16 17  1  0  0  0  0
 16 46  1  0  0  0  0
 16 47  1  0  0  0  0
 17 18  2  0  0  0  0
 17 19  1  0  0  0  0
 19 30  1  0  0  0  0
 19 20  1  0  0  0  0
 20 21  1  0  0  0  0
 20 48  1  0  0  0  0
 20 49  1  0  0  0  0
 21 22  1  0  0  0  0
 21 50  1  0  0  0  0
 21 51  1  0  0  0  0
 22 30  2  0  0  0  0
 22 23  1  0  0  0  0
 23 24  2  0  0  0  0
 23 52  1  0  0  0  0
 24 25  1  0  0  0  0
 24 28  1  0  0  0  0
 25 26  2  0  0  0  0
 25 27  1  0  0  0  0
 28 29  2  0  0  0  0
 28 53  1  0  0  0  0
 29 30  1  0  0  0  0
 29 54  1  0  0  0  0
 31 32  2  0  0  0  0
M  CHG  1  25   1
M  CHG  1  27  -1
M  END
> <s_m_source_file>
AV-unprocessed.smi

> <i_m_source_file_index>
112

> <i_lp_mmshare_version>
43012

> <i_f3d_flags>
0

> <s_epik_input>
W09IXVtDSDJdW0NAQEhdKE8xKVtDQEhdKFtPSF0pW0NIMl1bQ0BIXTFuKFtjSF1jMltDSDNdKWMoPU8pbihjMj1PKVtDSDJdQyg9TylOKFtDSDJdW0NIMl0zKWMoYzM0KVtjSF1bY0hdYyhbY0hdNClbTitdKD1PKVtPLV0=

> <s_epik_cmdline>
J2VwaWtfcHl0aG9uJywgJy1waCcsICc3LjAnLCAnLXRuJywgJzgnLCAnLW1hJywgJzIwMCcsICctbWV0YWxfYmluZGluZycsICctaW1hZScsICc8aW5maWxlLm1hZT4nLCAnLW9tYWUnLCAnPG91dGZpbGUubWFlPic=

> <r_lp_tautomer_probability>
1

> <r_epik_Ionization_Penalty>
2.5696e-07

> <r_epik_Ionization_Penalty_Charging>
1.04886e-08

> <r_epik_Ionization_Penalty_Neutral>
2.46472e-07

> <r_epik_State_Penalty>
-0

> <r_epik_Charging_Adjusted_Penalty>
1.04886e-08

> <i_epik_Tot_Q>
0

> <i_epik_Tot_abs_Q>
2

> <r_epik_Metal_State_Penalty>
-0

> <b_epik_Metal_Only>
0

> <s_epik_Chemistry_Notes>
This compound contains an acetal/aminal-like group ( X-CH(R)-Y where X, Y are N, S, or O) that may be acid/base labile, releasing an aldehyde.

> <s_lp_Force_Field>
OPLS_2005

> <r_lp_Energy>
59.9345

> <b_lp_Chiralities_Consistent>
1

> <s_lp_Variant>
AV-unprocessed.smi:112-7

> <Gold.Version>
5.8.1

> <Gold.Id.Protein>
6NUR|6NUR_protein|mol2

> <Gold.PLP.Fitness>
57.6661

> <Gold.PLP.PLP>
-47.1693

> <Gold.PLP.part.hbond>
-4.9989

> <Gold.PLP.part.metal>
0.0000

> <Gold.PLP.part.buried>
-2.2342

> <Gold.PLP.part.nonpolar>
-39.9653

> <Gold.PLP.part.repulsive>
0.6788

> <Gold.PLP.ligand.clash>
0.0000

> <Gold.PLP.ligand.torsion>
0.7421

> <Gold.PLP.Chemscore.Hbond>
3.9760

> <Gold.PLP.Chemscore.CHOScore>
0.0000

> <Gold.PLP.Chemscore.Metal>
0.0000

> <Gold.Chemscore.Hbonds>
donor molecule, donor type, donor heavy atom, donor atom, acceptor molecule, acceptor atom, score
      L1  H    11    45       P1 10171  0.73
      P1  H  7954  7966       L1    11  1.00
      P1  H  7997  8009       L1    18  0.91
      P1  H 10752 10765       L1    32  1.00

> <Gold.PLP.Chemscore.Internal.Correction>
0.0531

> <Gold.Rescore>
     Score         DG    S(hbond)    S(metal)    S(lipo)     H(rot)  DE(clash)    DE(int)     intcor
     13.17     -18.90       3.34        0.00      91.35       3.29       0.24       5.49       ----

> <Gold.Chemscore.Fitness>
13.1722

> <Gold.Chemscore.DG>
-18.9012

> <Gold.Chemscore.ZeroCoef>
-5.4800

> <Gold.Chemscore.Hbond>
3.3413

> <Gold.Chemscore.Metal>
0.0000

> <Gold.Chemscore.Lipo>
91.3497

> <Gold.Chemscore.Internal_Hbond>
0.0000

> <Gold.Chemscore.DEClash>
0.2407

> <Gold.Chemscore.DEInternal>
5.4884

> <Gold.Chemscore.Rot>
3.2916

> <Gold.Chemscore.Internal.Correction>
   9.000000E+99

> <Gold.Chemscore.Hbonds>
donor molecule, donor type, donor heavy atom, donor atom, acceptor molecule, acceptor atom, score
      L1  H    11    45       P1 10171  0.72
      P1  H  7954  7966       L1    11  0.58
      P1  H  7997  8009       L1    18  0.20
      P1  H 10752 10765       L1    32  1.00

> <Gold.Chemscore.Hbond.Weighted>
-11.1598

> <Gold.Chemscore.Metal.Weighted>
-0.0000

> <Gold.Chemscore.Lipo.Weighted>
-10.6879

> <Gold.Chemscore.Internal_Hbond.Weighted>
0.0000

> <Gold.Chemscore.DEClash.Weighted>
0.2407

> <Gold.Chemscore.DEInternal.Weighted>
5.4884

> <Gold.Chemscore.Rot.Weighted>
8.4265

> <Gold.Chemscore.Internal.Correction.Weighted>
   9.000000E+99

> <Gold.Protein.RotatedTorsions>
[ 6907 6896 6895 6894 ] final -127.82 input  -60.11 | X-H torsion
[ 7974 7965 7964 7962 ] final  -63.22 input  175.53 | X-H torsion
[ 8008 7997 7996 7995 ] final -154.52 input   59.86 | X-H torsion
[ 10167 10162 10161 10158 ] final   41.86 input  -65.29 | X-H torsion
[ 10718 10713 10712 10709 ] final  -66.62 input   66.30 | X-H torsion
[ 10763 10752 10751 10750 ] final -172.00 input  -60.55 | X-H torsion
[ 11005 11000 10999 10996 ] final  129.36 input  -57.11 | X-H torsion

> <Gold.Protein.ActiveResidues>
 VAL166  LYS551  ARG553  GLY616  TRP617  ASP618  TYR619  PRO620  LYS621  CYS622 
 ASP623  PHE694  ASN695  SER759  ASP760  ASP761  ALA762  ILE779  LEU786  VAL792 
 PHE793  MET794  SER795  GLU796  ALA797  LYS798  CYS799  TRP800  GLU811  SER814 

> <Gold.Protein.RotatedAtoms>
  150.9114  133.6993  159.2853 H   0  0  0  0  0  0  0  0  0  0  0  0  # atno 6907 bound_to 6896
  151.4479  135.1025  159.9699 H   0  0  0  0  0  0  0  0  0  0  0  0  # atno 6908 bound_to 6896
  152.4931  133.8507  159.7255 H   0  0  0  0  0  0  0  0  0  0  0  0  # atno 6909 bound_to 6896
  145.7817  140.8758  143.0327 H   0  0  0  0  0  0  0  0  0  0  0  0  # atno 7974 bound_to 7965
  155.6877  140.0752  157.2460 H   0  0  0  0  0  0  0  0  0  0  0  0  # atno 8008 bound_to 7997
  154.4094  140.1670  156.2104 H   0  0  0  0  0  0  0  0  0  0  0  0  # atno 8009 bound_to 7997
  155.9479  140.3379  155.6386 H   0  0  0  0  0  0  0  0  0  0  0  0  # atno 8010 bound_to 7997
  140.3601  144.2239  150.6139 H   0  0  0  0  0  0  0  0  0  0  0  0  # atno 10167 bound_to 10162
  156.0602  130.4265  150.1735 H   0  0  0  0  0  0  0  0  0  0  0  0  # atno 10718 bound_to 10713
  154.6242  135.2879  155.0291 H   0  0  0  0  0  0  0  0  0  0  0  0  # atno 10763 bound_to 10752
  154.1475  135.6509  153.4960 H   0  0  0  0  0  0  0  0  0  0  0  0  # atno 10764 bound_to 10752
  153.0250  135.5347  154.7044 H   0  0  0  0  0  0  0  0  0  0  0  0  # atno 10765 bound_to 10752
  139.9611  134.9602  156.9137 H   0  0  0  0  0  0  0  0  0  0  0  0  # atno 11005 bound_to 11000
  144.6795  139.9998  143.7484 LP  0  0  0  0  0  0  0  0  0  0  0  0  # atno 17320 bound_to 7965
  146.0067  139.3136  143.0895 LP  0  0  0  0  0  0  0  0  0  0  0  0  # atno 17321 bound_to 7965
  140.5135  143.2284  151.8499 LP  0  0  0  0  0  0  0  0  0  0  0  0  # atno 17342 bound_to 10162
  139.4815  144.4922  151.9170 LP  0  0  0  0  0  0  0  0  0  0  0  0  # atno 17343 bound_to 10162
  156.9805  130.9862  151.3438 LP  0  0  0  0  0  0  0  0  0  0  0  0  # atno 17370 bound_to 10713
  157.5605  130.8242  149.8260 LP  0  0  0  0  0  0  0  0  0  0  0  0  # atno 17371 bound_to 10713
  140.5498  134.0638  155.7366 LP  0  0  0  0  0  0  0  0  0  0  0  0  # atno 17394 bound_to 11000
  141.1288  133.9337  157.2579 LP  0  0  0  0  0  0  0  0  0  0  0  0  # atno 17395 bound_to 11000

$$$$
