AV-unprocessed.smi:2007|AV-procd|sdf|8139|dock3
  -GOLD-   2272010373D 1   1.00000     0.00000
 Structure written by MMmdl.
 36 37  0  0  0  0  0  0  0  0  3 V2000
  152.6040  138.4229  154.9475 C   0  0  0  0  0  0  0  0  0  0  0  0
  151.1359  138.5449  155.3771 C   0  0  2  0  0  0  0  0  0  0  0  0
  150.1756  138.1117  154.2458 C   0  0  0  0  0  0  0  0  0  0  0  0
  149.6935  136.7171  154.4094 N   0  3  0  0  0  0  0  0  0  0  0  0
  150.6750  135.8220  155.0629 C   0  0  0  0  0  0  0  0  0  0  0  0
  150.1360  134.3813  155.0862 C   0  0  0  0  0  0  0  0  0  0  0  0
  148.8772  134.3500  155.7497 O   0  0  0  0  0  0  0  0  0  0  0  0
  147.9051  135.1531  155.0896 C   0  0  0  0  0  0  0  0  0  0  0  0
  148.3741  136.6170  155.0768 C   0  0  0  0  0  0  0  0  0  0  0  0
  150.8635  139.9247  155.7850 N   0  0  0  0  0  0  0  0  0  0  0  0
  151.5770  140.6600  156.6512 C   0  0  0  0  0  0  0  0  0  0  0  0
  152.6169  140.2083  157.1358 O   0  0  0  0  0  0  0  0  0  0  0  0
  151.0236  141.8610  156.9271 N   0  5  0  0  0  0  0  0  0  0  0  0
  151.5976  142.6691  157.8330 C   0  0  0  0  0  0  0  0  0  0  0  0
  152.0450  142.2363  159.0178 N   0  0  0  0  0  0  0  0  0  0  0  0
  152.6036  143.2472  159.8025 C   0  0  0  0  0  0  0  0  0  0  0  0
  152.5744  144.4786  159.2033 C   0  0  0  0  0  0  0  0  0  0  0  0
  151.8412  144.4050  157.6264 S   0  0  0  0  0  0  0  0  0  0  0  0
  152.8449  137.3985  154.6622 H   0  0  0  0  0  0  0  0  0  0  0  0
  153.2749  138.7043  155.7600 H   0  0  0  0  0  0  0  0  0  0  0  0
  152.8249  139.0667  154.0955 H   0  0  0  0  0  0  0  0  0  0  0  0
  151.0006  137.8797  156.2308 H   0  0  0  0  0  0  0  0  0  0  0  0
  149.3175  138.7856  154.2573 H   0  0  0  0  0  0  0  0  0  0  0  0
  150.6432  138.2328  153.2676 H   0  0  0  0  0  0  0  0  0  0  0  0
  151.6206  135.8480  154.5199 H   0  0  0  0  0  0  0  0  0  0  0  0
  150.8736  136.1704  156.0776 H   0  0  0  0  0  0  0  0  0  0  0  0
  150.0355  133.9876  154.0732 H   0  0  0  0  0  0  0  0  0  0  0  0
  150.8309  133.7284  155.6145 H   0  0  0  0  0  0  0  0  0  0  0  0
  147.7398  134.7884  154.0743 H   0  0  0  0  0  0  0  0  0  0  0  0
  146.9560  135.0665  155.6186 H   0  0  0  0  0  0  0  0  0  0  0  0
  148.4465  136.9974  156.0968 H   0  0  0  0  0  0  0  0  0  0  0  0
  147.6384  137.2318  154.5590 H   0  0  0  0  0  0  0  0  0  0  0  0
  150.0288  140.3496  155.4073 H   0  0  0  0  0  0  0  0  0  0  0  0
  152.9975  143.0001  160.7771 H   0  0  0  0  0  0  0  0  0  0  0  0
  152.9359  145.4192  159.5906 H   0  0  0  0  0  0  0  0  0  0  0  0
  149.5729  136.3581  153.4718 H   0  0  0  0  0  0  0  0  0  0  0  0
  1  2  1  0  0  0  0
  1 19  1  0  0  0  0
  1 20  1  0  0  0  0
  1 21  1  0  0  0  0
  2  3  1  0  0  0  0
  2 10  1  0  0  0  0
  2 22  1  0  0  0  0
  3  4  1  0  0  0  0
  3 23  1  0  0  0  0
  3 24  1  0  0  0  0
  4  9  1  0  0  0  0
  4  5  1  0  0  0  0
  4 36  1  0  0  0  0
  5  6  1  0  0  0  0
  5 25  1  0  0  0  0
  5 26  1  0  0  0  0
  6  7  1  0  0  0  0
  6 27  1  0  0  0  0
  6 28  1  0  0  0  0
  7  8  1  0  0  0  0
  8  9  1  0  0  0  0
  8 29  1  0  0  0  0
  8 30  1  0  0  0  0
  9 31  1  0  0  0  0
  9 32  1  0  0  0  0
 10 11  1  0  0  0  0
 10 33  1  0  0  0  0
 11 12  2  0  0  0  0
 11 13  1  0  0  0  0
 13 14  1  0  0  0  0
 14 18  1  0  0  0  0
 14 15  2  0  0  0  0
 15 16  1  0  0  0  0
 16 17  2  0  0  0  0
 16 34  1  0  0  0  0
 17 18  1  0  0  0  0
 17 35  1  0  0  0  0
M  CHG  1   4   1
M  CHG  1  13  -1
M  END
> <s_m_source_file>
AV-unprocessed.smi

> <i_m_source_file_index>
2007

> <i_lp_mmshare_version>
43012

> <i_f3d_flags>
0

> <s_epik_input>
W0NIMl0xW0NIMl1PW0NIMl1bQ0gyXU4xW0NIMl1bQ0BASF0oW0NIM10pW05IXUMoPU8pW05IXWMybltjSF1bY0hdczI=

> <s_epik_cmdline>
J2VwaWtfcHl0aG9uJywgJy1waCcsICc3LjAnLCAnLXRuJywgJzgnLCAnLW1hJywgJzIwMCcsICctbWV0YWxfYmluZGluZycsICctaW1hZScsICc8aW5maWxlLm1hZT4nLCAnLW9tYWUnLCAnPG91dGZpbGUubWFlPic=

> <r_lp_tautomer_probability>
0.999

> <r_epik_Ionization_Penalty>
6.49226

> <r_epik_Ionization_Penalty_Charging>
5.74393

> <r_epik_Ionization_Penalty_Neutral>
0.748321

> <r_epik_State_Penalty>
5.94164

> <r_epik_Charging_Adjusted_Penalty>
11.6856

> <i_epik_Tot_Q>
0

> <i_epik_Tot_abs_Q>
2

> <r_epik_Metal_State_Penalty>
1.97606

> <b_epik_Metal_Only>
1

> <s_lp_Force_Field>
OPLS_2005

> <r_lp_Energy>
10.1627

> <b_lp_Chiralities_Consistent>
1

> <s_lp_Variant>
AV-unprocessed.smi:2007-7

> <Gold.Version>
5.8.1

> <Gold.Id.Protein>
6NUR|6NUR_protein|mol2

> <Gold.PLP.Fitness>
39.1579

> <Gold.PLP.PLP>
-32.8198

> <Gold.PLP.part.hbond>
-2.0000

> <Gold.PLP.part.metal>
0.0000

> <Gold.PLP.part.buried>
-3.1535

> <Gold.PLP.part.nonpolar>
-27.3258

> <Gold.PLP.part.repulsive>
0.2278

> <Gold.PLP.ligand.clash>
0.0000

> <Gold.PLP.ligand.torsion>
1.4007

> <Gold.PLP.Chemscore.Hbond>
3.0000

> <Gold.PLP.Chemscore.CHOScore>
0.0000

> <Gold.PLP.Chemscore.Metal>
0.0000

> <Gold.Chemscore.Hbonds>
donor molecule, donor type, donor heavy atom, donor atom, acceptor molecule, acceptor atom, score
      L1  H     4    36       P1  7948  2.00
      P1  H  7997  8010       L1    12  1.00

> <Gold.PLP.Chemscore.Internal.Correction>
0.1394

> <Gold.Rescore>
     Score         DG    S(hbond)    S(metal)    S(lipo)     H(rot)  DE(clash)    DE(int)     intcor
     12.79     -16.88       1.92        0.00      77.55       1.60       0.00       4.08       ----

> <Gold.Chemscore.Fitness>
12.7918

> <Gold.Chemscore.DG>
-16.8794

> <Gold.Chemscore.ZeroCoef>
-5.4800

> <Gold.Chemscore.Hbond>
1.9219

> <Gold.Chemscore.Metal>
0.0000

> <Gold.Chemscore.Lipo>
77.5542

> <Gold.Chemscore.Internal_Hbond>
0.0000

> <Gold.Chemscore.DEClash>
0.0038

> <Gold.Chemscore.DEInternal>
4.0839

> <Gold.Chemscore.Rot>
1.5991

> <Gold.Chemscore.Internal.Correction>
   9.000000E+99

> <Gold.Chemscore.Hbonds>
donor molecule, donor type, donor heavy atom, donor atom, acceptor molecule, acceptor atom, score
      L1  H     4    36       P1  7948  0.50
      P1  H  7997  8010       L1    12  0.96

> <Gold.Chemscore.Hbond.Weighted>
-6.4192

> <Gold.Chemscore.Metal.Weighted>
-0.0000

> <Gold.Chemscore.Lipo.Weighted>
-9.0738

> <Gold.Chemscore.Internal_Hbond.Weighted>
0.0000

> <Gold.Chemscore.DEClash.Weighted>
0.0038

> <Gold.Chemscore.DEInternal.Weighted>
4.0839

> <Gold.Chemscore.Rot.Weighted>
4.0936

> <Gold.Chemscore.Internal.Correction.Weighted>
   9.000000E+99

> <Gold.Protein.RotatedTorsions>
[ 6907 6896 6895 6894 ] final -176.62 input  -60.11 | X-H torsion
[ 7974 7965 7964 7962 ] final   69.93 input  175.53 | X-H torsion
[ 8008 7997 7996 7995 ] final   62.97 input   59.86 | X-H torsion
[ 10167 10162 10161 10158 ] final -110.12 input  -65.29 | X-H torsion
[ 10718 10713 10712 10709 ] final   25.53 input   66.30 | X-H torsion
[ 10763 10752 10751 10750 ] final -173.02 input  -60.55 | X-H torsion
[ 11005 11000 10999 10996 ] final  129.15 input  -57.11 | X-H torsion

> <Gold.Protein.ActiveResidues>
 VAL166  LYS551  ARG553  GLY616  TRP617  ASP618  TYR619  PRO620  LYS621  CYS622 
 ASP623  PHE694  ASN695  SER759  ASP760  ASP761  ALA762  ILE779  LEU786  VAL792 
 PHE793  MET794  SER795  GLU796  ALA797  LYS798  CYS799  TRP800  GLU811  SER814 

> <Gold.Protein.RotatedAtoms>
  151.6077  133.3350  159.3060 H   0  0  0  0  0  0  0  0  0  0  0  0  # atno 6907 bound_to 6896
  150.8173  134.7365  159.6753 H   0  0  0  0  0  0  0  0  0  0  0  0  # atno 6908 bound_to 6896
  152.4268  134.5858  160.0012 H   0  0  0  0  0  0  0  0  0  0  0  0  # atno 6909 bound_to 6896
  145.7844  139.2903  143.1247 H   0  0  0  0  0  0  0  0  0  0  0  0  # atno 7974 bound_to 7965
  155.6228  140.3496  155.4657 H   0  0  0  0  0  0  0  0  0  0  0  0  # atno 8008 bound_to 7997
  156.0065  140.1224  157.0520 H   0  0  0  0  0  0  0  0  0  0  0  0  # atno 8009 bound_to 7997
  154.4266  140.1090  156.5756 H   0  0  0  0  0  0  0  0  0  0  0  0  # atno 8010 bound_to 7997
  140.1480  143.4223  152.1515 H   0  0  0  0  0  0  0  0  0  0  0  0  # atno 10167 bound_to 10162
  157.1946  130.6861  149.6163 H   0  0  0  0  0  0  0  0  0  0  0  0  # atno 10718 bound_to 10713
  154.6126  135.2866  155.0415 H   0  0  0  0  0  0  0  0  0  0  0  0  # atno 10763 bound_to 10752
  154.1639  135.6483  153.4996 H   0  0  0  0  0  0  0  0  0  0  0  0  # atno 10764 bound_to 10752
  153.0201  135.5385  154.6886 H   0  0  0  0  0  0  0  0  0  0  0  0  # atno 10765 bound_to 10752
  139.9599  134.9604  156.9106 H   0  0  0  0  0  0  0  0  0  0  0  0  # atno 11005 bound_to 11000
  146.0041  140.8494  143.0003 LP  0  0  0  0  0  0  0  0  0  0  0  0  # atno 17320 bound_to 7965
  144.6791  140.2395  143.7345 LP  0  0  0  0  0  0  0  0  0  0  0  0  # atno 17321 bound_to 7965
  139.5440  144.7282  151.4643 LP  0  0  0  0  0  0  0  0  0  0  0  0  # atno 17342 bound_to 10162
  140.6720  143.8272  150.7011 LP  0  0  0  0  0  0  0  0  0  0  0  0  # atno 17343 bound_to 10162
  155.9707  130.4603  150.6068 LP  0  0  0  0  0  0  0  0  0  0  0  0  # atno 17370 bound_to 10713
  157.3827  131.0783  151.1462 LP  0  0  0  0  0  0  0  0  0  0  0  0  # atno 17371 bound_to 10713
  140.5523  134.0615  155.7373 LP  0  0  0  0  0  0  0  0  0  0  0  0  # atno 17394 bound_to 11000
  141.1275  133.9357  157.2604 LP  0  0  0  0  0  0  0  0  0  0  0  0  # atno 17395 bound_to 11000

$$$$
