AV-unprocessed.smi:3350|AV-procd|sdf|12939|dock1
  -GOLD-   2272019373D 1   1.00000     0.00000
 Structure written by MMmdl.
 41 42  0  0  0  0  0  0  0  0  1 V2000
  147.1209  140.1796  153.2256 C   0  0  0  0  0  0  0  0  0  0  0  0
  147.7401  138.9438  153.8918 C   0  0  2  0  0  0  0  0  0  0  0  0
  149.2719  139.0764  154.0150 C   0  0  0  0  0  0  0  0  0  0  0  0
  149.6669  140.0987  154.9678 N   0  0  0  0  0  0  0  0  0  0  0  0
  148.8601  140.8912  155.7566 C   0  0  0  0  0  0  0  0  0  0  0  0
  149.6794  141.6918  156.4998 C   0  0  0  0  0  0  0  0  0  0  0  0
  150.9874  141.3108  156.0893 C   0  0  0  0  0  0  0  0  0  0  0  0
  150.9771  140.3599  155.1695 N   0  0  0  0  0  0  0  0  0  0  0  0
  147.3839  137.7579  153.1141 N   0  0  0  0  0  0  0  0  0  0  0  0
  146.1421  137.2856  152.9335 C   0  0  0  0  0  0  0  0  0  0  0  0
  145.1287  137.8041  153.4025 O   0  0  0  0  0  0  0  0  0  0  0  0
  146.1419  136.1804  152.1757 N   0  0  0  0  0  0  0  0  0  0  0  0
  144.9543  135.4456  151.7434 C   0  0  2  0  0  0  0  0  0  0  0  0
  144.2072  134.9193  152.9770 C   0  0  0  0  0  0  0  0  0  0  0  0
  145.3178  134.3103  150.7595 C   0  0  2  0  0  0  0  0  0  0  0  0
  144.1437  133.4833  150.2156 C   0  0  0  0  0  0  0  0  0  0  0  0
  144.7933  132.1410  149.9687 C   0  0  0  0  0  0  0  0  0  0  0  0
  145.7412  132.0454  151.1575 C   0  0  0  0  0  0  0  0  0  0  0  0
  146.2064  133.3738  151.3688 O   0  0  0  0  0  0  0  0  0  0  0  0
  147.3380  141.0828  153.7963 H   0  0  0  0  0  0  0  0  0  0  0  0
  146.0364  140.0869  153.1573 H   0  0  0  0  0  0  0  0  0  0  0  0
  147.5075  140.3230  152.2160 H   0  0  0  0  0  0  0  0  0  0  0  0
  147.3169  138.8741  154.8957 H   0  0  0  0  0  0  0  0  0  0  0  0
  149.7188  138.1233  154.3037 H   0  0  0  0  0  0  0  0  0  0  0  0
  149.7027  139.3402  153.0484 H   0  0  0  0  0  0  0  0  0  0  0  0
  147.7830  140.8160  155.7272 H   0  0  0  0  0  0  0  0  0  0  0  0
  149.3889  142.4345  157.2277 H   0  0  0  0  0  0  0  0  0  0  0  0
  151.9374  141.6954  156.4295 H   0  0  0  0  0  0  0  0  0  0  0  0
  148.1462  137.2521  152.6878 H   0  0  0  0  0  0  0  0  0  0  0  0
  147.0313  135.8331  151.8484 H   0  0  0  0  0  0  0  0  0  0  0  0
  144.2759  136.1301  151.2309 H   0  0  0  0  0  0  0  0  0  0  0  0
  143.3022  134.3841  152.6881 H   0  0  0  0  0  0  0  0  0  0  0  0
  143.9091  135.7379  153.6331 H   0  0  0  0  0  0  0  0  0  0  0  0
  144.8262  134.2357  153.5591 H   0  0  0  0  0  0  0  0  0  0  0  0
  145.8624  134.7331  149.9140 H   0  0  0  0  0  0  0  0  0  0  0  0
  143.3520  133.3698  150.9564 H   0  0  0  0  0  0  0  0  0  0  0  0
  143.7035  133.9152  149.3164 H   0  0  0  0  0  0  0  0  0  0  0  0
  144.0784  131.3192  149.9240 H   0  0  0  0  0  0  0  0  0  0  0  0
  145.3578  132.1593  149.0355 H   0  0  0  0  0  0  0  0  0  0  0  0
  145.2020  131.7196  152.0483 H   0  0  0  0  0  0  0  0  0  0  0  0
  146.5656  131.3531  150.9857 H   0  0  0  0  0  0  0  0  0  0  0  0
  1  2  1  0  0  0  0
  1 20  1  0  0  0  0
  1 21  1  0  0  0  0
  1 22  1  0  0  0  0
  2  3  1  0  0  0  0
  2  9  1  0  0  0  0
  2 23  1  0  0  0  0
  3  4  1  0  0  0  0
  3 24  1  0  0  0  0
  3 25  1  0  0  0  0
  4  8  1  0  0  0  0
  4  5  1  0  0  0  0
  5  6  2  0  0  0  0
  5 26  1  0  0  0  0
  6  7  1  0  0  0  0
  6 27  1  0  0  0  0
  7  8  2  0  0  0  0
  7 28  1  0  0  0  0
  9 10  1  0  0  0  0
  9 29  1  0  0  0  0
 10 11  2  0  0  0  0
 10 12  1  0  0  0  0
 12 13  1  0  0  0  0
 12 30  1  0  0  0  0
 13 14  1  0  0  0  0
 13 15  1  0  0  0  0
 13 31  1  0  0  0  0
 14 32  1  0  0  0  0
 14 33  1  0  0  0  0
 14 34  1  0  0  0  0
 15 19  1  0  0  0  0
 15 16  1  0  0  0  0
 15 35  1  0  0  0  0
 16 17  1  0  0  0  0
 16 36  1  0  0  0  0
 16 37  1  0  0  0  0
 17 18  1  0  0  0  0
 17 38  1  0  0  0  0
 17 39  1  0  0  0  0
 18 19  1  0  0  0  0
 18 40  1  0  0  0  0
 18 41  1  0  0  0  0
M  END
> <s_m_source_file>
AV-unprocessed.smi

> <i_m_source_file_index>
3350

> <i_lp_mmshare_version>
43012

> <i_f3d_flags>
0

> <s_epik_input>
bjFbY0hdW2NIXVtjSF1uMVtDSDJdW0NAQEhdKFtDSDNdKVtOSF1DKD1PKVtOSF1bQ0BIXShbQ0gzXSlbQ0BASF0yW0NIMl1bQ0gyXVtDSDJdTzI=

> <s_epik_cmdline>
J2VwaWtfcHl0aG9uJywgJy1waCcsICc3LjAnLCAnLXRuJywgJzgnLCAnLW1hJywgJzIwMCcsICctbWV0YWxfYmluZGluZycsICctaW1hZScsICc8aW5maWxlLm1hZT4nLCAnLW9tYWUnLCAnPG91dGZpbGUubWFlPic=

> <r_lp_tautomer_probability>
1

> <r_epik_Ionization_Penalty>
6.42349e-05

> <r_epik_Ionization_Penalty_Charging>
0

> <r_epik_Ionization_Penalty_Neutral>
6.42349e-05

> <r_epik_State_Penalty>
-0

> <r_epik_Charging_Adjusted_Penalty>
0

> <i_epik_Tot_Q>
0

> <i_epik_Tot_abs_Q>
0

> <r_epik_Metal_State_Penalty>
-0

> <b_epik_Metal_Only>
0

> <s_lp_Force_Field>
OPLS_2005

> <r_lp_Energy>
17.0585

> <b_lp_Chiralities_Consistent>
1

> <s_lp_Variant>
AV-unprocessed.smi:3350-1

> <Gold.Version>
5.8.1

> <Gold.Id.Protein>
6NUR|6NUR_protein|mol2

> <Gold.PLP.Fitness>
40.5747

> <Gold.PLP.PLP>
-32.0445

> <Gold.PLP.part.hbond>
-2.9516

> <Gold.PLP.part.metal>
0.0000

> <Gold.PLP.part.buried>
-3.9078

> <Gold.PLP.part.nonpolar>
-25.5469

> <Gold.PLP.part.repulsive>
0.4553

> <Gold.PLP.ligand.clash>
0.0000

> <Gold.PLP.ligand.torsion>
0.1009

> <Gold.PLP.Chemscore.Hbond>
2.8800

> <Gold.PLP.Chemscore.CHOScore>
0.0000

> <Gold.PLP.Chemscore.Metal>
0.0000

> <Gold.Chemscore.Hbonds>
donor molecule, donor type, donor heavy atom, donor atom, acceptor molecule, acceptor atom, score
      L1  H     9    29       P1  7948  1.00
      L1  H    12    30       P1  7948  0.88
      P1  H  7989  7998       L1     8  1.00

> <Gold.PLP.Chemscore.Internal.Correction>
0.0918

> <Gold.Rescore>
     Score         DG    S(hbond)    S(metal)    S(lipo)     H(rot)  DE(clash)    DE(int)     intcor
     18.57     -18.83       2.75        0.00      75.57       1.82       0.01       0.25       ----

> <Gold.Chemscore.Fitness>
18.5659

> <Gold.Chemscore.DG>
-18.8335

> <Gold.Chemscore.ZeroCoef>
-5.4800

> <Gold.Chemscore.Hbond>
2.7456

> <Gold.Chemscore.Metal>
0.0000

> <Gold.Chemscore.Lipo>
75.5676

> <Gold.Chemscore.Internal_Hbond>
0.0000

> <Gold.Chemscore.DEClash>
0.0149

> <Gold.Chemscore.DEInternal>
0.2528

> <Gold.Chemscore.Rot>
1.8197

> <Gold.Chemscore.Internal.Correction>
   9.000000E+99

> <Gold.Chemscore.Hbonds>
donor molecule, donor type, donor heavy atom, donor atom, acceptor molecule, acceptor atom, score
      L1  H     9    29       P1  7948  0.93
      L1  H    12    30       P1  7948  0.86
      P1  H  7989  7998       L1     8  0.43

> <Gold.Chemscore.Hbond.Weighted>
-9.1704

> <Gold.Chemscore.Metal.Weighted>
-0.0000

> <Gold.Chemscore.Lipo.Weighted>
-8.8414

> <Gold.Chemscore.Internal_Hbond.Weighted>
0.0000

> <Gold.Chemscore.DEClash.Weighted>
0.0149

> <Gold.Chemscore.DEInternal.Weighted>
0.2528

> <Gold.Chemscore.Rot.Weighted>
4.6583

> <Gold.Chemscore.Internal.Correction.Weighted>
   9.000000E+99

> <Gold.Protein.RotatedTorsions>
[ 6907 6896 6895 6894 ] final  128.93 input  -60.11 | X-H torsion
[ 7974 7965 7964 7962 ] final -111.18 input  175.53 | X-H torsion
[ 8008 7997 7996 7995 ] final  106.40 input   59.86 | X-H torsion
[ 10167 10162 10161 10158 ] final  -89.11 input  -65.29 | X-H torsion
[ 10718 10713 10712 10709 ] final -140.35 input   66.30 | X-H torsion
[ 10763 10752 10751 10750 ] final  129.20 input  -60.55 | X-H torsion
[ 11005 11000 10999 10996 ] final -143.02 input  -57.11 | X-H torsion

> <Gold.Protein.ActiveResidues>
 VAL166  LYS551  ARG553  GLY616  TRP617  ASP618  TYR619  PRO620  LYS621  CYS622 
 ASP623  PHE694  ASN695  SER759  ASP760  ASP761  ALA762  ILE779  LEU786  VAL792 
 PHE793  MET794  SER795  GLU796  ALA797  LYS798  CYS799  TRP800  GLU811  SER814 

> <Gold.Protein.RotatedAtoms>
  152.3672  133.6372  159.6059 H   0  0  0  0  0  0  0  0  0  0  0  0  # atno 6907 bound_to 6896
  150.7643  133.9328  159.3441 H   0  0  0  0  0  0  0  0  0  0  0  0  # atno 6908 bound_to 6896
  151.7157  135.0905  160.0326 H   0  0  0  0  0  0  0  0  0  0  0  0  # atno 6909 bound_to 6896
  145.1593  140.8870  143.3600 H   0  0  0  0  0  0  0  0  0  0  0  0  # atno 7974 bound_to 7965
  156.1740  140.3113  155.9025 H   0  0  0  0  0  0  0  0  0  0  0  0  # atno 8008 bound_to 7997
  155.3527  140.0472  157.3063 H   0  0  0  0  0  0  0  0  0  0  0  0  # atno 8009 bound_to 7997
  154.5271  140.2218  155.8882 H   0  0  0  0  0  0  0  0  0  0  0  0  # atno 8010 bound_to 7997
  140.3680  143.2808  151.9534 H   0  0  0  0  0  0  0  0  0  0  0  0  # atno 10167 bound_to 10162
  156.3213  130.7536  151.1634 H   0  0  0  0  0  0  0  0  0  0  0  0  # atno 10718 bound_to 10713
  153.7378  135.3229  155.3298 H   0  0  0  0  0  0  0  0  0  0  0  0  # atno 10763 bound_to 10752
  154.8305  135.4537  154.1056 H   0  0  0  0  0  0  0  0  0  0  0  0  # atno 10764 bound_to 10752
  153.2223  135.6949  153.8067 H   0  0  0  0  0  0  0  0  0  0  0  0  # atno 10765 bound_to 10752
  140.8167  134.2680  157.4918 H   0  0  0  0  0  0  0  0  0  0  0  0  # atno 11005 bound_to 11000
  145.0348  139.3310  143.6006 LP  0  0  0  0  0  0  0  0  0  0  0  0  # atno 17320 bound_to 7965
  146.3484  139.9699  142.8707 LP  0  0  0  0  0  0  0  0  0  0  0  0  # atno 17321 bound_to 7965
  139.4806  144.5932  151.7735 LP  0  0  0  0  0  0  0  0  0  0  0  0  # atno 17342 bound_to 10162
  140.5061  144.1096  150.5983 LP  0  0  0  0  0  0  0  0  0  0  0  0  # atno 17343 bound_to 10162
  157.7412  131.0506  150.5111 LP  0  0  0  0  0  0  0  0  0  0  0  0  # atno 17370 bound_to 10713
  156.5264  130.4174  149.6224 LP  0  0  0  0  0  0  0  0  0  0  0  0  # atno 17371 bound_to 10713
  139.8711  134.9513  156.4081 LP  0  0  0  0  0  0  0  0  0  0  0  0  # atno 17394 bound_to 11000
  140.9141  133.7690  155.9827 LP  0  0  0  0  0  0  0  0  0  0  0  0  # atno 17395 bound_to 11000

$$$$
