AV-unprocessed.smi:72|AV-procd|sdf|746|dock9
  -GOLD-   2262017 83D 1   1.00000     0.00000
 Structure written by MMmdl.
 29 30  0  0  0  0  0  0  0  0  1 V2000
  154.6311  137.6730  158.1789 N   0  0  0  0  0  0  0  0  0  0  0  0
  153.3228  137.7803  157.7564 C   0  0  0  0  0  0  0  0  0  0  0  0
  153.0756  138.6898  156.7188 N   0  0  0  0  0  0  0  0  0  0  0  0
  151.8462  138.7991  156.3256 C   0  0  0  0  0  0  0  0  0  0  0  0
  150.7860  138.0161  156.9344 N   0  0  0  0  0  0  0  0  0  0  0  0
  149.3492  138.1466  156.4706 C   0  0  1  0  0  0  0  0  0  0  0  0
  148.9441  139.4748  156.6240 O   0  0  0  0  0  0  0  0  0  0  0  0
  148.1928  139.8768  155.4849 C   0  0  1  0  0  0  0  0  0  0  0  0
  148.1636  141.4101  155.3578 C   0  0  0  0  0  0  0  0  0  0  0  0
  149.4772  141.9204  155.2732 O   0  0  0  0  0  0  0  0  0  0  0  0
  148.8211  139.0898  154.3252 C   0  0  1  0  0  0  0  0  0  0  0  0
  149.9746  139.7467  153.8266 O   0  0  0  0  0  0  0  0  0  0  0  0
  149.1481  137.7556  154.9895 C   0  0  1  0  0  0  0  0  0  0  0  0
  150.2279  137.0733  154.3754 O   0  0  0  0  0  0  0  0  0  0  0  0
  151.1111  137.0995  157.9722 C   0  0  0  0  0  0  0  0  0  0  0  0
  150.2348  136.4032  158.4848 O   0  0  0  0  0  0  0  0  0  0  0  0
  152.4531  137.0257  158.3647 N   0  0  0  0  0  0  0  0  0  0  0  0
  148.7477  137.5377  157.1467 H   0  0  0  0  0  0  0  0  0  0  0  0
  147.1744  139.5140  155.6379 H   0  0  0  0  0  0  0  0  0  0  0  0
  148.1209  138.9647  153.4985 H   0  0  0  0  0  0  0  0  0  0  0  0
  148.2679  137.1130  154.9469 H   0  0  0  0  0  0  0  0  0  0  0  0
  154.9275  137.0517  158.9173 H   0  0  0  0  0  0  0  0  0  0  0  0
  155.3895  138.2074  157.7807 H   0  0  0  0  0  0  0  0  0  0  0  0
  151.5328  139.4716  155.5261 H   0  0  0  0  0  0  0  0  0  0  0  0
  147.6274  141.6949  154.4523 H   0  0  0  0  0  0  0  0  0  0  0  0
  147.6398  141.8746  156.1936 H   0  0  0  0  0  0  0  0  0  0  0  0
  149.4283  142.8509  155.1154 H   0  0  0  0  0  0  0  0  0  0  0  0
  149.8303  139.9499  152.9149 H   0  0  0  0  0  0  0  0  0  0  0  0
  149.9441  136.7795  153.5231 H   0  0  0  0  0  0  0  0  0  0  0  0
  1  2  1  0  0  0  0
  1 22  1  0  0  0  0
  1 23  1  0  0  0  0
  2 17  2  0  0  0  0
  2  3  1  0  0  0  0
  3  4  2  0  0  0  0
  4  5  1  0  0  0  0
  4 24  1  0  0  0  0
  5  6  1  0  0  0  0
  5 15  1  0  0  0  0
  6 18  1  0  0  0  0
  6 13  1  0  0  0  0
  6  7  1  0  0  0  0
  7  8  1  0  0  0  0
  8 19  1  0  0  0  0
  8  9  1  0  0  0  0
  8 11  1  0  0  0  0
  9 10  1  0  0  0  0
  9 25  1  0  0  0  0
  9 26  1  0  0  0  0
 10 27  1  0  0  0  0
 11 20  1  0  0  0  0
 11 12  1  0  0  0  0
 11 13  1  0  0  0  0
 12 28  1  0  0  0  0
 13 21  1  0  0  0  0
 13 14  1  0  0  0  0
 14 29  1  0  0  0  0
 15 16  2  0  0  0  0
 15 17  1  0  0  0  0
M  END
> <s_m_source_file>
AV-unprocessed.smi

> <i_m_source_file_index>
72

> <i_lp_mmshare_version>
43012

> <i_f3d_flags>
0

> <s_epik_input>
W05IMl1jMW5bY0hdbihjKD1PKW4xKVtDQEBIXTJPW0NASF0oW0NIMl1bT0hdKVtDQEBIXShbT0hdKVtDQEhdMltPSF0=

> <s_epik_cmdline>
J2VwaWtfcHl0aG9uJywgJy1waCcsICc3LjAnLCAnLXRuJywgJzgnLCAnLW1hJywgJzIwMCcsICctbWV0YWxfYmluZGluZycsICctaW1hZScsICc8aW5maWxlLm1hZT4nLCAnLW9tYWUnLCAnPG91dGZpbGUubWFlPic=

> <r_lp_tautomer_probability>
4.77166e-05

> <r_epik_Ionization_Penalty>
1.3546

> <r_epik_Ionization_Penalty_Charging>
1.46833e-10

> <r_epik_Ionization_Penalty_Neutral>
1.3546

> <r_epik_State_Penalty>
3.51908

> <r_epik_Charging_Adjusted_Penalty>
3.51908

> <i_epik_Tot_Q>
0

> <i_epik_Tot_abs_Q>
0

> <r_epik_Metal_State_Penalty>
3.44088

> <b_epik_Metal_Only>
1

> <s_epik_Chemistry_Notes>
This compound contains an acetal/aminal-like group ( X-CH(R)-Y where X, Y are N, S, or O) that may be acid/base labile, releasing an aldehyde.

> <s_lp_Force_Field>
OPLS_2005

> <r_lp_Energy>
35.7585

> <b_lp_Chiralities_Consistent>
1

> <s_lp_Variant>
AV-unprocessed.smi:72-84

> <Gold.Version>
5.8.1

> <Gold.Id.Protein>
6NUR|6NUR_protein|mol2

> <Gold.PLP.Fitness>
31.4949

> <Gold.PLP.PLP>
-16.1905

> <Gold.PLP.part.hbond>
-6.3093

> <Gold.PLP.part.metal>
0.0000

> <Gold.PLP.part.buried>
-5.1874

> <Gold.PLP.part.nonpolar>
-6.5847

> <Gold.PLP.part.repulsive>
0.1172

> <Gold.PLP.ligand.clash>
0.0000

> <Gold.PLP.ligand.torsion>
0.0094

> <Gold.PLP.Chemscore.Hbond>
5.1070

> <Gold.PLP.Chemscore.CHOScore>
0.0000

> <Gold.PLP.Chemscore.Metal>
0.0000

> <Gold.Chemscore.Hbonds>
donor molecule, donor type, donor heavy atom, donor atom, acceptor molecule, acceptor atom, score
      L1  H    10    27       P1  8028  1.00
      L1  H    12    28       P1  7957  1.00
      L1  H    14    29       P1  7948  1.00
      P1  H  6896  6908       L1    16  0.96
      P1  H  7997  8008       L1     3  1.00

> <Gold.PLP.Chemscore.Internal.Correction>
0.0023

> <Gold.Rescore>
     Score         DG    S(hbond)    S(metal)    S(lipo)     H(rot)  DE(clash)    DE(int)     intcor
     11.35     -11.47       4.43        0.00      13.59       4.06       0.01       0.11       ----

> <Gold.Chemscore.Fitness>
11.3484

> <Gold.Chemscore.DG>
-11.4677

> <Gold.Chemscore.ZeroCoef>
-5.4800

> <Gold.Chemscore.Hbond>
4.4284

> <Gold.Chemscore.Metal>
0.0000

> <Gold.Chemscore.Lipo>
13.5928

> <Gold.Chemscore.Internal_Hbond>
0.0000

> <Gold.Chemscore.DEClash>
0.0106

> <Gold.Chemscore.DEInternal>
0.1087

> <Gold.Chemscore.Rot>
4.0600

> <Gold.Chemscore.Internal.Correction>
   9.000000E+99

> <Gold.Chemscore.Hbonds>
donor molecule, donor type, donor heavy atom, donor atom, acceptor molecule, acceptor atom, score
      L1  H    10    27       P1  8028  0.92
      L1  H    12    28       P1  7957  1.00
      L1  H    14    29       P1  7948  0.25
      P1  H  6896  6908       L1    16  0.74
      P1  H  7997  8008       L1     3  0.68

> <Gold.Chemscore.Hbond.Weighted>
-14.7909

> <Gold.Chemscore.Metal.Weighted>
-0.0000

> <Gold.Chemscore.Lipo.Weighted>
-1.5904

> <Gold.Chemscore.Internal_Hbond.Weighted>
0.0000

> <Gold.Chemscore.DEClash.Weighted>
0.0106

> <Gold.Chemscore.DEInternal.Weighted>
0.1087

> <Gold.Chemscore.Rot.Weighted>
10.3936

> <Gold.Chemscore.Internal.Correction.Weighted>
   9.000000E+99

> <Gold.Protein.RotatedTorsions>
[ 6907 6896 6895 6894 ] final -159.09 input  -60.11 | X-H torsion
[ 7974 7965 7964 7962 ] final  -38.55 input  175.53 | X-H torsion
[ 8008 7997 7996 7995 ] final  -67.79 input   59.86 | X-H torsion
[ 10167 10162 10161 10158 ] final  -93.75 input  -65.29 | X-H torsion
[ 10718 10713 10712 10709 ] final  171.40 input   66.30 | X-H torsion
[ 10763 10752 10751 10750 ] final -125.64 input  -60.55 | X-H torsion
[ 11005 11000 10999 10996 ] final   62.59 input  -57.11 | X-H torsion

> <Gold.Protein.ActiveResidues>
 VAL166  LYS551  ARG553  GLY616  TRP617  ASP618  TYR619  PRO620  LYS621  CYS622 
 ASP623  PHE694  ASN695  SER759  ASP760  ASP761  ALA762  ILE779  LEU786  VAL792 
 PHE793  MET794  SER795  GLU796  ALA797  LYS798  CYS799  TRP800  GLU811  SER814 

> <Gold.Protein.RotatedAtoms>
  151.3282  133.4011  159.2660 H   0  0  0  0  0  0  0  0  0  0  0  0  # atno 6907 bound_to 6896
  150.9977  134.9298  159.7946 H   0  0  0  0  0  0  0  0  0  0  0  0  # atno 6908 bound_to 6896
  152.5266  134.3247  159.9213 H   0  0  0  0  0  0  0  0  0  0  0  0  # atno 6909 bound_to 6896
  146.0476  140.6524  142.9057 H   0  0  0  0  0  0  0  0  0  0  0  0  # atno 7974 bound_to 7965
  154.4824  140.0885  156.7408 H   0  0  0  0  0  0  0  0  0  0  0  0  # atno 8008 bound_to 7997
  155.4437  140.3454  155.4274 H   0  0  0  0  0  0  0  0  0  0  0  0  # atno 8009 bound_to 7997
  156.1211  140.1474  156.9191 H   0  0  0  0  0  0  0  0  0  0  0  0  # atno 8010 bound_to 7997
  140.3215  143.3046  152.0041 H   0  0  0  0  0  0  0  0  0  0  0  0  # atno 10167 bound_to 10162
  156.9942  131.0156  151.2848 H   0  0  0  0  0  0  0  0  0  0  0  0  # atno 10718 bound_to 10713
  154.8738  135.4022  154.3301 H   0  0  0  0  0  0  0  0  0  0  0  0  # atno 10763 bound_to 10752
  153.4116  135.7021  153.6361 H   0  0  0  0  0  0  0  0  0  0  0  0  # atno 10764 bound_to 10752
  153.5061  135.3717  155.2534 H   0  0  0  0  0  0  0  0  0  0  0  0  # atno 10765 bound_to 10752
  140.0082  134.6337  155.9822 H   0  0  0  0  0  0  0  0  0  0  0  0  # atno 11005 bound_to 11000
  144.7106  140.4023  143.7083 LP  0  0  0  0  0  0  0  0  0  0  0  0  # atno 17320 bound_to 7965
  145.6778  139.1612  143.2718 LP  0  0  0  0  0  0  0  0  0  0  0  0  # atno 17321 bound_to 7965
  139.4873  144.6307  151.7075 LP  0  0  0  0  0  0  0  0  0  0  0  0  # atno 17342 bound_to 10162
  140.5479  144.0473  150.6115 LP  0  0  0  0  0  0  0  0  0  0  0  0  # atno 17343 bound_to 10162
  157.5437  130.8137  149.8060 LP  0  0  0  0  0  0  0  0  0  0  0  0  # atno 17370 bound_to 10713
  156.0196  130.3800  150.2004 LP  0  0  0  0  0  0  0  0  0  0  0  0  # atno 17371 bound_to 10713
  141.1692  133.6537  156.4589 LP  0  0  0  0  0  0  0  0  0  0  0  0  # atno 17394 bound_to 11000
  140.4603  134.6848  157.5082 LP  0  0  0  0  0  0  0  0  0  0  0  0  # atno 17395 bound_to 11000

$$$$
