AV-unprocessed.smi:910|AV-procd|sdf|4125|dock5
  -GOLD-   22720 2 23D 1   1.00000     0.00000
 Structure written by MMmdl.
 46 47  0  0  0  0  0  0  0  0  1 V2000
  147.1027  136.0173  154.5801 C   0  0  0  0  0  0  0  0  0  0  0  0
  148.5875  136.3044  154.5442 C   0  0  0  0  0  0  0  0  0  0  0  0
  149.0873  137.5636  154.7253 N   0  0  0  0  0  0  0  0  0  0  0  0
  150.4762  137.4977  154.6416 C   0  0  0  0  0  0  0  0  0  0  0  0
  151.4049  138.3995  154.7338 N   0  0  0  0  0  0  0  0  0  0  0  0
  151.0203  139.7070  154.9781 C   0  0  0  0  0  0  0  0  0  0  0  0
  150.3247  140.4271  154.2546 O   0  0  0  0  0  0  0  0  0  0  0  0
  151.5756  140.1611  156.1122 N   0  0  0  0  0  0  0  0  0  0  0  0
  151.4883  141.5328  156.6040 C   0  0  0  0  0  0  0  0  0  0  0  0
  150.7313  141.5920  157.9381 C   0  0  0  0  0  0  0  0  0  0  0  0
  151.6744  141.5929  158.9995 O   0  0  0  0  0  0  0  0  0  0  0  0
  152.7706  142.4870  158.8487 C   0  0  1  0  0  0  0  0  0  0  0  0
  152.2830  143.9149  158.5154 C   0  0  0  0  0  0  0  0  0  0  0  0
  151.4441  144.5084  159.6585 C   0  0  0  0  0  0  0  0  0  0  0  0
  152.2280  144.4992  160.9790 C   0  0  0  0  0  0  0  0  0  0  0  0
  152.7273  143.0866  161.3231 C   0  0  0  0  0  0  0  0  0  0  0  0
  153.5651  142.4864  160.1747 C   0  0  1  0  0  0  0  0  0  0  0  0
  154.0984  141.0894  160.5286 C   0  0  0  0  0  0  0  0  0  0  0  0
  150.7839  136.1813  154.4068 O   0  0  0  0  0  0  0  0  0  0  0  0
  149.6158  135.4820  154.3535 C   0  0  0  0  0  0  0  0  0  0  0  0
  149.6698  133.9914  154.1067 C   0  0  0  0  0  0  0  0  0  0  0  0
  146.8778  135.2899  155.3601 H   0  0  0  0  0  0  0  0  0  0  0  0
  146.7743  135.6109  153.6233 H   0  0  0  0  0  0  0  0  0  0  0  0
  146.5335  136.9251  154.7824 H   0  0  0  0  0  0  0  0  0  0  0  0
  148.5105  138.3759  154.8917 H   0  0  0  0  0  0  0  0  0  0  0  0
  152.1422  139.5201  156.6488 H   0  0  0  0  0  0  0  0  0  0  0  0
  152.4783  141.9806  156.7037 H   0  0  0  0  0  0  0  0  0  0  0  0
  150.9574  142.1233  155.8572 H   0  0  0  0  0  0  0  0  0  0  0  0
  150.1281  142.4996  157.9828 H   0  0  0  0  0  0  0  0  0  0  0  0
  150.0510  140.7439  158.0084 H   0  0  0  0  0  0  0  0  0  0  0  0
  153.4220  142.1282  158.0497 H   0  0  0  0  0  0  0  0  0  0  0  0
  153.1490  144.5545  158.3406 H   0  0  0  0  0  0  0  0  0  0  0  0
  151.7140  143.9337  157.5870 H   0  0  0  0  0  0  0  0  0  0  0  0
  151.1460  145.5276  159.4112 H   0  0  0  0  0  0  0  0  0  0  0  0
  150.5220  143.9372  159.7724 H   0  0  0  0  0  0  0  0  0  0  0  0
  153.0784  145.1775  160.9023 H   0  0  0  0  0  0  0  0  0  0  0  0
  151.6020  144.8818  161.7846 H   0  0  0  0  0  0  0  0  0  0  0  0
  153.3199  143.1236  162.2377 H   0  0  0  0  0  0  0  0  0  0  0  0
  151.8752  142.4403  161.5367 H   0  0  0  0  0  0  0  0  0  0  0  0
  154.4348  143.1302  160.0342 H   0  0  0  0  0  0  0  0  0  0  0  0
  153.2857  140.3862  160.7133 H   0  0  0  0  0  0  0  0  0  0  0  0
  154.7170  141.1224  161.4257 H   0  0  0  0  0  0  0  0  0  0  0  0
  154.7104  140.6867  159.7211 H   0  0  0  0  0  0  0  0  0  0  0  0
  149.0761  133.4624  154.8522 H   0  0  0  0  0  0  0  0  0  0  0  0
  150.6969  133.6309  154.1636 H   0  0  0  0  0  0  0  0  0  0  0  0
  149.2744  133.7579  153.1181 H   0  0  0  0  0  0  0  0  0  0  0  0
  1 22  1  0  0  0  0
  1 23  1  0  0  0  0
  1 24  1  0  0  0  0
  1  2  1  0  0  0  0
  2  3  1  0  0  0  0
  2 20  2  0  0  0  0
  3 25  1  0  0  0  0
  3  4  1  0  0  0  0
  4 19  1  0  0  0  0
  4  5  2  0  0  0  0
  5  6  1  0  0  0  0
  6  8  1  0  0  0  0
  6  7  2  0  0  0  0
  8  9  1  0  0  0  0
  8 26  1  0  0  0  0
  9 10  1  0  0  0  0
  9 27  1  0  0  0  0
  9 28  1  0  0  0  0
 10 11  1  0  0  0  0
 10 29  1  0  0  0  0
 10 30  1  0  0  0  0
 11 12  1  0  0  0  0
 12 17  1  0  0  0  0
 12 13  1  0  0  0  0
 12 31  1  0  0  0  0
 13 14  1  0  0  0  0
 13 32  1  0  0  0  0
 13 33  1  0  0  0  0
 14 15  1  0  0  0  0
 14 34  1  0  0  0  0
 14 35  1  0  0  0  0
 15 16  1  0  0  0  0
 15 36  1  0  0  0  0
 15 37  1  0  0  0  0
 16 17  1  0  0  0  0
 16 38  1  0  0  0  0
 16 39  1  0  0  0  0
 17 18  1  0  0  0  0
 17 40  1  0  0  0  0
 18 41  1  0  0  0  0
 18 42  1  0  0  0  0
 18 43  1  0  0  0  0
 19 20  1  0  0  0  0
 20 21  1  0  0  0  0
 21 44  1  0  0  0  0
 21 45  1  0  0  0  0
 21 46  1  0  0  0  0
M  END
> <s_m_source_file>
AV-unprocessed.smi

> <i_m_source_file_index>
910

> <i_lp_mmshare_version>
43012

> <i_f3d_flags>
0

> <s_epik_input>
W0NIM11jMW5jKG9jMVtDSDNdKVtOSF1DKD1PKVtOSF1bQ0gyXVtDSDJdT1tDQEBIXTJbQ0gyXVtDSDJdW0NIMl1bQ0gyXVtDQEhdMltDSDNd

> <s_epik_cmdline>
J2VwaWtfcHl0aG9uJywgJy1waCcsICc3LjAnLCAnLXRuJywgJzgnLCAnLW1hJywgJzIwMCcsICctbWV0YWxfYmluZGluZycsICctaW1hZScsICc8aW5maWxlLm1hZT4nLCAnLW9tYWUnLCAnPG91dGZpbGUubWFlPic=

> <r_lp_tautomer_probability>
0.107061

> <r_epik_Ionization_Penalty>
0.727192

> <r_epik_Ionization_Penalty_Charging>
0.726719

> <r_epik_Ionization_Penalty_Neutral>
0.000473387

> <r_epik_State_Penalty>
2.53712

> <r_epik_Charging_Adjusted_Penalty>
3.26383

> <i_epik_Tot_Q>
0

> <i_epik_Tot_abs_Q>
0

> <r_epik_Metal_State_Penalty>
3.71015

> <b_epik_Metal_Only>
0

> <s_lp_Force_Field>
OPLS_2005

> <r_lp_Energy>
28.9635

> <b_lp_Chiralities_Consistent>
1

> <s_lp_Variant>
AV-unprocessed.smi:910-10

> <Gold.Version>
5.8.1

> <Gold.Id.Protein>
6NUR|6NUR_protein|mol2

> <Gold.PLP.Fitness>
47.8625

> <Gold.PLP.PLP>
-43.6429

> <Gold.PLP.part.hbond>
-2.0000

> <Gold.PLP.part.metal>
0.0000

> <Gold.PLP.part.buried>
-6.8064

> <Gold.PLP.part.nonpolar>
-35.3099

> <Gold.PLP.part.repulsive>
0.4392

> <Gold.PLP.ligand.clash>
0.0000

> <Gold.PLP.ligand.torsion>
0.9059

> <Gold.PLP.Chemscore.Hbond>
2.0000

> <Gold.PLP.Chemscore.CHOScore>
0.0000

> <Gold.PLP.Chemscore.Metal>
0.0000

> <Gold.Chemscore.Hbonds>
donor molecule, donor type, donor heavy atom, donor atom, acceptor molecule, acceptor atom, score
      P1  H  7989  7998       L1     7  0.47
      P1  H 10752 10763       L1    19  0.14

> <Gold.PLP.Chemscore.Internal.Correction>
0.0314

> <Gold.Rescore>
     Score         DG    S(hbond)    S(metal)    S(lipo)     H(rot)  DE(clash)    DE(int)     intcor
     18.45     -19.74       1.75        0.00     108.22       1.66       0.27       1.01       ----

> <Gold.Chemscore.Fitness>
18.4519

> <Gold.Chemscore.DG>
-19.7389

> <Gold.Chemscore.ZeroCoef>
-5.4800

> <Gold.Chemscore.Hbond>
1.7487

> <Gold.Chemscore.Metal>
0.0000

> <Gold.Chemscore.Lipo>
108.2195

> <Gold.Chemscore.Internal_Hbond>
0.0000

> <Gold.Chemscore.DEClash>
0.2740

> <Gold.Chemscore.DEInternal>
1.0129

> <Gold.Chemscore.Rot>
1.6576

> <Gold.Chemscore.Internal.Correction>
   9.000000E+99

> <Gold.Chemscore.Hbonds>
donor molecule, donor type, donor heavy atom, donor atom, acceptor molecule, acceptor atom, score
      P1  H  7989  7998       L1     7  0.02
      P1  H 10752 10763       L1    19  0.15

> <Gold.Chemscore.Hbond.Weighted>
-5.8407

> <Gold.Chemscore.Metal.Weighted>
-0.0000

> <Gold.Chemscore.Lipo.Weighted>
-12.6617

> <Gold.Chemscore.Internal_Hbond.Weighted>
0.0000

> <Gold.Chemscore.DEClash.Weighted>
0.2740

> <Gold.Chemscore.DEInternal.Weighted>
1.0129

> <Gold.Chemscore.Rot.Weighted>
4.2436

> <Gold.Chemscore.Internal.Correction.Weighted>
   9.000000E+99

> <Gold.Protein.RotatedTorsions>
[ 6907 6896 6895 6894 ] final  168.90 input  -60.11 | X-H torsion
[ 7974 7965 7964 7962 ] final  -19.40 input  175.53 | X-H torsion
[ 8008 7997 7996 7995 ] final  104.23 input   59.86 | X-H torsion
[ 10167 10162 10161 10158 ] final   68.61 input  -65.29 | X-H torsion
[ 10718 10713 10712 10709 ] final  -43.99 input   66.30 | X-H torsion
[ 10763 10752 10751 10750 ] final   76.64 input  -60.55 | X-H torsion
[ 11005 11000 10999 10996 ] final  -46.40 input  -57.11 | X-H torsion

> <Gold.Protein.ActiveResidues>
 VAL166  LYS551  ARG553  GLY616  TRP617  ASP618  TYR619  PRO620  LYS621  CYS622 
 ASP623  PHE694  ASN695  SER759  ASP760  ASP761  ALA762  ILE779  LEU786  VAL792 
 PHE793  MET794  SER795  GLU796  ALA797  LYS798  CYS799  TRP800  GLU811  SER814 

> <Gold.Protein.RotatedAtoms>
  151.8404  133.3422  159.3640 H   0  0  0  0  0  0  0  0  0  0  0  0  # atno 6907 bound_to 6896
  150.7236  134.5397  159.5750 H   0  0  0  0  0  0  0  0  0  0  0  0  # atno 6908 bound_to 6896
  152.2869  134.7766  160.0436 H   0  0  0  0  0  0  0  0  0  0  0  0  # atno 6909 bound_to 6896
  146.1843  140.4057  142.8482 H   0  0  0  0  0  0  0  0  0  0  0  0  # atno 7974 bound_to 7965
  156.1555  140.3151  155.8718 H   0  0  0  0  0  0  0  0  0  0  0  0  # atno 8008 bound_to 7997
  155.3887  140.0492  157.3058 H   0  0  0  0  0  0  0  0  0  0  0  0  # atno 8009 bound_to 7997
  154.5097  140.2160  155.9192 H   0  0  0  0  0  0  0  0  0  0  0  0  # atno 8010 bound_to 7997
  140.0768  144.5106  150.7189 H   0  0  0  0  0  0  0  0  0  0  0  0  # atno 10167 bound_to 10162
  156.2433  130.4181  149.8735 H   0  0  0  0  0  0  0  0  0  0  0  0  # atno 10718 bound_to 10713
  153.0740  135.4944  154.8366 H   0  0  0  0  0  0  0  0  0  0  0  0  # atno 10763 bound_to 10752
  154.7062  135.3011  154.9269 H   0  0  0  0  0  0  0  0  0  0  0  0  # atno 10764 bound_to 10752
  153.9977  135.6770  153.4810 H   0  0  0  0  0  0  0  0  0  0  0  0  # atno 10765 bound_to 10752
  141.0576  133.6720  156.3150 H   0  0  0  0  0  0  0  0  0  0  0  0  # atno 11005 bound_to 11000
  144.8369  140.6796  143.6254 LP  0  0  0  0  0  0  0  0  0  0  0  0  # atno 17320 bound_to 7965
  145.3985  139.1602  143.4190 LP  0  0  0  0  0  0  0  0  0  0  0  0  # atno 17321 bound_to 7965
  140.7098  143.2496  151.4616 LP  0  0  0  0  0  0  0  0  0  0  0  0  # atno 17342 bound_to 10162
  139.5803  144.1724  152.1959 LP  0  0  0  0  0  0  0  0  0  0  0  0  # atno 17343 bound_to 10162
  156.6309  130.8665  151.3495 LP  0  0  0  0  0  0  0  0  0  0  0  0  # atno 17370 bound_to 10713
  157.7184  130.9527  150.1344 LP  0  0  0  0  0  0  0  0  0  0  0  0  # atno 17371 bound_to 10713
  140.5932  134.5629  157.5503 LP  0  0  0  0  0  0  0  0  0  0  0  0  # atno 17394 bound_to 11000
  139.9404  134.7797  156.0693 LP  0  0  0  0  0  0  0  0  0  0  0  0  # atno 17395 bound_to 11000

$$$$
