AV-unprocessed.smi:2805|AV-procd|sdf|10813|dock1
  -GOLD-   2272015253D 1   1.00000     0.00000
 Structure written by MMmdl.
 43 44  0  0  0  0  0  0  0  0  1 V2000
  152.1376  145.8713  160.3469 C   0  0  0  0  0  0  0  0  0  0  0  0
  152.1725  144.5293  159.6466 C   0  0  0  0  0  0  0  0  0  0  0  0
  153.0385  143.5091  160.0843 C   0  0  0  0  0  0  0  0  0  0  0  0
  153.0239  142.2824  159.3920 C   0  0  0  0  0  0  0  0  0  0  0  0
  153.9275  141.1412  159.8099 C   0  0  0  0  0  0  0  0  0  0  0  0
  152.2192  142.0426  158.3346 N   0  0  0  0  0  0  0  0  0  0  0  0
  151.3797  143.0172  157.9053 C   0  0  0  0  0  0  0  0  0  0  0  0
  150.4948  142.8670  156.8046 N   0  0  0  0  0  0  0  0  0  0  0  0
  150.2627  141.7657  156.0686 C   0  0  0  0  0  0  0  0  0  0  0  0
  150.7960  140.6687  156.2387 O   0  0  0  0  0  0  0  0  0  0  0  0
  149.3596  142.0075  155.1071 N   0  0  0  0  0  0  0  0  0  0  0  0
  148.8800  141.0301  154.1343 C   0  0  1  0  0  0  0  0  0  0  0  0
  148.6599  139.6587  154.8027 C   0  0  0  0  0  0  0  0  0  0  0  0
  148.0790  138.6381  153.8114 C   0  0  0  0  0  0  0  0  0  0  0  0
  146.7648  139.1375  153.1792 C   0  0  2  0  0  0  0  0  0  0  0  0
  146.1989  138.0970  152.1949 C   0  0  0  0  0  0  0  0  0  0  0  0
  147.1621  137.7475  151.2230 O   0  0  0  0  0  0  0  0  0  0  0  0
  146.9939  140.5092  152.5090 C   0  0  0  0  0  0  0  0  0  0  0  0
  147.5738  141.5354  153.4958 C   0  0  0  0  0  0  0  0  0  0  0  0
  151.3322  144.2771  158.5435 C   0  0  0  0  0  0  0  0  0  0  0  0
  149.6245  140.9226  153.3427 H   0  0  0  0  0  0  0  0  0  0  0  0
  146.0399  139.2669  153.9848 H   0  0  0  0  0  0  0  0  0  0  0  0
  153.0201  146.0122  160.9716 H   0  0  0  0  0  0  0  0  0  0  0  0
  151.2533  145.9420  160.9805 H   0  0  0  0  0  0  0  0  0  0  0  0
  152.1054  146.6820  159.6184 H   0  0  0  0  0  0  0  0  0  0  0  0
  153.6954  143.6621  160.9282 H   0  0  0  0  0  0  0  0  0  0  0  0
  154.6552  141.4655  160.5543 H   0  0  0  0  0  0  0  0  0  0  0  0
  154.4734  140.7518  158.9499 H   0  0  0  0  0  0  0  0  0  0  0  0
  153.3375  140.3310  160.2388 H   0  0  0  0  0  0  0  0  0  0  0  0
  149.9797  143.6954  156.5464 H   0  0  0  0  0  0  0  0  0  0  0  0
  148.9742  142.9381  155.0407 H   0  0  0  0  0  0  0  0  0  0  0  0
  149.6004  139.2796  155.2046 H   0  0  0  0  0  0  0  0  0  0  0  0
  147.9825  139.7648  155.6514 H   0  0  0  0  0  0  0  0  0  0  0  0
  148.8118  138.4363  153.0289 H   0  0  0  0  0  0  0  0  0  0  0  0
  147.9092  137.6911  154.3248 H   0  0  0  0  0  0  0  0  0  0  0  0
  145.8734  137.1993  152.7215 H   0  0  0  0  0  0  0  0  0  0  0  0
  145.3277  138.4988  151.6767 H   0  0  0  0  0  0  0  0  0  0  0  0
  147.6288  136.9827  151.5235 H   0  0  0  0  0  0  0  0  0  0  0  0
  147.6722  140.3973  151.6620 H   0  0  0  0  0  0  0  0  0  0  0  0
  146.0573  140.8927  152.1038 H   0  0  0  0  0  0  0  0  0  0  0  0
  146.8366  141.7433  154.2729 H   0  0  0  0  0  0  0  0  0  0  0  0
  147.7521  142.4792  152.9789 H   0  0  0  0  0  0  0  0  0  0  0  0
  150.6579  145.0450  158.1923 H   0  0  0  0  0  0  0  0  0  0  0  0
  1  2  1  0  0  0  0
  1 23  1  0  0  0  0
  1 24  1  0  0  0  0
  1 25  1  0  0  0  0
  2 20  1  0  0  0  0
  2  3  2  0  0  0  0
  3  4  1  0  0  0  0
  3 26  1  0  0  0  0
  4  5  1  0  0  0  0
  4  6  2  0  0  0  0
  5 27  1  0  0  0  0
  5 28  1  0  0  0  0
  5 29  1  0  0  0  0
  6  7  1  0  0  0  0
  7  8  1  0  0  0  0
  7 20  2  0  0  0  0
  8  9  1  0  0  0  0
  8 30  1  0  0  0  0
  9 10  2  0  0  0  0
  9 11  1  0  0  0  0
 11 12  1  0  0  0  0
 11 31  1  0  0  0  0
 12 21  1  0  0  0  0
 12 19  1  0  0  0  0
 12 13  1  0  0  0  0
 13 14  1  0  0  0  0
 13 32  1  0  0  0  0
 13 33  1  0  0  0  0
 14 15  1  0  0  0  0
 14 34  1  0  0  0  0
 14 35  1  0  0  0  0
 15 22  1  0  0  0  0
 15 16  1  0  0  0  0
 15 18  1  0  0  0  0
 16 17  1  0  0  0  0
 16 36  1  0  0  0  0
 16 37  1  0  0  0  0
 17 38  1  0  0  0  0
 18 19  1  0  0  0  0
 18 39  1  0  0  0  0
 18 40  1  0  0  0  0
 19 41  1  0  0  0  0
 19 42  1  0  0  0  0
 20 43  1  0  0  0  0
M  END
> <s_m_source_file>
AV-unprocessed.smi

> <i_m_source_file_index>
2805

> <i_lp_mmshare_version>
43012

> <i_f3d_flags>
0

> <s_epik_input>
W0NIM11jMVtjSF1jKFtDSDNdKW5jKFtjSF0xKVtOSF1DKD1PKVtOSF1bQ0BIXTJbQ0gyXVtDSDJdW0NASF0oW0NIMl1bT0hdKVtDSDJdW0NIMl0y

> <s_epik_cmdline>
J2VwaWtfcHl0aG9uJywgJy1waCcsICc3LjAnLCAnLXRuJywgJzgnLCAnLW1hJywgJzIwMCcsICctbWV0YWxfYmluZGluZycsICctaW1hZScsICc8aW5maWxlLm1hZT4nLCAnLW9tYWUnLCAnPG91dGZpbGUubWFlPic=

> <r_lp_tautomer_probability>
1

> <r_epik_Ionization_Penalty>
0.000279533

> <r_epik_Ionization_Penalty_Charging>
0

> <r_epik_Ionization_Penalty_Neutral>
0.000279533

> <r_epik_State_Penalty>
-0

> <r_epik_Charging_Adjusted_Penalty>
0

> <i_epik_Tot_Q>
0

> <i_epik_Tot_abs_Q>
0

> <r_epik_Metal_State_Penalty>
-0

> <b_epik_Metal_Only>
0

> <s_lp_Force_Field>
OPLS_2005

> <r_lp_Energy>
12.7112

> <b_lp_Chiralities_Consistent>
1

> <s_lp_Variant>
AV-unprocessed.smi:2805-1

> <Gold.Version>
5.8.1

> <Gold.Id.Protein>
6NUR|6NUR_protein|mol2

> <Gold.PLP.Fitness>
55.1475

> <Gold.PLP.PLP>
-45.0064

> <Gold.PLP.part.hbond>
-3.5991

> <Gold.PLP.part.metal>
0.0000

> <Gold.PLP.part.buried>
-4.4466

> <Gold.PLP.part.nonpolar>
-37.9692

> <Gold.PLP.part.repulsive>
0.2627

> <Gold.PLP.ligand.clash>
0.0000

> <Gold.PLP.ligand.torsion>
0.2834

> <Gold.PLP.Chemscore.Hbond>
3.5672

> <Gold.PLP.Chemscore.CHOScore>
0.0000

> <Gold.PLP.Chemscore.Metal>
0.0000

> <Gold.Chemscore.Hbonds>
donor molecule, donor type, donor heavy atom, donor atom, acceptor molecule, acceptor atom, score
      L1  H     8    30       P1  8028  1.00
      L1  H    11    31       P1  8028  1.00
      L1  H    17    38       P1  7948  0.99
      P1  H  7954  7966       L1    17  0.55

> <Gold.PLP.Chemscore.Internal.Correction>
0.0062

> <Gold.Rescore>
     Score         DG    S(hbond)    S(metal)    S(lipo)     H(rot)  DE(clash)    DE(int)     intcor
     20.82     -24.50       2.93        0.00     117.19       1.75       0.63       3.05       ----

> <Gold.Chemscore.Fitness>
20.8181

> <Gold.Chemscore.DG>
-24.4957

> <Gold.Chemscore.ZeroCoef>
-5.4800

> <Gold.Chemscore.Hbond>
2.9332

> <Gold.Chemscore.Metal>
0.0000

> <Gold.Chemscore.Lipo>
117.1889

> <Gold.Chemscore.Internal_Hbond>
0.0000

> <Gold.Chemscore.DEClash>
0.6304

> <Gold.Chemscore.DEInternal>
3.0472

> <Gold.Chemscore.Rot>
1.7548

> <Gold.Chemscore.Internal.Correction>
   9.000000E+99

> <Gold.Chemscore.Hbonds>
donor molecule, donor type, donor heavy atom, donor atom, acceptor molecule, acceptor atom, score
      L1  H     8    30       P1  8028  1.00
      L1  H    11    31       P1  8028  0.95
      L1  H    17    38       P1  7948  0.87
      P1  H  7954  7966       L1    17  0.03

> <Gold.Chemscore.Hbond.Weighted>
-9.7970

> <Gold.Chemscore.Metal.Weighted>
-0.0000

> <Gold.Chemscore.Lipo.Weighted>
-13.7111

> <Gold.Chemscore.Internal_Hbond.Weighted>
0.0000

> <Gold.Chemscore.DEClash.Weighted>
0.6304

> <Gold.Chemscore.DEInternal.Weighted>
3.0472

> <Gold.Chemscore.Rot.Weighted>
4.4924

> <Gold.Chemscore.Internal.Correction.Weighted>
   9.000000E+99

> <Gold.Protein.RotatedTorsions>
[ 6907 6896 6895 6894 ] final  -98.04 input  -60.11 | X-H torsion
[ 7974 7965 7964 7962 ] final  169.63 input  175.53 | X-H torsion
[ 8008 7997 7996 7995 ] final -144.29 input   59.86 | X-H torsion
[ 10167 10162 10161 10158 ] final -142.51 input  -65.29 | X-H torsion
[ 10718 10713 10712 10709 ] final  -93.19 input   66.30 | X-H torsion
[ 10763 10752 10751 10750 ] final  153.01 input  -60.55 | X-H torsion
[ 11005 11000 10999 10996 ] final   28.06 input  -57.11 | X-H torsion

> <Gold.Protein.ActiveResidues>
 VAL166  LYS551  ARG553  GLY616  TRP617  ASP618  TYR619  PRO620  LYS621  CYS622 
 ASP623  PHE694  ASN695  SER759  ASP760  ASP761  ALA762  ILE779  LEU786  VAL792 
 PHE793  MET794  SER795  GLU796  ALA797  LYS798  CYS799  TRP800  GLU811  SER814 

> <Gold.Protein.RotatedAtoms>
  150.7034  134.1256  159.4050 H   0  0  0  0  0  0  0  0  0  0  0  0  # atno 6907 bound_to 6896
  151.9242  135.0283  160.0533 H   0  0  0  0  0  0  0  0  0  0  0  0  # atno 6908 bound_to 6896
  152.2231  133.4963  159.5210 H   0  0  0  0  0  0  0  0  0  0  0  0  # atno 6909 bound_to 6896
  144.7349  139.9082  143.6413 H   0  0  0  0  0  0  0  0  0  0  0  0  # atno 7974 bound_to 7965
  155.5245  140.0594  157.2900 H   0  0  0  0  0  0  0  0  0  0  0  0  # atno 8008 bound_to 7997
  154.4506  140.1947  156.0477 H   0  0  0  0  0  0  0  0  0  0  0  0  # atno 8009 bound_to 7997
  156.0696  140.3262  155.7563 H   0  0  0  0  0  0  0  0  0  0  0  0  # atno 8010 bound_to 7997
  139.8082  143.7739  152.2662 H   0  0  0  0  0  0  0  0  0  0  0  0  # atno 10167 bound_to 10162
  156.0010  130.5017  150.5738 H   0  0  0  0  0  0  0  0  0  0  0  0  # atno 10718 bound_to 10713
  154.1293  135.2827  155.3189 H   0  0  0  0  0  0  0  0  0  0  0  0  # atno 10763 bound_to 10752
  154.6367  135.5416  153.7745 H   0  0  0  0  0  0  0  0  0  0  0  0  # atno 10764 bound_to 10752
  153.0286  135.6476  154.1444 H   0  0  0  0  0  0  0  0  0  0  0  0  # atno 10765 bound_to 10752
  140.3196  134.2558  155.7719 H   0  0  0  0  0  0  0  0  0  0  0  0  # atno 11005 bound_to 11000
  146.1020  139.4017  143.0341 LP  0  0  0  0  0  0  0  0  0  0  0  0  # atno 17320 bound_to 7965
  145.7564  140.9952  143.1223 LP  0  0  0  0  0  0  0  0  0  0  0  0  # atno 17321 bound_to 7965
  139.7880  144.7421  150.9995 LP  0  0  0  0  0  0  0  0  0  0  0  0  # atno 17342 bound_to 10162
  140.7818  143.4472  151.0465 LP  0  0  0  0  0  0  0  0  0  0  0  0  # atno 17343 bound_to 10162
  157.3629  131.0753  151.1621 LP  0  0  0  0  0  0  0  0  0  0  0  0  # atno 17370 bound_to 10713
  157.2400  130.6565  149.5886 LP  0  0  0  0  0  0  0  0  0  0  0  0  # atno 17371 bound_to 10713
  141.2089  133.7763  157.0027 LP  0  0  0  0  0  0  0  0  0  0  0  0  # atno 17394 bound_to 11000
  140.0953  134.9568  157.1840 LP  0  0  0  0  0  0  0  0  0  0  0  0  # atno 17395 bound_to 11000

$$$$
