AV-unprocessed.smi:1824|AV-procd|sdf|7405|dock8
  -GOLD-   22720 9 83D 1   1.00000     0.00000
 Structure written by MMmdl.
 45 47  0  0  0  0  0  0  0  0  2 V2000
  144.3114  144.4808  153.7495 C   0  0  0  0  0  0  0  0  0  0  0  0
  145.5394  144.0238  154.5442 C   0  0  2  0  0  0  0  0  0  0  0  0
  146.4185  143.0441  153.7439 C   0  0  0  0  0  0  0  0  0  0  0  0
  147.5517  142.5689  154.5752 N   0  3  2  0  0  0  0  0  0  0  0  0
  148.4836  141.6646  153.8538 C   0  0  0  0  0  0  0  0  0  0  0  0
  149.5582  141.0650  154.7819 C   0  0  1  0  0  0  0  0  0  0  0  0
  150.4676  140.3157  153.9980 O   0  0  0  0  0  0  0  0  0  0  0  0
  150.3240  142.1563  155.5548 C   0  0  0  0  0  0  0  0  0  0  0  0
  151.0831  141.6177  156.6699 N   0  0  0  0  0  0  0  0  0  0  0  0
  151.7906  140.4717  156.6893 C   0  0  0  0  0  0  0  0  0  0  0  0
  152.4225  140.1643  157.8182 N   0  0  0  0  0  0  0  0  0  0  0  0
  152.0859  141.2352  158.6282 C   0  0  0  0  0  0  0  0  0  0  0  0
  152.4411  141.5209  159.9658 C   0  0  0  0  0  0  0  0  0  0  0  0
  151.9736  142.6934  160.5949 C   0  0  0  0  0  0  0  0  0  0  0  0
  152.3250  142.9527  161.8768 F   0  0  0  0  0  0  0  0  0  0  0  0
  151.1440  143.5961  159.8971 C   0  0  0  0  0  0  0  0  0  0  0  0
  150.6996  144.7196  160.5083 F   0  0  0  0  0  0  0  0  0  0  0  0
  150.7763  143.3324  158.5637 C   0  0  0  0  0  0  0  0  0  0  0  0
  151.2461  142.1620  157.9398 C   0  0  0  0  0  0  0  0  0  0  0  0
  147.0512  141.9815  155.8399 C   0  0  0  0  0  0  0  0  0  0  0  0
  146.1554  142.9892  156.5848 C   0  0  2  0  0  0  0  0  0  0  0  0
  145.5546  142.3951  157.8636 C   0  0  0  0  0  0  0  0  0  0  0  0
  145.0862  143.3791  155.7299 O   0  0  0  0  0  0  0  0  0  0  0  0
  144.6049  144.9901  152.8313 H   0  0  0  0  0  0  0  0  0  0  0  0
  143.7048  145.1734  154.3336 H   0  0  0  0  0  0  0  0  0  0  0  0
  143.6798  143.6350  153.4766 H   0  0  0  0  0  0  0  0  0  0  0  0
  146.1238  144.9051  154.8149 H   0  0  0  0  0  0  0  0  0  0  0  0
  145.8250  142.1897  153.4145 H   0  0  0  0  0  0  0  0  0  0  0  0
  146.7872  143.5403  152.8467 H   0  0  0  0  0  0  0  0  0  0  0  0
  147.9245  140.8461  153.3972 H   0  0  0  0  0  0  0  0  0  0  0  0
  148.9475  142.2099  153.0302 H   0  0  0  0  0  0  0  0  0  0  0  0
  149.0996  140.3903  155.5042 H   0  0  0  0  0  0  0  0  0  0  0  0
  150.1760  140.3285  153.0989 H   0  0  0  0  0  0  0  0  0  0  0  0
  151.0061  142.6916  154.8929 H   0  0  0  0  0  0  0  0  0  0  0  0
  149.6264  142.8981  155.9460 H   0  0  0  0  0  0  0  0  0  0  0  0
  151.8473  139.8273  155.8240 H   0  0  0  0  0  0  0  0  0  0  0  0
  153.0757  140.8375  160.5100 H   0  0  0  0  0  0  0  0  0  0  0  0
  150.1427  144.0232  158.0283 H   0  0  0  0  0  0  0  0  0  0  0  0
  146.4954  141.0677  155.6220 H   0  0  0  0  0  0  0  0  0  0  0  0
  147.8936  141.7021  156.4741 H   0  0  0  0  0  0  0  0  0  0  0  0
  146.7394  143.8711  156.8545 H   0  0  0  0  0  0  0  0  0  0  0  0
  146.3362  142.0905  158.5599 H   0  0  0  0  0  0  0  0  0  0  0  0
  144.9421  141.5198  157.6438 H   0  0  0  0  0  0  0  0  0  0  0  0
  144.9228  143.1236  158.3723 H   0  0  0  0  0  0  0  0  0  0  0  0
  148.0912  143.3826  154.8359 H   0  0  0  0  0  0  0  0  0  0  0  0
  1  2  1  0  0  0  0
  1 24  1  0  0  0  0
  1 25  1  0  0  0  0
  1 26  1  0  0  0  0
  2 23  1  0  0  0  0
  2  3  1  0  0  0  0
  2 27  1  0  0  0  0
  3  4  1  0  0  0  0
  3 28  1  0  0  0  0
  3 29  1  0  0  0  0
  4  5  1  0  0  0  0
  4 20  1  0  0  0  0
  4 45  1  0  0  0  0
  5  6  1  0  0  0  0
  5 30  1  0  0  0  0
  5 31  1  0  0  0  0
  6  7  1  0  0  0  0
  6  8  1  0  0  0  0
  6 32  1  0  0  0  0
  7 33  1  0  0  0  0
  8  9  1  0  0  0  0
  8 34  1  0  0  0  0
  8 35  1  0  0  0  0
  9 19  1  0  0  0  0
  9 10  1  0  0  0  0
 10 11  2  0  0  0  0
 10 36  1  0  0  0  0
 11 12  1  0  0  0  0
 12 19  2  0  0  0  0
 12 13  1  0  0  0  0
 13 14  2  0  0  0  0
 13 37  1  0  0  0  0
 14 15  1  0  0  0  0
 14 16  1  0  0  0  0
 16 17  1  0  0  0  0
 16 18  2  0  0  0  0
 18 19  1  0  0  0  0
 18 38  1  0  0  0  0
 20 21  1  0  0  0  0
 20 39  1  0  0  0  0
 20 40  1  0  0  0  0
 21 22  1  0  0  0  0
 21 23  1  0  0  0  0
 21 41  1  0  0  0  0
 22 42  1  0  0  0  0
 22 43  1  0  0  0  0
 22 44  1  0  0  0  0
M  CHG  1   4   1
M  END
> <s_m_source_file>
AV-unprocessed.smi

> <i_m_source_file_index>
1824

> <i_lp_mmshare_version>
43012

> <i_f3d_flags>
0

> <s_epik_input>
W0NIM11bQ0BASF0xW0NIMl1OKFtDSDJdW0NASF0oTzEpW0NIM10pW0NIMl1bQ0BIXShbT0hdKVtDSDJdbihbY0hdbjIpYyhjMjMpW2NIXWMoRiljKEYpW2NIXTM=

> <s_epik_cmdline>
J2VwaWtfcHl0aG9uJywgJy1waCcsICc3LjAnLCAnLXRuJywgJzgnLCAnLW1hJywgJzIwMCcsICctbWV0YWxfYmluZGluZycsICctaW1hZScsICc8aW5maWxlLm1hZT4nLCAnLW9tYWUnLCAnPG91dGZpbGUubWFlPic=

> <r_epik_Ionization_Penalty>
0.61967

> <r_epik_Ionization_Penalty_Charging>
0.608065

> <r_epik_Ionization_Penalty_Neutral>
0.0116057

> <r_epik_State_Penalty>
0.664205

> <r_epik_Charging_Adjusted_Penalty>
1.27227

> <i_epik_Tot_Q>
1

> <i_epik_Tot_abs_Q>
1

> <r_epik_Metal_State_Penalty>
0.654947

> <b_epik_Metal_Only>
0

> <s_lp_Force_Field>
OPLS_2005

> <r_lp_Energy>
20.1531

> <b_lp_Chiralities_Consistent>
1

> <s_lp_Variant>
AV-unprocessed.smi:1824-13

> <Gold.Version>
5.8.1

> <Gold.Id.Protein>
6NUR|6NUR_protein|mol2

> <Gold.PLP.Fitness>
62.1745

> <Gold.PLP.PLP>
-48.4174

> <Gold.PLP.part.hbond>
-4.0000

> <Gold.PLP.part.metal>
0.0000

> <Gold.PLP.part.buried>
-7.5021

> <Gold.PLP.part.nonpolar>
-37.5289

> <Gold.PLP.part.repulsive>
0.1934

> <Gold.PLP.ligand.clash>
0.0000

> <Gold.PLP.ligand.torsion>
0.4530

> <Gold.PLP.Chemscore.Hbond>
4.8800

> <Gold.PLP.Chemscore.CHOScore>
0.0000

> <Gold.PLP.Chemscore.Metal>
0.0000

> <Gold.Chemscore.Hbonds>
donor molecule, donor type, donor heavy atom, donor atom, acceptor molecule, acceptor atom, score
      L1  H     4    45       P1  8028  2.00
      L1  H     7    33       P1  7957  0.99
      P1  H  7989  7998       L1     7  0.12
      P1  H  7997  8010       L1    11  0.16

> <Gold.PLP.Chemscore.Internal.Correction>
0.0231

> <Gold.Rescore>
     Score         DG    S(hbond)    S(metal)    S(lipo)     H(rot)  DE(clash)    DE(int)     intcor
     15.87     -18.05       1.97        0.00     101.98       2.33       1.85       0.33       ----

> <Gold.Chemscore.Fitness>
15.8673

> <Gold.Chemscore.DG>
-18.0499

> <Gold.Chemscore.ZeroCoef>
-5.4800

> <Gold.Chemscore.Hbond>
1.9731

> <Gold.Chemscore.Metal>
0.0000

> <Gold.Chemscore.Lipo>
101.9841

> <Gold.Chemscore.Internal_Hbond>
0.0000

> <Gold.Chemscore.DEClash>
1.8505

> <Gold.Chemscore.DEInternal>
0.3320

> <Gold.Chemscore.Rot>
2.3251

> <Gold.Chemscore.Internal.Correction>
   9.000000E+99

> <Gold.Chemscore.Hbonds>
donor molecule, donor type, donor heavy atom, donor atom, acceptor molecule, acceptor atom, score
      L1  H     4    45       P1  8028  0.88
      L1  H     7    33       P1  7957  0.92
      P1  H  7997  8010       L1    11  0.01

> <Gold.Chemscore.Hbond.Weighted>
-6.5901

> <Gold.Chemscore.Metal.Weighted>
-0.0000

> <Gold.Chemscore.Lipo.Weighted>
-11.9321

> <Gold.Chemscore.Internal_Hbond.Weighted>
0.0000

> <Gold.Chemscore.DEClash.Weighted>
1.8505

> <Gold.Chemscore.DEInternal.Weighted>
0.3320

> <Gold.Chemscore.Rot.Weighted>
5.9523

> <Gold.Chemscore.Internal.Correction.Weighted>
   9.000000E+99

> <Gold.Protein.RotatedTorsions>
[ 6907 6896 6895 6894 ] final   84.27 input  -60.11 | X-H torsion
[ 7974 7965 7964 7962 ] final  -14.03 input  175.53 | X-H torsion
[ 8008 7997 7996 7995 ] final   60.48 input   59.86 | X-H torsion
[ 10167 10162 10161 10158 ] final  134.06 input  -65.29 | X-H torsion
[ 10718 10713 10712 10709 ] final  -10.72 input   66.30 | X-H torsion
[ 10763 10752 10751 10750 ] final   -7.07 input  -60.55 | X-H torsion
[ 11005 11000 10999 10996 ] final  132.88 input  -57.11 | X-H torsion

> <Gold.Protein.ActiveResidues>
 VAL166  LYS551  ARG553  GLY616  TRP617  ASP618  TYR619  PRO620  LYS621  CYS622 
 ASP623  PHE694  ASN695  SER759  ASP760  ASP761  ALA762  ILE779  LEU786  VAL792 
 PHE793  MET794  SER795  GLU796  ALA797  LYS798  CYS799  TRP800  GLU811  SER814 

> <Gold.Protein.RotatedAtoms>
  152.5348  134.2767  159.8991 H   0  0  0  0  0  0  0  0  0  0  0  0  # atno 6907 bound_to 6896
  151.2722  133.4243  159.2629 H   0  0  0  0  0  0  0  0  0  0  0  0  # atno 6908 bound_to 6896
  151.0357  134.9586  159.8191 H   0  0  0  0  0  0  0  0  0  0  0  0  # atno 6909 bound_to 6896
  146.2091  140.3289  142.8397 H   0  0  0  0  0  0  0  0  0  0  0  0  # atno 7974 bound_to 7965
  155.5831  140.3491  155.4545 H   0  0  0  0  0  0  0  0  0  0  0  0  # atno 8008 bound_to 7997
  156.0358  140.1285  157.0234 H   0  0  0  0  0  0  0  0  0  0  0  0  # atno 8009 bound_to 7997
  154.4371  140.1034  156.6151 H   0  0  0  0  0  0  0  0  0  0  0  0  # atno 8010 bound_to 7997
  139.5271  144.6586  151.5085 H   0  0  0  0  0  0  0  0  0  0  0  0  # atno 10167 bound_to 10162
  156.6694  130.5005  149.6005 H   0  0  0  0  0  0  0  0  0  0  0  0  # atno 10718 bound_to 10713
  153.4212  135.7010  153.6293 H   0  0  0  0  0  0  0  0  0  0  0  0  # atno 10763 bound_to 10752
  153.4747  135.3707  155.2410 H   0  0  0  0  0  0  0  0  0  0  0  0  # atno 10764 bound_to 10752
  154.8722  135.4051  154.3580 H   0  0  0  0  0  0  0  0  0  0  0  0  # atno 10765 bound_to 10752
  139.9817  134.9546  156.9645 H   0  0  0  0  0  0  0  0  0  0  0  0  # atno 11005 bound_to 11000
  144.8866  140.7470  143.5953 LP  0  0  0  0  0  0  0  0  0  0  0  0  # atno 17320 bound_to 7965
  145.3210  139.1788  143.4587 LP  0  0  0  0  0  0  0  0  0  0  0  0  # atno 17321 bound_to 7965
  140.6423  143.8865  150.6703 LP  0  0  0  0  0  0  0  0  0  0  0  0  # atno 17342 bound_to 10162
  140.2203  143.3814  152.1648 LP  0  0  0  0  0  0  0  0  0  0  0  0  # atno 17343 bound_to 10162
  156.1950  130.6584  151.1104 LP  0  0  0  0  0  0  0  0  0  0  0  0  # atno 17370 bound_to 10713
  157.7082  131.0746  150.6592 LP  0  0  0  0  0  0  0  0  0  0  0  0  # atno 17371 bound_to 10713
  140.5083  134.1028  155.7265 LP  0  0  0  0  0  0  0  0  0  0  0  0  # atno 17394 bound_to 11000
  141.1488  133.9006  157.2149 LP  0  0  0  0  0  0  0  0  0  0  0  0  # atno 17395 bound_to 11000

$$$$
