AV-unprocessed.smi:786|AV-procd|sdf|3721|dock9
  -GOLD-   22720 1143D 1   1.00000     0.00000
 Structure written by MMmdl.
 39 40  0  0  0  0  0  0  0  0  1 V2000
  154.0217  136.9591  158.8074 O   0  0  0  0  0  0  0  0  0  0  0  0
  152.9912  137.7075  159.5422 S   0  0  0  0  0  0  0  0  0  0  0  0
  151.6403  137.1484  159.7014 O   0  0  0  0  0  0  0  0  0  0  0  0
  153.6352  138.1749  161.2135 C   0  0  0  0  0  0  0  0  0  0  0  0
  153.4744  137.0533  162.2608 C   0  0  0  0  0  0  0  0  0  0  0  0
  153.9831  137.4505  163.6599 C   0  0  0  0  0  0  0  0  0  0  0  0
  153.8668  136.2703  164.6385 C   0  0  0  0  0  0  0  0  0  0  0  0
  154.5859  135.1492  164.1365 O   0  0  0  0  0  0  0  0  0  0  0  0
  154.0766  134.6758  162.8947 C   0  0  0  0  0  0  0  0  0  0  0  0
  154.2015  135.7711  161.8228 C   0  0  0  0  0  0  0  0  0  0  0  0
  152.8270  139.2348  158.7547 N   0  0  0  0  0  0  0  0  0  0  0  0
  152.1193  140.3387  159.4031 C   0  0  0  0  0  0  0  0  0  0  0  0
  151.8289  141.4531  158.3891 C   0  0  0  0  0  0  0  0  0  0  0  0
  151.7901  142.8239  159.0383 C   0  0  0  0  0  0  0  0  0  0  0  0
  152.1792  143.9736  158.3182 C   0  0  0  0  0  0  0  0  0  0  0  0
  152.1181  145.2232  158.9649 C   0  0  0  0  0  0  0  0  0  0  0  0
  151.6721  145.2752  160.2994 C   0  0  0  0  0  0  0  0  0  0  0  0
  151.3044  144.0698  160.9304 C   0  0  0  0  0  0  0  0  0  0  0  0
  151.3583  142.8665  160.3192 N   0  0  0  0  0  0  0  0  0  0  0  0
  154.6804  138.4571  161.0924 H   0  0  0  0  0  0  0  0  0  0  0  0
  153.1095  139.0732  161.5376 H   0  0  0  0  0  0  0  0  0  0  0  0
  152.4133  136.8107  162.3360 H   0  0  0  0  0  0  0  0  0  0  0  0
  155.0265  137.7620  163.5986 H   0  0  0  0  0  0  0  0  0  0  0  0
  153.4311  138.3014  164.0549 H   0  0  0  0  0  0  0  0  0  0  0  0
  154.2804  136.5471  165.6083 H   0  0  0  0  0  0  0  0  0  0  0  0
  152.8222  136.0025  164.8036 H   0  0  0  0  0  0  0  0  0  0  0  0
  154.6431  133.7936  162.5965 H   0  0  0  0  0  0  0  0  0  0  0  0
  153.0382  134.3621  163.0116 H   0  0  0  0  0  0  0  0  0  0  0  0
  153.7935  135.4088  160.8785 H   0  0  0  0  0  0  0  0  0  0  0  0
  155.2563  135.9855  161.6453 H   0  0  0  0  0  0  0  0  0  0  0  0
  153.6440  139.5081  158.2089 H   0  0  0  0  0  0  0  0  0  0  0  0
  151.1857  139.9705  159.8297 H   0  0  0  0  0  0  0  0  0  0  0  0
  152.7262  140.7192  160.2249 H   0  0  0  0  0  0  0  0  0  0  0  0
  152.5884  141.4545  157.6058 H   0  0  0  0  0  0  0  0  0  0  0  0
  150.8761  141.2654  157.8923 H   0  0  0  0  0  0  0  0  0  0  0  0
  152.5155  143.9022  157.2941 H   0  0  0  0  0  0  0  0  0  0  0  0
  152.4079  146.1253  158.4462 H   0  0  0  0  0  0  0  0  0  0  0  0
  151.6125  146.2156  160.8270 H   0  0  0  0  0  0  0  0  0  0  0  0
  150.9576  144.0722  161.9529 H   0  0  0  0  0  0  0  0  0  0  0  0
  1  2  2  0  0  0  0
  2  3  2  0  0  0  0
  2  4  1  0  0  0  0
  2 11  1  0  0  0  0
  4  5  1  0  0  0  0
  4 20  1  0  0  0  0
  4 21  1  0  0  0  0
  5 10  1  0  0  0  0
  5  6  1  0  0  0  0
  5 22  1  0  0  0  0
  6  7  1  0  0  0  0
  6 23  1  0  0  0  0
  6 24  1  0  0  0  0
  7  8  1  0  0  0  0
  7 25  1  0  0  0  0
  7 26  1  0  0  0  0
  8  9  1  0  0  0  0
  9 10  1  0  0  0  0
  9 27  1  0  0  0  0
  9 28  1  0  0  0  0
 10 29  1  0  0  0  0
 10 30  1  0  0  0  0
 11 12  1  0  0  0  0
 11 31  1  0  0  0  0
 12 13  1  0  0  0  0
 12 32  1  0  0  0  0
 12 33  1  0  0  0  0
 13 14  1  0  0  0  0
 13 34  1  0  0  0  0
 13 35  1  0  0  0  0
 14 19  1  0  0  0  0
 14 15  2  0  0  0  0
 15 16  1  0  0  0  0
 15 36  1  0  0  0  0
 16 17  2  0  0  0  0
 16 37  1  0  0  0  0
 17 18  1  0  0  0  0
 17 38  1  0  0  0  0
 18 19  2  0  0  0  0
 18 39  1  0  0  0  0
M  END
> <s_m_source_file>
AV-unprocessed.smi

> <i_m_source_file_index>
786

> <i_lp_mmshare_version>
43012

> <i_f3d_flags>
0

> <s_epik_input>
W0NIMl0xW0NIMl1PW0NIMl1bQ0gyXVtDSF0xW0NIMl1TKD1PKSg9TylbTkhdW0NIMl1bQ0gyXWMyW2NIXVtjSF1bY0hdW2NIXW4y

> <s_epik_cmdline>
J2VwaWtfcHl0aG9uJywgJy1waCcsICc3LjAnLCAnLXRuJywgJzgnLCAnLW1hJywgJzIwMCcsICctbWV0YWxfYmluZGluZycsICctaW1hZScsICc8aW5maWxlLm1hZT4nLCAnLW9tYWUnLCAnPG91dGZpbGUubWFlPic=

> <r_epik_Ionization_Penalty>
0.0207022

> <r_epik_Ionization_Penalty_Charging>
0

> <r_epik_Ionization_Penalty_Neutral>
0.0207022

> <r_epik_State_Penalty>
0.0165999

> <r_epik_Charging_Adjusted_Penalty>
0.0165999

> <i_epik_Tot_Q>
0

> <i_epik_Tot_abs_Q>
0

> <r_epik_Metal_State_Penalty>
0.0248737

> <b_epik_Metal_Only>
0

> <s_lp_Force_Field>
OPLS_2005

> <r_lp_Energy>
3.32782

> <b_lp_Chiralities_Consistent>
1

> <s_lp_Variant>
AV-unprocessed.smi:786-1

> <Gold.Version>
5.8.1

> <Gold.Id.Protein>
6NUR|6NUR_protein|mol2

> <Gold.PLP.Fitness>
43.2520

> <Gold.PLP.PLP>
-42.2827

> <Gold.PLP.part.hbond>
-1.7365

> <Gold.PLP.part.metal>
0.0000

> <Gold.PLP.part.buried>
-5.7540

> <Gold.PLP.part.nonpolar>
-34.7144

> <Gold.PLP.part.repulsive>
0.0944

> <Gold.PLP.ligand.clash>
0.0000

> <Gold.PLP.ligand.torsion>
1.0854

> <Gold.PLP.Chemscore.Hbond>
0.9913

> <Gold.PLP.Chemscore.CHOScore>
0.0000

> <Gold.PLP.Chemscore.Metal>
0.0000

> <Gold.Chemscore.Hbonds>
donor molecule, donor type, donor heavy atom, donor atom, acceptor molecule, acceptor atom, score
      P1  H  6896  6909       L1     3  1.00

> <Gold.PLP.Chemscore.Internal.Correction>
0.1664

> <Gold.Rescore>
     Score         DG    S(hbond)    S(metal)    S(lipo)     H(rot)  DE(clash)    DE(int)     intcor
     16.75     -18.12       0.98        0.00     119.70       1.81       0.22       1.15       ----

> <Gold.Chemscore.Fitness>
16.7476

> <Gold.Chemscore.DG>
-18.1184

> <Gold.Chemscore.ZeroCoef>
-5.4800

> <Gold.Chemscore.Hbond>
0.9812

> <Gold.Chemscore.Metal>
0.0000

> <Gold.Chemscore.Lipo>
119.6958

> <Gold.Chemscore.Internal_Hbond>
0.0000

> <Gold.Chemscore.DEClash>
0.2211

> <Gold.Chemscore.DEInternal>
1.1496

> <Gold.Chemscore.Rot>
1.8138

> <Gold.Chemscore.Internal.Correction>
   9.000000E+99

> <Gold.Chemscore.Hbonds>
donor molecule, donor type, donor heavy atom, donor atom, acceptor molecule, acceptor atom, score
      P1  H  6896  6909       L1     3  0.88

> <Gold.Chemscore.Hbond.Weighted>
-3.2772

> <Gold.Chemscore.Metal.Weighted>
-0.0000

> <Gold.Chemscore.Lipo.Weighted>
-14.0044

> <Gold.Chemscore.Internal_Hbond.Weighted>
0.0000

> <Gold.Chemscore.DEClash.Weighted>
0.2211

> <Gold.Chemscore.DEInternal.Weighted>
1.1496

> <Gold.Chemscore.Rot.Weighted>
4.6432

> <Gold.Chemscore.Internal.Correction.Weighted>
   9.000000E+99

> <Gold.Protein.RotatedTorsions>
[ 6907 6896 6895 6894 ] final  119.31 input  -60.11 | X-H torsion
[ 7974 7965 7964 7962 ] final   95.74 input  175.53 | X-H torsion
[ 8008 7997 7996 7995 ] final -105.65 input   59.86 | X-H torsion
[ 10167 10162 10161 10158 ] final -110.49 input  -65.29 | X-H torsion
[ 10718 10713 10712 10709 ] final  130.01 input   66.30 | X-H torsion
[ 10763 10752 10751 10750 ] final  -46.12 input  -60.55 | X-H torsion
[ 11005 11000 10999 10996 ] final   11.25 input  -57.11 | X-H torsion

> <Gold.Protein.ActiveResidues>
 VAL166  LYS551  ARG553  GLY616  TRP617  ASP618  TYR619  PRO620  LYS621  CYS622 
 ASP623  PHE694  ASN695  SER759  ASP760  ASP761  ALA762  ILE779  LEU786  VAL792 
 PHE793  MET794  SER795  GLU796  ALA797  LYS798  CYS799  TRP800  GLU811  SER814 

> <Gold.Protein.RotatedAtoms>
  152.4481  133.7575  159.6727 H   0  0  0  0  0  0  0  0  0  0  0  0  # atno 6907 bound_to 6896
  150.8385  133.7963  159.3076 H   0  0  0  0  0  0  0  0  0  0  0  0  # atno 6908 bound_to 6896
  151.5596  135.1068  160.0021 H   0  0  0  0  0  0  0  0  0  0  0  0  # atno 6909 bound_to 6896
  145.4481  139.2295  143.3055 H   0  0  0  0  0  0  0  0  0  0  0  0  # atno 7974 bound_to 7965
  154.9029  140.0412  157.1903 H   0  0  0  0  0  0  0  0  0  0  0  0  # atno 8008 bound_to 7997
  154.8425  140.2916  155.5629 H   0  0  0  0  0  0  0  0  0  0  0  0  # atno 8009 bound_to 7997
  156.2993  140.2480  156.3370 H   0  0  0  0  0  0  0  0  0  0  0  0  # atno 8010 bound_to 7997
  140.1439  143.4256  152.1543 H   0  0  0  0  0  0  0  0  0  0  0  0  # atno 10167 bound_to 10162
  157.5102  131.1096  150.9304 H   0  0  0  0  0  0  0  0  0  0  0  0  # atno 10718 bound_to 10713
  154.0398  135.6645  153.4789 H   0  0  0  0  0  0  0  0  0  0  0  0  # atno 10763 bound_to 10752
  153.0506  135.5087  154.7853 H   0  0  0  0  0  0  0  0  0  0  0  0  # atno 10764 bound_to 10752
  154.6826  135.3047  154.9558 H   0  0  0  0  0  0  0  0  0  0  0  0  # atno 10765 bound_to 10752
  140.5053  134.0705  155.7804 H   0  0  0  0  0  0  0  0  0  0  0  0  # atno 11005 bound_to 11000
  146.2519  140.5237  142.8889 LP  0  0  0  0  0  0  0  0  0  0  0  0  # atno 17320 bound_to 7965
  144.8079  140.6332  143.6435 LP  0  0  0  0  0  0  0  0  0  0  0  0  # atno 17321 bound_to 7965
  139.5458  144.7297  151.4587 LP  0  0  0  0  0  0  0  0  0  0  0  0  # atno 17342 bound_to 10162
  140.6744  143.8223  150.7039 LP  0  0  0  0  0  0  0  0  0  0  0  0  # atno 17343 bound_to 10162
  156.9947  130.5577  149.5306 LP  0  0  0  0  0  0  0  0  0  0  0  0  # atno 17370 bound_to 10713
  156.0284  130.5376  150.8468 LP  0  0  0  0  0  0  0  0  0  0  0  0  # atno 17371 bound_to 10713
  141.1414  133.9131  157.2317 LP  0  0  0  0  0  0  0  0  0  0  0  0  # atno 17394 bound_to 11000
  139.9690  135.0134  156.9462 LP  0  0  0  0  0  0  0  0  0  0  0  0  # atno 17395 bound_to 11000

$$$$
