AV-unprocessed.smi:411|AV-procd|sdf|2509|dock8
  -GOLD-   2262022463D 1   1.00000     0.00000
 Structure written by MMmdl.
 35 36  0  0  0  0  0  0  0  0  1 V2000
  149.0898  140.7175  157.6323 O   0  0  0  0  0  0  0  0  0  0  0  0
  149.3596  141.7561  157.0275 C   0  0  0  0  0  0  0  0  0  0  0  0
  150.8146  142.2172  156.8565 C   0  0  0  0  0  0  0  0  0  0  0  0
  151.5624  142.2911  158.1238 N   0  0  0  0  0  0  0  0  0  0  0  0
  151.3314  143.4178  158.9329 C   0  0  0  0  0  0  0  0  0  0  0  0
  151.9573  143.5846  160.1058 C   0  0  0  0  0  0  0  0  0  0  0  0
  152.8881  142.5687  160.5327 C   0  0  0  0  0  0  0  0  0  0  0  0
  153.1358  141.4766  159.7732 C   0  0  0  0  0  0  0  0  0  0  0  0
  154.1146  140.3900  160.2123 C   0  0  0  0  0  0  0  0  0  0  0  0
  153.5725  139.1805  160.0639 F   0  0  0  0  0  0  0  0  0  0  0  0
  155.2276  140.4405  159.4797 F   0  0  0  0  0  0  0  0  0  0  0  0
  154.4624  140.5253  161.4929 F   0  0  0  0  0  0  0  0  0  0  0  0
  152.4432  141.3050  158.4796 C   0  0  0  0  0  0  0  0  0  0  0  0
  152.6392  140.3312  157.7502 O   0  0  0  0  0  0  0  0  0  0  0  0
  148.4275  142.5407  156.4657 N   0  0  0  0  0  0  0  0  0  0  0  0
  146.9876  142.2979  156.5010 C   0  0  1  0  0  0  0  0  0  0  0  0
  146.3345  142.9916  157.7283 C   0  0  0  0  0  0  0  0  0  0  0  0
  145.2225  143.9578  157.2923 C   0  0  0  0  0  0  0  0  0  0  0  0
  144.6522  143.3413  155.6764 S   0  0  0  0  0  0  0  0  0  0  0  0
  143.7827  142.1757  155.8961 O   0  0  0  0  0  0  0  0  0  0  0  0
  144.2312  144.4597  154.8190 O   0  0  0  0  0  0  0  0  0  0  0  0
  146.3081  142.7548  155.1934 C   0  0  0  0  0  0  0  0  0  0  0  0
  151.3069  141.5341  156.1629 H   0  0  0  0  0  0  0  0  0  0  0  0
  150.8279  143.1871  156.3558 H   0  0  0  0  0  0  0  0  0  0  0  0
  150.6257  144.1341  158.5381 H   0  0  0  0  0  0  0  0  0  0  0  0
  151.7722  144.4577  160.7140 H   0  0  0  0  0  0  0  0  0  0  0  0
  153.3891  142.6989  161.4804 H   0  0  0  0  0  0  0  0  0  0  0  0
  148.7370  143.3732  155.9854 H   0  0  0  0  0  0  0  0  0  0  0  0
  146.8202  141.2247  156.6127 H   0  0  0  0  0  0  0  0  0  0  0  0
  145.8976  142.2229  158.3669 H   0  0  0  0  0  0  0  0  0  0  0  0
  147.0667  143.5131  158.3463 H   0  0  0  0  0  0  0  0  0  0  0  0
  144.3911  144.0092  157.9955 H   0  0  0  0  0  0  0  0  0  0  0  0
  145.6210  144.9617  157.1443 H   0  0  0  0  0  0  0  0  0  0  0  0
  146.8349  143.5982  154.7453 H   0  0  0  0  0  0  0  0  0  0  0  0
  146.2266  141.9606  154.4508 H   0  0  0  0  0  0  0  0  0  0  0  0
  1  2  2  0  0  0  0
  2  3  1  0  0  0  0
  2 15  1  0  0  0  0
  3  4  1  0  0  0  0
  3 23  1  0  0  0  0
  3 24  1  0  0  0  0
  4 13  1  0  0  0  0
  4  5  1  0  0  0  0
  5  6  2  0  0  0  0
  5 25  1  0  0  0  0
  6  7  1  0  0  0  0
  6 26  1  0  0  0  0
  7  8  2  0  0  0  0
  7 27  1  0  0  0  0
  8  9  1  0  0  0  0
  8 13  1  0  0  0  0
  9 10  1  0  0  0  0
  9 11  1  0  0  0  0
  9 12  1  0  0  0  0
 13 14  2  0  0  0  0
 15 16  1  0  0  0  0
 15 28  1  0  0  0  0
 16 22  1  0  0  0  0
 16 17  1  0  0  0  0
 16 29  1  0  0  0  0
 17 18  1  0  0  0  0
 17 30  1  0  0  0  0
 17 31  1  0  0  0  0
 18 19  1  0  0  0  0
 18 32  1  0  0  0  0
 18 33  1  0  0  0  0
 19 20  2  0  0  0  0
 19 21  2  0  0  0  0
 19 22  1  0  0  0  0
 22 34  1  0  0  0  0
 22 35  1  0  0  0  0
M  END
> <s_m_source_file>
AV-unprocessed.smi

> <i_m_source_file_index>
411

> <i_lp_mmshare_version>
43012

> <i_f3d_flags>
0

> <s_epik_input>
Tz1TMSg9TylbQ0gyXVtDSDJdW0NASF0oW0NIMl0xKVtOSF1DKD1PKVtDSDJdbjJbY0hdW2NIXVtjSF1jKEMoRikoRilGKWMyPU8=

> <s_epik_cmdline>
J2VwaWtfcHl0aG9uJywgJy1waCcsICc3LjAnLCAnLXRuJywgJzgnLCAnLW1hJywgJzIwMCcsICctbWV0YWxfYmluZGluZycsICctaW1hZScsICc8aW5maWxlLm1hZT4nLCAnLW9tYWUnLCAnPG91dGZpbGUubWFlPic=

> <r_lp_tautomer_probability>
1

> <r_epik_Ionization_Penalty>
1.08759e-07

> <r_epik_Ionization_Penalty_Charging>
1.56656e-09

> <r_epik_Ionization_Penalty_Neutral>
1.07193e-07

> <r_epik_State_Penalty>
-0

> <r_epik_Charging_Adjusted_Penalty>
1.56656e-09

> <i_epik_Tot_Q>
0

> <i_epik_Tot_abs_Q>
0

> <r_epik_Metal_State_Penalty>
-0

> <b_epik_Metal_Only>
0

> <s_lp_Force_Field>
OPLS_2005

> <r_lp_Energy>
15.8783

> <b_lp_Chiralities_Consistent>
1

> <s_lp_Variant>
AV-unprocessed.smi:411-2

> <Gold.Version>
5.8.1

> <Gold.Id.Protein>
6NUR|6NUR_protein|mol2

> <Gold.PLP.Fitness>
43.6106

> <Gold.PLP.PLP>
-39.5672

> <Gold.PLP.part.hbond>
-2.0000

> <Gold.PLP.part.metal>
0.0000

> <Gold.PLP.part.buried>
-4.6537

> <Gold.PLP.part.nonpolar>
-33.0666

> <Gold.PLP.part.repulsive>
0.3538

> <Gold.PLP.ligand.clash>
0.0000

> <Gold.PLP.ligand.torsion>
1.0767

> <Gold.PLP.Chemscore.Hbond>
1.9520

> <Gold.PLP.Chemscore.CHOScore>
0.0000

> <Gold.PLP.Chemscore.Metal>
0.0000

> <Gold.Chemscore.Hbonds>
donor molecule, donor type, donor heavy atom, donor atom, acceptor molecule, acceptor atom, score
      L1  H    15    28       P1  8028  0.65
      P1  H  7997  8008       L1    14  0.86

> <Gold.PLP.Chemscore.Internal.Correction>
0.3407

> <Gold.Rescore>
     Score         DG    S(hbond)    S(metal)    S(lipo)     H(rot)  DE(clash)    DE(int)     intcor
     12.96     -15.40       1.87        0.00      69.34       1.73       0.02       2.43       ----

> <Gold.Chemscore.Fitness>
12.9602

> <Gold.Chemscore.DG>
-15.4015

> <Gold.Chemscore.ZeroCoef>
-5.4800

> <Gold.Chemscore.Hbond>
1.8685

> <Gold.Chemscore.Metal>
0.0000

> <Gold.Chemscore.Lipo>
69.3439

> <Gold.Chemscore.Internal_Hbond>
0.0000

> <Gold.Chemscore.DEClash>
0.0155

> <Gold.Chemscore.DEInternal>
2.4258

> <Gold.Chemscore.Rot>
1.7314

> <Gold.Chemscore.Internal.Correction>
   9.000000E+99

> <Gold.Chemscore.Hbonds>
donor molecule, donor type, donor heavy atom, donor atom, acceptor molecule, acceptor atom, score
      L1  H    15    28       P1  8028  0.64
      P1  H  7997  8008       L1    14  0.78

> <Gold.Chemscore.Hbond.Weighted>
-6.2406

> <Gold.Chemscore.Metal.Weighted>
-0.0000

> <Gold.Chemscore.Lipo.Weighted>
-8.1132

> <Gold.Chemscore.Internal_Hbond.Weighted>
0.0000

> <Gold.Chemscore.DEClash.Weighted>
0.0155

> <Gold.Chemscore.DEInternal.Weighted>
2.4258

> <Gold.Chemscore.Rot.Weighted>
4.4324

> <Gold.Chemscore.Internal.Correction.Weighted>
   9.000000E+99

> <Gold.Protein.RotatedTorsions>
[ 6907 6896 6895 6894 ] final -114.22 input  -60.11 | X-H torsion
[ 7974 7965 7964 7962 ] final  -77.66 input  175.53 | X-H torsion
[ 8008 7997 7996 7995 ] final  -76.47 input   59.86 | X-H torsion
[ 10167 10162 10161 10158 ] final  -48.97 input  -65.29 | X-H torsion
[ 10718 10713 10712 10709 ] final  -24.15 input   66.30 | X-H torsion
[ 10763 10752 10751 10750 ] final  140.79 input  -60.55 | X-H torsion
[ 11005 11000 10999 10996 ] final    6.73 input  -57.11 | X-H torsion

> <Gold.Protein.ActiveResidues>
 VAL166  LYS551  ARG553  GLY616  TRP617  ASP618  TYR619  PRO620  LYS621  CYS622 
 ASP623  PHE694  ASN695  SER759  ASP760  ASP761  ALA762  ILE779  LEU786  VAL792 
 PHE793  MET794  SER795  GLU796  ALA797  LYS798  CYS799  TRP800  GLU811  SER814 

> <Gold.Protein.RotatedAtoms>
  150.7886  133.8832  159.3291 H   0  0  0  0  0  0  0  0  0  0  0  0  # atno 6907 bound_to 6896
  151.6676  135.0979  160.0201 H   0  0  0  0  0  0  0  0  0  0  0  0  # atno 6908 bound_to 6896
  152.3956  133.6702  159.6308 H   0  0  0  0  0  0  0  0  0  0  0  0  # atno 6909 bound_to 6896
  145.5967  140.9418  143.1263 H   0  0  0  0  0  0  0  0  0  0  0  0  # atno 7974 bound_to 7965
  154.5508  140.0726  156.8665 H   0  0  0  0  0  0  0  0  0  0  0  0  # atno 8008 bound_to 7997
  155.2996  140.3383  155.4230 H   0  0  0  0  0  0  0  0  0  0  0  0  # atno 8009 bound_to 7997
  156.1960  140.1703  156.7984 H   0  0  0  0  0  0  0  0  0  0  0  0  # atno 8010 bound_to 7997
  140.6707  143.2717  151.4147 H   0  0  0  0  0  0  0  0  0  0  0  0  # atno 10167 bound_to 10162
  156.4815  130.4546  149.6809 H   0  0  0  0  0  0  0  0  0  0  0  0  # atno 10718 bound_to 10713
  153.9285  135.2992  155.3446 H   0  0  0  0  0  0  0  0  0  0  0  0  # atno 10763 bound_to 10752
  154.7539  135.4967  153.9341 H   0  0  0  0  0  0  0  0  0  0  0  0  # atno 10764 bound_to 10752
  153.1104  135.6757  153.9615 H   0  0  0  0  0  0  0  0  0  0  0  0  # atno 10765 bound_to 10752
  140.5562  134.0236  155.7954 H   0  0  0  0  0  0  0  0  0  0  0  0  # atno 11005 bound_to 11000
  144.7328  139.7676  143.7341 LP  0  0  0  0  0  0  0  0  0  0  0  0  # atno 17320 bound_to 7965
  146.1607  139.4720  142.9990 LP  0  0  0  0  0  0  0  0  0  0  0  0  # atno 17321 bound_to 7965
  139.5974  144.1369  152.2159 LP  0  0  0  0  0  0  0  0  0  0  0  0  # atno 17342 bound_to 10162
  140.0742  144.5754  150.7169 LP  0  0  0  0  0  0  0  0  0  0  0  0  # atno 17343 bound_to 10162
  156.3517  130.7435  151.2396 LP  0  0  0  0  0  0  0  0  0  0  0  0  # atno 17370 bound_to 10713
  157.7483  131.0375  150.4459 LP  0  0  0  0  0  0  0  0  0  0  0  0  # atno 17371 bound_to 10713
  141.1142  133.9567  157.2853 LP  0  0  0  0  0  0  0  0  0  0  0  0  # atno 17394 bound_to 11000
  139.9430  135.0188  156.8768 LP  0  0  0  0  0  0  0  0  0  0  0  0  # atno 17395 bound_to 11000

$$$$
