AV-unprocessed.smi:1199|AV-procd|sdf|5018|dock4
  -GOLD-   22720 4 33D 1   1.00000     0.00000
 Structure written by MMmdl.
 41 42  0  0  0  0  0  0  0  0  1 V2000
  145.1980  136.3113  155.1240 C   0  0  0  0  0  0  0  0  0  0  0  0
  146.2346  137.1212  154.3344 C   0  0  2  0  0  0  0  0  0  0  0  0
  145.8812  138.6255  154.3144 C   0  0  0  0  0  0  0  0  0  0  0  0
  147.0056  139.5374  154.5343 N   0  0  0  0  0  0  0  0  0  0  0  0
  146.7882  140.8615  153.9580 C   0  0  0  0  0  0  0  0  0  0  0  0
  147.9763  141.7984  154.2339 C   0  0  0  0  0  0  0  0  0  0  0  0
  149.1711  141.2158  153.7227 O   0  0  0  0  0  0  0  0  0  0  0  0
  149.4406  139.9333  154.2803 C   0  0  0  0  0  0  0  0  0  0  0  0
  148.2526  138.9922  154.0125 C   0  0  0  0  0  0  0  0  0  0  0  0
  146.3047  136.6137  152.9651 N   0  0  0  0  0  0  0  0  0  0  0  0
  145.2620  136.1882  152.2349 C   0  0  0  0  0  0  0  0  0  0  0  0
  144.0880  136.3052  152.5877 O   0  0  0  0  0  0  0  0  0  0  0  0
  145.5986  135.5122  150.9007 C   0  0  0  0  0  0  0  0  0  0  0  0
  145.2463  134.0853  150.9100 N   0  0  0  0  0  0  0  0  0  0  0  0
  144.2821  133.7313  149.9786 N   0  0  0  0  0  0  0  0  0  0  0  0
  143.8637  132.5126  149.9164 C   0  0  0  0  0  0  0  0  0  0  0  0
  142.9045  132.2063  148.9828 O   0  0  0  0  0  0  0  0  0  0  0  0
  144.3853  131.4952  150.8024 C   0  0  0  0  0  0  0  0  0  0  0  0
  145.3313  131.8474  151.7004 C   0  0  0  0  0  0  0  0  0  0  0  0
  145.8323  133.2195  151.7947 C   0  0  0  0  0  0  0  0  0  0  0  0
  146.6991  133.5663  152.5970 O   0  0  0  0  0  0  0  0  0  0  0  0
  142.3339  132.9590  148.9543 H   0  0  0  0  0  0  0  0  0  0  0  0
  145.1305  136.6618  156.1541 H   0  0  0  0  0  0  0  0  0  0  0  0
  145.4650  135.2544  155.1527 H   0  0  0  0  0  0  0  0  0  0  0  0
  144.2052  136.3925  154.6798 H   0  0  0  0  0  0  0  0  0  0  0  0
  147.1920  136.9861  154.8390 H   0  0  0  0  0  0  0  0  0  0  0  0
  145.4406  138.8463  153.3412 H   0  0  0  0  0  0  0  0  0  0  0  0
  145.0979  138.8274  155.0463 H   0  0  0  0  0  0  0  0  0  0  0  0
  146.6347  140.7764  152.8812 H   0  0  0  0  0  0  0  0  0  0  0  0
  145.8855  141.3130  154.3659 H   0  0  0  0  0  0  0  0  0  0  0  0
  147.8168  142.7649  153.7562 H   0  0  0  0  0  0  0  0  0  0  0  0
  148.0810  141.9826  155.3046 H   0  0  0  0  0  0  0  0  0  0  0  0
  150.3505  139.5333  153.8327 H   0  0  0  0  0  0  0  0  0  0  0  0
  149.6248  140.0276  155.3516 H   0  0  0  0  0  0  0  0  0  0  0  0
  148.4536  138.0227  154.4698 H   0  0  0  0  0  0  0  0  0  0  0  0
  148.1605  138.8191  152.9391 H   0  0  0  0  0  0  0  0  0  0  0  0
  147.2291  136.4820  152.5811 H   0  0  0  0  0  0  0  0  0  0  0  0
  145.0604  136.0361  150.1090 H   0  0  0  0  0  0  0  0  0  0  0  0
  146.6586  135.6328  150.6679 H   0  0  0  0  0  0  0  0  0  0  0  0
  144.0208  130.4804  150.7395 H   0  0  0  0  0  0  0  0  0  0  0  0
  145.7289  131.0979  152.3691 H   0  0  0  0  0  0  0  0  0  0  0  0
  1  2  1  0  0  0  0
  1 23  1  0  0  0  0
  1 24  1  0  0  0  0
  1 25  1  0  0  0  0
  2  3  1  0  0  0  0
  2 10  1  0  0  0  0
  2 26  1  0  0  0  0
  3  4  1  0  0  0  0
  3 27  1  0  0  0  0
  3 28  1  0  0  0  0
  4  9  1  0  0  0  0
  4  5  1  0  0  0  0
  5  6  1  0  0  0  0
  5 29  1  0  0  0  0
  5 30  1  0  0  0  0
  6  7  1  0  0  0  0
  6 31  1  0  0  0  0
  6 32  1  0  0  0  0
  7  8  1  0  0  0  0
  8  9  1  0  0  0  0
  8 33  1  0  0  0  0
  8 34  1  0  0  0  0
  9 35  1  0  0  0  0
  9 36  1  0  0  0  0
 10 11  1  0  0  0  0
 10 37  1  0  0  0  0
 11 12  2  0  0  0  0
 11 13  1  0  0  0  0
 13 38  1  0  0  0  0
 13 39  1  0  0  0  0
 13 14  1  0  0  0  0
 14 15  1  0  0  0  0
 14 20  1  0  0  0  0
 15 16  2  0  0  0  0
 16 17  1  0  0  0  0
 16 18  1  0  0  0  0
 17 22  1  0  0  0  0
 18 40  1  0  0  0  0
 18 19  2  0  0  0  0
 19 41  1  0  0  0  0
 19 20  1  0  0  0  0
 20 21  2  0  0  0  0
M  END
> <s_m_source_file>
AV-unprocessed.smi

> <i_m_source_file_index>
1199

> <i_lp_mmshare_version>
43012

> <i_f3d_flags>
0

> <s_epik_input>
W0NIMl0xW0NIMl1PW0NIMl1bQ0gyXU4xW0NIMl1bQ0BASF0oW0NIM10pW05IXUMoPU8pW0NIMl1uMltuSF1jKD1PKVtjSF1bY0hdYzI9Tw==

> <s_epik_cmdline>
J2VwaWtfcHl0aG9uJywgJy1waCcsICc3LjAnLCAnLXRuJywgJzgnLCAnLW1hJywgJzIwMCcsICctbWV0YWxfYmluZGluZycsICctaW1hZScsICc8aW5maWxlLm1hZT4nLCAnLW9tYWUnLCAnPG91dGZpbGUubWFlPic=

> <r_epik_Ionization_Penalty>
2.36432

> <r_epik_Ionization_Penalty_Charging>
3.67277e-08

> <r_epik_Ionization_Penalty_Neutral>
2.36432

> <r_epik_State_Penalty>
1.96081

> <r_epik_Charging_Adjusted_Penalty>
1.96081

> <i_epik_Tot_Q>
0

> <i_epik_Tot_abs_Q>
0

> <r_epik_Metal_State_Penalty>
1.96081

> <b_epik_Metal_Only>
0

> <s_lp_Force_Field>
OPLS_2005

> <r_lp_Energy>
35.6953

> <b_lp_Chiralities_Consistent>
1

> <s_lp_Variant>
AV-unprocessed.smi:1199-5

> <Gold.Version>
5.8.1

> <Gold.Id.Protein>
6NUR|6NUR_protein|mol2

> <Gold.PLP.Fitness>
43.0719

> <Gold.PLP.PLP>
-34.4697

> <Gold.PLP.part.hbond>
-5.9028

> <Gold.PLP.part.metal>
0.0000

> <Gold.PLP.part.buried>
-8.1084

> <Gold.PLP.part.nonpolar>
-24.7509

> <Gold.PLP.part.repulsive>
2.4873

> <Gold.PLP.ligand.clash>
0.0000

> <Gold.PLP.ligand.torsion>
1.2931

> <Gold.PLP.Chemscore.Hbond>
3.7158

> <Gold.PLP.Chemscore.CHOScore>
0.0000

> <Gold.PLP.Chemscore.Metal>
0.0000

> <Gold.Chemscore.Hbonds>
donor molecule, donor type, donor heavy atom, donor atom, acceptor molecule, acceptor atom, score
      L1  H    10    37       P1  7948  1.00
      L1  H    17    22       P1 10186  0.96
      P1  H  8011  8017       L1     7  0.91
      P1  H 10785 10796       L1    17  0.84

> <Gold.PLP.Chemscore.Internal.Correction>
0.0412

> <Gold.Rescore>
     Score         DG    S(hbond)    S(metal)    S(lipo)     H(rot)  DE(clash)    DE(int)     intcor
     11.33     -14.71       3.25        0.00      50.40       2.94       0.58       2.80       ----

> <Gold.Chemscore.Fitness>
11.3345

> <Gold.Chemscore.DG>
-14.7111

> <Gold.Chemscore.ZeroCoef>
-5.4800

> <Gold.Chemscore.Hbond>
3.2544

> <Gold.Chemscore.Metal>
0.0000

> <Gold.Chemscore.Lipo>
50.4035

> <Gold.Chemscore.Internal_Hbond>
0.0000

> <Gold.Chemscore.DEClash>
0.5815

> <Gold.Chemscore.DEInternal>
2.7950

> <Gold.Chemscore.Rot>
2.9437

> <Gold.Chemscore.Internal.Correction>
   9.000000E+99

> <Gold.Chemscore.Hbonds>
donor molecule, donor type, donor heavy atom, donor atom, acceptor molecule, acceptor atom, score
      L1  H    10    37       P1  7948  1.00
      L1  H    17    22       P1 10186  0.90
      P1  H  8011  8017       L1     7  0.48
      P1  H 10785 10796       L1    17  0.28

> <Gold.Chemscore.Hbond.Weighted>
-10.8698

> <Gold.Chemscore.Metal.Weighted>
-0.0000

> <Gold.Chemscore.Lipo.Weighted>
-5.8972

> <Gold.Chemscore.Internal_Hbond.Weighted>
0.0000

> <Gold.Chemscore.DEClash.Weighted>
0.5815

> <Gold.Chemscore.DEInternal.Weighted>
2.7950

> <Gold.Chemscore.Rot.Weighted>
7.5359

> <Gold.Chemscore.Internal.Correction.Weighted>
   9.000000E+99

> <Gold.Protein.RotatedTorsions>
[ 6907 6896 6895 6894 ] final -155.06 input  -60.11 | X-H torsion
[ 7974 7965 7964 7962 ] final -145.93 input  175.53 | X-H torsion
[ 8008 7997 7996 7995 ] final  131.86 input   59.86 | X-H torsion
[ 10167 10162 10161 10158 ] final   94.87 input  -65.29 | X-H torsion
[ 10718 10713 10712 10709 ] final  -60.59 input   66.30 | X-H torsion
[ 10763 10752 10751 10750 ] final   97.27 input  -60.55 | X-H torsion
[ 11005 11000 10999 10996 ] final  122.20 input  -57.11 | X-H torsion

> <Gold.Protein.ActiveResidues>
 VAL166  LYS551  ARG553  GLY616  TRP617  ASP618  TYR619  PRO620  LYS621  CYS622 
 ASP623  PHE694  ASN695  SER759  ASP760  ASP761  ALA762  ILE779  LEU786  VAL792 
 PHE793  MET794  SER795  GLU796  ALA797  LYS798  CYS799  TRP800  GLU811  SER814 

> <Gold.Protein.RotatedAtoms>
  151.2669  133.4274  159.2618 H   0  0  0  0  0  0  0  0  0  0  0  0  # atno 6907 bound_to 6896
  151.0480  134.9653  159.8207 H   0  0  0  0  0  0  0  0  0  0  0  0  # atno 6908 bound_to 6896
  152.5377  134.2624  159.8993 H   0  0  0  0  0  0  0  0  0  0  0  0  # atno 6909 bound_to 6896
  144.8193  140.5520  143.5589 H   0  0  0  0  0  0  0  0  0  0  0  0  # atno 7974 bound_to 7965
  156.2975  140.2561  156.2995 H   0  0  0  0  0  0  0  0  0  0  0  0  # atno 8008 bound_to 7997
  154.9432  140.0396  157.2126 H   0  0  0  0  0  0  0  0  0  0  0  0  # atno 8009 bound_to 7997
  154.8107  140.2844  155.5860 H   0  0  0  0  0  0  0  0  0  0  0  0  # atno 8010 bound_to 7997
  139.8042  144.6801  150.9725 H   0  0  0  0  0  0  0  0  0  0  0  0  # atno 10167 bound_to 10162
  156.0980  130.4190  150.0875 H   0  0  0  0  0  0  0  0  0  0  0  0  # atno 10718 bound_to 10713
  153.2749  135.4189  155.1023 H   0  0  0  0  0  0  0  0  0  0  0  0  # atno 10763 bound_to 10752
  154.8469  135.3481  154.6193 H   0  0  0  0  0  0  0  0  0  0  0  0  # atno 10764 bound_to 10752
  153.6613  135.7048  153.5234 H   0  0  0  0  0  0  0  0  0  0  0  0  # atno 10765 bound_to 10752
  139.9258  134.9640  156.8072 H   0  0  0  0  0  0  0  0  0  0  0  0  # atno 11005 bound_to 11000
  145.5141  139.1478  143.3588 LP  0  0  0  0  0  0  0  0  0  0  0  0  # atno 17320 bound_to 7965
  146.2498  140.5281  142.8898 LP  0  0  0  0  0  0  0  0  0  0  0  0  # atno 17321 bound_to 7965
  140.7819  143.4250  151.0782 LP  0  0  0  0  0  0  0  0  0  0  0  0  # atno 17342 bound_to 10162
  139.7921  143.8204  152.3153 LP  0  0  0  0  0  0  0  0  0  0  0  0  # atno 17343 bound_to 10162
  156.8870  130.9575  151.3593 LP  0  0  0  0  0  0  0  0  0  0  0  0  # atno 17370 bound_to 10713
  157.6145  130.8608  149.9005 LP  0  0  0  0  0  0  0  0  0  0  0  0  # atno 17371 bound_to 10713
  140.6341  133.9878  155.7676 LP  0  0  0  0  0  0  0  0  0  0  0  0  # atno 17394 bound_to 11000
  141.0814  134.0057  157.3380 LP  0  0  0  0  0  0  0  0  0  0  0  0  # atno 17395 bound_to 11000

$$$$
