AV-unprocessed.smi:1801|AV-procd|sdf|7268|dock5
  -GOLD-   22720 8523D 1   1.00000     0.00000
 Structure written by MMmdl.
 38 39  0  0  0  0  0  0  0  0  2 V2000
  145.8714  136.3315  150.4652 C   0  0  0  0  0  0  0  0  0  0  0  0
  145.2739  135.7251  151.7468 C   0  0  1  0  0  0  0  0  0  0  0  0
  145.4430  136.6772  152.9542 C   0  0  0  0  0  0  0  0  0  0  0  0
  146.8292  137.0901  153.1474 N   0  0  0  0  0  0  0  0  0  0  0  0
  147.2107  138.1931  153.8078 C   0  0  0  0  0  0  0  0  0  0  0  0
  146.4154  138.9814  154.3202 O   0  0  0  0  0  0  0  0  0  0  0  0
  148.5481  138.3094  153.8324 N   0  0  0  0  0  0  0  0  0  0  0  0
  149.3233  139.3263  154.4442 C   0  0  0  0  0  0  0  0  0  0  0  0
  150.6544  139.1883  154.4423 N   0  0  0  0  0  0  0  0  0  0  0  0
  151.2889  140.2511  155.0738 N   0  0  0  0  0  0  0  0  0  0  0  0
  150.4102  141.1498  155.5280 C   0  0  0  0  0  0  0  0  0  0  0  0
  148.7191  140.7880  155.2304 S   0  0  0  0  0  0  0  0  0  0  0  0
  143.7937  135.3489  151.5221 C   0  0  0  0  0  0  0  0  0  0  0  0
  143.6325  134.0290  150.8649 N   0  3  0  0  0  0  0  0  0  0  0  0
  144.3566  133.8955  149.5860 C   0  0  0  0  0  0  0  0  0  0  0  0
  144.4882  132.3919  149.3699 C   0  0  0  0  0  0  0  0  0  0  0  0
  144.7172  131.8619  150.7827 C   0  0  0  0  0  0  0  0  0  0  0  0
  143.9839  132.8529  151.6975 C   0  0  0  0  0  0  0  0  0  0  0  0
  145.3697  137.2615  150.1956 H   0  0  0  0  0  0  0  0  0  0  0  0
  145.7730  135.6452  149.6238 H   0  0  0  0  0  0  0  0  0  0  0  0
  146.9337  136.5479  150.5803 H   0  0  0  0  0  0  0  0  0  0  0  0
  145.8279  134.8077  151.9478 H   0  0  0  0  0  0  0  0  0  0  0  0
  144.8354  137.5716  152.8136 H   0  0  0  0  0  0  0  0  0  0  0  0
  145.0851  136.2105  153.8732 H   0  0  0  0  0  0  0  0  0  0  0  0
  147.5443  136.4950  152.7545 H   0  0  0  0  0  0  0  0  0  0  0  0
  149.0748  137.5860  153.3651 H   0  0  0  0  0  0  0  0  0  0  0  0
  150.7607  142.0319  156.0431 H   0  0  0  0  0  0  0  0  0  0  0  0
  143.2771  135.3314  152.4830 H   0  0  0  0  0  0  0  0  0  0  0  0
  143.2951  136.1075  150.9165 H   0  0  0  0  0  0  0  0  0  0  0  0
  143.8309  134.3935  148.7705 H   0  0  0  0  0  0  0  0  0  0  0  0
  145.3486  134.3423  149.6742 H   0  0  0  0  0  0  0  0  0  0  0  0
  143.5558  131.9918  148.9691 H   0  0  0  0  0  0  0  0  0  0  0  0
  145.2923  132.1298  148.6815 H   0  0  0  0  0  0  0  0  0  0  0  0
  144.3656  130.8371  150.9058 H   0  0  0  0  0  0  0  0  0  0  0  0
  145.7841  131.8749  151.0100 H   0  0  0  0  0  0  0  0  0  0  0  0
  144.6194  133.1265  152.5411 H   0  0  0  0  0  0  0  0  0  0  0  0
  143.0681  132.4187  152.1004 H   0  0  0  0  0  0  0  0  0  0  0  0
  142.6537  133.9269  150.6371 H   0  0  0  0  0  0  0  0  0  0  0  0
  1  2  1  0  0  0  0
  1 19  1  0  0  0  0
  1 20  1  0  0  0  0
  1 21  1  0  0  0  0
  2  3  1  0  0  0  0
  2 13  1  0  0  0  0
  2 22  1  0  0  0  0
  3  4  1  0  0  0  0
  3 23  1  0  0  0  0
  3 24  1  0  0  0  0
  4  5  1  0  0  0  0
  4 25  1  0  0  0  0
  5  6  2  0  0  0  0
  5  7  1  0  0  0  0
  7  8  1  0  0  0  0
  7 26  1  0  0  0  0
  8 12  1  0  0  0  0
  8  9  2  0  0  0  0
  9 10  1  0  0  0  0
 10 11  2  0  0  0  0
 11 12  1  0  0  0  0
 11 27  1  0  0  0  0
 13 14  1  0  0  0  0
 13 28  1  0  0  0  0
 13 29  1  0  0  0  0
 14 18  1  0  0  0  0
 14 15  1  0  0  0  0
 14 38  1  0  0  0  0
 15 16  1  0  0  0  0
 15 30  1  0  0  0  0
 15 31  1  0  0  0  0
 16 17  1  0  0  0  0
 16 32  1  0  0  0  0
 16 33  1  0  0  0  0
 17 18  1  0  0  0  0
 17 34  1  0  0  0  0
 17 35  1  0  0  0  0
 18 36  1  0  0  0  0
 18 37  1  0  0  0  0
M  CHG  1  14   1
M  END
> <s_m_source_file>
AV-unprocessed.smi

> <i_m_source_file_index>
1801

> <i_lp_mmshare_version>
43012

> <i_f3d_flags>
0

> <s_epik_input>
W0NIMl0xW0NIMl1bQ0gyXVtDSDJdTjFbQ0gyXVtDQEhdKFtDSDNdKVtDSDJdW05IXUMoPU8pW05IXWMybm5bY0hdczI=

> <s_epik_cmdline>
J2VwaWtfcHl0aG9uJywgJy1waCcsICc3LjAnLCAnLXRuJywgJzgnLCAnLW1hJywgJzIwMCcsICctbWV0YWxfYmluZGluZycsICctaW1hZScsICc8aW5maWxlLm1hZT4nLCAnLW9tYWUnLCAnPG91dGZpbGUubWFlPic=

> <r_lp_tautomer_probability>
1

> <r_epik_Ionization_Penalty>
0.00281598

> <r_epik_Ionization_Penalty_Charging>
0.000371708

> <r_epik_Ionization_Penalty_Neutral>
0.00244427

> <r_epik_State_Penalty>
-0

> <r_epik_Charging_Adjusted_Penalty>
0.000371708

> <i_epik_Tot_Q>
1

> <i_epik_Tot_abs_Q>
1

> <r_epik_Metal_State_Penalty>
0.350595

> <b_epik_Metal_Only>
0

> <s_lp_Force_Field>
OPLS_2005

> <r_lp_Energy>
27.8609

> <b_lp_Chiralities_Consistent>
1

> <s_lp_Variant>
AV-unprocessed.smi:1801-2

> <Gold.Version>
5.8.1

> <Gold.Id.Protein>
6NUR|6NUR_protein|mol2

> <Gold.PLP.Fitness>
40.9756

> <Gold.PLP.PLP>
-29.0744

> <Gold.PLP.part.hbond>
-4.4269

> <Gold.PLP.part.metal>
0.0000

> <Gold.PLP.part.buried>
-1.8862

> <Gold.PLP.part.nonpolar>
-22.8813

> <Gold.PLP.part.repulsive>
0.3203

> <Gold.PLP.ligand.clash>
0.0000

> <Gold.PLP.ligand.torsion>
0.4839

> <Gold.PLP.Chemscore.Hbond>
4.2640

> <Gold.PLP.Chemscore.CHOScore>
0.0000

> <Gold.PLP.Chemscore.Metal>
0.0000

> <Gold.Chemscore.Hbonds>
donor molecule, donor type, donor heavy atom, donor atom, acceptor molecule, acceptor atom, score
      L1  H     4    25       P1  7948  1.00
      L1  H     7    26       P1  7948  0.86
      L1  H    14    38       P1 10186  2.00
      P1  H  7989  7998       L1    10  0.40

> <Gold.PLP.Chemscore.Internal.Correction>
0.0769

> <Gold.Rescore>
     Score         DG    S(hbond)    S(metal)    S(lipo)     H(rot)  DE(clash)    DE(int)     intcor
     15.93     -17.67       2.77        0.00      68.30       1.97       0.41       1.33       ----

> <Gold.Chemscore.Fitness>
15.9311

> <Gold.Chemscore.DG>
-17.6716

> <Gold.Chemscore.ZeroCoef>
-5.4800

> <Gold.Chemscore.Hbond>
2.7650

> <Gold.Chemscore.Metal>
0.0000

> <Gold.Chemscore.Lipo>
68.3009

> <Gold.Chemscore.Internal_Hbond>
0.0000

> <Gold.Chemscore.DEClash>
0.4113

> <Gold.Chemscore.DEInternal>
1.3291

> <Gold.Chemscore.Rot>
1.9667

> <Gold.Chemscore.Internal.Correction>
   9.000000E+99

> <Gold.Chemscore.Hbonds>
donor molecule, donor type, donor heavy atom, donor atom, acceptor molecule, acceptor atom, score
      L1  H     4    25       P1  7948  0.97
      L1  H     7    26       P1  7948  0.81
      L1  H    14    38       P1 10186  0.77

> <Gold.Chemscore.Hbond.Weighted>
-9.2352

> <Gold.Chemscore.Metal.Weighted>
-0.0000

> <Gold.Chemscore.Lipo.Weighted>
-7.9912

> <Gold.Chemscore.Internal_Hbond.Weighted>
0.0000

> <Gold.Chemscore.DEClash.Weighted>
0.4113

> <Gold.Chemscore.DEInternal.Weighted>
1.3291

> <Gold.Chemscore.Rot.Weighted>
5.0348

> <Gold.Chemscore.Internal.Correction.Weighted>
   9.000000E+99

> <Gold.Protein.RotatedTorsions>
[ 6907 6896 6895 6894 ] final  158.45 input  -60.11 | X-H torsion
[ 7974 7965 7964 7962 ] final  -67.65 input  175.53 | X-H torsion
[ 8008 7997 7996 7995 ] final -131.04 input   59.86 | X-H torsion
[ 10167 10162 10161 10158 ] final   98.52 input  -65.29 | X-H torsion
[ 10718 10713 10712 10709 ] final   77.20 input   66.30 | X-H torsion
[ 10763 10752 10751 10750 ] final  -97.99 input  -60.55 | X-H torsion
[ 11005 11000 10999 10996 ] final  100.65 input  -57.11 | X-H torsion

> <Gold.Protein.ActiveResidues>
 VAL166  LYS551  ARG553  GLY616  TRP617  ASP618  TYR619  PRO620  LYS621  CYS622 
 ASP623  PHE694  ASN695  SER759  ASP760  ASP761  ALA762  ILE779  LEU786  VAL792 
 PHE793  MET794  SER795  GLU796  ALA797  LYS798  CYS799  TRP800  GLU811  SER814 

> <Gold.Protein.RotatedAtoms>
  152.0002  133.3822  159.4178 H   0  0  0  0  0  0  0  0  0  0  0  0  # atno 6907 bound_to 6896
  150.6911  134.3842  159.5057 H   0  0  0  0  0  0  0  0  0  0  0  0  # atno 6908 bound_to 6896
  152.1588  134.8928  160.0593 H   0  0  0  0  0  0  0  0  0  0  0  0  # atno 6909 bound_to 6896
  145.7264  140.9016  143.0603 H   0  0  0  0  0  0  0  0  0  0  0  0  # atno 7974 bound_to 7965
  155.3058  140.0455  157.3032 H   0  0  0  0  0  0  0  0  0  0  0  0  # atno 8008 bound_to 7997
  154.5461  140.2303  155.8528 H   0  0  0  0  0  0  0  0  0  0  0  0  # atno 8009 bound_to 7997
  156.1925  140.3047  155.9367 H   0  0  0  0  0  0  0  0  0  0  0  0  # atno 8010 bound_to 7997
  139.7701  144.6925  151.0168 H   0  0  0  0  0  0  0  0  0  0  0  0  # atno 10167 bound_to 10162
  157.6702  130.9810  150.1607 H   0  0  0  0  0  0  0  0  0  0  0  0  # atno 10718 bound_to 10713
  154.7376  135.5026  153.9068 H   0  0  0  0  0  0  0  0  0  0  0  0  # atno 10763 bound_to 10752
  153.1010  135.6685  153.9680 H   0  0  0  0  0  0  0  0  0  0  0  0  # atno 10764 bound_to 10752
  153.9466  135.3062  155.3419 H   0  0  0  0  0  0  0  0  0  0  0  0  # atno 10765 bound_to 10752
  139.8771  134.9149  156.4788 H   0  0  0  0  0  0  0  0  0  0  0  0  # atno 11005 bound_to 11000
  144.6903  139.9272  143.7470 LP  0  0  0  0  0  0  0  0  0  0  0  0  # atno 17320 bound_to 7965
  146.0578  139.3573  143.0600 LP  0  0  0  0  0  0  0  0  0  0  0  0  # atno 17321 bound_to 7965
  140.7813  143.4598  151.0293 LP  0  0  0  0  0  0  0  0  0  0  0  0  # atno 17342 bound_to 10162
  139.8282  143.7727  152.3179 LP  0  0  0  0  0  0  0  0  0  0  0  0  # atno 17343 bound_to 10162
  156.2384  130.3688  149.8365 LP  0  0  0  0  0  0  0  0  0  0  0  0  # atno 17370 bound_to 10713
  156.6172  130.8611  151.3467 LP  0  0  0  0  0  0  0  0  0  0  0  0  # atno 17371 bound_to 10713
  140.8742  133.7965  155.9397 LP  0  0  0  0  0  0  0  0  0  0  0  0  # atno 17394 bound_to 11000
  140.8921  134.2483  157.5089 LP  0  0  0  0  0  0  0  0  0  0  0  0  # atno 17395 bound_to 11000

$$$$
