AV-unprocessed.smi:481|AV-procd|sdf|2681|dock5
  -GOLD-   2262023103D 1   1.00000     0.00000
 Structure written by MMmdl.
 43 45  0  0  0  0  0  0  0  0  1 V2000
  146.4448  133.6853  154.8669 C   0  0  0  0  0  0  0  0  0  0  0  0
  147.3945  133.7039  155.9211 O   0  0  0  0  0  0  0  0  0  0  0  0
  148.0194  134.9649  156.1158 C   0  0  0  0  0  0  0  0  0  0  0  0
  148.8942  134.9806  157.3806 C   0  0  0  0  0  0  0  0  0  0  0  0
  149.3526  136.3294  157.6937 N   0  0  0  0  0  0  0  0  0  0  0  0
  149.0471  137.0794  158.7829 C   0  0  0  0  0  0  0  0  0  0  0  0
  148.1930  136.5541  159.7628 N   0  0  0  0  0  0  0  0  0  0  0  0
  147.8472  137.2300  160.8594 N   0  0  0  0  0  0  0  0  0  0  0  0
  147.1031  136.7094  161.7815 C   0  0  0  0  0  0  0  0  0  0  0  0
  146.6286  135.3115  161.8736 C   0  0  0  0  0  0  0  0  0  0  0  0
  147.4636  134.2021  161.5984 C   0  0  0  0  0  0  0  0  0  0  0  0
  146.9639  132.8894  161.6990 C   0  0  0  0  0  0  0  0  0  0  0  0
  145.6291  132.6710  162.0879 C   0  0  0  0  0  0  0  0  0  0  0  0
  144.7967  133.7672  162.3824 C   0  0  0  0  0  0  0  0  0  0  0  0
  145.2965  135.0802  162.2804 C   0  0  0  0  0  0  0  0  0  0  0  0
  149.6197  138.2899  158.7984 N   0  0  0  0  0  0  0  0  0  0  0  0
  150.3478  138.3091  157.6184 C   0  0  0  0  0  0  0  0  0  0  0  0
  150.2055  137.1395  156.9453 C   0  0  0  0  0  0  0  0  0  0  0  0
  150.8768  136.8777  155.6664 C   0  0  0  0  0  0  0  0  0  0  0  0
  150.7714  135.8194  155.0503 O   0  0  0  0  0  0  0  0  0  0  0  0
  151.6272  137.9221  155.2379 N   0  0  0  0  0  0  0  0  0  0  0  0
  151.8094  139.1263  155.8617 C   0  0  0  0  0  0  0  0  0  0  0  0
  152.5260  139.9841  155.3460 O   0  0  0  0  0  0  0  0  0  0  0  0
  151.1721  139.3268  157.0598 N   0  0  0  0  0  0  0  0  0  0  0  0
  151.3350  140.5952  157.7728 C   0  0  0  0  0  0  0  0  0  0  0  0
  152.1090  137.7964  154.3597 H   0  0  0  0  0  0  0  0  0  0  0  0
  145.9753  132.7028  154.8206 H   0  0  0  0  0  0  0  0  0  0  0  0
  146.9076  133.8752  153.8988 H   0  0  0  0  0  0  0  0  0  0  0  0
  145.6585  134.4232  155.0303 H   0  0  0  0  0  0  0  0  0  0  0  0
  148.5936  135.2539  155.2341 H   0  0  0  0  0  0  0  0  0  0  0  0
  147.2258  135.7051  156.2217 H   0  0  0  0  0  0  0  0  0  0  0  0
  148.3421  134.5855  158.2325 H   0  0  0  0  0  0  0  0  0  0  0  0
  149.7593  134.3285  157.2674 H   0  0  0  0  0  0  0  0  0  0  0  0
  148.1573  135.5452  159.7828 H   0  0  0  0  0  0  0  0  0  0  0  0
  146.7766  137.3755  162.5803 H   0  0  0  0  0  0  0  0  0  0  0  0
  148.4945  134.3465  161.3108 H   0  0  0  0  0  0  0  0  0  0  0  0
  147.6067  132.0494  161.4804 H   0  0  0  0  0  0  0  0  0  0  0  0
  145.2458  131.6643  162.1655 H   0  0  0  0  0  0  0  0  0  0  0  0
  143.7737  133.6015  162.6864 H   0  0  0  0  0  0  0  0  0  0  0  0
  144.6434  135.9109  162.5075 H   0  0  0  0  0  0  0  0  0  0  0  0
  152.3840  140.7613  158.0217 H   0  0  0  0  0  0  0  0  0  0  0  0
  150.7701  140.6289  158.7043 H   0  0  0  0  0  0  0  0  0  0  0  0
  150.9951  141.4279  157.1558 H   0  0  0  0  0  0  0  0  0  0  0  0
  1  2  1  0  0  0  0
  1 27  1  0  0  0  0
  1 28  1  0  0  0  0
  1 29  1  0  0  0  0
  2  3  1  0  0  0  0
  3  4  1  0  0  0  0
  3 30  1  0  0  0  0
  3 31  1  0  0  0  0
  4  5  1  0  0  0  0
  4 32  1  0  0  0  0
  4 33  1  0  0  0  0
  5 18  1  0  0  0  0
  5  6  1  0  0  0  0
  6  7  1  0  0  0  0
  6 16  2  0  0  0  0
  7  8  1  0  0  0  0
  7 34  1  0  0  0  0
  8  9  2  0  0  0  0
  9 10  1  0  0  0  0
  9 35  1  0  0  0  0
 10 15  1  0  0  0  0
 10 11  2  0  0  0  0
 11 12  1  0  0  0  0
 11 36  1  0  0  0  0
 12 13  2  0  0  0  0
 12 37  1  0  0  0  0
 13 14  1  0  0  0  0
 13 38  1  0  0  0  0
 14 15  2  0  0  0  0
 14 39  1  0  0  0  0
 15 40  1  0  0  0  0
 16 17  1  0  0  0  0
 17 24  1  0  0  0  0
 17 18  2  0  0  0  0
 18 19  1  0  0  0  0
 19 20  2  0  0  0  0
 19 21  1  0  0  0  0
 21 26  1  0  0  0  0
 21 22  1  0  0  0  0
 22 23  2  0  0  0  0
 22 24  1  0  0  0  0
 24 25  1  0  0  0  0
 25 41  1  0  0  0  0
 25 42  1  0  0  0  0
 25 43  1  0  0  0  0
M  END
> <s_m_source_file>
AV-unprocessed.smi

> <i_m_source_file_index>
481

> <i_lp_mmshare_version>
43012

> <i_f3d_flags>
0

> <s_epik_input>
W0NIM11uMWMoPU8pW25IXWMoPU8pYyhjMTIpbihbQ0gyXVtDSDJdT1tDSDNdKWMobjIpW05IXS9OPVtDSF0vYzNbY0hdW2NIXVtjSF1bY0hdW2NIXTM=

> <s_epik_cmdline>
J2VwaWtfcHl0aG9uJywgJy1waCcsICc3LjAnLCAnLXRuJywgJzgnLCAnLW1hJywgJzIwMCcsICctbWV0YWxfYmluZGluZycsICctaW1hZScsICc8aW5maWxlLm1hZT4nLCAnLW9tYWUnLCAnPG91dGZpbGUubWFlPic=

> <r_epik_Ionization_Penalty>
0.000595515

> <r_epik_Ionization_Penalty_Charging>
0.000305988

> <r_epik_Ionization_Penalty_Neutral>
0.000289528

> <r_epik_State_Penalty>
0.000184189

> <r_epik_Charging_Adjusted_Penalty>
0.000490177

> <i_epik_Tot_Q>
0

> <i_epik_Tot_abs_Q>
0

> <r_epik_Metal_State_Penalty>
0.173754

> <b_epik_Metal_Only>
0

> <s_epik_Chemistry_Notes>
This compound has an imine and may undergo hydrolysis.

> <s_lp_Force_Field>
OPLS_2005

> <r_lp_Energy>
46.456

> <b_lp_Chiralities_Consistent>
1

> <s_lp_Variant>
AV-unprocessed.smi:481-2

> <Gold.Version>
5.8.1

> <Gold.Id.Protein>
6NUR|6NUR_protein|mol2

> <Gold.PLP.Fitness>
45.9698

> <Gold.PLP.PLP>
-34.0524

> <Gold.PLP.part.hbond>
-5.1202

> <Gold.PLP.part.metal>
0.0000

> <Gold.PLP.part.buried>
-4.7499

> <Gold.PLP.part.nonpolar>
-24.2801

> <Gold.PLP.part.repulsive>
0.4448

> <Gold.PLP.ligand.clash>
0.0000

> <Gold.PLP.ligand.torsion>
0.3960

> <Gold.PLP.Chemscore.Hbond>
4.0517

> <Gold.PLP.Chemscore.CHOScore>
0.0000

> <Gold.PLP.Chemscore.Metal>
0.0000

> <Gold.Chemscore.Hbonds>
donor molecule, donor type, donor heavy atom, donor atom, acceptor molecule, acceptor atom, score
      P1  H  6931  6943       L1     8  0.85
      P1  H  6934  6947       L1     8  0.78
      P1  H  7989  7998       L1    23  0.33
      P1  H  7997  8008       L1    23  1.00
      P1  H 10752 10764       L1    20  0.46

> <Gold.PLP.Chemscore.Internal.Correction>
0.5544

> <Gold.Rescore>
     Score         DG    S(hbond)    S(metal)    S(lipo)     H(rot)  DE(clash)    DE(int)     intcor
     17.95     -19.65       3.11        0.00      66.13       1.54       1.23       0.47       ----

> <Gold.Chemscore.Fitness>
17.9500

> <Gold.Chemscore.DG>
-19.6514

> <Gold.Chemscore.ZeroCoef>
-5.4800

> <Gold.Chemscore.Hbond>
3.1074

> <Gold.Chemscore.Metal>
0.0000

> <Gold.Chemscore.Lipo>
66.1256

> <Gold.Chemscore.Internal_Hbond>
0.0000

> <Gold.Chemscore.DEClash>
1.2268

> <Gold.Chemscore.DEInternal>
0.4746

> <Gold.Chemscore.Rot>
1.5406

> <Gold.Chemscore.Internal.Correction>
   9.000000E+99

> <Gold.Chemscore.Hbonds>
donor molecule, donor type, donor heavy atom, donor atom, acceptor molecule, acceptor atom, score
      P1  H  6931  6943       L1     8  0.25
      P1  H  6934  6947       L1     8  0.17
      P1  H  7989  7998       L1    23  0.29
      P1  H  7997  8008       L1    23  0.89
      P1  H 10752 10764       L1    20  0.08

> <Gold.Chemscore.Hbond.Weighted>
-10.3787

> <Gold.Chemscore.Metal.Weighted>
-0.0000

> <Gold.Chemscore.Lipo.Weighted>
-7.7367

> <Gold.Chemscore.Internal_Hbond.Weighted>
0.0000

> <Gold.Chemscore.DEClash.Weighted>
1.2268

> <Gold.Chemscore.DEInternal.Weighted>
0.4746

> <Gold.Chemscore.Rot.Weighted>
3.9440

> <Gold.Chemscore.Internal.Correction.Weighted>
   9.000000E+99

> <Gold.Protein.RotatedTorsions>
[ 6907 6896 6895 6894 ] final  -50.23 input  -60.11 | X-H torsion
[ 7974 7965 7964 7962 ] final  -25.22 input  175.53 | X-H torsion
[ 8008 7997 7996 7995 ] final  -31.61 input   59.86 | X-H torsion
[ 10167 10162 10161 10158 ] final -147.80 input  -65.29 | X-H torsion
[ 10718 10713 10712 10709 ] final   21.48 input   66.30 | X-H torsion
[ 10763 10752 10751 10750 ] final  -61.61 input  -60.55 | X-H torsion
[ 11005 11000 10999 10996 ] final  125.92 input  -57.11 | X-H torsion

> <Gold.Protein.ActiveResidues>
 VAL166  LYS551  ARG553  GLY616  TRP617  ASP618  TYR619  PRO620  LYS621  CYS622 
 ASP623  PHE694  ASN695  SER759  ASP760  ASP761  ALA762  ILE779  LEU786  VAL792 
 PHE793  MET794  SER795  GLU796  ALA797  LYS798  CYS799  TRP800  GLU811  SER814 

> <Gold.Protein.RotatedAtoms>
  150.8728  134.8105  159.7166 H   0  0  0  0  0  0  0  0  0  0  0  0  # atno 6907 bound_to 6896
  152.4726  134.4920  159.9708 H   0  0  0  0  0  0  0  0  0  0  0  0  # atno 6908 bound_to 6896
  151.5006  133.3467  159.2904 H   0  0  0  0  0  0  0  0  0  0  0  0  # atno 6909 bound_to 6896
  146.1505  140.4858  142.8613 H   0  0  0  0  0  0  0  0  0  0  0  0  # atno 7974 bound_to 7965
  154.4208  140.1759  156.1594 H   0  0  0  0  0  0  0  0  0  0  0  0  # atno 8008 bound_to 7997
  155.9850  140.3374  155.6674 H   0  0  0  0  0  0  0  0  0  0  0  0  # atno 8009 bound_to 7997
  155.6449  140.0684  157.2597 H   0  0  0  0  0  0  0  0  0  0  0  0  # atno 8010 bound_to 7997
  139.7589  143.8406  152.2603 H   0  0  0  0  0  0  0  0  0  0  0  0  # atno 10167 bound_to 10162
  157.1391  130.6624  149.5975 H   0  0  0  0  0  0  0  0  0  0  0  0  # atno 10718 bound_to 10713
  154.2872  135.6260  153.5370 H   0  0  0  0  0  0  0  0  0  0  0  0  # atno 10763 bound_to 10752
  152.9857  135.5647  154.5430 H   0  0  0  0  0  0  0  0  0  0  0  0  # atno 10764 bound_to 10752
  154.5033  135.2873  155.1378 H   0  0  0  0  0  0  0  0  0  0  0  0  # atno 10765 bound_to 10752
  139.9430  134.9633  156.8630 H   0  0  0  0  0  0  0  0  0  0  0  0  # atno 11005 bound_to 11000
  144.7898  140.6009  143.6549 LP  0  0  0  0  0  0  0  0  0  0  0  0  # atno 17320 bound_to 7965
  145.4835  139.1493  143.3749 LP  0  0  0  0  0  0  0  0  0  0  0  0  # atno 17321 bound_to 7965
  139.8406  144.7211  150.9335 LP  0  0  0  0  0  0  0  0  0  0  0  0  # atno 17342 bound_to 10162
  140.7805  143.3986  151.1186 LP  0  0  0  0  0  0  0  0  0  0  0  0  # atno 17343 bound_to 10162
  155.9792  130.4784  150.6702 LP  0  0  0  0  0  0  0  0  0  0  0  0  # atno 17370 bound_to 10713
  157.4323  131.0851  151.1026 LP  0  0  0  0  0  0  0  0  0  0  0  0  # atno 17371 bound_to 10713
  140.5904  134.0267  155.7497 LP  0  0  0  0  0  0  0  0  0  0  0  0  # atno 17394 bound_to 11000
  141.1071  133.9676  157.2977 LP  0  0  0  0  0  0  0  0  0  0  0  0  # atno 17395 bound_to 11000

$$$$
