AV-unprocessed.smi:2148|AV-procd|sdf|8749|dock5
  -GOLD-   2272011523D 1   1.00000     0.00000
 Structure written by MMmdl.
 44 45  0  0  0  0  0  0  0  0  1 V2000
  154.3027  134.5324  164.6892 C   0  0  0  0  0  0  0  0  0  0  0  0
  155.6405  135.6108  164.1113 S   0  0  0  0  0  0  0  0  0  0  0  0
  155.6046  135.2680  162.3261 C   0  0  1  0  0  0  0  0  0  0  0  0
  155.1534  133.8222  162.0468 C   0  0  0  0  0  0  0  0  0  0  0  0
  154.7515  136.3058  161.5823 C   0  0  0  0  0  0  0  0  0  0  0  0
  153.8682  135.9426  160.8054 O   0  0  0  0  0  0  0  0  0  0  0  0
  155.0643  137.5915  161.8320 N   0  0  0  0  0  0  0  0  0  0  0  0
  154.4730  138.7735  161.3091 C   0  0  0  0  0  0  0  0  0  0  0  0
  154.8803  140.0879  161.6401 C   0  0  0  0  0  0  0  0  0  0  0  0
  154.2196  141.1768  161.0401 C   0  0  0  0  0  0  0  0  0  0  0  0
  153.1761  140.9188  160.1219 C   0  0  0  0  0  0  0  0  0  0  0  0
  152.4769  141.9572  159.4932 N   0  0  0  0  0  0  0  0  0  0  0  0
  151.5371  141.4922  158.4840 C   0  0  0  0  0  0  0  0  0  0  0  0
  150.6834  142.6693  157.9779 C   0  0  2  0  0  0  0  0  0  0  0  0
  149.7592  142.2531  156.8287 C   0  0  0  0  0  0  0  0  0  0  0  0
  151.5394  143.7101  157.5034 O   0  0  0  0  0  0  0  0  0  0  0  0
  152.4829  144.1977  158.4621 C   0  0  1  0  0  0  0  0  0  0  0  0
  151.8105  145.0355  159.5645 C   0  0  0  0  0  0  0  0  0  0  0  0
  153.3319  143.0321  159.0070 C   0  0  0  0  0  0  0  0  0  0  0  0
  152.7952  139.6671  159.7890 N   0  0  0  0  0  0  0  0  0  0  0  0
  153.4333  138.6279  160.3676 C   0  0  0  0  0  0  0  0  0  0  0  0
  154.2121  134.5996  165.7732 H   0  0  0  0  0  0  0  0  0  0  0  0
  154.5075  133.4948  164.4251 H   0  0  0  0  0  0  0  0  0  0  0  0
  153.3504  134.8240  164.2472 H   0  0  0  0  0  0  0  0  0  0  0  0
  156.6240  135.3790  161.9537 H   0  0  0  0  0  0  0  0  0  0  0  0
  155.0888  133.6248  160.9760 H   0  0  0  0  0  0  0  0  0  0  0  0
  154.1752  133.6181  162.4843 H   0  0  0  0  0  0  0  0  0  0  0  0
  155.8567  133.1015  162.4628 H   0  0  0  0  0  0  0  0  0  0  0  0
  155.8590  137.7389  162.4370 H   0  0  0  0  0  0  0  0  0  0  0  0
  155.6888  140.2852  162.3262 H   0  0  0  0  0  0  0  0  0  0  0  0
  154.5162  142.1872  161.2800 H   0  0  0  0  0  0  0  0  0  0  0  0
  152.0835  141.0414  157.6542 H   0  0  0  0  0  0  0  0  0  0  0  0
  150.8956  140.7178  158.9068 H   0  0  0  0  0  0  0  0  0  0  0  0
  150.0626  143.0473  158.7905 H   0  0  0  0  0  0  0  0  0  0  0  0
  149.0721  141.4674  157.1436 H   0  0  0  0  0  0  0  0  0  0  0  0
  150.3300  141.8783  155.9787 H   0  0  0  0  0  0  0  0  0  0  0  0
  149.1624  143.0975  156.4834 H   0  0  0  0  0  0  0  0  0  0  0  0
  153.1498  144.8682  157.9191 H   0  0  0  0  0  0  0  0  0  0  0  0
  152.5595  145.4937  160.2108 H   0  0  0  0  0  0  0  0  0  0  0  0
  151.1589  144.4372  160.2007 H   0  0  0  0  0  0  0  0  0  0  0  0
  151.2125  145.8381  159.1328 H   0  0  0  0  0  0  0  0  0  0  0  0
  153.9888  143.3797  159.8056 H   0  0  0  0  0  0  0  0  0  0  0  0
  153.9727  142.6512  158.2107 H   0  0  0  0  0  0  0  0  0  0  0  0
  153.0968  137.6451  160.0708 H   0  0  0  0  0  0  0  0  0  0  0  0
  1  2  1  0  0  0  0
  1 22  1  0  0  0  0
  1 23  1  0  0  0  0
  1 24  1  0  0  0  0
  2  3  1  0  0  0  0
  3  4  1  0  0  0  0
  3  5  1  0  0  0  0
  3 25  1  0  0  0  0
  4 26  1  0  0  0  0
  4 27  1  0  0  0  0
  4 28  1  0  0  0  0
  5  6  2  0  0  0  0
  5  7  1  0  0  0  0
  7  8  1  0  0  0  0
  7 29  1  0  0  0  0
  8 21  1  0  0  0  0
  8  9  2  0  0  0  0
  9 10  1  0  0  0  0
  9 30  1  0  0  0  0
 10 11  2  0  0  0  0
 10 31  1  0  0  0  0
 11 12  1  0  0  0  0
 11 20  1  0  0  0  0
 12 19  1  0  0  0  0
 12 13  1  0  0  0  0
 13 14  1  0  0  0  0
 13 32  1  0  0  0  0
 13 33  1  0  0  0  0
 14 15  1  0  0  0  0
 14 16  1  0  0  0  0
 14 34  1  0  0  0  0
 15 35  1  0  0  0  0
 15 36  1  0  0  0  0
 15 37  1  0  0  0  0
 16 17  1  0  0  0  0
 17 18  1  0  0  0  0
 17 19  1  0  0  0  0
 17 38  1  0  0  0  0
 18 39  1  0  0  0  0
 18 40  1  0  0  0  0
 18 41  1  0  0  0  0
 19 42  1  0  0  0  0
 19 43  1  0  0  0  0
 20 21  2  0  0  0  0
 21 44  1  0  0  0  0
M  END
> <s_m_source_file>
AV-unprocessed.smi

> <i_m_source_file_index>
2148

> <i_lp_mmshare_version>
43012

> <i_f3d_flags>
0

> <s_epik_input>
W0NIM11TW0NASF0oW0NIM10pQyg9TylbTkhdYzFbY0hdW2NIXWMobltjSF0xKU4yW0NIMl1bQ0BASF0oW0NIM10pT1tDQEBIXShbQ0gzXSlbQ0gyXTI=

> <s_epik_cmdline>
J2VwaWtfcHl0aG9uJywgJy1waCcsICc3LjAnLCAnLXRuJywgJzgnLCAnLW1hJywgJzIwMCcsICctbWV0YWxfYmluZGluZycsICctaW1hZScsICc8aW5maWxlLm1hZT4nLCAnLW9tYWUnLCAnPG91dGZpbGUubWFlPic=

> <r_lp_tautomer_probability>
1

> <r_epik_Ionization_Penalty>
0.000646494

> <r_epik_Ionization_Penalty_Charging>
0

> <r_epik_Ionization_Penalty_Neutral>
0.000646494

> <r_epik_State_Penalty>
0.000408447

> <r_epik_Charging_Adjusted_Penalty>
0.000408447

> <i_epik_Tot_Q>
0

> <i_epik_Tot_abs_Q>
0

> <r_epik_Metal_State_Penalty>
-0

> <b_epik_Metal_Only>
0

> <s_lp_Force_Field>
OPLS_2005

> <r_lp_Energy>
27.0114

> <b_lp_Chiralities_Consistent>
1

> <s_lp_Variant>
AV-unprocessed.smi:2148-4

> <Gold.Version>
5.8.1

> <Gold.Id.Protein>
6NUR|6NUR_protein|mol2

> <Gold.PLP.Fitness>
39.3504

> <Gold.PLP.PLP>
-37.7428

> <Gold.PLP.part.hbond>
-1.0000

> <Gold.PLP.part.metal>
0.0000

> <Gold.PLP.part.buried>
-3.3492

> <Gold.PLP.part.nonpolar>
-34.0642

> <Gold.PLP.part.repulsive>
0.1090

> <Gold.PLP.ligand.clash>
0.0000

> <Gold.PLP.ligand.torsion>
0.7373

> <Gold.PLP.Chemscore.Hbond>
0.9750

> <Gold.PLP.Chemscore.CHOScore>
0.0000

> <Gold.PLP.Chemscore.Metal>
0.0000

> <Gold.Chemscore.Hbonds>
donor molecule, donor type, donor heavy atom, donor atom, acceptor molecule, acceptor atom, score
      P1  H  6896  6909       L1     6  0.98

> <Gold.PLP.Chemscore.Internal.Correction>
0.1572

> <Gold.Rescore>
     Score         DG    S(hbond)    S(metal)    S(lipo)     H(rot)  DE(clash)    DE(int)     intcor
     15.52     -17.82       1.00        0.00     104.60       1.27       0.41       1.89       ----

> <Gold.Chemscore.Fitness>
15.5214

> <Gold.Chemscore.DG>
-17.8176

> <Gold.Chemscore.ZeroCoef>
-5.4800

> <Gold.Chemscore.Hbond>
1.0000

> <Gold.Chemscore.Metal>
0.0000

> <Gold.Chemscore.Lipo>
104.5998

> <Gold.Chemscore.Internal_Hbond>
0.0000

> <Gold.Chemscore.DEClash>
0.4051

> <Gold.Chemscore.DEInternal>
1.8911

> <Gold.Chemscore.Rot>
1.2659

> <Gold.Chemscore.Internal.Correction>
   9.000000E+99

> <Gold.Chemscore.Hbonds>
donor molecule, donor type, donor heavy atom, donor atom, acceptor molecule, acceptor atom, score
      P1  H  6896  6909       L1     6  0.91

> <Gold.Chemscore.Hbond.Weighted>
-3.3400

> <Gold.Chemscore.Metal.Weighted>
-0.0000

> <Gold.Chemscore.Lipo.Weighted>
-12.2382

> <Gold.Chemscore.Internal_Hbond.Weighted>
0.0000

> <Gold.Chemscore.DEClash.Weighted>
0.4051

> <Gold.Chemscore.DEInternal.Weighted>
1.8911

> <Gold.Chemscore.Rot.Weighted>
3.2406

> <Gold.Chemscore.Internal.Correction.Weighted>
   9.000000E+99

> <Gold.Protein.RotatedTorsions>
[ 6907 6896 6895 6894 ] final  175.44 input  -60.11 | X-H torsion
[ 7974 7965 7964 7962 ] final   54.63 input  175.53 | X-H torsion
[ 8008 7997 7996 7995 ] final  157.05 input   59.86 | X-H torsion
[ 10167 10162 10161 10158 ] final  162.36 input  -65.29 | X-H torsion
[ 10718 10713 10712 10709 ] final  -11.22 input   66.30 | X-H torsion
[ 10763 10752 10751 10750 ] final  139.19 input  -60.55 | X-H torsion
[ 11005 11000 10999 10996 ] final   98.24 input  -57.11 | X-H torsion

> <Gold.Protein.ActiveResidues>
 VAL166  LYS551  ARG553  GLY616  TRP617  ASP618  TYR619  PRO620  LYS621  CYS622 
 ASP623  PHE694  ASN695  SER759  ASP760  ASP761  ALA762  ILE779  LEU786  VAL792 
 PHE793  MET794  SER795  GLU796  ALA797  LYS798  CYS799  TRP800  GLU811  SER814 

> <Gold.Protein.RotatedAtoms>
  151.7361  133.3320  159.3352 H   0  0  0  0  0  0  0  0  0  0  0  0  # atno 6907 bound_to 6896
  150.7592  134.6320  159.6200 H   0  0  0  0  0  0  0  0  0  0  0  0  # atno 6908 bound_to 6896
  152.3561  134.6941  160.0273 H   0  0  0  0  0  0  0  0  0  0  0  0  # atno 6909 bound_to 6896
  145.9588  139.4040  143.0260 H   0  0  0  0  0  0  0  0  0  0  0  0  # atno 7974 bound_to 7965
  156.2387  140.1896  156.7049 H   0  0  0  0  0  0  0  0  0  0  0  0  # atno 8008 bound_to 7997
  154.6155  140.0616  156.9575 H   0  0  0  0  0  0  0  0  0  0  0  0  # atno 8009 bound_to 7997
  155.1947  140.3287  155.4355 H   0  0  0  0  0  0  0  0  0  0  0  0  # atno 8010 bound_to 7997
  139.4860  144.4445  151.8910 H   0  0  0  0  0  0  0  0  0  0  0  0  # atno 10167 bound_to 10162
  156.6622  130.4985  149.6027 H   0  0  0  0  0  0  0  0  0  0  0  0  # atno 10718 bound_to 10713
  153.9020  135.3021  155.3448 H   0  0  0  0  0  0  0  0  0  0  0  0  # atno 10763 bound_to 10752
  154.7666  135.4907  153.9569 H   0  0  0  0  0  0  0  0  0  0  0  0  # atno 10764 bound_to 10752
  153.1240  135.6788  153.9389 H   0  0  0  0  0  0  0  0  0  0  0  0  # atno 10765 bound_to 10752
  139.8773  134.9039  156.4426 H   0  0  0  0  0  0  0  0  0  0  0  0  # atno 11005 bound_to 11000
  145.8068  140.9745  143.0969 LP  0  0  0  0  0  0  0  0  0  0  0  0  # atno 17320 bound_to 7965
  144.6811  139.9871  143.7484 LP  0  0  0  0  0  0  0  0  0  0  0  0  # atno 17321 bound_to 7965
  140.3898  144.2630  150.5900 LP  0  0  0  0  0  0  0  0  0  0  0  0  # atno 17342 bound_to 10162
  140.5156  143.2279  151.8468 LP  0  0  0  0  0  0  0  0  0  0  0  0  # atno 17343 bound_to 10162
  156.2002  130.6615  151.1159 LP  0  0  0  0  0  0  0  0  0  0  0  0  # atno 17370 bound_to 10713
  157.7106  131.0736  150.6515 LP  0  0  0  0  0  0  0  0  0  0  0  0  # atno 17371 bound_to 10713
  140.8988  133.7794  155.9656 LP  0  0  0  0  0  0  0  0  0  0  0  0  # atno 17394 bound_to 11000
  140.8673  134.2768  157.5207 LP  0  0  0  0  0  0  0  0  0  0  0  0  # atno 17395 bound_to 11000

$$$$
