AV-unprocessed.smi:3240|AV-procd|sdf|12381|dock1
  -GOLD-   2272018243D 1   1.00000     0.00000
 Structure written by MMmdl.
 44 45  0  0  0  0  0  0  0  0  2 V2000
  147.4446  141.9226  157.0918 C   0  0  0  0  0  0  0  0  0  0  0  0
  147.7461  141.4011  155.7165 C   0  0  0  0  0  0  0  0  0  0  0  0
  148.6481  141.9377  154.7541 C   0  0  0  0  0  0  0  0  0  0  0  0
  148.6794  141.2360  153.6329 N   0  0  0  0  0  0  0  0  0  0  0  0
  147.8074  140.2268  153.8405 N   0  0  0  0  0  0  0  0  0  0  0  0
  147.5697  139.2467  152.7945 C   0  0  0  0  0  0  0  0  0  0  0  0
  146.5086  138.1971  153.1838 C   0  0  2  0  0  0  0  0  0  0  0  0
  146.9920  137.3546  154.3760 C   0  0  0  0  0  0  0  0  0  0  0  0
  146.1892  137.3415  152.0179 N   0  3  0  0  0  0  0  0  0  0  0  0
  144.9638  136.5218  152.1453 C   0  0  0  0  0  0  0  0  0  0  0  0
  144.9818  135.2945  151.2073 C   0  0  0  0  0  0  0  0  0  0  0  0
  144.8001  135.7748  149.8867 O   0  0  0  0  0  0  0  0  0  0  0  0
  146.3188  134.5166  151.2937 C   0  0  0  0  0  0  0  0  0  0  0  0
  146.3082  133.2109  150.4782 C   0  0  0  0  0  0  0  0  0  0  0  0
  145.1305  132.3110  150.8768 C   0  0  0  0  0  0  0  0  0  0  0  0
  143.7977  133.0572  150.7287 C   0  0  0  0  0  0  0  0  0  0  0  0
  143.7943  134.3616  151.5457 C   0  0  0  0  0  0  0  0  0  0  0  0
  147.2227  140.3078  155.0865 C   0  0  0  0  0  0  0  0  0  0  0  0
  148.0144  142.8242  157.3180 H   0  0  0  0  0  0  0  0  0  0  0  0
  147.6855  141.1890  157.8613 H   0  0  0  0  0  0  0  0  0  0  0  0
  146.3896  142.1728  157.2049 H   0  0  0  0  0  0  0  0  0  0  0  0
  149.2760  142.8127  154.8365 H   0  0  0  0  0  0  0  0  0  0  0  0
  147.2692  139.7727  151.8871 H   0  0  0  0  0  0  0  0  0  0  0  0
  148.5197  138.7593  152.5712 H   0  0  0  0  0  0  0  0  0  0  0  0
  145.6007  138.7232  153.4828 H   0  0  0  0  0  0  0  0  0  0  0  0
  147.2528  137.9918  155.2216 H   0  0  0  0  0  0  0  0  0  0  0  0
  147.8759  136.7704  154.1177 H   0  0  0  0  0  0  0  0  0  0  0  0
  146.2244  136.6636  154.7237 H   0  0  0  0  0  0  0  0  0  0  0  0
  146.0484  137.9509  151.2242 H   0  0  0  0  0  0  0  0  0  0  0  0
  144.8577  136.1899  153.1781 H   0  0  0  0  0  0  0  0  0  0  0  0
  144.0959  137.1451  151.9233 H   0  0  0  0  0  0  0  0  0  0  0  0
  145.4837  135.4164  149.3403 H   0  0  0  0  0  0  0  0  0  0  0  0
  147.1488  135.1396  150.9581 H   0  0  0  0  0  0  0  0  0  0  0  0
  146.5259  134.2740  152.3370 H   0  0  0  0  0  0  0  0  0  0  0  0
  146.2493  133.4392  149.4133 H   0  0  0  0  0  0  0  0  0  0  0  0
  147.2472  132.6764  150.6246 H   0  0  0  0  0  0  0  0  0  0  0  0
  145.1237  131.4110  150.2611 H   0  0  0  0  0  0  0  0  0  0  0  0
  145.2538  131.9794  151.9086 H   0  0  0  0  0  0  0  0  0  0  0  0
  143.6151  133.2773  149.6762 H   0  0  0  0  0  0  0  0  0  0  0  0
  142.9775  132.4163  151.0536 H   0  0  0  0  0  0  0  0  0  0  0  0
  143.8317  134.1041  152.6053 H   0  0  0  0  0  0  0  0  0  0  0  0
  142.8480  134.8838  151.3976 H   0  0  0  0  0  0  0  0  0  0  0  0
  146.4904  139.5875  155.4209 H   0  0  0  0  0  0  0  0  0  0  0  0
  146.9753  136.7389  151.8224 H   0  0  0  0  0  0  0  0  0  0  0  0
  1  2  1  0  0  0  0
  1 19  1  0  0  0  0
  1 20  1  0  0  0  0
  1 21  1  0  0  0  0
  2 18  2  0  0  0  0
  2  3  1  0  0  0  0
  3  4  2  0  0  0  0
  3 22  1  0  0  0  0
  4  5  1  0  0  0  0
  5  6  1  0  0  0  0
  5 18  1  0  0  0  0
  6  7  1  0  0  0  0
  6 23  1  0  0  0  0
  6 24  1  0  0  0  0
  7  8  1  0  0  0  0
  7  9  1  0  0  0  0
  7 25  1  0  0  0  0
  8 26  1  0  0  0  0
  8 27  1  0  0  0  0
  8 28  1  0  0  0  0
  9 10  1  0  0  0  0
  9 29  1  0  0  0  0
  9 44  1  0  0  0  0
 10 11  1  0  0  0  0
 10 30  1  0  0  0  0
 10 31  1  0  0  0  0
 11 17  1  0  0  0  0
 11 12  1  0  0  0  0
 11 13  1  0  0  0  0
 12 32  1  0  0  0  0
 13 14  1  0  0  0  0
 13 33  1  0  0  0  0
 13 34  1  0  0  0  0
 14 15  1  0  0  0  0
 14 35  1  0  0  0  0
 14 36  1  0  0  0  0
 15 16  1  0  0  0  0
 15 37  1  0  0  0  0
 15 38  1  0  0  0  0
 16 17  1  0  0  0  0
 16 39  1  0  0  0  0
 16 40  1  0  0  0  0
 17 41  1  0  0  0  0
 17 42  1  0  0  0  0
 18 43  1  0  0  0  0
M  CHG  1   9   1
M  END
> <s_m_source_file>
AV-unprocessed.smi

> <i_m_source_file_index>
3240

> <i_lp_mmshare_version>
43012

> <i_f3d_flags>
0

> <s_epik_input>
W0NIM11jMVtjSF1ubihbY0hdMSlbQ0gyXVtDQEhdKFtDSDNdKVtOSF1bQ0gyXUMyKFtPSF0pW0NIMl1bQ0gyXVtDSDJdW0NIMl1bQ0gyXTI=

> <s_epik_cmdline>
J2VwaWtfcHl0aG9uJywgJy1waCcsICc3LjAnLCAnLXRuJywgJzgnLCAnLW1hJywgJzIwMCcsICctbWV0YWxfYmluZGluZycsICctaW1hZScsICc8aW5maWxlLm1hZT4nLCAnLW9tYWUnLCAnPG91dGZpbGUubWFlPic=

> <r_lp_tautomer_probability>
1

> <r_epik_Ionization_Penalty>
0.0111573

> <r_epik_Ionization_Penalty_Charging>
0.0111472

> <r_epik_Ionization_Penalty_Neutral>
1.01652e-05

> <r_epik_State_Penalty>
0.00856328

> <r_epik_Charging_Adjusted_Penalty>
0.0197104

> <i_epik_Tot_Q>
1

> <i_epik_Tot_abs_Q>
1

> <r_epik_Metal_State_Penalty>
0.00856448

> <b_epik_Metal_Only>
0

> <s_lp_Force_Field>
OPLS_2005

> <r_lp_Energy>
16.744

> <b_lp_Chiralities_Consistent>
1

> <s_lp_Variant>
AV-unprocessed.smi:3240-1

> <Gold.Version>
5.8.1

> <Gold.Id.Protein>
6NUR|6NUR_protein|mol2

> <Gold.PLP.Fitness>
42.6925

> <Gold.PLP.PLP>
-28.6868

> <Gold.PLP.part.hbond>
-4.0000

> <Gold.PLP.part.metal>
0.0000

> <Gold.PLP.part.buried>
0.5761

> <Gold.PLP.part.nonpolar>
-26.3386

> <Gold.PLP.part.repulsive>
1.9058

> <Gold.PLP.ligand.clash>
0.0000

> <Gold.PLP.ligand.torsion>
0.3145

> <Gold.PLP.Chemscore.Hbond>
3.8564

> <Gold.PLP.Chemscore.CHOScore>
1.0000

> <Gold.PLP.Chemscore.Metal>
0.0000

> <Gold.Chemscore.Hbonds>
donor molecule, donor type, donor heavy atom, donor atom, acceptor molecule, acceptor atom, score
      L1  H     9    44       P1  7948  2.00
      L1  H    12    32       P1  7921  1.00
      P1  H  8011  8017       L1     4  0.76
      L1  C     3    22       P1  8028  1.00

> <Gold.PLP.Chemscore.Internal.Correction>
0.0653

> <Gold.Rescore>
     Score         DG    S(hbond)    S(metal)    S(lipo)     H(rot)  DE(clash)    DE(int)     intcor
     13.74     -17.19       2.43        0.00      77.15       2.12       3.11       0.35       ----

> <Gold.Chemscore.Fitness>
13.7357

> <Gold.Chemscore.DG>
-17.1947

> <Gold.Chemscore.ZeroCoef>
-5.4800

> <Gold.Chemscore.Hbond>
2.4294

> <Gold.Chemscore.Metal>
0.0000

> <Gold.Chemscore.Lipo>
77.1453

> <Gold.Chemscore.Internal_Hbond>
0.0000

> <Gold.Chemscore.DEClash>
3.1112

> <Gold.Chemscore.DEInternal>
0.3479

> <Gold.Chemscore.Rot>
2.1193

> <Gold.Chemscore.Internal.Correction>
   9.000000E+99

> <Gold.Chemscore.Hbonds>
donor molecule, donor type, donor heavy atom, donor atom, acceptor molecule, acceptor atom, score
      L1  H     9    44       P1  7948  0.93
      L1  H    12    32       P1  7921  0.95
      P1  H  8011  8017       L1     4  0.33

> <Gold.Chemscore.Hbond.Weighted>
-8.1141

> <Gold.Chemscore.Metal.Weighted>
-0.0000

> <Gold.Chemscore.Lipo.Weighted>
-9.0260

> <Gold.Chemscore.Internal_Hbond.Weighted>
0.0000

> <Gold.Chemscore.DEClash.Weighted>
3.1112

> <Gold.Chemscore.DEInternal.Weighted>
0.3479

> <Gold.Chemscore.Rot.Weighted>
5.4254

> <Gold.Chemscore.Internal.Correction.Weighted>
   9.000000E+99

> <Gold.Protein.RotatedTorsions>
[ 6907 6896 6895 6894 ] final   43.98 input  -60.11 | X-H torsion
[ 7974 7965 7964 7962 ] final   78.11 input  175.53 | X-H torsion
[ 8008 7997 7996 7995 ] final   80.14 input   59.86 | X-H torsion
[ 10167 10162 10161 10158 ] final  142.06 input  -65.29 | X-H torsion
[ 10718 10713 10712 10709 ] final -178.98 input   66.30 | X-H torsion
[ 10763 10752 10751 10750 ] final  -93.01 input  -60.55 | X-H torsion
[ 11005 11000 10999 10996 ] final  -82.95 input  -57.11 | X-H torsion

> <Gold.Protein.ActiveResidues>
 VAL166  LYS551  ARG553  GLY616  TRP617  ASP618  TYR619  PRO620  LYS621  CYS622 
 ASP623  PHE694  ASN695  SER759  ASP760  ASP761  ALA762  ILE779  LEU786  VAL792 
 PHE793  MET794  SER795  GLU796  ALA797  LYS798  CYS799  TRP800  GLU811  SER814 

> <Gold.Protein.RotatedAtoms>
  152.2269  134.8359  160.0478 H   0  0  0  0  0  0  0  0  0  0  0  0  # atno 6907 bound_to 6896
  151.9122  133.3559  159.3876 H   0  0  0  0  0  0  0  0  0  0  0  0  # atno 6908 bound_to 6896
  150.7015  134.4646  159.5440 H   0  0  0  0  0  0  0  0  0  0  0  0  # atno 6909 bound_to 6896
  145.6813  139.2524  143.1812 H   0  0  0  0  0  0  0  0  0  0  0  0  # atno 7974 bound_to 7965
  155.8794  140.3445  155.5877 H   0  0  0  0  0  0  0  0  0  0  0  0  # atno 8008 bound_to 7997
  155.7737  140.0849  157.2114 H   0  0  0  0  0  0  0  0  0  0  0  0  # atno 8009 bound_to 7997
  154.4023  140.1513  156.2959 H   0  0  0  0  0  0  0  0  0  0  0  0  # atno 8010 bound_to 7997
  139.5004  144.6131  151.6226 H   0  0  0  0  0  0  0  0  0  0  0  0  # atno 10167 bound_to 10162
  156.8523  130.9723  151.3091 H   0  0  0  0  0  0  0  0  0  0  0  0  # atno 10718 bound_to 10713
  154.6917  135.5210  153.8402 H   0  0  0  0  0  0  0  0  0  0  0  0  # atno 10763 bound_to 10752
  153.0637  135.6577  154.0413 H   0  0  0  0  0  0  0  0  0  0  0  0  # atno 10764 bound_to 10752
  154.0286  135.2987  155.3351 H   0  0  0  0  0  0  0  0  0  0  0  0  # atno 10765 bound_to 10752
  141.1660  133.7270  156.8648 H   0  0  0  0  0  0  0  0  0  0  0  0  # atno 11005 bound_to 11000
  146.0962  140.7598  142.9571 LP  0  0  0  0  0  0  0  0  0  0  0  0  # atno 17320 bound_to 7965
  144.7025  140.3714  143.7144 LP  0  0  0  0  0  0  0  0  0  0  0  0  # atno 17321 bound_to 7965
  140.5811  143.9944  150.6269 LP  0  0  0  0  0  0  0  0  0  0  0  0  # atno 17342 bound_to 10162
  140.3093  143.3208  152.0895 LP  0  0  0  0  0  0  0  0  0  0  0  0  # atno 17343 bound_to 10162
  157.6296  130.8719  149.9251 LP  0  0  0  0  0  0  0  0  0  0  0  0  # atno 17370 bound_to 10713
  156.0821  130.3672  150.0559 LP  0  0  0  0  0  0  0  0  0  0  0  0  # atno 17371 bound_to 10713
  140.1823  134.9025  157.2963 LP  0  0  0  0  0  0  0  0  0  0  0  0  # atno 17394 bound_to 11000
  140.2382  134.3828  155.7492 LP  0  0  0  0  0  0  0  0  0  0  0  0  # atno 17395 bound_to 11000

$$$$
