AV-unprocessed.smi:1579|AV-procd|sdf|6354|dock6
  -GOLD-   22720 6573D 1   1.00000     0.00000
 Structure written by MMmdl.
 47 48  0  0  0  0  0  0  0  0  2 V2000
  148.1039  132.3076  158.3817 C   0  0  0  0  0  0  0  0  0  0  0  0
  148.1289  133.7866  158.6598 C   0  0  0  0  0  0  0  0  0  0  0  0
  148.1423  134.5704  157.6319 N   0  0  0  0  0  0  0  0  0  0  0  0
  148.1683  135.9440  157.7734 N   0  0  0  0  0  0  0  0  0  0  0  0
  148.1922  136.6700  156.4962 C   0  0  0  0  0  0  0  0  0  0  0  0
  148.1676  135.7234  155.2762 C   0  0  2  0  0  0  0  0  0  0  0  0
  149.2466  136.0885  154.4383 O   0  0  0  0  0  0  0  0  0  0  0  0
  146.8526  135.8015  154.4682 C   0  0  0  0  0  0  0  0  0  0  0  0
  146.8541  134.9337  153.2626 N   0  3  2  0  0  0  0  0  0  0  0  0
  145.5875  135.0480  152.4946 C   0  0  0  0  0  0  0  0  0  0  0  0
  145.6566  134.2489  151.1827 C   0  0  0  0  0  0  0  0  0  0  0  0
  145.9867  132.7705  151.4467 C   0  0  1  0  0  0  0  0  0  0  0  0
  146.0829  131.9673  150.1420 C   0  0  0  0  0  0  0  0  0  0  0  0
  147.2830  132.6830  152.2690 C   0  0  0  0  0  0  0  0  0  0  0  0
  147.1829  133.5134  153.5598 C   0  0  0  0  0  0  0  0  0  0  0  0
  148.1692  136.6002  158.9694 C   0  0  0  0  0  0  0  0  0  0  0  0
  148.1651  137.8291  159.0522 O   0  0  0  0  0  0  0  0  0  0  0  0
  148.1586  135.7068  160.1297 C   0  0  0  0  0  0  0  0  0  0  0  0
  148.1677  136.3548  161.4015 C   0  0  0  0  0  0  0  0  0  0  0  0
  148.1852  136.8947  162.4250 N   0  0  0  0  0  0  0  0  0  0  0  0
  148.1380  134.3564  160.0031 C   0  0  0  0  0  0  0  0  0  0  0  0
  148.1242  133.3863  161.1764 C   0  0  0  0  0  0  0  0  0  0  0  0
  148.9566  131.8113  158.8456 H   0  0  0  0  0  0  0  0  0  0  0  0
  148.1410  132.0932  157.3124 H   0  0  0  0  0  0  0  0  0  0  0  0
  147.1935  131.8558  158.7757 H   0  0  0  0  0  0  0  0  0  0  0  0
  147.3795  137.3953  156.4272 H   0  0  0  0  0  0  0  0  0  0  0  0
  149.1036  137.2707  156.4677 H   0  0  0  0  0  0  0  0  0  0  0  0
  148.3505  134.7075  155.6243 H   0  0  0  0  0  0  0  0  0  0  0  0
  148.9263  136.2091  153.5578 H   0  0  0  0  0  0  0  0  0  0  0  0
  145.9975  135.5247  155.0848 H   0  0  0  0  0  0  0  0  0  0  0  0
  146.6913  136.8407  154.1773 H   0  0  0  0  0  0  0  0  0  0  0  0
  144.7552  134.6973  153.1071 H   0  0  0  0  0  0  0  0  0  0  0  0
  145.3910  136.0954  152.2620 H   0  0  0  0  0  0  0  0  0  0  0  0
  144.7064  134.3311  150.6534 H   0  0  0  0  0  0  0  0  0  0  0  0
  146.4124  134.6872  150.5292 H   0  0  0  0  0  0  0  0  0  0  0  0
  145.1782  132.3415  152.0407 H   0  0  0  0  0  0  0  0  0  0  0  0
  146.8787  132.3455  149.4993 H   0  0  0  0  0  0  0  0  0  0  0  0
  145.1494  132.0182  149.5807 H   0  0  0  0  0  0  0  0  0  0  0  0
  146.2885  130.9155  150.3429 H   0  0  0  0  0  0  0  0  0  0  0  0
  147.4974  131.6431  152.5185 H   0  0  0  0  0  0  0  0  0  0  0  0
  148.1257  133.0368  151.6730 H   0  0  0  0  0  0  0  0  0  0  0  0
  148.1295  133.4441  154.0940 H   0  0  0  0  0  0  0  0  0  0  0  0
  146.4205  133.0917  154.2171 H   0  0  0  0  0  0  0  0  0  0  0  0
  148.0566  133.8991  162.1354 H   0  0  0  0  0  0  0  0  0  0  0  0
  149.0365  132.7890  161.1870 H   0  0  0  0  0  0  0  0  0  0  0  0
  147.2710  132.7109  161.1093 H   0  0  0  0  0  0  0  0  0  0  0  0
  147.5803  135.2877  152.6569 H   0  0  0  0  0  0  0  0  0  0  0  0
  1  2  1  0  0  0  0
  1 23  1  0  0  0  0
  1 24  1  0  0  0  0
  1 25  1  0  0  0  0
  2 21  1  0  0  0  0
  2  3  2  0  0  0  0
  3  4  1  0  0  0  0
  4  5  1  0  0  0  0
  4 16  1  0  0  0  0
  5  6  1  0  0  0  0
  5 26  1  0  0  0  0
  5 27  1  0  0  0  0
  6  7  1  0  0  0  0
  6  8  1  0  0  0  0
  6 28  1  0  0  0  0
  7 29  1  0  0  0  0
  8  9  1  0  0  0  0
  8 30  1  0  0  0  0
  8 31  1  0  0  0  0
  9 15  1  0  0  0  0
  9 10  1  0  0  0  0
  9 47  1  0  0  0  0
 10 11  1  0  0  0  0
 10 32  1  0  0  0  0
 10 33  1  0  0  0  0
 11 12  1  0  0  0  0
 11 34  1  0  0  0  0
 11 35  1  0  0  0  0
 12 13  1  0  0  0  0
 12 14  1  0  0  0  0
 12 36  1  0  0  0  0
 13 37  1  0  0  0  0
 13 38  1  0  0  0  0
 13 39  1  0  0  0  0
 14 15  1  0  0  0  0
 14 40  1  0  0  0  0
 14 41  1  0  0  0  0
 15 42  1  0  0  0  0
 15 43  1  0  0  0  0
 16 17  2  0  0  0  0
 16 18  1  0  0  0  0
 18 19  1  0  0  0  0
 18 21  2  0  0  0  0
 19 20  3  0  0  0  0
 21 22  1  0  0  0  0
 22 44  1  0  0  0  0
 22 45  1  0  0  0  0
 22 46  1  0  0  0  0
M  CHG  1   9   1
M  END
> <s_m_source_file>
AV-unprocessed.smi

> <i_m_source_file_index>
1579

> <i_lp_mmshare_version>
43012

> <i_f3d_flags>
0

> <s_epik_input>
TiNDYyhjMVtDSDNdKWMoPU8pbihuYzFbQ0gzXSlbQ0gyXVtDQEhdKFtPSF0pW0NIMl1OMltDSDJdW0NIMl1bQ0hdKFtDSDNdKVtDSDJdW0NIMl0y

> <s_epik_cmdline>
J2VwaWtfcHl0aG9uJywgJy1waCcsICc3LjAnLCAnLXRuJywgJzgnLCAnLW1hJywgJzIwMCcsICctbWV0YWxfYmluZGluZycsICctaW1hZScsICc8aW5maWxlLm1hZT4nLCAnLW9tYWUnLCAnPG91dGZpbGUubWFlPic=

> <r_epik_Ionization_Penalty>
0.00136816

> <r_epik_Ionization_Penalty_Charging>
0.00136813

> <r_epik_Ionization_Penalty_Neutral>
3.19884e-08

> <r_epik_State_Penalty>
0.000910892

> <r_epik_Charging_Adjusted_Penalty>
0.00227902

> <i_epik_Tot_Q>
1

> <i_epik_Tot_abs_Q>
1

> <r_epik_Metal_State_Penalty>
-0

> <b_epik_Metal_Only>
0

> <s_lp_Force_Field>
OPLS_2005

> <r_lp_Energy>
36.6054

> <b_lp_Chiralities_Consistent>
1

> <s_lp_Variant>
AV-unprocessed.smi:1579-1

> <Gold.Version>
5.8.1

> <Gold.Id.Protein>
6NUR|6NUR_protein|mol2

> <Gold.PLP.Fitness>
40.0279

> <Gold.PLP.PLP>
-29.6201

> <Gold.PLP.part.hbond>
-3.6494

> <Gold.PLP.part.metal>
0.0000

> <Gold.PLP.part.buried>
-3.7055

> <Gold.PLP.part.nonpolar>
-21.3732

> <Gold.PLP.part.repulsive>
0.0000

> <Gold.PLP.ligand.clash>
0.0000

> <Gold.PLP.ligand.torsion>
0.7308

> <Gold.PLP.Chemscore.Hbond>
3.9500

> <Gold.PLP.Chemscore.CHOScore>
0.0000

> <Gold.PLP.Chemscore.Metal>
0.0000

> <Gold.Chemscore.Hbonds>
donor molecule, donor type, donor heavy atom, donor atom, acceptor molecule, acceptor atom, score
      L1  H     7    29       P1  7948  1.00
      L1  H     9    47       P1  7948  2.00
      P1  H  6931  6943       L1    20  0.90
      P1  H  6934  6947       L1    17  0.03

> <Gold.PLP.Chemscore.Internal.Correction>
0.0195

> <Gold.Rescore>
     Score         DG    S(hbond)    S(metal)    S(lipo)     H(rot)  DE(clash)    DE(int)     intcor
     14.61     -15.46       2.53        0.00      60.55       2.17       0.00       0.85       ----

> <Gold.Chemscore.Fitness>
14.6091

> <Gold.Chemscore.DG>
-15.4616

> <Gold.Chemscore.ZeroCoef>
-5.4800

> <Gold.Chemscore.Hbond>
2.5318

> <Gold.Chemscore.Metal>
0.0000

> <Gold.Chemscore.Lipo>
60.5503

> <Gold.Chemscore.Internal_Hbond>
0.0000

> <Gold.Chemscore.DEClash>
0.0000

> <Gold.Chemscore.DEInternal>
0.8524

> <Gold.Chemscore.Rot>
2.1715

> <Gold.Chemscore.Internal.Correction>
   9.000000E+99

> <Gold.Chemscore.Hbonds>
donor molecule, donor type, donor heavy atom, donor atom, acceptor molecule, acceptor atom, score
      L1  H     7    29       P1  7948  0.98
      L1  H     9    47       P1  7948  1.00
      P1  H  6931  6943       L1    20  0.18
      P1  H  6934  6947       L1    17  0.04

> <Gold.Chemscore.Hbond.Weighted>
-8.4563

> <Gold.Chemscore.Metal.Weighted>
-0.0000

> <Gold.Chemscore.Lipo.Weighted>
-7.0844

> <Gold.Chemscore.Internal_Hbond.Weighted>
0.0000

> <Gold.Chemscore.DEClash.Weighted>
0.0000

> <Gold.Chemscore.DEInternal.Weighted>
0.8524

> <Gold.Chemscore.Rot.Weighted>
5.5591

> <Gold.Chemscore.Internal.Correction.Weighted>
   9.000000E+99

> <Gold.Protein.RotatedTorsions>
[ 6907 6896 6895 6894 ] final  -10.90 input  -60.11 | X-H torsion
[ 7974 7965 7964 7962 ] final   83.48 input  175.53 | X-H torsion
[ 8008 7997 7996 7995 ] final  -62.85 input   59.86 | X-H torsion
[ 10167 10162 10161 10158 ] final   60.17 input  -65.29 | X-H torsion
[ 10718 10713 10712 10709 ] final  -37.56 input   66.30 | X-H torsion
[ 10763 10752 10751 10750 ] final  172.56 input  -60.55 | X-H torsion
[ 11005 11000 10999 10996 ] final   63.03 input  -57.11 | X-H torsion

> <Gold.Protein.ActiveResidues>
 VAL166  LYS551  ARG553  GLY616  TRP617  ASP618  TYR619  PRO620  LYS621  CYS622 
 ASP623  PHE694  ASN695  SER759  ASP760  ASP761  ALA762  ILE779  LEU786  VAL792 
 PHE793  MET794  SER795  GLU796  ALA797  LYS798  CYS799  TRP800  GLU811  SER814 

> <Gold.Protein.RotatedAtoms>
  151.3947  135.0961  159.9536 H   0  0  0  0  0  0  0  0  0  0  0  0  # atno 6907 bound_to 6896
  152.5069  133.8946  159.7421 H   0  0  0  0  0  0  0  0  0  0  0  0  # atno 6908 bound_to 6896
  150.9407  133.6604  159.2820 H   0  0  0  0  0  0  0  0  0  0  0  0  # atno 6909 bound_to 6896
  145.6114  139.2369  143.2190 H   0  0  0  0  0  0  0  0  0  0  0  0  # atno 7974 bound_to 7965
  154.4522  140.0987  156.6651 H   0  0  0  0  0  0  0  0  0  0  0  0  # atno 8008 bound_to 7997
  155.5249  140.3480  155.4396 H   0  0  0  0  0  0  0  0  0  0  0  0  # atno 8009 bound_to 7997
  156.0704  140.1348  156.9824 H   0  0  0  0  0  0  0  0  0  0  0  0  # atno 8010 bound_to 7997
  140.1684  144.4301  150.6673 H   0  0  0  0  0  0  0  0  0  0  0  0  # atno 10167 bound_to 10162
  156.3138  130.4256  149.8025 H   0  0  0  0  0  0  0  0  0  0  0  0  # atno 10718 bound_to 10713
  154.4278  135.2759  155.1933 H   0  0  0  0  0  0  0  0  0  0  0  0  # atno 10763 bound_to 10752
  154.3851  135.6079  153.5816 H   0  0  0  0  0  0  0  0  0  0  0  0  # atno 10764 bound_to 10752
  152.9835  135.5890  154.4584 H   0  0  0  0  0  0  0  0  0  0  0  0  # atno 10765 bound_to 10752
  140.0052  134.6381  155.9867 H   0  0  0  0  0  0  0  0  0  0  0  0  # atno 11005 bound_to 11000
  146.1501  140.6937  142.9326 LP  0  0  0  0  0  0  0  0  0  0  0  0  # atno 17320 bound_to 7965
  144.7268  140.4550  143.6967 LP  0  0  0  0  0  0  0  0  0  0  0  0  # atno 17321 bound_to 7965
  140.6598  143.2248  151.5884 LP  0  0  0  0  0  0  0  0  0  0  0  0  # atno 17342 bound_to 10162
  139.5349  144.2810  152.1229 LP  0  0  0  0  0  0  0  0  0  0  0  0  # atno 17343 bound_to 10162
  156.5358  130.8278  151.3252 LP  0  0  0  0  0  0  0  0  0  0  0  0  # atno 17370 bound_to 10713
  157.7397  130.9836  150.2330 LP  0  0  0  0  0  0  0  0  0  0  0  0  # atno 17371 bound_to 10713
  141.1671  133.6537  156.4519 LP  0  0  0  0  0  0  0  0  0  0  0  0  # atno 17394 bound_to 11000
  140.4655  134.6802  157.5105 LP  0  0  0  0  0  0  0  0  0  0  0  0  # atno 17395 bound_to 11000

$$$$
