AV-unprocessed.smi:1575|AV-procd|sdf|6340|dock7
  -GOLD-   22720 6553D 1   1.00000     0.00000
 Structure written by MMmdl.
 41 41  0  0  0  0  0  0  0  0  1 V2000
  146.5697  138.5945  152.0353 C   0  0  0  0  0  0  0  0  0  0  0  0
  146.4907  137.1422  152.0572 N   0  0  0  0  0  0  0  0  0  0  0  0
  145.4888  136.4494  152.6169 C   0  0  0  0  0  0  0  0  0  0  0  0
  144.5333  136.9863  153.1806 O   0  0  0  0  0  0  0  0  0  0  0  0
  145.5987  134.9165  152.5440 C   0  0  1  0  0  0  0  0  0  0  0  0
  145.1796  134.4784  151.1204 C   0  0  0  0  0  0  0  0  0  0  0  0
  144.6241  133.0396  151.0124 C   0  0  0  0  0  0  0  0  0  0  0  0
  145.7545  132.0116  151.1705 C   0  0  0  0  0  0  0  0  0  0  0  0
  143.8645  132.8005  149.6968 C   0  0  0  0  0  0  0  0  0  0  0  0
  146.9829  134.5027  152.7747 N   0  0  0  0  0  0  0  0  0  0  0  0
  147.3647  133.4385  153.4974 C   0  0  0  0  0  0  0  0  0  0  0  0
  146.5679  132.6584  154.0208 O   0  0  0  0  0  0  0  0  0  0  0  0
  148.8780  133.2180  153.6278 C   0  0  0  0  0  0  0  0  0  0  0  0
  149.4649  133.9546  154.7564 N   0  0  0  0  0  0  0  0  0  0  0  0
  149.9123  135.2573  154.5878 C   0  0  0  0  0  0  0  0  0  0  0  0
  150.4762  135.9862  155.5799 C   0  0  0  0  0  0  0  0  0  0  0  0
  150.6441  135.4154  156.9120 C   0  0  0  0  0  0  0  0  0  0  0  0
  151.1422  135.9951  157.8744 O   0  0  0  0  0  0  0  0  0  0  0  0
  150.1829  134.1029  157.0414 N   0  0  0  0  0  0  0  0  0  0  0  0
  149.6016  133.3458  156.0231 C   0  0  0  0  0  0  0  0  0  0  0  0
  149.2314  132.1932  156.2438 O   0  0  0  0  0  0  0  0  0  0  0  0
  150.2799  133.6647  157.9457 H   0  0  0  0  0  0  0  0  0  0  0  0
  147.5028  138.9088  151.5679 H   0  0  0  0  0  0  0  0  0  0  0  0
  146.5417  139.0015  153.0469 H   0  0  0  0  0  0  0  0  0  0  0  0
  145.7419  139.0186  151.4656 H   0  0  0  0  0  0  0  0  0  0  0  0
  147.2417  136.6312  151.6161 H   0  0  0  0  0  0  0  0  0  0  0  0
  144.9394  134.4710  153.2907 H   0  0  0  0  0  0  0  0  0  0  0  0
  144.4288  135.1689  150.7323 H   0  0  0  0  0  0  0  0  0  0  0  0
  146.0385  134.5726  150.4532 H   0  0  0  0  0  0  0  0  0  0  0  0
  143.9275  132.8707  151.8342 H   0  0  0  0  0  0  0  0  0  0  0  0
  146.4929  132.1081  150.3737 H   0  0  0  0  0  0  0  0  0  0  0  0
  145.3665  130.9927  151.1433 H   0  0  0  0  0  0  0  0  0  0  0  0
  146.2725  132.1379  152.1215 H   0  0  0  0  0  0  0  0  0  0  0  0
  144.4974  133.0006  148.8315 H   0  0  0  0  0  0  0  0  0  0  0  0
  142.9814  133.4343  149.6200 H   0  0  0  0  0  0  0  0  0  0  0  0
  143.5224  131.7677  149.6247 H   0  0  0  0  0  0  0  0  0  0  0  0
  147.7029  135.0914  152.3819 H   0  0  0  0  0  0  0  0  0  0  0  0
  149.0550  132.1471  153.7375 H   0  0  0  0  0  0  0  0  0  0  0  0
  149.3783  133.4991  152.6985 H   0  0  0  0  0  0  0  0  0  0  0  0
  149.8124  135.7197  153.6162 H   0  0  0  0  0  0  0  0  0  0  0  0
  150.8060  136.9966  155.3865 H   0  0  0  0  0  0  0  0  0  0  0  0
  1  2  1  0  0  0  0
  1 23  1  0  0  0  0
  1 24  1  0  0  0  0
  1 25  1  0  0  0  0
  2  3  1  0  0  0  0
  2 26  1  0  0  0  0
  3  4  2  0  0  0  0
  3  5  1  0  0  0  0
  5  6  1  0  0  0  0
  5 10  1  0  0  0  0
  5 27  1  0  0  0  0
  6  7  1  0  0  0  0
  6 28  1  0  0  0  0
  6 29  1  0  0  0  0
  7  8  1  0  0  0  0
  7  9  1  0  0  0  0
  7 30  1  0  0  0  0
  8 31  1  0  0  0  0
  8 32  1  0  0  0  0
  8 33  1  0  0  0  0
  9 34  1  0  0  0  0
  9 35  1  0  0  0  0
  9 36  1  0  0  0  0
 10 11  1  0  0  0  0
 10 37  1  0  0  0  0
 11 12  2  0  0  0  0
 11 13  1  0  0  0  0
 13 14  1  0  0  0  0
 13 38  1  0  0  0  0
 13 39  1  0  0  0  0
 14 20  1  0  0  0  0
 14 15  1  0  0  0  0
 15 16  2  0  0  0  0
 15 40  1  0  0  0  0
 16 17  1  0  0  0  0
 16 41  1  0  0  0  0
 17 18  2  0  0  0  0
 17 19  1  0  0  0  0
 19 22  1  0  0  0  0
 19 20  1  0  0  0  0
 20 21  2  0  0  0  0
M  END
> <s_m_source_file>
AV-unprocessed.smi

> <i_m_source_file_index>
1575

> <i_lp_mmshare_version>
43012

> <i_f3d_flags>
0

> <s_epik_input>
W0NIM11bTkhdQyg9TylbQ0BIXShbQ0gyXVtDSF0oW0NIM10pW0NIM10pW05IXUMoPU8pW0NIMl1uMVtjSF1bY0hdYyg9TylbbkhdYzE9Tw==

> <s_epik_cmdline>
J2VwaWtfcHl0aG9uJywgJy1waCcsICc3LjAnLCAnLXRuJywgJzgnLCAnLW1hJywgJzIwMCcsICctbWV0YWxfYmluZGluZycsICctaW1hZScsICc8aW5maWxlLm1hZT4nLCAnLW9tYWUnLCAnPG91dGZpbGUubWFlPic=

> <r_lp_tautomer_probability>
0.999537

> <r_epik_Ionization_Penalty>
0.00357166

> <r_epik_Ionization_Penalty_Charging>
0.00357161

> <r_epik_Ionization_Penalty_Neutral>
5.44484e-08

> <r_epik_State_Penalty>
0.00253761

> <r_epik_Charging_Adjusted_Penalty>
0.00610921

> <i_epik_Tot_Q>
0

> <i_epik_Tot_abs_Q>
0

> <r_epik_Metal_State_Penalty>
0.368734

> <b_epik_Metal_Only>
0

> <s_lp_Force_Field>
OPLS_2005

> <r_lp_Energy>
5.11716

> <b_lp_Chiralities_Consistent>
1

> <s_lp_Variant>
AV-unprocessed.smi:1575-2

> <Gold.Version>
5.8.1

> <Gold.Id.Protein>
6NUR|6NUR_protein|mol2

> <Gold.PLP.Fitness>
39.2170

> <Gold.PLP.PLP>
-32.1375

> <Gold.PLP.part.hbond>
-3.0000

> <Gold.PLP.part.metal>
0.0000

> <Gold.PLP.part.buried>
-4.3204

> <Gold.PLP.part.nonpolar>
-26.6116

> <Gold.PLP.part.repulsive>
0.4309

> <Gold.PLP.ligand.clash>
0.0000

> <Gold.PLP.ligand.torsion>
1.9176

> <Gold.PLP.Chemscore.Hbond>
2.6160

> <Gold.PLP.Chemscore.CHOScore>
1.0000

> <Gold.PLP.Chemscore.Metal>
0.0000

> <Gold.Chemscore.Hbonds>
donor molecule, donor type, donor heavy atom, donor atom, acceptor molecule, acceptor atom, score
      L1  H     2    26       P1  7948  0.85
      L1  H    10    37       P1  7948  1.00
      P1  H  6896  6907       L1    18  0.23
      L1  C    15    40       P1  7948  0.58

> <Gold.PLP.Chemscore.Internal.Correction>
0.0667

> <Gold.Rescore>
     Score         DG    S(hbond)    S(metal)    S(lipo)     H(rot)  DE(clash)    DE(int)     intcor
     11.87     -15.11       2.82        0.00      63.19       2.81       0.03       3.21       ----

> <Gold.Chemscore.Fitness>
11.8654

> <Gold.Chemscore.DG>
-15.1108

> <Gold.Chemscore.ZeroCoef>
-5.4800

> <Gold.Chemscore.Hbond>
2.8215

> <Gold.Chemscore.Metal>
0.0000

> <Gold.Chemscore.Lipo>
63.1921

> <Gold.Chemscore.Internal_Hbond>
0.0000

> <Gold.Chemscore.DEClash>
0.0317

> <Gold.Chemscore.DEInternal>
3.2137

> <Gold.Chemscore.Rot>
2.8072

> <Gold.Chemscore.Internal.Correction>
   9.000000E+99

> <Gold.Chemscore.Hbonds>
donor molecule, donor type, donor heavy atom, donor atom, acceptor molecule, acceptor atom, score
      L1  H     2    26       P1  7948  0.83
      L1  H    10    37       P1  7948  0.97
      P1  H  6896  6907       L1    18  0.13

> <Gold.Chemscore.Hbond.Weighted>
-9.4237

> <Gold.Chemscore.Metal.Weighted>
-0.0000

> <Gold.Chemscore.Lipo.Weighted>
-7.3935

> <Gold.Chemscore.Internal_Hbond.Weighted>
0.0000

> <Gold.Chemscore.DEClash.Weighted>
0.0317

> <Gold.Chemscore.DEInternal.Weighted>
3.2137

> <Gold.Chemscore.Rot.Weighted>
7.1864

> <Gold.Chemscore.Internal.Correction.Weighted>
   9.000000E+99

> <Gold.Protein.RotatedTorsions>
[ 6907 6896 6895 6894 ] final  -62.17 input  -60.11 | X-H torsion
[ 7974 7965 7964 7962 ] final    8.00 input  175.53 | X-H torsion
[ 8008 7997 7996 7995 ] final  137.23 input   59.86 | X-H torsion
[ 10167 10162 10161 10158 ] final -173.51 input  -65.29 | X-H torsion
[ 10718 10713 10712 10709 ] final   31.85 input   66.30 | X-H torsion
[ 10763 10752 10751 10750 ] final   93.92 input  -60.55 | X-H torsion
[ 11005 11000 10999 10996 ] final   14.21 input  -57.11 | X-H torsion

> <Gold.Protein.ActiveResidues>
 VAL166  LYS551  ARG553  GLY616  TRP617  ASP618  TYR619  PRO620  LYS621  CYS622 
 ASP623  PHE694  ASN695  SER759  ASP760  ASP761  ALA762  ILE779  LEU786  VAL792 
 PHE793  MET794  SER795  GLU796  ALA797  LYS798  CYS799  TRP800  GLU811  SER814 

> <Gold.Protein.RotatedAtoms>
  150.7734  134.6607  159.6337 H   0  0  0  0  0  0  0  0  0  0  0  0  # atno 6907 bound_to 6896
  152.3795  134.6609  160.0157 H   0  0  0  0  0  0  0  0  0  0  0  0  # atno 6908 bound_to 6896
  151.6943  133.3274  159.3287 H   0  0  0  0  0  0  0  0  0  0  0  0  # atno 6909 bound_to 6896
  146.2421  139.9999  142.8417 H   0  0  0  0  0  0  0  0  0  0  0  0  # atno 7974 bound_to 7965
  156.3002  140.2424  156.3876 H   0  0  0  0  0  0  0  0  0  0  0  0  # atno 8008 bound_to 7997
  154.8644  140.0418  157.1705 H   0  0  0  0  0  0  0  0  0  0  0  0  # atno 8009 bound_to 7997
  154.8862  140.2956  155.5400 H   0  0  0  0  0  0  0  0  0  0  0  0  # atno 8010 bound_to 7997
  139.5684  144.1699  152.1348 H   0  0  0  0  0  0  0  0  0  0  0  0  # atno 10167 bound_to 10162
  157.2777  130.7239  149.6539 H   0  0  0  0  0  0  0  0  0  0  0  0  # atno 10718 bound_to 10713
  153.2357  135.4308  155.0644 H   0  0  0  0  0  0  0  0  0  0  0  0  # atno 10763 bound_to 10752
  154.8318  135.3390  154.6722 H   0  0  0  0  0  0  0  0  0  0  0  0  # atno 10764 bound_to 10752
  153.7147  135.7020  153.5084 H   0  0  0  0  0  0  0  0  0  0  0  0  # atno 10765 bound_to 10752
  140.4720  134.1021  155.7734 H   0  0  0  0  0  0  0  0  0  0  0  0  # atno 11005 bound_to 11000
  145.1425  140.9579  143.4480 LP  0  0  0  0  0  0  0  0  0  0  0  0  # atno 17320 bound_to 7965
  145.0282  139.3364  143.6038 LP  0  0  0  0  0  0  0  0  0  0  0  0  # atno 17321 bound_to 7965
  140.1227  144.5359  150.6852 LP  0  0  0  0  0  0  0  0  0  0  0  0  # atno 17342 bound_to 10162
  140.6968  143.2409  151.4977 LP  0  0  0  0  0  0  0  0  0  0  0  0  # atno 17343 bound_to 10162
  155.9664  130.4348  150.5063 LP  0  0  0  0  0  0  0  0  0  0  0  0  # atno 17370 bound_to 10713
  157.3000  131.0643  151.2075 LP  0  0  0  0  0  0  0  0  0  0  0  0  # atno 17371 bound_to 10713
  141.1572  133.8860  157.1945 LP  0  0  0  0  0  0  0  0  0  0  0  0  # atno 17394 bound_to 11000
  139.9879  135.0075  156.9906 LP  0  0  0  0  0  0  0  0  0  0  0  0  # atno 17395 bound_to 11000

$$$$
