AV-unprocessed.smi:1780|AV-procd|sdf|7184|dock5
  -GOLD-   22720 8423D 1   1.00000     0.00000
 Structure written by MMmdl.
 43 44  0  0  0  0  0  0  0  0  1 V2000
  144.9829  131.7498  150.1148 C   0  0  0  0  0  0  0  0  0  0  0  0
  145.9594  132.6518  150.8799 C   0  0  0  0  0  0  0  0  0  0  0  0
  145.4661  134.0110  150.9891 N   0  0  0  0  0  0  0  0  0  0  0  0
  145.9889  135.0515  151.7311 C   0  0  0  0  0  0  0  0  0  0  0  0
  145.1678  136.1188  151.4999 C   0  0  0  0  0  0  0  0  0  0  0  0
  145.2459  137.4404  152.0066 N   0  0  0  0  0  0  0  0  0  0  0  0
  145.7567  137.8329  153.1849 C   0  0  0  0  0  0  0  0  0  0  0  0
  146.2288  137.0815  154.0384 O   0  0  0  0  0  0  0  0  0  0  0  0
  145.6921  139.1645  153.3231 N   0  0  0  0  0  0  0  0  0  0  0  0
  146.1752  139.9136  154.4798 C   0  0  0  0  0  0  0  0  0  0  0  0
  147.4521  140.7571  154.1918 C   0  0  1  0  0  0  0  0  0  0  0  0
  147.1042  142.2616  154.3296 C   0  0  0  0  0  0  0  0  0  0  0  0
  148.6122  140.3588  155.0226 N   0  0  0  0  0  0  0  0  0  0  0  0
  149.3252  139.1950  154.4829 C   0  0  0  0  0  0  0  0  0  0  0  0
  150.5469  138.7975  155.3295 C   0  0  0  0  0  0  0  0  0  0  0  0
  151.4325  139.9026  155.4437 O   0  0  0  0  0  0  0  0  0  0  0  0
  150.8030  141.0311  156.0343 C   0  0  0  0  0  0  0  0  0  0  0  0
  149.5848  141.4449  155.1906 C   0  0  0  0  0  0  0  0  0  0  0  0
  144.1678  135.6522  150.6077 C   0  0  0  0  0  0  0  0  0  0  0  0
  144.3528  134.3762  150.3058 N   0  0  0  0  0  0  0  0  0  0  0  0
  145.3809  130.7394  150.0217 H   0  0  0  0  0  0  0  0  0  0  0  0
  144.8007  132.1304  149.1092 H   0  0  0  0  0  0  0  0  0  0  0  0
  144.0224  131.6819  150.6272 H   0  0  0  0  0  0  0  0  0  0  0  0
  146.1335  132.2601  151.8831 H   0  0  0  0  0  0  0  0  0  0  0  0
  146.9258  132.6711  150.3750 H   0  0  0  0  0  0  0  0  0  0  0  0
  146.8756  134.9357  152.3366 H   0  0  0  0  0  0  0  0  0  0  0  0
  144.8799  138.1639  151.4053 H   0  0  0  0  0  0  0  0  0  0  0  0
  145.2870  139.7025  152.5712 H   0  0  0  0  0  0  0  0  0  0  0  0
  145.3697  140.5657  154.8188 H   0  0  0  0  0  0  0  0  0  0  0  0
  146.3381  139.1867  155.2746 H   0  0  0  0  0  0  0  0  0  0  0  0
  147.7194  140.5900  153.1472 H   0  0  0  0  0  0  0  0  0  0  0  0
  146.2248  142.5410  153.7507 H   0  0  0  0  0  0  0  0  0  0  0  0
  147.8997  142.9055  153.9577 H   0  0  0  0  0  0  0  0  0  0  0  0
  146.9110  142.5285  155.3691 H   0  0  0  0  0  0  0  0  0  0  0  0
  148.6729  138.3250  154.4458 H   0  0  0  0  0  0  0  0  0  0  0  0
  149.6438  139.3979  153.4591 H   0  0  0  0  0  0  0  0  0  0  0  0
  150.2376  138.4644  156.3215 H   0  0  0  0  0  0  0  0  0  0  0  0
  151.0753  137.9656  154.8638 H   0  0  0  0  0  0  0  0  0  0  0  0
  150.5038  140.7980  157.0573 H   0  0  0  0  0  0  0  0  0  0  0  0
  151.5204  141.8499  156.0897 H   0  0  0  0  0  0  0  0  0  0  0  0
  149.9229  141.7930  154.2136 H   0  0  0  0  0  0  0  0  0  0  0  0
  149.1276  142.2970  155.6899 H   0  0  0  0  0  0  0  0  0  0  0  0
  143.3315  136.1842  150.1785 H   0  0  0  0  0  0  0  0  0  0  0  0
  1  2  1  0  0  0  0
  1 21  1  0  0  0  0
  1 22  1  0  0  0  0
  1 23  1  0  0  0  0
  2  3  1  0  0  0  0
  2 24  1  0  0  0  0
  2 25  1  0  0  0  0
  3 20  1  0  0  0  0
  3  4  1  0  0  0  0
  4  5  2  0  0  0  0
  4 26  1  0  0  0  0
  5  6  1  0  0  0  0
  5 19  1  0  0  0  0
  6  7  1  0  0  0  0
  6 27  1  0  0  0  0
  7  8  2  0  0  0  0
  7  9  1  0  0  0  0
  9 10  1  0  0  0  0
  9 28  1  0  0  0  0
 10 11  1  0  0  0  0
 10 29  1  0  0  0  0
 10 30  1  0  0  0  0
 11 12  1  0  0  0  0
 11 13  1  0  0  0  0
 11 31  1  0  0  0  0
 12 32  1  0  0  0  0
 12 33  1  0  0  0  0
 12 34  1  0  0  0  0
 13 18  1  0  0  0  0
 13 14  1  0  0  0  0
 14 15  1  0  0  0  0
 14 35  1  0  0  0  0
 14 36  1  0  0  0  0
 15 16  1  0  0  0  0
 15 37  1  0  0  0  0
 15 38  1  0  0  0  0
 16 17  1  0  0  0  0
 17 18  1  0  0  0  0
 17 39  1  0  0  0  0
 17 40  1  0  0  0  0
 18 41  1  0  0  0  0
 18 42  1  0  0  0  0
 19 20  2  0  0  0  0
 19 43  1  0  0  0  0
M  END
> <s_m_source_file>
AV-unprocessed.smi

> <i_m_source_file_index>
1780

> <i_lp_mmshare_version>
43012

> <i_f3d_flags>
0

> <s_epik_input>
W0NIM11bQ0gyXW4xW2NIXWMoW2NIXW4xKVtOSF1DKD1PKVtOSF1bQ0gyXVtDQEhdKFtDSDNdKU4yW0NIMl1bQ0gyXU9bQ0gyXVtDSDJdMg==

> <s_epik_cmdline>
J2VwaWtfcHl0aG9uJywgJy1waCcsICc3LjAnLCAnLXRuJywgJzgnLCAnLW1hJywgJzIwMCcsICctbWV0YWxfYmluZGluZycsICctaW1hZScsICc8aW5maWxlLm1hZT4nLCAnLW9tYWUnLCAnPG91dGZpbGUubWFlPic=

> <r_lp_tautomer_probability>
1

> <r_epik_Ionization_Penalty>
0.242902

> <r_epik_Ionization_Penalty_Charging>
0

> <r_epik_Ionization_Penalty_Neutral>
0.242902

> <r_epik_State_Penalty>
0.233765

> <r_epik_Charging_Adjusted_Penalty>
0.233765

> <i_epik_Tot_Q>
0

> <i_epik_Tot_abs_Q>
0

> <r_epik_Metal_State_Penalty>
0.233759

> <b_epik_Metal_Only>
0

> <s_lp_Force_Field>
OPLS_2005

> <r_lp_Energy>
31.4714

> <b_lp_Chiralities_Consistent>
1

> <s_lp_Variant>
AV-unprocessed.smi:1780-2

> <Gold.Version>
5.8.1

> <Gold.Id.Protein>
6NUR|6NUR_protein|mol2

> <Gold.PLP.Fitness>
44.3904

> <Gold.PLP.PLP>
-34.7285

> <Gold.PLP.part.hbond>
-3.0000

> <Gold.PLP.part.metal>
0.0000

> <Gold.PLP.part.buried>
-2.4460

> <Gold.PLP.part.nonpolar>
-30.8084

> <Gold.PLP.part.repulsive>
0.9779

> <Gold.PLP.ligand.clash>
0.0078

> <Gold.PLP.ligand.torsion>
1.6107

> <Gold.PLP.Chemscore.Hbond>
2.7120

> <Gold.PLP.Chemscore.CHOScore>
1.5639

> <Gold.PLP.Chemscore.Metal>
0.0000

> <Gold.Chemscore.Hbonds>
donor molecule, donor type, donor heavy atom, donor atom, acceptor molecule, acceptor atom, score
      L1  H     6    27       P1 10171  0.94
      L1  H     9    28       P1 10175  0.61
      P1  H  7989  7998       L1    16  0.44
      L1  C     4    26       P1  7948  0.82
      L1  C    19    43       P1 10171  0.65

> <Gold.PLP.Chemscore.Internal.Correction>
0.0635

> <Gold.Rescore>
     Score         DG    S(hbond)    S(metal)    S(lipo)     H(rot)  DE(clash)    DE(int)     intcor
     16.10     -17.68       2.19        0.00      76.88       1.61       0.04       1.53       ----

> <Gold.Chemscore.Fitness>
16.1040

> <Gold.Chemscore.DG>
-17.6754

> <Gold.Chemscore.ZeroCoef>
-5.4800

> <Gold.Chemscore.Hbond>
2.1935

> <Gold.Chemscore.Metal>
0.0000

> <Gold.Chemscore.Lipo>
76.8803

> <Gold.Chemscore.Internal_Hbond>
0.0000

> <Gold.Chemscore.DEClash>
0.0365

> <Gold.Chemscore.DEInternal>
1.5349

> <Gold.Chemscore.Rot>
1.6117

> <Gold.Chemscore.Internal.Correction>
   9.000000E+99

> <Gold.Chemscore.Hbonds>
donor molecule, donor type, donor heavy atom, donor atom, acceptor molecule, acceptor atom, score
      L1  H     6    27       P1 10171  0.90
      L1  H     9    28       P1 10175  0.60
      P1  H  7989  7998       L1    16  0.03

> <Gold.Chemscore.Hbond.Weighted>
-7.3264

> <Gold.Chemscore.Metal.Weighted>
-0.0000

> <Gold.Chemscore.Lipo.Weighted>
-8.9950

> <Gold.Chemscore.Internal_Hbond.Weighted>
0.0000

> <Gold.Chemscore.DEClash.Weighted>
0.0365

> <Gold.Chemscore.DEInternal.Weighted>
1.5349

> <Gold.Chemscore.Rot.Weighted>
4.1260

> <Gold.Chemscore.Internal.Correction.Weighted>
   9.000000E+99

> <Gold.Protein.RotatedTorsions>
[ 6907 6896 6895 6894 ] final   68.80 input  -60.11 | X-H torsion
[ 7974 7965 7964 7962 ] final -174.00 input  175.53 | X-H torsion
[ 8008 7997 7996 7995 ] final  -20.54 input   59.86 | X-H torsion
[ 10167 10162 10161 10158 ] final   53.30 input  -65.29 | X-H torsion
[ 10718 10713 10712 10709 ] final   -3.46 input   66.30 | X-H torsion
[ 10763 10752 10751 10750 ] final  -55.17 input  -60.55 | X-H torsion
[ 11005 11000 10999 10996 ] final -125.68 input  -57.11 | X-H torsion

> <Gold.Protein.ActiveResidues>
 VAL166  LYS551  ARG553  GLY616  TRP617  ASP618  TYR619  PRO620  LYS621  CYS622 
 ASP623  PHE694  ASN695  SER759  ASP760  ASP761  ALA762  ILE779  LEU786  VAL792 
 PHE793  MET794  SER795  GLU796  ALA797  LYS798  CYS799  TRP800  GLU811  SER814 

> <Gold.Protein.RotatedAtoms>
  152.4644  134.5109  159.9753 H   0  0  0  0  0  0  0  0  0  0  0  0  # atno 6907 bound_to 6896
  151.5150  133.3471  159.2899 H   0  0  0  0  0  0  0  0  0  0  0  0  # atno 6908 bound_to 6896
  150.8622  134.8006  159.7153 H   0  0  0  0  0  0  0  0  0  0  0  0  # atno 6909 bound_to 6896
  144.7134  140.1537  143.6382 H   0  0  0  0  0  0  0  0  0  0  0  0  # atno 7974 bound_to 7965
  154.4763  140.2059  155.9870 H   0  0  0  0  0  0  0  0  0  0  0  0  # atno 8008 bound_to 7997
  156.1094  140.3231  155.8022 H   0  0  0  0  0  0  0  0  0  0  0  0  # atno 8009 bound_to 7997
  155.4660  140.0527  157.2976 H   0  0  0  0  0  0  0  0  0  0  0  0  # atno 8010 bound_to 7997
  140.2422  144.3571  150.6376 H   0  0  0  0  0  0  0  0  0  0  0  0  # atno 10167 bound_to 10162
  156.7757  130.5314  149.5759 H   0  0  0  0  0  0  0  0  0  0  0  0  # atno 10718 bound_to 10713
  154.1865  135.6434  153.5048 H   0  0  0  0  0  0  0  0  0  0  0  0  # atno 10763 bound_to 10752
  153.0046  135.5418  154.6459 H   0  0  0  0  0  0  0  0  0  0  0  0  # atno 10764 bound_to 10752
  154.5837  135.2927  155.0679 H   0  0  0  0  0  0  0  0  0  0  0  0  # atno 10765 bound_to 10752
  140.9742  134.0763  157.3836 H   0  0  0  0  0  0  0  0  0  0  0  0  # atno 11005 bound_to 11000
  145.9093  139.2477  143.1447 LP  0  0  0  0  0  0  0  0  0  0  0  0  # atno 17320 bound_to 7965
  145.9732  140.8743  143.0152 LP  0  0  0  0  0  0  0  0  0  0  0  0  # atno 17321 bound_to 7965
  140.6105  143.2169  151.6896 LP  0  0  0  0  0  0  0  0  0  0  0  0  # atno 17342 bound_to 10162
  139.5073  144.3649  152.0526 LP  0  0  0  0  0  0  0  0  0  0  0  0  # atno 17343 bound_to 10162
  156.1250  130.6137  151.0249 LP  0  0  0  0  0  0  0  0  0  0  0  0  # atno 17370 bound_to 10713
  157.6670  131.0869  150.7704 LP  0  0  0  0  0  0  0  0  0  0  0  0  # atno 17371 bound_to 10713
  139.8924  135.0124  156.6844 LP  0  0  0  0  0  0  0  0  0  0  0  0  # atno 17394 bound_to 11000
  140.7283  133.9081  155.8194 LP  0  0  0  0  0  0  0  0  0  0  0  0  # atno 17395 bound_to 11000

$$$$
