AV-unprocessed.smi:184|AV-procd|sdf|1464|dock4
  -GOLD-   2262019273D 1   1.00000     0.00000
 Structure written by MMmdl.
 54 58  0  0  0  0  0  0  0  0  1 V2000
  153.4012  139.0705  155.8835 O   0  0  0  0  0  0  0  0  0  0  0  0
  152.4431  139.6588  156.3790 C   0  0  0  0  0  0  0  0  0  0  0  0
  151.1720  139.8773  155.5383 C   0  0  0  0  0  0  0  0  0  0  0  0
  150.0656  140.5141  156.2724 N   0  0  0  0  0  0  0  0  0  0  0  0
  148.8822  140.6848  155.6274 C   0  0  0  0  0  0  0  0  0  0  0  0
  148.7456  140.2363  154.3512 N   0  0  0  0  0  0  0  0  0  0  0  0
  147.5957  140.4075  153.6930 C   0  0  0  0  0  0  0  0  0  0  0  0
  146.4704  140.9849  154.1166 N   0  0  0  0  0  0  0  0  0  0  0  0
  146.5919  141.4205  155.4028 C   0  0  0  0  0  0  0  0  0  0  0  0
  147.7511  141.3134  156.2233 C   0  0  0  0  0  0  0  0  0  0  0  0
  147.4923  141.8597  157.4755 N   0  0  0  0  0  0  0  0  0  0  0  0
  146.2605  142.2811  157.3936 C   0  0  0  0  0  0  0  0  0  0  0  0
  145.6400  142.0481  156.1874 N   0  0  0  0  0  0  0  0  0  0  0  0
  144.2757  142.4039  155.8286 C   0  0  0  0  0  0  0  0  0  0  0  0
  144.1086  143.8678  155.3498 C   0  0  0  0  0  0  0  0  0  0  0  0
  144.6294  144.7149  156.3590 O   0  0  0  0  0  0  0  0  0  0  0  0
  144.8650  144.1569  154.0345 C   0  0  0  0  0  0  0  0  0  0  0  0
  144.5187  145.5412  153.4578 C   0  0  0  0  0  0  0  0  0  0  0  0
  143.1119  145.6642  153.2896 O   0  0  0  0  0  0  0  0  0  0  0  0
  142.4029  145.5832  154.5197 C   0  0  0  0  0  0  0  0  0  0  0  0
  142.6148  144.1991  155.1579 C   0  0  0  0  0  0  0  0  0  0  0  0
  150.4025  141.4726  157.3266 C   0  0  2  0  0  0  0  0  0  0  0  0
  150.9856  142.7800  156.7373 C   0  0  0  0  0  0  0  0  0  0  0  0
  151.4507  143.7420  157.8398 C   0  0  0  0  0  0  0  0  0  0  0  0
  152.4702  143.0634  158.7661 C   0  0  0  0  0  0  0  0  0  0  0  0
  151.8816  141.7865  159.3870 C   0  0  0  0  0  0  0  0  0  0  0  0
  151.3744  140.7958  158.3207 C   0  0  2  0  0  0  0  0  0  0  0  0
  152.4843  140.1338  157.6357 N   0  0  0  0  0  0  0  0  0  0  0  0
  151.4495  140.4883  154.6783 H   0  0  0  0  0  0  0  0  0  0  0  0
  150.8414  138.9111  155.1552 H   0  0  0  0  0  0  0  0  0  0  0  0
  147.5746  140.0275  152.6823 H   0  0  0  0  0  0  0  0  0  0  0  0
  145.7633  142.7674  158.2202 H   0  0  0  0  0  0  0  0  0  0  0  0
  143.9491  141.7180  155.0460 H   0  0  0  0  0  0  0  0  0  0  0  0
  143.6321  142.2091  156.6878 H   0  0  0  0  0  0  0  0  0  0  0  0
  144.8133  145.5598  155.9781 H   0  0  0  0  0  0  0  0  0  0  0  0
  145.9432  144.0846  154.1812 H   0  0  0  0  0  0  0  0  0  0  0  0
  144.6038  143.3982  153.2956 H   0  0  0  0  0  0  0  0  0  0  0  0
  144.8903  146.3395  154.1019 H   0  0  0  0  0  0  0  0  0  0  0  0
  144.9994  145.6708  152.4881 H   0  0  0  0  0  0  0  0  0  0  0  0
  142.7228  146.3808  155.1916 H   0  0  0  0  0  0  0  0  0  0  0  0
  141.3427  145.7437  154.3235 H   0  0  0  0  0  0  0  0  0  0  0  0
  142.1599  143.4494  154.5089 H   0  0  0  0  0  0  0  0  0  0  0  0
  142.0837  144.1403  156.1091 H   0  0  0  0  0  0  0  0  0  0  0  0
  149.5139  141.7477  157.8926 H   0  0  0  0  0  0  0  0  0  0  0  0
  151.8303  142.5622  156.0831 H   0  0  0  0  0  0  0  0  0  0  0  0
  150.2383  143.2722  156.1140 H   0  0  0  0  0  0  0  0  0  0  0  0
  151.8903  144.6338  157.3924 H   0  0  0  0  0  0  0  0  0  0  0  0
  150.5914  144.0779  158.4213 H   0  0  0  0  0  0  0  0  0  0  0  0
  153.3742  142.8216  158.2061 H   0  0  0  0  0  0  0  0  0  0  0  0
  152.7704  143.7537  159.5548 H   0  0  0  0  0  0  0  0  0  0  0  0
  152.6217  141.3060  160.0280 H   0  0  0  0  0  0  0  0  0  0  0  0
  151.0511  142.0612  160.0387 H   0  0  0  0  0  0  0  0  0  0  0  0
  150.8326  140.0013  158.8362 H   0  0  0  0  0  0  0  0  0  0  0  0
  153.3329  139.9965  158.1653 H   0  0  0  0  0  0  0  0  0  0  0  0
  1  2  2  0  0  0  0
  2 28  1  0  0  0  0
  2  3  1  0  0  0  0
  3  4  1  0  0  0  0
  3 29  1  0  0  0  0
  3 30  1  0  0  0  0
  4  5  1  0  0  0  0
  4 22  1  0  0  0  0
  5 10  1  0  0  0  0
  5  6  2  0  0  0  0
  6  7  1  0  0  0  0
  7  8  2  0  0  0  0
  7 31  1  0  0  0  0
  8  9  1  0  0  0  0
  9 13  1  0  0  0  0
  9 10  2  0  0  0  0
 10 11  1  0  0  0  0
 11 12  2  0  0  0  0
 12 13  1  0  0  0  0
 12 32  1  0  0  0  0
 13 14  1  0  0  0  0
 14 15  1  0  0  0  0
 14 33  1  0  0  0  0
 14 34  1  0  0  0  0
 15 21  1  0  0  0  0
 15 16  1  0  0  0  0
 15 17  1  0  0  0  0
 16 35  1  0  0  0  0
 17 18  1  0  0  0  0
 17 36  1  0  0  0  0
 17 37  1  0  0  0  0
 18 19  1  0  0  0  0
 18 38  1  0  0  0  0
 18 39  1  0  0  0  0
 19 20  1  0  0  0  0
 20 21  1  0  0  0  0
 20 40  1  0  0  0  0
 20 41  1  0  0  0  0
 21 42  1  0  0  0  0
 21 43  1  0  0  0  0
 22 27  1  0  0  0  0
 22 23  1  0  0  0  0
 22 44  1  0  0  0  0
 23 24  1  0  0  0  0
 23 45  1  0  0  0  0
 23 46  1  0  0  0  0
 24 25  1  0  0  0  0
 24 47  1  0  0  0  0
 24 48  1  0  0  0  0
 25 26  1  0  0  0  0
 25 49  1  0  0  0  0
 25 50  1  0  0  0  0
 26 27  1  0  0  0  0
 26 51  1  0  0  0  0
 26 52  1  0  0  0  0
 27 28  1  0  0  0  0
 27 53  1  0  0  0  0
 28 54  1  0  0  0  0
M  END
> <s_m_source_file>
AV-unprocessed.smi

> <i_m_source_file_index>
184

> <i_lp_mmshare_version>
43012

> <i_f3d_flags>
0

> <s_epik_input>
W0NIMl0xW0NIMl1bQ0gyXVtDSDJdW0NASF0oW0NASF0xMilbTkhdQyg9TylbQ0gyXU4yYyhuW2NIXW4zKWMoYzM0KW5bY0hdbjRbQ0gyXUM1KFtPSF0pW0NIMl1bQ0gyXU9bQ0gyXVtDSDJdNQ==

> <s_epik_cmdline>
J2VwaWtfcHl0aG9uJywgJy1waCcsICc3LjAnLCAnLXRuJywgJzgnLCAnLW1hJywgJzIwMCcsICctbWV0YWxfYmluZGluZycsICctaW1hZScsICc8aW5maWxlLm1hZT4nLCAnLW9tYWUnLCAnPG91dGZpbGUubWFlPic=

> <r_lp_tautomer_probability>
1

> <r_epik_Ionization_Penalty>
0.000822761

> <r_epik_Ionization_Penalty_Charging>
0

> <r_epik_Ionization_Penalty_Neutral>
0.000822761

> <r_epik_State_Penalty>
0.000403048

> <r_epik_Charging_Adjusted_Penalty>
0.000403048

> <i_epik_Tot_Q>
0

> <i_epik_Tot_abs_Q>
0

> <r_epik_Metal_State_Penalty>
-0

> <b_epik_Metal_Only>
0

> <s_lp_Force_Field>
OPLS_2005

> <r_lp_Energy>
36.9453

> <b_lp_Chiralities_Consistent>
1

> <s_lp_Variant>
AV-unprocessed.smi:184-4

> <Gold.Version>
5.8.1

> <Gold.Id.Protein>
6NUR|6NUR_protein|mol2

> <Gold.PLP.Fitness>
44.2069

> <Gold.PLP.PLP>
-39.8915

> <Gold.PLP.part.hbond>
-1.3054

> <Gold.PLP.part.metal>
0.0000

> <Gold.PLP.part.buried>
-4.2441

> <Gold.PLP.part.nonpolar>
-35.4113

> <Gold.PLP.part.repulsive>
1.0738

> <Gold.PLP.ligand.clash>
0.0000

> <Gold.PLP.ligand.torsion>
0.5146

> <Gold.PLP.Chemscore.Hbond>
0.8564

> <Gold.PLP.Chemscore.CHOScore>
0.8627

> <Gold.PLP.Chemscore.Metal>
0.0000

> <Gold.Chemscore.Hbonds>
donor molecule, donor type, donor heavy atom, donor atom, acceptor molecule, acceptor atom, score
      P1  H  7997  8009       L1     1  0.81
      L1  C     7    31       P1  7957  0.88

> <Gold.PLP.Chemscore.Internal.Correction>
0.1871

> <Gold.Rescore>
     Score         DG    S(hbond)    S(metal)    S(lipo)     H(rot)  DE(clash)    DE(int)     intcor
      9.04     -13.32       0.37        0.00      96.27       1.83       2.58       1.70       ----

> <Gold.Chemscore.Fitness>
9.0384

> <Gold.Chemscore.DG>
-13.3188

> <Gold.Chemscore.ZeroCoef>
-5.4800

> <Gold.Chemscore.Hbond>
0.3739

> <Gold.Chemscore.Metal>
0.0000

> <Gold.Chemscore.Lipo>
96.2658

> <Gold.Chemscore.Internal_Hbond>
0.0000

> <Gold.Chemscore.DEClash>
2.5768

> <Gold.Chemscore.DEInternal>
1.7037

> <Gold.Chemscore.Rot>
1.8255

> <Gold.Chemscore.Internal.Correction>
   9.000000E+99

> <Gold.Chemscore.Hbonds>
donor molecule, donor type, donor heavy atom, donor atom, acceptor molecule, acceptor atom, score
      P1  H  7997  8009       L1     1  0.17

> <Gold.Chemscore.Hbond.Weighted>
-1.2489

> <Gold.Chemscore.Metal.Weighted>
-0.0000

> <Gold.Chemscore.Lipo.Weighted>
-11.2631

> <Gold.Chemscore.Internal_Hbond.Weighted>
0.0000

> <Gold.Chemscore.DEClash.Weighted>
2.5768

> <Gold.Chemscore.DEInternal.Weighted>
1.7037

> <Gold.Chemscore.Rot.Weighted>
4.6732

> <Gold.Chemscore.Internal.Correction.Weighted>
   9.000000E+99

> <Gold.Protein.RotatedTorsions>
[ 6907 6896 6895 6894 ] final   13.75 input  -60.11 | X-H torsion
[ 7974 7965 7964 7962 ] final  -49.80 input  175.53 | X-H torsion
[ 8008 7997 7996 7995 ] final -142.58 input   59.86 | X-H torsion
[ 10167 10162 10161 10158 ] final  121.30 input  -65.29 | X-H torsion
[ 10718 10713 10712 10709 ] final   31.54 input   66.30 | X-H torsion
[ 10763 10752 10751 10750 ] final  -66.54 input  -60.55 | X-H torsion
[ 11005 11000 10999 10996 ] final -158.78 input  -57.11 | X-H torsion

> <Gold.Protein.ActiveResidues>
 VAL166  LYS551  ARG553  GLY616  TRP617  ASP618  TYR619  PRO620  LYS621  CYS622 
 ASP623  PHE694  ASN695  SER759  ASP760  ASP761  ALA762  ILE779  LEU786  VAL792 
 PHE793  MET794  SER795  GLU796  ALA797  LYS798  CYS799  TRP800  GLU811  SER814 

> <Gold.Protein.RotatedAtoms>
  151.7913  135.0735  160.0387 H   0  0  0  0  0  0  0  0  0  0  0  0  # atno 6907 bound_to 6896
  152.3154  133.5793  159.5717 H   0  0  0  0  0  0  0  0  0  0  0  0  # atno 6908 bound_to 6896
  150.7342  134.0006  159.3679 H   0  0  0  0  0  0  0  0  0  0  0  0  # atno 6909 bound_to 6896
  145.9367  140.7700  142.9572 H   0  0  0  0  0  0  0  0  0  0  0  0  # atno 7974 bound_to 7965
  155.4966  140.0572  157.2945 H   0  0  0  0  0  0  0  0  0  0  0  0  # atno 8008 bound_to 7997
  154.4603  140.1993  156.0214 H   0  0  0  0  0  0  0  0  0  0  0  0  # atno 8009 bound_to 7997
  156.0877  140.3238  155.7779 H   0  0  0  0  0  0  0  0  0  0  0  0  # atno 8010 bound_to 7997
  139.5928  144.7031  151.3248 H   0  0  0  0  0  0  0  0  0  0  0  0  # atno 10167 bound_to 10162
  157.2738  130.7221  149.6519 H   0  0  0  0  0  0  0  0  0  0  0  0  # atno 10718 bound_to 10713
  154.3613  135.6115  153.5692 H   0  0  0  0  0  0  0  0  0  0  0  0  # atno 10763 bound_to 10752
  152.9793  135.5816  154.4629 H   0  0  0  0  0  0  0  0  0  0  0  0  # atno 10764 bound_to 10752
  154.4367  135.2849  155.1853 H   0  0  0  0  0  0  0  0  0  0  0  0  # atno 10765 bound_to 10752
  140.6498  134.4462  157.5235 H   0  0  0  0  0  0  0  0  0  0  0  0  # atno 11005 bound_to 11000
  144.6773  140.2214  143.7366 LP  0  0  0  0  0  0  0  0  0  0  0  0  # atno 17320 bound_to 7965
  145.8354  139.2105  143.1858 LP  0  0  0  0  0  0  0  0  0  0  0  0  # atno 17321 bound_to 7965
  140.7187  143.7194  150.7707 LP  0  0  0  0  0  0  0  0  0  0  0  0  # atno 17342 bound_to 10162
  140.0754  143.5020  152.2558 LP  0  0  0  0  0  0  0  0  0  0  0  0  # atno 17343 bound_to 10162
  155.9663  130.4359  150.5112 LP  0  0  0  0  0  0  0  0  0  0  0  0  # atno 17370 bound_to 10713
  157.3042  131.0651  151.2047 LP  0  0  0  0  0  0  0  0  0  0  0  0  # atno 17371 bound_to 10713
  139.9050  134.8470  156.1743 LP  0  0  0  0  0  0  0  0  0  0  0  0  # atno 17394 bound_to 11000
  141.0545  133.6872  156.1834 LP  0  0  0  0  0  0  0  0  0  0  0  0  # atno 17395 bound_to 11000

$$$$
