AV-unprocessed.smi:1813|AV-procd|sdf|7347|dock9
  -GOLD-   22720 9 13D 1   1.00000     0.00000
 Structure written by MMmdl.
 39 40  0  0  0  0  0  0  0  0  3 V2000
  148.9885  132.8500  153.2783 C   0  0  0  0  0  0  0  0  0  0  0  0
  148.5585  134.1465  153.7794 N   0  0  0  0  0  0  0  0  0  0  0  0
  148.4055  134.4404  155.0781 C   0  0  0  0  0  0  0  0  0  0  0  0
  148.6244  133.6348  155.9836 O   0  0  0  0  0  0  0  0  0  0  0  0
  147.9545  135.8685  155.4009 C   0  0  0  0  0  0  0  0  0  0  0  0
  148.7703  136.9061  154.7192 N   0  3  2  0  0  0  0  0  0  0  0  0
  150.2118  136.8432  155.0829 C   0  0  0  0  0  0  0  0  0  0  0  0
  151.0353  137.8559  154.2686 C   0  0  0  0  0  0  0  0  0  0  0  0
  150.5011  139.2920  154.4383 C   0  0  2  0  0  0  0  0  0  0  0  0
  150.7151  139.7917  155.7961 N   0  0  0  0  0  0  0  0  0  0  0  0
  151.8863  139.8618  156.4437 C   0  0  0  0  0  0  0  0  0  0  0  0
  152.9246  139.5073  155.8813 O   0  0  0  0  0  0  0  0  0  0  0  0
  151.7746  140.3297  157.7070 N   0  5  0  0  0  0  0  0  0  0  0  0
  151.8920  141.6454  157.9495 C   0  0  0  0  0  0  0  0  0  0  0  0
  151.2325  142.5768  157.2518 N   0  0  0  0  0  0  0  0  0  0  0  0
  151.4951  143.8798  157.6791 C   0  0  0  0  0  0  0  0  0  0  0  0
  152.3689  143.9411  158.7322 C   0  0  0  0  0  0  0  0  0  0  0  0
  152.8909  142.3546  159.2217 S   0  0  0  0  0  0  0  0  0  0  0  0
  149.0019  139.3173  154.0974 C   0  0  0  0  0  0  0  0  0  0  0  0
  148.2129  138.2705  154.9064 C   0  0  0  0  0  0  0  0  0  0  0  0
  148.9715  132.8484  152.1885 H   0  0  0  0  0  0  0  0  0  0  0  0
  148.3281  132.0561  153.6298 H   0  0  0  0  0  0  0  0  0  0  0  0
  150.0055  132.6275  153.6041 H   0  0  0  0  0  0  0  0  0  0  0  0
  148.3657  134.8641  153.0951 H   0  0  0  0  0  0  0  0  0  0  0  0
  146.9162  135.9462  155.0759 H   0  0  0  0  0  0  0  0  0  0  0  0
  147.9590  136.0396  156.4789 H   0  0  0  0  0  0  0  0  0  0  0  0
  150.3293  137.0332  156.1510 H   0  0  0  0  0  0  0  0  0  0  0  0
  150.6021  135.8418  154.8999 H   0  0  0  0  0  0  0  0  0  0  0  0
  152.0858  137.7982  154.5550 H   0  0  0  0  0  0  0  0  0  0  0  0
  150.9974  137.5815  153.2136 H   0  0  0  0  0  0  0  0  0  0  0  0
  151.0241  139.9540  153.7458 H   0  0  0  0  0  0  0  0  0  0  0  0
  149.8994  140.1094  156.2986 H   0  0  0  0  0  0  0  0  0  0  0  0
  151.0146  144.7054  157.1758 H   0  0  0  0  0  0  0  0  0  0  0  0
  152.7350  144.8160  159.2475 H   0  0  0  0  0  0  0  0  0  0  0  0
  148.5914  140.3125  154.2726 H   0  0  0  0  0  0  0  0  0  0  0  0
  148.8720  139.1190  153.0326 H   0  0  0  0  0  0  0  0  0  0  0  0
  147.1706  138.2871  154.5865 H   0  0  0  0  0  0  0  0  0  0  0  0
  148.2202  138.5244  155.9677 H   0  0  0  0  0  0  0  0  0  0  0  0
  148.7091  136.7078  153.7305 H   0  0  0  0  0  0  0  0  0  0  0  0
  1  2  1  0  0  0  0
  1 21  1  0  0  0  0
  1 22  1  0  0  0  0
  1 23  1  0  0  0  0
  2  3  1  0  0  0  0
  2 24  1  0  0  0  0
  3  4  2  0  0  0  0
  3  5  1  0  0  0  0
  5  6  1  0  0  0  0
  5 25  1  0  0  0  0
  5 26  1  0  0  0  0
  6 20  1  0  0  0  0
  6  7  1  0  0  0  0
  6 39  1  0  0  0  0
  7  8  1  0  0  0  0
  7 27  1  0  0  0  0
  7 28  1  0  0  0  0
  8  9  1  0  0  0  0
  8 29  1  0  0  0  0
  8 30  1  0  0  0  0
  9 10  1  0  0  0  0
  9 19  1  0  0  0  0
  9 31  1  0  0  0  0
 10 11  1  0  0  0  0
 10 32  1  0  0  0  0
 11 12  2  0  0  0  0
 11 13  1  0  0  0  0
 13 14  1  0  0  0  0
 14 18  1  0  0  0  0
 14 15  2  0  0  0  0
 15 16  1  0  0  0  0
 16 17  2  0  0  0  0
 16 33  1  0  0  0  0
 17 18  1  0  0  0  0
 17 34  1  0  0  0  0
 19 20  1  0  0  0  0
 19 35  1  0  0  0  0
 19 36  1  0  0  0  0
 20 37  1  0  0  0  0
 20 38  1  0  0  0  0
M  CHG  1   6   1
M  CHG  1  13  -1
M  END
> <s_m_source_file>
AV-unprocessed.smi

> <i_m_source_file_index>
1813

> <i_lp_mmshare_version>
43012

> <i_f3d_flags>
0

> <s_epik_input>
W0NIM11bTkhdQyg9TylbQ0gyXU4xW0NIMl1bQ0gyXVtDSF0oW0NIMl1bQ0gyXTEpW05IXUMoPU8pW05IXWMybltjSF1bY0hdczI=

> <s_epik_cmdline>
J2VwaWtfcHl0aG9uJywgJy1waCcsICc3LjAnLCAnLXRuJywgJzgnLCAnLW1hJywgJzIwMCcsICctbWV0YWxfYmluZGluZycsICctaW1hZScsICc8aW5maWxlLm1hZT4nLCAnLW9tYWUnLCAnPG91dGZpbGUubWFlPic=

> <r_lp_tautomer_probability>
0.999

> <r_epik_Ionization_Penalty>
7.12128

> <r_epik_Ionization_Penalty_Charging>
6.25357

> <r_epik_Ionization_Penalty_Neutral>
0.867707

> <r_epik_State_Penalty>
6.33838

> <r_epik_Charging_Adjusted_Penalty>
12.592

> <i_epik_Tot_Q>
0

> <i_epik_Tot_abs_Q>
2

> <r_epik_Metal_State_Penalty>
2.34161

> <b_epik_Metal_Only>
1

> <s_lp_Force_Field>
OPLS_2005

> <r_lp_Energy>
4.26142

> <b_lp_Chiralities_Consistent>
1

> <s_lp_Variant>
AV-unprocessed.smi:1813-8

> <Gold.Version>
5.8.1

> <Gold.Id.Protein>
6NUR|6NUR_protein|mol2

> <Gold.PLP.Fitness>
46.4990

> <Gold.PLP.PLP>
-34.0968

> <Gold.PLP.part.hbond>
-3.0000

> <Gold.PLP.part.metal>
0.0000

> <Gold.PLP.part.buried>
-2.9486

> <Gold.PLP.part.nonpolar>
-28.8948

> <Gold.PLP.part.repulsive>
0.1867

> <Gold.PLP.ligand.clash>
0.0000

> <Gold.PLP.ligand.torsion>
1.2767

> <Gold.PLP.Chemscore.Hbond>
4.0000

> <Gold.PLP.Chemscore.CHOScore>
0.9769

> <Gold.PLP.Chemscore.Metal>
0.0000

> <Gold.Chemscore.Hbonds>
donor molecule, donor type, donor heavy atom, donor atom, acceptor molecule, acceptor atom, score
      L1  H     2    24       P1  7948  1.00
      L1  H     6    39       P1  7948  2.00
      P1  H  7997  8008       L1    12  1.00
      L1  C    16    33       P1  8028  0.89

> <Gold.PLP.Chemscore.Internal.Correction>
0.0248

> <Gold.Rescore>
     Score         DG    S(hbond)    S(metal)    S(lipo)     H(rot)  DE(clash)    DE(int)     intcor
     17.15     -18.42       2.82        0.00      68.66       1.76       0.11       1.16       ----

> <Gold.Chemscore.Fitness>
17.1505

> <Gold.Chemscore.DG>
-18.4241

> <Gold.Chemscore.ZeroCoef>
-5.4800

> <Gold.Chemscore.Hbond>
2.8195

> <Gold.Chemscore.Metal>
0.0000

> <Gold.Chemscore.Lipo>
68.6599

> <Gold.Chemscore.Internal_Hbond>
0.0000

> <Gold.Chemscore.DEClash>
0.1142

> <Gold.Chemscore.DEInternal>
1.1593

> <Gold.Chemscore.Rot>
1.7603

> <Gold.Chemscore.Internal.Correction>
   9.000000E+99

> <Gold.Chemscore.Hbonds>
donor molecule, donor type, donor heavy atom, donor atom, acceptor molecule, acceptor atom, score
      L1  H     2    24       P1  7948  0.70
      L1  H     6    39       P1  7948  0.99
      P1  H  7997  8008       L1    12  0.97

> <Gold.Chemscore.Hbond.Weighted>
-9.4173

> <Gold.Chemscore.Metal.Weighted>
-0.0000

> <Gold.Chemscore.Lipo.Weighted>
-8.0332

> <Gold.Chemscore.Internal_Hbond.Weighted>
0.0000

> <Gold.Chemscore.DEClash.Weighted>
0.1142

> <Gold.Chemscore.DEInternal.Weighted>
1.1593

> <Gold.Chemscore.Rot.Weighted>
4.5064

> <Gold.Chemscore.Internal.Correction.Weighted>
   9.000000E+99

> <Gold.Protein.RotatedTorsions>
[ 6907 6896 6895 6894 ] final  -56.76 input  -60.11 | X-H torsion
[ 7974 7965 7964 7962 ] final  166.00 input  175.53 | X-H torsion
[ 8008 7997 7996 7995 ] final  -39.27 input   59.86 | X-H torsion
[ 10167 10162 10161 10158 ] final -159.00 input  -65.29 | X-H torsion
[ 10718 10713 10712 10709 ] final -134.91 input   66.30 | X-H torsion
[ 10763 10752 10751 10750 ] final   92.14 input  -60.55 | X-H torsion
[ 11005 11000 10999 10996 ] final   57.06 input  -57.11 | X-H torsion

> <Gold.Protein.ActiveResidues>
 VAL166  LYS551  ARG553  GLY616  TRP617  ASP618  TYR619  PRO620  LYS621  CYS622 
 ASP623  PHE694  ASN695  SER759  ASP760  ASP761  ALA762  ILE779  LEU786  VAL792 
 PHE793  MET794  SER795  GLU796  ALA797  LYS798  CYS799  TRP800  GLU811  SER814 

> <Gold.Protein.RotatedAtoms>
  150.8141  134.7313  159.6713 H   0  0  0  0  0  0  0  0  0  0  0  0  # atno 6907 bound_to 6896
  152.4260  134.5864  159.9972 H   0  0  0  0  0  0  0  0  0  0  0  0  # atno 6908 bound_to 6896
  151.6066  133.3314  159.3094 H   0  0  0  0  0  0  0  0  0  0  0  0  # atno 6909 bound_to 6896
  144.7480  139.8552  143.6376 H   0  0  0  0  0  0  0  0  0  0  0  0  # atno 7974 bound_to 7965
  154.4025  140.1556  156.2836 H   0  0  0  0  0  0  0  0  0  0  0  0  # atno 8008 bound_to 7997
  155.8848  140.3442  155.5891 H   0  0  0  0  0  0  0  0  0  0  0  0  # atno 8009 bound_to 7997
  155.7626  140.0819  157.2138 H   0  0  0  0  0  0  0  0  0  0  0  0  # atno 8010 bound_to 7997
  139.6649  143.9848  152.2248 H   0  0  0  0  0  0  0  0  0  0  0  0  # atno 10167 bound_to 10162
  156.2605  130.7207  151.1139 H   0  0  0  0  0  0  0  0  0  0  0  0  # atno 10718 bound_to 10713
  153.2159  135.4372  155.0434 H   0  0  0  0  0  0  0  0  0  0  0  0  # atno 10763 bound_to 10752
  154.8225  135.3344  154.6999 H   0  0  0  0  0  0  0  0  0  0  0  0  # atno 10764 bound_to 10752
  153.7434  135.7003  153.5017 H   0  0  0  0  0  0  0  0  0  0  0  0  # atno 10765 bound_to 10752
  140.0481  134.5776  155.9297 H   0  0  0  0  0  0  0  0  0  0  0  0  # atno 11005 bound_to 11000
  146.1388  139.4440  143.0122 LP  0  0  0  0  0  0  0  0  0  0  0  0  # atno 17320 bound_to 7965
  145.7051  141.0124  143.1483 LP  0  0  0  0  0  0  0  0  0  0  0  0  # atno 17321 bound_to 7965
  139.9596  144.6566  150.8092 LP  0  0  0  0  0  0  0  0  0  0  0  0  # atno 17342 bound_to 10162
  140.7595  143.3130  151.2799 LP  0  0  0  0  0  0  0  0  0  0  0  0  # atno 17343 bound_to 10162
  157.7249  131.0657  150.5977 LP  0  0  0  0  0  0  0  0  0  0  0  0  # atno 17370 bound_to 10713
  156.6064  130.4368  149.5876 LP  0  0  0  0  0  0  0  0  0  0  0  0  # atno 17371 bound_to 10713
  141.1917  133.6572  156.5469 LP  0  0  0  0  0  0  0  0  0  0  0  0  # atno 17394 bound_to 11000
  140.3960  134.7398  157.4751 LP  0  0  0  0  0  0  0  0  0  0  0  0  # atno 17395 bound_to 11000

$$$$
