AV-unprocessed.smi:2752|AV-procd|sdf|10608|dock7
  -GOLD-   2272015 63D 1   1.00000     0.00000
 Structure written by MMmdl.
 34 35  0  0  0  0  0  0  0  0  1 V2000
  153.1743  141.7222  160.2434 C   0  0  0  0  0  0  0  0  0  0  0  0
  151.7660  141.7944  160.0883 O   0  0  0  0  0  0  0  0  0  0  0  0
  151.3127  143.0253  159.5413 C   0  0  1  0  0  0  0  0  0  0  0  0
  151.8588  144.2348  160.3128 C   0  0  0  0  0  0  0  0  0  0  0  0
  151.9843  145.3319  159.2622 C   0  0  0  0  0  0  0  0  0  0  0  0
  152.4576  144.5898  158.0138 C   0  0  0  0  0  0  0  0  0  0  0  0
  151.8264  143.1853  158.0938 C   0  0  2  0  0  0  0  0  0  0  0  0
  150.7284  143.0441  157.1404 N   0  0  0  0  0  0  0  0  0  0  0  0
  150.5414  141.9934  156.3291 C   0  0  0  0  0  0  0  0  0  0  0  0
  151.2951  141.0203  156.2944 O   0  0  0  0  0  0  0  0  0  0  0  0
  149.4389  142.1522  155.5758 N   0  0  0  0  0  0  0  0  0  0  0  0
  148.9163  141.2759  154.5878 C   0  0  0  0  0  0  0  0  0  0  0  0
  147.7308  141.7214  153.9599 C   0  0  0  0  0  0  0  0  0  0  0  0
  147.1330  140.9255  152.9633 C   0  0  0  0  0  0  0  0  0  0  0  0
  147.7389  139.7040  152.6205 C   0  0  0  0  0  0  0  0  0  0  0  0
  147.2009  138.9052  151.6685 F   0  0  0  0  0  0  0  0  0  0  0  0
  148.9182  139.3333  153.2925 C   0  0  0  0  0  0  0  0  0  0  0  0
  149.4917  140.0949  154.2484 N   0  0  0  0  0  0  0  0  0  0  0  0
  153.4431  140.7600  160.6787 H   0  0  0  0  0  0  0  0  0  0  0  0
  153.5375  142.5043  160.9109 H   0  0  0  0  0  0  0  0  0  0  0  0
  153.6902  141.8105  159.2868 H   0  0  0  0  0  0  0  0  0  0  0  0
  150.2209  143.0604  159.5497 H   0  0  0  0  0  0  0  0  0  0  0  0
  151.2208  144.5249  161.1480 H   0  0  0  0  0  0  0  0  0  0  0  0
  152.8478  144.0055  160.7128 H   0  0  0  0  0  0  0  0  0  0  0  0
  151.0071  145.7798  159.0777 H   0  0  0  0  0  0  0  0  0  0  0  0
  152.6671  146.1270  159.5625 H   0  0  0  0  0  0  0  0  0  0  0  0
  152.2118  145.1297  157.0984 H   0  0  0  0  0  0  0  0  0  0  0  0
  153.5438  144.4947  158.0452 H   0  0  0  0  0  0  0  0  0  0  0  0
  152.5903  142.4343  157.8822 H   0  0  0  0  0  0  0  0  0  0  0  0
  150.0606  143.7999  157.1038 H   0  0  0  0  0  0  0  0  0  0  0  0
  148.9152  143.0021  155.7230 H   0  0  0  0  0  0  0  0  0  0  0  0
  147.2798  142.6634  154.2363 H   0  0  0  0  0  0  0  0  0  0  0  0
  146.2270  141.2476  152.4717 H   0  0  0  0  0  0  0  0  0  0  0  0
  149.4146  138.4033  153.0578 H   0  0  0  0  0  0  0  0  0  0  0  0
  1  2  1  0  0  0  0
  1 19  1  0  0  0  0
  1 20  1  0  0  0  0
  1 21  1  0  0  0  0
  2  3  1  0  0  0  0
  3  7  1  0  0  0  0
  3  4  1  0  0  0  0
  3 22  1  0  0  0  0
  4  5  1  0  0  0  0
  4 23  1  0  0  0  0
  4 24  1  0  0  0  0
  5  6  1  0  0  0  0
  5 25  1  0  0  0  0
  5 26  1  0  0  0  0
  6  7  1  0  0  0  0
  6 27  1  0  0  0  0
  6 28  1  0  0  0  0
  7  8  1  0  0  0  0
  7 29  1  0  0  0  0
  8  9  1  0  0  0  0
  8 30  1  0  0  0  0
  9 10  2  0  0  0  0
  9 11  1  0  0  0  0
 11 12  1  0  0  0  0
 11 31  1  0  0  0  0
 12 18  1  0  0  0  0
 12 13  2  0  0  0  0
 13 14  1  0  0  0  0
 13 32  1  0  0  0  0
 14 15  2  0  0  0  0
 14 33  1  0  0  0  0
 15 16  1  0  0  0  0
 15 17  1  0  0  0  0
 17 18  2  0  0  0  0
 17 34  1  0  0  0  0
M  END
> <s_m_source_file>
AV-unprocessed.smi

> <i_m_source_file_index>
2752

> <i_lp_mmshare_version>
43012

> <i_f3d_flags>
0

> <s_epik_input>
W0NIM11PW0NAQEhdMVtDSDJdW0NIMl1bQ0gyXVtDQEhdMVtOSF1DKD1PKVtOSF1jMltjSF1bY0hdYyhGKVtjSF1uMg==

> <s_epik_cmdline>
J2VwaWtfcHl0aG9uJywgJy1waCcsICc3LjAnLCAnLXRuJywgJzgnLCAnLW1hJywgJzIwMCcsICctbWV0YWxfYmluZGluZycsICctaW1hZScsICc8aW5maWxlLm1hZT4nLCAnLW9tYWUnLCAnPG91dGZpbGUubWFlPic=

> <r_lp_tautomer_probability>
1

> <r_epik_Ionization_Penalty>
3.49853e-05

> <r_epik_Ionization_Penalty_Charging>
0

> <r_epik_Ionization_Penalty_Neutral>
3.49853e-05

> <r_epik_State_Penalty>
-0

> <r_epik_Charging_Adjusted_Penalty>
0

> <i_epik_Tot_Q>
0

> <i_epik_Tot_abs_Q>
0

> <r_epik_Metal_State_Penalty>
-0

> <b_epik_Metal_Only>
0

> <s_lp_Force_Field>
OPLS_2005

> <r_lp_Energy>
21.736

> <b_lp_Chiralities_Consistent>
1

> <s_lp_Variant>
AV-unprocessed.smi:2752-4

> <Gold.Version>
5.8.1

> <Gold.Id.Protein>
6NUR|6NUR_protein|mol2

> <Gold.PLP.Fitness>
50.3578

> <Gold.PLP.PLP>
-42.2008

> <Gold.PLP.part.hbond>
-3.0000

> <Gold.PLP.part.metal>
0.0000

> <Gold.PLP.part.buried>
-1.5559

> <Gold.PLP.part.nonpolar>
-38.4024

> <Gold.PLP.part.repulsive>
0.3055

> <Gold.PLP.ligand.clash>
0.0000

> <Gold.PLP.ligand.torsion>
0.1720

> <Gold.PLP.Chemscore.Hbond>
1.8320

> <Gold.PLP.Chemscore.CHOScore>
1.0000

> <Gold.PLP.Chemscore.Metal>
0.0000

> <Gold.Chemscore.Hbonds>
donor molecule, donor type, donor heavy atom, donor atom, acceptor molecule, acceptor atom, score
      L1  H     8    30       P1  8028  0.70
      L1  H    11    31       P1  8028  0.96
      P1  H  7989  7998       L1    18  0.09
      L1  C    17    34       P1  7948  1.00

> <Gold.PLP.Chemscore.Internal.Correction>
0.0050

> <Gold.Rescore>
     Score         DG    S(hbond)    S(metal)    S(lipo)     H(rot)  DE(clash)    DE(int)     intcor
     18.30     -20.52       1.94        0.00     101.14       1.28       0.90       1.33       ----

> <Gold.Chemscore.Fitness>
18.2962

> <Gold.Chemscore.DG>
-20.5194

> <Gold.Chemscore.ZeroCoef>
-5.4800

> <Gold.Chemscore.Hbond>
1.9425

> <Gold.Chemscore.Metal>
0.0000

> <Gold.Chemscore.Lipo>
101.1403

> <Gold.Chemscore.Internal_Hbond>
0.0000

> <Gold.Chemscore.DEClash>
0.8959

> <Gold.Chemscore.DEInternal>
1.3272

> <Gold.Chemscore.Rot>
1.2821

> <Gold.Chemscore.Internal.Correction>
   9.000000E+99

> <Gold.Chemscore.Hbonds>
donor molecule, donor type, donor heavy atom, donor atom, acceptor molecule, acceptor atom, score
      L1  H     8    30       P1  8028  0.64
      L1  H    11    31       P1  8028  0.92
      P1  H  7989  7998       L1    18  0.02

> <Gold.Chemscore.Hbond.Weighted>
-6.4881

> <Gold.Chemscore.Metal.Weighted>
-0.0000

> <Gold.Chemscore.Lipo.Weighted>
-11.8334

> <Gold.Chemscore.Internal_Hbond.Weighted>
0.0000

> <Gold.Chemscore.DEClash.Weighted>
0.8959

> <Gold.Chemscore.DEInternal.Weighted>
1.3272

> <Gold.Chemscore.Rot.Weighted>
3.2822

> <Gold.Chemscore.Internal.Correction.Weighted>
   9.000000E+99

> <Gold.Protein.RotatedTorsions>
[ 6907 6896 6895 6894 ] final -130.76 input  -60.11 | X-H torsion
[ 7974 7965 7964 7962 ] final    4.31 input  175.53 | X-H torsion
[ 8008 7997 7996 7995 ] final   63.36 input   59.86 | X-H torsion
[ 10167 10162 10161 10158 ] final  169.23 input  -65.29 | X-H torsion
[ 10718 10713 10712 10709 ] final  -94.69 input   66.30 | X-H torsion
[ 10763 10752 10751 10750 ] final  172.00 input  -60.55 | X-H torsion
[ 11005 11000 10999 10996 ] final   81.81 input  -57.11 | X-H torsion

> <Gold.Protein.ActiveResidues>
 VAL166  LYS551  ARG553  GLY616  TRP617  ASP618  TYR619  PRO620  LYS621  CYS622 
 ASP623  PHE694  ASN695  SER759  ASP760  ASP761  ALA762  ILE779  LEU786  VAL792 
 PHE793  MET794  SER795  GLU796  ALA797  LYS798  CYS799  TRP800  GLU811  SER814 

> <Gold.Protein.RotatedAtoms>
  150.9433  133.6631  159.2786 H   0  0  0  0  0  0  0  0  0  0  0  0  # atno 6907 bound_to 6896
  151.4013  135.0970  159.9566 H   0  0  0  0  0  0  0  0  0  0  0  0  # atno 6908 bound_to 6896
  152.5079  133.8927  159.7456 H   0  0  0  0  0  0  0  0  0  0  0  0  # atno 6909 bound_to 6896
  146.2444  140.0554  142.8372 H   0  0  0  0  0  0  0  0  0  0  0  0  # atno 7974 bound_to 7965
  155.6289  140.3496  155.4676 H   0  0  0  0  0  0  0  0  0  0  0  0  # atno 8008 bound_to 7997
  156.0019  140.1215  157.0563 H   0  0  0  0  0  0  0  0  0  0  0  0  # atno 8009 bound_to 7997
  154.4251  140.1099  156.5694 H   0  0  0  0  0  0  0  0  0  0  0  0  # atno 8010 bound_to 7997
  139.4987  144.3728  151.9706 H   0  0  0  0  0  0  0  0  0  0  0  0  # atno 10167 bound_to 10162
  156.0031  130.5078  150.5964 H   0  0  0  0  0  0  0  0  0  0  0  0  # atno 10718 bound_to 10713
  154.4199  135.2757  155.1982 H   0  0  0  0  0  0  0  0  0  0  0  0  # atno 10763 bound_to 10752
  154.3933  135.6061  153.5859 H   0  0  0  0  0  0  0  0  0  0  0  0  # atno 10764 bound_to 10752
  152.9833  135.5908  154.4493 H   0  0  0  0  0  0  0  0  0  0  0  0  # atno 10765 bound_to 10752
  139.9085  134.8025  156.2091 H   0  0  0  0  0  0  0  0  0  0  0  0  # atno 11005 bound_to 11000
  145.0947  140.9307  143.4748 LP  0  0  0  0  0  0  0  0  0  0  0  0  # atno 17320 bound_to 7965
  145.0734  139.3014  143.5820 LP  0  0  0  0  0  0  0  0  0  0  0  0  # atno 17321 bound_to 7965
  140.3164  144.3478  150.6020 LP  0  0  0  0  0  0  0  0  0  0  0  0  # atno 17342 bound_to 10162
  140.5757  143.2176  151.7519 LP  0  0  0  0  0  0  0  0  0  0  0  0  # atno 17343 bound_to 10162
  157.3821  131.0782  151.1468 LP  0  0  0  0  0  0  0  0  0  0  0  0  # atno 17370 bound_to 10713
  157.2187  130.6471  149.5802 LP  0  0  0  0  0  0  0  0  0  0  0  0  # atno 17371 bound_to 10713
  141.0476  133.6905  156.1713 LP  0  0  0  0  0  0  0  0  0  0  0  0  # atno 17394 bound_to 11000
  140.6859  134.4717  157.5589 LP  0  0  0  0  0  0  0  0  0  0  0  0  # atno 17395 bound_to 11000

$$$$
