AV-unprocessed.smi:2881|AV-procd|sdf|11069|dock8
  -GOLD-   2272015543D 1   1.00000     0.00000
 Structure written by MMmdl.
 40 42  0  0  0  0  0  0  0  0  1 V2000
  147.2895  135.6146  162.8045 C   0  0  0  0  0  0  0  0  0  0  0  0
  147.6661  135.9449  161.3903 C   0  0  0  0  0  0  0  0  0  0  0  0
  148.0239  135.0474  160.3418 C   0  0  0  0  0  0  0  0  0  0  0  0
  148.2627  135.8591  159.2680 C   0  0  0  0  0  0  0  0  0  0  0  0
  148.6735  135.5449  157.8640 C   0  0  0  0  0  0  0  0  0  0  0  0
  149.9447  136.2977  157.4591 C   0  0  0  0  0  0  0  0  0  0  0  0
  151.0093  136.0866  158.0409 O   0  0  0  0  0  0  0  0  0  0  0  0
  149.8178  137.1860  156.4614 N   0  0  0  0  0  0  0  0  0  0  0  0
  150.9044  138.0111  155.9316 C   0  0  2  0  0  0  0  0  0  0  0  0
  151.5835  138.9026  157.0043 C   0  0  2  0  0  0  0  0  0  0  0  0
  150.5386  139.6972  157.8162 C   0  0  0  0  0  0  0  0  0  0  0  0
  150.0224  140.7193  156.7878 C   0  0  0  0  0  0  0  0  0  0  0  0
  150.8573  140.3976  155.5303 C   0  0  1  0  0  0  0  0  0  0  0  0
  152.1934  140.0128  156.1547 C   0  0  0  0  0  0  0  0  0  0  0  0
  150.4401  139.0562  154.8782 C   0  0  2  0  0  0  0  0  0  0  0  0
  148.9775  138.9640  154.3877 C   0  0  0  0  0  0  0  0  0  0  0  0
  148.6901  140.0285  153.5060 O   0  0  0  0  0  0  0  0  0  0  0  0
  148.0533  137.1468  159.7079 N   0  0  0  0  0  0  0  0  0  0  0  0
  147.6871  137.2111  161.0015 N   0  0  0  0  0  0  0  0  0  0  0  0
  148.1522  137.9791  159.1441 H   0  0  0  0  0  0  0  0  0  0  0  0
  147.3898  134.5468  162.9997 H   0  0  0  0  0  0  0  0  0  0  0  0
  146.2559  135.8939  163.0104 H   0  0  0  0  0  0  0  0  0  0  0  0
  147.9263  136.1422  163.5150 H   0  0  0  0  0  0  0  0  0  0  0  0
  148.0896  133.9698  160.3727 H   0  0  0  0  0  0  0  0  0  0  0  0
  147.8752  135.8202  157.1746 H   0  0  0  0  0  0  0  0  0  0  0  0
  148.8236  134.4697  157.7543 H   0  0  0  0  0  0  0  0  0  0  0  0
  148.9068  137.3064  156.0436 H   0  0  0  0  0  0  0  0  0  0  0  0
  151.6483  137.3578  155.4710 H   0  0  0  0  0  0  0  0  0  0  0  0
  152.2971  138.3641  157.6290 H   0  0  0  0  0  0  0  0  0  0  0  0
  149.7429  139.0798  158.2326 H   0  0  0  0  0  0  0  0  0  0  0  0
  151.0167  140.2108  158.6514 H   0  0  0  0  0  0  0  0  0  0  0  0
  148.9483  140.6473  156.6242 H   0  0  0  0  0  0  0  0  0  0  0  0
  150.2281  141.7337  157.1317 H   0  0  0  0  0  0  0  0  0  0  0  0
  150.9131  141.2255  154.8228 H   0  0  0  0  0  0  0  0  0  0  0  0
  152.6440  140.8135  156.7441 H   0  0  0  0  0  0  0  0  0  0  0  0
  152.9252  139.6510  155.4300 H   0  0  0  0  0  0  0  0  0  0  0  0
  151.0687  138.9188  153.9961 H   0  0  0  0  0  0  0  0  0  0  0  0
  148.8226  138.0284  153.8496 H   0  0  0  0  0  0  0  0  0  0  0  0
  148.2633  138.9768  155.2101 H   0  0  0  0  0  0  0  0  0  0  0  0
  149.1387  139.8724  152.6891 H   0  0  0  0  0  0  0  0  0  0  0  0
  1 21  1  0  0  0  0
  1 22  1  0  0  0  0
  1 23  1  0  0  0  0
  1  2  1  0  0  0  0
  2 19  2  0  0  0  0
  2  3  1  0  0  0  0
  3  4  2  0  0  0  0
  3 24  1  0  0  0  0
  4 18  1  0  0  0  0
  4  5  1  0  0  0  0
  5  6  1  0  0  0  0
  5 25  1  0  0  0  0
  5 26  1  0  0  0  0
  6  7  2  0  0  0  0
  6  8  1  0  0  0  0
  8  9  1  0  0  0  0
  8 27  1  0  0  0  0
  9 15  1  0  0  0  0
  9 10  1  0  0  0  0
  9 28  1  0  0  0  0
 10 14  1  0  0  0  0
 10 11  1  0  0  0  0
 10 29  1  0  0  0  0
 11 12  1  0  0  0  0
 11 30  1  0  0  0  0
 11 31  1  0  0  0  0
 12 13  1  0  0  0  0
 12 32  1  0  0  0  0
 12 33  1  0  0  0  0
 13 14  1  0  0  0  0
 13 15  1  0  0  0  0
 13 34  1  0  0  0  0
 14 35  1  0  0  0  0
 14 36  1  0  0  0  0
 15 16  1  0  0  0  0
 15 37  1  0  0  0  0
 16 17  1  0  0  0  0
 16 38  1  0  0  0  0
 16 39  1  0  0  0  0
 17 40  1  0  0  0  0
 18 19  1  0  0  0  0
 18 20  1  0  0  0  0
M  END
> <s_m_source_file>
AV-unprocessed.smi

> <i_m_source_file_index>
2881

> <i_lp_mmshare_version>
43012

> <i_f3d_flags>
0

> <s_epik_input>
W0NIM11jMVtjSF1jKG5bbkhdMSlbQ0gyXUMoPU8pW05IXVtDQEhdKFtDQEBIXTIzKVtDQEhdKFtDSDJdW09IXSlbQ0BASF0oW0NIMl0zKVtDSDJdW0NIMl0y

> <s_epik_cmdline>
J2VwaWtfcHl0aG9uJywgJy1waCcsICc3LjAnLCAnLXRuJywgJzgnLCAnLW1hJywgJzIwMCcsICctbWV0YWxfYmluZGluZycsICctaW1hZScsICc8aW5maWxlLm1hZT4nLCAnLW9tYWUnLCAnPG91dGZpbGUubWFlPic=

> <r_lp_tautomer_probability>
0.5

> <r_epik_Ionization_Penalty>
0.00013396

> <r_epik_Ionization_Penalty_Charging>
0

> <r_epik_Ionization_Penalty_Neutral>
0.00013396

> <r_epik_State_Penalty>
0.41068

> <r_epik_Charging_Adjusted_Penalty>
0.41068

> <i_epik_Tot_Q>
0

> <i_epik_Tot_abs_Q>
0

> <r_epik_Metal_State_Penalty>
0.41066

> <b_epik_Metal_Only>
0

> <s_lp_Force_Field>
OPLS_2005

> <r_lp_Energy>
50.1234

> <b_lp_Chiralities_Consistent>
1

> <s_lp_Variant>
AV-unprocessed.smi:2881-15

> <Gold.Version>
5.8.1

> <Gold.Id.Protein>
6NUR|6NUR_protein|mol2

> <Gold.PLP.Fitness>
38.1036

> <Gold.PLP.PLP>
-28.9571

> <Gold.PLP.part.hbond>
-3.9666

> <Gold.PLP.part.metal>
0.0000

> <Gold.PLP.part.buried>
-2.8782

> <Gold.PLP.part.nonpolar>
-21.7392

> <Gold.PLP.part.repulsive>
0.2080

> <Gold.PLP.ligand.clash>
0.0000

> <Gold.PLP.ligand.torsion>
0.0700

> <Gold.PLP.Chemscore.Hbond>
3.0914

> <Gold.PLP.Chemscore.CHOScore>
0.0000

> <Gold.PLP.Chemscore.Metal>
0.0000

> <Gold.Chemscore.Hbonds>
donor molecule, donor type, donor heavy atom, donor atom, acceptor molecule, acceptor atom, score
      L1  H    17    40       P1  7957  1.00
      P1  H  6896  6908       L1     7  0.52
      P1  H  6931  6943       L1    19  0.88
      P1  H  6934  6947       L1    19  0.67

> <Gold.PLP.Chemscore.Internal.Correction>
0.0123

> <Gold.Rescore>
     Score         DG    S(hbond)    S(metal)    S(lipo)     H(rot)  DE(clash)    DE(int)     intcor
     14.99     -15.08       2.03        0.00      74.03       2.28       0.02       0.08       ----

> <Gold.Chemscore.Fitness>
14.9857

> <Gold.Chemscore.DG>
-15.0822

> <Gold.Chemscore.ZeroCoef>
-5.4800

> <Gold.Chemscore.Hbond>
2.0258

> <Gold.Chemscore.Metal>
0.0000

> <Gold.Chemscore.Lipo>
74.0288

> <Gold.Chemscore.Internal_Hbond>
0.0000

> <Gold.Chemscore.DEClash>
0.0211

> <Gold.Chemscore.DEInternal>
0.0754

> <Gold.Chemscore.Rot>
2.2755

> <Gold.Chemscore.Internal.Correction>
   9.000000E+99

> <Gold.Chemscore.Hbonds>
donor molecule, donor type, donor heavy atom, donor atom, acceptor molecule, acceptor atom, score
      L1  H    17    40       P1  7957  0.99
      P1  H  6896  6908       L1     7  0.47
      P1  H  6931  6943       L1    19  0.41
      P1  H  6934  6947       L1    19  0.08

> <Gold.Chemscore.Hbond.Weighted>
-6.7660

> <Gold.Chemscore.Metal.Weighted>
-0.0000

> <Gold.Chemscore.Lipo.Weighted>
-8.6614

> <Gold.Chemscore.Internal_Hbond.Weighted>
0.0000

> <Gold.Chemscore.DEClash.Weighted>
0.0211

> <Gold.Chemscore.DEInternal.Weighted>
0.0754

> <Gold.Chemscore.Rot.Weighted>
5.8252

> <Gold.Chemscore.Internal.Correction.Weighted>
   9.000000E+99

> <Gold.Protein.RotatedTorsions>
[ 6907 6896 6895 6894 ] final -159.57 input  -60.11 | X-H torsion
[ 7974 7965 7964 7962 ] final   15.52 input  175.53 | X-H torsion
[ 8008 7997 7996 7995 ] final    9.60 input   59.86 | X-H torsion
[ 10167 10162 10161 10158 ] final  130.01 input  -65.29 | X-H torsion
[ 10718 10713 10712 10709 ] final  -40.97 input   66.30 | X-H torsion
[ 10763 10752 10751 10750 ] final  122.55 input  -60.55 | X-H torsion
[ 11005 11000 10999 10996 ] final   66.66 input  -57.11 | X-H torsion

> <Gold.Protein.ActiveResidues>
 VAL166  LYS551  ARG553  GLY616  TRP617  ASP618  TYR619  PRO620  LYS621  CYS622 
 ASP623  PHE694  ASN695  SER759  ASP760  ASP761  ALA762  ILE779  LEU786  VAL792 
 PHE793  MET794  SER795  GLU796  ALA797  LYS798  CYS799  TRP800  GLU811  SER814 

> <Gold.Protein.RotatedAtoms>
  151.3356  133.3983  159.2666 H   0  0  0  0  0  0  0  0  0  0  0  0  # atno 6907 bound_to 6896
  150.9919  134.9253  159.7915 H   0  0  0  0  0  0  0  0  0  0  0  0  # atno 6908 bound_to 6896
  152.5250  134.3321  159.9239 H   0  0  0  0  0  0  0  0  0  0  0  0  # atno 6909 bound_to 6896
  146.2276  139.8882  142.8559 H   0  0  0  0  0  0  0  0  0  0  0  0  # atno 7974 bound_to 7965
  154.7822  140.2821  155.6055 H   0  0  0  0  0  0  0  0  0  0  0  0  # atno 8008 bound_to 7997
  156.2951  140.2621  156.2578 H   0  0  0  0  0  0  0  0  0  0  0  0  # atno 8009 bound_to 7997
  154.9771  140.0375  157.2250 H   0  0  0  0  0  0  0  0  0  0  0  0  # atno 8010 bound_to 7997
  139.5450  144.6765  151.4502 H   0  0  0  0  0  0  0  0  0  0  0  0  # atno 10167 bound_to 10162
  156.2755  130.4211  149.8393 H   0  0  0  0  0  0  0  0  0  0  0  0  # atno 10718 bound_to 10713
  153.6315  135.3395  155.3043 H   0  0  0  0  0  0  0  0  0  0  0  0  # atno 10763 bound_to 10752
  154.8579  135.4297  154.2100 H   0  0  0  0  0  0  0  0  0  0  0  0  # atno 10764 bound_to 10752
  153.2997  135.7023  153.7288 H   0  0  0  0  0  0  0  0  0  0  0  0  # atno 10765 bound_to 10752
  139.9818  134.6731  156.0248 H   0  0  0  0  0  0  0  0  0  0  0  0  # atno 11005 bound_to 11000
  145.2444  141.0021  143.3917 LP  0  0  0  0  0  0  0  0  0  0  0  0  # atno 17320 bound_to 7965
  144.9426  139.4172  143.6441 LP  0  0  0  0  0  0  0  0  0  0  0  0  # atno 17321 bound_to 7965
  140.6695  143.8325  150.6982 LP  0  0  0  0  0  0  0  0  0  0  0  0  # atno 17342 bound_to 10162
  140.1745  143.4167  152.1977 LP  0  0  0  0  0  0  0  0  0  0  0  0  # atno 17343 bound_to 10162
  156.5859  130.8485  151.3395 LP  0  0  0  0  0  0  0  0  0  0  0  0  # atno 17370 bound_to 10713
  157.7298  130.9676  150.1802 LP  0  0  0  0  0  0  0  0  0  0  0  0  # atno 17371 bound_to 10713
  141.1489  133.6551  156.3952 LP  0  0  0  0  0  0  0  0  0  0  0  0  # atno 17394 bound_to 11000
  140.5081  134.6421  157.5274 LP  0  0  0  0  0  0  0  0  0  0  0  0  # atno 17395 bound_to 11000

$$$$
