AV-unprocessed.smi:2789|AV-procd|sdf|10763|dock9
  -GOLD-   2272015193D 1   1.00000     0.00000
 Structure written by MMmdl.
 35 36  0  0  0  0  0  0  0  0  1 V2000
  151.5400  138.4715  154.3311 C   0  0  0  0  0  0  0  0  0  0  0  0
  150.9953  139.7707  154.5041 O   0  0  0  0  0  0  0  0  0  0  0  0
  149.5732  139.7887  154.5403 C   0  0  1  0  0  0  0  0  0  0  0  0
  149.0434  138.8301  155.6048 C   0  0  0  0  0  0  0  0  0  0  0  0
  147.6061  139.2954  155.8259 C   0  0  0  0  0  0  0  0  0  0  0  0
  147.6496  140.8206  155.6711 C   0  0  0  0  0  0  0  0  0  0  0  0
  148.9511  141.1518  154.9080 C   0  0  1  0  0  0  0  0  0  0  0  0
  149.8624  141.9392  155.7372 N   0  0  0  0  0  0  0  0  0  0  0  0
  150.2603  141.6097  156.9736 C   0  0  0  0  0  0  0  0  0  0  0  0
  149.9118  140.5759  157.5440 O   0  0  0  0  0  0  0  0  0  0  0  0
  151.0713  142.5506  157.4873 N   0  0  0  0  0  0  0  0  0  0  0  0
  151.6757  142.5787  158.7048 C   0  0  0  0  0  0  0  0  0  0  0  0
  152.1206  141.5345  159.4689 C   0  0  0  0  0  0  0  0  0  0  0  0
  152.6557  142.1953  160.6115 C   0  0  0  0  0  0  0  0  0  0  0  0
  152.5479  143.5166  160.5464 N   0  0  0  0  0  0  0  0  0  0  0  0
  151.9403  143.7592  159.3643 N   0  0  0  0  0  0  0  0  0  0  0  0
  151.6600  145.1228  158.9584 C   0  0  0  0  0  0  0  0  0  0  0  0
  152.6278  138.5330  154.3067 H   0  0  0  0  0  0  0  0  0  0  0  0
  151.2103  138.0177  153.3960 H   0  0  0  0  0  0  0  0  0  0  0  0
  151.2601  137.8144  155.1551 H   0  0  0  0  0  0  0  0  0  0  0  0
  149.1757  139.4611  153.5773 H   0  0  0  0  0  0  0  0  0  0  0  0
  149.1057  137.7853  155.2995 H   0  0  0  0  0  0  0  0  0  0  0  0
  149.6132  138.9452  156.5281 H   0  0  0  0  0  0  0  0  0  0  0  0
  146.9634  138.8682  155.0550 H   0  0  0  0  0  0  0  0  0  0  0  0
  147.2111  138.9839  156.7932 H   0  0  0  0  0  0  0  0  0  0  0  0
  146.7719  141.1793  155.1324 H   0  0  0  0  0  0  0  0  0  0  0  0
  147.6326  141.2953  156.6535 H   0  0  0  0  0  0  0  0  0  0  0  0
  148.7333  141.7064  153.9933 H   0  0  0  0  0  0  0  0  0  0  0  0
  150.1932  142.8082  155.3435 H   0  0  0  0  0  0  0  0  0  0  0  0
  151.2524  143.3501  156.8984 H   0  0  0  0  0  0  0  0  0  0  0  0
  152.0819  140.4751  159.2650 H   0  0  0  0  0  0  0  0  0  0  0  0
  153.1192  141.7565  161.4826 H   0  0  0  0  0  0  0  0  0  0  0  0
  152.2231  145.3585  158.0552 H   0  0  0  0  0  0  0  0  0  0  0  0
  151.9421  145.8241  159.7449 H   0  0  0  0  0  0  0  0  0  0  0  0
  150.5948  145.2326  158.7537 H   0  0  0  0  0  0  0  0  0  0  0  0
  1  2  1  0  0  0  0
  1 18  1  0  0  0  0
  1 19  1  0  0  0  0
  1 20  1  0  0  0  0
  2  3  1  0  0  0  0
  3  7  1  0  0  0  0
  3  4  1  0  0  0  0
  3 21  1  0  0  0  0
  4  5  1  0  0  0  0
  4 22  1  0  0  0  0
  4 23  1  0  0  0  0
  5  6  1  0  0  0  0
  5 24  1  0  0  0  0
  5 25  1  0  0  0  0
  6  7  1  0  0  0  0
  6 26  1  0  0  0  0
  6 27  1  0  0  0  0
  7  8  1  0  0  0  0
  7 28  1  0  0  0  0
  8  9  1  0  0  0  0
  8 29  1  0  0  0  0
  9 10  2  0  0  0  0
  9 11  1  0  0  0  0
 11 12  1  0  0  0  0
 11 30  1  0  0  0  0
 12 16  1  0  0  0  0
 12 13  2  0  0  0  0
 13 14  1  0  0  0  0
 13 31  1  0  0  0  0
 14 15  2  0  0  0  0
 14 32  1  0  0  0  0
 15 16  1  0  0  0  0
 16 17  1  0  0  0  0
 17 33  1  0  0  0  0
 17 34  1  0  0  0  0
 17 35  1  0  0  0  0
M  END
> <s_m_source_file>
AV-unprocessed.smi

> <i_m_source_file_index>
2789

> <i_lp_mmshare_version>
43012

> <i_f3d_flags>
0

> <s_epik_input>
W0NIM11PW0NAQEhdMVtDSDJdW0NIMl1bQ0gyXVtDQEhdMVtOSF1DKD1PKVtOSF1jMltjSF1bY0hdbm4yW0NIM10=

> <s_epik_cmdline>
J2VwaWtfcHl0aG9uJywgJy1waCcsICc3LjAnLCAnLXRuJywgJzgnLCAnLW1hJywgJzIwMCcsICctbWV0YWxfYmluZGluZycsICctaW1hZScsICc8aW5maWxlLm1hZT4nLCAnLW9tYWUnLCAnPG91dGZpbGUubWFlPic=

> <r_lp_tautomer_probability>
1

> <r_epik_Ionization_Penalty>
4.40608e-05

> <r_epik_Ionization_Penalty_Charging>
0

> <r_epik_Ionization_Penalty_Neutral>
4.40608e-05

> <r_epik_State_Penalty>
-0

> <r_epik_Charging_Adjusted_Penalty>
0

> <i_epik_Tot_Q>
0

> <i_epik_Tot_abs_Q>
0

> <r_epik_Metal_State_Penalty>
-0

> <b_epik_Metal_Only>
0

> <s_lp_Force_Field>
OPLS_2005

> <r_lp_Energy>
22.0425

> <b_lp_Chiralities_Consistent>
1

> <s_lp_Variant>
AV-unprocessed.smi:2789-2

> <Gold.Version>
5.8.1

> <Gold.Id.Protein>
6NUR|6NUR_protein|mol2

> <Gold.PLP.Fitness>
36.7091

> <Gold.PLP.PLP>
-34.2346

> <Gold.PLP.part.hbond>
-2.0000

> <Gold.PLP.part.metal>
0.0000

> <Gold.PLP.part.buried>
-5.1035

> <Gold.PLP.part.nonpolar>
-27.2755

> <Gold.PLP.part.repulsive>
0.3645

> <Gold.PLP.ligand.clash>
0.0011

> <Gold.PLP.ligand.torsion>
0.2655

> <Gold.PLP.Chemscore.Hbond>
1.0000

> <Gold.PLP.Chemscore.CHOScore>
0.0000

> <Gold.PLP.Chemscore.Metal>
0.0000

> <Gold.Chemscore.Hbonds>
donor molecule, donor type, donor heavy atom, donor atom, acceptor molecule, acceptor atom, score
      L1  H     8    29       P1  8028  0.09
      P1  H  7989  7998       L1     2  1.00

> <Gold.PLP.Chemscore.Internal.Correction>
0.0067

> <Gold.Rescore>
     Score         DG    S(hbond)    S(metal)    S(lipo)     H(rot)  DE(clash)    DE(int)     intcor
      9.83     -12.90       0.96        0.00      63.95       1.27       0.02       3.05       ----

> <Gold.Chemscore.Fitness>
9.8337

> <Gold.Chemscore.DG>
-12.9004

> <Gold.Chemscore.ZeroCoef>
-5.4800

> <Gold.Chemscore.Hbond>
0.9558

> <Gold.Chemscore.Metal>
0.0000

> <Gold.Chemscore.Lipo>
63.9531

> <Gold.Chemscore.Internal_Hbond>
0.0000

> <Gold.Chemscore.DEClash>
0.0164

> <Gold.Chemscore.DEInternal>
3.0504

> <Gold.Chemscore.Rot>
1.2712

> <Gold.Chemscore.Internal.Correction>
   9.000000E+99

> <Gold.Chemscore.Hbonds>
donor molecule, donor type, donor heavy atom, donor atom, acceptor molecule, acceptor atom, score
      L1  H     8    29       P1  8028  0.09
      P1  H  7989  7998       L1     2  0.75

> <Gold.Chemscore.Hbond.Weighted>
-3.1923

> <Gold.Chemscore.Metal.Weighted>
-0.0000

> <Gold.Chemscore.Lipo.Weighted>
-7.4825

> <Gold.Chemscore.Internal_Hbond.Weighted>
0.0000

> <Gold.Chemscore.DEClash.Weighted>
0.0164

> <Gold.Chemscore.DEInternal.Weighted>
3.0504

> <Gold.Chemscore.Rot.Weighted>
3.2544

> <Gold.Chemscore.Internal.Correction.Weighted>
   9.000000E+99

> <Gold.Protein.RotatedTorsions>
[ 6907 6896 6895 6894 ] final -103.20 input  -60.11 | X-H torsion
[ 7974 7965 7964 7962 ] final   71.54 input  175.53 | X-H torsion
[ 8008 7997 7996 7995 ] final  125.34 input   59.86 | X-H torsion
[ 10167 10162 10161 10158 ] final  138.94 input  -65.29 | X-H torsion
[ 10718 10713 10712 10709 ] final    8.35 input   66.30 | X-H torsion
[ 10763 10752 10751 10750 ] final  -68.56 input  -60.55 | X-H torsion
[ 11005 11000 10999 10996 ] final  142.02 input  -57.11 | X-H torsion

> <Gold.Protein.ActiveResidues>
 VAL166  LYS551  ARG553  GLY616  TRP617  ASP618  TYR619  PRO620  LYS621  CYS622 
 ASP623  PHE694  ASN695  SER759  ASP760  ASP761  ALA762  ILE779  LEU786  VAL792 
 PHE793  MET794  SER795  GLU796  ALA797  LYS798  CYS799  TRP800  GLU811  SER814 

> <Gold.Protein.RotatedAtoms>
  150.7230  134.0465  159.3783 H   0  0  0  0  0  0  0  0  0  0  0  0  # atno 6907 bound_to 6896
  151.8440  135.0578  160.0461 H   0  0  0  0  0  0  0  0  0  0  0  0  # atno 6908 bound_to 6896
  152.2840  133.5462  159.5552 H   0  0  0  0  0  0  0  0  0  0  0  0  # atno 6909 bound_to 6896
  145.7645  139.2815  143.1357 H   0  0  0  0  0  0  0  0  0  0  0  0  # atno 7974 bound_to 7965
  156.2831  140.2718  156.1934 H   0  0  0  0  0  0  0  0  0  0  0  0  # atno 8008 bound_to 7997
  155.0435  140.0386  157.2536 H   0  0  0  0  0  0  0  0  0  0  0  0  # atno 8009 bound_to 7997
  154.7254  140.2696  155.6509 H   0  0  0  0  0  0  0  0  0  0  0  0  # atno 8010 bound_to 7997
  139.5094  144.6324  151.5784 H   0  0  0  0  0  0  0  0  0  0  0  0  # atno 10167 bound_to 10162
  156.9503  130.5894  149.5656 H   0  0  0  0  0  0  0  0  0  0  0  0  # atno 10718 bound_to 10713
  154.3908  135.6053  153.5842 H   0  0  0  0  0  0  0  0  0  0  0  0  # atno 10763 bound_to 10752
  152.9787  135.5883  154.4300 H   0  0  0  0  0  0  0  0  0  0  0  0  # atno 10764 bound_to 10752
  154.4084  135.2844  155.2031 H   0  0  0  0  0  0  0  0  0  0  0  0  # atno 10765 bound_to 10752
  140.0445  134.9288  157.0905 H   0  0  0  0  0  0  0  0  0  0  0  0  # atno 11005 bound_to 11000
  146.0231  140.8329  142.9913 LP  0  0  0  0  0  0  0  0  0  0  0  0  # atno 17320 bound_to 7965
  144.6824  140.2658  143.7312 LP  0  0  0  0  0  0  0  0  0  0  0  0  # atno 17321 bound_to 7965
  140.6061  143.9522  150.6420 LP  0  0  0  0  0  0  0  0  0  0  0  0  # atno 17342 bound_to 10162
  140.2749  143.3430  152.1204 LP  0  0  0  0  0  0  0  0  0  0  0  0  # atno 17343 bound_to 10162
  156.0365  130.5452  150.8667 LP  0  0  0  0  0  0  0  0  0  0  0  0  # atno 17370 bound_to 10713
  157.5726  131.0946  150.9394 LP  0  0  0  0  0  0  0  0  0  0  0  0  # atno 17371 bound_to 10713
  140.4015  134.2077  155.7163 LP  0  0  0  0  0  0  0  0  0  0  0  0  # atno 17394 bound_to 11000
  141.1900  133.8226  157.0935 LP  0  0  0  0  0  0  0  0  0  0  0  0  # atno 17395 bound_to 11000

$$$$
