AV-unprocessed.smi:1983|AV-procd|sdf|8030|dock9
  -GOLD-   2272010223D 1   1.00000     0.00000
 Structure written by MMmdl.
 49 50  0  0  0  0  0  0  0  0  1 V2000
  146.2313  133.3708  151.1630 C   0  0  0  0  0  0  0  0  0  0  0  0
  145.4862  134.5859  151.7458 C   0  0  2  0  0  0  0  0  0  0  0  0
  144.1587  134.8930  151.0284 C   0  0  0  0  0  0  0  0  0  0  0  0
  144.3733  135.5783  149.8110 O   0  0  0  0  0  0  0  0  0  0  0  0
  146.3288  135.7789  151.7593 N   0  0  0  0  0  0  0  0  0  0  0  0
  145.9052  137.0274  151.9984 C   0  0  0  0  0  0  0  0  0  0  0  0
  144.7336  137.3279  152.2298 O   0  0  0  0  0  0  0  0  0  0  0  0
  146.9141  137.9092  151.9671 N   0  0  0  0  0  0  0  0  0  0  0  0
  146.7773  139.3346  152.2445 C   0  0  0  0  0  0  0  0  0  0  0  0
  147.6769  139.8136  153.3720 C   0  0  0  0  0  0  0  0  0  0  0  0
  147.7306  141.1734  153.7395 C   0  0  0  0  0  0  0  0  0  0  0  0
  148.5860  141.5639  154.7869 C   0  0  0  0  0  0  0  0  0  0  0  0
  149.3667  140.5824  155.4417 C   0  0  0  0  0  0  0  0  0  0  0  0
  150.2325  140.9558  156.4908 N   0  0  0  0  0  0  0  0  0  0  0  0
  151.0825  139.9260  157.0808 C   0  0  0  0  0  0  0  0  0  0  0  0
  152.1834  140.5717  157.9402 C   0  0  2  0  0  0  0  0  0  0  0  0
  153.0209  139.5224  158.6786 C   0  0  0  0  0  0  0  0  0  0  0  0
  151.5879  141.4289  158.9137 O   0  0  0  0  0  0  0  0  0  0  0  0
  150.7665  142.4677  158.3750 C   0  0  1  0  0  0  0  0  0  0  0  0
  151.5948  143.5613  157.6775 C   0  0  0  0  0  0  0  0  0  0  0  0
  149.6647  141.8686  157.4784 C   0  0  0  0  0  0  0  0  0  0  0  0
  149.3121  139.2753  155.0846 N   0  0  0  0  0  0  0  0  0  0  0  0
  148.4881  138.9058  154.0817 C   0  0  0  0  0  0  0  0  0  0  0  0
  145.5876  132.4910  151.1449 H   0  0  0  0  0  0  0  0  0  0  0  0
  147.1083  133.1211  151.7612 H   0  0  0  0  0  0  0  0  0  0  0  0
  146.5705  133.5571  150.1437 H   0  0  0  0  0  0  0  0  0  0  0  0
  145.2318  134.3523  152.7813 H   0  0  0  0  0  0  0  0  0  0  0  0
  143.6337  133.9635  150.8056 H   0  0  0  0  0  0  0  0  0  0  0  0
  143.4991  135.4835  151.6655 H   0  0  0  0  0  0  0  0  0  0  0  0
  145.0529  135.1307  149.3304 H   0  0  0  0  0  0  0  0  0  0  0  0
  147.3132  135.6352  151.5873 H   0  0  0  0  0  0  0  0  0  0  0  0
  147.8421  137.5682  151.7632 H   0  0  0  0  0  0  0  0  0  0  0  0
  147.0368  139.8857  151.3405 H   0  0  0  0  0  0  0  0  0  0  0  0
  145.7348  139.5730  152.4629 H   0  0  0  0  0  0  0  0  0  0  0  0
  147.1297  141.9094  153.2256 H   0  0  0  0  0  0  0  0  0  0  0  0
  148.6465  142.6056  155.0650 H   0  0  0  0  0  0  0  0  0  0  0  0
  150.4696  139.2596  157.6893 H   0  0  0  0  0  0  0  0  0  0  0  0
  151.5424  139.3227  156.2971 H   0  0  0  0  0  0  0  0  0  0  0  0
  152.8533  141.1489  157.3029 H   0  0  0  0  0  0  0  0  0  0  0  0
  153.5055  138.8427  157.9771 H   0  0  0  0  0  0  0  0  0  0  0  0
  152.4035  138.9260  159.3509 H   0  0  0  0  0  0  0  0  0  0  0  0
  153.8011  139.9961  159.2747 H   0  0  0  0  0  0  0  0  0  0  0  0
  150.2778  142.9399  159.2276 H   0  0  0  0  0  0  0  0  0  0  0  0
  150.9622  144.4038  157.3973 H   0  0  0  0  0  0  0  0  0  0  0  0
  152.0730  143.2012  156.7668 H   0  0  0  0  0  0  0  0  0  0  0  0
  152.3744  143.9401  158.3386 H   0  0  0  0  0  0  0  0  0  0  0  0
  149.0971  142.6732  157.0122 H   0  0  0  0  0  0  0  0  0  0  0  0
  148.9603  141.3067  158.0930 H   0  0  0  0  0  0  0  0  0  0  0  0
  148.4831  137.8540  153.8361 H   0  0  0  0  0  0  0  0  0  0  0  0
  1  2  1  0  0  0  0
  1 24  1  0  0  0  0
  1 25  1  0  0  0  0
  1 26  1  0  0  0  0
  2  3  1  0  0  0  0
  2  5  1  0  0  0  0
  2 27  1  0  0  0  0
  3  4  1  0  0  0  0
  3 28  1  0  0  0  0
  3 29  1  0  0  0  0
  4 30  1  0  0  0  0
  5  6  1  0  0  0  0
  5 31  1  0  0  0  0
  6  7  2  0  0  0  0
  6  8  1  0  0  0  0
  8  9  1  0  0  0  0
  8 32  1  0  0  0  0
  9 10  1  0  0  0  0
  9 33  1  0  0  0  0
  9 34  1  0  0  0  0
 10 23  1  0  0  0  0
 10 11  2  0  0  0  0
 11 12  1  0  0  0  0
 11 35  1  0  0  0  0
 12 13  2  0  0  0  0
 12 36  1  0  0  0  0
 13 14  1  0  0  0  0
 13 22  1  0  0  0  0
 14 21  1  0  0  0  0
 14 15  1  0  0  0  0
 15 16  1  0  0  0  0
 15 37  1  0  0  0  0
 15 38  1  0  0  0  0
 16 17  1  0  0  0  0
 16 18  1  0  0  0  0
 16 39  1  0  0  0  0
 17 40  1  0  0  0  0
 17 41  1  0  0  0  0
 17 42  1  0  0  0  0
 18 19  1  0  0  0  0
 19 20  1  0  0  0  0
 19 21  1  0  0  0  0
 19 43  1  0  0  0  0
 20 44  1  0  0  0  0
 20 45  1  0  0  0  0
 20 46  1  0  0  0  0
 21 47  1  0  0  0  0
 21 48  1  0  0  0  0
 22 23  2  0  0  0  0
 23 49  1  0  0  0  0
M  END
> <s_m_source_file>
AV-unprocessed.smi

> <i_m_source_file_index>
1983

> <i_lp_mmshare_version>
43012

> <i_f3d_flags>
0

> <s_epik_input>
W09IXVtDSDJdW0NAQEhdKFtDSDNdKVtOSF1DKD1PKVtOSF1bQ0gyXWMxW2NIXVtjSF1jKG5bY0hdMSlOMltDSDJdW0NAQEhdKFtDSDNdKU9bQ0BASF0oW0NIM10pW0NIMl0y

> <s_epik_cmdline>
J2VwaWtfcHl0aG9uJywgJy1waCcsICc3LjAnLCAnLXRuJywgJzgnLCAnLW1hJywgJzIwMCcsICctbWV0YWxfYmluZGluZycsICctaW1hZScsICc8aW5maWxlLm1hZT4nLCAnLW9tYWUnLCAnPG91dGZpbGUubWFlPic=

> <r_lp_tautomer_probability>
1

> <r_epik_Ionization_Penalty>
0.00801967

> <r_epik_Ionization_Penalty_Charging>
0

> <r_epik_Ionization_Penalty_Neutral>
0.00801967

> <r_epik_State_Penalty>
0.00598289

> <r_epik_Charging_Adjusted_Penalty>
0.00598289

> <i_epik_Tot_Q>
0

> <i_epik_Tot_abs_Q>
0

> <r_epik_Metal_State_Penalty>
0.00590297

> <b_epik_Metal_Only>
0

> <s_lp_Force_Field>
OPLS_2005

> <r_lp_Energy>
17.398

> <b_lp_Chiralities_Consistent>
1

> <s_lp_Variant>
AV-unprocessed.smi:1983-3

> <Gold.Version>
5.8.1

> <Gold.Id.Protein>
6NUR|6NUR_protein|mol2

> <Gold.PLP.Fitness>
46.9811

> <Gold.PLP.PLP>
-36.2670

> <Gold.PLP.part.hbond>
-4.0000

> <Gold.PLP.part.metal>
0.0000

> <Gold.PLP.part.buried>
-3.2930

> <Gold.PLP.part.nonpolar>
-32.1514

> <Gold.PLP.part.repulsive>
2.2035

> <Gold.PLP.ligand.clash>
0.0000

> <Gold.PLP.ligand.torsion>
0.5262

> <Gold.PLP.Chemscore.Hbond>
2.8880

> <Gold.PLP.Chemscore.CHOScore>
0.9070

> <Gold.PLP.Chemscore.Metal>
0.0000

> <Gold.Chemscore.Hbonds>
donor molecule, donor type, donor heavy atom, donor atom, acceptor molecule, acceptor atom, score
      L1  H     4    30       P1  7921  0.99
      L1  H     5    31       P1  7948  0.96
      L1  H     8    32       P1  7948  0.96
      L1  C    23    49       P1  7948  0.86

> <Gold.PLP.Chemscore.Internal.Correction>
0.3816

> <Gold.Rescore>
     Score         DG    S(hbond)    S(metal)    S(lipo)     H(rot)  DE(clash)    DE(int)     intcor
     15.59     -18.31       2.66        0.00      90.80       2.61       0.92       1.80       ----

> <Gold.Chemscore.Fitness>
15.5883

> <Gold.Chemscore.DG>
-18.3089

> <Gold.Chemscore.ZeroCoef>
-5.4800

> <Gold.Chemscore.Hbond>
2.6607

> <Gold.Chemscore.Metal>
0.0000

> <Gold.Chemscore.Lipo>
90.7966

> <Gold.Chemscore.Internal_Hbond>
0.0000

> <Gold.Chemscore.DEClash>
0.9156

> <Gold.Chemscore.DEInternal>
1.8049

> <Gold.Chemscore.Rot>
2.6097

> <Gold.Chemscore.Internal.Correction>
   9.000000E+99

> <Gold.Chemscore.Hbonds>
donor molecule, donor type, donor heavy atom, donor atom, acceptor molecule, acceptor atom, score
      L1  H     4    30       P1  7921  0.88
      L1  H     5    31       P1  7948  0.92
      L1  H     8    32       P1  7948  0.92

> <Gold.Chemscore.Hbond.Weighted>
-8.8866

> <Gold.Chemscore.Metal.Weighted>
-0.0000

> <Gold.Chemscore.Lipo.Weighted>
-10.6232

> <Gold.Chemscore.Internal_Hbond.Weighted>
0.0000

> <Gold.Chemscore.DEClash.Weighted>
0.9156

> <Gold.Chemscore.DEInternal.Weighted>
1.8049

> <Gold.Chemscore.Rot.Weighted>
6.6809

> <Gold.Chemscore.Internal.Correction.Weighted>
   9.000000E+99

> <Gold.Protein.RotatedTorsions>
[ 6907 6896 6895 6894 ] final  -91.75 input  -60.11 | X-H torsion
[ 7974 7965 7964 7962 ] final  -32.27 input  175.53 | X-H torsion
[ 8008 7997 7996 7995 ] final  171.10 input   59.86 | X-H torsion
[ 10167 10162 10161 10158 ] final  -17.64 input  -65.29 | X-H torsion
[ 10718 10713 10712 10709 ] final -150.54 input   66.30 | X-H torsion
[ 10763 10752 10751 10750 ] final    7.03 input  -60.55 | X-H torsion
[ 11005 11000 10999 10996 ] final -151.55 input  -57.11 | X-H torsion

> <Gold.Protein.ActiveResidues>
 VAL166  LYS551  ARG553  GLY616  TRP617  ASP618  TYR619  PRO620  LYS621  CYS622 
 ASP623  PHE694  ASN695  SER759  ASP760  ASP761  ALA762  ILE779  LEU786  VAL792 
 PHE793  MET794  SER795  GLU796  ALA797  LYS798  CYS799  TRP800  GLU811  SER814 

> <Gold.Protein.RotatedAtoms>
  150.6896  134.2229  159.4403 H   0  0  0  0  0  0  0  0  0  0  0  0  # atno 6907 bound_to 6896
  152.0184  134.9834  160.0579 H   0  0  0  0  0  0  0  0  0  0  0  0  # atno 6908 bound_to 6896
  152.1421  133.4435  159.4808 H   0  0  0  0  0  0  0  0  0  0  0  0  # atno 6909 bound_to 6896
  146.1003  140.5772  142.8824 H   0  0  0  0  0  0  0  0  0  0  0  0  # atno 7974 bound_to 7965
  156.1303  140.1521  156.9074 H   0  0  0  0  0  0  0  0  0  0  0  0  # atno 8008 bound_to 7997
  154.4904  140.0853  156.7622 H   0  0  0  0  0  0  0  0  0  0  0  0  # atno 8009 bound_to 7997
  155.4267  140.3425  155.4278 H   0  0  0  0  0  0  0  0  0  0  0  0  # atno 8010 bound_to 7997
  140.7249  143.4995  150.9887 H   0  0  0  0  0  0  0  0  0  0  0  0  # atno 10167 bound_to 10162
  156.4474  130.8151  151.2382 H   0  0  0  0  0  0  0  0  0  0  0  0  # atno 10718 bound_to 10713
  153.2409  135.6903  153.7784 H   0  0  0  0  0  0  0  0  0  0  0  0  # atno 10763 bound_to 10752
  153.6914  135.3312  155.3204 H   0  0  0  0  0  0  0  0  0  0  0  0  # atno 10764 bound_to 10752
  154.8355  135.4546  154.1330 H   0  0  0  0  0  0  0  0  0  0  0  0  # atno 10765 bound_to 10752
  140.7283  134.3649  157.5171 H   0  0  0  0  0  0  0  0  0  0  0  0  # atno 11005 bound_to 11000
  144.7427  140.4986  143.6857 LP  0  0  0  0  0  0  0  0  0  0  0  0  # atno 17320 bound_to 7965
  145.5868  139.1492  143.3204 LP  0  0  0  0  0  0  0  0  0  0  0  0  # atno 17321 bound_to 7965
  139.8704  143.7200  152.3167 LP  0  0  0  0  0  0  0  0  0  0  0  0  # atno 17342 bound_to 10162
  139.7446  144.7550  151.0599 LP  0  0  0  0  0  0  0  0  0  0  0  0  # atno 17343 bound_to 10162
  157.7504  131.0149  150.3481 LP  0  0  0  0  0  0  0  0  0  0  0  0  # atno 17370 bound_to 10713
  156.3852  130.3888  149.7071 LP  0  0  0  0  0  0  0  0  0  0  0  0  # atno 17371 bound_to 10713
  139.8832  134.9001  156.2782 LP  0  0  0  0  0  0  0  0  0  0  0  0  # atno 17394 bound_to 11000
  140.9943  133.7190  156.0861 LP  0  0  0  0  0  0  0  0  0  0  0  0  # atno 17395 bound_to 11000

$$$$
