AV-unprocessed.smi:890|AV-procd|sdf|4058|dock6
  -GOLD-   22720 1543D 1   1.00000     0.00000
 Structure written by MMmdl.
 52 55  0  0  0  0  0  0  0  0  2 V2000
  151.0147  134.0216  154.9913 O   0  0  0  0  0  0  0  0  0  0  0  0
  150.2831  134.6916  154.2626 C   0  0  0  0  0  0  0  0  0  0  0  0
  149.4039  134.1965  153.3753 N   0  0  0  0  0  0  0  0  0  0  0  0
  149.1323  132.8330  153.0628 C   0  0  0  0  0  0  0  0  0  0  0  0
  149.8247  131.7582  153.6731 C   0  0  0  0  0  0  0  0  0  0  0  0
  149.4793  130.4377  153.3361 C   0  0  0  0  0  0  0  0  0  0  0  0
  148.4448  130.2355  152.4066 C   0  0  0  0  0  0  0  0  0  0  0  0
  147.7649  131.2462  151.8290 N   0  0  0  0  0  0  0  0  0  0  0  0
  148.0873  132.5233  152.1500 C   0  0  0  0  0  0  0  0  0  0  0  0
  147.3745  133.5587  151.5092 N   0  0  0  0  0  0  0  0  0  0  0  0
  146.5811  133.1045  150.3698 C   0  0  0  0  0  0  0  0  0  0  0  0
  145.2986  133.9384  150.3753 C   0  0  0  0  0  0  0  0  0  0  0  0
  145.1263  134.2933  151.8468 C   0  0  0  0  0  0  0  0  0  0  0  0
  146.5697  134.4799  152.3109 C   0  0  0  0  0  0  0  0  0  0  0  0
  150.2846  136.0324  154.2494 N   0  0  0  0  0  0  0  0  0  0  0  0
  151.1183  136.8758  155.1015 C   0  0  2  0  0  0  0  0  0  0  0  0
  150.6313  136.7998  156.5578 C   0  0  0  0  0  0  0  0  0  0  0  0
  151.4561  137.7309  157.4672 C   0  0  0  0  0  0  0  0  0  0  0  0
  151.4580  139.1348  156.9800 N   0  3  2  0  0  0  0  0  0  0  0  0
  150.1840  139.8465  157.2367 C   0  0  0  0  0  0  0  0  0  0  0  0
  150.2068  141.2987  156.8189 C   0  0  0  0  0  0  0  0  0  0  0  0
  150.2968  140.9305  158.2830 C   0  0  0  0  0  0  0  0  0  0  0  0
  151.9165  139.2399  155.5706 C   0  0  0  0  0  0  0  0  0  0  0  0
  151.0986  138.3405  154.6253 C   0  0  0  0  0  0  0  0  0  0  0  0
  148.9350  134.8714  152.7888 H   0  0  0  0  0  0  0  0  0  0  0  0
  150.6015  131.9197  154.4044 H   0  0  0  0  0  0  0  0  0  0  0  0
  149.9922  129.6000  153.7845 H   0  0  0  0  0  0  0  0  0  0  0  0
  148.1510  129.2357  152.1232 H   0  0  0  0  0  0  0  0  0  0  0  0
  147.1287  133.2258  149.4350 H   0  0  0  0  0  0  0  0  0  0  0  0
  146.3375  132.0463  150.4786 H   0  0  0  0  0  0  0  0  0  0  0  0
  145.4455  134.8488  149.7925 H   0  0  0  0  0  0  0  0  0  0  0  0
  144.4438  133.4047  149.9597 H   0  0  0  0  0  0  0  0  0  0  0  0
  144.5105  135.1787  152.0062 H   0  0  0  0  0  0  0  0  0  0  0  0
  144.6690  133.4585  152.3799 H   0  0  0  0  0  0  0  0  0  0  0  0
  146.6686  134.3495  153.3886 H   0  0  0  0  0  0  0  0  0  0  0  0
  146.9036  135.4929  152.0843 H   0  0  0  0  0  0  0  0  0  0  0  0
  149.6547  136.5022  153.6153 H   0  0  0  0  0  0  0  0  0  0  0  0
  152.1445  136.5040  155.0663 H   0  0  0  0  0  0  0  0  0  0  0  0
  149.5751  137.0671  156.6137 H   0  0  0  0  0  0  0  0  0  0  0  0
  150.7058  135.7745  156.9223 H   0  0  0  0  0  0  0  0  0  0  0  0
  151.0823  137.6925  158.4911 H   0  0  0  0  0  0  0  0  0  0  0  0
  152.4881  137.3798  157.5048 H   0  0  0  0  0  0  0  0  0  0  0  0
  149.2688  139.2650  157.1463 H   0  0  0  0  0  0  0  0  0  0  0  0
  151.1062  141.6855  156.3427 H   0  0  0  0  0  0  0  0  0  0  0  0
  149.2730  141.7357  156.4713 H   0  0  0  0  0  0  0  0  0  0  0  0
  149.4221  141.1260  158.9000 H   0  0  0  0  0  0  0  0  0  0  0  0
  151.2559  141.0732  158.7778 H   0  0  0  0  0  0  0  0  0  0  0  0
  151.8731  140.2783  155.2400 H   0  0  0  0  0  0  0  0  0  0  0  0
  152.9671  138.9493  155.5289 H   0  0  0  0  0  0  0  0  0  0  0  0
  151.5055  138.4150  153.6163 H   0  0  0  0  0  0  0  0  0  0  0  0
  150.0708  138.7009  154.5657 H   0  0  0  0  0  0  0  0  0  0  0  0
  152.1482  139.6214  157.5342 H   0  0  0  0  0  0  0  0  0  0  0  0
  1  2  2  0  0  0  0
  2  3  1  0  0  0  0
  2 15  1  0  0  0  0
  3  4  1  0  0  0  0
  3 25  1  0  0  0  0
  4  9  1  0  0  0  0
  4  5  2  0  0  0  0
  5  6  1  0  0  0  0
  5 26  1  0  0  0  0
  6  7  2  0  0  0  0
  6 27  1  0  0  0  0
  7  8  1  0  0  0  0
  7 28  1  0  0  0  0
  8  9  2  0  0  0  0
  9 10  1  0  0  0  0
 10 14  1  0  0  0  0
 10 11  1  0  0  0  0
 11 12  1  0  0  0  0
 11 29  1  0  0  0  0
 11 30  1  0  0  0  0
 12 13  1  0  0  0  0
 12 31  1  0  0  0  0
 12 32  1  0  0  0  0
 13 14  1  0  0  0  0
 13 33  1  0  0  0  0
 13 34  1  0  0  0  0
 14 35  1  0  0  0  0
 14 36  1  0  0  0  0
 15 16  1  0  0  0  0
 15 37  1  0  0  0  0
 16 24  1  0  0  0  0
 16 17  1  0  0  0  0
 16 38  1  0  0  0  0
 17 18  1  0  0  0  0
 17 39  1  0  0  0  0
 17 40  1  0  0  0  0
 18 19  1  0  0  0  0
 18 41  1  0  0  0  0
 18 42  1  0  0  0  0
 19 20  1  0  0  0  0
 19 23  1  0  0  0  0
 19 52  1  0  0  0  0
 20 22  1  0  0  0  0
 20 21  1  0  0  0  0
 20 43  1  0  0  0  0
 21 22  1  0  0  0  0
 21 44  1  0  0  0  0
 21 45  1  0  0  0  0
 22 46  1  0  0  0  0
 22 47  1  0  0  0  0
 23 24  1  0  0  0  0
 23 48  1  0  0  0  0
 23 49  1  0  0  0  0
 24 50  1  0  0  0  0
 24 51  1  0  0  0  0
M  CHG  1  19   1
M  END
> <s_m_source_file>
AV-unprocessed.smi

> <i_m_source_file_index>
890

> <i_lp_mmshare_version>
43012

> <i_f3d_flags>
0

> <s_epik_input>
W0NIMl0xW0NIMl1bQ0hdMU4oW0NIMl1bQ0gyXTIpW0NIMl1bQ0gyXVtDSF0yW05IXUMoPU8pW05IXWMzW2NIXVtjSF1bY0hdbmMzTjRbQ0gyXVtDSDJdW0NIMl1bQ0gyXTQ=

> <s_epik_cmdline>
J2VwaWtfcHl0aG9uJywgJy1waCcsICc3LjAnLCAnLXRuJywgJzgnLCAnLW1hJywgJzIwMCcsICctbWV0YWxfYmluZGluZycsICctaW1hZScsICc8aW5maWxlLm1hZT4nLCAnLW9tYWUnLCAnPG91dGZpbGUubWFlPic=

> <r_lp_tautomer_probability>
1

> <r_epik_Ionization_Penalty>
0.193768

> <r_epik_Ionization_Penalty_Charging>
0.115549

> <r_epik_Ionization_Penalty_Neutral>
0.078219

> <r_epik_State_Penalty>
0.174811

> <r_epik_Charging_Adjusted_Penalty>
0.29036

> <i_epik_Tot_Q>
1

> <i_epik_Tot_abs_Q>
1

> <r_epik_Metal_State_Penalty>
0.169761

> <b_epik_Metal_Only>
0

> <s_lp_Force_Field>
OPLS_2005

> <r_lp_Energy>
56.2334

> <b_lp_Chiralities_Consistent>
1

> <s_lp_Variant>
AV-unprocessed.smi:890-2

> <Gold.Version>
5.8.1

> <Gold.Id.Protein>
6NUR|6NUR_protein|mol2

> <Gold.PLP.Fitness>
42.9867

> <Gold.PLP.PLP>
-37.9720

> <Gold.PLP.part.hbond>
-2.8086

> <Gold.PLP.part.metal>
0.0000

> <Gold.PLP.part.buried>
-4.5158

> <Gold.PLP.part.nonpolar>
-30.9545

> <Gold.PLP.part.repulsive>
0.5186

> <Gold.PLP.ligand.clash>
0.0000

> <Gold.PLP.ligand.torsion>
1.0311

> <Gold.PLP.Chemscore.Hbond>
1.8960

> <Gold.PLP.Chemscore.CHOScore>
0.0000

> <Gold.PLP.Chemscore.Metal>
0.0000

> <Gold.Chemscore.Hbonds>
donor molecule, donor type, donor heavy atom, donor atom, acceptor molecule, acceptor atom, score
      L1  H     3    25       P1  7948  0.60
      L1  H    15    37       P1  7948  0.74

> <Gold.PLP.Chemscore.Internal.Correction>
1.3889

> <Gold.Rescore>
     Score         DG    S(hbond)    S(metal)    S(lipo)     H(rot)  DE(clash)    DE(int)     intcor
     12.35     -15.82       1.08        0.00      86.73       1.33       0.09       3.38       ----

> <Gold.Chemscore.Fitness>
12.3535

> <Gold.Chemscore.DG>
-15.8163

> <Gold.Chemscore.ZeroCoef>
-5.4800

> <Gold.Chemscore.Hbond>
1.0756

> <Gold.Chemscore.Metal>
0.0000

> <Gold.Chemscore.Lipo>
86.7259

> <Gold.Chemscore.Internal_Hbond>
0.0000

> <Gold.Chemscore.DEClash>
0.0877

> <Gold.Chemscore.DEInternal>
3.3750

> <Gold.Chemscore.Rot>
1.3294

> <Gold.Chemscore.Internal.Correction>
   9.000000E+99

> <Gold.Chemscore.Hbonds>
donor molecule, donor type, donor heavy atom, donor atom, acceptor molecule, acceptor atom, score
      L1  H     3    25       P1  7948  0.04
      L1  H    15    37       P1  7948  0.41

> <Gold.Chemscore.Hbond.Weighted>
-3.5925

> <Gold.Chemscore.Metal.Weighted>
-0.0000

> <Gold.Chemscore.Lipo.Weighted>
-10.1469

> <Gold.Chemscore.Internal_Hbond.Weighted>
0.0000

> <Gold.Chemscore.DEClash.Weighted>
0.0877

> <Gold.Chemscore.DEInternal.Weighted>
3.3750

> <Gold.Chemscore.Rot.Weighted>
3.4032

> <Gold.Chemscore.Internal.Correction.Weighted>
   9.000000E+99

> <Gold.Protein.RotatedTorsions>
[ 6907 6896 6895 6894 ] final   88.80 input  -60.11 | X-H torsion
[ 7974 7965 7964 7962 ] final  167.79 input  175.53 | X-H torsion
[ 8008 7997 7996 7995 ] final    0.91 input   59.86 | X-H torsion
[ 10167 10162 10161 10158 ] final  167.97 input  -65.29 | X-H torsion
[ 10718 10713 10712 10709 ] final  -76.50 input   66.30 | X-H torsion
[ 10763 10752 10751 10750 ] final  -56.33 input  -60.55 | X-H torsion
[ 11005 11000 10999 10996 ] final  121.00 input  -57.11 | X-H torsion

> <Gold.Protein.ActiveResidues>
 VAL166  LYS551  ARG553  GLY616  TRP617  ASP618  TYR619  PRO620  LYS621  CYS622 
 ASP623  PHE694  ASN695  SER759  ASP760  ASP761  ALA762  ILE779  LEU786  VAL792 
 PHE793  MET794  SER795  GLU796  ALA797  LYS798  CYS799  TRP800  GLU811  SER814 

> <Gold.Protein.RotatedAtoms>
  152.5429  134.2064  159.8732 H   0  0  0  0  0  0  0  0  0  0  0  0  # atno 6907 bound_to 6896
  151.2050  133.4582  159.2604 H   0  0  0  0  0  0  0  0  0  0  0  0  # atno 6908 bound_to 6896
  151.0952  134.9952  159.8478 H   0  0  0  0  0  0  0  0  0  0  0  0  # atno 6909 bound_to 6896
  144.7411  139.8813  143.6396 H   0  0  0  0  0  0  0  0  0  0  0  0  # atno 7974 bound_to 7965
  154.6735  140.2617  155.6982 H   0  0  0  0  0  0  0  0  0  0  0  0  # atno 8008 bound_to 7997
  156.2668  140.2824  156.1175 H   0  0  0  0  0  0  0  0  0  0  0  0  # atno 8009 bound_to 7997
  155.1134  140.0376  157.2720 H   0  0  0  0  0  0  0  0  0  0  0  0  # atno 8010 bound_to 7997
  139.4957  144.3865  151.9564 H   0  0  0  0  0  0  0  0  0  0  0  0  # atno 10167 bound_to 10162
  156.0173  130.4467  150.3203 H   0  0  0  0  0  0  0  0  0  0  0  0  # atno 10718 bound_to 10713
  154.2050  135.6404  153.5098 H   0  0  0  0  0  0  0  0  0  0  0  0  # atno 10763 bound_to 10752
  153.0003  135.5460  154.6276 H   0  0  0  0  0  0  0  0  0  0  0  0  # atno 10764 bound_to 10752
  154.5698  135.2916  155.0812 H   0  0  0  0  0  0  0  0  0  0  0  0  # atno 10765 bound_to 10752
  139.9208  134.9637  156.7892 H   0  0  0  0  0  0  0  0  0  0  0  0  # atno 11005 bound_to 11000
  146.1209  139.4227  143.0228 LP  0  0  0  0  0  0  0  0  0  0  0  0  # atno 17320 bound_to 7965
  145.7305  141.0044  143.1354 LP  0  0  0  0  0  0  0  0  0  0  0  0  # atno 17321 bound_to 7965
  140.3302  144.3325  150.5989 LP  0  0  0  0  0  0  0  0  0  0  0  0  # atno 17342 bound_to 10162
  140.5651  143.2187  151.7697 LP  0  0  0  0  0  0  0  0  0  0  0  0  # atno 17343 bound_to 10162
  157.1303  131.0270  151.2972 LP  0  0  0  0  0  0  0  0  0  0  0  0  # atno 17370 bound_to 10713
  157.4556  130.7623  149.7190 LP  0  0  0  0  0  0  0  0  0  0  0  0  # atno 17371 bound_to 10713
  140.6480  133.9757  155.7741 LP  0  0  0  0  0  0  0  0  0  0  0  0  # atno 17394 bound_to 11000
  141.0727  134.0182  157.3503 LP  0  0  0  0  0  0  0  0  0  0  0  0  # atno 17395 bound_to 11000

$$$$
