AV-unprocessed.smi:2368|AV-procd|sdf|9429|dock2
  -GOLD-   2272013 63D 1   1.00000     0.00000
 Structure written by MMmdl.
 36 37  0  0  0  0  0  0  0  0  2 V2000
  150.6865  141.0009  155.7880 C   0  0  0  0  0  0  0  0  0  0  0  0
  149.4324  140.8921  154.9422 C   0  0  0  0  0  0  0  0  0  0  0  0
  148.6522  141.9898  154.8313 N   0  3  0  0  0  0  0  0  0  0  0  0
  147.5194  142.0159  154.0992 C   0  0  0  0  0  0  0  0  0  0  0  0
  147.1003  140.8603  153.4121 C   0  0  0  0  0  0  0  0  0  0  0  0
  147.8709  139.6738  153.5087 C   0  0  0  0  0  0  0  0  0  0  0  0
  147.5271  138.4695  152.8333 N   0  0  0  0  0  0  0  0  0  0  0  0
  146.3052  138.0110  152.5126 C   0  0  0  0  0  0  0  0  0  0  0  0
  145.2437  138.5821  152.7621 O   0  0  0  0  0  0  0  0  0  0  0  0
  146.3782  136.8260  151.8910 N   0  0  0  0  0  0  0  0  0  0  0  0
  145.2285  136.0605  151.4222 C   0  0  2  0  0  0  0  0  0  0  0  0
  144.4427  135.5247  152.5872 C   0  0  0  0  0  0  0  0  0  0  0  0
  144.2882  134.2038  152.5390 C   0  0  0  0  0  0  0  0  0  0  0  0
  144.9457  133.5812  151.3337 C   0  0  2  0  0  0  0  0  0  0  0  0
  145.9245  132.4531  151.7019 C   0  0  0  0  0  0  0  0  0  0  0  0
  146.5070  131.9013  150.5400 O   0  0  0  0  0  0  0  0  0  0  0  0
  145.6343  134.7838  150.6391 C   0  0  0  0  0  0  0  0  0  0  0  0
  149.0625  139.7000  154.2756 C   0  0  0  0  0  0  0  0  0  0  0  0
  150.0566  138.2878  154.4065 Cl  0  0  0  0  0  0  0  0  0  0  0  0
  144.5692  136.6925  150.8248 H   0  0  0  0  0  0  0  0  0  0  0  0
  144.1586  133.1897  150.6875 H   0  0  0  0  0  0  0  0  0  0  0  0
  150.6624  140.2723  156.5987 H   0  0  0  0  0  0  0  0  0  0  0  0
  150.7860  141.9937  156.2282 H   0  0  0  0  0  0  0  0  0  0  0  0
  151.5709  140.8108  155.1794 H   0  0  0  0  0  0  0  0  0  0  0  0
  146.9886  142.9567  154.0795 H   0  0  0  0  0  0  0  0  0  0  0  0
  146.2026  140.9096  152.8148 H   0  0  0  0  0  0  0  0  0  0  0  0
  148.2980  137.8461  152.6423 H   0  0  0  0  0  0  0  0  0  0  0  0
  147.2895  136.4229  151.7286 H   0  0  0  0  0  0  0  0  0  0  0  0
  144.0440  136.1683  153.3576 H   0  0  0  0  0  0  0  0  0  0  0  0
  143.7466  133.6161  153.2657 H   0  0  0  0  0  0  0  0  0  0  0  0
  146.7222  132.8370  152.3387 H   0  0  0  0  0  0  0  0  0  0  0  0
  145.4171  131.6639  152.2582 H   0  0  0  0  0  0  0  0  0  0  0  0
  147.3789  131.6049  150.7524 H   0  0  0  0  0  0  0  0  0  0  0  0
  145.3286  134.8574  149.5949 H   0  0  0  0  0  0  0  0  0  0  0  0
  146.7179  134.6548  150.6364 H   0  0  0  0  0  0  0  0  0  0  0  0
  148.9361  142.8399  155.3192 H   0  0  0  0  0  0  0  0  0  0  0  0
  1  2  1  0  0  0  0
  1 22  1  0  0  0  0
  1 23  1  0  0  0  0
  1 24  1  0  0  0  0
  2 18  1  0  0  0  0
  2  3  2  0  0  0  0
  3  4  1  0  0  0  0
  3 36  1  0  0  0  0
  4  5  2  0  0  0  0
  4 25  1  0  0  0  0
  5  6  1  0  0  0  0
  5 26  1  0  0  0  0
  6  7  1  0  0  0  0
  6 18  2  0  0  0  0
  7  8  1  0  0  0  0
  7 27  1  0  0  0  0
  8  9  2  0  0  0  0
  8 10  1  0  0  0  0
 10 11  1  0  0  0  0
 10 28  1  0  0  0  0
 11 20  1  0  0  0  0
 11 17  1  0  0  0  0
 11 12  1  0  0  0  0
 12 13  2  0  0  0  0
 12 29  1  0  0  0  0
 13 14  1  0  0  0  0
 13 30  1  0  0  0  0
 14 21  1  0  0  0  0
 14 15  1  0  0  0  0
 14 17  1  0  0  0  0
 15 16  1  0  0  0  0
 15 31  1  0  0  0  0
 15 32  1  0  0  0  0
 16 33  1  0  0  0  0
 17 34  1  0  0  0  0
 17 35  1  0  0  0  0
 18 19  1  0  0  0  0
M  CHG  1   3   1
M  END
> <s_m_source_file>
AV-unprocessed.smi

> <i_m_source_file_index>
2368

> <i_lp_mmshare_version>
43012

> <i_f3d_flags>
0

> <s_epik_input>
W0NIM11jMW5bY0hdW2NIXWMoYzFDbClbTkhdQyg9TylbTkhdW0NAQEhdMltDSF09W0NIXVtDQEBIXShbQ0gyXTIpW0NIMl1bT0hd

> <s_epik_cmdline>
J2VwaWtfcHl0aG9uJywgJy1waCcsICc3LjAnLCAnLXRuJywgJzgnLCAnLW1hJywgJzIwMCcsICctbWV0YWxfYmluZGluZycsICctaW1hZScsICc8aW5maWxlLm1hZT4nLCAnLW9tYWUnLCAnPG91dGZpbGUubWFlPic=

> <r_epik_Ionization_Penalty>
2.4467

> <r_epik_Ionization_Penalty_Charging>
2.44668

> <r_epik_Ionization_Penalty_Neutral>
1.95078e-05

> <r_epik_State_Penalty>
2.60786

> <r_epik_Charging_Adjusted_Penalty>
5.05454

> <i_epik_Tot_Q>
1

> <i_epik_Tot_abs_Q>
1

> <r_epik_Metal_State_Penalty>
2.61736

> <b_epik_Metal_Only>
0

> <s_lp_Force_Field>
OPLS_2005

> <r_lp_Energy>
25.4266

> <b_lp_Chiralities_Consistent>
1

> <s_lp_Variant>
AV-unprocessed.smi:2368-5

> <Gold.Version>
5.8.1

> <Gold.Id.Protein>
6NUR|6NUR_protein|mol2

> <Gold.PLP.Fitness>
47.3279

> <Gold.PLP.PLP>
-32.7945

> <Gold.PLP.part.hbond>
-4.8396

> <Gold.PLP.part.metal>
0.0000

> <Gold.PLP.part.buried>
-3.1246

> <Gold.PLP.part.nonpolar>
-30.2319

> <Gold.PLP.part.repulsive>
4.6953

> <Gold.PLP.ligand.clash>
0.0000

> <Gold.PLP.ligand.torsion>
0.2403

> <Gold.PLP.Chemscore.Hbond>
5.0000

> <Gold.PLP.Chemscore.CHOScore>
0.0000

> <Gold.PLP.Chemscore.Metal>
0.0000

> <Gold.Chemscore.Hbonds>
donor molecule, donor type, donor heavy atom, donor atom, acceptor molecule, acceptor atom, score
      L1  H     3    36       P1  8028  2.00
      L1  H     7    27       P1  7948  1.00
      L1  H    10    28       P1  7948  1.00
      L1  H    16    33       P1 10747  1.00

> <Gold.PLP.Chemscore.Internal.Correction>
0.0140

> <Gold.Rescore>
     Score         DG    S(hbond)    S(metal)    S(lipo)     H(rot)  DE(clash)    DE(int)     intcor
     19.26     -23.50       3.89        0.00      82.57       1.81       2.90       1.33       ----

> <Gold.Chemscore.Fitness>
19.2645

> <Gold.Chemscore.DG>
-23.4990

> <Gold.Chemscore.ZeroCoef>
-5.4800

> <Gold.Chemscore.Hbond>
3.8868

> <Gold.Chemscore.Metal>
0.0000

> <Gold.Chemscore.Lipo>
82.5720

> <Gold.Chemscore.Internal_Hbond>
0.0000

> <Gold.Chemscore.DEClash>
2.9043

> <Gold.Chemscore.DEInternal>
1.3302

> <Gold.Chemscore.Rot>
1.8061

> <Gold.Chemscore.Internal.Correction>
   9.000000E+99

> <Gold.Chemscore.Hbonds>
donor molecule, donor type, donor heavy atom, donor atom, acceptor molecule, acceptor atom, score
      L1  H     3    36       P1  8028  0.97
      L1  H     7    27       P1  7948  0.94
      L1  H    10    28       P1  7948  0.99
      L1  H    16    33       P1 10747  0.95

> <Gold.Chemscore.Hbond.Weighted>
-12.9818

> <Gold.Chemscore.Metal.Weighted>
-0.0000

> <Gold.Chemscore.Lipo.Weighted>
-9.6609

> <Gold.Chemscore.Internal_Hbond.Weighted>
0.0000

> <Gold.Chemscore.DEClash.Weighted>
2.9043

> <Gold.Chemscore.DEInternal.Weighted>
1.3302

> <Gold.Chemscore.Rot.Weighted>
4.6237

> <Gold.Chemscore.Internal.Correction.Weighted>
   9.000000E+99

> <Gold.Protein.RotatedTorsions>
[ 6907 6896 6895 6894 ] final   98.39 input  -60.11 | X-H torsion
[ 7974 7965 7964 7962 ] final  -93.76 input  175.53 | X-H torsion
[ 8008 7997 7996 7995 ] final   54.08 input   59.86 | X-H torsion
[ 10167 10162 10161 10158 ] final    1.20 input  -65.29 | X-H torsion
[ 10718 10713 10712 10709 ] final   73.32 input   66.30 | X-H torsion
[ 10763 10752 10751 10750 ] final -174.79 input  -60.55 | X-H torsion
[ 11005 11000 10999 10996 ] final   67.35 input  -57.11 | X-H torsion

> <Gold.Protein.ActiveResidues>
 VAL166  LYS551  ARG553  GLY616  TRP617  ASP618  TYR619  PRO620  LYS621  CYS622 
 ASP623  PHE694  ASN695  SER759  ASP760  ASP761  ALA762  ILE779  LEU786  VAL792 
 PHE793  MET794  SER795  GLU796  ALA797  LYS798  CYS799  TRP800  GLU811  SER814 

> <Gold.Protein.RotatedAtoms>
  152.5410  134.0588  159.8142 H   0  0  0  0  0  0  0  0  0  0  0  0  # atno 6907 bound_to 6896
  151.0719  133.5452  159.2634 H   0  0  0  0  0  0  0  0  0  0  0  0  # atno 6908 bound_to 6896
  151.2312  135.0563  159.9042 H   0  0  0  0  0  0  0  0  0  0  0  0  # atno 6909 bound_to 6896
  145.3822  140.9519  143.2387 H   0  0  0  0  0  0  0  0  0  0  0  0  # atno 7974 bound_to 7965
  155.4789  140.3468  155.4337 H   0  0  0  0  0  0  0  0  0  0  0  0  # atno 8008 bound_to 7997
  156.1052  140.1446  156.9442 H   0  0  0  0  0  0  0  0  0  0  0  0  # atno 8009 bound_to 7997
  154.4720  140.0898  156.7145 H   0  0  0  0  0  0  0  0  0  0  0  0  # atno 8010 bound_to 7997
  140.6693  143.7092  150.7891 H   0  0  0  0  0  0  0  0  0  0  0  0  # atno 10167 bound_to 10162
  157.6542  130.9622  150.1053 H   0  0  0  0  0  0  0  0  0  0  0  0  # atno 10718 bound_to 10713
  154.5921  135.2846  155.0625 H   0  0  0  0  0  0  0  0  0  0  0  0  # atno 10763 bound_to 10752
  154.1921  135.6439  153.5067 H   0  0  0  0  0  0  0  0  0  0  0  0  # atno 10764 bound_to 10752
  153.0125  135.5449  154.6610 H   0  0  0  0  0  0  0  0  0  0  0  0  # atno 10765 bound_to 10752
  139.9776  134.6797  156.0324 H   0  0  0  0  0  0  0  0  0  0  0  0  # atno 11005 bound_to 11000
  144.8499  139.5338  143.6861 LP  0  0  0  0  0  0  0  0  0  0  0  0  # atno 17320 bound_to 7965
  146.2837  139.6945  142.9211 LP  0  0  0  0  0  0  0  0  0  0  0  0  # atno 17321 bound_to 7965
  140.0774  143.5001  152.2548 LP  0  0  0  0  0  0  0  0  0  0  0  0  # atno 17342 bound_to 10162
  139.5955  144.7565  151.3297 LP  0  0  0  0  0  0  0  0  0  0  0  0  # atno 17343 bound_to 10162
  156.1964  130.3657  149.8844 LP  0  0  0  0  0  0  0  0  0  0  0  0  # atno 17370 bound_to 10713
  156.6759  130.8839  151.3569 LP  0  0  0  0  0  0  0  0  0  0  0  0  # atno 17371 bound_to 10713
  141.1451  133.6557  156.3845 LP  0  0  0  0  0  0  0  0  0  0  0  0  # atno 17394 bound_to 11000
  140.5163  134.6347  157.5302 LP  0  0  0  0  0  0  0  0  0  0  0  0  # atno 17395 bound_to 11000

$$$$
