AV-unprocessed.smi:2510|AV-procd|sdf|9882|dock4
  -GOLD-   2272013513D 1   1.00000     0.00000
 Structure written by MMmdl.
 48 49  0  0  0  0  0  0  0  0  1 V2000
  148.8697  138.9035  154.5714 C   0  0  0  0  0  0  0  0  0  0  0  0
  149.3953  140.1509  155.3045 C   0  0  0  0  0  0  0  0  0  0  0  0
  150.7444  140.0142  156.0658 C   0  0  0  0  0  0  0  0  0  0  0  0
  151.3040  141.4492  156.2250 C   0  0  0  0  0  0  0  0  0  0  0  0
  150.5444  142.3352  157.2285 C   0  0  0  0  0  0  0  0  0  0  0  0
  150.7736  139.1870  157.3864 C   0  0  1  0  0  0  0  0  0  0  0  0
  149.7596  138.1368  157.4527 N   0  0  0  0  0  0  0  0  0  0  0  0
  149.7055  137.1611  158.3723 C   0  0  0  0  0  0  0  0  0  0  0  0
  150.5090  137.0631  159.2991 O   0  0  0  0  0  0  0  0  0  0  0  0
  148.5596  136.1506  158.2462 C   0  0  0  0  0  0  0  0  0  0  0  0
  147.9665  135.7978  159.5762 C   0  0  0  0  0  0  0  0  0  0  0  0
  148.0970  136.3768  160.8077 C   0  0  0  0  0  0  0  0  0  0  0  0
  147.3108  135.5565  161.6688 C   0  0  0  0  0  0  0  0  0  0  0  0
  147.0897  135.7082  163.1449 C   0  0  0  0  0  0  0  0  0  0  0  0
  146.7340  134.5535  161.0237 N   0  0  0  0  0  0  0  0  0  0  0  0
  147.1378  134.7120  159.7499 N   0  0  0  0  0  0  0  0  0  0  0  0
  152.1490  138.6197  156.9897 C   0  0  1  0  0  0  0  0  0  0  0  0
  152.5278  137.1851  157.3559 C   0  0  0  0  0  0  0  0  0  0  0  0
  151.7715  138.9692  155.5423 C   0  0  2  0  0  0  0  0  0  0  0  0
  152.8085  139.5593  154.7718 O   0  0  0  0  0  0  0  0  0  0  0  0
  153.8840  138.6749  154.5102 C   0  0  0  0  0  0  0  0  0  0  0  0
  146.8458  134.0782  159.0192 H   0  0  0  0  0  0  0  0  0  0  0  0
  147.9012  139.1124  154.1171 H   0  0  0  0  0  0  0  0  0  0  0  0
  148.7352  138.0521  155.2370 H   0  0  0  0  0  0  0  0  0  0  0  0
  149.5419  138.6040  153.7669 H   0  0  0  0  0  0  0  0  0  0  0  0
  149.4616  140.9379  154.5524 H   0  0  0  0  0  0  0  0  0  0  0  0
  148.6228  140.4887  155.9960 H   0  0  0  0  0  0  0  0  0  0  0  0
  152.3465  141.4160  156.5421 H   0  0  0  0  0  0  0  0  0  0  0  0
  151.3255  141.9538  155.2582 H   0  0  0  0  0  0  0  0  0  0  0  0
  151.0233  143.3109  157.3132 H   0  0  0  0  0  0  0  0  0  0  0  0
  150.5251  141.8953  158.2250 H   0  0  0  0  0  0  0  0  0  0  0  0
  149.5136  142.5083  156.9201 H   0  0  0  0  0  0  0  0  0  0  0  0
  150.8350  139.7904  158.2930 H   0  0  0  0  0  0  0  0  0  0  0  0
  149.0546  138.1419  156.7297 H   0  0  0  0  0  0  0  0  0  0  0  0
  147.7858  136.5631  157.5977 H   0  0  0  0  0  0  0  0  0  0  0  0
  148.9388  135.2561  157.7505 H   0  0  0  0  0  0  0  0  0  0  0  0
  148.6775  137.2523  161.0589 H   0  0  0  0  0  0  0  0  0  0  0  0
  147.6909  136.5214  163.5517 H   0  0  0  0  0  0  0  0  0  0  0  0
  147.3606  134.7971  163.6791 H   0  0  0  0  0  0  0  0  0  0  0  0
  146.0444  135.9266  163.3643 H   0  0  0  0  0  0  0  0  0  0  0  0
  152.9188  139.3088  157.3407 H   0  0  0  0  0  0  0  0  0  0  0  0
  151.8787  136.4571  156.8683 H   0  0  0  0  0  0  0  0  0  0  0  0
  152.4551  137.0219  158.4314 H   0  0  0  0  0  0  0  0  0  0  0  0
  153.5515  136.9575  157.0600 H   0  0  0  0  0  0  0  0  0  0  0  0
  151.3165  138.1143  155.0409 H   0  0  0  0  0  0  0  0  0  0  0  0
  154.6209  139.1744  153.8815 H   0  0  0  0  0  0  0  0  0  0  0  0
  153.5435  137.7823  153.9840 H   0  0  0  0  0  0  0  0  0  0  0  0
  154.3831  138.3719  155.4305 H   0  0  0  0  0  0  0  0  0  0  0  0
  1  2  1  0  0  0  0
  1 23  1  0  0  0  0
  1 24  1  0  0  0  0
  1 25  1  0  0  0  0
  2  3  1  0  0  0  0
  2 26  1  0  0  0  0
  2 27  1  0  0  0  0
  3 19  1  0  0  0  0
  3  4  1  0  0  0  0
  3  6  1  0  0  0  0
  4  5  1  0  0  0  0
  4 28  1  0  0  0  0
  4 29  1  0  0  0  0
  5 30  1  0  0  0  0
  5 31  1  0  0  0  0
  5 32  1  0  0  0  0
  6  7  1  0  0  0  0
  6 17  1  0  0  0  0
  6 33  1  0  0  0  0
  7  8  1  0  0  0  0
  7 34  1  0  0  0  0
  8  9  2  0  0  0  0
  8 10  1  0  0  0  0
 10 35  1  0  0  0  0
 10 36  1  0  0  0  0
 10 11  1  0  0  0  0
 11 16  1  0  0  0  0
 11 12  2  0  0  0  0
 12 13  1  0  0  0  0
 12 37  1  0  0  0  0
 13 14  1  0  0  0  0
 13 15  2  0  0  0  0
 14 38  1  0  0  0  0
 14 39  1  0  0  0  0
 14 40  1  0  0  0  0
 15 16  1  0  0  0  0
 16 22  1  0  0  0  0
 17 18  1  0  0  0  0
 17 19  1  0  0  0  0
 17 41  1  0  0  0  0
 18 42  1  0  0  0  0
 18 43  1  0  0  0  0
 18 44  1  0  0  0  0
 19 20  1  0  0  0  0
 19 45  1  0  0  0  0
 20 21  1  0  0  0  0
 21 46  1  0  0  0  0
 21 47  1  0  0  0  0
 21 48  1  0  0  0  0
M  END
> <s_m_source_file>
AV-unprocessed.smi

> <i_m_source_file_index>
2510

> <i_lp_mmshare_version>
43012

> <i_f3d_flags>
0

> <s_epik_input>
W0NIM11PW0NAQEhdMVtDQEhdKFtDSDNdKVtDQEBIXShDMShbQ0gyXVtDSDNdKVtDSDJdW0NIM10pW05IXUMoPU8pW0NIMl1jMltjSF1jKFtDSDNdKVtuSF1uMg==

> <s_epik_cmdline>
J2VwaWtfcHl0aG9uJywgJy1waCcsICc3LjAnLCAnLXRuJywgJzgnLCAnLW1hJywgJzIwMCcsICctbWV0YWxfYmluZGluZycsICctaW1hZScsICc8aW5maWxlLm1hZT4nLCAnLW9tYWUnLCAnPG91dGZpbGUubWFlPic=

> <r_lp_tautomer_probability>
0.5

> <r_epik_Ionization_Penalty>
0.000134763

> <r_epik_Ionization_Penalty_Charging>
0

> <r_epik_Ionization_Penalty_Neutral>
0.000134763

> <r_epik_State_Penalty>
0.41068

> <r_epik_Charging_Adjusted_Penalty>
0.41068

> <i_epik_Tot_Q>
0

> <i_epik_Tot_abs_Q>
0

> <r_epik_Metal_State_Penalty>
0.410661

> <b_epik_Metal_Only>
0

> <s_lp_Force_Field>
OPLS_2005

> <r_lp_Energy>
26.4004

> <b_lp_Chiralities_Consistent>
1

> <s_lp_Variant>
AV-unprocessed.smi:2510-13

> <Gold.Version>
5.8.1

> <Gold.Id.Protein>
6NUR|6NUR_protein|mol2

> <Gold.PLP.Fitness>
34.6267

> <Gold.PLP.PLP>
-31.9817

> <Gold.PLP.part.hbond>
-2.7500

> <Gold.PLP.part.metal>
0.0000

> <Gold.PLP.part.buried>
-4.3117

> <Gold.PLP.part.nonpolar>
-25.2308

> <Gold.PLP.part.repulsive>
0.1027

> <Gold.PLP.ligand.clash>
0.0039

> <Gold.PLP.ligand.torsion>
1.0876

> <Gold.PLP.Chemscore.Hbond>
1.4072

> <Gold.PLP.Chemscore.CHOScore>
0.0000

> <Gold.PLP.Chemscore.Metal>
0.0000

> <Gold.Chemscore.Hbonds>
donor molecule, donor type, donor heavy atom, donor atom, acceptor molecule, acceptor atom, score
      P1  H  6896  6909       L1     9  0.71
      P1  H  7989  7998       L1    20  0.36

> <Gold.PLP.Chemscore.Internal.Correction>
0.6028

> <Gold.Rescore>
     Score         DG    S(hbond)    S(metal)    S(lipo)     H(rot)  DE(clash)    DE(int)     intcor
     11.75     -16.25       1.48        0.00      89.37       1.81       0.08       4.43       ----

> <Gold.Chemscore.Fitness>
11.7477

> <Gold.Chemscore.DG>
-16.2482

> <Gold.Chemscore.ZeroCoef>
-5.4800

> <Gold.Chemscore.Hbond>
1.4809

> <Gold.Chemscore.Metal>
0.0000

> <Gold.Chemscore.Lipo>
89.3683

> <Gold.Chemscore.Internal_Hbond>
0.0000

> <Gold.Chemscore.DEClash>
0.0751

> <Gold.Chemscore.DEInternal>
4.4255

> <Gold.Chemscore.Rot>
1.8102

> <Gold.Chemscore.Internal.Correction>
   9.000000E+99

> <Gold.Chemscore.Hbonds>
donor molecule, donor type, donor heavy atom, donor atom, acceptor molecule, acceptor atom, score
      P1  H  6896  6909       L1     9  0.69
      P1  H  7989  7998       L1    20  0.13

> <Gold.Chemscore.Hbond.Weighted>
-4.9463

> <Gold.Chemscore.Metal.Weighted>
-0.0000

> <Gold.Chemscore.Lipo.Weighted>
-10.4561

> <Gold.Chemscore.Internal_Hbond.Weighted>
0.0000

> <Gold.Chemscore.DEClash.Weighted>
0.0751

> <Gold.Chemscore.DEInternal.Weighted>
4.4255

> <Gold.Chemscore.Rot.Weighted>
4.6341

> <Gold.Chemscore.Internal.Correction.Weighted>
   9.000000E+99

> <Gold.Protein.RotatedTorsions>
[ 6907 6896 6895 6894 ] final   96.51 input  -60.11 | X-H torsion
[ 7974 7965 7964 7962 ] final   56.55 input  175.53 | X-H torsion
[ 8008 7997 7996 7995 ] final  -17.51 input   59.86 | X-H torsion
[ 10167 10162 10161 10158 ] final   82.03 input  -65.29 | X-H torsion
[ 10718 10713 10712 10709 ] final  -28.36 input   66.30 | X-H torsion
[ 10763 10752 10751 10750 ] final   67.81 input  -60.55 | X-H torsion
[ 11005 11000 10999 10996 ] final   60.50 input  -57.11 | X-H torsion

> <Gold.Protein.ActiveResidues>
 VAL166  LYS551  ARG553  GLY616  TRP617  ASP618  TYR619  PRO620  LYS621  CYS622 
 ASP623  PHE694  ASN695  SER759  ASP760  ASP761  ALA762  ILE779  LEU786  VAL792 
 PHE793  MET794  SER795  GLU796  ALA797  LYS798  CYS799  TRP800  GLU811  SER814 

> <Gold.Protein.RotatedAtoms>
  152.5434  134.0875  159.8261 H   0  0  0  0  0  0  0  0  0  0  0  0  # atno 6907 bound_to 6896
  151.0968  133.5266  159.2619 H   0  0  0  0  0  0  0  0  0  0  0  0  # atno 6908 bound_to 6896
  151.2036  135.0462  159.8936 H   0  0  0  0  0  0  0  0  0  0  0  0  # atno 6909 bound_to 6896
  145.9386  139.3869  143.0377 H   0  0  0  0  0  0  0  0  0  0  0  0  # atno 7974 bound_to 7965
  154.4973  140.2141  155.9420 H   0  0  0  0  0  0  0  0  0  0  0  0  # atno 8008 bound_to 7997
  156.1387  140.3183  155.8429 H   0  0  0  0  0  0  0  0  0  0  0  0  # atno 8009 bound_to 7997
  155.4160  140.0493  157.3019 H   0  0  0  0  0  0  0  0  0  0  0  0  # atno 8010 bound_to 7997
  139.9331  144.6139  150.8325 H   0  0  0  0  0  0  0  0  0  0  0  0  # atno 10167 bound_to 10162
  156.4262  130.4436  149.7149 H   0  0  0  0  0  0  0  0  0  0  0  0  # atno 10718 bound_to 10713
  153.0204  135.5270  154.7037 H   0  0  0  0  0  0  0  0  0  0  0  0  # atno 10763 bound_to 10752
  154.6139  135.2881  155.0404 H   0  0  0  0  0  0  0  0  0  0  0  0  # atno 10764 bound_to 10752
  154.1416  135.6577  153.4996 H   0  0  0  0  0  0  0  0  0  0  0  0  # atno 10765 bound_to 10752
  140.0227  134.6128  155.9616 H   0  0  0  0  0  0  0  0  0  0  0  0  # atno 11005 bound_to 11000
  145.8330  140.9621  143.0839 LP  0  0  0  0  0  0  0  0  0  0  0  0  # atno 17320 bound_to 7965
  144.6775  140.0187  143.7484 LP  0  0  0  0  0  0  0  0  0  0  0  0  # atno 17321 bound_to 7965
  140.7632  143.3217  151.2608 LP  0  0  0  0  0  0  0  0  0  0  0  0  # atno 17342 bound_to 10162
  139.6766  143.9927  152.2784 LP  0  0  0  0  0  0  0  0  0  0  0  0  # atno 17343 bound_to 10162
  156.4070  130.7703  151.2714 LP  0  0  0  0  0  0  0  0  0  0  0  0  # atno 17370 bound_to 10713
  157.7508  131.0223  150.3785 LP  0  0  0  0  0  0  0  0  0  0  0  0  # atno 17371 bound_to 10713
  141.1784  133.6543  156.4920 LP  0  0  0  0  0  0  0  0  0  0  0  0  # atno 17394 bound_to 11000
  140.4359  134.7060  157.4966 LP  0  0  0  0  0  0  0  0  0  0  0  0  # atno 17395 bound_to 11000

$$$$
