AV-unprocessed.smi:3249|AV-procd|sdf|12418|dock6
  -GOLD-   2272018303D 1   1.00000     0.00000
 Structure written by MMmdl.
 44 45  0  0  0  0  0  0  0  0  2 V2000
  151.5212  145.4273  159.9268 C   0  0  0  0  0  0  0  0  0  0  0  0
  152.1956  144.1732  160.4029 C   0  0  0  0  0  0  0  0  0  0  0  0
  152.4947  143.7950  161.7421 C   0  0  0  0  0  0  0  0  0  0  0  0
  153.1076  142.6253  161.8203 N   0  0  0  0  0  0  0  0  0  0  0  0
  153.2066  142.2051  160.5407 N   0  0  0  0  0  0  0  0  0  0  0  0
  153.8728  140.9407  160.2462 C   0  0  1  0  0  0  0  0  0  0  0  0
  154.6012  140.4307  161.5040 C   0  0  0  0  0  0  0  0  0  0  0  0
  152.8680  139.9186  159.6537 C   0  0  2  0  0  0  0  0  0  0  0  0
  153.3631  138.4644  159.7680 C   0  0  0  0  0  0  0  0  0  0  0  0
  152.5985  140.2475  158.2339 N   0  3  0  0  0  0  0  0  0  0  0  0
  151.3513  140.9982  157.9809 C   0  0  0  0  0  0  0  0  0  0  0  0
  150.9479  140.9017  156.5032 C   0  0  2  0  0  0  0  0  0  0  0  0
  149.5945  141.5863  156.2302 C   0  0  0  0  0  0  0  0  0  0  0  0
  149.1797  141.3954  154.7669 C   0  0  0  0  0  0  0  0  0  0  0  0
  149.2121  139.9056  154.4106 C   0  0  0  0  0  0  0  0  0  0  0  0
  150.5735  139.2967  154.7818 C   0  0  0  0  0  0  0  0  0  0  0  0
  150.8457  139.5206  156.1622 O   0  0  0  0  0  0  0  0  0  0  0  0
  152.6713  143.1277  159.6638 C   0  0  0  0  0  0  0  0  0  0  0  0
  151.1053  146.0033  160.7538 H   0  0  0  0  0  0  0  0  0  0  0  0
  150.6999  145.2087  159.2441 H   0  0  0  0  0  0  0  0  0  0  0  0
  152.2153  146.0806  159.3977 H   0  0  0  0  0  0  0  0  0  0  0  0
  152.2918  144.3364  162.6547 H   0  0  0  0  0  0  0  0  0  0  0  0
  154.6380  141.1406  159.4932 H   0  0  0  0  0  0  0  0  0  0  0  0
  155.2532  139.5876  161.2780 H   0  0  0  0  0  0  0  0  0  0  0  0
  153.8980  140.1120  162.2740 H   0  0  0  0  0  0  0  0  0  0  0  0
  155.2313  141.2109  161.9324 H   0  0  0  0  0  0  0  0  0  0  0  0
  151.9325  140.0106  160.2085 H   0  0  0  0  0  0  0  0  0  0  0  0
  153.4843  138.1611  160.8074 H   0  0  0  0  0  0  0  0  0  0  0  0
  154.3230  138.3323  159.2678 H   0  0  0  0  0  0  0  0  0  0  0  0
  152.6584  137.7633  159.3217 H   0  0  0  0  0  0  0  0  0  0  0  0
  153.3629  140.8237  157.9098 H   0  0  0  0  0  0  0  0  0  0  0  0
  150.5474  140.6267  158.6168 H   0  0  0  0  0  0  0  0  0  0  0  0
  151.5145  142.0439  158.2449 H   0  0  0  0  0  0  0  0  0  0  0  0
  151.7208  141.3716  155.8918 H   0  0  0  0  0  0  0  0  0  0  0  0
  148.8297  141.1643  156.8840 H   0  0  0  0  0  0  0  0  0  0  0  0
  149.6528  142.6500  156.4640 H   0  0  0  0  0  0  0  0  0  0  0  0
  148.1844  141.8065  154.5957 H   0  0  0  0  0  0  0  0  0  0  0  0
  149.8621  141.9441  154.1165 H   0  0  0  0  0  0  0  0  0  0  0  0
  148.4210  139.3824  154.9493 H   0  0  0  0  0  0  0  0  0  0  0  0
  149.0123  139.7664  153.3478 H   0  0  0  0  0  0  0  0  0  0  0  0
  150.5664  138.2228  154.5944 H   0  0  0  0  0  0  0  0  0  0  0  0
  151.3705  139.7212  154.1693 H   0  0  0  0  0  0  0  0  0  0  0  0
  152.6759  142.9685  158.5954 H   0  0  0  0  0  0  0  0  0  0  0  0
  152.5941  139.3953  157.6915 H   0  0  0  0  0  0  0  0  0  0  0  0
  1  2  1  0  0  0  0
  1 19  1  0  0  0  0
  1 20  1  0  0  0  0
  1 21  1  0  0  0  0
  2 18  2  0  0  0  0
  2  3  1  0  0  0  0
  3  4  2  0  0  0  0
  3 22  1  0  0  0  0
  4  5  1  0  0  0  0
  5  6  1  0  0  0  0
  5 18  1  0  0  0  0
  6  7  1  0  0  0  0
  6  8  1  0  0  0  0
  6 23  1  0  0  0  0
  7 24  1  0  0  0  0
  7 25  1  0  0  0  0
  7 26  1  0  0  0  0
  8  9  1  0  0  0  0
  8 10  1  0  0  0  0
  8 27  1  0  0  0  0
  9 28  1  0  0  0  0
  9 29  1  0  0  0  0
  9 30  1  0  0  0  0
 10 11  1  0  0  0  0
 10 31  1  0  0  0  0
 10 44  1  0  0  0  0
 11 12  1  0  0  0  0
 11 32  1  0  0  0  0
 11 33  1  0  0  0  0
 12 17  1  0  0  0  0
 12 13  1  0  0  0  0
 12 34  1  0  0  0  0
 13 14  1  0  0  0  0
 13 35  1  0  0  0  0
 13 36  1  0  0  0  0
 14 15  1  0  0  0  0
 14 37  1  0  0  0  0
 14 38  1  0  0  0  0
 15 16  1  0  0  0  0
 15 39  1  0  0  0  0
 15 40  1  0  0  0  0
 16 17  1  0  0  0  0
 16 41  1  0  0  0  0
 16 42  1  0  0  0  0
 18 43  1  0  0  0  0
M  CHG  1  10   1
M  END
> <s_m_source_file>
AV-unprocessed.smi

> <i_m_source_file_index>
3249

> <i_lp_mmshare_version>
43012

> <i_f3d_flags>
0

> <s_epik_input>
W0NIM11jMVtjSF1ubihbY0hdMSlbQ0BIXShbQ0gzXSlbQ0BIXShbQ0gzXSlbTkhdW0NIMl1bQ0BASF0yW0NIMl1bQ0gyXVtDSDJdW0NIMl1PMg==

> <s_epik_cmdline>
J2VwaWtfcHl0aG9uJywgJy1waCcsICc3LjAnLCAnLXRuJywgJzgnLCAnLW1hJywgJzIwMCcsICctbWV0YWxfYmluZGluZycsICctaW1hZScsICc8aW5maWxlLm1hZT4nLCAnLW9tYWUnLCAnPG91dGZpbGUubWFlPic=

> <r_lp_tautomer_probability>
1

> <r_epik_Ionization_Penalty>
0.00659207

> <r_epik_Ionization_Penalty_Charging>
0.00656881

> <r_epik_Ionization_Penalty_Neutral>
2.32662e-05

> <r_epik_State_Penalty>
0.0048654

> <r_epik_Charging_Adjusted_Penalty>
0.0114342

> <i_epik_Tot_Q>
1

> <i_epik_Tot_abs_Q>
1

> <r_epik_Metal_State_Penalty>
-0

> <b_epik_Metal_Only>
0

> <s_lp_Force_Field>
OPLS_2005

> <r_lp_Energy>
17.4327

> <b_lp_Chiralities_Consistent>
1

> <s_lp_Variant>
AV-unprocessed.smi:3249-2

> <Gold.Version>
5.8.1

> <Gold.Id.Protein>
6NUR|6NUR_protein|mol2

> <Gold.PLP.Fitness>
43.2665

> <Gold.PLP.PLP>
-45.6196

> <Gold.PLP.part.hbond>
0.0000

> <Gold.PLP.part.metal>
0.0000

> <Gold.PLP.part.buried>
-4.9705

> <Gold.PLP.part.nonpolar>
-40.2576

> <Gold.PLP.part.repulsive>
0.1531

> <Gold.PLP.ligand.clash>
0.0000

> <Gold.PLP.ligand.torsion>
1.2303

> <Gold.PLP.Chemscore.Hbond>
0.0000

> <Gold.PLP.Chemscore.CHOScore>
0.0000

> <Gold.PLP.Chemscore.Metal>
0.0000

> <Gold.PLP.Chemscore.Internal.Correction>
0.1075

> <Gold.Rescore>
     Score         DG    S(hbond)    S(metal)    S(lipo)     H(rot)  DE(clash)    DE(int)     intcor
     14.08     -15.37       0.00        0.00     118.11       1.53       0.08       1.21       ----

> <Gold.Chemscore.Fitness>
14.0834

> <Gold.Chemscore.DG>
-15.3735

> <Gold.Chemscore.ZeroCoef>
-5.4800

> <Gold.Chemscore.Hbond>
0.0000

> <Gold.Chemscore.Metal>
0.0000

> <Gold.Chemscore.Lipo>
118.1088

> <Gold.Chemscore.Internal_Hbond>
0.0000

> <Gold.Chemscore.DEClash>
0.0756

> <Gold.Chemscore.DEInternal>
1.2145

> <Gold.Chemscore.Rot>
1.5333

> <Gold.Chemscore.Internal.Correction>
   9.000000E+99

> <Gold.Chemscore.Hbond.Weighted>
-0.0000

> <Gold.Chemscore.Metal.Weighted>
-0.0000

> <Gold.Chemscore.Lipo.Weighted>
-13.8187

> <Gold.Chemscore.Internal_Hbond.Weighted>
0.0000

> <Gold.Chemscore.DEClash.Weighted>
0.0756

> <Gold.Chemscore.DEInternal.Weighted>
1.2145

> <Gold.Chemscore.Rot.Weighted>
3.9252

> <Gold.Chemscore.Internal.Correction.Weighted>
   9.000000E+99

> <Gold.Protein.RotatedTorsions>
[ 6907 6896 6895 6894 ] final  -76.46 input  -60.11 | X-H torsion
[ 7974 7965 7964 7962 ] final  155.87 input  175.53 | X-H torsion
[ 8008 7997 7996 7995 ] final  116.93 input   59.86 | X-H torsion
[ 10167 10162 10161 10158 ] final  -33.84 input  -65.29 | X-H torsion
[ 10718 10713 10712 10709 ] final -151.14 input   66.30 | X-H torsion
[ 10763 10752 10751 10750 ] final   50.32 input  -60.55 | X-H torsion
[ 11005 11000 10999 10996 ] final  114.28 input  -57.11 | X-H torsion

> <Gold.Protein.ActiveResidues>
 VAL166  LYS551  ARG553  GLY616  TRP617  ASP618  TYR619  PRO620  LYS621  CYS622 
 ASP623  PHE694  ASN695  SER759  ASP760  ASP761  ALA762  ILE779  LEU786  VAL792 
 PHE793  MET794  SER795  GLU796  ALA797  LYS798  CYS799  TRP800  GLU811  SER814 

> <Gold.Protein.RotatedAtoms>
  150.7027  134.4569  159.5362 H   0  0  0  0  0  0  0  0  0  0  0  0  # atno 6907 bound_to 6896
  152.2251  134.8373  160.0490 H   0  0  0  0  0  0  0  0  0  0  0  0  # atno 6908 bound_to 6896
  151.9209  133.3550  159.3933 H   0  0  0  0  0  0  0  0  0  0  0  0  # atno 6909 bound_to 6896
  144.7998  139.7126  143.6186 H   0  0  0  0  0  0  0  0  0  0  0  0  # atno 7974 bound_to 7965
  156.2466  140.2907  156.0599 H   0  0  0  0  0  0  0  0  0  0  0  0  # atno 8008 bound_to 7997
  155.1787  140.0403  157.2895 H   0  0  0  0  0  0  0  0  0  0  0  0  # atno 8009 bound_to 7997
  154.6275  140.2491  155.7481 H   0  0  0  0  0  0  0  0  0  0  0  0  # atno 8010 bound_to 7997
  140.7197  143.3591  151.2000 H   0  0  0  0  0  0  0  0  0  0  0  0  # atno 10167 bound_to 10162
  156.4554  130.8188  151.2419 H   0  0  0  0  0  0  0  0  0  0  0  0  # atno 10718 bound_to 10713
  152.9785  135.5883  154.4233 H   0  0  0  0  0  0  0  0  0  0  0  0  # atno 10763 bound_to 10752
  154.3855  135.2767  155.2188 H   0  0  0  0  0  0  0  0  0  0  0  0  # atno 10764 bound_to 10752
  154.4083  135.6087  153.5992 H   0  0  0  0  0  0  0  0  0  0  0  0  # atno 10765 bound_to 10752
  139.8976  134.9565  156.6867 H   0  0  0  0  0  0  0  0  0  0  0  0  # atno 11005 bound_to 11000
  146.2276  139.5753  142.9576 LP  0  0  0  0  0  0  0  0  0  0  0  0  # atno 17320 bound_to 7965
  145.5582  141.0407  143.2241 LP  0  0  0  0  0  0  0  0  0  0  0  0  # atno 17321 bound_to 7965
  139.7139  143.9333  152.2958 LP  0  0  0  0  0  0  0  0  0  0  0  0  # atno 17342 bound_to 10162
  139.9067  144.6880  150.8607 LP  0  0  0  0  0  0  0  0  0  0  0  0  # atno 17343 bound_to 10162
  157.7501  131.0124  150.3385 LP  0  0  0  0  0  0  0  0  0  0  0  0  # atno 17370 bound_to 10713
  156.3772  130.3874  149.7129 LP  0  0  0  0  0  0  0  0  0  0  0  0  # atno 17371 bound_to 10713
  140.7257  133.9102  155.8176 LP  0  0  0  0  0  0  0  0  0  0  0  0  # atno 17394 bound_to 11000
  141.0193  134.0912  157.4138 LP  0  0  0  0  0  0  0  0  0  0  0  0  # atno 17395 bound_to 11000

$$$$
