AV-unprocessed.smi:710|AV-procd|sdf|3462|dock1
  -GOLD-   22720 0453D 1   1.00000     0.00000
 Structure written by MMmdl.
 40 41  0  0  0  0  0  0  0  0  1 V2000
  151.2309  145.6263  157.8341 C   0  0  0  0  0  0  0  0  0  0  0  0
  151.7317  144.6823  158.8896 C   0  0  0  0  0  0  0  0  0  0  0  0
  151.8350  145.1009  160.1400 N   0  0  0  0  0  0  0  0  0  0  0  0
  152.2954  144.0339  160.8233 N   0  0  0  0  0  0  0  0  0  0  0  0
  152.5193  144.1462  162.2514 C   0  0  0  0  0  0  0  0  0  0  0  0
  152.4904  142.9408  160.0015 C   0  0  0  0  0  0  0  0  0  0  0  0
  152.9901  141.6319  160.5239 C   0  0  0  0  0  0  0  0  0  0  0  0
  152.1334  143.3231  158.7352 C   0  0  0  0  0  0  0  0  0  0  0  0
  152.1447  142.5133  157.4619 C   0  0  0  0  0  0  0  0  0  0  0  0
  150.7595  141.9160  157.2093 C   0  0  0  0  0  0  0  0  0  0  0  0
  149.7626  142.4244  157.7209 O   0  0  0  0  0  0  0  0  0  0  0  0
  150.7135  140.8376  156.4149 N   0  0  0  0  0  0  0  0  0  0  0  0
  149.5046  140.0992  156.0750 C   0  0  0  0  0  0  0  0  0  0  0  0
  148.8673  140.6280  154.7721 C   0  0  1  0  0  0  0  0  0  0  0  0
  149.8095  140.4525  153.7280 O   0  0  0  0  0  0  0  0  0  0  0  0
  147.6029  139.8422  154.3876 C   0  0  0  0  0  0  0  0  0  0  0  0
  146.8876  140.6161  153.2749 C   0  0  0  0  0  0  0  0  0  0  0  0
  147.1770  142.3811  153.5589 S   0  0  0  0  0  0  0  0  0  0  0  0
  148.4388  142.1056  154.8310 C   0  0  0  0  0  0  0  0  0  0  0  0
  150.4854  145.1439  157.2018 H   0  0  0  0  0  0  0  0  0  0  0  0
  152.0465  145.9583  157.1914 H   0  0  0  0  0  0  0  0  0  0  0  0
  150.7686  146.5129  158.2699 H   0  0  0  0  0  0  0  0  0  0  0  0
  152.0021  143.3377  162.7689 H   0  0  0  0  0  0  0  0  0  0  0  0
  152.1442  145.0996  162.6266 H   0  0  0  0  0  0  0  0  0  0  0  0
  153.5872  144.0790  162.4605 H   0  0  0  0  0  0  0  0  0  0  0  0
  153.2556  140.9561  159.7115 H   0  0  0  0  0  0  0  0  0  0  0  0
  152.2262  141.1426  161.1285 H   0  0  0  0  0  0  0  0  0  0  0  0
  153.8765  141.7702  161.1431 H   0  0  0  0  0  0  0  0  0  0  0  0
  152.4295  143.1270  156.6065 H   0  0  0  0  0  0  0  0  0  0  0  0
  152.8752  141.7050  157.5059 H   0  0  0  0  0  0  0  0  0  0  0  0
  151.5834  140.4823  156.0458 H   0  0  0  0  0  0  0  0  0  0  0  0
  149.7257  139.0333  155.9925 H   0  0  0  0  0  0  0  0  0  0  0  0
  148.8005  140.2114  156.9012 H   0  0  0  0  0  0  0  0  0  0  0  0
  149.5837  139.6691  153.2500 H   0  0  0  0  0  0  0  0  0  0  0  0
  147.8246  138.8164  154.0897 H   0  0  0  0  0  0  0  0  0  0  0  0
  146.9390  139.7826  155.2512 H   0  0  0  0  0  0  0  0  0  0  0  0
  147.3095  140.3546  152.3040 H   0  0  0  0  0  0  0  0  0  0  0  0
  145.8207  140.3945  153.2425 H   0  0  0  0  0  0  0  0  0  0  0  0
  147.9787  142.3211  155.7961 H   0  0  0  0  0  0  0  0  0  0  0  0
  149.2750  142.7949  154.7076 H   0  0  0  0  0  0  0  0  0  0  0  0
  1  2  1  0  0  0  0
  1 20  1  0  0  0  0
  1 21  1  0  0  0  0
  1 22  1  0  0  0  0
  2  8  1  0  0  0  0
  2  3  2  0  0  0  0
  3  4  1  0  0  0  0
  4  5  1  0  0  0  0
  4  6  1  0  0  0  0
  5 23  1  0  0  0  0
  5 24  1  0  0  0  0
  5 25  1  0  0  0  0
  6  7  1  0  0  0  0
  6  8  2  0  0  0  0
  7 26  1  0  0  0  0
  7 27  1  0  0  0  0
  7 28  1  0  0  0  0
  8  9  1  0  0  0  0
  9 10  1  0  0  0  0
  9 29  1  0  0  0  0
  9 30  1  0  0  0  0
 10 11  2  0  0  0  0
 10 12  1  0  0  0  0
 12 13  1  0  0  0  0
 12 31  1  0  0  0  0
 13 14  1  0  0  0  0
 13 32  1  0  0  0  0
 13 33  1  0  0  0  0
 14 19  1  0  0  0  0
 14 15  1  0  0  0  0
 14 16  1  0  0  0  0
 15 34  1  0  0  0  0
 16 17  1  0  0  0  0
 16 35  1  0  0  0  0
 16 36  1  0  0  0  0
 17 18  1  0  0  0  0
 17 37  1  0  0  0  0
 17 38  1  0  0  0  0
 18 19  1  0  0  0  0
 19 39  1  0  0  0  0
 19 40  1  0  0  0  0
M  END
> <s_m_source_file>
AV-unprocessed.smi

> <i_m_source_file_index>
710

> <i_lp_mmshare_version>
43012

> <i_f3d_flags>
0

> <s_epik_input>
W0NIM11jMW5uKFtDSDNdKWMoW0NIM10pYzFbQ0gyXUMoPU8pW05IXVtDSDJdW0NAQF0yKFtPSF0pW0NIMl1bQ0gyXVNbQ0gyXTI=

> <s_epik_cmdline>
J2VwaWtfcHl0aG9uJywgJy1waCcsICc3LjAnLCAnLXRuJywgJzgnLCAnLW1hJywgJzIwMCcsICctbWV0YWxfYmluZGluZycsICctaW1hZScsICc8aW5maWxlLm1hZT4nLCAnLW9tYWUnLCAnPG91dGZpbGUubWFlPic=

> <r_lp_tautomer_probability>
1

> <r_epik_Ionization_Penalty>
0.00343686

> <r_epik_Ionization_Penalty_Charging>
0

> <r_epik_Ionization_Penalty_Neutral>
0.00343686

> <r_epik_State_Penalty>
0.00243544

> <r_epik_Charging_Adjusted_Penalty>
0.00243544

> <i_epik_Tot_Q>
0

> <i_epik_Tot_abs_Q>
0

> <r_epik_Metal_State_Penalty>
-0

> <b_epik_Metal_Only>
0

> <s_lp_Force_Field>
OPLS_2005

> <r_lp_Energy>
10.7161

> <b_lp_Chiralities_Consistent>
1

> <s_lp_Variant>
AV-unprocessed.smi:710-1

> <Gold.Version>
5.8.1

> <Gold.Id.Protein>
6NUR|6NUR_protein|mol2

> <Gold.PLP.Fitness>
44.0979

> <Gold.PLP.PLP>
-39.6007

> <Gold.PLP.part.hbond>
-2.6106

> <Gold.PLP.part.metal>
0.0000

> <Gold.PLP.part.buried>
-3.9473

> <Gold.PLP.part.nonpolar>
-32.5584

> <Gold.PLP.part.repulsive>
0.2821

> <Gold.PLP.ligand.clash>
0.0000

> <Gold.PLP.ligand.torsion>
0.8488

> <Gold.PLP.Chemscore.Hbond>
2.0560

> <Gold.PLP.Chemscore.CHOScore>
0.0000

> <Gold.PLP.Chemscore.Metal>
0.0000

> <Gold.Chemscore.Hbonds>
donor molecule, donor type, donor heavy atom, donor atom, acceptor molecule, acceptor atom, score
      L1  H    15    34       P1  7957  0.16
      P1  H  7989  7998       L1    15  0.59
      P1  H  8011  8017       L1    15  0.06

> <Gold.PLP.Chemscore.Internal.Correction>
0.0269

> <Gold.Rescore>
     Score         DG    S(hbond)    S(metal)    S(lipo)     H(rot)  DE(clash)    DE(int)     intcor
     13.35     -18.62       1.43        0.00     116.90       2.07       4.69       0.58       ----

> <Gold.Chemscore.Fitness>
13.3490

> <Gold.Chemscore.DG>
-18.6198

> <Gold.Chemscore.ZeroCoef>
-5.4800

> <Gold.Chemscore.Hbond>
1.4294

> <Gold.Chemscore.Metal>
0.0000

> <Gold.Chemscore.Lipo>
116.9033

> <Gold.Chemscore.Internal_Hbond>
0.0000

> <Gold.Chemscore.DEClash>
4.6912

> <Gold.Chemscore.DEInternal>
0.5796

> <Gold.Chemscore.Rot>
2.0750

> <Gold.Chemscore.Internal.Correction>
   9.000000E+99

> <Gold.Chemscore.Hbonds>
donor molecule, donor type, donor heavy atom, donor atom, acceptor molecule, acceptor atom, score
      L1  H    15    34       P1  7957  0.17
      P1  H  7989  7998       L1    15  0.45
      P1  H  8011  8017       L1    15  0.06

> <Gold.Chemscore.Hbond.Weighted>
-4.7741

> <Gold.Chemscore.Metal.Weighted>
-0.0000

> <Gold.Chemscore.Lipo.Weighted>
-13.6777

> <Gold.Chemscore.Internal_Hbond.Weighted>
0.0000

> <Gold.Chemscore.DEClash.Weighted>
4.6912

> <Gold.Chemscore.DEInternal.Weighted>
0.5796

> <Gold.Chemscore.Rot.Weighted>
5.3120

> <Gold.Chemscore.Internal.Correction.Weighted>
   9.000000E+99

> <Gold.Protein.RotatedTorsions>
[ 6907 6896 6895 6894 ] final   16.09 input  -60.11 | X-H torsion
[ 7974 7965 7964 7962 ] final   72.07 input  175.53 | X-H torsion
[ 8008 7997 7996 7995 ] final    4.17 input   59.86 | X-H torsion
[ 10167 10162 10161 10158 ] final  -49.30 input  -65.29 | X-H torsion
[ 10718 10713 10712 10709 ] final -162.99 input   66.30 | X-H torsion
[ 10763 10752 10751 10750 ] final  -31.27 input  -60.55 | X-H torsion
[ 11005 11000 10999 10996 ] final   61.45 input  -57.11 | X-H torsion

> <Gold.Protein.ActiveResidues>
 VAL166  LYS551  ARG553  GLY616  TRP617  ASP618  TYR619  PRO620  LYS621  CYS622 
 ASP623  PHE694  ASN695  SER759  ASP760  ASP761  ALA762  ILE779  LEU786  VAL792 
 PHE793  MET794  SER795  GLU796  ALA797  LYS798  CYS799  TRP800  GLU811  SER814 

> <Gold.Protein.RotatedAtoms>
  151.8284  135.0629  160.0433 H   0  0  0  0  0  0  0  0  0  0  0  0  # atno 6907 bound_to 6896
  152.2899  133.5546  159.5559 H   0  0  0  0  0  0  0  0  0  0  0  0  # atno 6908 bound_to 6896
  150.7225  134.0360  159.3791 H   0  0  0  0  0  0  0  0  0  0  0  0  # atno 6909 bound_to 6896
  145.7580  139.2788  143.1393 H   0  0  0  0  0  0  0  0  0  0  0  0  # atno 7974 bound_to 7965
  154.7126  140.2695  155.6615 H   0  0  0  0  0  0  0  0  0  0  0  0  # atno 8008 bound_to 7997
  156.2800  140.2750  156.1697 H   0  0  0  0  0  0  0  0  0  0  0  0  # atno 8009 bound_to 7997
  155.0614  140.0371  157.2568 H   0  0  0  0  0  0  0  0  0  0  0  0  # atno 8010 bound_to 7997
  140.6691  143.2703  151.4195 H   0  0  0  0  0  0  0  0  0  0  0  0  # atno 10167 bound_to 10162
  156.6183  130.8880  151.2952 H   0  0  0  0  0  0  0  0  0  0  0  0  # atno 10718 bound_to 10713
  153.7946  135.6895  153.4865 H   0  0  0  0  0  0  0  0  0  0  0  0  # atno 10763 bound_to 10752
  153.1727  135.4536  154.9923 H   0  0  0  0  0  0  0  0  0  0  0  0  # atno 10764 bound_to 10752
  154.8031  135.3345  154.7440 H   0  0  0  0  0  0  0  0  0  0  0  0  # atno 10765 bound_to 10752
  140.0160  134.6224  155.9709 H   0  0  0  0  0  0  0  0  0  0  0  0  # atno 11005 bound_to 11000
  146.0292  140.8274  142.9884 LP  0  0  0  0  0  0  0  0  0  0  0  0  # atno 17320 bound_to 7965
  144.6836  140.2744  143.7301 LP  0  0  0  0  0  0  0  0  0  0  0  0  # atno 17321 bound_to 7965
  139.5952  144.1413  152.2135 LP  0  0  0  0  0  0  0  0  0  0  0  0  # atno 17342 bound_to 10162
  140.0780  144.5724  150.7143 LP  0  0  0  0  0  0  0  0  0  0  0  0  # atno 17343 bound_to 10162
  157.7235  130.9590  150.1535 LP  0  0  0  0  0  0  0  0  0  0  0  0  # atno 17370 bound_to 10713
  156.2332  130.3684  149.8421 LP  0  0  0  0  0  0  0  0  0  0  0  0  # atno 17371 bound_to 10713
  141.1743  133.6539  156.4768 LP  0  0  0  0  0  0  0  0  0  0  0  0  # atno 17394 bound_to 11000
  140.4470  134.6963  157.5021 LP  0  0  0  0  0  0  0  0  0  0  0  0  # atno 17395 bound_to 11000

$$$$
