AV-unprocessed.smi:1866|AV-procd|sdf|7558|dock4
  -GOLD-   22720 9273D 1   1.00000     0.00000
 Structure written by MMmdl.
 29 30  0  0  0  0  0  0  0  0  2 V2000
  146.4051  141.2607  153.7011 C   0  0  0  0  0  0  0  0  0  0  0  0
  147.5059  141.4801  154.6814 C   0  0  0  0  0  0  0  0  0  0  0  0
  148.7523  141.7834  154.3115 N   0  0  0  0  0  0  0  0  0  0  0  0
  149.5980  141.9377  155.4006 N   0  0  0  0  0  0  0  0  0  0  0  0
  148.9837  141.7396  156.5755 C   0  0  0  0  0  0  0  0  0  0  0  0
  149.6257  141.8468  157.7506 N   0  5  0  0  0  0  0  0  0  0  0  0
  150.6420  142.7288  157.8881 C   0  0  0  0  0  0  0  0  0  0  0  0
  150.9138  143.6549  157.1208 O   0  0  0  0  0  0  0  0  0  0  0  0
  151.3921  142.5182  158.9802 N   0  0  0  0  0  0  0  0  0  0  0  0
  152.5478  143.3038  159.4161 C   0  0  2  0  0  0  0  0  0  0  0  0
  153.2452  142.5463  160.5673 C   0  0  0  0  0  0  0  0  0  0  0  0
  152.4763  142.6583  161.8875 C   0  0  0  0  0  0  0  0  0  0  0  0
  152.3523  144.1317  162.2930 C   0  0  0  0  0  0  0  0  0  0  0  0
  151.9809  144.9968  161.1757 N   0  0  0  0  0  0  0  0  0  0  0  0
  152.0797  144.7084  159.8649 C   0  0  0  0  0  0  0  0  0  0  0  0
  151.8024  145.5520  159.0147 O   0  0  0  0  0  0  0  0  0  0  0  0
  147.2687  141.3596  156.4167 S   0  0  0  0  0  0  0  0  0  0  0  0
  146.4996  140.2728  153.2503 H   0  0  0  0  0  0  0  0  0  0  0  0
  146.4459  142.0130  152.9130 H   0  0  0  0  0  0  0  0  0  0  0  0
  145.4368  141.3286  154.1971 H   0  0  0  0  0  0  0  0  0  0  0  0
  151.1247  141.7471  159.5737 H   0  0  0  0  0  0  0  0  0  0  0  0
  153.2513  143.4093  158.5883 H   0  0  0  0  0  0  0  0  0  0  0  0
  153.3795  141.4970  160.3004 H   0  0  0  0  0  0  0  0  0  0  0  0
  154.2497  142.9491  160.7056 H   0  0  0  0  0  0  0  0  0  0  0  0
  151.4840  142.2190  161.7765 H   0  0  0  0  0  0  0  0  0  0  0  0
  152.9799  142.0937  162.6725 H   0  0  0  0  0  0  0  0  0  0  0  0
  151.6220  144.2440  163.0947 H   0  0  0  0  0  0  0  0  0  0  0  0
  153.3063  144.4869  162.6837 H   0  0  0  0  0  0  0  0  0  0  0  0
  151.6523  145.9205  161.4164 H   0  0  0  0  0  0  0  0  0  0  0  0
  1  2  1  0  0  0  0
  1 18  1  0  0  0  0
  1 19  1  0  0  0  0
  1 20  1  0  0  0  0
  2 17  1  0  0  0  0
  2  3  2  0  0  0  0
  3  4  1  0  0  0  0
  4  5  2  0  0  0  0
  5  6  1  0  0  0  0
  5 17  1  0  0  0  0
  6  7  1  0  0  0  0
  7  8  2  0  0  0  0
  7  9  1  0  0  0  0
  9 10  1  0  0  0  0
  9 21  1  0  0  0  0
 10 15  1  0  0  0  0
 10 11  1  0  0  0  0
 10 22  1  0  0  0  0
 11 12  1  0  0  0  0
 11 23  1  0  0  0  0
 11 24  1  0  0  0  0
 12 13  1  0  0  0  0
 12 25  1  0  0  0  0
 12 26  1  0  0  0  0
 13 14  1  0  0  0  0
 13 27  1  0  0  0  0
 13 28  1  0  0  0  0
 14 15  1  0  0  0  0
 14 29  1  0  0  0  0
 15 16  2  0  0  0  0
M  CHG  1   6  -1
M  END
> <s_m_source_file>
AV-unprocessed.smi

> <i_m_source_file_index>
1866

> <i_lp_mmshare_version>
43012

> <i_f3d_flags>
0

> <s_epik_input>
W0NIM11jMW5uYyhzMSlbTkhdQyg9TylbTkhdW0NAQEhdMltDSDJdW0NIMl1bQ0gyXVtOSF1DMj1P

> <s_epik_cmdline>
J2VwaWtfcHl0aG9uJywgJy1waCcsICc3LjAnLCAnLXRuJywgJzgnLCAnLW1hJywgJzIwMCcsICctbWV0YWxfYmluZGluZycsICctaW1hZScsICc8aW5maWxlLm1hZT4nLCAnLW9tYWUnLCAnPG91dGZpbGUubWFlPic=

> <r_lp_tautomer_probability>
1

> <r_epik_Ionization_Penalty>
3.97471

> <r_epik_Ionization_Penalty_Charging>
3.84029

> <r_epik_Ionization_Penalty_Neutral>
0.134427

> <r_epik_State_Penalty>
3.83938

> <r_epik_Charging_Adjusted_Penalty>
7.67966

> <i_epik_Tot_Q>
-1

> <i_epik_Tot_abs_Q>
1

> <r_epik_Metal_State_Penalty>
0.577306

> <b_epik_Metal_Only>
1

> <s_lp_Force_Field>
OPLS_2005

> <r_lp_Energy>
8.91555

> <b_lp_Chiralities_Consistent>
1

> <s_lp_Variant>
AV-unprocessed.smi:1866-3

> <Gold.Version>
5.8.1

> <Gold.Id.Protein>
6NUR|6NUR_protein|mol2

> <Gold.PLP.Fitness>
34.8463

> <Gold.PLP.PLP>
-33.4866

> <Gold.PLP.part.hbond>
-3.5878

> <Gold.PLP.part.metal>
0.0000

> <Gold.PLP.part.buried>
-2.7566

> <Gold.PLP.part.nonpolar>
-27.3277

> <Gold.PLP.part.repulsive>
0.8909

> <Gold.PLP.ligand.clash>
0.0000

> <Gold.PLP.ligand.torsion>
0.3514

> <Gold.PLP.Chemscore.Hbond>
0.6864

> <Gold.PLP.Chemscore.CHOScore>
0.0000

> <Gold.PLP.Chemscore.Metal>
0.0000

> <Gold.Chemscore.Hbonds>
donor molecule, donor type, donor heavy atom, donor atom, acceptor molecule, acceptor atom, score
      P1  H  8011  8017       L1     3  0.13

> <Gold.PLP.Chemscore.Internal.Correction>
0.0033

> <Gold.Rescore>
     Score         DG    S(hbond)    S(metal)    S(lipo)     H(rot)  DE(clash)    DE(int)     intcor
      8.52     -12.27       0.58        0.00      63.50       1.00       0.54       3.21       ----

> <Gold.Chemscore.Fitness>
8.5196

> <Gold.Chemscore.DG>
-12.2704

> <Gold.Chemscore.ZeroCoef>
-5.4800

> <Gold.Chemscore.Hbond>
0.5751

> <Gold.Chemscore.Metal>
0.0000

> <Gold.Chemscore.Lipo>
63.5020

> <Gold.Chemscore.Internal_Hbond>
0.0000

> <Gold.Chemscore.DEClash>
0.5424

> <Gold.Chemscore.DEInternal>
3.2084

> <Gold.Chemscore.Rot>
1.0000

> <Gold.Chemscore.Internal.Correction>
   9.000000E+99

> <Gold.Chemscore.Hbonds>
donor molecule, donor type, donor heavy atom, donor atom, acceptor molecule, acceptor atom, score
      P1  H  8011  8017       L1     3  0.11

> <Gold.Chemscore.Hbond.Weighted>
-1.9207

> <Gold.Chemscore.Metal.Weighted>
-0.0000

> <Gold.Chemscore.Lipo.Weighted>
-7.4297

> <Gold.Chemscore.Internal_Hbond.Weighted>
0.0000

> <Gold.Chemscore.DEClash.Weighted>
0.5424

> <Gold.Chemscore.DEInternal.Weighted>
3.2084

> <Gold.Chemscore.Rot.Weighted>
2.5600

> <Gold.Chemscore.Internal.Correction.Weighted>
   9.000000E+99

> <Gold.Protein.RotatedTorsions>
[ 6907 6896 6895 6894 ] final  -73.09 input  -60.11 | X-H torsion
[ 7974 7965 7964 7962 ] final   -5.99 input  175.53 | X-H torsion
[ 8008 7997 7996 7995 ] final  124.47 input   59.86 | X-H torsion
[ 10167 10162 10161 10158 ] final   60.01 input  -65.29 | X-H torsion
[ 10718 10713 10712 10709 ] final -175.67 input   66.30 | X-H torsion
[ 10763 10752 10751 10750 ] final   81.84 input  -60.55 | X-H torsion
[ 11005 11000 10999 10996 ] final  -12.09 input  -57.11 | X-H torsion

> <Gold.Protein.ActiveResidues>
 VAL166  LYS551  ARG553  GLY616  TRP617  ASP618  TYR619  PRO620  LYS621  CYS622 
 ASP623  PHE694  ASN695  SER759  ASP760  ASP761  ALA762  ILE779  LEU786  VAL792 
 PHE793  MET794  SER795  GLU796  ALA797  LYS798  CYS799  TRP800  GLU811  SER814 

> <Gold.Protein.RotatedAtoms>
  150.7144  134.5068  159.5587 H   0  0  0  0  0  0  0  0  0  0  0  0  # atno 6907 bound_to 6896
  152.2653  134.7988  160.0433 H   0  0  0  0  0  0  0  0  0  0  0  0  # atno 6908 bound_to 6896
  151.8687  133.3436  159.3764 H   0  0  0  0  0  0  0  0  0  0  0  0  # atno 6909 bound_to 6896
  146.2341  140.2103  142.8335 H   0  0  0  0  0  0  0  0  0  0  0  0  # atno 7974 bound_to 7965
  156.2802  140.2739  156.1793 H   0  0  0  0  0  0  0  0  0  0  0  0  # atno 8008 bound_to 7997
  155.0573  140.0386  157.2582 H   0  0  0  0  0  0  0  0  0  0  0  0  # atno 8009 bound_to 7997
  154.7146  140.2675  155.6603 H   0  0  0  0  0  0  0  0  0  0  0  0  # atno 8010 bound_to 7997
  140.1702  144.4284  150.6665 H   0  0  0  0  0  0  0  0  0  0  0  0  # atno 10167 bound_to 10162
  156.8033  130.9560  151.3118 H   0  0  0  0  0  0  0  0  0  0  0  0  # atno 10718 bound_to 10713
  153.1152  135.4750  154.9102 H   0  0  0  0  0  0  0  0  0  0  0  0  # atno 10763 bound_to 10752
  154.7521  135.3108  154.8541 H   0  0  0  0  0  0  0  0  0  0  0  0  # atno 10764 bound_to 10752
  153.9120  135.6864  153.4804 H   0  0  0  0  0  0  0  0  0  0  0  0  # atno 10765 bound_to 10752
  140.7621  133.8507  155.9133 H   0  0  0  0  0  0  0  0  0  0  0  0  # atno 11005 bound_to 11000
  144.9712  140.8370  143.5454 LP  0  0  0  0  0  0  0  0  0  0  0  0  # atno 17320 bound_to 7965
  145.2085  139.2216  143.5155 LP  0  0  0  0  0  0  0  0  0  0  0  0  # atno 17321 bound_to 7965
  140.6587  143.2245  151.5908 LP  0  0  0  0  0  0  0  0  0  0  0  0  # atno 17342 bound_to 10162
  139.5341  144.2831  152.1213 LP  0  0  0  0  0  0  0  0  0  0  0  0  # atno 17343 bound_to 10162
  157.6543  130.8911  149.9696 LP  0  0  0  0  0  0  0  0  0  0  0  0  # atno 17370 bound_to 10713
  156.1088  130.3651  150.0086 LP  0  0  0  0  0  0  0  0  0  0  0  0  # atno 17371 bound_to 10713
  140.9654  134.1601  157.4620 LP  0  0  0  0  0  0  0  0  0  0  0  0  # atno 17394 bound_to 11000
  139.8769  134.9959  156.5770 LP  0  0  0  0  0  0  0  0  0  0  0  0  # atno 17395 bound_to 11000

$$$$
