AV-unprocessed.smi:2471|AV-procd|sdf|9737|dock2
  -GOLD-   2272013373D 1   1.00000     0.00000
 Structure written by MMmdl.
 40 41  0  0  0  0  0  0  0  0  1 V2000
  150.6528  140.7636  155.5558 C   0  0  0  0  0  0  0  0  0  0  0  0
  149.3738  140.6939  154.7485 C   0  0  0  0  0  0  0  0  0  0  0  0
  148.5256  141.8131  154.6358 C   0  0  0  0  0  0  0  0  0  0  0  0
  147.3558  141.6833  153.8663 C   0  0  0  0  0  0  0  0  0  0  0  0
  147.0836  140.4482  153.2464 C   0  0  0  0  0  0  0  0  0  0  0  0
  147.9854  139.3732  153.4126 C   0  0  0  0  0  0  0  0  0  0  0  0
  147.6177  138.1720  152.7502 N   0  0  0  0  0  0  0  0  0  0  0  0
  146.3850  137.7457  152.4230 C   0  0  0  0  0  0  0  0  0  0  0  0
  145.3373  138.3534  152.6454 O   0  0  0  0  0  0  0  0  0  0  0  0
  146.4319  136.5539  151.8104 N   0  0  0  0  0  0  0  0  0  0  0  0
  145.2715  135.8156  151.3205 C   0  0  0  0  0  0  0  0  0  0  0  0
  145.6002  134.3472  150.9562 C   0  0  2  0  0  0  0  0  0  0  0  0
  144.3875  133.6373  150.3093 C   0  0  0  0  0  0  0  0  0  0  0  0
  144.6899  132.1702  149.9683 C   0  0  0  0  0  0  0  0  0  0  0  0
  145.1553  131.3984  151.2101 C   0  0  0  0  0  0  0  0  0  0  0  0
  146.3770  132.0759  151.8455 C   0  0  0  0  0  0  0  0  0  0  0  0
  146.0871  133.5485  152.1907 C   0  0  1  0  0  0  0  0  0  0  0  0
  147.2754  134.1146  152.7067 O   0  0  0  0  0  0  0  0  0  0  0  0
  149.1126  139.5094  154.1550 N   0  0  0  0  0  0  0  0  0  0  0  0
  150.7261  141.7055  156.1004 H   0  0  0  0  0  0  0  0  0  0  0  0
  151.5185  140.6806  154.8984 H   0  0  0  0  0  0  0  0  0  0  0  0
  150.6913  139.9492  156.2797 H   0  0  0  0  0  0  0  0  0  0  0  0
  148.7632  142.7473  155.1234 H   0  0  0  0  0  0  0  0  0  0  0  0
  146.6782  142.5163  153.7521 H   0  0  0  0  0  0  0  0  0  0  0  0
  146.1891  140.3321  152.6518 H   0  0  0  0  0  0  0  0  0  0  0  0
  148.3838  137.5677  152.4927 H   0  0  0  0  0  0  0  0  0  0  0  0
  147.3351  136.1253  151.6701 H   0  0  0  0  0  0  0  0  0  0  0  0
  144.4820  135.8618  152.0722 H   0  0  0  0  0  0  0  0  0  0  0  0
  144.8861  136.3374  150.4442 H   0  0  0  0  0  0  0  0  0  0  0  0
  146.4088  134.3506  150.2234 H   0  0  0  0  0  0  0  0  0  0  0  0
  143.5330  133.6818  150.9860 H   0  0  0  0  0  0  0  0  0  0  0  0
  144.0849  134.1533  149.3979 H   0  0  0  0  0  0  0  0  0  0  0  0
  143.8028  131.6966  149.5471 H   0  0  0  0  0  0  0  0  0  0  0  0
  145.4603  132.1253  149.1975 H   0  0  0  0  0  0  0  0  0  0  0  0
  144.3441  131.3467  151.9374 H   0  0  0  0  0  0  0  0  0  0  0  0
  145.3969  130.3697  150.9408 H   0  0  0  0  0  0  0  0  0  0  0  0
  146.6719  131.5319  152.7437 H   0  0  0  0  0  0  0  0  0  0  0  0
  147.2207  132.0151  151.1561 H   0  0  0  0  0  0  0  0  0  0  0  0
  145.3280  133.5892  152.9731 H   0  0  0  0  0  0  0  0  0  0  0  0
  147.5341  134.8314  152.1478 H   0  0  0  0  0  0  0  0  0  0  0  0
  1  2  1  0  0  0  0
  1 20  1  0  0  0  0
  1 21  1  0  0  0  0
  1 22  1  0  0  0  0
  2 19  1  0  0  0  0
  2  3  2  0  0  0  0
  3  4  1  0  0  0  0
  3 23  1  0  0  0  0
  4  5  2  0  0  0  0
  4 24  1  0  0  0  0
  5  6  1  0  0  0  0
  5 25  1  0  0  0  0
  6  7  1  0  0  0  0
  6 19  2  0  0  0  0
  7  8  1  0  0  0  0
  7 26  1  0  0  0  0
  8  9  2  0  0  0  0
  8 10  1  0  0  0  0
 10 11  1  0  0  0  0
 10 27  1  0  0  0  0
 11 12  1  0  0  0  0
 11 28  1  0  0  0  0
 11 29  1  0  0  0  0
 12 17  1  0  0  0  0
 12 13  1  0  0  0  0
 12 30  1  0  0  0  0
 13 14  1  0  0  0  0
 13 31  1  0  0  0  0
 13 32  1  0  0  0  0
 14 15  1  0  0  0  0
 14 33  1  0  0  0  0
 14 34  1  0  0  0  0
 15 16  1  0  0  0  0
 15 35  1  0  0  0  0
 15 36  1  0  0  0  0
 16 17  1  0  0  0  0
 16 37  1  0  0  0  0
 16 38  1  0  0  0  0
 17 18  1  0  0  0  0
 17 39  1  0  0  0  0
 18 40  1  0  0  0  0
M  END
> <s_m_source_file>
AV-unprocessed.smi

> <i_m_source_file_index>
2471

> <i_lp_mmshare_version>
43012

> <i_f3d_flags>
0

> <s_epik_input>
W0NIM11jMVtjSF1bY0hdW2NIXWMobjEpW05IXUMoPU8pW05IXVtDSDJdW0NAQEhdMltDSDJdW0NIMl1bQ0gyXVtDSDJdW0NASF0yW09IXQ==

> <s_epik_cmdline>
J2VwaWtfcHl0aG9uJywgJy1waCcsICc3LjAnLCAnLXRuJywgJzgnLCAnLW1hJywgJzIwMCcsICctbWV0YWxfYmluZGluZycsICctaW1hZScsICc8aW5maWxlLm1hZT4nLCAnLW9tYWUnLCAnPG91dGZpbGUubWFlPic=

> <r_lp_tautomer_probability>
1

> <r_epik_Ionization_Penalty>
8.52237e-05

> <r_epik_Ionization_Penalty_Charging>
0

> <r_epik_Ionization_Penalty_Neutral>
8.52237e-05

> <r_epik_State_Penalty>
-0

> <r_epik_Charging_Adjusted_Penalty>
0

> <i_epik_Tot_Q>
0

> <i_epik_Tot_abs_Q>
0

> <r_epik_Metal_State_Penalty>
-0

> <b_epik_Metal_Only>
0

> <s_lp_Force_Field>
OPLS_2005

> <r_lp_Energy>
13.6744

> <b_lp_Chiralities_Consistent>
1

> <s_lp_Variant>
AV-unprocessed.smi:2471-1

> <Gold.Version>
5.8.1

> <Gold.Id.Protein>
6NUR|6NUR_protein|mol2

> <Gold.PLP.Fitness>
43.4293

> <Gold.PLP.PLP>
-35.2819

> <Gold.PLP.part.hbond>
-3.4849

> <Gold.PLP.part.metal>
0.0000

> <Gold.PLP.part.buried>
-1.5100

> <Gold.PLP.part.nonpolar>
-33.7844

> <Gold.PLP.part.repulsive>
3.5905

> <Gold.PLP.ligand.clash>
0.0000

> <Gold.PLP.ligand.torsion>
0.2378

> <Gold.PLP.Chemscore.Hbond>
2.8720

> <Gold.PLP.Chemscore.CHOScore>
0.0000

> <Gold.PLP.Chemscore.Metal>
0.0000

> <Gold.Chemscore.Hbonds>
donor molecule, donor type, donor heavy atom, donor atom, acceptor molecule, acceptor atom, score
      L1  H     7    26       P1  7948  1.00
      L1  H    10    27       P1  7948  0.98
      L1  H    18    40       P1  7948  0.88

> <Gold.PLP.Chemscore.Internal.Correction>
0.0069

> <Gold.Rescore>
     Score         DG    S(hbond)    S(metal)    S(lipo)     H(rot)  DE(clash)    DE(int)     intcor
     15.01     -19.57       2.67        0.00      82.09       1.73       1.39       3.17       ----

> <Gold.Chemscore.Fitness>
15.0143

> <Gold.Chemscore.DG>
-19.5750

> <Gold.Chemscore.ZeroCoef>
-5.4800

> <Gold.Chemscore.Hbond>
2.6734

> <Gold.Chemscore.Metal>
0.0000

> <Gold.Chemscore.Lipo>
82.0903

> <Gold.Chemscore.Internal_Hbond>
0.0000

> <Gold.Chemscore.DEClash>
1.3889

> <Gold.Chemscore.DEInternal>
3.1718

> <Gold.Chemscore.Rot>
1.7339

> <Gold.Chemscore.Internal.Correction>
   9.000000E+99

> <Gold.Chemscore.Hbonds>
donor molecule, donor type, donor heavy atom, donor atom, acceptor molecule, acceptor atom, score
      L1  H     7    26       P1  7948  0.93
      L1  H    10    27       P1  7948  0.92
      L1  H    18    40       P1  7948  0.72

> <Gold.Chemscore.Hbond.Weighted>
-8.9291

> <Gold.Chemscore.Metal.Weighted>
-0.0000

> <Gold.Chemscore.Lipo.Weighted>
-9.6046

> <Gold.Chemscore.Internal_Hbond.Weighted>
0.0000

> <Gold.Chemscore.DEClash.Weighted>
1.3889

> <Gold.Chemscore.DEInternal.Weighted>
3.1718

> <Gold.Chemscore.Rot.Weighted>
4.4387

> <Gold.Chemscore.Internal.Correction.Weighted>
   9.000000E+99

> <Gold.Protein.RotatedTorsions>
[ 6907 6896 6895 6894 ] final  152.53 input  -60.11 | X-H torsion
[ 7974 7965 7964 7962 ] final   44.68 input  175.53 | X-H torsion
[ 8008 7997 7996 7995 ] final  -69.63 input   59.86 | X-H torsion
[ 10167 10162 10161 10158 ] final  176.48 input  -65.29 | X-H torsion
[ 10718 10713 10712 10709 ] final -173.00 input   66.30 | X-H torsion
[ 10763 10752 10751 10750 ] final -165.46 input  -60.55 | X-H torsion
[ 11005 11000 10999 10996 ] final  -75.76 input  -57.11 | X-H torsion

> <Gold.Protein.ActiveResidues>
 VAL166  LYS551  ARG553  GLY616  TRP617  ASP618  TYR619  PRO620  LYS621  CYS622 
 ASP623  PHE694  ASN695  SER759  ASP760  ASP761  ALA762  ILE779  LEU786  VAL792 
 PHE793  MET794  SER795  GLU796  ALA797  LYS798  CYS799  TRP800  GLU811  SER814 

> <Gold.Protein.RotatedAtoms>
  152.0855  133.4174  159.4519 H   0  0  0  0  0  0  0  0  0  0  0  0  # atno 6907 bound_to 6896
  150.6862  134.2933  159.4685 H   0  0  0  0  0  0  0  0  0  0  0  0  # atno 6908 bound_to 6896
  152.0779  134.9490  160.0624 H   0  0  0  0  0  0  0  0  0  0  0  0  # atno 6909 bound_to 6896
  146.0547  139.5048  142.9696 H   0  0  0  0  0  0  0  0  0  0  0  0  # atno 7974 bound_to 7965
  154.4953  140.0850  156.7682 H   0  0  0  0  0  0  0  0  0  0  0  0  # atno 8008 bound_to 7997
  155.4132  140.3442  155.4247 H   0  0  0  0  0  0  0  0  0  0  0  0  # atno 8009 bound_to 7997
  156.1385  140.1522  156.8945 H   0  0  0  0  0  0  0  0  0  0  0  0  # atno 8010 bound_to 7997
  139.5216  144.2910  152.0463 H   0  0  0  0  0  0  0  0  0  0  0  0  # atno 10167 bound_to 10162
  156.7638  130.9423  151.3118 H   0  0  0  0  0  0  0  0  0  0  0  0  # atno 10718 bound_to 10713
  154.6929  135.2974  154.9453 H   0  0  0  0  0  0  0  0  0  0  0  0  # atno 10763 bound_to 10752
  154.0410  135.6657  153.4794 H   0  0  0  0  0  0  0  0  0  0  0  0  # atno 10764 bound_to 10752
  153.0625  135.5107  154.8031 H   0  0  0  0  0  0  0  0  0  0  0  0  # atno 10765 bound_to 10752
  141.1648  133.6958  156.7566 H   0  0  0  0  0  0  0  0  0  0  0  0  # atno 11005 bound_to 11000
  145.6664  141.0228  143.1681 LP  0  0  0  0  0  0  0  0  0  0  0  0  # atno 17320 bound_to 7965
  144.7141  139.8259  143.7404 LP  0  0  0  0  0  0  0  0  0  0  0  0  # atno 17321 bound_to 7965
  140.2362  144.4317  150.6279 LP  0  0  0  0  0  0  0  0  0  0  0  0  # atno 17342 bound_to 10162
  140.6322  143.2189  151.6471 LP  0  0  0  0  0  0  0  0  0  0  0  0  # atno 17343 bound_to 10162
  157.6722  130.9062  150.0067 LP  0  0  0  0  0  0  0  0  0  0  0  0  # atno 17370 bound_to 10713
  156.1322  130.3643  149.9714 LP  0  0  0  0  0  0  0  0  0  0  0  0  # atno 17371 bound_to 10713
  140.2565  134.8500  157.3717 LP  0  0  0  0  0  0  0  0  0  0  0  0  # atno 17394 bound_to 11000
  140.1652  134.4678  155.7868 LP  0  0  0  0  0  0  0  0  0  0  0  0  # atno 17395 bound_to 11000

$$$$
