AV-unprocessed.smi:276|AV-procd|sdf|2083|dock2
  -GOLD-   2262021353D 1   1.00000     0.00000
 Structure written by MMmdl.
 57 61  0  0  0  0  0  0  0  0  1 V2000
  143.6327  135.5449  158.8041 C   0  0  0  0  0  0  0  0  0  0  0  0
  144.8504  135.9271  159.4196 O   0  0  0  0  0  0  0  0  0  0  0  0
  145.4737  134.8606  160.1217 C   0  0  1  0  0  0  0  0  0  0  0  0
  146.0989  133.8214  159.1799 C   0  0  0  0  0  0  0  0  0  0  0  0
  147.4265  134.6037  159.2354 C   0  0  1  0  0  0  0  0  0  0  0  0
  147.5546  135.5324  158.1043 N   0  0  0  0  0  0  0  0  0  0  0  0
  147.6082  134.9421  156.7693 C   0  0  0  0  0  0  0  0  0  0  0  0
  148.4545  136.5355  158.2232 C   0  0  0  0  0  0  0  0  0  0  0  0
  149.5078  136.3187  159.0501 N   0  0  0  0  0  0  0  0  0  0  0  0
  150.4350  137.2658  159.2171 C   0  0  0  0  0  0  0  0  0  0  0  0
  150.4931  138.4823  158.6721 N   0  0  0  0  0  0  0  0  0  0  0  0
  149.4264  138.7113  157.8539 C   0  0  0  0  0  0  0  0  0  0  0  0
  148.3684  137.8010  157.5729 C   0  0  0  0  0  0  0  0  0  0  0  0
  147.4662  138.3865  156.6922 N   0  0  0  0  0  0  0  0  0  0  0  0
  147.9674  139.5676  156.4570 C   0  0  0  0  0  0  0  0  0  0  0  0
  149.1307  139.8558  157.1338 N   0  0  0  0  0  0  0  0  0  0  0  0
  149.8923  141.0906  157.0642 C   0  0  0  0  0  0  0  0  0  0  0  0
  151.0295  141.1939  158.1086 C   0  0  1  0  0  0  0  0  0  0  0  0
  152.0090  140.2637  157.6922 O   0  0  0  0  0  0  0  0  0  0  0  0
  151.7240  142.5722  158.2103 C   0  0  1  0  0  0  0  0  0  0  0  0
  150.8332  143.7502  158.6204 C   0  0  0  0  0  0  0  0  0  0  0  0
  151.7787  144.7169  159.3165 C   0  0  0  0  0  0  0  0  0  0  0  0
  153.0470  143.8943  159.5374 C   0  0  0  0  0  0  0  0  0  0  0  0
  152.6480  142.5553  159.2895 O   0  0  0  0  0  0  0  0  0  0  0  0
  146.9034  135.2277  160.5567 C   0  0  0  0  0  0  0  0  0  0  0  0
  147.4162  134.6839  161.9016 C   0  0  0  0  0  0  0  0  0  0  0  0
  147.1210  136.0560  162.5118 C   0  0  0  0  0  0  0  0  0  0  0  0
  147.2403  136.6320  161.1000 C   0  0  0  0  0  0  0  0  0  0  0  0
  143.2048  136.3997  158.2807 H   0  0  0  0  0  0  0  0  0  0  0  0
  142.9080  135.2075  159.5460 H   0  0  0  0  0  0  0  0  0  0  0  0
  143.7834  134.7476  158.0759 H   0  0  0  0  0  0  0  0  0  0  0  0
  144.8619  134.4446  160.9239 H   0  0  0  0  0  0  0  0  0  0  0  0
  146.1813  132.8399  159.6495 H   0  0  0  0  0  0  0  0  0  0  0  0
  145.6265  133.7421  158.2008 H   0  0  0  0  0  0  0  0  0  0  0  0
  148.2824  133.9421  159.3683 H   0  0  0  0  0  0  0  0  0  0  0  0
  148.3321  135.4318  156.1148 H   0  0  0  0  0  0  0  0  0  0  0  0
  146.6290  135.0189  156.2964 H   0  0  0  0  0  0  0  0  0  0  0  0
  147.8758  133.8863  156.8224 H   0  0  0  0  0  0  0  0  0  0  0  0
  151.2461  137.0130  159.8841 H   0  0  0  0  0  0  0  0  0  0  0  0
  147.4886  140.2718  155.7924 H   0  0  0  0  0  0  0  0  0  0  0  0
  150.3071  141.1514  156.0568 H   0  0  0  0  0  0  0  0  0  0  0  0
  149.2069  141.9333  157.1665 H   0  0  0  0  0  0  0  0  0  0  0  0
  150.6669  140.8866  159.0899 H   0  0  0  0  0  0  0  0  0  0  0  0
  151.8985  140.1031  156.7676 H   0  0  0  0  0  0  0  0  0  0  0  0
  152.2491  142.8126  157.2835 H   0  0  0  0  0  0  0  0  0  0  0  0
  150.3306  144.2105  157.7705 H   0  0  0  0  0  0  0  0  0  0  0  0
  150.0722  143.4215  159.3294 H   0  0  0  0  0  0  0  0  0  0  0  0
  151.9859  145.5951  158.7046 H   0  0  0  0  0  0  0  0  0  0  0  0
  151.3528  145.0572  160.2609 H   0  0  0  0  0  0  0  0  0  0  0  0
  153.8204  144.1774  158.8217 H   0  0  0  0  0  0  0  0  0  0  0  0
  153.4532  144.0076  160.5429 H   0  0  0  0  0  0  0  0  0  0  0  0
  146.8360  133.8618  162.3216 H   0  0  0  0  0  0  0  0  0  0  0  0
  148.4829  134.4532  161.8830 H   0  0  0  0  0  0  0  0  0  0  0  0
  146.1103  136.1319  162.9161 H   0  0  0  0  0  0  0  0  0  0  0  0
  147.8706  136.4145  163.2177 H   0  0  0  0  0  0  0  0  0  0  0  0
  148.2588  136.9593  160.8957 H   0  0  0  0  0  0  0  0  0  0  0  0
  146.5151  137.4103  160.8616 H   0  0  0  0  0  0  0  0  0  0  0  0
  1  2  1  0  0  0  0
  1 29  1  0  0  0  0
  1 30  1  0  0  0  0
  1 31  1  0  0  0  0
  2  3  1  0  0  0  0
  3 25  1  0  0  0  0
  3  4  1  0  0  0  0
  3 32  1  0  0  0  0
  4  5  1  0  0  0  0
  4 33  1  0  0  0  0
  4 34  1  0  0  0  0
  5  6  1  0  0  0  0
  5 25  1  0  0  0  0
  5 35  1  0  0  0  0
  6  7  1  0  0  0  0
  6  8  1  0  0  0  0
  7 36  1  0  0  0  0
  7 37  1  0  0  0  0
  7 38  1  0  0  0  0
  8 13  1  0  0  0  0
  8  9  2  0  0  0  0
  9 10  1  0  0  0  0
 10 11  2  0  0  0  0
 10 39  1  0  0  0  0
 11 12  1  0  0  0  0
 12 16  1  0  0  0  0
 12 13  2  0  0  0  0
 13 14  1  0  0  0  0
 14 15  2  0  0  0  0
 15 16  1  0  0  0  0
 15 40  1  0  0  0  0
 16 17  1  0  0  0  0
 17 18  1  0  0  0  0
 17 41  1  0  0  0  0
 17 42  1  0  0  0  0
 18 19  1  0  0  0  0
 18 20  1  0  0  0  0
 18 43  1  0  0  0  0
 19 44  1  0  0  0  0
 20 24  1  0  0  0  0
 20 21  1  0  0  0  0
 20 45  1  0  0  0  0
 21 22  1  0  0  0  0
 21 46  1  0  0  0  0
 21 47  1  0  0  0  0
 22 23  1  0  0  0  0
 22 48  1  0  0  0  0
 22 49  1  0  0  0  0
 23 24  1  0  0  0  0
 23 50  1  0  0  0  0
 23 51  1  0  0  0  0
 25 28  1  0  0  0  0
 25 26  1  0  0  0  0
 26 27  1  0  0  0  0
 26 52  1  0  0  0  0
 26 53  1  0  0  0  0
 27 28  1  0  0  0  0
 27 54  1  0  0  0  0
 27 55  1  0  0  0  0
 28 56  1  0  0  0  0
 28 57  1  0  0  0  0
M  END
> <s_m_source_file>
AV-unprocessed.smi

> <i_m_source_file_index>
276

> <i_lp_mmshare_version>
43012

> <i_f3d_flags>
0

> <s_epik_input>
W0NIMl0xW0NIMl1bQ0gyXUMxMltDQEhdKE9bQ0gzXSlbQ0gyXVtDQEhdMk4oW0NIM10pYyhuW2NIXW4zKWMoYzM0KW5bY0hdbjRbQ0gyXVtDQEhdKFtPSF0pW0NAQEhdNVtDSDJdW0NIMl1bQ0gyXU81

> <s_epik_cmdline>
J2VwaWtfcHl0aG9uJywgJy1waCcsICc3LjAnLCAnLXRuJywgJzgnLCAnLW1hJywgJzIwMCcsICctbWV0YWxfYmluZGluZycsICctaW1hZScsICc8aW5maWxlLm1hZT4nLCAnLW9tYWUnLCAnPG91dGZpbGUubWFlPic=

> <r_lp_tautomer_probability>
1

> <r_epik_Ionization_Penalty>
0.00204117

> <r_epik_Ionization_Penalty_Charging>
0

> <r_epik_Ionization_Penalty_Neutral>
0.00204117

> <r_epik_State_Penalty>
0.00127401

> <r_epik_Charging_Adjusted_Penalty>
0.00127401

> <i_epik_Tot_Q>
0

> <i_epik_Tot_abs_Q>
0

> <r_epik_Metal_State_Penalty>
-0

> <b_epik_Metal_Only>
0

> <s_lp_Force_Field>
OPLS_2005

> <r_lp_Energy>
58.3472

> <b_lp_Chiralities_Consistent>
1

> <s_lp_Variant>
AV-unprocessed.smi:276-14

> <Gold.Version>
5.8.1

> <Gold.Id.Protein>
6NUR|6NUR_protein|mol2

> <Gold.PLP.Fitness>
38.1734

> <Gold.PLP.PLP>
-35.8163

> <Gold.PLP.part.hbond>
-1.0711

> <Gold.PLP.part.metal>
0.0000

> <Gold.PLP.part.buried>
-7.0125

> <Gold.PLP.part.nonpolar>
-27.0198

> <Gold.PLP.part.repulsive>
0.0000

> <Gold.PLP.ligand.clash>
0.0000

> <Gold.PLP.ligand.torsion>
0.8702

> <Gold.PLP.Chemscore.Hbond>
1.0000

> <Gold.PLP.Chemscore.CHOScore>
0.0000

> <Gold.PLP.Chemscore.Metal>
0.0000

> <Gold.Chemscore.Hbonds>
donor molecule, donor type, donor heavy atom, donor atom, acceptor molecule, acceptor atom, score
      P1  H  6896  6909       L1     9  0.40

> <Gold.PLP.Chemscore.Internal.Correction>
1.0976

> <Gold.Rescore>
     Score         DG    S(hbond)    S(metal)    S(lipo)     H(rot)  DE(clash)    DE(int)     intcor
     10.95     -13.39       0.86        0.00     102.51       2.72       0.18       2.26       ----

> <Gold.Chemscore.Fitness>
10.9512

> <Gold.Chemscore.DG>
-13.3871

> <Gold.Chemscore.ZeroCoef>
-5.4800

> <Gold.Chemscore.Hbond>
0.8589

> <Gold.Chemscore.Metal>
0.0000

> <Gold.Chemscore.Lipo>
102.5147

> <Gold.Chemscore.Internal_Hbond>
0.0000

> <Gold.Chemscore.DEClash>
0.1766

> <Gold.Chemscore.DEInternal>
2.2593

> <Gold.Chemscore.Rot>
2.7172

> <Gold.Chemscore.Internal.Correction>
   9.000000E+99

> <Gold.Chemscore.Hbonds>
donor molecule, donor type, donor heavy atom, donor atom, acceptor molecule, acceptor atom, score
      P1  H  6896  6909       L1     9  0.01

> <Gold.Chemscore.Hbond.Weighted>
-2.8689

> <Gold.Chemscore.Metal.Weighted>
-0.0000

> <Gold.Chemscore.Lipo.Weighted>
-11.9942

> <Gold.Chemscore.Internal_Hbond.Weighted>
0.0000

> <Gold.Chemscore.DEClash.Weighted>
0.1766

> <Gold.Chemscore.DEInternal.Weighted>
2.2593

> <Gold.Chemscore.Rot.Weighted>
6.9560

> <Gold.Chemscore.Internal.Correction.Weighted>
   9.000000E+99

> <Gold.Protein.RotatedTorsions>
[ 6907 6896 6895 6894 ] final   73.87 input  -60.11 | X-H torsion
[ 7974 7965 7964 7962 ] final    7.37 input  175.53 | X-H torsion
[ 8008 7997 7996 7995 ] final  -35.48 input   59.86 | X-H torsion
[ 10167 10162 10161 10158 ] final  -99.11 input  -65.29 | X-H torsion
[ 10718 10713 10712 10709 ] final -121.83 input   66.30 | X-H torsion
[ 10763 10752 10751 10750 ] final  -30.80 input  -60.55 | X-H torsion
[ 11005 11000 10999 10996 ] final -145.00 input  -57.11 | X-H torsion

> <Gold.Protein.ActiveResidues>
 VAL166  LYS551  ARG553  GLY616  TRP617  ASP618  TYR619  PRO620  LYS621  CYS622 
 ASP623  PHE694  ASN695  SER759  ASP760  ASP761  ALA762  ILE779  LEU786  VAL792 
 PHE793  MET794  SER795  GLU796  ALA797  LYS798  CYS799  TRP800  GLU811  SER814 

> <Gold.Protein.RotatedAtoms>
  152.4946  134.4357  159.9526 H   0  0  0  0  0  0  0  0  0  0  0  0  # atno 6907 bound_to 6896
  151.4338  133.3656  159.2780 H   0  0  0  0  0  0  0  0  0  0  0  0  # atno 6908 bound_to 6896
  150.9136  134.8576  159.7501 H   0  0  0  0  0  0  0  0  0  0  0  0  # atno 6909 bound_to 6896
  146.2427  140.0093  142.8408 H   0  0  0  0  0  0  0  0  0  0  0  0  # atno 7974 bound_to 7965
  154.4095  140.1656  156.2218 H   0  0  0  0  0  0  0  0  0  0  0  0  # atno 8008 bound_to 7997
  155.9357  140.3411  155.6263 H   0  0  0  0  0  0  0  0  0  0  0  0  # atno 8009 bound_to 7997
  155.7051  140.0750  157.2385 H   0  0  0  0  0  0  0  0  0  0  0  0  # atno 8010 bound_to 7997
  140.2659  143.3376  152.0581 H   0  0  0  0  0  0  0  0  0  0  0  0  # atno 10167 bound_to 10162
  156.1369  130.6437  150.9710 H   0  0  0  0  0  0  0  0  0  0  0  0  # atno 10718 bound_to 10713
  153.7869  135.6901  153.4878 H   0  0  0  0  0  0  0  0  0  0  0  0  # atno 10763 bound_to 10752
  153.1775  135.4519  154.9983 H   0  0  0  0  0  0  0  0  0  0  0  0  # atno 10764 bound_to 10752
  154.8060  135.3357  154.7368 H   0  0  0  0  0  0  0  0  0  0  0  0  # atno 10765 bound_to 10752
  140.7967  134.2905  157.4994 H   0  0  0  0  0  0  0  0  0  0  0  0  # atno 11005 bound_to 11000
  145.1342  140.9535  143.4526 LP  0  0  0  0  0  0  0  0  0  0  0  0  # atno 17320 bound_to 7965
  145.0358  139.3302  143.6001 LP  0  0  0  0  0  0  0  0  0  0  0  0  # atno 17321 bound_to 7965
  139.5003  144.6688  151.6291 LP  0  0  0  0  0  0  0  0  0  0  0  0  # atno 17342 bound_to 10162
  140.5929  143.9748  150.6336 LP  0  0  0  0  0  0  0  0  0  0  0  0  # atno 17343 bound_to 10162
  157.6540  131.0892  150.7988 LP  0  0  0  0  0  0  0  0  0  0  0  0  # atno 17370 bound_to 10713
  156.8067  130.4939  149.5362 LP  0  0  0  0  0  0  0  0  0  0  0  0  # atno 17371 bound_to 10713
  139.8725  134.9406  156.3774 LP  0  0  0  0  0  0  0  0  0  0  0  0  # atno 17394 bound_to 11000
  140.9335  133.7563  156.0055 LP  0  0  0  0  0  0  0  0  0  0  0  0  # atno 17395 bound_to 11000

$$$$
