AV-unprocessed.smi:2265|AV-procd|sdf|9145|dock2
  -GOLD-   2272012353D 1   1.00000     0.00000
 Structure written by MMmdl.
 36 37  0  0  0  0  0  0  0  0  1 V2000
  144.9392  144.0384  154.3284 C   0  0  0  0  0  0  0  0  0  0  0  0
  146.1262  143.2311  153.7921 C   0  0  0  0  0  0  0  0  0  0  0  0
  146.5120  142.0681  154.7157 C   0  0  0  0  0  0  0  0  0  0  0  0
  147.4181  141.0622  154.0286 C   0  0  2  0  0  0  0  0  0  0  0  0
  148.0724  139.9498  154.8040 C   0  0  0  0  0  0  0  0  0  0  0  0
  148.9216  141.0621  154.2225 C   0  0  2  0  0  0  0  0  0  0  0  0
  149.5124  141.9824  155.1483 N   0  0  0  0  0  0  0  0  0  0  0  0
  150.1247  141.6976  156.3114 C   0  0  0  0  0  0  0  0  0  0  0  0
  150.2007  140.5374  156.7152 O   0  0  0  0  0  0  0  0  0  0  0  0
  150.5832  142.7862  156.9683 N   0  0  0  0  0  0  0  0  0  0  0  0
  151.2331  142.8451  158.2072 C   0  0  0  0  0  0  0  0  0  0  0  0
  151.0098  143.7792  159.0892 N   0  0  0  0  0  0  0  0  0  0  0  0
  151.6763  143.8055  160.3143 C   0  0  0  0  0  0  0  0  0  0  0  0
  152.5769  142.8576  160.6304 C   0  0  0  0  0  0  0  0  0  0  0  0
  152.8673  141.8190  159.7345 N   0  0  0  0  0  0  0  0  0  0  0  0
  153.8579  140.8164  160.1272 C   0  0  0  0  0  0  0  0  0  0  0  0
  152.2511  141.7456  158.5235 C   0  0  0  0  0  0  0  0  0  0  0  0
  152.4771  140.8557  157.7009 O   0  0  0  0  0  0  0  0  0  0  0  0
  144.6862  144.8537  153.6505 H   0  0  0  0  0  0  0  0  0  0  0  0
  145.1668  144.4734  155.3020 H   0  0  0  0  0  0  0  0  0  0  0  0
  144.0543  143.4113  154.4396 H   0  0  0  0  0  0  0  0  0  0  0  0
  145.8810  142.8450  152.8021 H   0  0  0  0  0  0  0  0  0  0  0  0
  146.9817  143.8947  153.6615 H   0  0  0  0  0  0  0  0  0  0  0  0
  147.0272  142.4476  155.5987 H   0  0  0  0  0  0  0  0  0  0  0  0
  145.6097  141.5674  155.0688 H   0  0  0  0  0  0  0  0  0  0  0  0
  147.0865  140.8080  153.0234 H   0  0  0  0  0  0  0  0  0  0  0  0
  147.9250  139.9314  155.8824 H   0  0  0  0  0  0  0  0  0  0  0  0
  148.1275  138.9733  154.3275 H   0  0  0  0  0  0  0  0  0  0  0  0
  149.5236  140.7711  153.3627 H   0  0  0  0  0  0  0  0  0  0  0  0
  149.3852  142.9611  154.9349 H   0  0  0  0  0  0  0  0  0  0  0  0
  150.4213  143.6689  156.5060 H   0  0  0  0  0  0  0  0  0  0  0  0
  151.4319  144.6174  160.9833 H   0  0  0  0  0  0  0  0  0  0  0  0
  153.1182  142.8365  161.5649 H   0  0  0  0  0  0  0  0  0  0  0  0
  154.7396  140.8846  159.4888 H   0  0  0  0  0  0  0  0  0  0  0  0
  153.4475  139.8098  160.0345 H   0  0  0  0  0  0  0  0  0  0  0  0
  154.1873  140.9383  161.1596 H   0  0  0  0  0  0  0  0  0  0  0  0
  1  2  1  0  0  0  0
  1 19  1  0  0  0  0
  1 20  1  0  0  0  0
  1 21  1  0  0  0  0
  2  3  1  0  0  0  0
  2 22  1  0  0  0  0
  2 23  1  0  0  0  0
  3  4  1  0  0  0  0
  3 24  1  0  0  0  0
  3 25  1  0  0  0  0
  4  6  1  0  0  0  0
  4  5  1  0  0  0  0
  4 26  1  0  0  0  0
  5  6  1  0  0  0  0
  5 27  1  0  0  0  0
  5 28  1  0  0  0  0
  6  7  1  0  0  0  0
  6 29  1  0  0  0  0
  7  8  1  0  0  0  0
  7 30  1  0  0  0  0
  8  9  2  0  0  0  0
  8 10  1  0  0  0  0
 10 11  1  0  0  0  0
 10 31  1  0  0  0  0
 11 17  1  0  0  0  0
 11 12  2  0  0  0  0
 12 13  1  0  0  0  0
 13 14  2  0  0  0  0
 13 32  1  0  0  0  0
 14 15  1  0  0  0  0
 14 33  1  0  0  0  0
 15 16  1  0  0  0  0
 15 17  1  0  0  0  0
 16 34  1  0  0  0  0
 16 35  1  0  0  0  0
 16 36  1  0  0  0  0
 17 18  2  0  0  0  0
M  END
> <s_m_source_file>
AV-unprocessed.smi

> <i_m_source_file_index>
2265

> <i_lp_mmshare_version>
43012

> <i_f3d_flags>
0

> <s_epik_input>
W0NIM11bQ0gyXVtDSDJdW0NAQEhdMVtDSDJdW0NASF0xW05IXUMoPU8pW05IXWMybltjSF1bY0hdbihbQ0gzXSljMj1P

> <s_epik_cmdline>
J2VwaWtfcHl0aG9uJywgJy1waCcsICc3LjAnLCAnLXRuJywgJzgnLCAnLW1hJywgJzIwMCcsICctbWV0YWxfYmluZGluZycsICctaW1hZScsICc8aW5maWxlLm1hZT4nLCAnLW9tYWUnLCAnPG91dGZpbGUubWFlPic=

> <r_lp_tautomer_probability>
1

> <r_epik_Ionization_Penalty>
0.000728552

> <r_epik_Ionization_Penalty_Charging>
1.67739e-07

> <r_epik_Ionization_Penalty_Neutral>
0.000728385

> <r_epik_State_Penalty>
-0

> <r_epik_Charging_Adjusted_Penalty>
1.67739e-07

> <i_epik_Tot_Q>
0

> <i_epik_Tot_abs_Q>
0

> <r_epik_Metal_State_Penalty>
-0

> <b_epik_Metal_Only>
0

> <s_lp_Force_Field>
OPLS_2005

> <r_lp_Energy>
43.9494

> <b_lp_Chiralities_Consistent>
1

> <s_lp_Variant>
AV-unprocessed.smi:2265-3

> <Gold.Version>
5.8.1

> <Gold.Id.Protein>
6NUR|6NUR_protein|mol2

> <Gold.PLP.Fitness>
42.8461

> <Gold.PLP.PLP>
-37.8878

> <Gold.PLP.part.hbond>
-2.8489

> <Gold.PLP.part.metal>
0.0000

> <Gold.PLP.part.buried>
-4.3768

> <Gold.PLP.part.nonpolar>
-30.9938

> <Gold.PLP.part.repulsive>
0.3383

> <Gold.PLP.ligand.clash>
0.0000

> <Gold.PLP.ligand.torsion>
0.7834

> <Gold.PLP.Chemscore.Hbond>
1.9733

> <Gold.PLP.Chemscore.CHOScore>
0.0000

> <Gold.PLP.Chemscore.Metal>
0.0000

> <Gold.Chemscore.Hbonds>
donor molecule, donor type, donor heavy atom, donor atom, acceptor molecule, acceptor atom, score
      L1  H     7    30       P1  8028  0.93
      L1  H    10    31       P1  8028  0.81
      P1  H  7997  8010       L1    18  0.22

> <Gold.PLP.Chemscore.Internal.Correction>
0.6052

> <Gold.Rescore>
     Score         DG    S(hbond)    S(metal)    S(lipo)     H(rot)  DE(clash)    DE(int)     intcor
     10.24     -16.76       2.07        0.00      69.31       1.46       0.47       6.05       ----

> <Gold.Chemscore.Fitness>
10.2376

> <Gold.Chemscore.DG>
-16.7560

> <Gold.Chemscore.ZeroCoef>
-5.4800

> <Gold.Chemscore.Hbond>
2.0676

> <Gold.Chemscore.Metal>
0.0000

> <Gold.Chemscore.Lipo>
69.3084

> <Gold.Chemscore.Internal_Hbond>
0.0000

> <Gold.Chemscore.DEClash>
0.4662

> <Gold.Chemscore.DEInternal>
6.0523

> <Gold.Chemscore.Rot>
1.4604

> <Gold.Chemscore.Internal.Correction>
   9.000000E+99

> <Gold.Chemscore.Hbonds>
donor molecule, donor type, donor heavy atom, donor atom, acceptor molecule, acceptor atom, score
      L1  H     7    30       P1  8028  0.89
      L1  H    10    31       P1  8028  0.73
      P1  H  7997  8010       L1    18  0.22

> <Gold.Chemscore.Hbond.Weighted>
-6.9057

> <Gold.Chemscore.Metal.Weighted>
-0.0000

> <Gold.Chemscore.Lipo.Weighted>
-8.1091

> <Gold.Chemscore.Internal_Hbond.Weighted>
0.0000

> <Gold.Chemscore.DEClash.Weighted>
0.4662

> <Gold.Chemscore.DEInternal.Weighted>
6.0523

> <Gold.Chemscore.Rot.Weighted>
3.7387

> <Gold.Chemscore.Internal.Correction.Weighted>
   9.000000E+99

> <Gold.Protein.RotatedTorsions>
[ 6907 6896 6895 6894 ] final   72.94 input  -60.11 | X-H torsion
[ 7974 7965 7964 7962 ] final -128.43 input  175.53 | X-H torsion
[ 8008 7997 7996 7995 ] final   44.45 input   59.86 | X-H torsion
[ 10167 10162 10161 10158 ] final  121.87 input  -65.29 | X-H torsion
[ 10718 10713 10712 10709 ] final   76.12 input   66.30 | X-H torsion
[ 10763 10752 10751 10750 ] final -116.66 input  -60.55 | X-H torsion
[ 11005 11000 10999 10996 ] final   76.42 input  -57.11 | X-H torsion

> <Gold.Protein.ActiveResidues>
 VAL166  LYS551  ARG553  GLY616  TRP617  ASP618  TYR619  PRO620  LYS621  CYS622 
 ASP623  PHE694  ASN695  SER759  ASP760  ASP761  ALA762  ILE779  LEU786  VAL792 
 PHE793  MET794  SER795  GLU796  ALA797  LYS798  CYS799  TRP800  GLU811  SER814 

> <Gold.Protein.RotatedAtoms>
  152.4896  134.4497  159.9570 H   0  0  0  0  0  0  0  0  0  0  0  0  # atno 6907 bound_to 6896
  151.4487  133.3617  159.2800 H   0  0  0  0  0  0  0  0  0  0  0  0  # atno 6908 bound_to 6896
  150.9037  134.8475  159.7438 H   0  0  0  0  0  0  0  0  0  0  0  0  # atno 6909 bound_to 6896
  144.9671  140.7507  143.4693 H   0  0  0  0  0  0  0  0  0  0  0  0  # atno 7974 bound_to 7965
  155.3196  140.3396  155.4241 H   0  0  0  0  0  0  0  0  0  0  0  0  # atno 8008 bound_to 7997
  156.1916  140.1699  156.8119 H   0  0  0  0  0  0  0  0  0  0  0  0  # atno 8009 bound_to 7997
  154.5448  140.0717  156.8555 H   0  0  0  0  0  0  0  0  0  0  0  0  # atno 8010 bound_to 7997
  139.5893  144.7019  151.3330 H   0  0  0  0  0  0  0  0  0  0  0  0  # atno 10167 bound_to 10162
  157.6661  130.9759  150.1451 H   0  0  0  0  0  0  0  0  0  0  0  0  # atno 10718 bound_to 10713
  154.8527  135.4337  154.1857 H   0  0  0  0  0  0  0  0  0  0  0  0  # atno 10763 bound_to 10752
  153.2937  135.6963  153.7274 H   0  0  0  0  0  0  0  0  0  0  0  0  # atno 10764 bound_to 10752
  153.6432  135.3464  155.3052 H   0  0  0  0  0  0  0  0  0  0  0  0  # atno 10765 bound_to 10752
  139.9299  134.7599  156.1394 H   0  0  0  0  0  0  0  0  0  0  0  0  # atno 11005 bound_to 11000
  145.2613  139.1991  143.4890 LP  0  0  0  0  0  0  0  0  0  0  0  0  # atno 17320 bound_to 7965
  146.3371  140.2544  142.8599 LP  0  0  0  0  0  0  0  0  0  0  0  0  # atno 17321 bound_to 7965
  140.7159  143.7267  150.7654 LP  0  0  0  0  0  0  0  0  0  0  0  0  # atno 17342 bound_to 10162
  140.0819  143.4960  152.2525 LP  0  0  0  0  0  0  0  0  0  0  0  0  # atno 17343 bound_to 10162
  156.2264  130.3678  149.8495 LP  0  0  0  0  0  0  0  0  0  0  0  0  # atno 17370 bound_to 10713
  156.6334  130.8675  151.3500 LP  0  0  0  0  0  0  0  0  0  0  0  0  # atno 17371 bound_to 10713
  141.0881  133.6726  156.2480 LP  0  0  0  0  0  0  0  0  0  0  0  0  # atno 17394 bound_to 11000
  140.6231  134.5341  157.5550 LP  0  0  0  0  0  0  0  0  0  0  0  0  # atno 17395 bound_to 11000

$$$$
