AV-unprocessed.smi:2534|AV-procd|sdf|9975|dock10
  -GOLD-   2272014 23D 1   1.00000     0.00000
 Structure written by MMmdl.
 40 42  0  0  0  0  0  0  0  0  1 V2000
  148.6631  141.1401  154.1398 C   0  0  0  0  0  0  0  0  0  0  0  0
  149.1564  140.3258  155.3441 C   0  0  2  0  0  0  0  0  0  0  0  0
  149.1777  141.1758  156.6297 C   0  0  0  0  0  0  0  0  0  0  0  0
  149.6866  140.3636  157.8331 C   0  0  0  0  0  0  0  0  0  0  0  0
  151.0892  139.7611  157.5798 C   0  0  2  0  0  0  0  0  0  0  0  0
  151.3502  138.8711  158.6483 O   0  0  0  0  0  0  0  0  0  0  0  0
  152.2376  140.8095  157.5379 C   0  0  0  0  0  0  0  0  0  0  0  0
  151.8920  142.1125  158.0943 N   0  0  0  0  0  0  0  0  0  0  0  0
  151.2394  143.0224  157.3245 N   0  0  0  0  0  0  0  0  0  0  0  0
  151.0724  144.0969  158.0918 C   0  0  0  0  0  0  0  0  0  0  0  0
  151.6312  143.9176  159.3865 C   0  0  0  0  0  0  0  0  0  0  0  0
  151.7409  144.7396  160.5866 C   0  0  0  0  0  0  0  0  0  0  0  0
  152.3470  144.2408  161.6178 N   0  0  0  0  0  0  0  0  0  0  0  0
  152.8879  142.9506  161.5940 N   0  0  0  0  0  0  0  0  0  0  0  0
  153.5416  142.5693  162.8453 C   0  0  0  0  0  0  0  0  0  0  0  0
  152.8358  142.1004  160.5222 C   0  0  0  0  0  0  0  0  0  0  0  0
  153.3168  140.9676  160.5108 O   0  0  0  0  0  0  0  0  0  0  0  0
  152.1393  142.6615  159.3384 C   0  0  0  0  0  0  0  0  0  0  0  0
  151.0561  138.9119  156.2893 C   0  0  0  0  0  0  0  0  0  0  0  0
  150.5414  139.7060  155.0747 C   0  0  0  0  0  0  0  0  0  0  0  0
  149.3263  141.9800  153.9303 H   0  0  0  0  0  0  0  0  0  0  0  0
  147.6649  141.5406  154.3183 H   0  0  0  0  0  0  0  0  0  0  0  0
  148.6141  140.5230  153.2422 H   0  0  0  0  0  0  0  0  0  0  0  0
  148.4506  139.5079  155.4975 H   0  0  0  0  0  0  0  0  0  0  0  0
  149.8028  142.0576  156.4862 H   0  0  0  0  0  0  0  0  0  0  0  0
  148.1750  141.5473  156.8433 H   0  0  0  0  0  0  0  0  0  0  0  0
  149.6763  140.9776  158.7332 H   0  0  0  0  0  0  0  0  0  0  0  0
  148.9766  139.5571  158.0242 H   0  0  0  0  0  0  0  0  0  0  0  0
  152.1925  138.4680  158.5035 H   0  0  0  0  0  0  0  0  0  0  0  0
  153.1118  140.4306  158.0666 H   0  0  0  0  0  0  0  0  0  0  0  0
  152.5741  140.9664  156.5131 H   0  0  0  0  0  0  0  0  0  0  0  0
  150.5633  144.9592  157.6866 H   0  0  0  0  0  0  0  0  0  0  0  0
  151.3226  145.7456  160.6092 H   0  0  0  0  0  0  0  0  0  0  0  0
  153.9661  141.5646  162.8342 H   0  0  0  0  0  0  0  0  0  0  0  0
  152.8274  142.6121  163.6684 H   0  0  0  0  0  0  0  0  0  0  0  0
  154.3529  143.2632  163.0688 H   0  0  0  0  0  0  0  0  0  0  0  0
  152.0460  138.5069  156.0751 H   0  0  0  0  0  0  0  0  0  0  0  0
  150.4046  138.0490  156.4365 H   0  0  0  0  0  0  0  0  0  0  0  0
  150.4872  139.0447  154.2093 H   0  0  0  0  0  0  0  0  0  0  0  0
  151.2544  140.4877  154.8115 H   0  0  0  0  0  0  0  0  0  0  0  0
  1  2  1  0  0  0  0
  1 21  1  0  0  0  0
  1 22  1  0  0  0  0
  1 23  1  0  0  0  0
  2 20  1  0  0  0  0
  2  3  1  0  0  0  0
  2 24  1  0  0  0  0
  3  4  1  0  0  0  0
  3 25  1  0  0  0  0
  3 26  1  0  0  0  0
  4  5  1  0  0  0  0
  4 27  1  0  0  0  0
  4 28  1  0  0  0  0
  5  6  1  0  0  0  0
  5  7  1  0  0  0  0
  5 19  1  0  0  0  0
  6 29  1  0  0  0  0
  7  8  1  0  0  0  0
  7 30  1  0  0  0  0
  7 31  1  0  0  0  0
  8 18  1  0  0  0  0
  8  9  1  0  0  0  0
  9 10  2  0  0  0  0
 10 11  1  0  0  0  0
 10 32  1  0  0  0  0
 11 18  2  0  0  0  0
 11 12  1  0  0  0  0
 12 13  2  0  0  0  0
 12 33  1  0  0  0  0
 13 14  1  0  0  0  0
 14 15  1  0  0  0  0
 14 16  1  0  0  0  0
 15 34  1  0  0  0  0
 15 35  1  0  0  0  0
 15 36  1  0  0  0  0
 16 17  2  0  0  0  0
 16 18  1  0  0  0  0
 19 20  1  0  0  0  0
 19 37  1  0  0  0  0
 19 38  1  0  0  0  0
 20 39  1  0  0  0  0
 20 40  1  0  0  0  0
M  END
> <s_m_source_file>
AV-unprocessed.smi

> <i_m_source_file_index>
2534

> <i_lp_mmshare_version>
43012

> <i_f3d_flags>
0

> <s_epik_input>
W0NIMl0xW0NIMl1bQ0BIXShbQ0gzXSlbQ0gyXVtDSDJdW0NAQF0xKFtPSF0pW0NIMl1uKG5bY0hdMiljKGMyMyljKD1PKW4oW0NIM10pbltjSF0z

> <s_epik_cmdline>
J2VwaWtfcHl0aG9uJywgJy1waCcsICc3LjAnLCAnLXRuJywgJzgnLCAnLW1hJywgJzIwMCcsICctbWV0YWxfYmluZGluZycsICctaW1hZScsICc8aW5maWxlLm1hZT4nLCAnLW9tYWUnLCAnPG91dGZpbGUubWFlPic=

> <r_lp_tautomer_probability>
1

> <r_epik_Ionization_Penalty>
4.4666e-07

> <r_epik_Ionization_Penalty_Charging>
3.10141e-10

> <r_epik_Ionization_Penalty_Neutral>
4.46349e-07

> <r_epik_State_Penalty>
-0

> <r_epik_Charging_Adjusted_Penalty>
3.10141e-10

> <i_epik_Tot_Q>
0

> <i_epik_Tot_abs_Q>
0

> <r_epik_Metal_State_Penalty>
-0

> <b_epik_Metal_Only>
0

> <s_lp_Force_Field>
OPLS_2005

> <r_lp_Energy>
31.0433

> <b_lp_Chiralities_Consistent>
1

> <s_lp_Variant>
AV-unprocessed.smi:2534-2

> <Gold.Version>
5.8.1

> <Gold.Id.Protein>
6NUR|6NUR_protein|mol2

> <Gold.PLP.Fitness>
40.2531

> <Gold.PLP.PLP>
-40.2503

> <Gold.PLP.part.hbond>
0.0000

> <Gold.PLP.part.metal>
0.0000

> <Gold.PLP.part.buried>
-6.1084

> <Gold.PLP.part.nonpolar>
-35.0255

> <Gold.PLP.part.repulsive>
0.3022

> <Gold.PLP.ligand.clash>
0.0000

> <Gold.PLP.ligand.torsion>
1.2112

> <Gold.PLP.Chemscore.Hbond>
0.0000

> <Gold.PLP.Chemscore.CHOScore>
0.8061

> <Gold.PLP.Chemscore.Metal>
0.0000

> <Gold.Chemscore.Hbonds>
donor molecule, donor type, donor heavy atom, donor atom, acceptor molecule, acceptor atom, score
      L1  C    10    32       P1  8028  0.61
      L1  C    10    32       P1  8029  0.06

> <Gold.PLP.Chemscore.Internal.Correction>
0.0069

> <Gold.Rescore>
     Score         DG    S(hbond)    S(metal)    S(lipo)     H(rot)  DE(clash)    DE(int)     intcor
     10.59     -12.87       0.00        0.00      99.84       1.68       0.02       2.26       ----

> <Gold.Chemscore.Fitness>
10.5918

> <Gold.Chemscore.DG>
-12.8712

> <Gold.Chemscore.ZeroCoef>
-5.4800

> <Gold.Chemscore.Hbond>
0.0000

> <Gold.Chemscore.Metal>
0.0000

> <Gold.Chemscore.Lipo>
99.8386

> <Gold.Chemscore.Internal_Hbond>
0.0000

> <Gold.Chemscore.DEClash>
0.0201

> <Gold.Chemscore.DEInternal>
2.2592

> <Gold.Chemscore.Rot>
1.6758

> <Gold.Chemscore.Internal.Correction>
   9.000000E+99

> <Gold.Chemscore.Hbond.Weighted>
-0.0000

> <Gold.Chemscore.Metal.Weighted>
-0.0000

> <Gold.Chemscore.Lipo.Weighted>
-11.6811

> <Gold.Chemscore.Internal_Hbond.Weighted>
0.0000

> <Gold.Chemscore.DEClash.Weighted>
0.0201

> <Gold.Chemscore.DEInternal.Weighted>
2.2592

> <Gold.Chemscore.Rot.Weighted>
4.2899

> <Gold.Chemscore.Internal.Correction.Weighted>
   9.000000E+99

> <Gold.Protein.RotatedTorsions>
[ 6907 6896 6895 6894 ] final  101.93 input  -60.11 | X-H torsion
[ 7974 7965 7964 7962 ] final -149.81 input  175.53 | X-H torsion
[ 8008 7997 7996 7995 ] final  -86.50 input   59.86 | X-H torsion
[ 10167 10162 10161 10158 ] final  -20.37 input  -65.29 | X-H torsion
[ 10718 10713 10712 10709 ] final  107.16 input   66.30 | X-H torsion
[ 10763 10752 10751 10750 ] final   99.88 input  -60.55 | X-H torsion
[ 11005 11000 10999 10996 ] final  -74.00 input  -57.11 | X-H torsion

> <Gold.Protein.ActiveResidues>
 VAL166  LYS551  ARG553  GLY616  TRP617  ASP618  TYR619  PRO620  LYS621  CYS622 
 ASP623  PHE694  ASN695  SER759  ASP760  ASP761  ALA762  ILE779  LEU786  VAL792 
 PHE793  MET794  SER795  GLU796  ALA797  LYS798  CYS799  TRP800  GLU811  SER814 

> <Gold.Protein.RotatedAtoms>
  152.5337  134.0052  159.7912 H   0  0  0  0  0  0  0  0  0  0  0  0  # atno 6907 bound_to 6896
  151.0263  133.5822  159.2672 H   0  0  0  0  0  0  0  0  0  0  0  0  # atno 6908 bound_to 6896
  151.2843  135.0730  159.9234 H   0  0  0  0  0  0  0  0  0  0  0  0  # atno 6909 bound_to 6896
  144.7945  140.5015  143.5750 H   0  0  0  0  0  0  0  0  0  0  0  0  # atno 7974 bound_to 7965
  154.6526  140.0577  156.9972 H   0  0  0  0  0  0  0  0  0  0  0  0  # atno 8008 bound_to 7997
  155.1349  140.3260  155.4447 H   0  0  0  0  0  0  0  0  0  0  0  0  # atno 8009 bound_to 7997
  156.2583  140.1974  156.6466 H   0  0  0  0  0  0  0  0  0  0  0  0  # atno 8010 bound_to 7997
  140.7275  143.4729  151.0222 H   0  0  0  0  0  0  0  0  0  0  0  0  # atno 10167 bound_to 10162
  157.6640  131.0866  150.6114 H   0  0  0  0  0  0  0  0  0  0  0  0  # atno 10718 bound_to 10713
  153.3070  135.4098  155.1302 H   0  0  0  0  0  0  0  0  0  0  0  0  # atno 10763 bound_to 10752
  154.8565  135.3555  154.5775 H   0  0  0  0  0  0  0  0  0  0  0  0  # atno 10764 bound_to 10752
  153.6202  135.7064  153.5372 H   0  0  0  0  0  0  0  0  0  0  0  0  # atno 10765 bound_to 10752
  141.1630  133.6897  156.7298 H   0  0  0  0  0  0  0  0  0  0  0  0  # atno 11005 bound_to 11000
  145.5709  139.1483  143.3289 LP  0  0  0  0  0  0  0  0  0  0  0  0  # atno 17320 bound_to 7965
  146.2208  140.5842  142.9018 LP  0  0  0  0  0  0  0  0  0  0  0  0  # atno 17321 bound_to 7965
  139.8422  143.7548  152.3180 LP  0  0  0  0  0  0  0  0  0  0  0  0  # atno 17342 bound_to 10162
  139.7701  144.7479  151.0237 LP  0  0  0  0  0  0  0  0  0  0  0  0  # atno 17343 bound_to 10162
  156.6416  130.4460  149.5750 LP  0  0  0  0  0  0  0  0  0  0  0  0  # atno 17370 bound_to 10713
  156.2205  130.6734  151.1363 LP  0  0  0  0  0  0  0  0  0  0  0  0  # atno 17371 bound_to 10713
  140.2753  134.8359  157.3885 LP  0  0  0  0  0  0  0  0  0  0  0  0  # atno 17394 bound_to 11000
  140.1483  134.4883  155.7980 LP  0  0  0  0  0  0  0  0  0  0  0  0  # atno 17395 bound_to 11000

$$$$
