AV-unprocessed.smi:3056|AV-procd|sdf|11656|dock3
  -GOLD-   2272017 53D 1   1.00000     0.00000
 Structure written by MMmdl.
 47 48  0  0  0  0  0  0  0  0  1 V2000
  149.6403  134.3130  154.7191 C   0  0  0  0  0  0  0  0  0  0  0  0
  150.3465  135.4851  155.3373 C   0  0  0  0  0  0  0  0  0  0  0  0
  150.7910  135.6307  156.6815 C   0  0  0  0  0  0  0  0  0  0  0  0
  151.3717  136.7975  156.9074 N   0  0  0  0  0  0  0  0  0  0  0  0
  151.3379  137.4338  155.7164 N   0  0  0  0  0  0  0  0  0  0  0  0
  151.8674  138.7908  155.6112 C   0  0  1  0  0  0  0  0  0  0  0  0
  153.1074  138.8402  154.6935 C   0  0  0  0  0  0  0  0  0  0  0  0
  150.7560  139.8079  155.2349 C   0  0  1  0  0  0  0  0  0  0  0  0
  149.3989  139.4594  155.8788 C   0  0  0  0  0  0  0  0  0  0  0  0
  151.1960  141.1534  155.5960 N   0  0  0  0  0  0  0  0  0  0  0  0
  150.7832  141.5875  156.9365 C   0  0  0  0  0  0  0  0  0  0  0  0
  151.8243  141.1861  157.9883 C   0  0  0  0  0  0  0  0  0  0  0  0
  151.9764  139.9858  158.2152 O   0  0  0  0  0  0  0  0  0  0  0  0
  152.5272  142.1437  158.6422 N   0  0  0  0  0  0  0  0  0  0  0  0
  153.4276  141.8521  159.7595 C   0  0  0  0  0  0  0  0  0  0  0  0
  152.7946  142.4305  161.0391 C   0  0  0  0  0  0  0  0  0  0  0  0
  152.5622  143.8299  160.8779 O   0  0  0  0  0  0  0  0  0  0  0  0
  151.7251  144.1445  159.7648 C   0  0  1  0  0  0  0  0  0  0  0  0
  151.5335  145.6635  159.7115 C   0  0  0  0  0  0  0  0  0  0  0  0
  152.3783  143.5928  158.4818 C   0  0  0  0  0  0  0  0  0  0  0  0
  150.7105  136.6652  154.7545 C   0  0  0  0  0  0  0  0  0  0  0  0
  149.1609  133.6864  155.4713 H   0  0  0  0  0  0  0  0  0  0  0  0
  150.3289  133.6774  154.1623 H   0  0  0  0  0  0  0  0  0  0  0  0
  148.8626  134.6314  154.0247 H   0  0  0  0  0  0  0  0  0  0  0  0
  150.7023  134.9286  157.4975 H   0  0  0  0  0  0  0  0  0  0  0  0
  152.2210  139.0600  156.6083 H   0  0  0  0  0  0  0  0  0  0  0  0
  153.6032  139.8093  154.7448 H   0  0  0  0  0  0  0  0  0  0  0  0
  152.8518  138.6570  153.6496 H   0  0  0  0  0  0  0  0  0  0  0  0
  153.8412  138.0905  154.9904 H   0  0  0  0  0  0  0  0  0  0  0  0
  150.6348  139.7723  154.1510 H   0  0  0  0  0  0  0  0  0  0  0  0
  149.1551  138.4077  155.7261 H   0  0  0  0  0  0  0  0  0  0  0  0
  148.5836  140.0360  155.4426 H   0  0  0  0  0  0  0  0  0  0  0  0
  149.4004  139.6474  156.9529 H   0  0  0  0  0  0  0  0  0  0  0  0
  150.8431  141.7903  154.8956 H   0  0  0  0  0  0  0  0  0  0  0  0
  150.6681  142.6726  156.9461 H   0  0  0  0  0  0  0  0  0  0  0  0
  149.8166  141.1655  157.2096 H   0  0  0  0  0  0  0  0  0  0  0  0
  153.6158  140.7855  159.8877 H   0  0  0  0  0  0  0  0  0  0  0  0
  154.4000  142.3117  159.5771 H   0  0  0  0  0  0  0  0  0  0  0  0
  151.8559  141.9239  161.2691 H   0  0  0  0  0  0  0  0  0  0  0  0
  153.4573  142.2777  161.8910 H   0  0  0  0  0  0  0  0  0  0  0  0
  150.7495  143.6780  159.9131 H   0  0  0  0  0  0  0  0  0  0  0  0
  150.8839  145.9462  158.8826 H   0  0  0  0  0  0  0  0  0  0  0  0
  152.4863  146.1777  159.5824 H   0  0  0  0  0  0  0  0  0  0  0  0
  151.0774  146.0311  160.6309 H   0  0  0  0  0  0  0  0  0  0  0  0
  153.3616  144.0427  158.3362 H   0  0  0  0  0  0  0  0  0  0  0  0
  151.7962  143.8785  157.6075 H   0  0  0  0  0  0  0  0  0  0  0  0
  150.5695  137.0180  153.7434 H   0  0  0  0  0  0  0  0  0  0  0  0
  1  2  1  0  0  0  0
  1 22  1  0  0  0  0
  1 23  1  0  0  0  0
  1 24  1  0  0  0  0
  2 21  2  0  0  0  0
  2  3  1  0  0  0  0
  3  4  2  0  0  0  0
  3 25  1  0  0  0  0
  4  5  1  0  0  0  0
  5  6  1  0  0  0  0
  5 21  1  0  0  0  0
  6  7  1  0  0  0  0
  6  8  1  0  0  0  0
  6 26  1  0  0  0  0
  7 27  1  0  0  0  0
  7 28  1  0  0  0  0
  7 29  1  0  0  0  0
  8  9  1  0  0  0  0
  8 10  1  0  0  0  0
  8 30  1  0  0  0  0
  9 31  1  0  0  0  0
  9 32  1  0  0  0  0
  9 33  1  0  0  0  0
 10 11  1  0  0  0  0
 10 34  1  0  0  0  0
 11 12  1  0  0  0  0
 11 35  1  0  0  0  0
 11 36  1  0  0  0  0
 12 13  2  0  0  0  0
 12 14  1  0  0  0  0
 14 20  1  0  0  0  0
 14 15  1  0  0  0  0
 15 16  1  0  0  0  0
 15 37  1  0  0  0  0
 15 38  1  0  0  0  0
 16 17  1  0  0  0  0
 16 39  1  0  0  0  0
 16 40  1  0  0  0  0
 17 18  1  0  0  0  0
 18 19  1  0  0  0  0
 18 20  1  0  0  0  0
 18 41  1  0  0  0  0
 19 42  1  0  0  0  0
 19 43  1  0  0  0  0
 19 44  1  0  0  0  0
 20 45  1  0  0  0  0
 20 46  1  0  0  0  0
 21 47  1  0  0  0  0
M  END
> <s_m_source_file>
AV-unprocessed.smi

> <i_m_source_file_index>
3056

> <i_lp_mmshare_version>
43012

> <i_f3d_flags>
0

> <s_epik_input>
W0NIM11jMVtjSF1ubihbY0hdMSlbQ0BIXShbQ0gzXSlbQ0BIXShbQ0gzXSlbTkhdW0NIMl1DKD1PKU4yW0NIMl1bQ0gyXU9bQ0BASF0oW0NIM10pW0NIMl0y

> <s_epik_cmdline>
J2VwaWtfcHl0aG9uJywgJy1waCcsICc3LjAnLCAnLXRuJywgJzgnLCAnLW1hJywgJzIwMCcsICctbWV0YWxfYmluZGluZycsICctaW1hZScsICc8aW5maWxlLm1hZT4nLCAnLW9tYWUnLCAnPG91dGZpbGUubWFlPic=

> <r_lp_tautomer_probability>
1

> <r_epik_Ionization_Penalty>
0.667689

> <r_epik_Ionization_Penalty_Charging>
0

> <r_epik_Ionization_Penalty_Neutral>
0.667689

> <r_epik_State_Penalty>
0.684601

> <r_epik_Charging_Adjusted_Penalty>
0.684601

> <i_epik_Tot_Q>
0

> <i_epik_Tot_abs_Q>
0

> <r_epik_Metal_State_Penalty>
0.681448

> <b_epik_Metal_Only>
0

> <s_lp_Force_Field>
OPLS_2005

> <r_lp_Energy>
30.7947

> <b_lp_Chiralities_Consistent>
1

> <s_lp_Variant>
AV-unprocessed.smi:3056-12

> <Gold.Version>
5.8.1

> <Gold.Id.Protein>
6NUR|6NUR_protein|mol2

> <Gold.PLP.Fitness>
46.1087

> <Gold.PLP.PLP>
-44.4184

> <Gold.PLP.part.hbond>
-1.0000

> <Gold.PLP.part.metal>
0.0000

> <Gold.PLP.part.buried>
-3.3247

> <Gold.PLP.part.nonpolar>
-39.7990

> <Gold.PLP.part.repulsive>
0.0871

> <Gold.PLP.ligand.clash>
0.0000

> <Gold.PLP.ligand.torsion>
0.9986

> <Gold.PLP.Chemscore.Hbond>
0.0000

> <Gold.PLP.Chemscore.CHOScore>
1.1609

> <Gold.PLP.Chemscore.Metal>
0.0000

> <Gold.Chemscore.Hbonds>
donor molecule, donor type, donor heavy atom, donor atom, acceptor molecule, acceptor atom, score
      L1  C    21    47       P1  7948  0.56
      L1  C    21    47       P1  7949  0.57

> <Gold.PLP.Chemscore.Internal.Correction>
0.2047

> <Gold.Rescore>
     Score         DG    S(hbond)    S(metal)    S(lipo)     H(rot)  DE(clash)    DE(int)     intcor
     13.12     -14.21       0.00        0.00     111.39       1.68       0.07       1.03       ----

> <Gold.Chemscore.Fitness>
13.1177

> <Gold.Chemscore.DG>
-14.2140

> <Gold.Chemscore.ZeroCoef>
-5.4800

> <Gold.Chemscore.Hbond>
0.0000

> <Gold.Chemscore.Metal>
0.0000

> <Gold.Chemscore.Lipo>
111.3938

> <Gold.Chemscore.Internal_Hbond>
0.0000

> <Gold.Chemscore.DEClash>
0.0665

> <Gold.Chemscore.DEInternal>
1.0298

> <Gold.Chemscore.Rot>
1.6793

> <Gold.Chemscore.Internal.Correction>
   9.000000E+99

> <Gold.Chemscore.Hbond.Weighted>
-0.0000

> <Gold.Chemscore.Metal.Weighted>
-0.0000

> <Gold.Chemscore.Lipo.Weighted>
-13.0331

> <Gold.Chemscore.Internal_Hbond.Weighted>
0.0000

> <Gold.Chemscore.DEClash.Weighted>
0.0665

> <Gold.Chemscore.DEInternal.Weighted>
1.0298

> <Gold.Chemscore.Rot.Weighted>
4.2990

> <Gold.Chemscore.Internal.Correction.Weighted>
   9.000000E+99

> <Gold.Protein.RotatedTorsions>
[ 6907 6896 6895 6894 ] final   -0.61 input  -60.11 | X-H torsion
[ 7974 7965 7964 7962 ] final -138.58 input  175.53 | X-H torsion
[ 8008 7997 7996 7995 ] final   20.34 input   59.86 | X-H torsion
[ 10167 10162 10161 10158 ] final   83.73 input  -65.29 | X-H torsion
[ 10718 10713 10712 10709 ] final -158.62 input   66.30 | X-H torsion
[ 10763 10752 10751 10750 ] final   60.89 input  -60.55 | X-H torsion
[ 11005 11000 10999 10996 ] final -173.43 input  -57.11 | X-H torsion

> <Gold.Protein.ActiveResidues>
 VAL166  LYS551  ARG553  GLY616  TRP617  ASP618  TYR619  PRO620  LYS621  CYS622 
 ASP623  PHE694  ASN695  SER759  ASP760  ASP761  ALA762  ILE779  LEU786  VAL792 
 PHE793  MET794  SER795  GLU796  ALA797  LYS798  CYS799  TRP800  GLU811  SER814 

> <Gold.Protein.RotatedAtoms>
  151.5594  135.1066  159.9968 H   0  0  0  0  0  0  0  0  0  0  0  0  # atno 6907 bound_to 6896
  152.4454  133.7521  159.6710 H   0  0  0  0  0  0  0  0  0  0  0  0  # atno 6908 bound_to 6896
  150.8368  133.7933  159.3100 H   0  0  0  0  0  0  0  0  0  0  0  0  # atno 6909 bound_to 6896
  144.8746  140.6418  143.5245 H   0  0  0  0  0  0  0  0  0  0  0  0  # atno 7974 bound_to 7965
  154.9342  140.3044  155.5152 H   0  0  0  0  0  0  0  0  0  0  0  0  # atno 8008 bound_to 7997
  156.3001  140.2348  156.4342 H   0  0  0  0  0  0  0  0  0  0  0  0  # atno 8009 bound_to 7997
  154.8208  140.0423  157.1398 H   0  0  0  0  0  0  0  0  0  0  0  0  # atno 8010 bound_to 7997
  139.9154  144.6246  150.8495 H   0  0  0  0  0  0  0  0  0  0  0  0  # atno 10167 bound_to 10162
  156.5566  130.8629  151.2796 H   0  0  0  0  0  0  0  0  0  0  0  0  # atno 10718 bound_to 10713
  152.9934  135.5520  154.5945 H   0  0  0  0  0  0  0  0  0  0  0  0  # atno 10763 bound_to 10752
  154.5300  135.2813  155.1190 H   0  0  0  0  0  0  0  0  0  0  0  0  # atno 10764 bound_to 10752
  154.2510  135.6399  153.5293 H   0  0  0  0  0  0  0  0  0  0  0  0  # atno 10765 bound_to 10752
  140.4858  134.6032  157.4936 H   0  0  0  0  0  0  0  0  0  0  0  0  # atno 11005 bound_to 11000
  145.4066  139.1588  143.4148 LP  0  0  0  0  0  0  0  0  0  0  0  0  # atno 17320 bound_to 7965
  146.2954  140.4167  142.8724 LP  0  0  0  0  0  0  0  0  0  0  0  0  # atno 17321 bound_to 7965
  140.7675  143.3335  151.2358 LP  0  0  0  0  0  0  0  0  0  0  0  0  # atno 17342 bound_to 10162
  139.6907  143.9697  152.2857 LP  0  0  0  0  0  0  0  0  0  0  0  0  # atno 17343 bound_to 10162
  157.7377  130.9800  150.2208 LP  0  0  0  0  0  0  0  0  0  0  0  0  # atno 17370 bound_to 10713
  156.2836  130.3736  149.7910 LP  0  0  0  0  0  0  0  0  0  0  0  0  # atno 17371 bound_to 10713
  139.9799  134.7154  155.9879 LP  0  0  0  0  0  0  0  0  0  0  0  0  # atno 17394 bound_to 11000
  141.1509  133.6549  156.4010 LP  0  0  0  0  0  0  0  0  0  0  0  0  # atno 17395 bound_to 11000

$$$$
