AV-unprocessed.smi:2417|AV-procd|sdf|9548|dock8
  -GOLD-   2272013183D 1   1.00000     0.00000
 Structure written by MMmdl.
 38 39  0  0  0  0  0  0  0  0  1 V2000
  145.9126  138.7221  154.5786 C   0  0  0  0  0  0  0  0  0  0  0  0
  147.4235  138.8727  154.5992 C   0  0  0  0  0  0  0  0  0  0  0  0
  148.1413  137.7149  154.9134 N   0  0  0  0  0  0  0  0  0  0  0  0
  149.4331  137.7486  154.9560 C   0  0  0  0  0  0  0  0  0  0  0  0
  150.1493  138.9279  154.6938 N   0  0  0  0  0  0  0  0  0  0  0  0
  151.6162  138.8314  154.7746 C   0  0  0  0  0  0  0  0  0  0  0  0
  152.1482  139.1682  156.1859 C   0  0  2  0  0  0  0  0  0  0  0  0
  151.9403  138.0816  157.0660 O   0  0  0  0  0  0  0  0  0  0  0  0
  151.4769  140.4075  156.8019 C   0  0  0  0  0  0  0  0  0  0  0  0
  152.0558  140.6954  158.0692 O   0  0  0  0  0  0  0  0  0  0  0  0
  152.0120  141.9939  158.5286 C   0  0  0  0  0  0  0  0  0  0  0  0
  152.5335  142.2333  159.8170 C   0  0  0  0  0  0  0  0  0  0  0  0
  152.5296  143.5295  160.3672 C   0  0  0  0  0  0  0  0  0  0  0  0
  152.0006  144.6046  159.6297 C   0  0  0  0  0  0  0  0  0  0  0  0
  151.9959  145.8518  160.1568 F   0  0  0  0  0  0  0  0  0  0  0  0
  151.4769  144.3806  158.3429 C   0  0  0  0  0  0  0  0  0  0  0  0
  151.4811  143.0838  157.7926 C   0  0  0  0  0  0  0  0  0  0  0  0
  149.5282  140.0994  154.3721 C   0  0  0  0  0  0  0  0  0  0  0  0
  150.1676  141.1250  154.1306 O   0  0  0  0  0  0  0  0  0  0  0  0
  148.0577  140.0467  154.3308 C   0  0  0  0  0  0  0  0  0  0  0  0
  147.3291  141.3383  153.9812 C   0  0  0  0  0  0  0  0  0  0  0  0
  145.4516  139.3868  155.3096 H   0  0  0  0  0  0  0  0  0  0  0  0
  145.6117  137.7017  154.8190 H   0  0  0  0  0  0  0  0  0  0  0  0
  145.5185  138.9612  153.5905 H   0  0  0  0  0  0  0  0  0  0  0  0
  150.0395  136.8723  155.1915 H   0  0  0  0  0  0  0  0  0  0  0  0
  151.9074  137.8119  154.5146 H   0  0  0  0  0  0  0  0  0  0  0  0
  152.1111  139.4504  154.0231 H   0  0  0  0  0  0  0  0  0  0  0  0
  153.2219  139.3566  156.1523 H   0  0  0  0  0  0  0  0  0  0  0  0
  152.6206  138.0905  157.7220 H   0  0  0  0  0  0  0  0  0  0  0  0
  151.5600  141.2613  156.1269 H   0  0  0  0  0  0  0  0  0  0  0  0
  150.4151  140.1953  156.9381 H   0  0  0  0  0  0  0  0  0  0  0  0
  152.9413  141.4133  160.3899 H   0  0  0  0  0  0  0  0  0  0  0  0
  152.9323  143.6982  161.3551 H   0  0  0  0  0  0  0  0  0  0  0  0
  151.0710  145.2051  157.7756 H   0  0  0  0  0  0  0  0  0  0  0  0
  151.0710  142.9522  156.8030 H   0  0  0  0  0  0  0  0  0  0  0  0
  147.6366  141.6882  152.9953 H   0  0  0  0  0  0  0  0  0  0  0  0
  147.5712  142.1151  154.7073 H   0  0  0  0  0  0  0  0  0  0  0  0
  146.2459  141.2303  153.9669 H   0  0  0  0  0  0  0  0  0  0  0  0
  1  2  1  0  0  0  0
  1 22  1  0  0  0  0
  1 23  1  0  0  0  0
  1 24  1  0  0  0  0
  2 20  2  0  0  0  0
  2  3  1  0  0  0  0
  3  4  2  0  0  0  0
  4  5  1  0  0  0  0
  4 25  1  0  0  0  0
  5  6  1  0  0  0  0
  5 18  1  0  0  0  0
  6  7  1  0  0  0  0
  6 26  1  0  0  0  0
  6 27  1  0  0  0  0
  7  8  1  0  0  0  0
  7  9  1  0  0  0  0
  7 28  1  0  0  0  0
  8 29  1  0  0  0  0
  9 10  1  0  0  0  0
  9 30  1  0  0  0  0
  9 31  1  0  0  0  0
 10 11  1  0  0  0  0
 11 17  1  0  0  0  0
 11 12  2  0  0  0  0
 12 13  1  0  0  0  0
 12 32  1  0  0  0  0
 13 14  2  0  0  0  0
 13 33  1  0  0  0  0
 14 15  1  0  0  0  0
 14 16  1  0  0  0  0
 16 17  2  0  0  0  0
 16 34  1  0  0  0  0
 17 35  1  0  0  0  0
 18 19  2  0  0  0  0
 18 20  1  0  0  0  0
 20 21  1  0  0  0  0
 21 36  1  0  0  0  0
 21 37  1  0  0  0  0
 21 38  1  0  0  0  0
M  END
> <s_m_source_file>
AV-unprocessed.smi

> <i_m_source_file_index>
2417

> <i_lp_mmshare_version>
43012

> <i_f3d_flags>
0

> <s_epik_input>
W0NIM11jMW5bY0hdbihjKD1PKWMxW0NIM10pW0NIMl1bQ0BIXShbT0hdKVtDSDJdT2MyW2NIXVtjSF1jKEYpW2NIXVtjSF0y

> <s_epik_cmdline>
J2VwaWtfcHl0aG9uJywgJy1waCcsICc3LjAnLCAnLXRuJywgJzgnLCAnLW1hJywgJzIwMCcsICctbWV0YWxfYmluZGluZycsICctaW1hZScsICc8aW5maWxlLm1hZT4nLCAnLW9tYWUnLCAnPG91dGZpbGUubWFlPic=

> <r_lp_tautomer_probability>
1

> <r_epik_Ionization_Penalty>
3.65384e-05

> <r_epik_Ionization_Penalty_Charging>
8.23007e-08

> <r_epik_Ionization_Penalty_Neutral>
3.64561e-05

> <r_epik_State_Penalty>
-0

> <r_epik_Charging_Adjusted_Penalty>
8.23007e-08

> <i_epik_Tot_Q>
0

> <i_epik_Tot_abs_Q>
0

> <r_epik_Metal_State_Penalty>
-0

> <b_epik_Metal_Only>
0

> <s_lp_Force_Field>
OPLS_2005

> <r_lp_Energy>
23.7128

> <b_lp_Chiralities_Consistent>
1

> <s_lp_Variant>
AV-unprocessed.smi:2417-1

> <Gold.Version>
5.8.1

> <Gold.Id.Protein>
6NUR|6NUR_protein|mol2

> <Gold.PLP.Fitness>
44.0040

> <Gold.PLP.PLP>
-42.7661

> <Gold.PLP.part.hbond>
-1.3530

> <Gold.PLP.part.metal>
0.0000

> <Gold.PLP.part.buried>
-2.2615

> <Gold.PLP.part.nonpolar>
-39.2305

> <Gold.PLP.part.repulsive>
0.2945

> <Gold.PLP.ligand.clash>
0.0000

> <Gold.PLP.ligand.torsion>
0.6661

> <Gold.PLP.Chemscore.Hbond>
0.8388

> <Gold.PLP.Chemscore.CHOScore>
0.0000

> <Gold.PLP.Chemscore.Metal>
0.0000

> <Gold.Chemscore.Hbonds>
donor molecule, donor type, donor heavy atom, donor atom, acceptor molecule, acceptor atom, score
      P1  H  7989  7998       L1    19  0.45
      P1  H  8011  8017       L1    19  0.34

> <Gold.PLP.Chemscore.Internal.Correction>
0.0536

> <Gold.Rescore>
     Score         DG    S(hbond)    S(metal)    S(lipo)     H(rot)  DE(clash)    DE(int)     intcor
     12.33     -14.27       1.00        0.00     102.05       2.54       1.29       0.65       ----

> <Gold.Chemscore.Fitness>
12.3330

> <Gold.Chemscore.DG>
-14.2710

> <Gold.Chemscore.ZeroCoef>
-5.4800

> <Gold.Chemscore.Hbond>
1.0006

> <Gold.Chemscore.Metal>
0.0000

> <Gold.Chemscore.Lipo>
102.0502

> <Gold.Chemscore.Internal_Hbond>
0.0000

> <Gold.Chemscore.DEClash>
1.2898

> <Gold.Chemscore.DEInternal>
0.6482

> <Gold.Chemscore.Rot>
2.5355

> <Gold.Chemscore.Internal.Correction>
   9.000000E+99

> <Gold.Chemscore.Hbonds>
donor molecule, donor type, donor heavy atom, donor atom, acceptor molecule, acceptor atom, score
      P1  H  7989  7998       L1    19  0.42
      P1  H  8011  8017       L1    19  0.34

> <Gold.Chemscore.Hbond.Weighted>
-3.3419

> <Gold.Chemscore.Metal.Weighted>
-0.0000

> <Gold.Chemscore.Lipo.Weighted>
-11.9399

> <Gold.Chemscore.Internal_Hbond.Weighted>
0.0000

> <Gold.Chemscore.DEClash.Weighted>
1.2898

> <Gold.Chemscore.DEInternal.Weighted>
0.6482

> <Gold.Chemscore.Rot.Weighted>
6.4908

> <Gold.Chemscore.Internal.Correction.Weighted>
   9.000000E+99

> <Gold.Protein.RotatedTorsions>
[ 6907 6896 6895 6894 ] final -175.80 input  -60.11 | X-H torsion
[ 7974 7965 7964 7962 ] final   46.59 input  175.53 | X-H torsion
[ 8008 7997 7996 7995 ] final   -5.31 input   59.86 | X-H torsion
[ 10167 10162 10161 10158 ] final -121.01 input  -65.29 | X-H torsion
[ 10718 10713 10712 10709 ] final  105.77 input   66.30 | X-H torsion
[ 10763 10752 10751 10750 ] final -100.32 input  -60.55 | X-H torsion
[ 11005 11000 10999 10996 ] final -152.15 input  -57.11 | X-H torsion

> <Gold.Protein.ActiveResidues>
 VAL166  LYS551  ARG553  GLY616  TRP617  ASP618  TYR619  PRO620  LYS621  CYS622 
 ASP623  PHE694  ASN695  SER759  ASP760  ASP761  ALA762  ILE779  LEU786  VAL792 
 PHE793  MET794  SER795  GLU796  ALA797  LYS798  CYS799  TRP800  GLU811  SER814 

> <Gold.Protein.RotatedAtoms>
  151.5945  133.3363  159.3034 H   0  0  0  0  0  0  0  0  0  0  0  0  # atno 6907 bound_to 6896
  150.8242  134.7468  159.6810 H   0  0  0  0  0  0  0  0  0  0  0  0  # atno 6908 bound_to 6896
  152.4333  134.5742  159.9981 H   0  0  0  0  0  0  0  0  0  0  0  0  # atno 6909 bound_to 6896
  146.0376  139.4839  142.9799 H   0  0  0  0  0  0  0  0  0  0  0  0  # atno 7974 bound_to 7965
  154.6053  140.2462  155.7739 H   0  0  0  0  0  0  0  0  0  0  0  0  # atno 8008 bound_to 7997
  156.2336  140.2958  156.0206 H   0  0  0  0  0  0  0  0  0  0  0  0  # atno 8009 bound_to 7997
  155.2143  140.0398  157.2929 H   0  0  0  0  0  0  0  0  0  0  0  0  # atno 8010 bound_to 7997
  140.0297  143.5261  152.2182 H   0  0  0  0  0  0  0  0  0  0  0  0  # atno 10167 bound_to 10162
  157.6693  131.0835  150.5907 H   0  0  0  0  0  0  0  0  0  0  0  0  # atno 10718 bound_to 10713
  154.7570  135.4939  153.9393 H   0  0  0  0  0  0  0  0  0  0  0  0  # atno 10763 bound_to 10752
  153.1207  135.6731  153.9348 H   0  0  0  0  0  0  0  0  0  0  0  0  # atno 10764 bound_to 10752
  153.9081  135.3102  155.3427 H   0  0  0  0  0  0  0  0  0  0  0  0  # atno 10765 bound_to 10752
  140.7220  134.3716  157.5182 H   0  0  0  0  0  0  0  0  0  0  0  0  # atno 11005 bound_to 11000
  145.6938  141.0156  143.1541 LP  0  0  0  0  0  0  0  0  0  0  0  0  # atno 17320 bound_to 7965
  144.7059  139.8564  143.7430 LP  0  0  0  0  0  0  0  0  0  0  0  0  # atno 17321 bound_to 7965
  139.6084  144.7602  151.3007 LP  0  0  0  0  0  0  0  0  0  0  0  0  # atno 17342 bound_to 10162
  140.7307  143.6871  150.7952 LP  0  0  0  0  0  0  0  0  0  0  0  0  # atno 17343 bound_to 10162
  156.6207  130.4405  149.5823 LP  0  0  0  0  0  0  0  0  0  0  0  0  # atno 17370 bound_to 10713
  156.2358  130.6821  151.1508 LP  0  0  0  0  0  0  0  0  0  0  0  0  # atno 17371 bound_to 10713
  139.8846  134.8961  156.2694 LP  0  0  0  0  0  0  0  0  0  0  0  0  # atno 17394 bound_to 11000
  140.9995  133.7160  156.0938 LP  0  0  0  0  0  0  0  0  0  0  0  0  # atno 17395 bound_to 11000

$$$$
