AV-unprocessed.smi:720|AV-procd|sdf|3499|dock8
  -GOLD-   22720 0493D 1   1.00000     0.00000
 Structure written by MMmdl.
 46 48  0  0  0  0  0  0  0  0  1 V2000
  149.9466  135.7420  157.2186 C   0  0  0  0  0  0  0  0  0  0  0  0
  149.8976  136.3230  155.8817 N   0  0  0  0  0  0  0  0  0  0  0  0
  149.5570  135.2623  154.9424 C   0  0  0  0  0  0  0  0  0  0  0  0
  151.1808  136.9086  155.4889 C   0  0  0  0  0  0  0  0  0  0  0  0
  151.1028  137.7800  154.2168 C   0  0  0  0  0  0  0  0  0  0  0  0
  150.2497  138.9467  154.3629 N   0  0  0  0  0  0  0  0  0  0  0  0
  149.1118  139.2733  153.6520 C   0  0  0  0  0  0  0  0  0  0  0  0
  148.6391  140.4540  154.1498 C   0  0  0  0  0  0  0  0  0  0  0  0
  149.5687  140.7651  155.1868 C   0  0  0  0  0  0  0  0  0  0  0  0
  149.5311  141.9048  156.0291 N   0  0  0  0  0  0  0  0  0  0  0  0
  150.0213  142.0449  157.2756 C   0  0  0  0  0  0  0  0  0  0  0  0
  150.6427  141.1786  157.8875 O   0  0  0  0  0  0  0  0  0  0  0  0
  149.7676  143.2426  157.8327 N   0  0  0  0  0  0  0  0  0  0  0  0
  150.1556  143.7179  159.1642 C   0  0  2  0  0  0  0  0  0  0  0  0
  150.4432  145.2356  159.1502 C   0  0  0  0  0  0  0  0  0  0  0  0
  151.8944  145.3220  159.6577 C   0  0  2  0  0  0  0  0  0  0  0  0
  152.8538  144.7905  158.5755 C   0  0  0  0  0  0  0  0  0  0  0  0
  152.6134  143.2698  158.6231 C   0  0  0  0  0  0  0  0  0  0  0  0
  151.4986  143.1387  159.6826 C   0  0  1  0  0  0  0  0  0  0  0  0
  151.9274  144.2018  160.6884 C   0  0  0  0  0  0  0  0  0  0  0  0
  150.5167  139.8550  155.3267 N   0  0  0  0  0  0  0  0  0  0  0  0
  150.0809  136.5088  157.9787 H   0  0  0  0  0  0  0  0  0  0  0  0
  150.7577  135.0182  157.3100 H   0  0  0  0  0  0  0  0  0  0  0  0
  149.0099  135.2332  157.4489 H   0  0  0  0  0  0  0  0  0  0  0  0
  149.4706  135.6568  153.9294 H   0  0  0  0  0  0  0  0  0  0  0  0
  148.5971  134.8133  155.2009 H   0  0  0  0  0  0  0  0  0  0  0  0
  150.3130  134.4754  154.9397 H   0  0  0  0  0  0  0  0  0  0  0  0
  151.6340  137.4515  156.3198 H   0  0  0  0  0  0  0  0  0  0  0  0
  151.8601  136.0857  155.2617 H   0  0  0  0  0  0  0  0  0  0  0  0
  152.1012  138.1460  153.9756 H   0  0  0  0  0  0  0  0  0  0  0  0
  150.7799  137.1863  153.3597 H   0  0  0  0  0  0  0  0  0  0  0  0
  148.7387  138.6465  152.8556 H   0  0  0  0  0  0  0  0  0  0  0  0
  147.7656  140.9931  153.8159 H   0  0  0  0  0  0  0  0  0  0  0  0
  149.0260  142.6970  155.6595 H   0  0  0  0  0  0  0  0  0  0  0  0
  149.2416  143.8966  157.2710 H   0  0  0  0  0  0  0  0  0  0  0  0
  149.3552  143.5139  159.8780 H   0  0  0  0  0  0  0  0  0  0  0  0
  150.3299  145.6896  158.1646 H   0  0  0  0  0  0  0  0  0  0  0  0
  149.7665  145.7554  159.8296 H   0  0  0  0  0  0  0  0  0  0  0  0
  152.1657  146.3072  160.0377 H   0  0  0  0  0  0  0  0  0  0  0  0
  152.6411  145.2139  157.5932 H   0  0  0  0  0  0  0  0  0  0  0  0
  153.8903  145.0220  158.8232 H   0  0  0  0  0  0  0  0  0  0  0  0
  152.3456  142.8544  157.6517 H   0  0  0  0  0  0  0  0  0  0  0  0
  153.5156  142.7548  158.9561 H   0  0  0  0  0  0  0  0  0  0  0  0
  151.4115  142.1341  160.0976 H   0  0  0  0  0  0  0  0  0  0  0  0
  152.9199  144.0278  161.1083 H   0  0  0  0  0  0  0  0  0  0  0  0
  151.2138  144.3404  161.5027 H   0  0  0  0  0  0  0  0  0  0  0  0
  1  2  1  0  0  0  0
  1 22  1  0  0  0  0
  1 23  1  0  0  0  0
  1 24  1  0  0  0  0
  2  3  1  0  0  0  0
  2  4  1  0  0  0  0
  3 25  1  0  0  0  0
  3 26  1  0  0  0  0
  3 27  1  0  0  0  0
  4  5  1  0  0  0  0
  4 28  1  0  0  0  0
  4 29  1  0  0  0  0
  5  6  1  0  0  0  0
  5 30  1  0  0  0  0
  5 31  1  0  0  0  0
  6 21  1  0  0  0  0
  6  7  1  0  0  0  0
  7  8  2  0  0  0  0
  7 32  1  0  0  0  0
  8  9  1  0  0  0  0
  8 33  1  0  0  0  0
  9 10  1  0  0  0  0
  9 21  2  0  0  0  0
 10 11  1  0  0  0  0
 10 34  1  0  0  0  0
 11 12  2  0  0  0  0
 11 13  1  0  0  0  0
 13 14  1  0  0  0  0
 13 35  1  0  0  0  0
 14 19  1  0  0  0  0
 14 15  1  0  0  0  0
 14 36  1  0  0  0  0
 15 16  1  0  0  0  0
 15 37  1  0  0  0  0
 15 38  1  0  0  0  0
 16 20  1  0  0  0  0
 16 17  1  0  0  0  0
 16 39  1  0  0  0  0
 17 18  1  0  0  0  0
 17 40  1  0  0  0  0
 17 41  1  0  0  0  0
 18 19  1  0  0  0  0
 18 42  1  0  0  0  0
 18 43  1  0  0  0  0
 19 20  1  0  0  0  0
 19 44  1  0  0  0  0
 20 45  1  0  0  0  0
 20 46  1  0  0  0  0
M  END
> <s_m_source_file>
AV-unprocessed.smi

> <i_m_source_file_index>
720

> <i_lp_mmshare_version>
43012

> <i_f3d_flags>
0

> <s_epik_input>
W0NIM11OKFtDSDNdKVtDSDJdW0NIMl1uMVtjSF1bY0hdYyhuMSlbTkhdQyg9TylbTkhdW0NASF0oW0NIMl1bQ0BIXTIzKVtDQEhdKFtDSDJdMylbQ0gyXVtDSDJdMg==

> <s_epik_cmdline>
J2VwaWtfcHl0aG9uJywgJy1waCcsICc3LjAnLCAnLXRuJywgJzgnLCAnLW1hJywgJzIwMCcsICctbWV0YWxfYmluZGluZycsICctaW1hZScsICc8aW5maWxlLm1hZT4nLCAnLW9tYWUnLCAnPG91dGZpbGUubWFlPic=

> <r_lp_tautomer_probability>
1

> <r_epik_Ionization_Penalty>
1.83819

> <r_epik_Ionization_Penalty_Charging>
0

> <r_epik_Ionization_Penalty_Neutral>
1.83819

> <r_epik_State_Penalty>
1.95467

> <r_epik_Charging_Adjusted_Penalty>
1.95467

> <i_epik_Tot_Q>
0

> <i_epik_Tot_abs_Q>
0

> <r_epik_Metal_State_Penalty>
1.95467

> <b_epik_Metal_Only>
0

> <s_lp_Force_Field>
OPLS_2005

> <r_lp_Energy>
64.6773

> <b_lp_Chiralities_Consistent>
1

> <s_lp_Variant>
AV-unprocessed.smi:720-5

> <Gold.Version>
5.8.1

> <Gold.Id.Protein>
6NUR|6NUR_protein|mol2

> <Gold.PLP.Fitness>
47.9491

> <Gold.PLP.PLP>
-40.0044

> <Gold.PLP.part.hbond>
-2.1784

> <Gold.PLP.part.metal>
0.0000

> <Gold.PLP.part.buried>
-1.7470

> <Gold.PLP.part.nonpolar>
-37.4123

> <Gold.PLP.part.repulsive>
0.2471

> <Gold.PLP.ligand.clash>
0.0000

> <Gold.PLP.ligand.torsion>
0.5893

> <Gold.PLP.Chemscore.Hbond>
1.8800

> <Gold.PLP.Chemscore.CHOScore>
1.1518

> <Gold.PLP.Chemscore.Metal>
0.0000

> <Gold.Chemscore.Hbonds>
donor molecule, donor type, donor heavy atom, donor atom, acceptor molecule, acceptor atom, score
      L1  H    10    34       P1  8028  0.91
      L1  H    13    35       P1  8028  1.00
      L1  C     7    32       P1  7948  0.85
      L1  C     7    32       P1  7957  0.29

> <Gold.PLP.Chemscore.Internal.Correction>
0.0278

> <Gold.Rescore>
     Score         DG    S(hbond)    S(metal)    S(lipo)     H(rot)  DE(clash)    DE(int)     intcor
     13.33     -19.24       1.16        0.00     118.08       1.53       1.43       4.48       ----

> <Gold.Chemscore.Fitness>
13.3277

> <Gold.Chemscore.DG>
-19.2384

> <Gold.Chemscore.ZeroCoef>
-5.4800

> <Gold.Chemscore.Hbond>
1.1565

> <Gold.Chemscore.Metal>
0.0000

> <Gold.Chemscore.Lipo>
118.0828

> <Gold.Chemscore.Internal_Hbond>
0.0000

> <Gold.Chemscore.DEClash>
1.4306

> <Gold.Chemscore.DEInternal>
4.4800

> <Gold.Chemscore.Rot>
1.5312

> <Gold.Chemscore.Internal.Correction>
   9.000000E+99

> <Gold.Chemscore.Hbonds>
donor molecule, donor type, donor heavy atom, donor atom, acceptor molecule, acceptor atom, score
      L1  H    10    34       P1  8028  0.82
      L1  H    13    35       P1  8028  0.29

> <Gold.Chemscore.Hbond.Weighted>
-3.8626

> <Gold.Chemscore.Metal.Weighted>
-0.0000

> <Gold.Chemscore.Lipo.Weighted>
-13.8157

> <Gold.Chemscore.Internal_Hbond.Weighted>
0.0000

> <Gold.Chemscore.DEClash.Weighted>
1.4306

> <Gold.Chemscore.DEInternal.Weighted>
4.4800

> <Gold.Chemscore.Rot.Weighted>
3.9199

> <Gold.Chemscore.Internal.Correction.Weighted>
   9.000000E+99

> <Gold.Protein.RotatedTorsions>
[ 6907 6896 6895 6894 ] final -136.53 input  -60.11 | X-H torsion
[ 7974 7965 7964 7962 ] final   96.82 input  175.53 | X-H torsion
[ 8008 7997 7996 7995 ] final  109.63 input   59.86 | X-H torsion
[ 10167 10162 10161 10158 ] final -169.72 input  -65.29 | X-H torsion
[ 10718 10713 10712 10709 ] final  127.45 input   66.30 | X-H torsion
[ 10763 10752 10751 10750 ] final   55.31 input  -60.55 | X-H torsion
[ 11005 11000 10999 10996 ] final  -35.44 input  -57.11 | X-H torsion

> <Gold.Protein.ActiveResidues>
 VAL166  LYS551  ARG553  GLY616  TRP617  ASP618  TYR619  PRO620  LYS621  CYS622 
 ASP623  PHE694  ASN695  SER759  ASP760  ASP761  ALA762  ILE779  LEU786  VAL792 
 PHE793  MET794  SER795  GLU796  ALA797  LYS798  CYS799  TRP800  GLU811  SER814 

> <Gold.Protein.RotatedAtoms>
  151.0112  133.5963  159.2682 H   0  0  0  0  0  0  0  0  0  0  0  0  # atno 6907 bound_to 6896
  151.3114  135.0794  159.9283 H   0  0  0  0  0  0  0  0  0  0  0  0  # atno 6908 bound_to 6896
  152.5300  133.9776  159.7845 H   0  0  0  0  0  0  0  0  0  0  0  0  # atno 6909 bound_to 6896
  145.4338  139.2308  143.3130 H   0  0  0  0  0  0  0  0  0  0  0  0  # atno 7974 bound_to 7965
  156.1993  140.3054  155.9493 H   0  0  0  0  0  0  0  0  0  0  0  0  # atno 8008 bound_to 7997
  155.2992  140.0445  157.3045 H   0  0  0  0  0  0  0  0  0  0  0  0  # atno 8009 bound_to 7997
  154.5550  140.2303  155.8433 H   0  0  0  0  0  0  0  0  0  0  0  0  # atno 8010 bound_to 7997
  139.5905  144.1223  152.1628 H   0  0  0  0  0  0  0  0  0  0  0  0  # atno 10167 bound_to 10162
  157.5332  131.1098  150.8977 H   0  0  0  0  0  0  0  0  0  0  0  0  # atno 10718 bound_to 10713
  152.9815  135.5715  154.5046 H   0  0  0  0  0  0  0  0  0  0  0  0  # atno 10763 bound_to 10752
  154.4560  135.2780  155.1749 H   0  0  0  0  0  0  0  0  0  0  0  0  # atno 10764 bound_to 10752
  154.3357  135.6240  153.5626 H   0  0  0  0  0  0  0  0  0  0  0  0  # atno 10765 bound_to 10752
  140.9797  133.7063  156.1662 H   0  0  0  0  0  0  0  0  0  0  0  0  # atno 11005 bound_to 11000
  146.2593  140.5078  142.8860 LP  0  0  0  0  0  0  0  0  0  0  0  0  # atno 17320 bound_to 7965
  144.8166  140.6478  143.6380 LP  0  0  0  0  0  0  0  0  0  0  0  0  # atno 17321 bound_to 7965
  140.0797  144.5711  150.7131 LP  0  0  0  0  0  0  0  0  0  0  0  0  # atno 17342 bound_to 10162
  140.7169  143.2552  151.4405 LP  0  0  0  0  0  0  0  0  0  0  0  0  # atno 17343 bound_to 10162
  156.9552  130.5434  149.5284 LP  0  0  0  0  0  0  0  0  0  0  0  0  # atno 17370 bound_to 10713
  156.0438  130.5517  150.8833 LP  0  0  0  0  0  0  0  0  0  0  0  0  # atno 17371 bound_to 10713
  140.7206  134.4363  157.5575 LP  0  0  0  0  0  0  0  0  0  0  0  0  # atno 17394 bound_to 11000
  139.8945  134.8705  156.2175 LP  0  0  0  0  0  0  0  0  0  0  0  0  # atno 17395 bound_to 11000

$$$$
