AV-unprocessed.smi:2273|AV-procd|sdf|9167|dock1
  -GOLD-   2272012383D 1   1.00000     0.00000
 Structure written by MMmdl.
 53 54  0  0  0  0  0  0  0  0  1 V2000
  152.9813  138.5991  154.8453 C   0  0  0  0  0  0  0  0  0  0  0  0
  151.5362  138.1279  154.6186 C   0  0  0  0  0  0  0  0  0  0  0  0
  150.4909  139.2623  154.4441 C   0  0  0  0  0  0  0  0  0  0  0  0
  150.4800  140.1715  155.7030 C   0  0  0  0  0  0  0  0  0  0  0  0
  149.5636  141.3994  155.6437 C   0  0  0  0  0  0  0  0  0  0  0  0
  149.0724  138.7024  154.1175 C   0  0  1  0  0  0  0  0  0  0  0  0
  148.4859  137.8229  155.2509 C   0  0  0  0  0  0  0  0  0  0  0  0
  147.0943  137.2738  154.8847 C   0  0  2  0  0  0  0  0  0  0  0  0
  147.1787  136.2719  153.8167 N   0  0  0  0  0  0  0  0  0  0  0  0
  146.2434  135.3929  153.4146 C   0  0  0  0  0  0  0  0  0  0  0  0
  145.1350  135.3516  153.9464 O   0  0  0  0  0  0  0  0  0  0  0  0
  146.6275  134.5957  152.3970 N   0  0  0  0  0  0  0  0  0  0  0  0
  145.8573  133.6026  151.7706 C   0  0  0  0  0  0  0  0  0  0  0  0
  144.9559  133.9736  150.8232 C   0  0  0  0  0  0  0  0  0  0  0  0
  144.7305  135.4320  150.4583 C   0  0  0  0  0  0  0  0  0  0  0  0
  144.1664  132.9546  150.1634 C   0  0  0  0  0  0  0  0  0  0  0  0
  144.3443  131.6680  150.4912 C   0  0  0  0  0  0  0  0  0  0  0  0
  145.2922  131.2762  151.4470 N   0  0  0  0  0  0  0  0  0  0  0  0
  145.4231  129.8433  151.7234 C   0  0  0  0  0  0  0  0  0  0  0  0
  146.1008  132.1724  152.0823 C   0  0  0  0  0  0  0  0  0  0  0  0
  146.9860  131.7875  152.8497 O   0  0  0  0  0  0  0  0  0  0  0  0
  146.1870  138.4358  154.4554 C   0  0  0  0  0  0  0  0  0  0  0  0
  146.8765  139.3272  153.4103 C   0  0  0  0  0  0  0  0  0  0  0  0
  148.1388  139.7625  153.9042 O   0  0  0  0  0  0  0  0  0  0  0  0
  153.6680  137.7532  154.8078 H   0  0  0  0  0  0  0  0  0  0  0  0
  153.1118  139.0697  155.8193 H   0  0  0  0  0  0  0  0  0  0  0  0
  153.2906  139.3094  154.0782 H   0  0  0  0  0  0  0  0  0  0  0  0
  151.5570  137.5105  153.7205 H   0  0  0  0  0  0  0  0  0  0  0  0
  151.2369  137.4683  155.4343 H   0  0  0  0  0  0  0  0  0  0  0  0
  150.8215  139.8599  153.5935 H   0  0  0  0  0  0  0  0  0  0  0  0
  150.2191  139.5781  156.5800 H   0  0  0  0  0  0  0  0  0  0  0  0
  151.4853  140.5480  155.8858 H   0  0  0  0  0  0  0  0  0  0  0  0
  149.7236  142.0380  156.5127 H   0  0  0  0  0  0  0  0  0  0  0  0
  148.5110  141.1168  155.6471 H   0  0  0  0  0  0  0  0  0  0  0  0
  149.7633  141.9984  154.7550 H   0  0  0  0  0  0  0  0  0  0  0  0
  149.1390  138.1299  153.1907 H   0  0  0  0  0  0  0  0  0  0  0  0
  149.1477  137.0015  155.5135 H   0  0  0  0  0  0  0  0  0  0  0  0
  148.3986  138.4265  156.1553 H   0  0  0  0  0  0  0  0  0  0  0  0
  146.6444  136.8150  155.7665 H   0  0  0  0  0  0  0  0  0  0  0  0
  148.0734  136.2094  153.3526 H   0  0  0  0  0  0  0  0  0  0  0  0
  147.5153  134.8009  151.9630 H   0  0  0  0  0  0  0  0  0  0  0  0
  144.0265  135.5284  149.6314 H   0  0  0  0  0  0  0  0  0  0  0  0
  145.6650  135.9074  150.1587 H   0  0  0  0  0  0  0  0  0  0  0  0
  144.3226  135.9724  151.3116 H   0  0  0  0  0  0  0  0  0  0  0  0
  143.4316  133.2242  149.4189 H   0  0  0  0  0  0  0  0  0  0  0  0
  143.7833  130.8647  150.0364 H   0  0  0  0  0  0  0  0  0  0  0  0
  145.3441  129.6474  152.7938 H   0  0  0  0  0  0  0  0  0  0  0  0
  146.3918  129.4768  151.3807 H   0  0  0  0  0  0  0  0  0  0  0  0
  144.6533  129.2480  151.2311 H   0  0  0  0  0  0  0  0  0  0  0  0
  145.2360  138.0630  154.0730 H   0  0  0  0  0  0  0  0  0  0  0  0
  145.9488  139.0423  155.3301 H   0  0  0  0  0  0  0  0  0  0  0  0
  147.0033  138.7997  152.4636 H   0  0  0  0  0  0  0  0  0  0  0  0
  146.2601  140.2019  153.2028 H   0  0  0  0  0  0  0  0  0  0  0  0
  1  2  1  0  0  0  0
  1 25  1  0  0  0  0
  1 26  1  0  0  0  0
  1 27  1  0  0  0  0
  2  3  1  0  0  0  0
  2 28  1  0  0  0  0
  2 29  1  0  0  0  0
  3  4  1  0  0  0  0
  3  6  1  0  0  0  0
  3 30  1  0  0  0  0
  4  5  1  0  0  0  0
  4 31  1  0  0  0  0
  4 32  1  0  0  0  0
  5 33  1  0  0  0  0
  5 34  1  0  0  0  0
  5 35  1  0  0  0  0
  6 24  1  0  0  0  0
  6  7  1  0  0  0  0
  6 36  1  0  0  0  0
  7  8  1  0  0  0  0
  7 37  1  0  0  0  0
  7 38  1  0  0  0  0
  8  9  1  0  0  0  0
  8 22  1  0  0  0  0
  8 39  1  0  0  0  0
  9 10  1  0  0  0  0
  9 40  1  0  0  0  0
 10 11  2  0  0  0  0
 10 12  1  0  0  0  0
 12 13  1  0  0  0  0
 12 41  1  0  0  0  0
 13 20  1  0  0  0  0
 13 14  2  0  0  0  0
 14 15  1  0  0  0  0
 14 16  1  0  0  0  0
 15 42  1  0  0  0  0
 15 43  1  0  0  0  0
 15 44  1  0  0  0  0
 16 17  2  0  0  0  0
 16 45  1  0  0  0  0
 17 18  1  0  0  0  0
 17 46  1  0  0  0  0
 18 19  1  0  0  0  0
 18 20  1  0  0  0  0
 19 47  1  0  0  0  0
 19 48  1  0  0  0  0
 19 49  1  0  0  0  0
 20 21  2  0  0  0  0
 22 23  1  0  0  0  0
 22 50  1  0  0  0  0
 22 51  1  0  0  0  0
 23 24  1  0  0  0  0
 23 52  1  0  0  0  0
 23 53  1  0  0  0  0
M  END
> <s_m_source_file>
AV-unprocessed.smi

> <i_m_source_file_index>
2273

> <i_lp_mmshare_version>
43012

> <i_f3d_flags>
0

> <s_epik_input>
W0NIM11bQ0gyXVtDSF0oW0NIMl1bQ0gzXSlbQ0BASF0xW0NIMl1bQ0BIXShbQ0gyXVtDSDJdTzEpW05IXUMoPU8pW05IXWMyYyhbQ0gzXSlbY0hdW2NIXW4oW0NIM10pYzI9Tw==

> <s_epik_cmdline>
J2VwaWtfcHl0aG9uJywgJy1waCcsICc3LjAnLCAnLXRuJywgJzgnLCAnLW1hJywgJzIwMCcsICctbWV0YWxfYmluZGluZycsICctaW1hZScsICc8aW5maWxlLm1hZT4nLCAnLW9tYWUnLCAnPG91dGZpbGUubWFlPic=

> <r_lp_tautomer_probability>
1

> <r_epik_Ionization_Penalty>
2.66245e-05

> <r_epik_Ionization_Penalty_Charging>
6.91055e-06

> <r_epik_Ionization_Penalty_Neutral>
1.97139e-05

> <r_epik_State_Penalty>
-0

> <r_epik_Charging_Adjusted_Penalty>
6.91055e-06

> <i_epik_Tot_Q>
0

> <i_epik_Tot_abs_Q>
0

> <r_epik_Metal_State_Penalty>
-0

> <b_epik_Metal_Only>
0

> <s_lp_Force_Field>
OPLS_2005

> <r_lp_Energy>
42.8543

> <b_lp_Chiralities_Consistent>
1

> <s_lp_Variant>
AV-unprocessed.smi:2273-4

> <Gold.Version>
5.8.1

> <Gold.Id.Protein>
6NUR|6NUR_protein|mol2

> <Gold.PLP.Fitness>
47.7604

> <Gold.PLP.PLP>
-43.1507

> <Gold.PLP.part.hbond>
-2.0000

> <Gold.PLP.part.metal>
0.0000

> <Gold.PLP.part.buried>
-5.9970

> <Gold.PLP.part.nonpolar>
-36.5089

> <Gold.PLP.part.repulsive>
0.3280

> <Gold.PLP.ligand.clash>
0.0000

> <Gold.PLP.ligand.torsion>
0.8940

> <Gold.PLP.Chemscore.Hbond>
1.8720

> <Gold.PLP.Chemscore.CHOScore>
0.0000

> <Gold.PLP.Chemscore.Metal>
0.0000

> <Gold.Chemscore.Hbonds>
donor molecule, donor type, donor heavy atom, donor atom, acceptor molecule, acceptor atom, score
      L1  H     9    40       P1  7948  0.96
      L1  H    12    41       P1  7948  0.88

> <Gold.PLP.Chemscore.Internal.Correction>
0.7817

> <Gold.Rescore>
     Score         DG    S(hbond)    S(metal)    S(lipo)     H(rot)  DE(clash)    DE(int)     intcor
     17.22     -19.67       1.80        0.00     101.16       1.42       0.08       2.37       ----

> <Gold.Chemscore.Fitness>
17.2215

> <Gold.Chemscore.DG>
-19.6736

> <Gold.Chemscore.ZeroCoef>
-5.4800

> <Gold.Chemscore.Hbond>
1.7970

> <Gold.Chemscore.Metal>
0.0000

> <Gold.Chemscore.Lipo>
101.1631

> <Gold.Chemscore.Internal_Hbond>
0.0000

> <Gold.Chemscore.DEClash>
0.0834

> <Gold.Chemscore.DEInternal>
2.3687

> <Gold.Chemscore.Rot>
1.4236

> <Gold.Chemscore.Internal.Correction>
   9.000000E+99

> <Gold.Chemscore.Hbonds>
donor molecule, donor type, donor heavy atom, donor atom, acceptor molecule, acceptor atom, score
      L1  H     9    40       P1  7948  0.92
      L1  H    12    41       P1  7948  0.63

> <Gold.Chemscore.Hbond.Weighted>
-6.0020

> <Gold.Chemscore.Metal.Weighted>
-0.0000

> <Gold.Chemscore.Lipo.Weighted>
-11.8361

> <Gold.Chemscore.Internal_Hbond.Weighted>
0.0000

> <Gold.Chemscore.DEClash.Weighted>
0.0834

> <Gold.Chemscore.DEInternal.Weighted>
2.3687

> <Gold.Chemscore.Rot.Weighted>
3.6445

> <Gold.Chemscore.Internal.Correction.Weighted>
   9.000000E+99

> <Gold.Protein.RotatedTorsions>
[ 6907 6896 6895 6894 ] final   63.36 input  -60.11 | X-H torsion
[ 7974 7965 7964 7962 ] final  146.10 input  175.53 | X-H torsion
[ 8008 7997 7996 7995 ] final  166.42 input   59.86 | X-H torsion
[ 10167 10162 10161 10158 ] final   88.86 input  -65.29 | X-H torsion
[ 10718 10713 10712 10709 ] final   97.10 input   66.30 | X-H torsion
[ 10763 10752 10751 10750 ] final -107.15 input  -60.55 | X-H torsion
[ 11005 11000 10999 10996 ] final  -24.29 input  -57.11 | X-H torsion

> <Gold.Protein.ActiveResidues>
 VAL166  LYS551  ARG553  GLY616  TRP617  ASP618  TYR619  PRO620  LYS621  CYS622 
 ASP623  PHE694  ASN695  SER759  ASP760  ASP761  ALA762  ILE779  LEU786  VAL792 
 PHE793  MET794  SER795  GLU796  ALA797  LYS798  CYS799  TRP800  GLU811  SER814 

> <Gold.Protein.RotatedAtoms>
  152.4246  134.5891  159.9969 H   0  0  0  0  0  0  0  0  0  0  0  0  # atno 6907 bound_to 6896
  151.6031  133.3348  159.3059 H   0  0  0  0  0  0  0  0  0  0  0  0  # atno 6908 bound_to 6896
  150.8135  134.7341  159.6775 H   0  0  0  0  0  0  0  0  0  0  0  0  # atno 6909 bound_to 6896
  144.8698  139.5864  143.5892 H   0  0  0  0  0  0  0  0  0  0  0  0  # atno 7974 bound_to 7965
  156.1720  140.1644  156.8431 H   0  0  0  0  0  0  0  0  0  0  0  0  # atno 8008 bound_to 7997
  154.5266  140.0766  156.8304 H   0  0  0  0  0  0  0  0  0  0  0  0  # atno 8009 bound_to 7997
  155.3493  140.3389  155.4241 H   0  0  0  0  0  0  0  0  0  0  0  0  # atno 8010 bound_to 7997
  139.8630  144.6534  150.9036 H   0  0  0  0  0  0  0  0  0  0  0  0  # atno 10167 bound_to 10162
  157.6917  131.0599  150.4593 H   0  0  0  0  0  0  0  0  0  0  0  0  # atno 10718 bound_to 10713
  154.8057  135.4685  154.0387 H   0  0  0  0  0  0  0  0  0  0  0  0  # atno 10763 bound_to 10752
  153.1858  135.6847  153.8424 H   0  0  0  0  0  0  0  0  0  0  0  0  # atno 10764 bound_to 10752
  153.7959  135.3236  155.3362 H   0  0  0  0  0  0  0  0  0  0  0  0  # atno 10765 bound_to 10752
  140.8831  133.7640  156.0327 H   0  0  0  0  0  0  0  0  0  0  0  0  # atno 11005 bound_to 11000
  146.2922  139.7173  142.9152 LP  0  0  0  0  0  0  0  0  0  0  0  0  # atno 17320 bound_to 7965
  145.4151  141.0401  143.2995 LP  0  0  0  0  0  0  0  0  0  0  0  0  # atno 17321 bound_to 7965
  140.7772  143.3728  151.1618 LP  0  0  0  0  0  0  0  0  0  0  0  0  # atno 17342 bound_to 10162
  139.7356  143.9005  152.3033 LP  0  0  0  0  0  0  0  0  0  0  0  0  # atno 17343 bound_to 10162
  156.4938  130.4101  149.6391 LP  0  0  0  0  0  0  0  0  0  0  0  0  # atno 17370 bound_to 10713
  156.3392  130.7373  151.2315 LP  0  0  0  0  0  0  0  0  0  0  0  0  # atno 17371 bound_to 10713
  140.8437  134.3036  157.5303 LP  0  0  0  0  0  0  0  0  0  0  0  0  # atno 17394 bound_to 11000
  139.8721  134.9430  156.3840 LP  0  0  0  0  0  0  0  0  0  0  0  0  # atno 17395 bound_to 11000

$$$$
