AV-unprocessed.smi:1774|AV-procd|sdf|7166|dock3
  -GOLD-   22720 8403D 1   1.00000     0.00000
 Structure written by MMmdl.
 45 46  0  0  0  0  0  0  0  0  1 V2000
  147.7759  132.9068  152.2347 C   0  0  0  0  0  0  0  0  0  0  0  0
  146.3649  132.9238  151.6687 C   0  0  0  0  0  0  0  0  0  0  0  0
  145.7777  131.7143  151.2399 C   0  0  0  0  0  0  0  0  0  0  0  0
  144.4729  131.7323  150.7180 C   0  0  0  0  0  0  0  0  0  0  0  0
  143.8061  132.9674  150.6473 C   0  0  0  0  0  0  0  0  0  0  0  0
  144.3595  134.1278  151.0547 N   0  0  0  0  0  0  0  0  0  0  0  0
  145.6184  134.1278  151.5608 C   0  0  0  0  0  0  0  0  0  0  0  0
  146.2678  135.3139  152.0051 N   0  0  0  0  0  0  0  0  0  0  0  0
  145.7899  136.2798  152.8093 C   0  0  0  0  0  0  0  0  0  0  0  0
  144.6736  136.2903  153.3291 O   0  0  0  0  0  0  0  0  0  0  0  0
  146.6985  137.2481  152.9916 N   0  0  0  0  0  0  0  0  0  0  0  0
  146.5221  138.4129  153.8524 C   0  0  0  0  0  0  0  0  0  0  0  0
  147.5037  139.5454  153.4916 C   0  0  0  0  0  0  0  0  0  0  0  0
  148.6379  139.7048  154.4027 N   0  0  0  0  0  0  0  0  0  0  0  0
  148.9996  141.1102  154.5473 C   0  0  0  0  0  0  0  0  0  0  0  0
  150.1865  141.3235  155.5075 C   0  0  1  0  0  0  0  0  0  0  0  0
  149.8160  141.1246  156.9870 C   0  0  0  0  0  0  0  0  0  0  0  0
  151.2878  140.4995  155.1211 O   0  0  0  0  0  0  0  0  0  0  0  0
  150.9847  139.1144  154.9628 C   0  0  2  0  0  0  0  0  0  0  0  0
  152.2510  138.4029  154.4748 C   0  0  0  0  0  0  0  0  0  0  0  0
  149.8134  138.9525  153.9769 C   0  0  0  0  0  0  0  0  0  0  0  0
  148.1890  131.8978  152.2406 H   0  0  0  0  0  0  0  0  0  0  0  0
  147.7800  133.2764  153.2606 H   0  0  0  0  0  0  0  0  0  0  0  0
  148.4355  133.5359  151.6364 H   0  0  0  0  0  0  0  0  0  0  0  0
  146.3183  130.7817  151.3085 H   0  0  0  0  0  0  0  0  0  0  0  0
  143.9962  130.8237  150.3811 H   0  0  0  0  0  0  0  0  0  0  0  0
  142.8022  133.0266  150.2530 H   0  0  0  0  0  0  0  0  0  0  0  0
  147.2116  135.4391  151.6709 H   0  0  0  0  0  0  0  0  0  0  0  0
  147.5910  137.1577  152.5291 H   0  0  0  0  0  0  0  0  0  0  0  0
  145.4903  138.7521  153.7682 H   0  0  0  0  0  0  0  0  0  0  0  0
  146.6561  138.1254  154.8964 H   0  0  0  0  0  0  0  0  0  0  0  0
  147.8679  139.3954  152.4743 H   0  0  0  0  0  0  0  0  0  0  0  0
  146.9383  140.4782  153.4670 H   0  0  0  0  0  0  0  0  0  0  0  0
  149.2607  141.5179  153.5696 H   0  0  0  0  0  0  0  0  0  0  0  0
  148.1405  141.6833  154.8981 H   0  0  0  0  0  0  0  0  0  0  0  0
  150.5237  142.3547  155.3996 H   0  0  0  0  0  0  0  0  0  0  0  0
  149.0540  141.8411  157.2945 H   0  0  0  0  0  0  0  0  0  0  0  0
  150.6854  141.2706  157.6283 H   0  0  0  0  0  0  0  0  0  0  0  0
  149.4207  140.1277  157.1810 H   0  0  0  0  0  0  0  0  0  0  0  0
  150.7064  138.6930  155.9292 H   0  0  0  0  0  0  0  0  0  0  0  0
  152.0768  137.3339  154.3504 H   0  0  0  0  0  0  0  0  0  0  0  0
  153.0660  138.5256  155.1886 H   0  0  0  0  0  0  0  0  0  0  0  0
  152.5842  138.8024  153.5165 H   0  0  0  0  0  0  0  0  0  0  0  0
  149.5735  137.8929  153.8952 H   0  0  0  0  0  0  0  0  0  0  0  0
  150.1217  139.2811  152.9832 H   0  0  0  0  0  0  0  0  0  0  0  0
  1  2  1  0  0  0  0
  1 22  1  0  0  0  0
  1 23  1  0  0  0  0
  1 24  1  0  0  0  0
  2  7  1  0  0  0  0
  2  3  2  0  0  0  0
  3  4  1  0  0  0  0
  3 25  1  0  0  0  0
  4  5  2  0  0  0  0
  4 26  1  0  0  0  0
  5  6  1  0  0  0  0
  5 27  1  0  0  0  0
  6  7  2  0  0  0  0
  7  8  1  0  0  0  0
  8  9  1  0  0  0  0
  8 28  1  0  0  0  0
  9 10  2  0  0  0  0
  9 11  1  0  0  0  0
 11 12  1  0  0  0  0
 11 29  1  0  0  0  0
 12 13  1  0  0  0  0
 12 30  1  0  0  0  0
 12 31  1  0  0  0  0
 13 14  1  0  0  0  0
 13 32  1  0  0  0  0
 13 33  1  0  0  0  0
 14 21  1  0  0  0  0
 14 15  1  0  0  0  0
 15 16  1  0  0  0  0
 15 34  1  0  0  0  0
 15 35  1  0  0  0  0
 16 17  1  0  0  0  0
 16 18  1  0  0  0  0
 16 36  1  0  0  0  0
 17 37  1  0  0  0  0
 17 38  1  0  0  0  0
 17 39  1  0  0  0  0
 18 19  1  0  0  0  0
 19 20  1  0  0  0  0
 19 21  1  0  0  0  0
 19 40  1  0  0  0  0
 20 41  1  0  0  0  0
 20 42  1  0  0  0  0
 20 43  1  0  0  0  0
 21 44  1  0  0  0  0
 21 45  1  0  0  0  0
M  END
> <s_m_source_file>
AV-unprocessed.smi

> <i_m_source_file_index>
1774

> <i_lp_mmshare_version>
43012

> <i_f3d_flags>
0

> <s_epik_input>
W0NIM11jMVtjSF1bY0hdW2NIXW5jMVtOSF1DKD1PKVtOSF1bQ0gyXVtDSDJdTjJbQ0gyXVtDQEBIXShbQ0gzXSlPW0NAQEhdKFtDSDNdKVtDSDJdMg==

> <s_epik_cmdline>
J2VwaWtfcHl0aG9uJywgJy1waCcsICc3LjAnLCAnLXRuJywgJzgnLCAnLW1hJywgJzIwMCcsICctbWV0YWxfYmluZGluZycsICctaW1hZScsICc8aW5maWxlLm1hZT4nLCAnLW9tYWUnLCAnPG91dGZpbGUubWFlPic=

> <r_epik_Ionization_Penalty>
0.266047

> <r_epik_Ionization_Penalty_Charging>
0

> <r_epik_Ionization_Penalty_Neutral>
0.266047

> <r_epik_State_Penalty>
0.257924

> <r_epik_Charging_Adjusted_Penalty>
0.257924

> <i_epik_Tot_Q>
0

> <i_epik_Tot_abs_Q>
0

> <r_epik_Metal_State_Penalty>
0.257922

> <b_epik_Metal_Only>
0

> <s_lp_Force_Field>
OPLS_2005

> <r_lp_Energy>
30.3596

> <b_lp_Chiralities_Consistent>
1

> <s_lp_Variant>
AV-unprocessed.smi:1774-3

> <Gold.Version>
5.8.1

> <Gold.Id.Protein>
6NUR|6NUR_protein|mol2

> <Gold.PLP.Fitness>
47.6951

> <Gold.PLP.PLP>
-38.4909

> <Gold.PLP.part.hbond>
-3.0000

> <Gold.PLP.part.metal>
0.0000

> <Gold.PLP.part.buried>
-4.2301

> <Gold.PLP.part.nonpolar>
-31.8016

> <Gold.PLP.part.repulsive>
0.4505

> <Gold.PLP.ligand.clash>
0.0000

> <Gold.PLP.ligand.torsion>
1.3046

> <Gold.PLP.Chemscore.Hbond>
2.9280

> <Gold.PLP.Chemscore.CHOScore>
1.0000

> <Gold.PLP.Chemscore.Metal>
0.0000

> <Gold.Chemscore.Hbonds>
donor molecule, donor type, donor heavy atom, donor atom, acceptor molecule, acceptor atom, score
      L1  H     8    28       P1  7948  1.00
      L1  H    11    29       P1  7948  1.00
      P1  H  7989  7998       L1    18  0.90
      L1  C     5    27       P1 10186  1.00

> <Gold.PLP.Chemscore.Internal.Correction>
0.0293

> <Gold.Rescore>
     Score         DG    S(hbond)    S(metal)    S(lipo)     H(rot)  DE(clash)    DE(int)     intcor
     18.15     -19.44       2.10        0.00      91.19       1.46       0.02       1.28       ----

> <Gold.Chemscore.Fitness>
18.1501

> <Gold.Chemscore.DG>
-19.4437

> <Gold.Chemscore.ZeroCoef>
-5.4800

> <Gold.Chemscore.Hbond>
2.1026

> <Gold.Chemscore.Metal>
0.0000

> <Gold.Chemscore.Lipo>
91.1863

> <Gold.Chemscore.Internal_Hbond>
0.0000

> <Gold.Chemscore.DEClash>
0.0175

> <Gold.Chemscore.DEInternal>
1.2760

> <Gold.Chemscore.Rot>
1.4562

> <Gold.Chemscore.Internal.Correction>
   9.000000E+99

> <Gold.Chemscore.Hbonds>
donor molecule, donor type, donor heavy atom, donor atom, acceptor molecule, acceptor atom, score
      L1  H     8    28       P1  7948  0.95
      L1  H    11    29       P1  7948  0.98
      P1  H  7989  7998       L1    18  0.12

> <Gold.Chemscore.Hbond.Weighted>
-7.0227

> <Gold.Chemscore.Metal.Weighted>
-0.0000

> <Gold.Chemscore.Lipo.Weighted>
-10.6688

> <Gold.Chemscore.Internal_Hbond.Weighted>
0.0000

> <Gold.Chemscore.DEClash.Weighted>
0.0175

> <Gold.Chemscore.DEInternal.Weighted>
1.2760

> <Gold.Chemscore.Rot.Weighted>
3.7278

> <Gold.Chemscore.Internal.Correction.Weighted>
   9.000000E+99

> <Gold.Protein.RotatedTorsions>
[ 6907 6896 6895 6894 ] final   69.70 input  -60.11 | X-H torsion
[ 7974 7965 7964 7962 ] final  117.23 input  175.53 | X-H torsion
[ 8008 7997 7996 7995 ] final  -18.48 input   59.86 | X-H torsion
[ 10167 10162 10161 10158 ] final  -19.96 input  -65.29 | X-H torsion
[ 10718 10713 10712 10709 ] final  -54.05 input   66.30 | X-H torsion
[ 10763 10752 10751 10750 ] final  -98.12 input  -60.55 | X-H torsion
[ 11005 11000 10999 10996 ] final  108.09 input  -57.11 | X-H torsion

> <Gold.Protein.ActiveResidues>
 VAL166  LYS551  ARG553  GLY616  TRP617  ASP618  TYR619  PRO620  LYS621  CYS622 
 ASP623  PHE694  ASN695  SER759  ASP760  ASP761  ALA762  ILE779  LEU786  VAL792 
 PHE793  MET794  SER795  GLU796  ALA797  LYS798  CYS799  TRP800  GLU811  SER814 

> <Gold.Protein.RotatedAtoms>
  152.4703  134.4977  159.9714 H   0  0  0  0  0  0  0  0  0  0  0  0  # atno 6907 bound_to 6896
  151.5006  133.3499  159.2876 H   0  0  0  0  0  0  0  0  0  0  0  0  # atno 6908 bound_to 6896
  150.8709  134.8110  159.7215 H   0  0  0  0  0  0  0  0  0  0  0  0  # atno 6909 bound_to 6896
  145.1699  139.3107  143.4473 H   0  0  0  0  0  0  0  0  0  0  0  0  # atno 7974 bound_to 7965
  154.4903  140.2114  155.9563 H   0  0  0  0  0  0  0  0  0  0  0  0  # atno 8008 bound_to 7997
  156.1296  140.3199  155.8297 H   0  0  0  0  0  0  0  0  0  0  0  0  # atno 8009 bound_to 7997
  155.4321  140.0504  157.3008 H   0  0  0  0  0  0  0  0  0  0  0  0  # atno 8010 bound_to 7997
  140.7272  143.4768  151.0172 H   0  0  0  0  0  0  0  0  0  0  0  0  # atno 10167 bound_to 10162
  156.1483  130.4152  149.9987 H   0  0  0  0  0  0  0  0  0  0  0  0  # atno 10718 bound_to 10713
  154.7387  135.5021  153.9085 H   0  0  0  0  0  0  0  0  0  0  0  0  # atno 10763 bound_to 10752
  153.1021  135.6687  153.9662 H   0  0  0  0  0  0  0  0  0  0  0  0  # atno 10764 bound_to 10752
  153.9445  135.3064  155.3420 H   0  0  0  0  0  0  0  0  0  0  0  0  # atno 10765 bound_to 10752
  139.8838  134.9420  156.5919 H   0  0  0  0  0  0  0  0  0  0  0  0  # atno 11005 bound_to 11000
  146.3470  140.1841  142.8589 LP  0  0  0  0  0  0  0  0  0  0  0  0  # atno 17320 bound_to 7965
  145.0243  140.8820  143.5147 LP  0  0  0  0  0  0  0  0  0  0  0  0  # atno 17321 bound_to 7965
  139.8464  143.7496  152.3179 LP  0  0  0  0  0  0  0  0  0  0  0  0  # atno 17342 bound_to 10162
  139.7663  144.7491  151.0290 LP  0  0  0  0  0  0  0  0  0  0  0  0  # atno 17343 bound_to 10162
  156.7852  130.9236  151.3646 LP  0  0  0  0  0  0  0  0  0  0  0  0  # atno 17370 bound_to 10713
  157.6635  130.8987  149.9882 LP  0  0  0  0  0  0  0  0  0  0  0  0  # atno 17371 bound_to 10713
  140.7949  133.8552  155.8677 LP  0  0  0  0  0  0  0  0  0  0  0  0  # atno 17394 bound_to 11000
  140.9644  134.1613  157.4628 LP  0  0  0  0  0  0  0  0  0  0  0  0  # atno 17395 bound_to 11000

$$$$
