AV-unprocessed.smi:835|AV-procd|sdf|3886|dock9
  -GOLD-   22720 1343D 1   1.00000     0.00000
 Structure written by MMmdl.
 41 43  0  0  0  0  0  0  0  0  2 V2000
  153.6742  138.4649  157.4900 C   0  0  0  0  0  0  0  0  0  0  0  0
  152.6147  138.1124  156.4881 C   0  0  0  0  0  0  0  0  0  0  0  0
  152.1223  136.8184  156.1496 C   0  0  0  0  0  0  0  0  0  0  0  0
  151.1822  137.0947  155.1949 C   0  0  0  0  0  0  0  0  0  0  0  0
  150.3756  136.2346  154.5181 N   0  0  0  0  0  0  0  0  0  0  0  0
  149.9925  134.9951  154.8701 C   0  0  0  0  0  0  0  0  0  0  0  0
  150.3309  134.4069  155.8973 O   0  0  0  0  0  0  0  0  0  0  0  0
  149.1878  134.4529  153.9451 N   0  0  0  0  0  0  0  0  0  0  0  0
  148.6250  133.1091  154.0240 C   0  0  2  0  0  0  0  0  0  0  0  0
  149.6599  131.9880  154.0307 C   0  0  0  0  0  0  0  0  0  0  0  0
  148.8362  130.7721  153.5932 C   0  0  0  0  0  0  0  0  0  0  0  0
  147.7289  131.2872  152.7494 N   0  3  1  0  0  0  0  0  0  0  0  0
  146.4054  130.7333  153.1088 C   0  0  0  0  0  0  0  0  0  0  0  0
  146.1792  129.3315  152.5948 C   0  0  0  0  0  0  0  0  0  0  0  0
  145.5028  130.5051  151.9198 C   0  0  0  0  0  0  0  0  0  0  0  0
  147.7857  132.7653  152.7942 C   0  0  0  0  0  0  0  0  0  0  0  0
  151.1310  138.4569  155.0006 N   0  0  0  0  0  0  0  0  0  0  0  0
  150.2946  139.2290  154.1027 C   0  0  0  0  0  0  0  0  0  0  0  0
  152.0211  139.0822  155.8012 N   0  0  0  0  0  0  0  0  0  0  0  0
  154.0949  137.5703  157.9495 H   0  0  0  0  0  0  0  0  0  0  0  0
  153.2687  139.0875  158.2875 H   0  0  0  0  0  0  0  0  0  0  0  0
  154.4920  139.0126  157.0210 H   0  0  0  0  0  0  0  0  0  0  0  0
  152.4195  135.8629  156.5547 H   0  0  0  0  0  0  0  0  0  0  0  0
  150.0445  136.5695  153.6254 H   0  0  0  0  0  0  0  0  0  0  0  0
  148.9554  135.0034  153.1313 H   0  0  0  0  0  0  0  0  0  0  0  0
  147.9953  133.0264  154.9127 H   0  0  0  0  0  0  0  0  0  0  0  0
  150.4441  132.1898  153.2990 H   0  0  0  0  0  0  0  0  0  0  0  0
  150.1328  131.8496  155.0037 H   0  0  0  0  0  0  0  0  0  0  0  0
  149.4383  130.0445  153.0485 H   0  0  0  0  0  0  0  0  0  0  0  0
  148.4352  130.2707  154.4757 H   0  0  0  0  0  0  0  0  0  0  0  0
  145.9913  131.0460  154.0661 H   0  0  0  0  0  0  0  0  0  0  0  0
  146.9904  128.8423  152.0586 H   0  0  0  0  0  0  0  0  0  0  0  0
  145.5527  128.6718  153.1918 H   0  0  0  0  0  0  0  0  0  0  0  0
  144.4314  130.6176  152.0735 H   0  0  0  0  0  0  0  0  0  0  0  0
  145.8645  130.7968  150.9352 H   0  0  0  0  0  0  0  0  0  0  0  0
  146.7974  133.2274  152.8215 H   0  0  0  0  0  0  0  0  0  0  0  0
  148.2834  133.1078  151.8854 H   0  0  0  0  0  0  0  0  0  0  0  0
  150.3971  138.8476  153.0864 H   0  0  0  0  0  0  0  0  0  0  0  0
  150.5863  140.2802  154.1149 H   0  0  0  0  0  0  0  0  0  0  0  0
  149.2525  139.1463  154.4121 H   0  0  0  0  0  0  0  0  0  0  0  0
  147.9153  131.0142  151.7950 H   0  0  0  0  0  0  0  0  0  0  0  0
  1  2  1  0  0  0  0
  1 20  1  0  0  0  0
  1 21  1  0  0  0  0
  1 22  1  0  0  0  0
  2 19  2  0  0  0  0
  2  3  1  0  0  0  0
  3  4  2  0  0  0  0
  3 23  1  0  0  0  0
  4  5  1  0  0  0  0
  4 17  1  0  0  0  0
  5  6  1  0  0  0  0
  5 24  1  0  0  0  0
  6  7  2  0  0  0  0
  6  8  1  0  0  0  0
  8  9  1  0  0  0  0
  8 25  1  0  0  0  0
  9 16  1  0  0  0  0
  9 10  1  0  0  0  0
  9 26  1  0  0  0  0
 10 11  1  0  0  0  0
 10 27  1  0  0  0  0
 10 28  1  0  0  0  0
 11 12  1  0  0  0  0
 11 29  1  0  0  0  0
 11 30  1  0  0  0  0
 12 13  1  0  0  0  0
 12 16  1  0  0  0  0
 12 41  1  0  0  0  0
 13 15  1  0  0  0  0
 13 14  1  0  0  0  0
 13 31  1  0  0  0  0
 14 15  1  0  0  0  0
 14 32  1  0  0  0  0
 14 33  1  0  0  0  0
 15 34  1  0  0  0  0
 15 35  1  0  0  0  0
 16 36  1  0  0  0  0
 16 37  1  0  0  0  0
 17 18  1  0  0  0  0
 17 19  1  0  0  0  0
 18 38  1  0  0  0  0
 18 39  1  0  0  0  0
 18 40  1  0  0  0  0
M  CHG  1  12   1
M  END
> <s_m_source_file>
AV-unprocessed.smi

> <i_m_source_file_index>
835

> <i_lp_mmshare_version>
43012

> <i_f3d_flags>
0

> <s_epik_input>
W0NIM11jMVtjSF1jKG4objEpW0NIM10pW05IXUMoPU8pW05IXVtDQEBIXTJbQ0gyXVtDSDJdTihbQ0gyXTIpW0NIXTNbQ0gyXVtDSDJdMw==

> <s_epik_cmdline>
J2VwaWtfcHl0aG9uJywgJy1waCcsICc3LjAnLCAnLXRuJywgJzgnLCAnLW1hJywgJzIwMCcsICctbWV0YWxfYmluZGluZycsICctaW1hZScsICc8aW5maWxlLm1hZT4nLCAnLW9tYWUnLCAnPG91dGZpbGUubWFlPic=

> <r_lp_tautomer_probability>
1

> <r_epik_Ionization_Penalty>
0.000700689

> <r_epik_Ionization_Penalty_Charging>
0.000627528

> <r_epik_Ionization_Penalty_Neutral>
7.31611e-05

> <r_epik_State_Penalty>
0.00039643

> <r_epik_Charging_Adjusted_Penalty>
0.00102396

> <i_epik_Tot_Q>
1

> <i_epik_Tot_abs_Q>
1

> <r_epik_Metal_State_Penalty>
-0

> <b_epik_Metal_Only>
0

> <s_lp_Force_Field>
OPLS_2005

> <r_lp_Energy>
38.9836

> <b_lp_Chiralities_Consistent>
1

> <s_lp_Variant>
AV-unprocessed.smi:835-1

> <Gold.Version>
5.8.1

> <Gold.Id.Protein>
6NUR|6NUR_protein|mol2

> <Gold.PLP.Fitness>
39.7662

> <Gold.PLP.PLP>
-31.0123

> <Gold.PLP.part.hbond>
-3.0106

> <Gold.PLP.part.metal>
0.0000

> <Gold.PLP.part.buried>
-3.0827

> <Gold.PLP.part.nonpolar>
-25.5175

> <Gold.PLP.part.repulsive>
0.0768

> <Gold.PLP.ligand.clash>
0.0000

> <Gold.PLP.ligand.torsion>
0.7565

> <Gold.PLP.Chemscore.Hbond>
3.0000

> <Gold.PLP.Chemscore.CHOScore>
0.0000

> <Gold.PLP.Chemscore.Metal>
0.0000

> <Gold.Chemscore.Hbonds>
donor molecule, donor type, donor heavy atom, donor atom, acceptor molecule, acceptor atom, score
      L1  H     5    24       P1  7948  0.78
      L1  H     8    25       P1  7948  0.95
      L1  H    12    41       P1 10747  1.00

> <Gold.PLP.Chemscore.Internal.Correction>
1.2668

> <Gold.Rescore>
     Score         DG    S(hbond)    S(metal)    S(lipo)     H(rot)  DE(clash)    DE(int)     intcor
     17.22     -18.96       2.61        0.00      67.43       1.22       0.00       1.74       ----

> <Gold.Chemscore.Fitness>
17.2220

> <Gold.Chemscore.DG>
-18.9630

> <Gold.Chemscore.ZeroCoef>
-5.4800

> <Gold.Chemscore.Hbond>
2.6095

> <Gold.Chemscore.Metal>
0.0000

> <Gold.Chemscore.Lipo>
67.4318

> <Gold.Chemscore.Internal_Hbond>
0.0000

> <Gold.Chemscore.DEClash>
0.0029

> <Gold.Chemscore.DEInternal>
1.7381

> <Gold.Chemscore.Rot>
1.2196

> <Gold.Chemscore.Internal.Correction>
   9.000000E+99

> <Gold.Chemscore.Hbonds>
donor molecule, donor type, donor heavy atom, donor atom, acceptor molecule, acceptor atom, score
      L1  H     5    24       P1  7948  0.12
      L1  H     8    25       P1  7948  0.22
      L1  H    12    41       P1 10747  0.98

> <Gold.Chemscore.Hbond.Weighted>
-8.7158

> <Gold.Chemscore.Metal.Weighted>
-0.0000

> <Gold.Chemscore.Lipo.Weighted>
-7.8895

> <Gold.Chemscore.Internal_Hbond.Weighted>
0.0000

> <Gold.Chemscore.DEClash.Weighted>
0.0029

> <Gold.Chemscore.DEInternal.Weighted>
1.7381

> <Gold.Chemscore.Rot.Weighted>
3.1223

> <Gold.Chemscore.Internal.Correction.Weighted>
   9.000000E+99

> <Gold.Protein.RotatedTorsions>
[ 6907 6896 6895 6894 ] final    6.74 input  -60.11 | X-H torsion
[ 7974 7965 7964 7962 ] final  138.33 input  175.53 | X-H torsion
[ 8008 7997 7996 7995 ] final -125.55 input   59.86 | X-H torsion
[ 10167 10162 10161 10158 ] final -169.46 input  -65.29 | X-H torsion
[ 10718 10713 10712 10709 ] final  -53.56 input   66.30 | X-H torsion
[ 10763 10752 10751 10750 ] final -103.86 input  -60.55 | X-H torsion
[ 11005 11000 10999 10996 ] final -156.06 input  -57.11 | X-H torsion

> <Gold.Protein.ActiveResidues>
 VAL166  LYS551  ARG553  GLY616  TRP617  ASP618  TYR619  PRO620  LYS621  CYS622 
 ASP623  PHE694  ASN695  SER759  ASP760  ASP761  ALA762  ILE779  LEU786  VAL792 
 PHE793  MET794  SER795  GLU796  ALA797  LYS798  CYS799  TRP800  GLU811  SER814 

> <Gold.Protein.RotatedAtoms>
  151.6786  135.0965  160.0211 H   0  0  0  0  0  0  0  0  0  0  0  0  # atno 6907 bound_to 6896
  152.3849  133.6593  159.6199 H   0  0  0  0  0  0  0  0  0  0  0  0  # atno 6908 bound_to 6896
  150.7777  133.8969  159.3371 H   0  0  0  0  0  0  0  0  0  0  0  0  # atno 6909 bound_to 6896
  144.9383  139.4962  143.5584 H   0  0  0  0  0  0  0  0  0  0  0  0  # atno 7974 bound_to 7965
  155.2152  140.0420  157.2939 H   0  0  0  0  0  0  0  0  0  0  0  0  # atno 8008 bound_to 7997
  154.5986  140.2446  155.7794 H   0  0  0  0  0  0  0  0  0  0  0  0  # atno 8009 bound_to 7997
  156.2306  140.2939  156.0188 H   0  0  0  0  0  0  0  0  0  0  0  0  # atno 8010 bound_to 7997
  139.5921  144.1190  152.1647 H   0  0  0  0  0  0  0  0  0  0  0  0  # atno 10167 bound_to 10162
  156.1525  130.4151  149.9922 H   0  0  0  0  0  0  0  0  0  0  0  0  # atno 10718 bound_to 10713
  154.7838  135.4807  153.9901 H   0  0  0  0  0  0  0  0  0  0  0  0  # atno 10763 bound_to 10752
  153.1531  135.6795  153.8860 H   0  0  0  0  0  0  0  0  0  0  0  0  # atno 10764 bound_to 10752
  153.8498  135.3168  155.3410 H   0  0  0  0  0  0  0  0  0  0  0  0  # atno 10765 bound_to 10752
  140.6796  134.4159  157.5227 H   0  0  0  0  0  0  0  0  0  0  0  0  # atno 11005 bound_to 11000
  146.3275  139.8383  142.8895 LP  0  0  0  0  0  0  0  0  0  0  0  0  # atno 17320 bound_to 7965
  145.3032  141.0200  143.3597 LP  0  0  0  0  0  0  0  0  0  0  0  0  # atno 17321 bound_to 7965
  140.0767  144.5735  150.7152 LP  0  0  0  0  0  0  0  0  0  0  0  0  # atno 17342 bound_to 10162
  140.7182  143.2564  151.4366 LP  0  0  0  0  0  0  0  0  0  0  0  0  # atno 17343 bound_to 10162
  156.7776  130.9209  151.3645 LP  0  0  0  0  0  0  0  0  0  0  0  0  # atno 17370 bound_to 10713
  157.6668  130.9015  149.9950 LP  0  0  0  0  0  0  0  0  0  0  0  0  # atno 17371 bound_to 10713
  139.8956  134.8680  156.2126 LP  0  0  0  0  0  0  0  0  0  0  0  0  # atno 17394 bound_to 11000
  141.0328  133.6979  156.1459 LP  0  0  0  0  0  0  0  0  0  0  0  0  # atno 17395 bound_to 11000

$$$$
