AV-unprocessed.smi:1055|AV-procd|sdf|4627|dock7
  -GOLD-   22720 3133D 1   1.00000     0.00000
 Structure written by MMmdl.
 51 52  0  0  0  0  0  0  0  0  2 V2000
  151.2807  140.8182  157.7929 C   0  0  0  0  0  0  0  0  0  0  0  0
  150.5750  141.8665  157.3373 C   0  0  0  0  0  0  0  0  0  0  0  0
  151.2436  143.1552  156.8963 C   0  0  0  0  0  0  0  0  0  0  0  0
  149.0581  141.8373  157.2374 C   0  0  0  0  0  0  0  0  0  0  0  0
  148.6033  141.8089  155.8251 N   0  3  2  0  0  0  0  0  0  0  0  0
  147.1421  141.5724  155.7090 C   0  0  0  0  0  0  0  0  0  0  0  0
  146.6717  141.6989  154.2482 C   0  0  0  0  0  0  0  0  0  0  0  0
  147.4513  140.7643  153.3070 C   0  0  2  0  0  0  0  0  0  0  0  0
  147.0604  139.3727  153.5307 N   0  0  0  0  0  0  0  0  0  0  0  0
  146.8294  138.4680  152.5683 C   0  0  0  0  0  0  0  0  0  0  0  0
  146.9400  138.7129  151.3674 O   0  0  0  0  0  0  0  0  0  0  0  0
  146.4486  137.2896  153.0900 N   0  0  0  0  0  0  0  0  0  0  0  0
  146.1410  136.0834  152.4051 C   0  0  0  0  0  0  0  0  0  0  0  0
  146.4815  134.8637  153.0202 C   0  0  0  0  0  0  0  0  0  0  0  0
  146.2052  133.6544  152.3549 C   0  0  0  0  0  0  0  0  0  0  0  0
  145.5994  133.6918  151.0745 C   0  0  0  0  0  0  0  0  0  0  0  0
  145.2991  132.5064  150.3651 N   0  0  0  0  0  0  0  0  0  0  0  0
  145.8016  131.2217  150.8360 C   0  0  0  0  0  0  0  0  0  0  0  0
  144.5075  132.5738  149.1408 C   0  0  0  0  0  0  0  0  0  0  0  0
  145.2880  134.8692  150.4788 N   0  0  0  0  0  0  0  0  0  0  0  0
  145.5517  136.0263  151.1208 C   0  0  0  0  0  0  0  0  0  0  0  0
  148.9662  140.9773  153.5005 C   0  0  0  0  0  0  0  0  0  0  0  0
  149.3816  140.8667  154.9779 C   0  0  0  0  0  0  0  0  0  0  0  0
  152.3585  140.8545  157.8605 H   0  0  0  0  0  0  0  0  0  0  0  0
  150.7933  139.9061  158.1052 H   0  0  0  0  0  0  0  0  0  0  0  0
  150.8754  143.9942  157.4873 H   0  0  0  0  0  0  0  0  0  0  0  0
  151.0342  143.3573  155.8454 H   0  0  0  0  0  0  0  0  0  0  0  0
  152.3259  143.1036  157.0196 H   0  0  0  0  0  0  0  0  0  0  0  0
  148.6498  140.9798  157.7750 H   0  0  0  0  0  0  0  0  0  0  0  0
  148.6788  142.7299  157.7366 H   0  0  0  0  0  0  0  0  0  0  0  0
  146.8986  140.5850  156.1045 H   0  0  0  0  0  0  0  0  0  0  0  0
  146.6037  142.2981  156.3201 H   0  0  0  0  0  0  0  0  0  0  0  0
  145.6015  141.4997  154.1794 H   0  0  0  0  0  0  0  0  0  0  0  0
  146.8084  142.7302  153.9200 H   0  0  0  0  0  0  0  0  0  0  0  0
  147.1886  141.0238  152.2796 H   0  0  0  0  0  0  0  0  0  0  0  0
  146.9346  139.0827  154.4894 H   0  0  0  0  0  0  0  0  0  0  0  0
  146.3100  137.2668  154.0897 H   0  0  0  0  0  0  0  0  0  0  0  0
  146.9455  134.8501  153.9958 H   0  0  0  0  0  0  0  0  0  0  0  0
  146.4632  132.7254  152.8401 H   0  0  0  0  0  0  0  0  0  0  0  0
  146.8913  131.2266  150.8735 H   0  0  0  0  0  0  0  0  0  0  0  0
  145.4957  130.4097  150.1760 H   0  0  0  0  0  0  0  0  0  0  0  0
  145.4181  131.0015  151.8326 H   0  0  0  0  0  0  0  0  0  0  0  0
  145.0218  133.1684  148.3851 H   0  0  0  0  0  0  0  0  0  0  0  0
  143.5355  133.0280  149.3364 H   0  0  0  0  0  0  0  0  0  0  0  0
  144.3331  131.5820  148.7236 H   0  0  0  0  0  0  0  0  0  0  0  0
  145.2980  136.9175  150.5681 H   0  0  0  0  0  0  0  0  0  0  0  0
  149.5366  140.2696  152.8979 H   0  0  0  0  0  0  0  0  0  0  0  0
  149.2357  141.9678  153.1312 H   0  0  0  0  0  0  0  0  0  0  0  0
  150.4476  141.0793  155.0605 H   0  0  0  0  0  0  0  0  0  0  0  0
  149.2372  139.8462  155.3362 H   0  0  0  0  0  0  0  0  0  0  0  0
  148.7678  142.7357  155.4586 H   0  0  0  0  0  0  0  0  0  0  0  0
  1  2  2  0  0  0  0
  1 24  1  0  0  0  0
  1 25  1  0  0  0  0
  2  3  1  0  0  0  0
  2  4  1  0  0  0  0
  3 26  1  0  0  0  0
  3 27  1  0  0  0  0
  3 28  1  0  0  0  0
  4  5  1  0  0  0  0
  4 29  1  0  0  0  0
  4 30  1  0  0  0  0
  5 23  1  0  0  0  0
  5  6  1  0  0  0  0
  5 51  1  0  0  0  0
  6  7  1  0  0  0  0
  6 31  1  0  0  0  0
  6 32  1  0  0  0  0
  7  8  1  0  0  0  0
  7 33  1  0  0  0  0
  7 34  1  0  0  0  0
  8  9  1  0  0  0  0
  8 22  1  0  0  0  0
  8 35  1  0  0  0  0
  9 10  1  0  0  0  0
  9 36  1  0  0  0  0
 10 11  2  0  0  0  0
 10 12  1  0  0  0  0
 12 13  1  0  0  0  0
 12 37  1  0  0  0  0
 13 21  1  0  0  0  0
 13 14  2  0  0  0  0
 14 15  1  0  0  0  0
 14 38  1  0  0  0  0
 15 16  2  0  0  0  0
 15 39  1  0  0  0  0
 16 17  1  0  0  0  0
 16 20  1  0  0  0  0
 17 18  1  0  0  0  0
 17 19  1  0  0  0  0
 18 40  1  0  0  0  0
 18 41  1  0  0  0  0
 18 42  1  0  0  0  0
 19 43  1  0  0  0  0
 19 44  1  0  0  0  0
 19 45  1  0  0  0  0
 20 21  2  0  0  0  0
 21 46  1  0  0  0  0
 22 23  1  0  0  0  0
 22 47  1  0  0  0  0
 22 48  1  0  0  0  0
 23 49  1  0  0  0  0
 23 50  1  0  0  0  0
M  CHG  1   5   1
M  END
> <s_m_source_file>
AV-unprocessed.smi

> <i_m_source_file_index>
1055

> <i_lp_mmshare_version>
43012

> <i_f3d_flags>
0

> <s_epik_input>
W0NIMl09QyhbQ0gzXSlbQ0gyXU4xW0NIMl1bQ0gyXVtDSF0oW0NIMl1bQ0gyXTEpW05IXUMoPU8pW05IXWMyW2NIXVtjSF1jKE4oW0NIM10pW0NIM10pbltjSF0y

> <s_epik_cmdline>
J2VwaWtfcHl0aG9uJywgJy1waCcsICc3LjAnLCAnLXRuJywgJzgnLCAnLW1hJywgJzIwMCcsICctbWV0YWxfYmluZGluZycsICctaW1hZScsICc8aW5maWxlLm1hZT4nLCAnLW9tYWUnLCAnPG91dGZpbGUubWFlPic=

> <r_lp_tautomer_probability>
1

> <r_epik_Ionization_Penalty>
0.534133

> <r_epik_Ionization_Penalty_Charging>
0.0193505

> <r_epik_Ionization_Penalty_Neutral>
0.514782

> <r_epik_State_Penalty>
0.557749

> <r_epik_Charging_Adjusted_Penalty>
0.5771

> <i_epik_Tot_Q>
1

> <i_epik_Tot_abs_Q>
1

> <r_epik_Metal_State_Penalty>
0.306227

> <b_epik_Metal_Only>
0

> <s_lp_Force_Field>
OPLS_2005

> <r_lp_Energy>
19.9376

> <b_lp_Chiralities_Consistent>
1

> <s_lp_Variant>
AV-unprocessed.smi:1055-4

> <Gold.Version>
5.8.1

> <Gold.Id.Protein>
6NUR|6NUR_protein|mol2

> <Gold.PLP.Fitness>
47.3262

> <Gold.PLP.PLP>
-37.8488

> <Gold.PLP.part.hbond>
-2.2787

> <Gold.PLP.part.metal>
0.0000

> <Gold.PLP.part.buried>
1.5814

> <Gold.PLP.part.nonpolar>
-36.8296

> <Gold.PLP.part.repulsive>
1.4898

> <Gold.PLP.ligand.clash>
0.0000

> <Gold.PLP.ligand.torsion>
0.6986

> <Gold.PLP.Chemscore.Hbond>
2.6012

> <Gold.PLP.Chemscore.CHOScore>
1.0000

> <Gold.PLP.Chemscore.Metal>
0.0000

> <Gold.Chemscore.Hbonds>
donor molecule, donor type, donor heavy atom, donor atom, acceptor molecule, acceptor atom, score
      L1  H     5    51       P1  8028  2.00
      P1  H  7954  7966       L1    11  0.86
      L1  C    21    46       P1 10171  1.00

> <Gold.PLP.Chemscore.Internal.Correction>
0.0708

> <Gold.Rescore>
     Score         DG    S(hbond)    S(metal)    S(lipo)     H(rot)  DE(clash)    DE(int)     intcor
     14.06     -18.87       1.56        0.00      98.98       1.33       3.34       1.46       ----

> <Gold.Chemscore.Fitness>
14.0611

> <Gold.Chemscore.DG>
-18.8677

> <Gold.Chemscore.ZeroCoef>
-5.4800

> <Gold.Chemscore.Hbond>
1.5578

> <Gold.Chemscore.Metal>
0.0000

> <Gold.Chemscore.Lipo>
98.9827

> <Gold.Chemscore.Internal_Hbond>
0.0000

> <Gold.Chemscore.DEClash>
3.3439

> <Gold.Chemscore.DEInternal>
1.4627

> <Gold.Chemscore.Rot>
1.3266

> <Gold.Chemscore.Internal.Correction>
   9.000000E+99

> <Gold.Chemscore.Hbonds>
donor molecule, donor type, donor heavy atom, donor atom, acceptor molecule, acceptor atom, score
      L1  H     5    51       P1  8028  0.94
      P1  H  7954  7966       L1    11  0.81

> <Gold.Chemscore.Hbond.Weighted>
-5.2029

> <Gold.Chemscore.Metal.Weighted>
-0.0000

> <Gold.Chemscore.Lipo.Weighted>
-11.5810

> <Gold.Chemscore.Internal_Hbond.Weighted>
0.0000

> <Gold.Chemscore.DEClash.Weighted>
3.3439

> <Gold.Chemscore.DEInternal.Weighted>
1.4627

> <Gold.Chemscore.Rot.Weighted>
3.3962

> <Gold.Chemscore.Internal.Correction.Weighted>
   9.000000E+99

> <Gold.Protein.RotatedTorsions>
[ 6907 6896 6895 6894 ] final   56.53 input  -60.11 | X-H torsion
[ 7974 7965 7964 7962 ] final    8.72 input  175.53 | X-H torsion
[ 8008 7997 7996 7995 ] final   81.99 input   59.86 | X-H torsion
[ 10167 10162 10161 10158 ] final  122.63 input  -65.29 | X-H torsion
[ 10718 10713 10712 10709 ] final  -86.08 input   66.30 | X-H torsion
[ 10763 10752 10751 10750 ] final  105.97 input  -60.55 | X-H torsion
[ 11005 11000 10999 10996 ] final  -17.75 input  -57.11 | X-H torsion

> <Gold.Protein.ActiveResidues>
 VAL166  LYS551  ARG553  GLY616  TRP617  ASP618  TYR619  PRO620  LYS621  CYS622 
 ASP623  PHE694  ASN695  SER759  ASP760  ASP761  ALA762  ILE779  LEU786  VAL792 
 PHE793  MET794  SER795  GLU796  ALA797  LYS798  CYS799  TRP800  GLU811  SER814 

> <Gold.Protein.RotatedAtoms>
  152.3645  134.6824  160.0196 H   0  0  0  0  0  0  0  0  0  0  0  0  # atno 6907 bound_to 6896
  151.7137  133.3307  159.3305 H   0  0  0  0  0  0  0  0  0  0  0  0  # atno 6908 bound_to 6896
  150.7628  134.6444  159.6299 H   0  0  0  0  0  0  0  0  0  0  0  0  # atno 6909 bound_to 6896
  146.2413  139.9890  142.8428 H   0  0  0  0  0  0  0  0  0  0  0  0  # atno 7974 bound_to 7965
  155.9046  140.3431  155.6052 H   0  0  0  0  0  0  0  0  0  0  0  0  # atno 8008 bound_to 7997
  155.7460  140.0814  157.2242 H   0  0  0  0  0  0  0  0  0  0  0  0  # atno 8009 bound_to 7997
  154.4048  140.1562  156.2657 H   0  0  0  0  0  0  0  0  0  0  0  0  # atno 8010 bound_to 7997
  139.5847  144.7001  151.3438 H   0  0  0  0  0  0  0  0  0  0  0  0  # atno 10167 bound_to 10162
  155.9992  130.4752  150.4659 H   0  0  0  0  0  0  0  0  0  0  0  0  # atno 10718 bound_to 10713
  153.3866  135.3892  155.1894 H   0  0  0  0  0  0  0  0  0  0  0  0  # atno 10763 bound_to 10752
  154.8714  135.3738  154.4790 H   0  0  0  0  0  0  0  0  0  0  0  0  # atno 10764 bound_to 10752
  153.5272  135.7086  153.5763 H   0  0  0  0  0  0  0  0  0  0  0  0  # atno 10765 bound_to 10752
  140.8200  133.8076  155.9649 H   0  0  0  0  0  0  0  0  0  0  0  0  # atno 11005 bound_to 11000
  145.1521  140.9628  143.4427 LP  0  0  0  0  0  0  0  0  0  0  0  0  # atno 17320 bound_to 7965
  145.0196  139.3436  143.6079 LP  0  0  0  0  0  0  0  0  0  0  0  0  # atno 17321 bound_to 7965
  140.7121  143.7364  150.7586 LP  0  0  0  0  0  0  0  0  0  0  0  0  # atno 17342 bound_to 10162
  140.0905  143.4882  152.2481 LP  0  0  0  0  0  0  0  0  0  0  0  0  # atno 17343 bound_to 10162
  157.2679  131.0581  151.2278 LP  0  0  0  0  0  0  0  0  0  0  0  0  # atno 17370 bound_to 10713
  157.3369  130.7013  149.6358 LP  0  0  0  0  0  0  0  0  0  0  0  0  # atno 17371 bound_to 10713
  140.9109  134.2262  157.4986 LP  0  0  0  0  0  0  0  0  0  0  0  0  # atno 17394 bound_to 11000
  139.8709  134.9749  156.4865 LP  0  0  0  0  0  0  0  0  0  0  0  0  # atno 17395 bound_to 11000

$$$$
