AV-unprocessed.smi:1382|AV-procd|sdf|5620|dock4
  -GOLD-   22720 5233D 1   1.00000     0.00000
 Structure written by MMmdl.
 44 45  0  0  0  0  0  0  0  0  1 V2000
  147.1047  128.5516  151.5829 C   0  0  0  0  0  0  0  0  0  0  0  0
  147.9234  128.4135  152.8732 C   0  0  0  0  0  0  0  0  0  0  0  0
  147.8596  129.6521  153.7803 C   0  0  0  0  0  0  0  0  0  0  0  0
  148.9091  130.7242  153.4326 C   0  0  0  0  0  0  0  0  0  0  0  0
  149.1720  131.6201  154.5415 N   0  0  0  0  0  0  0  0  0  0  0  0
  149.1345  133.0137  154.4350 C   0  0  0  0  0  0  0  0  0  0  0  0
  148.8139  133.5643  153.2025 N   0  0  0  0  0  0  0  0  0  0  0  0
  149.3970  133.8230  155.5045 C   0  0  0  0  0  0  0  0  0  0  0  0
  149.4018  135.2246  155.3831 N   0  0  0  0  0  0  0  0  0  0  0  0
  148.1297  135.8687  155.0436 C   0  0  0  0  0  0  0  0  0  0  0  0
  150.5054  135.9846  155.6039 C   0  0  0  0  0  0  0  0  0  0  0  0
  151.5630  135.4884  155.9970 O   0  0  0  0  0  0  0  0  0  0  0  0
  150.4600  137.5059  155.3402 C   0  0  2  0  0  0  0  0  0  0  0  0
  151.2609  137.9558  154.1026 C   0  0  0  0  0  0  0  0  0  0  0  0
  152.4884  138.6187  154.6924 C   0  0  0  0  0  0  0  0  0  0  0  0
  151.9312  139.1897  155.9875 C   0  0  0  0  0  0  0  0  0  0  0  0
  151.0674  138.1639  156.4516 O   0  0  0  0  0  0  0  0  0  0  0  0
  149.7775  133.2467  156.8017 C   0  0  0  0  0  0  0  0  0  0  0  0
  150.0671  133.8827  157.8141 O   0  0  0  0  0  0  0  0  0  0  0  0
  149.8158  131.8551  156.8355 N   0  0  0  0  0  0  0  0  0  0  0  0
  149.5376  131.0111  155.7663 C   0  0  0  0  0  0  0  0  0  0  0  0
  149.6275  129.7927  155.9207 O   0  0  0  0  0  0  0  0  0  0  0  0
  150.0791  131.4223  157.7088 H   0  0  0  0  0  0  0  0  0  0  0  0
  147.2335  127.6737  150.9492 H   0  0  0  0  0  0  0  0  0  0  0  0
  147.4189  129.4234  151.0084 H   0  0  0  0  0  0  0  0  0  0  0  0
  146.0395  128.6510  151.7912 H   0  0  0  0  0  0  0  0  0  0  0  0
  147.5964  127.5322  153.4260 H   0  0  0  0  0  0  0  0  0  0  0  0
  148.9643  128.2316  152.6033 H   0  0  0  0  0  0  0  0  0  0  0  0
  146.8641  130.0896  153.6970 H   0  0  0  0  0  0  0  0  0  0  0  0
  147.9684  129.3480  154.8221 H   0  0  0  0  0  0  0  0  0  0  0  0
  149.8650  130.2839  153.1524 H   0  0  0  0  0  0  0  0  0  0  0  0
  148.6135  131.3241  152.5703 H   0  0  0  0  0  0  0  0  0  0  0  0
  148.6115  132.9873  152.3985 H   0  0  0  0  0  0  0  0  0  0  0  0
  148.7469  134.5627  153.0654 H   0  0  0  0  0  0  0  0  0  0  0  0
  147.8095  136.5388  155.8425 H   0  0  0  0  0  0  0  0  0  0  0  0
  147.3356  135.1374  154.8862 H   0  0  0  0  0  0  0  0  0  0  0  0
  148.2237  136.4485  154.1245 H   0  0  0  0  0  0  0  0  0  0  0  0
  149.4366  137.8629  155.2246 H   0  0  0  0  0  0  0  0  0  0  0  0
  151.5165  137.1516  153.4113 H   0  0  0  0  0  0  0  0  0  0  0  0
  150.6812  138.6889  153.5401 H   0  0  0  0  0  0  0  0  0  0  0  0
  153.2529  137.8716  154.9096 H   0  0  0  0  0  0  0  0  0  0  0  0
  152.9223  139.3770  154.0406 H   0  0  0  0  0  0  0  0  0  0  0  0
  152.7076  139.4219  156.7167 H   0  0  0  0  0  0  0  0  0  0  0  0
  151.3524  140.0948  155.7970 H   0  0  0  0  0  0  0  0  0  0  0  0
  1  2  1  0  0  0  0
  1 24  1  0  0  0  0
  1 25  1  0  0  0  0
  1 26  1  0  0  0  0
  2  3  1  0  0  0  0
  2 27  1  0  0  0  0
  2 28  1  0  0  0  0
  3  4  1  0  0  0  0
  3 29  1  0  0  0  0
  3 30  1  0  0  0  0
  4  5  1  0  0  0  0
  4 31  1  0  0  0  0
  4 32  1  0  0  0  0
  5 21  1  0  0  0  0
  5  6  1  0  0  0  0
  6  7  1  0  0  0  0
  6  8  2  0  0  0  0
  7 33  1  0  0  0  0
  7 34  1  0  0  0  0
  8  9  1  0  0  0  0
  8 18  1  0  0  0  0
  9 10  1  0  0  0  0
  9 11  1  0  0  0  0
 10 35  1  0  0  0  0
 10 36  1  0  0  0  0
 10 37  1  0  0  0  0
 11 12  2  0  0  0  0
 11 13  1  0  0  0  0
 13 17  1  0  0  0  0
 13 14  1  0  0  0  0
 13 38  1  0  0  0  0
 14 15  1  0  0  0  0
 14 39  1  0  0  0  0
 14 40  1  0  0  0  0
 15 16  1  0  0  0  0
 15 41  1  0  0  0  0
 15 42  1  0  0  0  0
 16 17  1  0  0  0  0
 16 43  1  0  0  0  0
 16 44  1  0  0  0  0
 18 19  2  0  0  0  0
 18 20  1  0  0  0  0
 20 23  1  0  0  0  0
 20 21  1  0  0  0  0
 21 22  2  0  0  0  0
M  END
> <s_m_source_file>
AV-unprocessed.smi

> <i_m_source_file_index>
1382

> <i_lp_mmshare_version>
43012

> <i_f3d_flags>
0

> <s_epik_input>
W0NIM11bQ0gyXVtDSDJdW0NIMl1uMWMoW05IMl0pYyhjKD1PKVtuSF1jMT1PKU4oW0NIM10pQyg9TylbQ0BASF0yW0NIMl1bQ0gyXVtDSDJdTzI=

> <s_epik_cmdline>
J2VwaWtfcHl0aG9uJywgJy1waCcsICc3LjAnLCAnLXRuJywgJzgnLCAnLW1hJywgJzIwMCcsICctbWV0YWxfYmluZGluZycsICctaW1hZScsICc8aW5maWxlLm1hZT4nLCAnLW9tYWUnLCAnPG91dGZpbGUubWFlPic=

> <r_lp_tautomer_probability>
1

> <r_epik_Ionization_Penalty>
1.19634e-05

> <r_epik_Ionization_Penalty_Charging>
6.01811e-06

> <r_epik_Ionization_Penalty_Neutral>
5.94533e-06

> <r_epik_State_Penalty>
-0

> <r_epik_Charging_Adjusted_Penalty>
6.01811e-06

> <i_epik_Tot_Q>
0

> <i_epik_Tot_abs_Q>
0

> <r_epik_Metal_State_Penalty>
-0

> <b_epik_Metal_Only>
0

> <s_epik_Chemistry_Notes>
This compound has an imine and may undergo hydrolysis.

> <s_lp_Force_Field>
OPLS_2005

> <r_lp_Energy>
42.2822

> <b_lp_Chiralities_Consistent>
1

> <s_lp_Variant>
AV-unprocessed.smi:1382-1

> <Gold.Version>
5.8.1

> <Gold.Id.Protein>
6NUR|6NUR_protein|mol2

> <Gold.PLP.Fitness>
39.5176

> <Gold.PLP.PLP>
-32.5514

> <Gold.PLP.part.hbond>
-3.0000

> <Gold.PLP.part.metal>
0.0000

> <Gold.PLP.part.buried>
-1.8209

> <Gold.PLP.part.nonpolar>
-27.3719

> <Gold.PLP.part.repulsive>
0.0668

> <Gold.PLP.ligand.clash>
0.0000

> <Gold.PLP.ligand.torsion>
1.7587

> <Gold.PLP.Chemscore.Hbond>
2.7280

> <Gold.PLP.Chemscore.CHOScore>
0.0000

> <Gold.PLP.Chemscore.Metal>
0.0000

> <Gold.Chemscore.Hbonds>
donor molecule, donor type, donor heavy atom, donor atom, acceptor molecule, acceptor atom, score
      L1  H     7    34       P1  7948  0.83
      P1  H  6896  6907       L1    19  0.90
      P1  H 10752 10765       L1    12  1.00

> <Gold.PLP.Chemscore.Internal.Correction>
2.2995

> <Gold.Rescore>
     Score         DG    S(hbond)    S(metal)    S(lipo)     H(rot)  DE(clash)    DE(int)     intcor
     12.52     -15.84       2.22        0.00      62.11       1.69       0.13       3.19       ----

> <Gold.Chemscore.Fitness>
12.5183

> <Gold.Chemscore.DG>
-15.8396

> <Gold.Chemscore.ZeroCoef>
-5.4800

> <Gold.Chemscore.Hbond>
2.2246

> <Gold.Chemscore.Metal>
0.0000

> <Gold.Chemscore.Lipo>
62.1085

> <Gold.Chemscore.Internal_Hbond>
0.0000

> <Gold.Chemscore.DEClash>
0.1303

> <Gold.Chemscore.DEInternal>
3.1910

> <Gold.Chemscore.Rot>
1.6942

> <Gold.Chemscore.Internal.Correction>
   9.000000E+99

> <Gold.Chemscore.Hbonds>
donor molecule, donor type, donor heavy atom, donor atom, acceptor molecule, acceptor atom, score
      L1  H     7    34       P1  7948  0.13
      P1  H  6896  6907       L1    19  0.88
      P1  H 10752 10765       L1    12  0.98

> <Gold.Chemscore.Hbond.Weighted>
-7.4302

> <Gold.Chemscore.Metal.Weighted>
-0.0000

> <Gold.Chemscore.Lipo.Weighted>
-7.2667

> <Gold.Chemscore.Internal_Hbond.Weighted>
0.0000

> <Gold.Chemscore.DEClash.Weighted>
0.1303

> <Gold.Chemscore.DEInternal.Weighted>
3.1910

> <Gold.Chemscore.Rot.Weighted>
4.3372

> <Gold.Chemscore.Internal.Correction.Weighted>
   9.000000E+99

> <Gold.Protein.RotatedTorsions>
[ 6907 6896 6895 6894 ] final -132.18 input  -60.11 | X-H torsion
[ 7974 7965 7964 7962 ] final  -19.33 input  175.53 | X-H torsion
[ 8008 7997 7996 7995 ] final   39.77 input   59.86 | X-H torsion
[ 10167 10162 10161 10158 ] final   86.96 input  -65.29 | X-H torsion
[ 10718 10713 10712 10709 ] final  173.19 input   66.30 | X-H torsion
[ 10763 10752 10751 10750 ] final -144.30 input  -60.55 | X-H torsion
[ 11005 11000 10999 10996 ] final   51.47 input  -57.11 | X-H torsion

> <Gold.Protein.ActiveResidues>
 VAL166  LYS551  ARG553  GLY616  TRP617  ASP618  TYR619  PRO620  LYS621  CYS622 
 ASP623  PHE694  ASN695  SER759  ASP760  ASP761  ALA762  ILE779  LEU786  VAL792 
 PHE793  MET794  SER795  GLU796  ALA797  LYS798  CYS799  TRP800  GLU811  SER814 

> <Gold.Protein.RotatedAtoms>
  150.9594  133.6461  159.2756 H   0  0  0  0  0  0  0  0  0  0  0  0  # atno 6907 bound_to 6896
  151.3789  135.0935  159.9499 H   0  0  0  0  0  0  0  0  0  0  0  0  # atno 6908 bound_to 6896
  152.5142  133.9133  159.7553 H   0  0  0  0  0  0  0  0  0  0  0  0  # atno 6909 bound_to 6896
  146.1847  140.4047  142.8481 H   0  0  0  0  0  0  0  0  0  0  0  0  # atno 7974 bound_to 7965
  155.2422  140.3346  155.4291 H   0  0  0  0  0  0  0  0  0  0  0  0  # atno 8008 bound_to 7997
  156.2251  140.1826  156.7427 H   0  0  0  0  0  0  0  0  0  0  0  0  # atno 8009 bound_to 7997
  154.5886  140.0641  156.9192 H   0  0  0  0  0  0  0  0  0  0  0  0  # atno 8010 bound_to 7997
  139.8822  144.6433  150.8830 H   0  0  0  0  0  0  0  0  0  0  0  0  # atno 10167 bound_to 10162
  156.9679  131.0081  151.2912 H   0  0  0  0  0  0  0  0  0  0  0  0  # atno 10718 bound_to 10713
  154.8434  135.3444  154.6324 H   0  0  0  0  0  0  0  0  0  0  0  0  # atno 10763 bound_to 10752
  153.6934  135.6973  153.5088 H   0  0  0  0  0  0  0  0  0  0  0  0  # atno 10764 bound_to 10752
  153.2577  135.4333  155.0818 H   0  0  0  0  0  0  0  0  0  0  0  0  # atno 10765 bound_to 10752
  140.0930  134.5184  155.8834 H   0  0  0  0  0  0  0  0  0  0  0  0  # atno 11005 bound_to 11000
  144.8375  140.6806  143.6250 LP  0  0  0  0  0  0  0  0  0  0  0  0  # atno 17320 bound_to 7965
  145.3974  139.1604  143.4196 LP  0  0  0  0  0  0  0  0  0  0  0  0  # atno 17321 bound_to 7965
  140.7742  143.3576  151.1890 LP  0  0  0  0  0  0  0  0  0  0  0  0  # atno 17342 bound_to 10162
  139.7185  143.9261  152.2976 LP  0  0  0  0  0  0  0  0  0  0  0  0  # atno 17343 bound_to 10162
  157.5613  130.8248  149.8269 LP  0  0  0  0  0  0  0  0  0  0  0  0  # atno 17370 bound_to 10713
  156.0295  130.3769  150.1728 LP  0  0  0  0  0  0  0  0  0  0  0  0  # atno 17371 bound_to 10713
  141.2083  133.6673  156.6366 LP  0  0  0  0  0  0  0  0  0  0  0  0  # atno 17394 bound_to 11000
  140.3326  134.7916  157.4337 LP  0  0  0  0  0  0  0  0  0  0  0  0  # atno 17395 bound_to 11000

$$$$
