AV-unprocessed.smi:3112|AV-procd|sdf|11844|dock2
  -GOLD-   2272017223D 1   1.00000     0.00000
 Structure written by MMmdl.
 36 36  0  0  0  0  0  0  0  0  1 V2000
  147.6364  141.2541  153.6579 C   0  0  0  0  0  0  0  0  0  0  0  0
  148.0777  141.4217  155.1185 C   0  0  0  0  0  0  0  0  0  0  0  0
  149.6087  141.4718  155.2924 C   0  0  2  0  0  0  0  0  0  0  0  0
  150.1465  140.2234  154.9069 O   0  0  0  0  0  0  0  0  0  0  0  0
  150.0419  141.7324  156.7450 C   0  0  0  0  0  0  0  0  0  0  0  0
  151.4989  141.6931  156.8822 N   0  0  0  0  0  0  0  0  0  0  0  0
  151.9870  141.5456  158.2568 C   0  0  2  0  0  0  0  0  0  0  0  0
  151.1452  140.4572  158.9495 C   0  0  0  0  0  0  0  0  0  0  0  0
  151.9572  142.8979  159.0310 C   0  0  2  0  0  0  0  0  0  0  0  0
  152.5617  144.0868  158.2610 C   0  0  0  0  0  0  0  0  0  0  0  0
  152.5970  142.7876  160.3366 N   0  0  0  0  0  0  0  0  0  0  0  0
  152.6194  143.7160  161.3572 C   0  0  0  0  0  0  0  0  0  0  0  0
  153.3330  143.1744  162.3874 C   0  0  0  0  0  0  0  0  0  0  0  0
  153.7145  141.8944  161.8978 C   0  0  0  0  0  0  0  0  0  0  0  0
  153.2732  141.6649  160.6720 N   0  0  0  0  0  0  0  0  0  0  0  0
  146.5490  141.2523  153.5801 H   0  0  0  0  0  0  0  0  0  0  0  0
  147.9980  140.3164  153.2358 H   0  0  0  0  0  0  0  0  0  0  0  0
  148.0117  142.0688  153.0377 H   0  0  0  0  0  0  0  0  0  0  0  0
  147.6373  142.3437  155.4992 H   0  0  0  0  0  0  0  0  0  0  0  0
  147.6595  140.6160  155.7233 H   0  0  0  0  0  0  0  0  0  0  0  0
  150.0354  142.2379  154.6434 H   0  0  0  0  0  0  0  0  0  0  0  0
  150.1496  139.6529  155.6603 H   0  0  0  0  0  0  0  0  0  0  0  0
  149.6621  142.7014  157.0720 H   0  0  0  0  0  0  0  0  0  0  0  0
  149.5777  140.9927  157.3942 H   0  0  0  0  0  0  0  0  0  0  0  0
  151.8871  142.5398  156.4790 H   0  0  0  0  0  0  0  0  0  0  0  0
  153.0140  141.1774  158.2375 H   0  0  0  0  0  0  0  0  0  0  0  0
  151.5357  140.2061  159.9357 H   0  0  0  0  0  0  0  0  0  0  0  0
  151.1437  139.5346  158.3679 H   0  0  0  0  0  0  0  0  0  0  0  0
  150.1089  140.7743  159.0716 H   0  0  0  0  0  0  0  0  0  0  0  0
  150.9114  143.1427  159.2245 H   0  0  0  0  0  0  0  0  0  0  0  0
  151.9438  144.3622  157.4070 H   0  0  0  0  0  0  0  0  0  0  0  0
  153.5657  143.8627  157.8992 H   0  0  0  0  0  0  0  0  0  0  0  0
  152.6276  144.9711  158.8958 H   0  0  0  0  0  0  0  0  0  0  0  0
  152.1294  144.6742  161.2669 H   0  0  0  0  0  0  0  0  0  0  0  0
  153.5500  143.6239  163.3450 H   0  0  0  0  0  0  0  0  0  0  0  0
  154.2948  141.1300  162.3933 H   0  0  0  0  0  0  0  0  0  0  0  0
  1  2  1  0  0  0  0
  1 16  1  0  0  0  0
  1 17  1  0  0  0  0
  1 18  1  0  0  0  0
  2  3  1  0  0  0  0
  2 19  1  0  0  0  0
  2 20  1  0  0  0  0
  3  4  1  0  0  0  0
  3  5  1  0  0  0  0
  3 21  1  0  0  0  0
  4 22  1  0  0  0  0
  5  6  1  0  0  0  0
  5 23  1  0  0  0  0
  5 24  1  0  0  0  0
  6  7  1  0  0  0  0
  6 25  1  0  0  0  0
  7  8  1  0  0  0  0
  7  9  1  0  0  0  0
  7 26  1  0  0  0  0
  8 27  1  0  0  0  0
  8 28  1  0  0  0  0
  8 29  1  0  0  0  0
  9 10  1  0  0  0  0
  9 11  1  0  0  0  0
  9 30  1  0  0  0  0
 10 31  1  0  0  0  0
 10 32  1  0  0  0  0
 10 33  1  0  0  0  0
 11 15  1  0  0  0  0
 11 12  1  0  0  0  0
 12 13  2  0  0  0  0
 12 34  1  0  0  0  0
 13 14  1  0  0  0  0
 13 35  1  0  0  0  0
 14 15  2  0  0  0  0
 14 36  1  0  0  0  0
M  END
> <s_m_source_file>
AV-unprocessed.smi

> <i_m_source_file_index>
3112

> <i_lp_mmshare_version>
43012

> <i_f3d_flags>
0

> <s_epik_input>
W0NIM11bQ0gyXVtDQEhdKFtPSF0pW0NIMl1bTkhdW0NASF0oW0NIM10pW0NASF0oW0NIM10pbjFbY0hdW2NIXVtjSF1uMQ==

> <s_epik_cmdline>
J2VwaWtfcHl0aG9uJywgJy1waCcsICc3LjAnLCAnLXRuJywgJzgnLCAnLW1hJywgJzIwMCcsICctbWV0YWxfYmluZGluZycsICctaW1hZScsICc8aW5maWxlLm1hZT4nLCAnLW9tYWUnLCAnPG91dGZpbGUubWFlPic=

> <r_lp_tautomer_probability>
1

> <r_epik_Ionization_Penalty>
2.16876

> <r_epik_Ionization_Penalty_Charging>
0

> <r_epik_Ionization_Penalty_Neutral>
2.16876

> <r_epik_State_Penalty>
2.30854

> <r_epik_Charging_Adjusted_Penalty>
2.30854

> <i_epik_Tot_Q>
0

> <i_epik_Tot_abs_Q>
0

> <r_epik_Metal_State_Penalty>
2.3073

> <b_epik_Metal_Only>
0

> <s_lp_Force_Field>
OPLS_2005

> <r_lp_Energy>
16.1769

> <b_lp_Chiralities_Consistent>
1

> <s_lp_Variant>
AV-unprocessed.smi:3112-9

> <Gold.Version>
5.8.1

> <Gold.Id.Protein>
6NUR|6NUR_protein|mol2

> <Gold.PLP.Fitness>
40.9038

> <Gold.PLP.PLP>
-38.5229

> <Gold.PLP.part.hbond>
-1.0000

> <Gold.PLP.part.metal>
0.0000

> <Gold.PLP.part.buried>
-4.2009

> <Gold.PLP.part.nonpolar>
-33.0838

> <Gold.PLP.part.repulsive>
0.0000

> <Gold.PLP.ligand.clash>
0.0000

> <Gold.PLP.ligand.torsion>
0.3842

> <Gold.PLP.Chemscore.Hbond>
1.0000

> <Gold.PLP.Chemscore.CHOScore>
0.0000

> <Gold.PLP.Chemscore.Metal>
0.0000

> <Gold.Chemscore.Hbonds>
donor molecule, donor type, donor heavy atom, donor atom, acceptor molecule, acceptor atom, score
      P1  H  7989  7998       L1     4  0.71

> <Gold.PLP.Chemscore.Internal.Correction>
0.1493

> <Gold.Rescore>
     Score         DG    S(hbond)    S(metal)    S(lipo)     H(rot)  DE(clash)    DE(int)     intcor
     13.18     -13.92       0.89        0.00      97.33       2.31       0.04       0.71       ----

> <Gold.Chemscore.Fitness>
13.1752

> <Gold.Chemscore.DG>
-13.9240

> <Gold.Chemscore.ZeroCoef>
-5.4800

> <Gold.Chemscore.Hbond>
0.8900

> <Gold.Chemscore.Metal>
0.0000

> <Gold.Chemscore.Lipo>
97.3251

> <Gold.Chemscore.Internal_Hbond>
0.0000

> <Gold.Chemscore.DEClash>
0.0354

> <Gold.Chemscore.DEInternal>
0.7134

> <Gold.Chemscore.Rot>
2.3108

> <Gold.Chemscore.Internal.Correction>
   9.000000E+99

> <Gold.Chemscore.Hbonds>
donor molecule, donor type, donor heavy atom, donor atom, acceptor molecule, acceptor atom, score
      P1  H  7989  7998       L1     4  0.18

> <Gold.Chemscore.Hbond.Weighted>
-2.9727

> <Gold.Chemscore.Metal.Weighted>
-0.0000

> <Gold.Chemscore.Lipo.Weighted>
-11.3870

> <Gold.Chemscore.Internal_Hbond.Weighted>
0.0000

> <Gold.Chemscore.DEClash.Weighted>
0.0354

> <Gold.Chemscore.DEInternal.Weighted>
0.7134

> <Gold.Chemscore.Rot.Weighted>
5.9157

> <Gold.Chemscore.Internal.Correction.Weighted>
   9.000000E+99

> <Gold.Protein.RotatedTorsions>
[ 6907 6896 6895 6894 ] final  136.98 input  -60.11 | X-H torsion
[ 7974 7965 7964 7962 ] final  112.10 input  175.53 | X-H torsion
[ 8008 7997 7996 7995 ] final -177.02 input   59.86 | X-H torsion
[ 10167 10162 10161 10158 ] final   83.45 input  -65.29 | X-H torsion
[ 10718 10713 10712 10709 ] final -158.96 input   66.30 | X-H torsion
[ 10763 10752 10751 10750 ] final   51.85 input  -60.55 | X-H torsion
[ 11005 11000 10999 10996 ] final -106.14 input  -57.11 | X-H torsion

> <Gold.Protein.ActiveResidues>
 VAL166  LYS551  ARG553  GLY616  TRP617  ASP618  TYR619  PRO620  LYS621  CYS622 
 ASP623  PHE694  ASN695  SER759  ASP760  ASP761  ALA762  ILE779  LEU786  VAL792 
 PHE793  MET794  SER795  GLU796  ALA797  LYS798  CYS799  TRP800  GLU811  SER814 

> <Gold.Protein.RotatedAtoms>
  152.2833  133.5491  159.5511 H   0  0  0  0  0  0  0  0  0  0  0  0  # atno 6907 bound_to 6896
  150.7205  134.0533  159.3815 H   0  0  0  0  0  0  0  0  0  0  0  0  # atno 6908 bound_to 6896
  151.8442  135.0580  160.0502 H   0  0  0  0  0  0  0  0  0  0  0  0  # atno 6909 bound_to 6896
  145.2338  139.2808  143.4154 H   0  0  0  0  0  0  0  0  0  0  0  0  # atno 7974 bound_to 7965
  156.0020  140.1222  157.0538 H   0  0  0  0  0  0  0  0  0  0  0  0  # atno 8008 bound_to 7997
  154.4245  140.1105  156.5778 H   0  0  0  0  0  0  0  0  0  0  0  0  # atno 8009 bound_to 7997
  155.6200  140.3472  155.4651 H   0  0  0  0  0  0  0  0  0  0  0  0  # atno 8010 bound_to 7997
  139.9182  144.6229  150.8467 H   0  0  0  0  0  0  0  0  0  0  0  0  # atno 10167 bound_to 10162
  156.5615  130.8649  151.2811 H   0  0  0  0  0  0  0  0  0  0  0  0  # atno 10718 bound_to 10713
  152.9786  135.5832  154.4482 H   0  0  0  0  0  0  0  0  0  0  0  0  # atno 10763 bound_to 10752
  154.4075  135.2769  155.2060 H   0  0  0  0  0  0  0  0  0  0  0  0  # atno 10764 bound_to 10752
  154.3864  135.6135  153.5873 H   0  0  0  0  0  0  0  0  0  0  0  0  # atno 10765 bound_to 10752
  141.1019  133.8868  157.1820 H   0  0  0  0  0  0  0  0  0  0  0  0  # atno 11005 bound_to 11000
  146.3346  140.2680  142.8604 LP  0  0  0  0  0  0  0  0  0  0  0  0  # atno 17320 bound_to 7965
  144.9652  140.8315  143.5489 LP  0  0  0  0  0  0  0  0  0  0  0  0  # atno 17321 bound_to 7965
  140.7669  143.3316  151.2399 LP  0  0  0  0  0  0  0  0  0  0  0  0  # atno 17342 bound_to 10162
  139.6884  143.9734  152.2846 LP  0  0  0  0  0  0  0  0  0  0  0  0  # atno 17343 bound_to 10162
  157.7367  130.9784  150.2154 LP  0  0  0  0  0  0  0  0  0  0  0  0  # atno 17370 bound_to 10713
  156.2795  130.3731  149.7950 LP  0  0  0  0  0  0  0  0  0  0  0  0  # atno 17371 bound_to 10713
  139.9874  135.0077  156.9894 LP  0  0  0  0  0  0  0  0  0  0  0  0  # atno 17394 bound_to 11000
  140.5001  134.1106  155.7249 LP  0  0  0  0  0  0  0  0  0  0  0  0  # atno 17395 bound_to 11000

$$$$
