AV-unprocessed.smi:234|AV-procd|sdf|1788|dock5
  -GOLD-   2262020343D 1   1.00000     0.00000
 Structure written by MMmdl.
 59 62  0  0  0  0  0  0  0  0  1 V2000
  152.3612  142.6297  161.5037 C   0  0  0  0  0  0  0  0  0  0  0  0
  152.5664  142.7838  159.9908 C   0  0  0  0  0  0  0  0  0  0  0  0
  152.9023  141.5428  159.3863 O   0  0  0  0  0  0  0  0  0  0  0  0
  151.7830  140.7216  159.0669 C   0  0  1  0  0  0  0  0  0  0  0  0
  151.1296  141.1353  157.7451 C   0  0  0  0  0  0  0  0  0  0  0  0
  152.1177  140.1786  157.0625 C   0  0  2  0  0  0  0  0  0  0  0  0
  151.5491  139.4331  155.9339 N   0  0  0  0  0  0  0  0  0  0  0  0
  152.4651  138.9707  154.8970 C   0  0  0  0  0  0  0  0  0  0  0  0
  150.3873  139.8867  155.4005 C   0  0  0  0  0  0  0  0  0  0  0  0
  150.2926  141.1682  154.9550 N   0  0  0  0  0  0  0  0  0  0  0  0
  149.1541  141.6092  154.4123 C   0  0  0  0  0  0  0  0  0  0  0  0
  148.0109  140.9485  154.2190 N   0  0  0  0  0  0  0  0  0  0  0  0
  148.1011  139.6621  154.6627 C   0  0  0  0  0  0  0  0  0  0  0  0
  149.2432  139.0544  155.2558 C   0  0  0  0  0  0  0  0  0  0  0  0
  148.9640  137.7322  155.5789 N   0  0  0  0  0  0  0  0  0  0  0  0
  147.7278  137.5661  155.1951 C   0  0  0  0  0  0  0  0  0  0  0  0
  147.1290  138.6767  154.6434 N   0  0  0  0  0  0  0  0  0  0  0  0
  145.7664  138.7695  154.1407 C   0  0  0  0  0  0  0  0  0  0  0  0
  145.5531  138.0325  152.7921 C   0  0  1  0  0  0  0  0  0  0  0  0
  146.0045  138.8845  151.7520 O   0  0  0  0  0  0  0  0  0  0  0  0
  146.3211  136.7182  152.6832 C   0  0  0  0  0  0  0  0  0  0  0  0
  145.4645  135.8991  151.7304 C   0  0  0  0  0  0  0  0  0  0  0  0
  144.1513  136.2216  152.1515 O   0  0  0  0  0  0  0  0  0  0  0  0
  144.0934  137.6126  152.4574 C   0  0  1  0  0  0  0  0  0  0  0  0
  143.0469  137.8002  153.5668 C   0  0  0  0  0  0  0  0  0  0  0  0
  152.1979  139.3863  158.3981 C   0  0  0  0  0  0  0  0  0  0  0  0
  153.5731  138.8430  158.7981 C   0  0  0  0  0  0  0  0  0  0  0  0
  151.1914  138.2429  158.6103 C   0  0  0  0  0  0  0  0  0  0  0  0
  152.1856  143.5992  161.9699 H   0  0  0  0  0  0  0  0  0  0  0  0
  153.2410  142.1897  161.9734 H   0  0  0  0  0  0  0  0  0  0  0  0
  151.5055  141.9961  161.7355 H   0  0  0  0  0  0  0  0  0  0  0  0
  151.6902  143.2308  159.5194 H   0  0  0  0  0  0  0  0  0  0  0  0
  153.3959  143.4691  159.8162 H   0  0  0  0  0  0  0  0  0  0  0  0
  151.0818  140.5898  159.8916 H   0  0  0  0  0  0  0  0  0  0  0  0
  150.0870  140.8218  157.6705 H   0  0  0  0  0  0  0  0  0  0  0  0
  151.2527  142.1837  157.4726 H   0  0  0  0  0  0  0  0  0  0  0  0
  153.0604  140.6764  156.8268 H   0  0  0  0  0  0  0  0  0  0  0  0
  152.4604  139.6420  154.0369 H   0  0  0  0  0  0  0  0  0  0  0  0
  152.1829  137.9744  154.5567 H   0  0  0  0  0  0  0  0  0  0  0  0
  153.4882  138.9162  155.2644 H   0  0  0  0  0  0  0  0  0  0  0  0
  149.1606  142.6385  154.0850 H   0  0  0  0  0  0  0  0  0  0  0  0
  147.2119  136.6237  155.3106 H   0  0  0  0  0  0  0  0  0  0  0  0
  145.1019  138.3691  154.9066 H   0  0  0  0  0  0  0  0  0  0  0  0
  145.5175  139.8266  154.0380 H   0  0  0  0  0  0  0  0  0  0  0  0
  145.5008  139.6834  151.7808 H   0  0  0  0  0  0  0  0  0  0  0  0
  147.3523  136.8334  152.3463 H   0  0  0  0  0  0  0  0  0  0  0  0
  146.3413  136.2136  153.6497 H   0  0  0  0  0  0  0  0  0  0  0  0
  145.6111  136.2140  150.6961 H   0  0  0  0  0  0  0  0  0  0  0  0
  145.6587  134.8288  151.8000 H   0  0  0  0  0  0  0  0  0  0  0  0
  143.7432  138.1333  151.5638 H   0  0  0  0  0  0  0  0  0  0  0  0
  142.9386  138.8498  153.8397 H   0  0  0  0  0  0  0  0  0  0  0  0
  143.3084  137.2376  154.4634 H   0  0  0  0  0  0  0  0  0  0  0  0
  142.0699  137.4483  153.2350 H   0  0  0  0  0  0  0  0  0  0  0  0
  153.8071  137.9080  158.2897 H   0  0  0  0  0  0  0  0  0  0  0  0
  153.6268  138.6531  159.8705 H   0  0  0  0  0  0  0  0  0  0  0  0
  154.3705  139.5451  158.5539 H   0  0  0  0  0  0  0  0  0  0  0  0
  151.4541  137.3580  158.0300 H   0  0  0  0  0  0  0  0  0  0  0  0
  150.1798  138.5267  158.3189 H   0  0  0  0  0  0  0  0  0  0  0  0
  151.1495  137.9423  159.6577 H   0  0  0  0  0  0  0  0  0  0  0  0
  1  2  1  0  0  0  0
  1 29  1  0  0  0  0
  1 30  1  0  0  0  0
  1 31  1  0  0  0  0
  2  3  1  0  0  0  0
  2 32  1  0  0  0  0
  2 33  1  0  0  0  0
  3  4  1  0  0  0  0
  4 26  1  0  0  0  0
  4  5  1  0  0  0  0
  4 34  1  0  0  0  0
  5  6  1  0  0  0  0
  5 35  1  0  0  0  0
  5 36  1  0  0  0  0
  6  7  1  0  0  0  0
  6 26  1  0  0  0  0
  6 37  1  0  0  0  0
  7  8  1  0  0  0  0
  7  9  1  0  0  0  0
  8 38  1  0  0  0  0
  8 39  1  0  0  0  0
  8 40  1  0  0  0  0
  9 14  1  0  0  0  0
  9 10  2  0  0  0  0
 10 11  1  0  0  0  0
 11 12  2  0  0  0  0
 11 41  1  0  0  0  0
 12 13  1  0  0  0  0
 13 17  1  0  0  0  0
 13 14  2  0  0  0  0
 14 15  1  0  0  0  0
 15 16  2  0  0  0  0
 16 17  1  0  0  0  0
 16 42  1  0  0  0  0
 17 18  1  0  0  0  0
 18 19  1  0  0  0  0
 18 43  1  0  0  0  0
 18 44  1  0  0  0  0
 19 24  1  0  0  0  0
 19 20  1  0  0  0  0
 19 21  1  0  0  0  0
 20 45  1  0  0  0  0
 21 22  1  0  0  0  0
 21 46  1  0  0  0  0
 21 47  1  0  0  0  0
 22 23  1  0  0  0  0
 22 48  1  0  0  0  0
 22 49  1  0  0  0  0
 23 24  1  0  0  0  0
 24 25  1  0  0  0  0
 24 50  1  0  0  0  0
 25 51  1  0  0  0  0
 25 52  1  0  0  0  0
 25 53  1  0  0  0  0
 26 27  1  0  0  0  0
 26 28  1  0  0  0  0
 27 54  1  0  0  0  0
 27 55  1  0  0  0  0
 27 56  1  0  0  0  0
 28 57  1  0  0  0  0
 28 58  1  0  0  0  0
 28 59  1  0  0  0  0
M  END
> <s_m_source_file>
AV-unprocessed.smi

> <i_m_source_file_index>
234

> <i_lp_mmshare_version>
43012

> <i_f3d_flags>
0

> <s_epik_input>
W0NIM11bQ0gyXU9bQ0BASF0oQzEoW0NIM10pW0NIM10pW0NIMl1bQ0BIXTFOKFtDSDNdKWMobltjSF1uMiljKGMyMyluW2NIXW4zW0NIMl1bQ0BAXTQoW09IXSlbQ0gyXVtDSDJdT1tDQEhdNFtDSDNd

> <s_epik_cmdline>
J2VwaWtfcHl0aG9uJywgJy1waCcsICc3LjAnLCAnLXRuJywgJzgnLCAnLW1hJywgJzIwMCcsICctbWV0YWxfYmluZGluZycsICctaW1hZScsICc8aW5maWxlLm1hZT4nLCAnLW9tYWUnLCAnPG91dGZpbGUubWFlPic=

> <r_lp_tautomer_probability>
1

> <r_epik_Ionization_Penalty>
0.00349132

> <r_epik_Ionization_Penalty_Charging>
0

> <r_epik_Ionization_Penalty_Neutral>
0.00349132

> <r_epik_State_Penalty>
0.00242418

> <r_epik_Charging_Adjusted_Penalty>
0.00242418

> <i_epik_Tot_Q>
0

> <i_epik_Tot_abs_Q>
0

> <r_epik_Metal_State_Penalty>
-0

> <b_epik_Metal_Only>
0

> <s_lp_Force_Field>
OPLS_2005

> <r_lp_Energy>
49.5598

> <b_lp_Chiralities_Consistent>
1

> <s_lp_Variant>
AV-unprocessed.smi:234-4

> <Gold.Version>
5.8.1

> <Gold.Id.Protein>
6NUR|6NUR_protein|mol2

> <Gold.PLP.Fitness>
40.4815

> <Gold.PLP.PLP>
-37.7964

> <Gold.PLP.part.hbond>
-3.0000

> <Gold.PLP.part.metal>
0.0000

> <Gold.PLP.part.buried>
-3.2475

> <Gold.PLP.part.nonpolar>
-31.1675

> <Gold.PLP.part.repulsive>
0.3758

> <Gold.PLP.ligand.clash>
0.0000

> <Gold.PLP.ligand.torsion>
2.2645

> <Gold.PLP.Chemscore.Hbond>
1.6978

> <Gold.PLP.Chemscore.CHOScore>
0.3863

> <Gold.PLP.Chemscore.Metal>
0.0000

> <Gold.Chemscore.Hbonds>
donor molecule, donor type, donor heavy atom, donor atom, acceptor molecule, acceptor atom, score
      L1  H    20    45       P1 10175  0.74
      P1  H  7989  7998       L1    10  0.43
      L1  C    11    41       P1  8028  0.76

> <Gold.PLP.Chemscore.Internal.Correction>
0.9617

> <Gold.Rescore>
     Score         DG    S(hbond)    S(metal)    S(lipo)     H(rot)  DE(clash)    DE(int)     intcor
      8.83     -12.78       1.01        0.00      91.01       2.62       0.23       3.72       ----

> <Gold.Chemscore.Fitness>
8.8255

> <Gold.Chemscore.DG>
-12.7789

> <Gold.Chemscore.ZeroCoef>
-5.4800

> <Gold.Chemscore.Hbond>
1.0068

> <Gold.Chemscore.Metal>
0.0000

> <Gold.Chemscore.Lipo>
91.0107

> <Gold.Chemscore.Internal_Hbond>
0.0000

> <Gold.Chemscore.DEClash>
0.2341

> <Gold.Chemscore.DEInternal>
3.7192

> <Gold.Chemscore.Rot>
2.6219

> <Gold.Chemscore.Internal.Correction>
   9.000000E+99

> <Gold.Chemscore.Hbonds>
donor molecule, donor type, donor heavy atom, donor atom, acceptor molecule, acceptor atom, score
      L1  H    20    45       P1 10175  0.51
      P1  H  7989  7998       L1    10  0.03

> <Gold.Chemscore.Hbond.Weighted>
-3.3627

> <Gold.Chemscore.Metal.Weighted>
-0.0000

> <Gold.Chemscore.Lipo.Weighted>
-10.6482

> <Gold.Chemscore.Internal_Hbond.Weighted>
0.0000

> <Gold.Chemscore.DEClash.Weighted>
0.2341

> <Gold.Chemscore.DEInternal.Weighted>
3.7192

> <Gold.Chemscore.Rot.Weighted>
6.7121

> <Gold.Chemscore.Internal.Correction.Weighted>
   9.000000E+99

> <Gold.Protein.RotatedTorsions>
[ 6907 6896 6895 6894 ] final  110.31 input  -60.11 | X-H torsion
[ 7974 7965 7964 7962 ] final -138.07 input  175.53 | X-H torsion
[ 8008 7997 7996 7995 ] final  112.53 input   59.86 | X-H torsion
[ 10167 10162 10161 10158 ] final  -69.85 input  -65.29 | X-H torsion
[ 10718 10713 10712 10709 ] final -148.62 input   66.30 | X-H torsion
[ 10763 10752 10751 10750 ] final  -44.16 input  -60.55 | X-H torsion
[ 11005 11000 10999 10996 ] final -125.50 input  -57.11 | X-H torsion

> <Gold.Protein.ActiveResidues>
 VAL166  LYS551  ARG553  GLY616  TRP617  ASP618  TYR619  PRO620  LYS621  CYS622 
 ASP623  PHE694  ASN695  SER759  ASP760  ASP761  ALA762  ILE779  LEU786  VAL792 
 PHE793  MET794  SER795  GLU796  ALA797  LYS798  CYS799  TRP800  GLU811  SER814 

> <Gold.Protein.RotatedAtoms>
  152.5026  133.8819  159.7350 H   0  0  0  0  0  0  0  0  0  0  0  0  # atno 6907 bound_to 6896
  150.9279  133.6793  159.2824 H   0  0  0  0  0  0  0  0  0  0  0  0  # atno 6908 bound_to 6896
  151.4147  135.0994  159.9648 H   0  0  0  0  0  0  0  0  0  0  0  0  # atno 6909 bound_to 6896
  144.8788  140.6477  143.5219 H   0  0  0  0  0  0  0  0  0  0  0  0  # atno 7974 bound_to 7965
  156.2199  140.2997  155.9927 H   0  0  0  0  0  0  0  0  0  0  0  0  # atno 8008 bound_to 7997
  155.2510  140.0426  157.3003 H   0  0  0  0  0  0  0  0  0  0  0  0  # atno 8009 bound_to 7997
  154.5824  140.2379  155.8043 H   0  0  0  0  0  0  0  0  0  0  0  0  # atno 8010 bound_to 7997
  140.5398  143.2315  151.7109 H   0  0  0  0  0  0  0  0  0  0  0  0  # atno 10167 bound_to 10162
  156.4225  130.8036  151.2259 H   0  0  0  0  0  0  0  0  0  0  0  0  # atno 10718 bound_to 10713
  154.0075  135.6685  153.4763 H   0  0  0  0  0  0  0  0  0  0  0  0  # atno 10763 bound_to 10752
  153.0635  135.5014  154.8144 H   0  0  0  0  0  0  0  0  0  0  0  0  # atno 10764 bound_to 10752
  154.7015  135.3080  154.9297 H   0  0  0  0  0  0  0  0  0  0  0  0  # atno 10765 bound_to 10752
  140.9757  134.0744  157.3821 H   0  0  0  0  0  0  0  0  0  0  0  0  # atno 11005 bound_to 11000
  145.3992  139.1601  143.4187 LP  0  0  0  0  0  0  0  0  0  0  0  0  # atno 17320 bound_to 7965
  146.2981  140.4087  142.8714 LP  0  0  0  0  0  0  0  0  0  0  0  0  # atno 17321 bound_to 7965
  139.4984  144.3986  152.0205 LP  0  0  0  0  0  0  0  0  0  0  0  0  # atno 17342 bound_to 10162
  140.3094  144.3556  150.6038 LP  0  0  0  0  0  0  0  0  0  0  0  0  # atno 17343 bound_to 10162
  157.7508  131.0223  150.3788 LP  0  0  0  0  0  0  0  0  0  0  0  0  # atno 17370 bound_to 10713
  156.4108  130.3934  149.6893 LP  0  0  0  0  0  0  0  0  0  0  0  0  # atno 17371 bound_to 10713
  139.8929  135.0127  156.6873 LP  0  0  0  0  0  0  0  0  0  0  0  0  # atno 17394 bound_to 11000
  140.7262  133.9098  155.8180 LP  0  0  0  0  0  0  0  0  0  0  0  0  # atno 17395 bound_to 11000

$$$$
