AV-unprocessed.smi:524|AV-procd|sdf|2805|dock6
  -GOLD-   2262023283D 1   1.00000     0.00000
 Structure written by MMmdl.
 43 45  0  0  0  0  0  0  0  0  1 V2000
  147.3751  141.2780  153.4817 C   0  0  0  0  0  0  0  0  0  0  0  0
  148.6518  141.7571  153.8642 O   0  0  0  0  0  0  0  0  0  0  0  0
  149.0117  141.3562  155.1762 C   0  0  0  0  0  0  0  0  0  0  0  0
  150.3183  142.0464  155.5916 C   0  0  0  0  0  0  0  0  0  0  0  0
  151.0837  141.2370  156.5381 N   0  0  0  0  0  0  0  0  0  0  0  0
  151.5374  141.5822  157.7754 C   0  0  0  0  0  0  0  0  0  0  0  0
  151.3404  142.8541  158.3167 N   0  0  0  0  0  0  0  0  0  0  0  0
  150.5698  143.1741  159.5194 C   0  0  0  0  0  0  0  0  0  0  0  0
  151.3649  144.0754  160.4815 C   0  0  0  0  0  0  0  0  0  0  0  0
  151.7875  145.3713  159.7760 C   0  0  0  0  0  0  0  0  0  0  0  0
  152.4988  145.0429  158.4557 C   0  0  0  0  0  0  0  0  0  0  0  0
  151.6458  144.0907  157.5984 C   0  0  0  0  0  0  0  0  0  0  0  0
  152.1372  140.5932  158.4441 N   0  0  0  0  0  0  0  0  0  0  0  0
  152.0830  139.5344  157.5525 C   0  0  0  0  0  0  0  0  0  0  0  0
  151.4481  139.8940  156.4084 C   0  0  0  0  0  0  0  0  0  0  0  0
  151.2102  138.9418  155.3135 C   0  0  0  0  0  0  0  0  0  0  0  0
  150.6281  139.2320  154.2711 O   0  0  0  0  0  0  0  0  0  0  0  0
  151.6916  137.7019  155.5732 N   0  0  0  0  0  0  0  0  0  0  0  0
  152.3412  137.2789  156.7003 C   0  0  0  0  0  0  0  0  0  0  0  0
  152.7093  136.1079  156.7891 O   0  0  0  0  0  0  0  0  0  0  0  0
  152.5503  138.1989  157.6969 N   0  0  0  0  0  0  0  0  0  0  0  0
  153.2327  137.8437  158.9430 C   0  0  0  0  0  0  0  0  0  0  0  0
  151.5491  137.0081  154.8538 H   0  0  0  0  0  0  0  0  0  0  0  0
  147.1442  141.6182  152.4723 H   0  0  0  0  0  0  0  0  0  0  0  0
  146.5975  141.6512  154.1493 H   0  0  0  0  0  0  0  0  0  0  0  0
  147.3467  140.1876  153.4842 H   0  0  0  0  0  0  0  0  0  0  0  0
  148.2174  141.6150  155.8776 H   0  0  0  0  0  0  0  0  0  0  0  0
  149.1364  140.2730  155.2119 H   0  0  0  0  0  0  0  0  0  0  0  0
  150.9255  142.2614  154.7151 H   0  0  0  0  0  0  0  0  0  0  0  0
  150.1052  143.0208  156.0206 H   0  0  0  0  0  0  0  0  0  0  0  0
  149.6516  143.6807  159.2189 H   0  0  0  0  0  0  0  0  0  0  0  0
  150.2470  142.2620  160.0197 H   0  0  0  0  0  0  0  0  0  0  0  0
  150.7630  144.3084  161.3603 H   0  0  0  0  0  0  0  0  0  0  0  0
  152.2487  143.5481  160.8417 H   0  0  0  0  0  0  0  0  0  0  0  0
  150.9056  145.9798  159.5724 H   0  0  0  0  0  0  0  0  0  0  0  0
  152.4359  145.9637  160.4220 H   0  0  0  0  0  0  0  0  0  0  0  0
  152.7050  145.9604  157.9041 H   0  0  0  0  0  0  0  0  0  0  0  0
  153.4649  144.5810  158.6634 H   0  0  0  0  0  0  0  0  0  0  0  0
  152.1813  143.8553  156.6778 H   0  0  0  0  0  0  0  0  0  0  0  0
  150.7153  144.5759  157.3008 H   0  0  0  0  0  0  0  0  0  0  0  0
  153.7491  136.8838  158.9036 H   0  0  0  0  0  0  0  0  0  0  0  0
  152.5129  137.8025  159.7611 H   0  0  0  0  0  0  0  0  0  0  0  0
  153.9812  138.5970  159.1917 H   0  0  0  0  0  0  0  0  0  0  0  0
  1  2  1  0  0  0  0
  1 24  1  0  0  0  0
  1 25  1  0  0  0  0
  1 26  1  0  0  0  0
  2  3  1  0  0  0  0
  3  4  1  0  0  0  0
  3 27  1  0  0  0  0
  3 28  1  0  0  0  0
  4  5  1  0  0  0  0
  4 29  1  0  0  0  0
  4 30  1  0  0  0  0
  5 15  1  0  0  0  0
  5  6  1  0  0  0  0
  6  7  1  0  0  0  0
  6 13  2  0  0  0  0
  7 12  1  0  0  0  0
  7  8  1  0  0  0  0
  8  9  1  0  0  0  0
  8 31  1  0  0  0  0
  8 32  1  0  0  0  0
  9 10  1  0  0  0  0
  9 33  1  0  0  0  0
  9 34  1  0  0  0  0
 10 11  1  0  0  0  0
 10 35  1  0  0  0  0
 10 36  1  0  0  0  0
 11 12  1  0  0  0  0
 11 37  1  0  0  0  0
 11 38  1  0  0  0  0
 12 39  1  0  0  0  0
 12 40  1  0  0  0  0
 13 14  1  0  0  0  0
 14 21  1  0  0  0  0
 14 15  2  0  0  0  0
 15 16  1  0  0  0  0
 16 17  2  0  0  0  0
 16 18  1  0  0  0  0
 18 23  1  0  0  0  0
 18 19  1  0  0  0  0
 19 20  2  0  0  0  0
 19 21  1  0  0  0  0
 21 22  1  0  0  0  0
 22 41  1  0  0  0  0
 22 42  1  0  0  0  0
 22 43  1  0  0  0  0
M  END
> <s_m_source_file>
AV-unprocessed.smi

> <i_m_source_file_index>
524

> <i_lp_mmshare_version>
43012

> <i_f3d_flags>
0

> <s_epik_input>
W0NIM11uMWMoPU8pW25IXWMoPU8pYyhjMTIpbihbQ0gyXVtDSDJdT1tDSDNdKWMobjIpTjNbQ0gyXVtDSDJdW0NIMl1bQ0gyXVtDSDJdMw==

> <s_epik_cmdline>
J2VwaWtfcHl0aG9uJywgJy1waCcsICc3LjAnLCAnLXRuJywgJzgnLCAnLW1hJywgJzIwMCcsICctbWV0YWxfYmluZGluZycsICctaW1hZScsICc8aW5maWxlLm1hZT4nLCAnLW9tYWUnLCAnPG91dGZpbGUubWFlPic=

> <r_lp_tautomer_probability>
1

> <r_epik_Ionization_Penalty>
0.000298119

> <r_epik_Ionization_Penalty_Charging>
0.000125384

> <r_epik_Ionization_Penalty_Neutral>
0.000172735

> <r_epik_State_Penalty>
-0

> <r_epik_Charging_Adjusted_Penalty>
0.000125384

> <i_epik_Tot_Q>
0

> <i_epik_Tot_abs_Q>
0

> <r_epik_Metal_State_Penalty>
0.0954001

> <b_epik_Metal_Only>
0

> <s_lp_Force_Field>
OPLS_2005

> <r_lp_Energy>
37.2528

> <b_lp_Chiralities_Consistent>
1

> <s_lp_Variant>
AV-unprocessed.smi:524-1

> <Gold.Version>
5.8.1

> <Gold.Id.Protein>
6NUR|6NUR_protein|mol2

> <Gold.PLP.Fitness>
45.7766

> <Gold.PLP.PLP>
-39.9803

> <Gold.PLP.part.hbond>
-3.0000

> <Gold.PLP.part.metal>
0.0000

> <Gold.PLP.part.buried>
-4.6152

> <Gold.PLP.part.nonpolar>
-33.1488

> <Gold.PLP.part.repulsive>
0.4796

> <Gold.PLP.ligand.clash>
0.0000

> <Gold.PLP.ligand.torsion>
1.2390

> <Gold.PLP.Chemscore.Hbond>
2.5920

> <Gold.PLP.Chemscore.CHOScore>
0.0000

> <Gold.PLP.Chemscore.Metal>
0.0000

> <Gold.Chemscore.Hbonds>
donor molecule, donor type, donor heavy atom, donor atom, acceptor molecule, acceptor atom, score
      P1  H  7989  7998       L1    17  0.93
      P1  H  8011  8017       L1     2  0.56
      P1  H 10752 10765       L1    20  1.00

> <Gold.PLP.Chemscore.Internal.Correction>
0.4983

> <Gold.Rescore>
     Score         DG    S(hbond)    S(metal)    S(lipo)     H(rot)  DE(clash)    DE(int)     intcor
     16.00     -19.82       2.18        0.00      92.63       1.48       1.19       2.63       ----

> <Gold.Chemscore.Fitness>
16.0000

> <Gold.Chemscore.DG>
-19.8178

> <Gold.Chemscore.ZeroCoef>
-5.4800

> <Gold.Chemscore.Hbond>
2.1848

> <Gold.Chemscore.Metal>
0.0000

> <Gold.Chemscore.Lipo>
92.6285

> <Gold.Chemscore.Internal_Hbond>
0.0000

> <Gold.Chemscore.DEClash>
1.1881

> <Gold.Chemscore.DEInternal>
2.6297

> <Gold.Chemscore.Rot>
1.4832

> <Gold.Chemscore.Internal.Correction>
   9.000000E+99

> <Gold.Chemscore.Hbonds>
donor molecule, donor type, donor heavy atom, donor atom, acceptor molecule, acceptor atom, score
      P1  H  7989  7998       L1    17  0.49
      P1  H  8011  8017       L1     2  0.47
      P1  H 10752 10765       L1    20  0.85

> <Gold.Chemscore.Hbond.Weighted>
-7.2972

> <Gold.Chemscore.Metal.Weighted>
-0.0000

> <Gold.Chemscore.Lipo.Weighted>
-10.8375

> <Gold.Chemscore.Internal_Hbond.Weighted>
0.0000

> <Gold.Chemscore.DEClash.Weighted>
1.1881

> <Gold.Chemscore.DEInternal.Weighted>
2.6297

> <Gold.Chemscore.Rot.Weighted>
3.7970

> <Gold.Chemscore.Internal.Correction.Weighted>
   9.000000E+99

> <Gold.Protein.RotatedTorsions>
[ 6907 6896 6895 6894 ] final -123.02 input  -60.11 | X-H torsion
[ 7974 7965 7964 7962 ] final  114.02 input  175.53 | X-H torsion
[ 8008 7997 7996 7995 ] final  -44.49 input   59.86 | X-H torsion
[ 10167 10162 10161 10158 ] final -112.65 input  -65.29 | X-H torsion
[ 10718 10713 10712 10709 ] final -145.02 input   66.30 | X-H torsion
[ 10763 10752 10751 10750 ] final -135.98 input  -60.55 | X-H torsion
[ 11005 11000 10999 10996 ] final -128.04 input  -57.11 | X-H torsion

> <Gold.Protein.ActiveResidues>
 VAL166  LYS551  ARG553  GLY616  TRP617  ASP618  TYR619  PRO620  LYS621  CYS622 
 ASP623  PHE694  ASN695  SER759  ASP760  ASP761  ALA762  ILE779  LEU786  VAL792 
 PHE793  MET794  SER795  GLU796  ALA797  LYS798  CYS799  TRP800  GLU811  SER814 

> <Gold.Protein.RotatedAtoms>
  150.8631  133.7614  159.2985 H   0  0  0  0  0  0  0  0  0  0  0  0  # atno 6907 bound_to 6896
  151.5250  135.1066  159.9898 H   0  0  0  0  0  0  0  0  0  0  0  0  # atno 6908 bound_to 6896
  152.4641  133.7840  159.6922 H   0  0  0  0  0  0  0  0  0  0  0  0  # atno 6909 bound_to 6896
  145.2097  139.2912  143.4275 H   0  0  0  0  0  0  0  0  0  0  0  0  # atno 7974 bound_to 7965
  154.3997  140.1421  156.3692 H   0  0  0  0  0  0  0  0  0  0  0  0  # atno 8008 bound_to 7997
  155.8108  140.3473  155.5436 H   0  0  0  0  0  0  0  0  0  0  0  0  # atno 8009 bound_to 7997
  155.8388  140.0923  157.1738 H   0  0  0  0  0  0  0  0  0  0  0  0  # atno 8010 bound_to 7997
  140.1205  143.4448  152.1694 H   0  0  0  0  0  0  0  0  0  0  0  0  # atno 10167 bound_to 10162
  156.3773  130.7818  151.2007 H   0  0  0  0  0  0  0  0  0  0  0  0  # atno 10718 bound_to 10713
  154.8693  135.3686  154.4987 H   0  0  0  0  0  0  0  0  0  0  0  0  # atno 10763 bound_to 10752
  153.5629  135.7022  153.5544 H   0  0  0  0  0  0  0  0  0  0  0  0  # atno 10764 bound_to 10752
  153.3612  135.4046  155.1683 H   0  0  0  0  0  0  0  0  0  0  0  0  # atno 10765 bound_to 10752
  140.9549  134.1015  157.4026 H   0  0  0  0  0  0  0  0  0  0  0  0  # atno 11005 bound_to 11000
  146.3400  140.2368  142.8594 LP  0  0  0  0  0  0  0  0  0  0  0  0  # atno 17320 bound_to 7965
  144.9868  140.8510  143.5364 LP  0  0  0  0  0  0  0  0  0  0  0  0  # atno 17321 bound_to 7965
  139.5571  144.7380  151.4262 LP  0  0  0  0  0  0  0  0  0  0  0  0  # atno 17342 bound_to 10162
  140.6875  143.7940  150.7207 LP  0  0  0  0  0  0  0  0  0  0  0  0  # atno 17343 bound_to 10162
  157.7489  131.0354  150.4364 LP  0  0  0  0  0  0  0  0  0  0  0  0  # atno 17370 bound_to 10713
  156.4602  130.4030  149.6581 LP  0  0  0  0  0  0  0  0  0  0  0  0  # atno 17371 bound_to 10713
  139.8859  135.0076  156.6465 LP  0  0  0  0  0  0  0  0  0  0  0  0  # atno 17394 bound_to 11000
  140.7550  133.8865  155.8375 LP  0  0  0  0  0  0  0  0  0  0  0  0  # atno 17395 bound_to 11000

$$$$
