AV-unprocessed.smi:301|AV-procd|sdf|2270|dock3
  -GOLD-   2262022163D 1   1.00000     0.00000
 Structure written by MMmdl.
 32 33  0  0  0  0  0  0  0  0  1 V2000
  146.1562  142.6535  158.4602 C   0  0  0  0  0  0  0  0  0  0  0  0
  146.2885  142.3213  157.0133 C   0  0  0  0  0  0  0  0  0  0  0  0
  147.4622  142.1751  156.3935 N   0  0  0  0  0  0  0  0  0  0  0  0
  147.3217  141.8740  155.0342 C   0  0  0  0  0  0  0  0  0  0  0  0
  148.5411  141.6773  154.1801 C   0  0  0  0  0  0  0  0  0  0  0  0
  149.7443  141.2719  155.0368 C   0  0  0  0  0  0  0  0  0  0  0  0
  150.3959  140.2653  154.7557 O   0  0  0  0  0  0  0  0  0  0  0  0
  150.0345  142.0687  156.0769 N   0  0  0  0  0  0  0  0  0  0  0  0
  151.1463  141.8704  156.9998 C   0  0  0  0  0  0  0  0  0  0  0  0
  151.1768  142.9534  158.0911 C   0  0  2  0  0  0  0  0  0  0  0  0
  151.7725  144.2786  157.6278 C   0  0  0  0  0  0  0  0  0  0  0  0
  152.1356  144.9276  158.9462 C   0  0  0  0  0  0  0  0  0  0  0  0
  152.5240  143.7341  159.8220 C   0  0  0  0  0  0  0  0  0  0  0  0
  152.0326  142.5704  159.1601 O   0  0  0  0  0  0  0  0  0  0  0  0
  146.0106  141.7823  154.6352 C   0  0  0  0  0  0  0  0  0  0  0  0
  144.9075  142.0853  155.9493 S   0  0  0  0  0  0  0  0  0  0  0  0
  147.1193  142.5674  158.9643 H   0  0  0  0  0  0  0  0  0  0  0  0
  145.4514  141.9720  158.9367 H   0  0  0  0  0  0  0  0  0  0  0  0
  145.7906  143.6740  158.5750 H   0  0  0  0  0  0  0  0  0  0  0  0
  148.3716  140.9005  153.4336 H   0  0  0  0  0  0  0  0  0  0  0  0
  148.7649  142.5904  153.6264 H   0  0  0  0  0  0  0  0  0  0  0  0
  149.4535  142.8799  156.2318 H   0  0  0  0  0  0  0  0  0  0  0  0
  151.0473  140.8835  157.4528 H   0  0  0  0  0  0  0  0  0  0  0  0
  152.0872  141.8641  156.4471 H   0  0  0  0  0  0  0  0  0  0  0  0
  150.1764  143.1297  158.4907 H   0  0  0  0  0  0  0  0  0  0  0  0
  152.6720  144.1086  157.0340 H   0  0  0  0  0  0  0  0  0  0  0  0
  151.0772  144.8743  157.0358 H   0  0  0  0  0  0  0  0  0  0  0  0
  152.9340  145.6643  158.8522 H   0  0  0  0  0  0  0  0  0  0  0  0
  151.2612  145.4276  159.3653 H   0  0  0  0  0  0  0  0  0  0  0  0
  153.6065  143.6530  159.9241 H   0  0  0  0  0  0  0  0  0  0  0  0
  152.0956  143.8188  160.8212 H   0  0  0  0  0  0  0  0  0  0  0  0
  145.6287  141.5601  153.6498 H   0  0  0  0  0  0  0  0  0  0  0  0
  1  2  1  0  0  0  0
  1 17  1  0  0  0  0
  1 18  1  0  0  0  0
  1 19  1  0  0  0  0
  2 16  1  0  0  0  0
  2  3  2  0  0  0  0
  3  4  1  0  0  0  0
  4  5  1  0  0  0  0
  4 15  2  0  0  0  0
  5  6  1  0  0  0  0
  5 20  1  0  0  0  0
  5 21  1  0  0  0  0
  6  7  2  0  0  0  0
  6  8  1  0  0  0  0
  8  9  1  0  0  0  0
  8 22  1  0  0  0  0
  9 10  1  0  0  0  0
  9 23  1  0  0  0  0
  9 24  1  0  0  0  0
 10 14  1  0  0  0  0
 10 11  1  0  0  0  0
 10 25  1  0  0  0  0
 11 12  1  0  0  0  0
 11 26  1  0  0  0  0
 11 27  1  0  0  0  0
 12 13  1  0  0  0  0
 12 28  1  0  0  0  0
 12 29  1  0  0  0  0
 13 14  1  0  0  0  0
 13 30  1  0  0  0  0
 13 31  1  0  0  0  0
 15 16  1  0  0  0  0
 15 32  1  0  0  0  0
M  END
> <s_m_source_file>
AV-unprocessed.smi

> <i_m_source_file_index>
301

> <i_lp_mmshare_version>
43012

> <i_f3d_flags>
0

> <s_epik_input>
W0NIM11jMW5jKFtjSF1zMSlbQ0gyXUMoPU8pW05IXVtDSDJdW0NAQEhdMltDSDJdW0NIMl1bQ0gyXU8y

> <s_epik_cmdline>
J2VwaWtfcHl0aG9uJywgJy1waCcsICc3LjAnLCAnLXRuJywgJzgnLCAnLW1hJywgJzIwMCcsICctbWV0YWxfYmluZGluZycsICctaW1hZScsICc8aW5maWxlLm1hZT4nLCAnLW9tYWUnLCAnPG91dGZpbGUubWFlPic=

> <r_lp_tautomer_probability>
1

> <r_epik_Ionization_Penalty>
6.06873e-05

> <r_epik_Ionization_Penalty_Charging>
0

> <r_epik_Ionization_Penalty_Neutral>
6.06873e-05

> <r_epik_State_Penalty>
-0

> <r_epik_Charging_Adjusted_Penalty>
0

> <i_epik_Tot_Q>
0

> <i_epik_Tot_abs_Q>
0

> <r_epik_Metal_State_Penalty>
-0

> <b_epik_Metal_Only>
0

> <s_lp_Force_Field>
OPLS_2005

> <r_lp_Energy>
15.97

> <b_lp_Chiralities_Consistent>
1

> <s_lp_Variant>
AV-unprocessed.smi:301-1

> <Gold.Version>
5.8.1

> <Gold.Id.Protein>
6NUR|6NUR_protein|mol2

> <Gold.PLP.Fitness>
42.0902

> <Gold.PLP.PLP>
-34.1868

> <Gold.PLP.part.hbond>
-2.0000

> <Gold.PLP.part.metal>
0.0000

> <Gold.PLP.part.buried>
-4.1578

> <Gold.PLP.part.nonpolar>
-28.8334

> <Gold.PLP.part.repulsive>
1.2503

> <Gold.PLP.ligand.clash>
0.0000

> <Gold.PLP.ligand.torsion>
0.5279

> <Gold.PLP.Chemscore.Hbond>
1.9920

> <Gold.PLP.Chemscore.CHOScore>
0.9901

> <Gold.PLP.Chemscore.Metal>
0.0000

> <Gold.Chemscore.Hbonds>
donor molecule, donor type, donor heavy atom, donor atom, acceptor molecule, acceptor atom, score
      L1  H     8    22       P1  8028  0.98
      P1  H  7989  7998       L1     7  1.00
      L1  C    15    32       P1 10175  0.90

> <Gold.PLP.Chemscore.Internal.Correction>
0.0128

> <Gold.Rescore>
     Score         DG    S(hbond)    S(metal)    S(lipo)     H(rot)  DE(clash)    DE(int)     intcor
     16.11     -16.59       1.68        0.00      80.14       1.51       0.07       0.42       ----

> <Gold.Chemscore.Fitness>
16.1064

> <Gold.Chemscore.DG>
-16.5879

> <Gold.Chemscore.ZeroCoef>
-5.4800

> <Gold.Chemscore.Hbond>
1.6762

> <Gold.Chemscore.Metal>
0.0000

> <Gold.Chemscore.Lipo>
80.1411

> <Gold.Chemscore.Internal_Hbond>
0.0000

> <Gold.Chemscore.DEClash>
0.0653

> <Gold.Chemscore.DEInternal>
0.4163

> <Gold.Chemscore.Rot>
1.5106

> <Gold.Chemscore.Internal.Correction>
   9.000000E+99

> <Gold.Chemscore.Hbonds>
donor molecule, donor type, donor heavy atom, donor atom, acceptor molecule, acceptor atom, score
      L1  H     8    22       P1  8028  0.89
      P1  H  7989  7998       L1     7  0.39

> <Gold.Chemscore.Hbond.Weighted>
-5.5984

> <Gold.Chemscore.Metal.Weighted>
-0.0000

> <Gold.Chemscore.Lipo.Weighted>
-9.3765

> <Gold.Chemscore.Internal_Hbond.Weighted>
0.0000

> <Gold.Chemscore.DEClash.Weighted>
0.0653

> <Gold.Chemscore.DEInternal.Weighted>
0.4163

> <Gold.Chemscore.Rot.Weighted>
3.8670

> <Gold.Chemscore.Internal.Correction.Weighted>
   9.000000E+99

> <Gold.Protein.RotatedTorsions>
[ 6907 6896 6895 6894 ] final  -54.56 input  -60.11 | X-H torsion
[ 7974 7965 7964 7962 ] final -178.02 input  175.53 | X-H torsion
[ 8008 7997 7996 7995 ] final   66.67 input   59.86 | X-H torsion
[ 10167 10162 10161 10158 ] final  -92.19 input  -65.29 | X-H torsion
[ 10718 10713 10712 10709 ] final  159.20 input   66.30 | X-H torsion
[ 10763 10752 10751 10750 ] final -139.86 input  -60.55 | X-H torsion
[ 11005 11000 10999 10996 ] final   84.80 input  -57.11 | X-H torsion

> <Gold.Protein.ActiveResidues>
 VAL166  LYS551  ARG553  GLY616  TRP617  ASP618  TYR619  PRO620  LYS621  CYS622 
 ASP623  PHE694  ASN695  SER759  ASP760  ASP761  ALA762  ILE779  LEU786  VAL792 
 PHE793  MET794  SER795  GLU796  ALA797  LYS798  CYS799  TRP800  GLU811  SER814 

> <Gold.Protein.RotatedAtoms>
  150.8328  134.7588  159.6867 H   0  0  0  0  0  0  0  0  0  0  0  0  # atno 6907 bound_to 6896
  152.4429  134.5550  159.9887 H   0  0  0  0  0  0  0  0  0  0  0  0  # atno 6908 bound_to 6896
  151.5707  133.3352  159.3025 H   0  0  0  0  0  0  0  0  0  0  0  0  # atno 6909 bound_to 6896
  144.7129  140.0932  143.6420 H   0  0  0  0  0  0  0  0  0  0  0  0  # atno 7974 bound_to 7965
  155.6810  140.3496  155.4855 H   0  0  0  0  0  0  0  0  0  0  0  0  # atno 8008 bound_to 7997
  155.9607  140.1136  157.0921 H   0  0  0  0  0  0  0  0  0  0  0  0  # atno 8009 bound_to 7997
  154.4142  140.1176  156.5161 H   0  0  0  0  0  0  0  0  0  0  0  0  # atno 8010 bound_to 7997
  140.3373  143.2961  151.9874 H   0  0  0  0  0  0  0  0  0  0  0  0  # atno 10167 bound_to 10162
  157.1675  131.0602  151.2200 H   0  0  0  0  0  0  0  0  0  0  0  0  # atno 10718 bound_to 10713
  154.8596  135.3570  154.5615 H   0  0  0  0  0  0  0  0  0  0  0  0  # atno 10763 bound_to 10752
  153.6230  135.7005  153.5308 H   0  0  0  0  0  0  0  0  0  0  0  0  # atno 10764 bound_to 10752
  153.3113  135.4178  155.1298 H   0  0  0  0  0  0  0  0  0  0  0  0  # atno 10765 bound_to 10752
  139.8990  134.8242  156.2494 H   0  0  0  0  0  0  0  0  0  0  0  0  # atno 11005 bound_to 11000
  145.9602  139.2795  143.1160 LP  0  0  0  0  0  0  0  0  0  0  0  0  # atno 17320 bound_to 7965
  145.9229  140.9103  143.0396 LP  0  0  0  0  0  0  0  0  0  0  0  0  # atno 17321 bound_to 7965
  139.4846  144.6185  151.7299 LP  0  0  0  0  0  0  0  0  0  0  0  0  # atno 17342 bound_to 10162
  140.5341  144.0683  150.6064 LP  0  0  0  0  0  0  0  0  0  0  0  0  # atno 17343 bound_to 10162
  157.4074  130.7366  149.6813 LP  0  0  0  0  0  0  0  0  0  0  0  0  # atno 17370 bound_to 10713
  155.9743  130.4104  150.3930 LP  0  0  0  0  0  0  0  0  0  0  0  0  # atno 17371 bound_to 10713
  141.0233  133.7029  156.1305 LP  0  0  0  0  0  0  0  0  0  0  0  0  # atno 17394 bound_to 11000
  140.7202  134.4367  157.5575 LP  0  0  0  0  0  0  0  0  0  0  0  0  # atno 17395 bound_to 11000

$$$$
