AV-unprocessed.smi:170|AV-procd|sdf|1411|dock3
  -GOLD-   2262019173D 1   1.00000     0.00000
 Structure written by MMmdl.
 57 61  0  0  0  0  0  0  0  0  1 V2000
  151.7301  141.5421  157.9800 O   0  0  0  0  0  0  0  0  0  0  0  0
  151.7662  141.5756  159.3946 C   0  0  1  0  0  0  0  0  0  0  0  0
  152.9036  140.6626  159.8928 C   0  0  0  0  0  0  0  0  0  0  0  0
  152.5211  139.2621  159.9179 N   0  0  0  0  0  0  0  0  0  0  0  0
  152.6367  138.3919  160.9787 C   0  0  0  0  0  0  0  0  0  0  0  0
  152.2124  137.1782  160.7519 N   0  0  0  0  0  0  0  0  0  0  0  0
  151.7736  137.2184  159.4348 C   0  0  0  0  0  0  0  0  0  0  0  0
  151.1908  136.2651  158.5609 C   0  0  0  0  0  0  0  0  0  0  0  0
  150.9308  134.9996  158.9604 N   0  0  0  0  0  0  0  0  0  0  0  0
  151.4757  134.0182  158.0283 C   0  0  0  0  0  0  0  0  0  0  0  0
  151.3117  132.6021  158.5946 C   0  0  0  0  0  0  0  0  0  0  0  0
  149.9339  132.3708  158.8547 O   0  0  0  0  0  0  0  0  0  0  0  0
  149.4184  133.2696  159.8306 C   0  0  0  0  0  0  0  0  0  0  0  0
  149.5385  134.7346  159.3450 C   0  0  1  0  0  0  0  0  0  0  0  0
  149.0211  135.7333  160.4150 C   0  0  0  0  0  0  0  0  0  0  0  0
  147.6495  135.3876  160.9913 C   0  0  0  0  0  0  0  0  0  0  0  0
  147.0218  136.2852  162.0684 C   0  0  0  0  0  0  0  0  0  0  0  0
  146.4242  135.0270  162.7034 C   0  0  0  0  0  0  0  0  0  0  0  0
  147.5173  134.2274  161.9893 C   0  0  0  0  0  0  0  0  0  0  0  0
  150.8681  136.6654  157.3023 N   0  0  0  0  0  0  0  0  0  0  0  0
  151.1053  137.9255  156.9239 C   0  0  0  0  0  0  0  0  0  0  0  0
  151.6393  138.9243  157.6314 N   0  0  0  0  0  0  0  0  0  0  0  0
  151.9602  138.5204  158.8943 C   0  0  0  0  0  0  0  0  0  0  0  0
  151.9456  143.0341  159.8551 C   0  0  1  0  0  0  0  0  0  0  0  0
  152.8078  143.8894  158.9271 C   0  0  0  0  0  0  0  0  0  0  0  0
  152.3653  145.2855  159.3014 C   0  0  0  0  0  0  0  0  0  0  0  0
  150.8728  145.0942  159.5640 C   0  0  0  0  0  0  0  0  0  0  0  0
  150.6929  143.7126  159.8678 O   0  0  0  0  0  0  0  0  0  0  0  0
  150.8411  141.6949  157.6986 H   0  0  0  0  0  0  0  0  0  0  0  0
  150.8123  141.1971  159.7644 H   0  0  0  0  0  0  0  0  0  0  0  0
  153.7873  140.7727  159.2633 H   0  0  0  0  0  0  0  0  0  0  0  0
  153.2038  140.9468  160.9019 H   0  0  0  0  0  0  0  0  0  0  0  0
  153.0486  138.6875  161.9326 H   0  0  0  0  0  0  0  0  0  0  0  0
  150.9622  134.0912  157.0680 H   0  0  0  0  0  0  0  0  0  0  0  0
  152.5317  134.2246  157.8473 H   0  0  0  0  0  0  0  0  0  0  0  0
  151.6674  131.8641  157.8757 H   0  0  0  0  0  0  0  0  0  0  0  0
  151.8977  132.4728  159.5060 H   0  0  0  0  0  0  0  0  0  0  0  0
  148.3762  133.0023  160.0021 H   0  0  0  0  0  0  0  0  0  0  0  0
  149.9432  133.1285  160.7770 H   0  0  0  0  0  0  0  0  0  0  0  0
  148.9243  134.8412  158.4494 H   0  0  0  0  0  0  0  0  0  0  0  0
  149.7488  135.8014  161.2246 H   0  0  0  0  0  0  0  0  0  0  0  0
  148.9655  136.7354  159.9887 H   0  0  0  0  0  0  0  0  0  0  0  0
  146.9186  135.2322  160.1954 H   0  0  0  0  0  0  0  0  0  0  0  0
  147.7660  136.7655  162.7063 H   0  0  0  0  0  0  0  0  0  0  0  0
  146.2904  137.0022  161.6942 H   0  0  0  0  0  0  0  0  0  0  0  0
  146.4733  134.9967  163.7922 H   0  0  0  0  0  0  0  0  0  0  0  0
  145.4228  134.7998  162.3341 H   0  0  0  0  0  0  0  0  0  0  0  0
  147.1834  133.2856  161.5530 H   0  0  0  0  0  0  0  0  0  0  0  0
  148.4076  134.0912  162.6057 H   0  0  0  0  0  0  0  0  0  0  0  0
  150.8246  138.1692  155.9099 H   0  0  0  0  0  0  0  0  0  0  0  0
  152.3575  143.0678  160.8653 H   0  0  0  0  0  0  0  0  0  0  0  0
  153.8770  143.7288  159.0687 H   0  0  0  0  0  0  0  0  0  0  0  0
  152.5663  143.6886  157.8823 H   0  0  0  0  0  0  0  0  0  0  0  0
  152.8691  145.6020  160.2158 H   0  0  0  0  0  0  0  0  0  0  0  0
  152.5714  146.0236  158.5259 H   0  0  0  0  0  0  0  0  0  0  0  0
  150.5194  145.7251  160.3800 H   0  0  0  0  0  0  0  0  0  0  0  0
  150.2887  145.3329  158.6745 H   0  0  0  0  0  0  0  0  0  0  0  0
  1  2  1  0  0  0  0
  1 29  1  0  0  0  0
  2  3  1  0  0  0  0
  2 24  1  0  0  0  0
  2 30  1  0  0  0  0
  3  4  1  0  0  0  0
  3 31  1  0  0  0  0
  3 32  1  0  0  0  0
  4 23  1  0  0  0  0
  4  5  1  0  0  0  0
  5  6  2  0  0  0  0
  5 33  1  0  0  0  0
  6  7  1  0  0  0  0
  7 23  2  0  0  0  0
  7  8  1  0  0  0  0
  8  9  1  0  0  0  0
  8 20  2  0  0  0  0
  9 14  1  0  0  0  0
  9 10  1  0  0  0  0
 10 11  1  0  0  0  0
 10 34  1  0  0  0  0
 10 35  1  0  0  0  0
 11 12  1  0  0  0  0
 11 36  1  0  0  0  0
 11 37  1  0  0  0  0
 12 13  1  0  0  0  0
 13 14  1  0  0  0  0
 13 38  1  0  0  0  0
 13 39  1  0  0  0  0
 14 15  1  0  0  0  0
 14 40  1  0  0  0  0
 15 16  1  0  0  0  0
 15 41  1  0  0  0  0
 15 42  1  0  0  0  0
 16 19  1  0  0  0  0
 16 17  1  0  0  0  0
 16 43  1  0  0  0  0
 17 18  1  0  0  0  0
 17 44  1  0  0  0  0
 17 45  1  0  0  0  0
 18 19  1  0  0  0  0
 18 46  1  0  0  0  0
 18 47  1  0  0  0  0
 19 48  1  0  0  0  0
 19 49  1  0  0  0  0
 20 21  1  0  0  0  0
 21 22  2  0  0  0  0
 21 50  1  0  0  0  0
 22 23  1  0  0  0  0
 24 28  1  0  0  0  0
 24 25  1  0  0  0  0
 24 51  1  0  0  0  0
 25 26  1  0  0  0  0
 25 52  1  0  0  0  0
 25 53  1  0  0  0  0
 26 27  1  0  0  0  0
 26 54  1  0  0  0  0
 26 55  1  0  0  0  0
 27 28  1  0  0  0  0
 27 56  1  0  0  0  0
 27 57  1  0  0  0  0
M  END
> <s_m_source_file>
AV-unprocessed.smi

> <i_m_source_file_index>
170

> <i_lp_mmshare_version>
43012

> <i_f3d_flags>
0

> <s_epik_input>
TzFbQ0gyXVtDSDJdW0NIMl1bQ0BIXTFbQ0BIXShbT0hdKVtDSDJdbihbY0hdbjIpYyhjMjMpbltjSF1uYzNONFtDSDJdW0NIMl1PW0NIMl1bQ0BIXTRbQ0gyXVtDSF01W0NIMl1bQ0gyXVtDSDJdNQ==

> <s_epik_cmdline>
J2VwaWtfcHl0aG9uJywgJy1waCcsICc3LjAnLCAnLXRuJywgJzgnLCAnLW1hJywgJzIwMCcsICctbWV0YWxfYmluZGluZycsICctaW1hZScsICc8aW5maWxlLm1hZT4nLCAnLW9tYWUnLCAnPG91dGZpbGUubWFlPic=

> <r_lp_tautomer_probability>
1

> <r_epik_Ionization_Penalty>
4.98275e-05

> <r_epik_Ionization_Penalty_Charging>
0

> <r_epik_Ionization_Penalty_Neutral>
4.98275e-05

> <r_epik_State_Penalty>
-0

> <r_epik_Charging_Adjusted_Penalty>
0

> <i_epik_Tot_Q>
0

> <i_epik_Tot_abs_Q>
0

> <r_epik_Metal_State_Penalty>
-0

> <b_epik_Metal_Only>
0

> <s_lp_Force_Field>
OPLS_2005

> <r_lp_Energy>
51.0174

> <b_lp_Chiralities_Consistent>
1

> <s_lp_Variant>
AV-unprocessed.smi:170-6

> <Gold.Version>
5.8.1

> <Gold.Id.Protein>
6NUR|6NUR_protein|mol2

> <Gold.PLP.Fitness>
47.9979

> <Gold.PLP.PLP>
-47.1207

> <Gold.PLP.part.hbond>
-2.5898

> <Gold.PLP.part.metal>
0.0000

> <Gold.PLP.part.buried>
-6.3796

> <Gold.PLP.part.nonpolar>
-38.5824

> <Gold.PLP.part.repulsive>
0.1043

> <Gold.PLP.ligand.clash>
0.0000

> <Gold.PLP.ligand.torsion>
1.2643

> <Gold.PLP.Chemscore.Hbond>
1.0229

> <Gold.PLP.Chemscore.CHOScore>
0.0000

> <Gold.PLP.Chemscore.Metal>
0.0000

> <Gold.PLP.Chemscore.Internal.Correction>
0.3372

> <Gold.Rescore>
     Score         DG    S(hbond)    S(metal)    S(lipo)     H(rot)  DE(clash)    DE(int)     intcor
     13.22     -15.79       0.88        0.00     120.15       2.61       0.00       2.57       ----

> <Gold.Chemscore.Fitness>
13.2176

> <Gold.Chemscore.DG>
-15.7892

> <Gold.Chemscore.ZeroCoef>
-5.4800

> <Gold.Chemscore.Hbond>
0.8817

> <Gold.Chemscore.Metal>
0.0000

> <Gold.Chemscore.Lipo>
120.1471

> <Gold.Chemscore.Internal_Hbond>
0.0000

> <Gold.Chemscore.DEClash>
0.0018

> <Gold.Chemscore.DEInternal>
2.5698

> <Gold.Chemscore.Rot>
2.6144

> <Gold.Chemscore.Internal.Correction>
   9.000000E+99

> <Gold.Chemscore.Hbond.Weighted>
-2.9449

> <Gold.Chemscore.Metal.Weighted>
-0.0000

> <Gold.Chemscore.Lipo.Weighted>
-14.0572

> <Gold.Chemscore.Internal_Hbond.Weighted>
0.0000

> <Gold.Chemscore.DEClash.Weighted>
0.0018

> <Gold.Chemscore.DEInternal.Weighted>
2.5698

> <Gold.Chemscore.Rot.Weighted>
6.6929

> <Gold.Chemscore.Internal.Correction.Weighted>
   9.000000E+99

> <Gold.Protein.RotatedTorsions>
[ 6907 6896 6895 6894 ] final -112.14 input  -60.11 | X-H torsion
[ 7974 7965 7964 7962 ] final   87.61 input  175.53 | X-H torsion
[ 8008 7997 7996 7995 ] final  -51.93 input   59.86 | X-H torsion
[ 10167 10162 10161 10158 ] final  -59.88 input  -65.29 | X-H torsion
[ 10718 10713 10712 10709 ] final -137.91 input   66.30 | X-H torsion
[ 10763 10752 10751 10750 ] final    1.35 input  -60.55 | X-H torsion
[ 11005 11000 10999 10996 ] final  147.22 input  -57.11 | X-H torsion

> <Gold.Protein.ActiveResidues>
 VAL166  LYS551  ARG553  GLY616  TRP617  ASP618  TYR619  PRO620  LYS621  CYS622 
 ASP623  PHE694  ASN695  SER759  ASP760  ASP761  ALA762  ILE779  LEU786  VAL792 
 PHE793  MET794  SER795  GLU796  ALA797  LYS798  CYS799  TRP800  GLU811  SER814 

> <Gold.Protein.RotatedAtoms>
  150.7738  133.9132  159.3375 H   0  0  0  0  0  0  0  0  0  0  0  0  # atno 6907 bound_to 6896
  151.7012  135.0928  160.0260 H   0  0  0  0  0  0  0  0  0  0  0  0  # atno 6908 bound_to 6896
  152.3766  133.6452  159.6164 H   0  0  0  0  0  0  0  0  0  0  0  0  # atno 6909 bound_to 6896
  145.5567  139.2300  143.2482 H   0  0  0  0  0  0  0  0  0  0  0  0  # atno 7974 bound_to 7965
  154.4094  140.1236  156.4909 H   0  0  0  0  0  0  0  0  0  0  0  0  # atno 8008 bound_to 7997
  155.6991  140.3495  155.4906 H   0  0  0  0  0  0  0  0  0  0  0  0  # atno 8009 bound_to 7997
  155.9401  140.1085  157.1052 H   0  0  0  0  0  0  0  0  0  0  0  0  # atno 8010 bound_to 7997
  140.6107  143.2386  151.5716 H   0  0  0  0  0  0  0  0  0  0  0  0  # atno 10167 bound_to 10162
  156.2935  130.7388  151.1420 H   0  0  0  0  0  0  0  0  0  0  0  0  # atno 10718 bound_to 10713
  153.3091  135.6961  153.7132 H   0  0  0  0  0  0  0  0  0  0  0  0  # atno 10763 bound_to 10752
  153.6016  135.3461  155.2948 H   0  0  0  0  0  0  0  0  0  0  0  0  # atno 10764 bound_to 10752
  154.8570  135.4342  154.2224 H   0  0  0  0  0  0  0  0  0  0  0  0  # atno 10765 bound_to 10752
  140.0858  134.9070  157.1573 H   0  0  0  0  0  0  0  0  0  0  0  0  # atno 11005 bound_to 11000
  146.1879  140.6391  142.9159 LP  0  0  0  0  0  0  0  0  0  0  0  0  # atno 17320 bound_to 7965
  144.7503  140.5173  143.6807 LP  0  0  0  0  0  0  0  0  0  0  0  0  # atno 17321 bound_to 7965
  139.5359  144.2782  152.1250 LP  0  0  0  0  0  0  0  0  0  0  0  0  # atno 17342 bound_to 10162
  140.1981  144.4685  150.6445 LP  0  0  0  0  0  0  0  0  0  0  0  0  # atno 17343 bound_to 10162
  157.7349  131.0577  150.5500 LP  0  0  0  0  0  0  0  0  0  0  0  0  # atno 17370 bound_to 10713
  156.5619  130.4258  149.6059 LP  0  0  0  0  0  0  0  0  0  0  0  0  # atno 17371 bound_to 10713
  140.3422  134.2691  155.7210 LP  0  0  0  0  0  0  0  0  0  0  0  0  # atno 17394 bound_to 11000
  141.2062  133.7840  157.0191 LP  0  0  0  0  0  0  0  0  0  0  0  0  # atno 17395 bound_to 11000

$$$$
