AV-unprocessed.smi:570|AV-procd|sdf|2962|dock1
  -GOLD-   2262023463D 1   1.00000     0.00000
 Structure written by MMmdl.
 39 40  0  0  0  0  0  0  0  0  2 V2000
  156.7070  136.2867  152.1962 C   0  0  0  0  0  0  0  0  0  0  0  0
  155.8475  136.8175  153.1892 O   0  0  0  0  0  0  0  0  0  0  0  0
  156.3237  138.0451  153.7252 C   0  0  0  0  0  0  0  0  0  0  0  0
  155.1616  138.8966  154.2779 C   0  0  0  0  0  0  0  0  0  0  0  0
  154.0231  138.0994  154.9477 C   0  0  0  0  0  0  0  0  0  0  0  0
  153.2602  138.9775  155.8297 N   0  5  0  0  0  0  0  0  0  0  0  0
  152.1220  139.6342  155.4587 C   0  0  0  0  0  0  0  0  0  0  0  0
  151.4170  139.4635  154.4576 O   0  0  0  0  0  0  0  0  0  0  0  0
  151.7200  140.7027  156.4519 C   0  0  0  0  0  0  0  0  0  0  0  0
  152.4133  140.7744  157.6173 N   0  0  0  0  0  0  0  0  0  0  0  0
  152.0739  141.6967  158.5232 C   0  0  0  0  0  0  0  0  0  0  0  0
  152.8170  141.7430  159.7100 N   0  0  0  0  0  0  0  0  0  0  0  0
  154.0141  140.9227  159.9093 C   0  0  0  0  0  0  0  0  0  0  0  0
  154.1810  140.5507  161.3924 C   0  0  0  0  0  0  0  0  0  0  0  0
  154.1938  141.7305  162.1863 O   0  0  0  0  0  0  0  0  0  0  0  0
  152.9695  142.4461  162.0762 C   0  0  0  0  0  0  0  0  0  0  0  0
  152.7520  142.8898  160.6198 C   0  0  0  0  0  0  0  0  0  0  0  0
  151.0776  142.5775  158.3786 N   0  0  0  0  0  0  0  0  0  0  0  0
  150.3705  142.5351  157.2311 C   0  0  0  0  0  0  0  0  0  0  0  0
  150.6490  141.6058  156.2106 C   0  0  0  0  0  0  0  0  0  0  0  0
  149.7158  141.6457  154.7528 Cl  0  0  0  0  0  0  0  0  0  0  0  0
  156.2957  135.3507  151.8184 H   0  0  0  0  0  0  0  0  0  0  0  0
  157.6980  136.0795  152.6017 H   0  0  0  0  0  0  0  0  0  0  0  0
  156.8087  136.9734  151.3548 H   0  0  0  0  0  0  0  0  0  0  0  0
  157.0103  137.8216  154.5431 H   0  0  0  0  0  0  0  0  0  0  0  0
  156.9013  138.5938  152.9777 H   0  0  0  0  0  0  0  0  0  0  0  0
  155.5622  139.6291  154.9802 H   0  0  0  0  0  0  0  0  0  0  0  0
  154.7412  139.4721  153.4520 H   0  0  0  0  0  0  0  0  0  0  0  0
  153.3907  137.6649  154.1726 H   0  0  0  0  0  0  0  0  0  0  0  0
  154.4538  137.2564  155.4896 H   0  0  0  0  0  0  0  0  0  0  0  0
  153.9849  140.0023  159.3273 H   0  0  0  0  0  0  0  0  0  0  0  0
  154.8823  141.4858  159.5652 H   0  0  0  0  0  0  0  0  0  0  0  0
  153.3795  139.8861  161.7194 H   0  0  0  0  0  0  0  0  0  0  0  0
  155.1184  140.0146  161.5407 H   0  0  0  0  0  0  0  0  0  0  0  0
  152.1394  141.8275  162.4215 H   0  0  0  0  0  0  0  0  0  0  0  0
  153.0087  143.3176  162.7295 H   0  0  0  0  0  0  0  0  0  0  0  0
  153.5165  143.6107  160.3281 H   0  0  0  0  0  0  0  0  0  0  0  0
  151.7927  143.4042  160.5626 H   0  0  0  0  0  0  0  0  0  0  0  0
  149.5759  143.2586  157.1239 H   0  0  0  0  0  0  0  0  0  0  0  0
  1  2  1  0  0  0  0
  1 22  1  0  0  0  0
  1 23  1  0  0  0  0
  1 24  1  0  0  0  0
  2  3  1  0  0  0  0
  3  4  1  0  0  0  0
  3 25  1  0  0  0  0
  3 26  1  0  0  0  0
  4  5  1  0  0  0  0
  4 27  1  0  0  0  0
  4 28  1  0  0  0  0
  5  6  1  0  0  0  0
  5 29  1  0  0  0  0
  5 30  1  0  0  0  0
  6  7  1  0  0  0  0
  7  8  2  0  0  0  0
  7  9  1  0  0  0  0
  9 20  1  0  0  0  0
  9 10  2  0  0  0  0
 10 11  1  0  0  0  0
 11 12  1  0  0  0  0
 11 18  2  0  0  0  0
 12 17  1  0  0  0  0
 12 13  1  0  0  0  0
 13 14  1  0  0  0  0
 13 31  1  0  0  0  0
 13 32  1  0  0  0  0
 14 15  1  0  0  0  0
 14 33  1  0  0  0  0
 14 34  1  0  0  0  0
 15 16  1  0  0  0  0
 16 17  1  0  0  0  0
 16 35  1  0  0  0  0
 16 36  1  0  0  0  0
 17 37  1  0  0  0  0
 17 38  1  0  0  0  0
 18 19  1  0  0  0  0
 19 20  2  0  0  0  0
 19 39  1  0  0  0  0
 20 21  1  0  0  0  0
M  CHG  1   6  -1
M  END
> <s_m_source_file>
AV-unprocessed.smi

> <i_m_source_file_index>
570

> <i_lp_mmshare_version>
43012

> <i_f3d_flags>
0

> <s_epik_input>
W0NIM11PW0NIMl1bQ0gyXVtDSDJdW05IXUMoPU8pYzFuYyhuW2NIXWMxQ2wpTjJbQ0gyXVtDSDJdT1tDSDJdW0NIMl0y

> <s_epik_cmdline>
J2VwaWtfcHl0aG9uJywgJy1waCcsICc3LjAnLCAnLXRuJywgJzgnLCAnLW1hJywgJzIwMCcsICctbWV0YWxfYmluZGluZycsICctaW1hZScsICc8aW5maWxlLm1hZT4nLCAnLW9tYWUnLCAnPG91dGZpbGUubWFlPic=

> <r_lp_tautomer_probability>
1

> <r_epik_Ionization_Penalty>
6.0123

> <r_epik_Ionization_Penalty_Charging>
6.01228

> <r_epik_Ionization_Penalty_Neutral>
2.47988e-05

> <r_epik_State_Penalty>
6.01226

> <r_epik_Charging_Adjusted_Penalty>
12.0245

> <i_epik_Tot_Q>
-1

> <i_epik_Tot_abs_Q>
1

> <r_epik_Metal_State_Penalty>
1.96418

> <b_epik_Metal_Only>
1

> <s_lp_Force_Field>
OPLS_2005

> <r_lp_Energy>
20.8632

> <b_lp_Chiralities_Consistent>
1

> <s_lp_Variant>
AV-unprocessed.smi:570-2

> <Gold.Version>
5.8.1

> <Gold.Id.Protein>
6NUR|6NUR_protein|mol2

> <Gold.PLP.Fitness>
57.3011

> <Gold.PLP.PLP>
-43.2932

> <Gold.PLP.part.hbond>
-4.6505

> <Gold.PLP.part.metal>
0.0000

> <Gold.PLP.part.buried>
4.2741

> <Gold.PLP.part.nonpolar>
-41.7381

> <Gold.PLP.part.repulsive>
0.1987

> <Gold.PLP.ligand.clash>
0.0000

> <Gold.PLP.ligand.torsion>
0.6668

> <Gold.PLP.Chemscore.Hbond>
4.0000

> <Gold.PLP.Chemscore.CHOScore>
1.0000

> <Gold.PLP.Chemscore.Metal>
0.0000

> <Gold.Chemscore.Hbonds>
donor molecule, donor type, donor heavy atom, donor atom, acceptor molecule, acceptor atom, score
      P1  H  7989  7998       L1     8  1.00
      P1  H  7997  8010       L1     6  2.00
      P1  H 10752 10765       L1     2  0.98
      L1  C    19    39       P1  8028  1.00

> <Gold.PLP.Chemscore.Internal.Correction>
0.3415

> <Gold.Rescore>
     Score         DG    S(hbond)    S(metal)    S(lipo)     H(rot)  DE(clash)    DE(int)     intcor
     15.03     -19.99       1.77        0.00     108.51       1.59       2.98       1.99       ----

> <Gold.Chemscore.Fitness>
15.0256

> <Gold.Chemscore.DG>
-19.9912

> <Gold.Chemscore.ZeroCoef>
-5.4800

> <Gold.Chemscore.Hbond>
1.7660

> <Gold.Chemscore.Metal>
0.0000

> <Gold.Chemscore.Lipo>
108.5116

> <Gold.Chemscore.Internal_Hbond>
0.0000

> <Gold.Chemscore.DEClash>
2.9803

> <Gold.Chemscore.DEInternal>
1.9853

> <Gold.Chemscore.Rot>
1.5949

> <Gold.Chemscore.Internal.Correction>
   9.000000E+99

> <Gold.Chemscore.Hbonds>
donor molecule, donor type, donor heavy atom, donor atom, acceptor molecule, acceptor atom, score
      P1  H  7989  7998       L1     8  0.55
      P1  H  7997  8010       L1     6  0.20
      P1  H 10752 10765       L1     2  0.73

> <Gold.Chemscore.Hbond.Weighted>
-5.8983

> <Gold.Chemscore.Metal.Weighted>
-0.0000

> <Gold.Chemscore.Lipo.Weighted>
-12.6959

> <Gold.Chemscore.Internal_Hbond.Weighted>
0.0000

> <Gold.Chemscore.DEClash.Weighted>
2.9803

> <Gold.Chemscore.DEInternal.Weighted>
1.9853

> <Gold.Chemscore.Rot.Weighted>
4.0830

> <Gold.Chemscore.Internal.Correction.Weighted>
   9.000000E+99

> <Gold.Protein.RotatedTorsions>
[ 6907 6896 6895 6894 ] final   11.17 input  -60.11 | X-H torsion
[ 7974 7965 7964 7962 ] final  -26.05 input  175.53 | X-H torsion
[ 8008 7997 7996 7995 ] final   83.23 input   59.86 | X-H torsion
[ 10167 10162 10161 10158 ] final  -33.96 input  -65.29 | X-H torsion
[ 10718 10713 10712 10709 ] final -149.48 input   66.30 | X-H torsion
[ 10763 10752 10751 10750 ] final   45.67 input  -60.55 | X-H torsion
[ 11005 11000 10999 10996 ] final   46.05 input  -57.11 | X-H torsion

> <Gold.Protein.ActiveResidues>
 VAL166  LYS551  ARG553  GLY616  TRP617  ASP618  TYR619  PRO620  LYS621  CYS622 
 ASP623  PHE694  ASN695  SER759  ASP760  ASP761  ALA762  ILE779  LEU786  VAL792 
 PHE793  MET794  SER795  GLU796  ALA797  LYS798  CYS799  TRP800  GLU811  SER814 

> <Gold.Protein.RotatedAtoms>
  151.7501  135.0835  160.0329 H   0  0  0  0  0  0  0  0  0  0  0  0  # atno 6907 bound_to 6896
  152.3423  133.6076  159.5893 H   0  0  0  0  0  0  0  0  0  0  0  0  # atno 6908 bound_to 6896
  150.7487  133.9620  159.3560 H   0  0  0  0  0  0  0  0  0  0  0  0  # atno 6909 bound_to 6896
  146.1451  140.4968  142.8635 H   0  0  0  0  0  0  0  0  0  0  0  0  # atno 7974 bound_to 7965
  155.9212  140.3421  155.6174 H   0  0  0  0  0  0  0  0  0  0  0  0  # atno 8008 bound_to 7997
  155.7271  140.0791  157.2324 H   0  0  0  0  0  0  0  0  0  0  0  0  # atno 8009 bound_to 7997
  154.4070  140.1595  156.2454 H   0  0  0  0  0  0  0  0  0  0  0  0  # atno 8010 bound_to 7997
  140.7195  143.3582  151.2015 H   0  0  0  0  0  0  0  0  0  0  0  0  # atno 10167 bound_to 10162
  156.4336  130.8088  151.2315 H   0  0  0  0  0  0  0  0  0  0  0  0  # atno 10718 bound_to 10713
  152.9821  135.6032  154.3474 H   0  0  0  0  0  0  0  0  0  0  0  0  # atno 10763 bound_to 10752
  154.3166  135.2770  155.2542 H   0  0  0  0  0  0  0  0  0  0  0  0  # atno 10764 bound_to 10752
  154.4727  135.5937  153.6389 H   0  0  0  0  0  0  0  0  0  0  0  0  # atno 10765 bound_to 10752
  140.1404  134.4591  155.8454 H   0  0  0  0  0  0  0  0  0  0  0  0  # atno 11005 bound_to 11000
  144.7837  140.5892  143.6588 LP  0  0  0  0  0  0  0  0  0  0  0  0  # atno 17320 bound_to 7965
  145.4957  139.1486  143.3685 LP  0  0  0  0  0  0  0  0  0  0  0  0  # atno 17321 bound_to 7965
  139.7129  143.9348  152.2955 LP  0  0  0  0  0  0  0  0  0  0  0  0  # atno 17342 bound_to 10162
  139.9079  144.6874  150.8594 LP  0  0  0  0  0  0  0  0  0  0  0  0  # atno 17343 bound_to 10162
  157.7508  131.0190  150.3650 LP  0  0  0  0  0  0  0  0  0  0  0  0  # atno 17370 bound_to 10713
  156.3993  130.3913  149.6971 LP  0  0  0  0  0  0  0  0  0  0  0  0  # atno 17371 bound_to 10713
  141.2185  133.6831  156.7236 LP  0  0  0  0  0  0  0  0  0  0  0  0  # atno 17394 bound_to 11000
  140.2729  134.8377  157.3864 LP  0  0  0  0  0  0  0  0  0  0  0  0  # atno 17395 bound_to 11000

$$$$
