AV-unprocessed.smi:2524|AV-procd|sdf|9923|dock5
  -GOLD-   2272013563D 1   1.00000     0.00000
 Structure written by MMmdl.
 37 38  0  0  0  0  0  0  0  0  2 V2000
  153.0076  142.4242  161.9308 C   0  0  0  0  0  0  0  0  0  0  0  0
  152.6800  142.2002  160.6495 C   0  0  0  0  0  0  0  0  0  0  0  0
  153.2354  141.0722  159.8057 C   0  0  0  0  0  0  0  0  0  0  0  0
  152.1556  140.0483  159.4364 C   0  0  0  0  0  0  0  0  0  0  0  0
  152.0986  139.7820  157.6160 S   0  0  0  0  0  0  0  0  0  0  0  0
  151.6109  141.0152  156.9796 O   0  0  0  0  0  0  0  0  0  0  0  0
  153.3696  139.1871  157.1768 O   0  0  0  0  0  0  0  0  0  0  0  0
  150.8759  138.5753  157.4518 N   0  0  0  0  0  0  0  0  0  0  0  0
  149.6632  138.8908  156.6917 C   0  0  0  0  0  0  0  0  0  0  0  0
  149.9339  138.9510  155.1927 C   0  0  0  0  0  0  0  0  0  0  0  0
  148.7342  139.4341  154.4263 C   0  0  0  0  0  0  0  0  0  0  0  0
  147.8358  138.5208  153.8283 C   0  0  0  0  0  0  0  0  0  0  0  0
  146.7075  139.0062  153.1367 C   0  0  0  0  0  0  0  0  0  0  0  0
  146.4956  140.3368  153.0470 N   0  3  0  0  0  0  0  0  0  0  0  0
  147.3274  141.2469  153.5973 C   0  0  0  0  0  0  0  0  0  0  0  0
  148.4704  140.8170  154.3015 C   0  0  0  0  0  0  0  0  0  0  0  0
  151.3064  139.3822  154.7172 C   0  0  0  0  0  0  0  0  0  0  0  0
  150.8743  137.9475  154.5568 C   0  0  0  0  0  0  0  0  0  0  0  0
  153.7115  141.7906  162.4504 H   0  0  0  0  0  0  0  0  0  0  0  0
  152.5731  143.2479  162.4779 H   0  0  0  0  0  0  0  0  0  0  0  0
  151.9708  142.8558  160.1652 H   0  0  0  0  0  0  0  0  0  0  0  0
  153.6893  141.4783  158.9010 H   0  0  0  0  0  0  0  0  0  0  0  0
  154.0330  140.5850  160.3674 H   0  0  0  0  0  0  0  0  0  0  0  0
  152.3534  139.0884  159.9138 H   0  0  0  0  0  0  0  0  0  0  0  0
  151.1721  140.3874  159.7622 H   0  0  0  0  0  0  0  0  0  0  0  0
  151.2734  137.6826  157.1595 H   0  0  0  0  0  0  0  0  0  0  0  0
  148.8880  138.1509  156.8959 H   0  0  0  0  0  0  0  0  0  0  0  0
  149.2807  139.8524  157.0349 H   0  0  0  0  0  0  0  0  0  0  0  0
  148.0035  137.4568  153.9104 H   0  0  0  0  0  0  0  0  0  0  0  0
  145.9722  138.3749  152.6595 H   0  0  0  0  0  0  0  0  0  0  0  0
  147.0545  142.2832  153.4618 H   0  0  0  0  0  0  0  0  0  0  0  0
  149.1343  141.5422  154.7492 H   0  0  0  0  0  0  0  0  0  0  0  0
  151.3710  139.9853  153.8137 H   0  0  0  0  0  0  0  0  0  0  0  0
  152.0723  139.5804  155.4646 H   0  0  0  0  0  0  0  0  0  0  0  0
  151.3572  137.2167  155.2026 H   0  0  0  0  0  0  0  0  0  0  0  0
  150.6524  137.6031  153.5487 H   0  0  0  0  0  0  0  0  0  0  0  0
  145.6720  140.6685  152.5443 H   0  0  0  0  0  0  0  0  0  0  0  0
  1  2  2  0  0  0  0
  1 19  1  0  0  0  0
  1 20  1  0  0  0  0
  2  3  1  0  0  0  0
  2 21  1  0  0  0  0
  3  4  1  0  0  0  0
  3 22  1  0  0  0  0
  3 23  1  0  0  0  0
  4  5  1  0  0  0  0
  4 24  1  0  0  0  0
  4 25  1  0  0  0  0
  5  6  2  0  0  0  0
  5  7  2  0  0  0  0
  5  8  1  0  0  0  0
  8  9  1  0  0  0  0
  8 26  1  0  0  0  0
  9 10  1  0  0  0  0
  9 27  1  0  0  0  0
  9 28  1  0  0  0  0
 10 18  1  0  0  0  0
 10 11  1  0  0  0  0
 10 17  1  0  0  0  0
 11 16  1  0  0  0  0
 11 12  2  0  0  0  0
 12 13  1  0  0  0  0
 12 29  1  0  0  0  0
 13 14  2  0  0  0  0
 13 30  1  0  0  0  0
 14 15  1  0  0  0  0
 14 37  1  0  0  0  0
 15 16  2  0  0  0  0
 15 31  1  0  0  0  0
 16 32  1  0  0  0  0
 17 18  1  0  0  0  0
 17 33  1  0  0  0  0
 17 34  1  0  0  0  0
 18 35  1  0  0  0  0
 18 36  1  0  0  0  0
M  CHG  1  14   1
M  END
> <s_m_source_file>
AV-unprocessed.smi

> <i_m_source_file_index>
2524

> <i_lp_mmshare_version>
43012

> <i_f3d_flags>
0

> <s_epik_input>
W0NIMl09W0NIXVtDSDJdW0NIMl1TKD1PKSg9TylbTkhdW0NIMl1DMShbQ0gyXVtDSDJdMSljMltjSF1bY0hdbltjSF1bY0hdMg==

> <s_epik_cmdline>
J2VwaWtfcHl0aG9uJywgJy1waCcsICc3LjAnLCAnLXRuJywgJzgnLCAnLW1hJywgJzIwMCcsICctbWV0YWxfYmluZGluZycsICctaW1hZScsICc8aW5maWxlLm1hZT4nLCAnLW9tYWUnLCAnPG91dGZpbGUubWFlPic=

> <r_epik_Ionization_Penalty>
1.70311

> <r_epik_Ionization_Penalty_Charging>
1.7031

> <r_epik_Ionization_Penalty_Neutral>
1.31612e-05

> <r_epik_State_Penalty>
1.80925

> <r_epik_Charging_Adjusted_Penalty>
3.51235

> <i_epik_Tot_Q>
1

> <i_epik_Tot_abs_Q>
1

> <r_epik_Metal_State_Penalty>
1.86078

> <b_epik_Metal_Only>
0

> <s_lp_Force_Field>
OPLS_2005

> <r_lp_Energy>
15.9515

> <b_lp_Chiralities_Consistent>
1

> <s_lp_Variant>
AV-unprocessed.smi:2524-2

> <Gold.Version>
5.8.1

> <Gold.Id.Protein>
6NUR|6NUR_protein|mol2

> <Gold.PLP.Fitness>
40.9003

> <Gold.PLP.PLP>
-33.6806

> <Gold.PLP.part.hbond>
-1.7399

> <Gold.PLP.part.metal>
0.0000

> <Gold.PLP.part.buried>
-3.1074

> <Gold.PLP.part.nonpolar>
-29.5179

> <Gold.PLP.part.repulsive>
0.0203

> <Gold.PLP.ligand.clash>
0.0000

> <Gold.PLP.ligand.torsion>
1.2075

> <Gold.PLP.Chemscore.Hbond>
2.6873

> <Gold.PLP.Chemscore.CHOScore>
0.0000

> <Gold.PLP.Chemscore.Metal>
0.0000

> <Gold.Chemscore.Hbonds>
donor molecule, donor type, donor heavy atom, donor atom, acceptor molecule, acceptor atom, score
      L1  H    14    37       P1 10175  1.73
      P1  H  7997  8009       L1     7  0.89

> <Gold.PLP.Chemscore.Internal.Correction>
1.5728

> <Gold.Rescore>
     Score         DG    S(hbond)    S(metal)    S(lipo)     H(rot)  DE(clash)    DE(int)     intcor
     14.80     -16.29       1.91        0.00      81.12       1.97       0.16       1.33       ----

> <Gold.Chemscore.Fitness>
14.7994

> <Gold.Chemscore.DG>
-16.2888

> <Gold.Chemscore.ZeroCoef>
-5.4800

> <Gold.Chemscore.Hbond>
1.9079

> <Gold.Chemscore.Metal>
0.0000

> <Gold.Chemscore.Lipo>
81.1203

> <Gold.Chemscore.Internal_Hbond>
0.0000

> <Gold.Chemscore.DEClash>
0.1596

> <Gold.Chemscore.DEInternal>
1.3298

> <Gold.Chemscore.Rot>
1.9744

> <Gold.Chemscore.Internal.Correction>
   9.000000E+99

> <Gold.Chemscore.Hbonds>
donor molecule, donor type, donor heavy atom, donor atom, acceptor molecule, acceptor atom, score
      L1  H    14    37       P1 10175  0.29
      P1  H  7997  8009       L1     7  0.80

> <Gold.Chemscore.Hbond.Weighted>
-6.3723

> <Gold.Chemscore.Metal.Weighted>
-0.0000

> <Gold.Chemscore.Lipo.Weighted>
-9.4911

> <Gold.Chemscore.Internal_Hbond.Weighted>
0.0000

> <Gold.Chemscore.DEClash.Weighted>
0.1596

> <Gold.Chemscore.DEInternal.Weighted>
1.3298

> <Gold.Chemscore.Rot.Weighted>
5.0546

> <Gold.Chemscore.Internal.Correction.Weighted>
   9.000000E+99

> <Gold.Protein.RotatedTorsions>
[ 6907 6896 6895 6894 ] final   68.49 input  -60.11 | X-H torsion
[ 7974 7965 7964 7962 ] final  117.59 input  175.53 | X-H torsion
[ 8008 7997 7996 7995 ] final -171.44 input   59.86 | X-H torsion
[ 10167 10162 10161 10158 ] final  172.62 input  -65.29 | X-H torsion
[ 10718 10713 10712 10709 ] final    2.01 input   66.30 | X-H torsion
[ 10763 10752 10751 10750 ] final  -21.15 input  -60.55 | X-H torsion
[ 11005 11000 10999 10996 ] final -128.51 input  -57.11 | X-H torsion

> <Gold.Protein.ActiveResidues>
 VAL166  LYS551  ARG553  GLY616  TRP617  ASP618  TYR619  PRO620  LYS621  CYS622 
 ASP623  PHE694  ASN695  SER759  ASP760  ASP761  ALA762  ILE779  LEU786  VAL792 
 PHE793  MET794  SER795  GLU796  ALA797  LYS798  CYS799  TRP800  GLU811  SER814 

> <Gold.Protein.RotatedAtoms>
  152.4624  134.5154  159.9766 H   0  0  0  0  0  0  0  0  0  0  0  0  # atno 6907 bound_to 6896
  151.5200  133.3462  159.2907 H   0  0  0  0  0  0  0  0  0  0  0  0  # atno 6908 bound_to 6896
  150.8593  134.7969  159.7132 H   0  0  0  0  0  0  0  0  0  0  0  0  # atno 6909 bound_to 6896
  145.1655  139.3130  143.4495 H   0  0  0  0  0  0  0  0  0  0  0  0  # atno 7974 bound_to 7965
  155.9316  140.1092  157.1128 H   0  0  0  0  0  0  0  0  0  0  0  0  # atno 8008 bound_to 7997
  154.4072  140.1236  156.4876 H   0  0  0  0  0  0  0  0  0  0  0  0  # atno 8009 bound_to 7997
  155.7073  140.3471  155.4961 H   0  0  0  0  0  0  0  0  0  0  0  0  # atno 8010 bound_to 7997
  139.5082  144.3354  152.0071 H   0  0  0  0  0  0  0  0  0  0  0  0  # atno 10167 bound_to 10162
  156.8567  130.5572  149.5666 H   0  0  0  0  0  0  0  0  0  0  0  0  # atno 10718 bound_to 10713
  153.6316  135.6989  153.5273 H   0  0  0  0  0  0  0  0  0  0  0  0  # atno 10763 bound_to 10752
  153.2855  135.4173  155.1118 H   0  0  0  0  0  0  0  0  0  0  0  0  # atno 10764 bound_to 10752
  154.8520  135.3612  154.5859 H   0  0  0  0  0  0  0  0  0  0  0  0  # atno 10765 bound_to 10752
  140.9510  134.1066  157.4062 H   0  0  0  0  0  0  0  0  0  0  0  0  # atno 11005 bound_to 11000
  146.3476  140.1782  142.8589 LP  0  0  0  0  0  0  0  0  0  0  0  0  # atno 17320 bound_to 7965
  145.0286  140.8852  143.5123 LP  0  0  0  0  0  0  0  0  0  0  0  0  # atno 17321 bound_to 7965
  140.2792  144.3878  150.6124 LP  0  0  0  0  0  0  0  0  0  0  0  0  # atno 17342 bound_to 10162
  140.6030  143.2167  151.7034 LP  0  0  0  0  0  0  0  0  0  0  0  0  # atno 17343 bound_to 10162
  156.0799  130.5812  150.9543 LP  0  0  0  0  0  0  0  0  0  0  0  0  # atno 17370 bound_to 10713
  157.6273  131.0924  150.8509 LP  0  0  0  0  0  0  0  0  0  0  0  0  # atno 17371 bound_to 10713
  139.8847  135.0065  156.6388 LP  0  0  0  0  0  0  0  0  0  0  0  0  # atno 17394 bound_to 11000
  140.7603  133.8823  155.8413 LP  0  0  0  0  0  0  0  0  0  0  0  0  # atno 17395 bound_to 11000

$$$$
