AV-unprocessed.smi:620|AV-procd|sdf|3088|dock3
  -GOLD-   22720 0 13D 1   1.00000     0.00000
 Structure written by MMmdl.
 32 34  0  0  0  0  0  0  0  0  2 V2000
  146.4199  138.5470  152.1796 C   0  0  0  0  0  0  0  0  0  0  0  0
  147.3113  139.2320  153.1580 C   0  0  0  0  0  0  0  0  0  0  0  0
  148.2031  138.5822  153.9072 N   0  0  0  0  0  0  0  0  0  0  0  0
  148.9074  139.4394  154.7382 N   0  0  0  0  0  0  0  0  0  0  0  0
  148.5473  140.7304  154.6129 C   0  0  0  0  0  0  0  0  0  0  0  0
  149.0628  141.7767  155.2972 N   0  5  0  0  0  0  0  0  0  0  0  0
  150.0792  141.7086  156.1950 C   0  0  0  0  0  0  0  0  0  0  0  0
  150.6766  140.6990  156.5729 O   0  0  0  0  0  0  0  0  0  0  0  0
  150.4213  142.9091  156.6872 N   0  0  0  0  0  0  0  0  0  0  0  0
  151.4636  143.1976  157.6697 C   0  0  0  0  0  0  0  0  0  0  0  0
  151.3267  142.3273  158.9056 C   0  0  0  0  0  0  0  0  0  0  0  0
  152.4562  142.1828  159.8981 C   0  0  0  0  0  0  0  0  0  0  0  0
  152.0661  141.0159  159.0185 C   0  0  0  0  0  0  0  0  0  0  0  0
  151.4850  144.6662  158.0527 C   0  0  0  0  0  0  0  0  0  0  0  0
  152.2149  145.1372  159.2874 C   0  0  0  0  0  0  0  0  0  0  0  0
  150.7040  145.1837  159.2376 C   0  0  0  0  0  0  0  0  0  0  0  0
  147.2710  140.9660  153.4183 S   0  0  0  0  0  0  0  0  0  0  0  0
  146.6118  137.4735  152.1699 H   0  0  0  0  0  0  0  0  0  0  0  0
  146.5925  138.9420  151.1786 H   0  0  0  0  0  0  0  0  0  0  0  0
  145.3764  138.7128  152.4475 H   0  0  0  0  0  0  0  0  0  0  0  0
  149.9012  143.7028  156.3430 H   0  0  0  0  0  0  0  0  0  0  0  0
  152.4408  142.9740  157.2384 H   0  0  0  0  0  0  0  0  0  0  0  0
  150.3259  142.3404  159.3340 H   0  0  0  0  0  0  0  0  0  0  0  0
  153.3984  142.6800  159.6771 H   0  0  0  0  0  0  0  0  0  0  0  0
  152.1936  142.1288  160.9525 H   0  0  0  0  0  0  0  0  0  0  0  0
  151.5424  140.1841  159.4853 H   0  0  0  0  0  0  0  0  0  0  0  0
  152.7433  140.7463  158.2103 H   0  0  0  0  0  0  0  0  0  0  0  0
  151.5326  145.3352  157.1952 H   0  0  0  0  0  0  0  0  0  0  0  0
  152.6746  144.3817  159.9218 H   0  0  0  0  0  0  0  0  0  0  0  0
  152.7518  146.0813  159.2224 H   0  0  0  0  0  0  0  0  0  0  0  0
  150.2329  146.1594  159.1402 H   0  0  0  0  0  0  0  0  0  0  0  0
  150.1632  144.4635  159.8481 H   0  0  0  0  0  0  0  0  0  0  0  0
  1  2  1  0  0  0  0
  1 18  1  0  0  0  0
  1 19  1  0  0  0  0
  1 20  1  0  0  0  0
  2 17  1  0  0  0  0
  2  3  2  0  0  0  0
  3  4  1  0  0  0  0
  4  5  2  0  0  0  0
  5  6  1  0  0  0  0
  5 17  1  0  0  0  0
  6  7  1  0  0  0  0
  7  8  2  0  0  0  0
  7  9  1  0  0  0  0
  9 10  1  0  0  0  0
  9 21  1  0  0  0  0
 10 11  1  0  0  0  0
 10 14  1  0  0  0  0
 10 22  1  0  0  0  0
 11 13  1  0  0  0  0
 11 12  1  0  0  0  0
 11 23  1  0  0  0  0
 12 13  1  0  0  0  0
 12 24  1  0  0  0  0
 12 25  1  0  0  0  0
 13 26  1  0  0  0  0
 13 27  1  0  0  0  0
 14 16  1  0  0  0  0
 14 15  1  0  0  0  0
 14 28  1  0  0  0  0
 15 16  1  0  0  0  0
 15 29  1  0  0  0  0
 15 30  1  0  0  0  0
 16 31  1  0  0  0  0
 16 32  1  0  0  0  0
M  CHG  1   6  -1
M  END
> <s_m_source_file>
AV-unprocessed.smi

> <i_m_source_file_index>
620

> <i_lp_mmshare_version>
43012

> <i_f3d_flags>
0

> <s_epik_input>
W0NIM11jMW5uYyhzMSlbTkhdQyg9TylbTkhdW0NIXShbQ0hdMltDSDJdW0NIMl0yKVtDSF0zW0NIMl1bQ0gyXTM=

> <s_epik_cmdline>
J2VwaWtfcHl0aG9uJywgJy1waCcsICc3LjAnLCAnLXRuJywgJzgnLCAnLW1hJywgJzIwMCcsICctbWV0YWxfYmluZGluZycsICctaW1hZScsICc8aW5maWxlLm1hZT4nLCAnLW9tYWUnLCAnPG91dGZpbGUubWFlPic=

> <r_lp_tautomer_probability>
1

> <r_epik_Ionization_Penalty>
4.60723

> <r_epik_Ionization_Penalty_Charging>
4.45392

> <r_epik_Ionization_Penalty_Neutral>
0.153307

> <r_epik_State_Penalty>
4.4536

> <r_epik_Charging_Adjusted_Penalty>
8.90752

> <i_epik_Tot_Q>
-1

> <i_epik_Tot_abs_Q>
1

> <r_epik_Metal_State_Penalty>
0.796734

> <b_epik_Metal_Only>
1

> <s_lp_Force_Field>
OPLS_2005

> <r_lp_Energy>
26.5225

> <b_lp_Chiralities_Consistent>
1

> <s_lp_Variant>
AV-unprocessed.smi:620-2

> <Gold.Version>
5.8.1

> <Gold.Id.Protein>
6NUR|6NUR_protein|mol2

> <Gold.PLP.Fitness>
39.7742

> <Gold.PLP.PLP>
-36.9120

> <Gold.PLP.part.hbond>
-1.0000

> <Gold.PLP.part.metal>
0.0000

> <Gold.PLP.part.buried>
-5.5796

> <Gold.PLP.part.nonpolar>
-32.5071

> <Gold.PLP.part.repulsive>
1.6414

> <Gold.PLP.ligand.clash>
0.0000

> <Gold.PLP.ligand.torsion>
1.1445

> <Gold.PLP.Chemscore.Hbond>
1.0000

> <Gold.PLP.Chemscore.CHOScore>
0.0000

> <Gold.PLP.Chemscore.Metal>
0.0000

> <Gold.Chemscore.Hbonds>
donor molecule, donor type, donor heavy atom, donor atom, acceptor molecule, acceptor atom, score
      L1  H     9    21       P1  8028  1.00

> <Gold.PLP.Chemscore.Internal.Correction>
2.1512

> <Gold.Rescore>
     Score         DG    S(hbond)    S(metal)    S(lipo)     H(rot)  DE(clash)    DE(int)     intcor
     11.15     -16.65       1.00        0.00      97.94       1.41       0.14       5.37       ----

> <Gold.Chemscore.Fitness>
11.1465

> <Gold.Chemscore.DG>
-16.6510

> <Gold.Chemscore.ZeroCoef>
-5.4800

> <Gold.Chemscore.Hbond>
0.9966

> <Gold.Chemscore.Metal>
0.0000

> <Gold.Chemscore.Lipo>
97.9396

> <Gold.Chemscore.Internal_Hbond>
0.0000

> <Gold.Chemscore.DEClash>
0.1375

> <Gold.Chemscore.DEInternal>
5.3670

> <Gold.Chemscore.Rot>
1.4127

> <Gold.Chemscore.Internal.Correction>
   9.000000E+99

> <Gold.Chemscore.Hbonds>
donor molecule, donor type, donor heavy atom, donor atom, acceptor molecule, acceptor atom, score
      L1  H     9    21       P1  8028  0.98

> <Gold.Chemscore.Hbond.Weighted>
-3.3286

> <Gold.Chemscore.Metal.Weighted>
-0.0000

> <Gold.Chemscore.Lipo.Weighted>
-11.4589

> <Gold.Chemscore.Internal_Hbond.Weighted>
0.0000

> <Gold.Chemscore.DEClash.Weighted>
0.1375

> <Gold.Chemscore.DEInternal.Weighted>
5.3670

> <Gold.Chemscore.Rot.Weighted>
3.6165

> <Gold.Chemscore.Internal.Correction.Weighted>
   9.000000E+99

> <Gold.Protein.RotatedTorsions>
[ 6907 6896 6895 6894 ] final  102.28 input  -60.11 | X-H torsion
[ 7974 7965 7964 7962 ] final  156.67 input  175.53 | X-H torsion
[ 8008 7997 7996 7995 ] final  -38.70 input   59.86 | X-H torsion
[ 10167 10162 10161 10158 ] final   82.56 input  -65.29 | X-H torsion
[ 10718 10713 10712 10709 ] final  155.05 input   66.30 | X-H torsion
[ 10763 10752 10751 10750 ] final -155.76 input  -60.55 | X-H torsion
[ 11005 11000 10999 10996 ] final  131.85 input  -57.11 | X-H torsion

> <Gold.Protein.ActiveResidues>
 VAL166  LYS551  ARG553  GLY616  TRP617  ASP618  TYR619  PRO620  LYS621  CYS622 
 ASP623  PHE694  ASN695  SER759  ASP760  ASP761  ALA762  ILE779  LEU786  VAL792 
 PHE793  MET794  SER795  GLU796  ALA797  LYS798  CYS799  TRP800  GLU811  SER814 

> <Gold.Protein.RotatedAtoms>
  152.5328  133.9999  159.7889 H   0  0  0  0  0  0  0  0  0  0  0  0  # atno 6907 bound_to 6896
  151.0220  133.5860  159.2677 H   0  0  0  0  0  0  0  0  0  0  0  0  # atno 6908 bound_to 6896
  151.2896  135.0745  159.9253 H   0  0  0  0  0  0  0  0  0  0  0  0  # atno 6909 bound_to 6896
  144.7949  139.7235  143.6206 H   0  0  0  0  0  0  0  0  0  0  0  0  # atno 7974 bound_to 7965
  154.4033  140.1571  156.2742 H   0  0  0  0  0  0  0  0  0  0  0  0  # atno 8008 bound_to 7997
  155.8926  140.3438  155.5945 H   0  0  0  0  0  0  0  0  0  0  0  0  # atno 8009 bound_to 7997
  155.7540  140.0809  157.2178 H   0  0  0  0  0  0  0  0  0  0  0  0  # atno 8010 bound_to 7997
  139.9275  144.6173  150.8378 H   0  0  0  0  0  0  0  0  0  0  0  0  # atno 10167 bound_to 10162
  157.2235  131.0723  151.1897 H   0  0  0  0  0  0  0  0  0  0  0  0  # atno 10718 bound_to 10713
  154.7763  135.3160  154.8084 H   0  0  0  0  0  0  0  0  0  0  0  0  # atno 10763 bound_to 10752
  153.8807  135.6835  153.4771 H   0  0  0  0  0  0  0  0  0  0  0  0  # atno 10764 bound_to 10752
  153.1388  135.4748  154.9400 H   0  0  0  0  0  0  0  0  0  0  0  0  # atno 10765 bound_to 10752
  139.9755  134.9565  156.9497 H   0  0  0  0  0  0  0  0  0  0  0  0  # atno 11005 bound_to 11000
  146.2214  139.5642  142.9616 LP  0  0  0  0  0  0  0  0  0  0  0  0  # atno 17320 bound_to 7965
  145.5699  141.0395  143.2180 LP  0  0  0  0  0  0  0  0  0  0  0  0  # atno 17321 bound_to 7965
  140.7646  143.3253  151.2529 LP  0  0  0  0  0  0  0  0  0  0  0  0  # atno 17342 bound_to 10162
  139.6810  143.9855  152.2808 LP  0  0  0  0  0  0  0  0  0  0  0  0  # atno 17343 bound_to 10162
  157.3551  130.7102  149.6466 LP  0  0  0  0  0  0  0  0  0  0  0  0  # atno 17370 bound_to 10713
  155.9680  130.4241  150.4594 LP  0  0  0  0  0  0  0  0  0  0  0  0  # atno 17371 bound_to 10713
  140.5205  134.0913  155.7291 LP  0  0  0  0  0  0  0  0  0  0  0  0  # atno 17394 bound_to 11000
  141.1432  133.9102  157.2277 LP  0  0  0  0  0  0  0  0  0  0  0  0  # atno 17395 bound_to 11000

$$$$
