AV-unprocessed.smi:3226|AV-procd|sdf|12316|dock3
  -GOLD-   2272018163D 1   1.00000     0.00000
 Structure written by MMmdl.
 41 43  0  0  0  0  0  0  0  0  2 V2000
  153.9211  137.0329  164.6211 C   0  0  0  0  0  0  0  0  0  0  0  0
  155.0424  136.6105  163.6652 C   0  0  0  0  0  0  0  0  0  0  0  0
  154.5911  136.5570  162.2382 C   0  0  0  0  0  0  0  0  0  0  0  0
  154.4331  135.4139  161.5602 N   0  0  0  0  0  0  0  0  0  0  0  0
  153.9839  135.7814  160.3078 N   0  0  0  0  0  0  0  0  0  0  0  0
  153.9049  137.1097  160.3572 C   0  0  0  0  0  0  0  0  0  0  0  0
  154.2713  137.6585  161.5260 N   0  0  0  0  0  0  0  0  0  0  0  0
  154.2971  139.0647  161.8916 C   0  0  0  0  0  0  0  0  0  0  0  0
  154.0806  139.9885  160.6819 C   0  0  0  0  0  0  0  0  0  0  0  0
  153.7396  141.3639  161.0984 N   0  3  0  0  0  0  0  0  0  0  0  0
  153.5986  142.3139  159.9780 C   0  0  0  0  0  0  0  0  0  0  0  0
  152.2304  143.0197  160.0145 C   0  0  1  0  0  0  0  0  0  0  0  0
  152.1811  144.2577  160.9656 C   0  0  0  0  0  0  0  0  0  0  0  0
  151.6939  145.3958  160.0393 C   0  0  2  0  0  0  0  0  0  0  0  0
  150.2840  145.0715  159.5919 C   0  0  0  0  0  0  0  0  0  0  0  0
  150.3616  144.0318  158.7592 C   0  0  0  0  0  0  0  0  0  0  0  0
  151.8229  143.6462  158.6549 C   0  0  1  0  0  0  0  0  0  0  0  0
  152.4655  145.0353  158.7672 C   0  0  0  0  0  0  0  0  0  0  0  0
  154.2773  137.0590  165.6512 H   0  0  0  0  0  0  0  0  0  0  0  0
  153.0827  136.3369  164.5760 H   0  0  0  0  0  0  0  0  0  0  0  0
  153.5456  138.0261  164.3737 H   0  0  0  0  0  0  0  0  0  0  0  0
  155.8902  137.2884  163.7596 H   0  0  0  0  0  0  0  0  0  0  0  0
  155.4103  135.6240  163.9495 H   0  0  0  0  0  0  0  0  0  0  0  0
  153.5743  137.6997  159.5150 H   0  0  0  0  0  0  0  0  0  0  0  0
  153.5334  139.2436  162.6497 H   0  0  0  0  0  0  0  0  0  0  0  0
  155.2551  139.2838  162.3638 H   0  0  0  0  0  0  0  0  0  0  0  0
  154.9924  140.0176  160.0840 H   0  0  0  0  0  0  0  0  0  0  0  0
  153.2914  139.5969  160.0388 H   0  0  0  0  0  0  0  0  0  0  0  0
  152.8690  141.3390  161.6102 H   0  0  0  0  0  0  0  0  0  0  0  0
  154.4125  143.0385  160.0138 H   0  0  0  0  0  0  0  0  0  0  0  0
  153.7013  141.7646  159.0411 H   0  0  0  0  0  0  0  0  0  0  0  0
  151.4760  142.2880  160.3106 H   0  0  0  0  0  0  0  0  0  0  0  0
  151.5083  144.1014  161.8098 H   0  0  0  0  0  0  0  0  0  0  0  0
  153.1670  144.4938  161.3687 H   0  0  0  0  0  0  0  0  0  0  0  0
  151.8385  146.4132  160.4032 H   0  0  0  0  0  0  0  0  0  0  0  0
  149.3959  145.5878  159.9255 H   0  0  0  0  0  0  0  0  0  0  0  0
  149.5500  143.5150  158.2686 H   0  0  0  0  0  0  0  0  0  0  0  0
  152.0785  143.0797  157.7591 H   0  0  0  0  0  0  0  0  0  0  0  0
  152.2226  145.6856  157.9242 H   0  0  0  0  0  0  0  0  0  0  0  0
  153.5489  145.0231  158.8954 H   0  0  0  0  0  0  0  0  0  0  0  0
  154.4658  141.7034  161.7129 H   0  0  0  0  0  0  0  0  0  0  0  0
  1  2  1  0  0  0  0
  1 19  1  0  0  0  0
  1 20  1  0  0  0  0
  1 21  1  0  0  0  0
  2  3  1  0  0  0  0
  2 22  1  0  0  0  0
  2 23  1  0  0  0  0
  3  7  1  0  0  0  0
  3  4  2  0  0  0  0
  4  5  1  0  0  0  0
  5  6  2  0  0  0  0
  6  7  1  0  0  0  0
  6 24  1  0  0  0  0
  7  8  1  0  0  0  0
  8  9  1  0  0  0  0
  8 25  1  0  0  0  0
  8 26  1  0  0  0  0
  9 10  1  0  0  0  0
  9 27  1  0  0  0  0
  9 28  1  0  0  0  0
 10 11  1  0  0  0  0
 10 29  1  0  0  0  0
 10 41  1  0  0  0  0
 11 12  1  0  0  0  0
 11 30  1  0  0  0  0
 11 31  1  0  0  0  0
 12 17  1  0  0  0  0
 12 13  1  0  0  0  0
 12 32  1  0  0  0  0
 13 14  1  0  0  0  0
 13 33  1  0  0  0  0
 13 34  1  0  0  0  0
 14 18  1  0  0  0  0
 14 15  1  0  0  0  0
 14 35  1  0  0  0  0
 15 16  2  0  0  0  0
 15 36  1  0  0  0  0
 16 17  1  0  0  0  0
 16 37  1  0  0  0  0
 17 18  1  0  0  0  0
 17 38  1  0  0  0  0
 18 39  1  0  0  0  0
 18 40  1  0  0  0  0
M  CHG  1  10   1
M  END
> <s_m_source_file>
AV-unprocessed.smi

> <i_m_source_file_index>
3226

> <i_lp_mmshare_version>
43012

> <i_f3d_flags>
0

> <s_epik_input>
W0NIM11bQ0gyXWMxbm5bY0hdbjFbQ0gyXVtDSDJdW05IXVtDSDJdW0NASF0oW0NIMl1bQ0BASF0yMylbQ0BASF0oW0NIMl0zKVtDSF09W0NIXTI=

> <s_epik_cmdline>
J2VwaWtfcHl0aG9uJywgJy1waCcsICc3LjAnLCAnLXRuJywgJzgnLCAnLW1hJywgJzIwMCcsICctbWV0YWxfYmluZGluZycsICctaW1hZScsICc8aW5maWxlLm1hZT4nLCAnLW9tYWUnLCAnPG91dGZpbGUubWFlPic=

> <r_lp_tautomer_probability>
1

> <r_epik_Ionization_Penalty>
0.00175008

> <r_epik_Ionization_Penalty_Charging>
0.00173932

> <r_epik_Ionization_Penalty_Neutral>
1.07546e-05

> <r_epik_State_Penalty>
-0

> <r_epik_Charging_Adjusted_Penalty>
0.00173932

> <i_epik_Tot_Q>
1

> <i_epik_Tot_abs_Q>
1

> <r_epik_Metal_State_Penalty>
-0

> <b_epik_Metal_Only>
0

> <s_lp_Force_Field>
OPLS_2005

> <r_lp_Energy>
64.6894

> <b_lp_Chiralities_Consistent>
1

> <s_lp_Variant>
AV-unprocessed.smi:3226-4

> <Gold.Version>
5.8.1

> <Gold.Id.Protein>
6NUR|6NUR_protein|mol2

> <Gold.PLP.Fitness>
47.8663

> <Gold.PLP.PLP>
-46.4191

> <Gold.PLP.part.hbond>
-1.0000

> <Gold.PLP.part.metal>
0.0000

> <Gold.PLP.part.buried>
-6.3715

> <Gold.PLP.part.nonpolar>
-39.2232

> <Gold.PLP.part.repulsive>
0.0250

> <Gold.PLP.ligand.clash>
0.0000

> <Gold.PLP.ligand.torsion>
0.8300

> <Gold.PLP.Chemscore.Hbond>
1.0000

> <Gold.PLP.Chemscore.CHOScore>
0.0000

> <Gold.PLP.Chemscore.Metal>
0.0000

> <Gold.Chemscore.Hbonds>
donor molecule, donor type, donor heavy atom, donor atom, acceptor molecule, acceptor atom, score
      P1  H  6896  6907       L1     5  1.00

> <Gold.PLP.Chemscore.Internal.Correction>
0.1072

> <Gold.Rescore>
     Score         DG    S(hbond)    S(metal)    S(lipo)     H(rot)  DE(clash)    DE(int)     intcor
     16.99     -17.85       0.92        0.00     124.67       2.06       0.03       0.83       ----

> <Gold.Chemscore.Fitness>
16.9873

> <Gold.Chemscore.DG>
-17.8459

> <Gold.Chemscore.ZeroCoef>
-5.4800

> <Gold.Chemscore.Hbond>
0.9160

> <Gold.Chemscore.Metal>
0.0000

> <Gold.Chemscore.Lipo>
124.6686

> <Gold.Chemscore.Internal_Hbond>
0.0000

> <Gold.Chemscore.DEClash>
0.0277

> <Gold.Chemscore.DEInternal>
0.8309

> <Gold.Chemscore.Rot>
2.0623

> <Gold.Chemscore.Internal.Correction>
   9.000000E+99

> <Gold.Chemscore.Hbonds>
donor molecule, donor type, donor heavy atom, donor atom, acceptor molecule, acceptor atom, score
      P1  H  6896  6907       L1     5  0.39

> <Gold.Chemscore.Hbond.Weighted>
-3.0593

> <Gold.Chemscore.Metal.Weighted>
-0.0000

> <Gold.Chemscore.Lipo.Weighted>
-14.5862

> <Gold.Chemscore.Internal_Hbond.Weighted>
0.0000

> <Gold.Chemscore.DEClash.Weighted>
0.0277

> <Gold.Chemscore.DEInternal.Weighted>
0.8309

> <Gold.Chemscore.Rot.Weighted>
5.2796

> <Gold.Chemscore.Internal.Correction.Weighted>
   9.000000E+99

> <Gold.Protein.RotatedTorsions>
[ 6907 6896 6895 6894 ] final   67.88 input  -60.11 | X-H torsion
[ 7974 7965 7964 7962 ] final   46.78 input  175.53 | X-H torsion
[ 8008 7997 7996 7995 ] final  -16.43 input   59.86 | X-H torsion
[ 10167 10162 10161 10158 ] final -163.63 input  -65.29 | X-H torsion
[ 10718 10713 10712 10709 ] final  -27.26 input   66.30 | X-H torsion
[ 10763 10752 10751 10750 ] final  -56.57 input  -60.55 | X-H torsion
[ 11005 11000 10999 10996 ] final  121.67 input  -57.11 | X-H torsion

> <Gold.Protein.ActiveResidues>
 VAL166  LYS551  ARG553  GLY616  TRP617  ASP618  TYR619  PRO620  LYS621  CYS622 
 ASP623  PHE694  ASN695  SER759  ASP760  ASP761  ALA762  ILE779  LEU786  VAL792 
 PHE793  MET794  SER795  GLU796  ALA797  LYS798  CYS799  TRP800  GLU811  SER814 

> <Gold.Protein.RotatedAtoms>
  152.4582  134.5243  159.9791 H   0  0  0  0  0  0  0  0  0  0  0  0  # atno 6907 bound_to 6896
  151.5299  133.3445  159.2924 H   0  0  0  0  0  0  0  0  0  0  0  0  # atno 6908 bound_to 6896
  150.8535  134.7897  159.7090 H   0  0  0  0  0  0  0  0  0  0  0  0  # atno 6909 bound_to 6896
  146.0359  139.4819  142.9809 H   0  0  0  0  0  0  0  0  0  0  0  0  # atno 7974 bound_to 7965
  154.5053  140.2169  155.9263 H   0  0  0  0  0  0  0  0  0  0  0  0  # atno 8008 bound_to 7997
  156.1486  140.3166  155.8578 H   0  0  0  0  0  0  0  0  0  0  0  0  # atno 8009 bound_to 7997
  155.3983  140.0482  157.3028 H   0  0  0  0  0  0  0  0  0  0  0  0  # atno 8010 bound_to 7997
  139.6307  144.0446  152.2013 H   0  0  0  0  0  0  0  0  0  0  0  0  # atno 10167 bound_to 10162
  156.4404  130.4463  149.7056 H   0  0  0  0  0  0  0  0  0  0  0  0  # atno 10718 bound_to 10713
  154.2088  135.6398  153.5109 H   0  0  0  0  0  0  0  0  0  0  0  0  # atno 10763 bound_to 10752
  152.9994  135.5469  154.6237 H   0  0  0  0  0  0  0  0  0  0  0  0  # atno 10764 bound_to 10752
  154.5669  135.2913  155.0839 H   0  0  0  0  0  0  0  0  0  0  0  0  # atno 10765 bound_to 10752
  139.9235  134.9639  156.7993 H   0  0  0  0  0  0  0  0  0  0  0  0  # atno 11005 bound_to 11000
  145.6965  141.0149  143.1527 LP  0  0  0  0  0  0  0  0  0  0  0  0  # atno 17320 bound_to 7965
  144.7051  139.8594  143.7432 LP  0  0  0  0  0  0  0  0  0  0  0  0  # atno 17321 bound_to 7965
  140.0110  144.6224  150.7647 LP  0  0  0  0  0  0  0  0  0  0  0  0  # atno 17342 bound_to 10162
  140.7437  143.2850  151.3489 LP  0  0  0  0  0  0  0  0  0  0  0  0  # atno 17343 bound_to 10162
  156.3923  130.7633  151.2635 LP  0  0  0  0  0  0  0  0  0  0  0  0  # atno 17370 bound_to 10713
  157.7506  131.0264  150.3961 LP  0  0  0  0  0  0  0  0  0  0  0  0  # atno 17371 bound_to 10713
  140.6403  133.9824  155.7704 LP  0  0  0  0  0  0  0  0  0  0  0  0  # atno 17394 bound_to 11000
  141.0775  134.0112  157.3435 LP  0  0  0  0  0  0  0  0  0  0  0  0  # atno 17395 bound_to 11000

$$$$
