AV-unprocessed.smi:652|AV-procd|sdf|3196|dock6
  -GOLD-   22720 0123D 1   1.00000     0.00000
 Structure written by MMmdl.
 47 48  0  0  0  0  0  0  0  0  1 V2000
  147.3454  135.7591  162.7437 C   0  0  0  0  0  0  0  0  0  0  0  0
  147.1500  134.8762  161.5009 C   0  0  0  0  0  0  0  0  0  0  0  0
  147.3013  133.3860  161.8338 C   0  0  0  0  0  0  0  0  0  0  0  0
  148.1087  135.2414  160.4627 N   0  0  0  0  0  0  0  0  0  0  0  0
  148.2994  136.4793  159.9804 C   0  0  0  0  0  0  0  0  0  0  0  0
  147.6581  137.4607  160.3562 O   0  0  0  0  0  0  0  0  0  0  0  0
  149.3847  136.6340  158.9104 C   0  0  0  0  0  0  0  0  0  0  0  0
  148.8670  137.2812  157.6083 C   0  0  0  0  0  0  0  0  0  0  0  0
  149.8643  137.9999  156.8118 N   0  0  0  0  0  0  0  0  0  0  0  0
  149.7593  137.7084  155.3849 C   0  0  0  0  0  0  0  0  0  0  0  0
  150.7987  138.4909  154.5662 C   0  0  0  0  0  0  0  0  0  0  0  0
  150.6511  139.8826  154.8227 O   0  0  0  0  0  0  0  0  0  0  0  0
  150.8118  140.2195  156.1987 C   0  0  1  0  0  0  0  0  0  0  0  0
  150.6448  141.7392  156.3683 C   0  0  0  0  0  0  0  0  0  0  0  0
  150.1075  142.0965  157.6765 N   0  0  0  0  0  0  0  0  0  0  0  0
  150.7408  143.0523  158.4842 C   0  0  0  0  0  0  0  0  0  0  0  0
  151.6917  143.9121  157.8990 C   0  0  0  0  0  0  0  0  0  0  0  0
  152.3155  144.8589  158.7298 C   0  0  0  0  0  0  0  0  0  0  0  0
  151.9421  144.8727  160.0858 C   0  0  0  0  0  0  0  0  0  0  0  0
  151.0256  144.0206  160.5972 N   0  0  0  0  0  0  0  0  0  0  0  0
  150.4340  143.1197  159.8045 N   0  0  0  0  0  0  0  0  0  0  0  0
  149.7591  139.4408  157.0123 C   0  0  0  0  0  0  0  0  0  0  0  0
  146.6361  135.4931  163.5278 H   0  0  0  0  0  0  0  0  0  0  0  0
  147.1928  136.8131  162.5086 H   0  0  0  0  0  0  0  0  0  0  0  0
  148.3503  135.6523  163.1533 H   0  0  0  0  0  0  0  0  0  0  0  0
  146.1382  135.0297  161.1212 H   0  0  0  0  0  0  0  0  0  0  0  0
  146.5781  133.0788  162.5896 H   0  0  0  0  0  0  0  0  0  0  0  0
  148.2978  133.1625  162.2165 H   0  0  0  0  0  0  0  0  0  0  0  0
  147.1363  132.7675  160.9508 H   0  0  0  0  0  0  0  0  0  0  0  0
  148.6833  134.4978  160.0936 H   0  0  0  0  0  0  0  0  0  0  0  0
  150.2251  137.2035  159.3089 H   0  0  0  0  0  0  0  0  0  0  0  0
  149.7782  135.6423  158.6858 H   0  0  0  0  0  0  0  0  0  0  0  0
  148.3935  136.5141  156.9941 H   0  0  0  0  0  0  0  0  0  0  0  0
  148.0676  137.9729  157.8781 H   0  0  0  0  0  0  0  0  0  0  0  0
  149.9015  136.6433  155.2044 H   0  0  0  0  0  0  0  0  0  0  0  0
  148.7583  137.9569  155.0286 H   0  0  0  0  0  0  0  0  0  0  0  0
  151.8111  138.1713  154.8181 H   0  0  0  0  0  0  0  0  0  0  0  0
  150.6599  138.3079  153.5008 H   0  0  0  0  0  0  0  0  0  0  0  0
  151.8101  139.9265  156.5300 H   0  0  0  0  0  0  0  0  0  0  0  0
  151.5813  142.2596  156.1641 H   0  0  0  0  0  0  0  0  0  0  0  0
  149.9331  142.1031  155.6270 H   0  0  0  0  0  0  0  0  0  0  0  0
  149.4667  141.4498  158.1127 H   0  0  0  0  0  0  0  0  0  0  0  0
  151.9350  143.8510  156.8483 H   0  0  0  0  0  0  0  0  0  0  0  0
  153.0514  145.5483  158.3432 H   0  0  0  0  0  0  0  0  0  0  0  0
  152.3867  145.5768  160.7735 H   0  0  0  0  0  0  0  0  0  0  0  0
  148.7601  139.7799  156.7328 H   0  0  0  0  0  0  0  0  0  0  0  0
  149.8811  139.6726  158.0710 H   0  0  0  0  0  0  0  0  0  0  0  0
  1  2  1  0  0  0  0
  1 23  1  0  0  0  0
  1 24  1  0  0  0  0
  1 25  1  0  0  0  0
  2  3  1  0  0  0  0
  2  4  1  0  0  0  0
  2 26  1  0  0  0  0
  3 27  1  0  0  0  0
  3 28  1  0  0  0  0
  3 29  1  0  0  0  0
  4  5  1  0  0  0  0
  4 30  1  0  0  0  0
  5  6  2  0  0  0  0
  5  7  1  0  0  0  0
  7  8  1  0  0  0  0
  7 31  1  0  0  0  0
  7 32  1  0  0  0  0
  8  9  1  0  0  0  0
  8 33  1  0  0  0  0
  8 34  1  0  0  0  0
  9 22  1  0  0  0  0
  9 10  1  0  0  0  0
 10 11  1  0  0  0  0
 10 35  1  0  0  0  0
 10 36  1  0  0  0  0
 11 12  1  0  0  0  0
 11 37  1  0  0  0  0
 11 38  1  0  0  0  0
 12 13  1  0  0  0  0
 13 14  1  0  0  0  0
 13 22  1  0  0  0  0
 13 39  1  0  0  0  0
 14 15  1  0  0  0  0
 14 40  1  0  0  0  0
 14 41  1  0  0  0  0
 15 16  1  0  0  0  0
 15 42  1  0  0  0  0
 16 21  1  0  0  0  0
 16 17  2  0  0  0  0
 17 18  1  0  0  0  0
 17 43  1  0  0  0  0
 18 19  2  0  0  0  0
 18 44  1  0  0  0  0
 19 20  1  0  0  0  0
 19 45  1  0  0  0  0
 20 21  2  0  0  0  0
 22 46  1  0  0  0  0
 22 47  1  0  0  0  0
M  END
> <s_m_source_file>
AV-unprocessed.smi

> <i_m_source_file_index>
652

> <i_lp_mmshare_version>
43012

> <i_f3d_flags>
0

> <s_epik_input>
W0NIM11bQ0hdKFtDSDNdKVtOSF1DKD1PKVtDSDJdW0NIMl1OMVtDSDJdW0NIMl1PW0NASF0oW0NIMl0xKVtDSDJdW05IXWMyW2NIXVtjSF1bY0hdbm4y

> <s_epik_cmdline>
J2VwaWtfcHl0aG9uJywgJy1waCcsICc3LjAnLCAnLXRuJywgJzgnLCAnLW1hJywgJzIwMCcsICctbWV0YWxfYmluZGluZycsICctaW1hZScsICc8aW5maWxlLm1hZT4nLCAnLW9tYWUnLCAnPG91dGZpbGUubWFlPic=

> <r_lp_tautomer_probability>
0.999978

> <r_epik_Ionization_Penalty>
0.428793

> <r_epik_Ionization_Penalty_Charging>
0

> <r_epik_Ionization_Penalty_Neutral>
0.428793

> <r_epik_State_Penalty>
0.437051

> <r_epik_Charging_Adjusted_Penalty>
0.437051

> <i_epik_Tot_Q>
0

> <i_epik_Tot_abs_Q>
0

> <r_epik_Metal_State_Penalty>
0.432371

> <b_epik_Metal_Only>
0

> <s_lp_Force_Field>
OPLS_2005

> <r_lp_Energy>
21.7245

> <b_lp_Chiralities_Consistent>
1

> <s_lp_Variant>
AV-unprocessed.smi:652-5

> <Gold.Version>
5.8.1

> <Gold.Id.Protein>
6NUR|6NUR_protein|mol2

> <Gold.PLP.Fitness>
49.3118

> <Gold.PLP.PLP>
-44.9724

> <Gold.PLP.part.hbond>
-4.0000

> <Gold.PLP.part.metal>
0.0000

> <Gold.PLP.part.buried>
-6.6800

> <Gold.PLP.part.nonpolar>
-35.7375

> <Gold.PLP.part.repulsive>
0.4247

> <Gold.PLP.ligand.clash>
0.0000

> <Gold.PLP.ligand.torsion>
1.2731

> <Gold.PLP.Chemscore.Hbond>
2.2372

> <Gold.PLP.Chemscore.CHOScore>
0.0000

> <Gold.PLP.Chemscore.Metal>
0.0000

> <Gold.Chemscore.Hbonds>
donor molecule, donor type, donor heavy atom, donor atom, acceptor molecule, acceptor atom, score
      P1  H  6931  6943       L1     6  0.33
      P1  H  6934  6947       L1     6  0.88
      P1  H  7989  7998       L1    12  1.00

> <Gold.PLP.Chemscore.Internal.Correction>
0.1740

> <Gold.Rescore>
     Score         DG    S(hbond)    S(metal)    S(lipo)     H(rot)  DE(clash)    DE(int)     intcor
     17.58     -18.90       2.36        0.00      95.53       2.20       0.00       1.32       ----

> <Gold.Chemscore.Fitness>
17.5820

> <Gold.Chemscore.DG>
-18.9010

> <Gold.Chemscore.ZeroCoef>
-5.4800

> <Gold.Chemscore.Hbond>
2.3591

> <Gold.Chemscore.Metal>
0.0000

> <Gold.Chemscore.Lipo>
95.5315

> <Gold.Chemscore.Internal_Hbond>
0.0000

> <Gold.Chemscore.DEClash>
0.0030

> <Gold.Chemscore.DEInternal>
1.3160

> <Gold.Chemscore.Rot>
2.2013

> <Gold.Chemscore.Internal.Correction>
   9.000000E+99

> <Gold.Chemscore.Hbonds>
donor molecule, donor type, donor heavy atom, donor atom, acceptor molecule, acceptor atom, score
      P1  H  6931  6943       L1     6  0.09
      P1  H  6934  6947       L1     6  0.87
      P1  H  7989  7998       L1    12  0.67

> <Gold.Chemscore.Hbond.Weighted>
-7.8793

> <Gold.Chemscore.Metal.Weighted>
-0.0000

> <Gold.Chemscore.Lipo.Weighted>
-11.1772

> <Gold.Chemscore.Internal_Hbond.Weighted>
0.0000

> <Gold.Chemscore.DEClash.Weighted>
0.0030

> <Gold.Chemscore.DEInternal.Weighted>
1.3160

> <Gold.Chemscore.Rot.Weighted>
5.6354

> <Gold.Chemscore.Internal.Correction.Weighted>
   9.000000E+99

> <Gold.Protein.RotatedTorsions>
[ 6907 6896 6895 6894 ] final -113.74 input  -60.11 | X-H torsion
[ 7974 7965 7964 7962 ] final -149.96 input  175.53 | X-H torsion
[ 8008 7997 7996 7995 ] final  -62.21 input   59.86 | X-H torsion
[ 10167 10162 10161 10158 ] final   81.10 input  -65.29 | X-H torsion
[ 10718 10713 10712 10709 ] final  107.96 input   66.30 | X-H torsion
[ 10763 10752 10751 10750 ] final   34.15 input  -60.55 | X-H torsion
[ 11005 11000 10999 10996 ] final  -37.30 input  -57.11 | X-H torsion

> <Gold.Protein.ActiveResidues>
 VAL166  LYS551  ARG553  GLY616  TRP617  ASP618  TYR619  PRO620  LYS621  CYS622 
 ASP623  PHE694  ASN695  SER759  ASP760  ASP761  ALA762  ILE779  LEU786  VAL792 
 PHE793  MET794  SER795  GLU796  ALA797  LYS798  CYS799  TRP800  GLU811  SER814 

> <Gold.Protein.RotatedAtoms>
  150.7851  133.8902  159.3310 H   0  0  0  0  0  0  0  0  0  0  0  0  # atno 6907 bound_to 6896
  151.6754  135.0968  160.0215 H   0  0  0  0  0  0  0  0  0  0  0  0  # atno 6908 bound_to 6896
  152.3912  133.6643  159.6275 H   0  0  0  0  0  0  0  0  0  0  0  0  # atno 6909 bound_to 6896
  144.7936  140.4996  143.5755 H   0  0  0  0  0  0  0  0  0  0  0  0  # atno 7974 bound_to 7965
  154.4488  140.1001  156.6552 H   0  0  0  0  0  0  0  0  0  0  0  0  # atno 8008 bound_to 7997
  155.5354  140.3482  155.4416 H   0  0  0  0  0  0  0  0  0  0  0  0  # atno 8009 bound_to 7997
  156.0635  140.1332  156.9902 H   0  0  0  0  0  0  0  0  0  0  0  0  # atno 8010 bound_to 7997
  139.9428  144.6078  150.8236 H   0  0  0  0  0  0  0  0  0  0  0  0  # atno 10167 bound_to 10162
  157.6606  131.0884  150.6234 H   0  0  0  0  0  0  0  0  0  0  0  0  # atno 10718 bound_to 10713
  153.0178  135.6368  154.1623 H   0  0  0  0  0  0  0  0  0  0  0  0  # atno 10763 bound_to 10752
  154.1360  135.2837  155.3174 H   0  0  0  0  0  0  0  0  0  0  0  0  # atno 10764 bound_to 10752
  154.6159  135.5541  153.7584 H   0  0  0  0  0  0  0  0  0  0  0  0  # atno 10765 bound_to 10752
  140.9941  133.6989  156.1903 H   0  0  0  0  0  0  0  0  0  0  0  0  # atno 11005 bound_to 11000
  145.5731  139.1484  143.3277 LP  0  0  0  0  0  0  0  0  0  0  0  0  # atno 17320 bound_to 7965
  146.2197  140.5863  142.9023 LP  0  0  0  0  0  0  0  0  0  0  0  0  # atno 17321 bound_to 7965
  140.7606  143.3155  151.2744 LP  0  0  0  0  0  0  0  0  0  0  0  0  # atno 17342 bound_to 10162
  139.6691  144.0052  152.2742 LP  0  0  0  0  0  0  0  0  0  0  0  0  # atno 17343 bound_to 10162
  156.6537  130.4492  149.5710 LP  0  0  0  0  0  0  0  0  0  0  0  0  # atno 17370 bound_to 10713
  156.2118  130.6683  151.1277 LP  0  0  0  0  0  0  0  0  0  0  0  0  # atno 17371 bound_to 10713
  140.6994  134.4581  157.5586 LP  0  0  0  0  0  0  0  0  0  0  0  0  # atno 17394 bound_to 11000
  139.9006  134.8565  156.1912 LP  0  0  0  0  0  0  0  0  0  0  0  0  # atno 17395 bound_to 11000

$$$$
