AV-unprocessed.smi:1605|AV-procd|sdf|6455|dock4
  -GOLD-   22720 7113D 1   1.00000     0.00000
 Structure written by MMmdl.
 52 54  0  0  0  0  0  0  0  0  3 V2000
  146.8974  132.0102  155.3969 C   0  0  0  0  0  0  0  0  0  0  0  0
  146.7051  133.3947  155.1499 O   0  0  0  0  0  0  0  0  0  0  0  0
  147.8299  134.2069  155.4590 C   0  0  2  0  0  0  0  0  0  0  0  0
  147.4385  135.6678  155.1930 C   0  0  0  0  0  0  0  0  0  0  0  0
  148.6320  136.6124  155.4104 C   0  0  0  0  0  0  0  0  0  0  0  0
  149.7817  136.2260  154.5501 N   0  3  1  0  0  0  0  0  0  0  0  0
  150.9205  137.1780  154.6220 C   0  0  0  0  0  0  0  0  0  0  0  0
  150.4741  138.6270  154.9032 C   0  0  2  0  0  0  0  0  0  0  0  0
  150.8500  139.4352  153.8053 O   0  0  0  0  0  0  0  0  0  0  0  0
  151.1154  139.1737  156.1946 C   0  0  0  0  0  0  0  0  0  0  0  0
  150.7379  140.5652  156.4850 N   0  0  0  0  0  0  0  0  0  0  0  0
  149.8223  141.3632  155.8704 C   0  0  0  0  0  0  0  0  0  0  0  0
  149.8254  142.5636  156.5131 N   0  3  0  0  0  0  0  0  0  0  0  0
  150.7552  142.5329  157.5544 C   0  0  0  0  0  0  0  0  0  0  0  0
  151.1162  143.5040  158.4810 C   0  0  0  0  0  0  0  0  0  0  0  0
  152.1106  143.1584  159.4235 C   0  0  0  0  0  0  0  0  0  0  0  0
  152.5296  144.1973  160.4498 C   0  0  0  0  0  0  0  0  0  0  0  0
  152.7069  141.8708  159.4161 C   0  0  0  0  0  0  0  0  0  0  0  0
  153.7779  141.5102  160.4316 C   0  0  0  0  0  0  0  0  0  0  0  0
  152.3241  140.8964  158.4670 C   0  0  0  0  0  0  0  0  0  0  0  0
  151.3440  141.2534  157.5437 C   0  0  0  0  0  0  0  0  0  0  0  0
  150.2042  134.8247  154.8060 C   0  0  0  0  0  0  0  0  0  0  0  0
  149.0431  133.8408  154.5840 C   0  0  0  0  0  0  0  0  0  0  0  0
  145.9774  131.4711  155.1711 H   0  0  0  0  0  0  0  0  0  0  0  0
  147.1436  131.8253  156.4432 H   0  0  0  0  0  0  0  0  0  0  0  0
  147.6856  131.5909  154.7722 H   0  0  0  0  0  0  0  0  0  0  0  0
  148.0857  134.1030  156.5154 H   0  0  0  0  0  0  0  0  0  0  0  0
  147.0734  135.7722  154.1700 H   0  0  0  0  0  0  0  0  0  0  0  0
  146.6143  135.9565  155.8462 H   0  0  0  0  0  0  0  0  0  0  0  0
  148.3174  137.6319  155.1916 H   0  0  0  0  0  0  0  0  0  0  0  0
  148.9367  136.5950  156.4581 H   0  0  0  0  0  0  0  0  0  0  0  0
  151.6250  136.8382  155.3830 H   0  0  0  0  0  0  0  0  0  0  0  0
  151.4679  137.1669  153.6778 H   0  0  0  0  0  0  0  0  0  0  0  0
  149.3910  138.6811  155.0079 H   0  0  0  0  0  0  0  0  0  0  0  0
  150.1589  139.4077  153.1607 H   0  0  0  0  0  0  0  0  0  0  0  0
  150.7936  138.5738  157.0470 H   0  0  0  0  0  0  0  0  0  0  0  0
  152.2026  139.0957  156.1633 H   0  0  0  0  0  0  0  0  0  0  0  0
  149.2014  141.0931  155.0283 H   0  0  0  0  0  0  0  0  0  0  0  0
  150.6569  144.4818  158.4816 H   0  0  0  0  0  0  0  0  0  0  0  0
  152.2882  143.8569  161.4568 H   0  0  0  0  0  0  0  0  0  0  0  0
  152.0191  145.1470  160.2875 H   0  0  0  0  0  0  0  0  0  0  0  0
  153.6024  144.3831  160.3935 H   0  0  0  0  0  0  0  0  0  0  0  0
  154.0962  140.4728  160.3241 H   0  0  0  0  0  0  0  0  0  0  0  0
  153.4044  141.6385  161.4479 H   0  0  0  0  0  0  0  0  0  0  0  0
  154.6554  142.1437  160.3011 H   0  0  0  0  0  0  0  0  0  0  0  0
  152.7823  139.9185  158.4618 H   0  0  0  0  0  0  0  0  0  0  0  0
  151.0256  134.5592  154.1394 H   0  0  0  0  0  0  0  0  0  0  0  0
  150.5824  134.7373  155.8259 H   0  0  0  0  0  0  0  0  0  0  0  0
  149.3851  132.8296  154.8028 H   0  0  0  0  0  0  0  0  0  0  0  0
  148.7540  133.8492  153.5319 H   0  0  0  0  0  0  0  0  0  0  0  0
  149.4574  136.2500  153.5933 H   0  0  0  0  0  0  0  0  0  0  0  0
  149.2331  143.3442  156.2598 H   0  0  0  0  0  0  0  0  0  0  0  0
  1  2  1  0  0  0  0
  1 24  1  0  0  0  0
  1 25  1  0  0  0  0
  1 26  1  0  0  0  0
  2  3  1  0  0  0  0
  3 23  1  0  0  0  0
  3  4  1  0  0  0  0
  3 27  1  0  0  0  0
  4  5  1  0  0  0  0
  4 28  1  0  0  0  0
  4 29  1  0  0  0  0
  5  6  1  0  0  0  0
  5 30  1  0  0  0  0
  5 31  1  0  0  0  0
  6  7  1  0  0  0  0
  6 22  1  0  0  0  0
  6 51  1  0  0  0  0
  7  8  1  0  0  0  0
  7 32  1  0  0  0  0
  7 33  1  0  0  0  0
  8  9  1  0  0  0  0
  8 10  1  0  0  0  0
  8 34  1  0  0  0  0
  9 35  1  0  0  0  0
 10 11  1  0  0  0  0
 10 36  1  0  0  0  0
 10 37  1  0  0  0  0
 11 21  1  0  0  0  0
 11 12  1  0  0  0  0
 12 13  2  0  0  0  0
 12 38  1  0  0  0  0
 13 14  1  0  0  0  0
 13 52  1  0  0  0  0
 14 21  2  0  0  0  0
 14 15  1  0  0  0  0
 15 16  2  0  0  0  0
 15 39  1  0  0  0  0
 16 17  1  0  0  0  0
 16 18  1  0  0  0  0
 17 40  1  0  0  0  0
 17 41  1  0  0  0  0
 17 42  1  0  0  0  0
 18 19  1  0  0  0  0
 18 20  2  0  0  0  0
 19 43  1  0  0  0  0
 19 44  1  0  0  0  0
 19 45  1  0  0  0  0
 20 21  1  0  0  0  0
 20 46  1  0  0  0  0
 22 23  1  0  0  0  0
 22 47  1  0  0  0  0
 22 48  1  0  0  0  0
 23 49  1  0  0  0  0
 23 50  1  0  0  0  0
M  CHG  1   6   1
M  CHG  1  13   1
M  END
> <s_m_source_file>
AV-unprocessed.smi

> <i_m_source_file_index>
1605

> <i_lp_mmshare_version>
43012

> <i_f3d_flags>
0

> <s_epik_input>
W0NIM11PW0NIXTFbQ0gyXVtDSDJdTihbQ0gyXVtDSDJdMSlbQ0gyXVtDQEhdKFtPSF0pW0NIMl1uKFtjSF1uMiljKGMyMylbY0hdYyhbQ0gzXSljKFtjSF0zKVtDSDNd

> <s_epik_cmdline>
J2VwaWtfcHl0aG9uJywgJy1waCcsICc3LjAnLCAnLXRuJywgJzgnLCAnLW1hJywgJzIwMCcsICctbWV0YWxfYmluZGluZycsICctaW1hZScsICc8aW5maWxlLm1hZT4nLCAnLW9tYWUnLCAnPG91dGZpbGUubWFlPic=

> <r_epik_Ionization_Penalty>
1.19848

> <r_epik_Ionization_Penalty_Charging>
1.19848

> <r_epik_Ionization_Penalty_Neutral>
1.67134e-06

> <r_epik_State_Penalty>
1.2782

> <r_epik_Charging_Adjusted_Penalty>
2.47668

> <i_epik_Tot_Q>
2

> <i_epik_Tot_abs_Q>
2

> <r_epik_Metal_State_Penalty>
5.29544

> <b_epik_Metal_Only>
0

> <s_lp_Force_Field>
OPLS_2005

> <r_lp_Energy>
31.9631

> <b_lp_Chiralities_Consistent>
1

> <s_lp_Variant>
AV-unprocessed.smi:1605-5

> <Gold.Version>
5.8.1

> <Gold.Id.Protein>
6NUR|6NUR_protein|mol2

> <Gold.PLP.Fitness>
54.4919

> <Gold.PLP.PLP>
-39.3728

> <Gold.PLP.part.hbond>
-4.0338

> <Gold.PLP.part.metal>
0.0000

> <Gold.PLP.part.buried>
-1.4467

> <Gold.PLP.part.nonpolar>
-34.2733

> <Gold.PLP.part.repulsive>
0.1460

> <Gold.PLP.ligand.clash>
0.0000

> <Gold.PLP.ligand.torsion>
1.0983

> <Gold.PLP.Chemscore.Hbond>
5.7262

> <Gold.PLP.Chemscore.CHOScore>
0.0000

> <Gold.PLP.Chemscore.Metal>
0.0000

> <Gold.Chemscore.Hbonds>
donor molecule, donor type, donor heavy atom, donor atom, acceptor molecule, acceptor atom, score
      L1  H     6    51       P1  7948  2.00
      L1  H     9    35       P1  7957  0.59
      L1  H    13    52       P1  8028  2.00
      P1  H  7989  7998       L1     9  1.00

> <Gold.PLP.Chemscore.Internal.Correction>
0.1372

> <Gold.Rescore>
     Score         DG    S(hbond)    S(metal)    S(lipo)     H(rot)  DE(clash)    DE(int)     intcor
     20.50     -23.96       3.28        0.00     114.17       2.28       1.53       1.92       ----

> <Gold.Chemscore.Fitness>
20.4987

> <Gold.Chemscore.DG>
-23.9555

> <Gold.Chemscore.ZeroCoef>
-5.4800

> <Gold.Chemscore.Hbond>
3.2829

> <Gold.Chemscore.Metal>
0.0000

> <Gold.Chemscore.Lipo>
114.1665

> <Gold.Chemscore.Internal_Hbond>
0.0000

> <Gold.Chemscore.DEClash>
1.5340

> <Gold.Chemscore.DEInternal>
1.9228

> <Gold.Chemscore.Rot>
2.2839

> <Gold.Chemscore.Internal.Correction>
   9.000000E+99

> <Gold.Chemscore.Hbonds>
donor molecule, donor type, donor heavy atom, donor atom, acceptor molecule, acceptor atom, score
      L1  H     6    51       P1  7948  0.65
      L1  H     9    35       P1  7957  0.55
      L1  H    13    52       P1  8028  0.93
      P1  H  7989  7998       L1     9  0.38

> <Gold.Chemscore.Hbond.Weighted>
-10.9649

> <Gold.Chemscore.Metal.Weighted>
-0.0000

> <Gold.Chemscore.Lipo.Weighted>
-13.3575

> <Gold.Chemscore.Internal_Hbond.Weighted>
0.0000

> <Gold.Chemscore.DEClash.Weighted>
1.5340

> <Gold.Chemscore.DEInternal.Weighted>
1.9228

> <Gold.Chemscore.Rot.Weighted>
5.8469

> <Gold.Chemscore.Internal.Correction.Weighted>
   9.000000E+99

> <Gold.Protein.RotatedTorsions>
[ 6907 6896 6895 6894 ] final  -30.00 input  -60.11 | X-H torsion
[ 7974 7965 7964 7962 ] final  103.03 input  175.53 | X-H torsion
[ 8008 7997 7996 7995 ] final  -65.46 input   59.86 | X-H torsion
[ 10167 10162 10161 10158 ] final  -44.25 input  -65.29 | X-H torsion
[ 10718 10713 10712 10709 ] final  -75.78 input   66.30 | X-H torsion
[ 10763 10752 10751 10750 ] final  132.09 input  -60.55 | X-H torsion
[ 11005 11000 10999 10996 ] final   32.43 input  -57.11 | X-H torsion

> <Gold.Protein.ActiveResidues>
 VAL166  LYS551  ARG553  GLY616  TRP617  ASP618  TYR619  PRO620  LYS621  CYS622 
 ASP623  PHE694  ASN695  SER759  ASP760  ASP761  ALA762  ILE779  LEU786  VAL792 
 PHE793  MET794  SER795  GLU796  ALA797  LYS798  CYS799  TRP800  GLU811  SER814 

> <Gold.Protein.RotatedAtoms>
  151.1116  135.0029  159.8496 H   0  0  0  0  0  0  0  0  0  0  0  0  # atno 6907 bound_to 6896
  152.5443  134.1829  159.8653 H   0  0  0  0  0  0  0  0  0  0  0  0  # atno 6908 bound_to 6896
  151.1880  133.4640  159.2628 H   0  0  0  0  0  0  0  0  0  0  0  0  # atno 6909 bound_to 6896
  145.3513  139.2438  143.3556 H   0  0  0  0  0  0  0  0  0  0  0  0  # atno 7974 bound_to 7965
  154.4673  140.0932  156.7054 H   0  0  0  0  0  0  0  0  0  0  0  0  # atno 8008 bound_to 7997
  155.4821  140.3468  155.4323 H   0  0  0  0  0  0  0  0  0  0  0  0  # atno 8009 bound_to 7997
  156.0979  140.1414  156.9495 H   0  0  0  0  0  0  0  0  0  0  0  0  # atno 8010 bound_to 7997
  140.6904  143.2940  151.3469 H   0  0  0  0  0  0  0  0  0  0  0  0  # atno 10167 bound_to 10162
  156.0196  130.4449  150.3095 H   0  0  0  0  0  0  0  0  0  0  0  0  # atno 10718 bound_to 10713
  153.7850  135.3163  155.3371 H   0  0  0  0  0  0  0  0  0  0  0  0  # atno 10763 bound_to 10752
  154.8147  135.4644  154.0614 H   0  0  0  0  0  0  0  0  0  0  0  0  # atno 10764 bound_to 10752
  153.1915  135.6909  153.8433 H   0  0  0  0  0  0  0  0  0  0  0  0  # atno 10765 bound_to 10752
  140.2736  134.3054  155.7820 H   0  0  0  0  0  0  0  0  0  0  0  0  # atno 11005 bound_to 11000
  146.2967  140.4130  142.8719 LP  0  0  0  0  0  0  0  0  0  0  0  0  # atno 17320 bound_to 7965
  144.8715  140.7279  143.6044 LP  0  0  0  0  0  0  0  0  0  0  0  0  # atno 17321 bound_to 7965
  139.6301  144.0738  152.2468 LP  0  0  0  0  0  0  0  0  0  0  0  0  # atno 17342 bound_to 10162
  140.0210  144.6153  150.7567 LP  0  0  0  0  0  0  0  0  0  0  0  0  # atno 17343 bound_to 10162
  157.1197  131.0243  151.3014 LP  0  0  0  0  0  0  0  0  0  0  0  0  # atno 17370 bound_to 10713
  157.4638  130.7669  149.7260 LP  0  0  0  0  0  0  0  0  0  0  0  0  # atno 17371 bound_to 10713
  141.2174  133.7482  156.9372 LP  0  0  0  0  0  0  0  0  0  0  0  0  # atno 17394 bound_to 11000
  140.1350  134.9331  157.2389 LP  0  0  0  0  0  0  0  0  0  0  0  0  # atno 17395 bound_to 11000

$$$$
