AV-unprocessed.smi:139|AV-procd|sdf|1181|dock1
  -GOLD-   2262018333D 1   1.00000     0.00000
 Structure written by MMmdl.
 50 53  0  0  0  0  0  0  0  0  1 V2000
  150.0555  137.4046  156.6901 O   0  0  0  0  0  0  0  0  0  0  0  0
  149.6689  136.7592  155.7148 C   0  0  0  0  0  0  0  0  0  0  0  0
  148.8404  135.4783  155.8941 C   0  0  0  0  0  0  0  0  0  0  0  0
  147.8934  135.5475  157.0281 N   0  0  0  0  0  0  0  0  0  0  0  0
  146.5020  135.5144  156.7620 C   0  0  0  0  0  0  0  0  0  0  0  0
  146.0732  135.4187  155.6112 O   0  0  0  0  0  0  0  0  0  0  0  0
  145.6354  135.6094  157.9313 C   0  0  0  0  0  0  0  0  0  0  0  0
  144.3010  135.5859  157.7740 F   0  0  0  0  0  0  0  0  0  0  0  0
  146.1514  135.7233  159.1725 C   0  0  0  0  0  0  0  0  0  0  0  0
  147.5129  135.7549  159.4178 N   0  0  0  0  0  0  0  0  0  0  0  0
  148.0769  135.9026  160.8157 C   0  0  2  0  0  0  0  0  0  0  0  0
  147.6212  134.7352  161.7123 C   0  0  0  0  0  0  0  0  0  0  0  0
  147.0490  135.4454  162.9233 C   0  0  0  0  0  0  0  0  0  0  0  0
  146.5602  136.7530  162.3194 C   0  0  0  0  0  0  0  0  0  0  0  0
  147.5957  137.0787  161.4018 O   0  0  0  0  0  0  0  0  0  0  0  0
  148.4171  135.6776  158.3365 C   0  0  0  0  0  0  0  0  0  0  0  0
  149.6339  135.7259  158.5313 O   0  0  0  0  0  0  0  0  0  0  0  0
  149.9234  137.1127  154.4460 N   0  0  0  0  0  0  0  0  0  0  0  0
  150.7158  138.2621  154.0135 C   0  0  2  0  0  0  0  0  0  0  0  0
  152.1912  138.0642  154.4097 C   0  0  0  0  0  0  0  0  0  0  0  0
  152.4608  138.4804  155.8586 C   0  0  0  0  0  0  0  0  0  0  0  0
  152.1150  139.9574  156.0805 C   0  0  0  0  0  0  0  0  0  0  0  0
  150.7549  140.3468  155.5224 C   0  0  0  0  0  0  0  0  0  0  0  0
  150.1408  141.5281  155.9892 C   0  0  0  0  0  0  0  0  0  0  0  0
  148.8852  141.9242  155.4917 C   0  0  0  0  0  0  0  0  0  0  0  0
  148.2356  141.1399  154.5213 C   0  0  0  0  0  0  0  0  0  0  0  0
  148.8431  139.9617  154.0487 C   0  0  0  0  0  0  0  0  0  0  0  0
  150.1038  139.5572  154.5396 C   0  0  0  0  0  0  0  0  0  0  0  0
  148.3272  135.2708  154.9541 H   0  0  0  0  0  0  0  0  0  0  0  0
  149.5178  134.6312  156.0172 H   0  0  0  0  0  0  0  0  0  0  0  0
  145.4542  135.7940  159.9933 H   0  0  0  0  0  0  0  0  0  0  0  0
  149.1588  135.9754  160.6903 H   0  0  0  0  0  0  0  0  0  0  0  0
  146.8462  134.1528  161.2114 H   0  0  0  0  0  0  0  0  0  0  0  0
  148.4571  134.0786  161.9551 H   0  0  0  0  0  0  0  0  0  0  0  0
  146.2579  134.8807  163.4170 H   0  0  0  0  0  0  0  0  0  0  0  0
  147.8371  135.6414  163.6514 H   0  0  0  0  0  0  0  0  0  0  0  0
  145.6181  136.6077  161.7888 H   0  0  0  0  0  0  0  0  0  0  0  0
  146.4210  137.5368  163.0639 H   0  0  0  0  0  0  0  0  0  0  0  0
  149.5593  136.5198  153.7140 H   0  0  0  0  0  0  0  0  0  0  0  0
  150.6823  138.3327  152.9249 H   0  0  0  0  0  0  0  0  0  0  0  0
  152.5056  137.0345  154.2342 H   0  0  0  0  0  0  0  0  0  0  0  0
  152.8145  138.6813  153.7610 H   0  0  0  0  0  0  0  0  0  0  0  0
  151.8596  137.8611  156.5254 H   0  0  0  0  0  0  0  0  0  0  0  0
  153.5029  138.2970  156.1221 H   0  0  0  0  0  0  0  0  0  0  0  0
  152.1546  140.1888  157.1457 H   0  0  0  0  0  0  0  0  0  0  0  0
  152.8645  140.5845  155.5966 H   0  0  0  0  0  0  0  0  0  0  0  0
  150.6336  142.1363  156.7336 H   0  0  0  0  0  0  0  0  0  0  0  0
  148.4211  142.8292  155.8553 H   0  0  0  0  0  0  0  0  0  0  0  0
  147.2712  141.4408  154.1394 H   0  0  0  0  0  0  0  0  0  0  0  0
  148.3365  139.3633  153.3053 H   0  0  0  0  0  0  0  0  0  0  0  0
  1  2  2  0  0  0  0
  2  3  1  0  0  0  0
  2 18  1  0  0  0  0
  3  4  1  0  0  0  0
  3 29  1  0  0  0  0
  3 30  1  0  0  0  0
  4 16  1  0  0  0  0
  4  5  1  0  0  0  0
  5  6  2  0  0  0  0
  5  7  1  0  0  0  0
  7  8  1  0  0  0  0
  7  9  2  0  0  0  0
  9 10  1  0  0  0  0
  9 31  1  0  0  0  0
 10 11  1  0  0  0  0
 10 16  1  0  0  0  0
 11 15  1  0  0  0  0
 11 12  1  0  0  0  0
 11 32  1  0  0  0  0
 12 13  1  0  0  0  0
 12 33  1  0  0  0  0
 12 34  1  0  0  0  0
 13 14  1  0  0  0  0
 13 35  1  0  0  0  0
 13 36  1  0  0  0  0
 14 15  1  0  0  0  0
 14 37  1  0  0  0  0
 14 38  1  0  0  0  0
 16 17  2  0  0  0  0
 18 19  1  0  0  0  0
 18 39  1  0  0  0  0
 19 28  1  0  0  0  0
 19 20  1  0  0  0  0
 19 40  1  0  0  0  0
 20 21  1  0  0  0  0
 20 41  1  0  0  0  0
 20 42  1  0  0  0  0
 21 22  1  0  0  0  0
 21 43  1  0  0  0  0
 21 44  1  0  0  0  0
 22 23  1  0  0  0  0
 22 45  1  0  0  0  0
 22 46  1  0  0  0  0
 23 28  2  0  0  0  0
 23 24  1  0  0  0  0
 24 25  2  0  0  0  0
 24 47  1  0  0  0  0
 25 26  1  0  0  0  0
 25 48  1  0  0  0  0
 26 27  2  0  0  0  0
 26 49  1  0  0  0  0
 27 28  1  0  0  0  0
 27 50  1  0  0  0  0
M  END
> <s_m_source_file>
AV-unprocessed.smi

> <i_m_source_file_index>
139

> <i_lp_mmshare_version>
43012

> <i_f3d_flags>
0

> <s_epik_input>
W2NIXTFbY0hdW2NIXVtjSF1jKGMxMilbQ0BASF0oW0NIMl1bQ0gyXVtDSDJdMilbTkhdQyg9TylbQ0gyXW4zYyg9TyljKEYpW2NIXW4oYzM9TylbQ0BASF00W0NIMl1bQ0gyXVtDSDJdTzQ=

> <s_epik_cmdline>
J2VwaWtfcHl0aG9uJywgJy1waCcsICc3LjAnLCAnLXRuJywgJzgnLCAnLW1hJywgJzIwMCcsICctbWV0YWxfYmluZGluZycsICctaW1hZScsICc8aW5maWxlLm1hZT4nLCAnLW9tYWUnLCAnPG91dGZpbGUubWFlPic=

> <r_lp_tautomer_probability>
1

> <r_epik_Ionization_Penalty>
3.261e-08

> <r_epik_Ionization_Penalty_Charging>
3.6725e-09

> <r_epik_Ionization_Penalty_Neutral>
2.89375e-08

> <r_epik_State_Penalty>
-0

> <r_epik_Charging_Adjusted_Penalty>
3.6725e-09

> <i_epik_Tot_Q>
0

> <i_epik_Tot_abs_Q>
0

> <r_epik_Metal_State_Penalty>
-0

> <b_epik_Metal_Only>
0

> <s_epik_Chemistry_Notes>
This compound contains an acetal/aminal-like group ( X-CH(R)-Y where X, Y are N, S, or O) that may be acid/base labile, releasing an aldehyde.

> <s_lp_Force_Field>
OPLS_2005

> <r_lp_Energy>
30.3029

> <b_lp_Chiralities_Consistent>
1

> <s_lp_Variant>
AV-unprocessed.smi:139-1

> <Gold.Version>
5.8.1

> <Gold.Id.Protein>
6NUR|6NUR_protein|mol2

> <Gold.PLP.Fitness>
52.8841

> <Gold.PLP.PLP>
-42.0438

> <Gold.PLP.part.hbond>
-4.0000

> <Gold.PLP.part.metal>
0.0000

> <Gold.PLP.part.buried>
1.0955

> <Gold.PLP.part.nonpolar>
-38.5062

> <Gold.PLP.part.repulsive>
0.0517

> <Gold.PLP.ligand.clash>
0.0000

> <Gold.PLP.ligand.torsion>
0.3806

> <Gold.PLP.Chemscore.Hbond>
3.8480

> <Gold.PLP.Chemscore.CHOScore>
0.0000

> <Gold.PLP.Chemscore.Metal>
0.0000

> <Gold.Chemscore.Hbonds>
donor molecule, donor type, donor heavy atom, donor atom, acceptor molecule, acceptor atom, score
      L1  H    18    39       P1  7948  1.00
      P1  H  6896  6908       L1    17  1.00
      P1  H  6931  6943       L1    15  1.00
      P1  H  6934  6947       L1    15  0.84

> <Gold.PLP.Chemscore.Internal.Correction>
0.0576

> <Gold.Rescore>
     Score         DG    S(hbond)    S(metal)    S(lipo)     H(rot)  DE(clash)    DE(int)     intcor
     16.25     -23.08       3.03        0.00     103.66       1.82       1.41       5.42       ----

> <Gold.Chemscore.Fitness>
16.2501

> <Gold.Chemscore.DG>
-23.0814

> <Gold.Chemscore.ZeroCoef>
-5.4800

> <Gold.Chemscore.Hbond>
3.0315

> <Gold.Chemscore.Metal>
0.0000

> <Gold.Chemscore.Lipo>
103.6637

> <Gold.Chemscore.Internal_Hbond>
0.0000

> <Gold.Chemscore.DEClash>
1.4141

> <Gold.Chemscore.DEInternal>
5.4172

> <Gold.Chemscore.Rot>
1.8174

> <Gold.Chemscore.Internal.Correction>
   9.000000E+99

> <Gold.Chemscore.Hbonds>
donor molecule, donor type, donor heavy atom, donor atom, acceptor molecule, acceptor atom, score
      L1  H    18    39       P1  7948  0.66
      P1  H  6896  6908       L1    17  1.00
      P1  H  6931  6943       L1    15  0.77
      P1  H  6934  6947       L1    15  0.31

> <Gold.Chemscore.Hbond.Weighted>
-10.1252

> <Gold.Chemscore.Metal.Weighted>
-0.0000

> <Gold.Chemscore.Lipo.Weighted>
-12.1287

> <Gold.Chemscore.Internal_Hbond.Weighted>
0.0000

> <Gold.Chemscore.DEClash.Weighted>
1.4141

> <Gold.Chemscore.DEInternal.Weighted>
5.4172

> <Gold.Chemscore.Rot.Weighted>
4.6524

> <Gold.Chemscore.Internal.Correction.Weighted>
   9.000000E+99

> <Gold.Protein.RotatedTorsions>
[ 6907 6896 6895 6894 ] final -177.62 input  -60.11 | X-H torsion
[ 7974 7965 7964 7962 ] final -143.01 input  175.53 | X-H torsion
[ 8008 7997 7996 7995 ] final  -74.05 input   59.86 | X-H torsion
[ 10167 10162 10161 10158 ] final -154.63 input  -65.29 | X-H torsion
[ 10718 10713 10712 10709 ] final -176.05 input   66.30 | X-H torsion
[ 10763 10752 10751 10750 ] final   55.20 input  -60.55 | X-H torsion
[ 11005 11000 10999 10996 ] final -120.15 input  -57.11 | X-H torsion

> <Gold.Protein.ActiveResidues>
 VAL166  LYS551  ARG553  GLY616  TRP617  ASP618  TYR619  PRO620  LYS621  CYS622 
 ASP623  PHE694  ASN695  SER759  ASP760  ASP761  ALA762  ILE779  LEU786  VAL792 
 PHE793  MET794  SER795  GLU796  ALA797  LYS798  CYS799  TRP800  GLU811  SER814 

> <Gold.Protein.RotatedAtoms>
  151.6239  133.3337  159.3093 H   0  0  0  0  0  0  0  0  0  0  0  0  # atno 6907 bound_to 6896
  150.8091  134.7239  159.6683 H   0  0  0  0  0  0  0  0  0  0  0  0  # atno 6908 bound_to 6896
  152.4188  134.5998  160.0048 H   0  0  0  0  0  0  0  0  0  0  0  0  # atno 6909 bound_to 6896
  144.8401  140.5887  143.5458 H   0  0  0  0  0  0  0  0  0  0  0  0  # atno 7974 bound_to 7965
  154.5298  140.0768  156.8324 H   0  0  0  0  0  0  0  0  0  0  0  0  # atno 8008 bound_to 7997
  155.3399  140.3406  155.4221 H   0  0  0  0  0  0  0  0  0  0  0  0  # atno 8009 bound_to 7997
  156.1769  140.1639  156.8332 H   0  0  0  0  0  0  0  0  0  0  0  0  # atno 8010 bound_to 7997
  139.6998  143.9282  152.2423 H   0  0  0  0  0  0  0  0  0  0  0  0  # atno 10167 bound_to 10162
  156.8089  130.9579  151.3116 H   0  0  0  0  0  0  0  0  0  0  0  0  # atno 10718 bound_to 10713
  152.9814  135.5719  154.5029 H   0  0  0  0  0  0  0  0  0  0  0  0  # atno 10763 bound_to 10752
  154.4545  135.2779  155.1759 H   0  0  0  0  0  0  0  0  0  0  0  0  # atno 10764 bound_to 10752
  154.3373  135.6237  153.5633 H   0  0  0  0  0  0  0  0  0  0  0  0  # atno 10765 bound_to 10752
  141.0165  134.0188  157.3343 H   0  0  0  0  0  0  0  0  0  0  0  0  # atno 11005 bound_to 11000
  145.4712  139.1503  143.3813 LP  0  0  0  0  0  0  0  0  0  0  0  0  # atno 17320 bound_to 7965
  146.2694  140.4846  142.8820 LP  0  0  0  0  0  0  0  0  0  0  0  0  # atno 17321 bound_to 7965
  139.9121  144.6850  150.8551 LP  0  0  0  0  0  0  0  0  0  0  0  0  # atno 17342 bound_to 10162
  140.7706  143.3435  151.2158 LP  0  0  0  0  0  0  0  0  0  0  0  0  # atno 17343 bound_to 10162
  157.6516  130.8889  149.9644 LP  0  0  0  0  0  0  0  0  0  0  0  0  # atno 17370 bound_to 10713
  156.1056  130.3653  150.0139 LP  0  0  0  0  0  0  0  0  0  0  0  0  # atno 17371 bound_to 10713
  139.9120  135.0191  156.7729 LP  0  0  0  0  0  0  0  0  0  0  0  0  # atno 17394 bound_to 11000
  140.6646  133.9614  155.7823 LP  0  0  0  0  0  0  0  0  0  0  0  0  # atno 17395 bound_to 11000

$$$$
