AV-unprocessed.smi:39|AV-procd|sdf|352|dock10
  -GOLD-   2262016193D 1   1.00000     0.00000
 Structure written by MMmdl.
 32 33  0  0  0  0  0  0  0  0  3 V2000
  154.2692  141.2308  160.4710 C   0  0  0  0  0  0  0  0  0  0  0  0
  153.0718  141.4264  159.5555 C   0  0  0  0  0  0  0  0  0  0  0  0
  152.3815  140.3830  159.0271 C   0  0  0  0  0  0  0  0  0  0  0  0
  151.2824  140.5310  158.1883 N   0  0  0  0  0  0  0  0  0  0  0  0
  150.5318  139.3519  157.5995 C   0  0  2  0  0  0  0  0  0  0  0  0
  151.1624  138.0232  158.0503 C   0  0  0  0  0  0  0  0  0  0  0  0
  151.3576  137.2836  156.7381 C   0  0  2  0  0  0  0  0  0  0  0  0
  152.4828  136.3462  156.8058 N   0  0  0  0  0  0  0  0  0  0  0  0
  153.0277  136.2075  157.9088 N   0  3  0  0  0  0  0  0  0  0  0  0
  153.4136  136.0554  158.9687 N   0  5  0  0  0  0  0  0  0  0  0  0
  151.5916  138.4424  155.7653 C   0  0  1  0  0  0  0  0  0  0  0  0
  151.3356  138.0949  154.2906 C   0  0  0  0  0  0  0  0  0  0  0  0
  152.2160  137.0709  153.8808 O   0  0  0  0  0  0  0  0  0  0  0  0
  150.6140  139.3789  156.2052 O   0  0  0  0  0  0  0  0  0  0  0  0
  150.8529  141.8287  157.8417 C   0  0  0  0  0  0  0  0  0  0  0  0
  149.8964  142.0352  157.0955 O   0  0  0  0  0  0  0  0  0  0  0  0
  151.5606  142.8995  158.3841 N   0  0  0  0  0  0  0  0  0  0  0  0
  152.6619  142.7967  159.2363 C   0  0  0  0  0  0  0  0  0  0  0  0
  153.2049  143.8186  159.6532 O   0  0  0  0  0  0  0  0  0  0  0  0
  149.4909  139.4808  157.9021 H   0  0  0  0  0  0  0  0  0  0  0  0
  150.4224  136.7770  156.4871 H   0  0  0  0  0  0  0  0  0  0  0  0
  152.5965  138.8459  155.9072 H   0  0  0  0  0  0  0  0  0  0  0  0
  151.2521  143.8291  158.1393 H   0  0  0  0  0  0  0  0  0  0  0  0
  154.4730  140.1751  160.6531 H   0  0  0  0  0  0  0  0  0  0  0  0
  154.0936  141.7073  161.4362 H   0  0  0  0  0  0  0  0  0  0  0  0
  155.1627  141.6721  160.0282 H   0  0  0  0  0  0  0  0  0  0  0  0
  152.7221  139.3915  159.2839 H   0  0  0  0  0  0  0  0  0  0  0  0
  152.1196  138.2116  158.5404 H   0  0  0  0  0  0  0  0  0  0  0  0
  150.5085  137.4966  158.7461 H   0  0  0  0  0  0  0  0  0  0  0  0
  150.3211  137.7206  154.1565 H   0  0  0  0  0  0  0  0  0  0  0  0
  151.4448  138.9711  153.6506 H   0  0  0  0  0  0  0  0  0  0  0  0
  151.8749  136.6786  153.0918 H   0  0  0  0  0  0  0  0  0  0  0  0
  1  2  1  0  0  0  0
  1 24  1  0  0  0  0
  1 25  1  0  0  0  0
  1 26  1  0  0  0  0
  2 18  1  0  0  0  0
  2  3  2  0  0  0  0
  3  4  1  0  0  0  0
  3 27  1  0  0  0  0
  4  5  1  0  0  0  0
  4 15  1  0  0  0  0
  5 20  1  0  0  0  0
  5 14  1  0  0  0  0
  5  6  1  0  0  0  0
  6  7  1  0  0  0  0
  6 28  1  0  0  0  0
  6 29  1  0  0  0  0
  7 21  1  0  0  0  0
  7  8  1  0  0  0  0
  7 11  1  0  0  0  0
  8  9  2  0  0  0  0
  9 10  2  0  0  0  0
 11 22  1  0  0  0  0
 11 12  1  0  0  0  0
 11 14  1  0  0  0  0
 12 13  1  0  0  0  0
 12 30  1  0  0  0  0
 12 31  1  0  0  0  0
 13 32  1  0  0  0  0
 15 16  2  0  0  0  0
 15 17  1  0  0  0  0
 17 23  1  0  0  0  0
 17 18  1  0  0  0  0
 18 19  2  0  0  0  0
M  CHG  1   9   1
M  CHG  1  10  -1
M  END
> <s_m_source_file>
AV-unprocessed.smi

> <i_m_source_file_index>
39

> <i_lp_mmshare_version>
43012

> <i_f3d_flags>
0

> <s_epik_input>
Tz1jMVtuSF1jKD1PKW4oW2NIXWMxW0NIM10pW0NASF0yW0NIMl1bQ0BIXShOPVtOK109W04tXSlbQ0BIXShPMilbQ0gyXVtPSF0=

> <s_epik_cmdline>
J2VwaWtfcHl0aG9uJywgJy1waCcsICc3LjAnLCAnLXRuJywgJzgnLCAnLW1hJywgJzIwMCcsICctbWV0YWxfYmluZGluZycsICctaW1hZScsICc8aW5maWxlLm1hZT4nLCAnLW9tYWUnLCAnPG91dGZpbGUubWFlPic=

> <r_lp_tautomer_probability>
0.999537

> <r_epik_Ionization_Penalty>
0.00127512

> <r_epik_Ionization_Penalty_Charging>
0.00127507

> <r_epik_Ionization_Penalty_Neutral>
5.43433e-08

> <r_epik_State_Penalty>
0.000844892

> <r_epik_Charging_Adjusted_Penalty>
0.00211996

> <i_epik_Tot_Q>
0

> <i_epik_Tot_abs_Q>
2

> <r_epik_Metal_State_Penalty>
0.680636

> <b_epik_Metal_Only>
0

> <s_epik_Chemistry_Notes>
This compound contains an acetal/aminal-like group ( X-CH(R)-Y where X, Y are N, S, or O) that may be acid/base labile, releasing an aldehyde.

> <s_lp_Force_Field>
OPLS_2005

> <r_lp_Energy>
24.5803

> <b_lp_Chiralities_Consistent>
1

> <s_lp_Variant>
AV-unprocessed.smi:39-2

> <Gold.Version>
5.8.1

> <Gold.Id.Protein>
6NUR|6NUR_protein|mol2

> <Gold.PLP.Fitness>
38.2099

> <Gold.PLP.PLP>
-29.5870

> <Gold.PLP.part.hbond>
-4.2132

> <Gold.PLP.part.metal>
0.0000

> <Gold.PLP.part.buried>
-5.6629

> <Gold.PLP.part.nonpolar>
-19.9655

> <Gold.PLP.part.repulsive>
0.1645

> <Gold.PLP.ligand.clash>
0.0000

> <Gold.PLP.ligand.torsion>
0.0283

> <Gold.PLP.Chemscore.Hbond>
2.8800

> <Gold.PLP.Chemscore.CHOScore>
0.0000

> <Gold.PLP.Chemscore.Metal>
0.0000

> <Gold.Chemscore.Hbonds>
donor molecule, donor type, donor heavy atom, donor atom, acceptor molecule, acceptor atom, score
      L1  H    13    32       P1  7949  1.00
      P1  H  6896  6907       L1    10  0.86
      P1  H 10752 10765       L1     8  1.00

> <Gold.PLP.Chemscore.Internal.Correction>
0.0394

> <Gold.Rescore>
     Score         DG    S(hbond)    S(metal)    S(lipo)     H(rot)  DE(clash)    DE(int)     intcor
     12.98     -13.32       2.76        0.00      48.53       2.75       0.00       0.33       ----

> <Gold.Chemscore.Fitness>
12.9849

> <Gold.Chemscore.DG>
-13.3178

> <Gold.Chemscore.ZeroCoef>
-5.4800

> <Gold.Chemscore.Hbond>
2.7564

> <Gold.Chemscore.Metal>
0.0000

> <Gold.Chemscore.Lipo>
48.5254

> <Gold.Chemscore.Internal_Hbond>
0.0000

> <Gold.Chemscore.DEClash>
0.0009

> <Gold.Chemscore.DEInternal>
0.3320

> <Gold.Chemscore.Rot>
2.7524

> <Gold.Chemscore.Internal.Correction>
   9.000000E+99

> <Gold.Chemscore.Hbonds>
donor molecule, donor type, donor heavy atom, donor atom, acceptor molecule, acceptor atom, score
      L1  H    13    32       P1  7949  1.00
      P1  H  6896  6907       L1    10  0.72
      P1  H 10752 10765       L1     8  0.91

> <Gold.Chemscore.Hbond.Weighted>
-9.2065

> <Gold.Chemscore.Metal.Weighted>
-0.0000

> <Gold.Chemscore.Lipo.Weighted>
-5.6775

> <Gold.Chemscore.Internal_Hbond.Weighted>
0.0000

> <Gold.Chemscore.DEClash.Weighted>
0.0009

> <Gold.Chemscore.DEInternal.Weighted>
0.3320

> <Gold.Chemscore.Rot.Weighted>
7.0461

> <Gold.Chemscore.Internal.Correction.Weighted>
   9.000000E+99

> <Gold.Protein.RotatedTorsions>
[ 6907 6896 6895 6894 ] final   47.69 input  -60.11 | X-H torsion
[ 7974 7965 7964 7962 ] final   61.71 input  175.53 | X-H torsion
[ 8008 7997 7996 7995 ] final -175.44 input   59.86 | X-H torsion
[ 10167 10162 10161 10158 ] final   72.14 input  -65.29 | X-H torsion
[ 10718 10713 10712 10709 ] final   -6.91 input   66.30 | X-H torsion
[ 10763 10752 10751 10750 ] final -138.07 input  -60.55 | X-H torsion
[ 11005 11000 10999 10996 ] final -135.20 input  -57.11 | X-H torsion

> <Gold.Protein.ActiveResidues>
 VAL166  LYS551  ARG553  GLY616  TRP617  ASP618  TYR619  PRO620  LYS621  CYS622 
 ASP623  PHE694  ASN695  SER759  ASP760  ASP761  ALA762  ILE779  LEU786  VAL792 
 PHE793  MET794  SER795  GLU796  ALA797  LYS798  CYS799  TRP800  GLU811  SER814 

> <Gold.Protein.RotatedAtoms>
  152.2709  134.7934  160.0414 H   0  0  0  0  0  0  0  0  0  0  0  0  # atno 6907 bound_to 6896
  151.8547  133.3441  159.3692 H   0  0  0  0  0  0  0  0  0  0  0  0  # atno 6908 bound_to 6896
  150.7151  134.5193  159.5690 H   0  0  0  0  0  0  0  0  0  0  0  0  # atno 6909 bound_to 6896
  145.8816  139.3447  143.0702 H   0  0  0  0  0  0  0  0  0  0  0  0  # atno 7974 bound_to 7965
  155.9826  140.1184  157.0713 H   0  0  0  0  0  0  0  0  0  0  0  0  # atno 8008 bound_to 7997
  154.4187  140.1141  156.5523 H   0  0  0  0  0  0  0  0  0  0  0  0  # atno 8009 bound_to 7997
  155.6451  140.3473  155.4730 H   0  0  0  0  0  0  0  0  0  0  0  0  # atno 8010 bound_to 7997
  140.0385  144.5409  150.7452 H   0  0  0  0  0  0  0  0  0  0  0  0  # atno 10167 bound_to 10162
  156.7249  130.5162  149.5859 H   0  0  0  0  0  0  0  0  0  0  0  0  # atno 10718 bound_to 10713
  154.8646  135.3623  154.5325 H   0  0  0  0  0  0  0  0  0  0  0  0  # atno 10763 bound_to 10752
  153.5950  135.7014  153.5412 H   0  0  0  0  0  0  0  0  0  0  0  0  # atno 10764 bound_to 10752
  153.3340  135.4116  155.1480 H   0  0  0  0  0  0  0  0  0  0  0  0  # atno 10765 bound_to 10752
  140.8920  134.1799  157.4521 H   0  0  0  0  0  0  0  0  0  0  0  0  # atno 11005 bound_to 11000
  145.9016  140.9239  143.0500 LP  0  0  0  0  0  0  0  0  0  0  0  0  # atno 17320 bound_to 7965
  144.6727  140.1040  143.7459 LP  0  0  0  0  0  0  0  0  0  0  0  0  # atno 17321 bound_to 7965
  140.7271  143.2648  151.4083 LP  0  0  0  0  0  0  0  0  0  0  0  0  # atno 17342 bound_to 10162
  139.6029  144.1257  152.2218 LP  0  0  0  0  0  0  0  0  0  0  0  0  # atno 17343 bound_to 10162
  156.1569  130.6347  151.0668 LP  0  0  0  0  0  0  0  0  0  0  0  0  # atno 17370 bound_to 10713
  157.6883  131.0818  150.7181 LP  0  0  0  0  0  0  0  0  0  0  0  0  # atno 17371 bound_to 10713
  139.8731  134.9862  156.5316 LP  0  0  0  0  0  0  0  0  0  0  0  0  # atno 17394 bound_to 11000
  140.8335  133.8260  155.9006 LP  0  0  0  0  0  0  0  0  0  0  0  0  # atno 17395 bound_to 11000

$$$$
