AV-unprocessed.smi:415|AV-procd|sdf|2523|dock10
  -GOLD-   2262022473D 1   1.00000     0.00000
 Structure written by MMmdl.
 53 54  0  0  0  0  0  0  0  0  1 V2000
  142.4955  144.9887  158.1898 C   0  0  0  0  0  0  0  0  0  0  0  0
  143.6773  145.6249  157.7376 O   0  0  0  0  0  0  0  0  0  0  0  0
  144.7192  144.7026  157.4644 C   0  0  0  0  0  0  0  0  0  0  0  0
  144.2889  143.7653  156.3239 C   0  0  0  0  0  0  0  0  0  0  0  0
  145.4095  143.1947  155.5996 N   0  0  0  0  0  0  0  0  0  0  0  0
  145.6108  143.3684  154.2326 C   0  0  0  0  0  0  0  0  0  0  0  0
  144.7002  144.1007  153.4927 N   0  0  0  0  0  0  0  0  0  0  0  0
  146.6760  142.8240  153.6034 C   0  0  0  0  0  0  0  0  0  0  0  0
  147.6640  142.0236  154.3134 C   0  0  0  0  0  0  0  0  0  0  0  0
  148.6516  141.5379  153.7613 O   0  0  0  0  0  0  0  0  0  0  0  0
  147.4245  141.8366  155.6940 N   0  0  0  0  0  0  0  0  0  0  0  0
  148.3889  141.0448  156.4890 C   0  0  0  0  0  0  0  0  0  0  0  0
  149.2688  141.9159  157.3970 C   0  0  0  0  0  0  0  0  0  0  0  0
  148.7900  142.4864  158.3781 O   0  0  0  0  0  0  0  0  0  0  0  0
  150.5600  142.0145  157.0462 N   0  0  0  0  0  0  0  0  0  0  0  0
  151.5787  142.7748  157.7681 C   0  0  1  0  0  0  0  0  0  0  0  0
  151.1802  144.2639  157.7932 C   0  0  0  0  0  0  0  0  0  0  0  0
  152.1974  145.1004  158.5739 C   0  0  0  0  0  0  0  0  0  0  0  0
  152.3570  144.5618  159.9993 C   0  0  0  0  0  0  0  0  0  0  0  0
  152.7782  143.0786  160.0091 C   0  0  1  0  0  0  0  0  0  0  0  0
  152.9584  142.6060  161.4636 C   0  0  0  0  0  0  0  0  0  0  0  0
  151.7754  142.2065  159.2002 C   0  0  2  0  0  0  0  0  0  0  0  0
  152.2036  140.7232  159.1544 C   0  0  0  0  0  0  0  0  0  0  0  0
  146.3120  142.4044  156.3560 C   0  0  0  0  0  0  0  0  0  0  0  0
  146.1425  142.2128  157.5638 O   0  0  0  0  0  0  0  0  0  0  0  0
  141.7314  145.7384  158.3945 H   0  0  0  0  0  0  0  0  0  0  0  0
  142.6742  144.4296  159.1090 H   0  0  0  0  0  0  0  0  0  0  0  0
  142.1032  144.3060  157.4351 H   0  0  0  0  0  0  0  0  0  0  0  0
  145.6164  145.2472  157.1671 H   0  0  0  0  0  0  0  0  0  0  0  0
  144.9703  144.1330  158.3604 H   0  0  0  0  0  0  0  0  0  0  0  0
  143.6805  142.9411  156.6942 H   0  0  0  0  0  0  0  0  0  0  0  0
  143.6557  144.2771  155.5970 H   0  0  0  0  0  0  0  0  0  0  0  0
  143.8849  144.5178  153.9185 H   0  0  0  0  0  0  0  0  0  0  0  0
  144.8981  144.3812  152.5427 H   0  0  0  0  0  0  0  0  0  0  0  0
  146.8068  142.9807  152.5420 H   0  0  0  0  0  0  0  0  0  0  0  0
  147.8626  140.3034  157.0933 H   0  0  0  0  0  0  0  0  0  0  0  0
  149.0455  140.4485  155.8543 H   0  0  0  0  0  0  0  0  0  0  0  0
  150.8645  141.5164  156.2224 H   0  0  0  0  0  0  0  0  0  0  0  0
  152.5287  142.6808  157.2380 H   0  0  0  0  0  0  0  0  0  0  0  0
  151.0987  144.6513  156.7768 H   0  0  0  0  0  0  0  0  0  0  0  0
  150.1937  144.3766  158.2454 H   0  0  0  0  0  0  0  0  0  0  0  0
  153.1603  145.0847  158.0618 H   0  0  0  0  0  0  0  0  0  0  0  0
  151.8774  146.1422  158.6034 H   0  0  0  0  0  0  0  0  0  0  0  0
  153.0964  145.1636  160.5289 H   0  0  0  0  0  0  0  0  0  0  0  0
  151.4176  144.6828  160.5409 H   0  0  0  0  0  0  0  0  0  0  0  0
  153.7521  143.0112  159.5216 H   0  0  0  0  0  0  0  0  0  0  0  0
  152.0031  142.5598  161.9871 H   0  0  0  0  0  0  0  0  0  0  0  0
  153.6059  143.2862  162.0176 H   0  0  0  0  0  0  0  0  0  0  0  0
  153.4216  141.6216  161.5181 H   0  0  0  0  0  0  0  0  0  0  0  0
  150.8115  142.2522  159.7101 H   0  0  0  0  0  0  0  0  0  0  0  0
  153.1845  140.6105  158.6920 H   0  0  0  0  0  0  0  0  0  0  0  0
  151.5005  140.1138  158.5871 H   0  0  0  0  0  0  0  0  0  0  0  0
  152.2494  140.2826  160.1494 H   0  0  0  0  0  0  0  0  0  0  0  0
  1  2  1  0  0  0  0
  1 26  1  0  0  0  0
  1 27  1  0  0  0  0
  1 28  1  0  0  0  0
  2  3  1  0  0  0  0
  3  4  1  0  0  0  0
  3 29  1  0  0  0  0
  3 30  1  0  0  0  0
  4  5  1  0  0  0  0
  4 31  1  0  0  0  0
  4 32  1  0  0  0  0
  5 24  1  0  0  0  0
  5  6  1  0  0  0  0
  6  7  1  0  0  0  0
  6  8  2  0  0  0  0
  7 33  1  0  0  0  0
  7 34  1  0  0  0  0
  8  9  1  0  0  0  0
  8 35  1  0  0  0  0
  9 10  2  0  0  0  0
  9 11  1  0  0  0  0
 11 12  1  0  0  0  0
 11 24  1  0  0  0  0
 12 13  1  0  0  0  0
 12 36  1  0  0  0  0
 12 37  1  0  0  0  0
 13 14  2  0  0  0  0
 13 15  1  0  0  0  0
 15 16  1  0  0  0  0
 15 38  1  0  0  0  0
 16 22  1  0  0  0  0
 16 17  1  0  0  0  0
 16 39  1  0  0  0  0
 17 18  1  0  0  0  0
 17 40  1  0  0  0  0
 17 41  1  0  0  0  0
 18 19  1  0  0  0  0
 18 42  1  0  0  0  0
 18 43  1  0  0  0  0
 19 20  1  0  0  0  0
 19 44  1  0  0  0  0
 19 45  1  0  0  0  0
 20 21  1  0  0  0  0
 20 22  1  0  0  0  0
 20 46  1  0  0  0  0
 21 47  1  0  0  0  0
 21 48  1  0  0  0  0
 21 49  1  0  0  0  0
 22 23  1  0  0  0  0
 22 50  1  0  0  0  0
 23 51  1  0  0  0  0
 23 52  1  0  0  0  0
 23 53  1  0  0  0  0
 24 25  2  0  0  0  0
M  END
> <s_m_source_file>
AV-unprocessed.smi

> <i_m_source_file_index>
415

> <i_lp_mmshare_version>
43012

> <i_f3d_flags>
0

> <s_epik_input>
W0NIM11PW0NIMl1bQ0gyXW4xYyhbTkgyXSlbY0hdYyg9TyluKGMxPU8pW0NIMl1DKD1PKVtOSF1bQ0BASF0yW0NIMl1bQ0gyXVtDSDJdW0NAQEhdKFtDSDNdKVtDQEhdMltDSDNd

> <s_epik_cmdline>
J2VwaWtfcHl0aG9uJywgJy1waCcsICc3LjAnLCAnLXRuJywgJzgnLCAnLW1hJywgJzIwMCcsICctbWV0YWxfYmluZGluZycsICctaW1hZScsICc8aW5maWxlLm1hZT4nLCAnLW9tYWUnLCAnPG91dGZpbGUubWFlPic=

> <r_lp_tautomer_probability>
1

> <r_epik_Ionization_Penalty>
8.6647e-06

> <r_epik_Ionization_Penalty_Charging>
1.81162e-08

> <r_epik_Ionization_Penalty_Neutral>
8.64658e-06

> <r_epik_State_Penalty>
-0

> <r_epik_Charging_Adjusted_Penalty>
1.81162e-08

> <i_epik_Tot_Q>
0

> <i_epik_Tot_abs_Q>
0

> <r_epik_Metal_State_Penalty>
-0

> <b_epik_Metal_Only>
0

> <s_lp_Force_Field>
OPLS_2005

> <r_lp_Energy>
22.0049

> <b_lp_Chiralities_Consistent>
1

> <s_lp_Variant>
AV-unprocessed.smi:415-6

> <Gold.Version>
5.8.1

> <Gold.Id.Protein>
6NUR|6NUR_protein|mol2

> <Gold.PLP.Fitness>
48.5847

> <Gold.PLP.PLP>
-47.3321

> <Gold.PLP.part.hbond>
-2.0000

> <Gold.PLP.part.metal>
0.0000

> <Gold.PLP.part.buried>
-7.5622

> <Gold.PLP.part.nonpolar>
-37.3704

> <Gold.PLP.part.repulsive>
0.5783

> <Gold.PLP.ligand.clash>
0.0000

> <Gold.PLP.ligand.torsion>
0.3967

> <Gold.PLP.Chemscore.Hbond>
0.6750

> <Gold.PLP.Chemscore.CHOScore>
0.0000

> <Gold.PLP.Chemscore.Metal>
0.0000

> <Gold.Chemscore.Hbonds>
donor molecule, donor type, donor heavy atom, donor atom, acceptor molecule, acceptor atom, score
      P1  H  8011  8017       L1    10  0.69

> <Gold.PLP.Chemscore.Internal.Correction>
0.0212

> <Gold.Rescore>
     Score         DG    S(hbond)    S(metal)    S(lipo)     H(rot)  DE(clash)    DE(int)     intcor
     10.39     -13.39       0.49        0.00     103.25       2.26       0.08       2.92       ----

> <Gold.Chemscore.Fitness>
10.3874

> <Gold.Chemscore.DG>
-13.3887

> <Gold.Chemscore.ZeroCoef>
-5.4800

> <Gold.Chemscore.Hbond>
0.4868

> <Gold.Chemscore.Metal>
0.0000

> <Gold.Chemscore.Lipo>
103.2479

> <Gold.Chemscore.Internal_Hbond>
0.0000

> <Gold.Chemscore.DEClash>
0.0839

> <Gold.Chemscore.DEInternal>
2.9174

> <Gold.Chemscore.Rot>
2.2645

> <Gold.Chemscore.Internal.Correction>
   9.000000E+99

> <Gold.Chemscore.Hbonds>
donor molecule, donor type, donor heavy atom, donor atom, acceptor molecule, acceptor atom, score
      P1  H  8011  8017       L1    10  0.65

> <Gold.Chemscore.Hbond.Weighted>
-1.6258

> <Gold.Chemscore.Metal.Weighted>
-0.0000

> <Gold.Chemscore.Lipo.Weighted>
-12.0800

> <Gold.Chemscore.Internal_Hbond.Weighted>
0.0000

> <Gold.Chemscore.DEClash.Weighted>
0.0839

> <Gold.Chemscore.DEInternal.Weighted>
2.9174

> <Gold.Chemscore.Rot.Weighted>
5.7972

> <Gold.Chemscore.Internal.Correction.Weighted>
   9.000000E+99

> <Gold.Protein.RotatedTorsions>
[ 6907 6896 6895 6894 ] final -101.21 input  -60.11 | X-H torsion
[ 7974 7965 7964 7962 ] final -142.51 input  175.53 | X-H torsion
[ 8008 7997 7996 7995 ] final   -4.30 input   59.86 | X-H torsion
[ 10167 10162 10161 10158 ] final -119.91 input  -65.29 | X-H torsion
[ 10718 10713 10712 10709 ] final -109.56 input   66.30 | X-H torsion
[ 10763 10752 10751 10750 ] final   76.91 input  -60.55 | X-H torsion
[ 11005 11000 10999 10996 ] final -146.09 input  -57.11 | X-H torsion

> <Gold.Protein.ActiveResidues>
 VAL166  LYS551  ARG553  GLY616  TRP617  ASP618  TYR619  PRO620  LYS621  CYS622 
 ASP623  PHE694  ASN695  SER759  ASP760  ASP761  ALA762  ILE779  LEU786  VAL792 
 PHE793  MET794  SER795  GLU796  ALA797  LYS798  CYS799  TRP800  GLU811  SER814 

> <Gold.Protein.RotatedAtoms>
  150.7146  134.0769  159.3883 H   0  0  0  0  0  0  0  0  0  0  0  0  # atno 6907 bound_to 6896
  151.8752  135.0472  160.0492 H   0  0  0  0  0  0  0  0  0  0  0  0  # atno 6908 bound_to 6896
  152.2611  133.5263  159.5419 H   0  0  0  0  0  0  0  0  0  0  0  0  # atno 6909 bound_to 6896
  144.8438  140.5949  143.5435 H   0  0  0  0  0  0  0  0  0  0  0  0  # atno 7974 bound_to 7965
  154.6157  140.2487  155.7612 H   0  0  0  0  0  0  0  0  0  0  0  0  # atno 8008 bound_to 7997
  156.2397  140.2937  156.0360 H   0  0  0  0  0  0  0  0  0  0  0  0  # atno 8009 bound_to 7997
  155.1979  140.0393  157.2902 H   0  0  0  0  0  0  0  0  0  0  0  0  # atno 8010 bound_to 7997
  140.0415  143.5149  152.2128 H   0  0  0  0  0  0  0  0  0  0  0  0  # atno 10167 bound_to 10162
  156.0543  130.5770  150.8116 H   0  0  0  0  0  0  0  0  0  0  0  0  # atno 10718 bound_to 10713
  153.0759  135.4934  154.8404 H   0  0  0  0  0  0  0  0  0  0  0  0  # atno 10763 bound_to 10752
  154.7087  135.3015  154.9233 H   0  0  0  0  0  0  0  0  0  0  0  0  # atno 10764 bound_to 10752
  153.9933  135.6775  153.4808 H   0  0  0  0  0  0  0  0  0  0  0  0  # atno 10765 bound_to 10752
  140.7856  134.3028  157.5031 H   0  0  0  0  0  0  0  0  0  0  0  0  # atno 11005 bound_to 11000
  145.4639  139.1510  143.3851 LP  0  0  0  0  0  0  0  0  0  0  0  0  # atno 17320 bound_to 7965
  146.2726  140.4770  142.8808 LP  0  0  0  0  0  0  0  0  0  0  0  0  # atno 17321 bound_to 7965
  139.6011  144.7582  151.3170 LP  0  0  0  0  0  0  0  0  0  0  0  0  # atno 17342 bound_to 10162
  140.7258  143.7008  150.7847 LP  0  0  0  0  0  0  0  0  0  0  0  0  # atno 17343 bound_to 10162
  157.5499  131.0943  150.9710 LP  0  0  0  0  0  0  0  0  0  0  0  0  # atno 17370 bound_to 10713
  156.9972  130.5586  149.5308 LP  0  0  0  0  0  0  0  0  0  0  0  0  # atno 17371 bound_to 10713
  139.8737  134.9344  156.3606 LP  0  0  0  0  0  0  0  0  0  0  0  0  # atno 17394 bound_to 11000
  140.9440  133.7495  156.0184 LP  0  0  0  0  0  0  0  0  0  0  0  0  # atno 17395 bound_to 11000

$$$$
