AV-unprocessed.smi:2552|AV-procd|sdf|10016|dock5
  -GOLD-   2272014 63D 1   1.00000     0.00000
 Structure written by MMmdl.
 34 36  0  0  0  0  0  0  0  0  1 V2000
  148.1738  140.3401  154.1283 C   0  0  0  0  0  0  0  0  0  0  0  0
  149.4174  139.7705  154.6420 N   0  0  0  0  0  0  0  0  0  0  0  0
  150.0489  138.8670  153.7790 N   0  0  0  0  0  0  0  0  0  0  0  0
  151.1632  138.2899  154.1050 C   0  0  0  0  0  0  0  0  0  0  0  0
  151.7504  138.6058  155.4037 C   0  0  0  0  0  0  0  0  0  0  0  0
  152.9182  138.2046  156.1091 C   0  0  0  0  0  0  0  0  0  0  0  0
  153.0104  138.7955  157.2991 N   0  0  0  0  0  0  0  0  0  0  0  0
  151.9119  139.5878  157.4039 N   0  0  0  0  0  0  0  0  0  0  0  0
  151.6990  140.3818  158.6041 C   0  0  0  0  0  0  0  0  0  0  0  0
  152.2585  141.8136  158.4805 C   0  0  1  0  0  0  0  0  0  0  0  0
  151.5249  142.5379  157.5105 O   0  0  0  0  0  0  0  0  0  0  0  0
  152.2793  142.5123  159.8335 C   0  0  0  0  0  0  0  0  0  0  0  0
  151.5215  143.6867  160.0431 C   0  0  0  0  0  0  0  0  0  0  0  0
  151.5332  144.3283  161.2965 C   0  0  0  0  0  0  0  0  0  0  0  0
  152.2993  143.7982  162.3516 C   0  0  0  0  0  0  0  0  0  0  0  0
  153.0510  142.6247  162.1525 C   0  0  0  0  0  0  0  0  0  0  0  0
  153.0410  141.9811  160.8994 C   0  0  0  0  0  0  0  0  0  0  0  0
  153.7650  140.8486  160.7292 F   0  0  0  0  0  0  0  0  0  0  0  0
  151.1546  139.4752  156.2563 C   0  0  0  0  0  0  0  0  0  0  0  0
  149.8812  140.1308  155.8766 C   0  0  0  0  0  0  0  0  0  0  0  0
  149.3124  140.9266  156.6240 O   0  0  0  0  0  0  0  0  0  0  0  0
  148.2453  141.4269  154.0678 H   0  0  0  0  0  0  0  0  0  0  0  0
  147.3371  140.0883  154.7815 H   0  0  0  0  0  0  0  0  0  0  0  0
  147.9365  139.9700  153.1295 H   0  0  0  0  0  0  0  0  0  0  0  0
  151.6531  137.5867  153.4318 H   0  0  0  0  0  0  0  0  0  0  0  0
  153.6917  137.5156  155.8035 H   0  0  0  0  0  0  0  0  0  0  0  0
  150.6304  140.4110  158.8239 H   0  0  0  0  0  0  0  0  0  0  0  0
  152.1682  139.8637  159.4412 H   0  0  0  0  0  0  0  0  0  0  0  0
  153.2802  141.7624  158.1039 H   0  0  0  0  0  0  0  0  0  0  0  0
  151.3863  141.9792  156.7612 H   0  0  0  0  0  0  0  0  0  0  0  0
  150.9247  144.0998  159.2430 H   0  0  0  0  0  0  0  0  0  0  0  0
  150.9523  145.2262  161.4485 H   0  0  0  0  0  0  0  0  0  0  0  0
  152.3083  144.2893  163.3135 H   0  0  0  0  0  0  0  0  0  0  0  0
  153.6354  142.2153  162.9632 H   0  0  0  0  0  0  0  0  0  0  0  0
  1  2  1  0  0  0  0
  1 22  1  0  0  0  0
  1 23  1  0  0  0  0
  1 24  1  0  0  0  0
  2 20  1  0  0  0  0
  2  3  1  0  0  0  0
  3  4  2  0  0  0  0
  4  5  1  0  0  0  0
  4 25  1  0  0  0  0
  5 19  2  0  0  0  0
  5  6  1  0  0  0  0
  6  7  2  0  0  0  0
  6 26  1  0  0  0  0
  7  8  1  0  0  0  0
  8  9  1  0  0  0  0
  8 19  1  0  0  0  0
  9 10  1  0  0  0  0
  9 27  1  0  0  0  0
  9 28  1  0  0  0  0
 10 11  1  0  0  0  0
 10 12  1  0  0  0  0
 10 29  1  0  0  0  0
 11 30  1  0  0  0  0
 12 17  1  0  0  0  0
 12 13  2  0  0  0  0
 13 14  1  0  0  0  0
 13 31  1  0  0  0  0
 14 15  2  0  0  0  0
 14 32  1  0  0  0  0
 15 16  1  0  0  0  0
 15 33  1  0  0  0  0
 16 17  2  0  0  0  0
 16 34  1  0  0  0  0
 17 18  1  0  0  0  0
 19 20  1  0  0  0  0
 20 21  2  0  0  0  0
M  END
> <s_m_source_file>
AV-unprocessed.smi

> <i_m_source_file_index>
2552

> <i_lp_mmshare_version>
43012

> <i_f3d_flags>
0

> <s_epik_input>
W2NIXTFubihbQ0gzXSljKD1PKWMoYzEyKW4obltjSF0yKVtDSDJdW0NASF0oW09IXSljM1tjSF1bY0hdW2NIXVtjSF1jM0Y=

> <s_epik_cmdline>
J2VwaWtfcHl0aG9uJywgJy1waCcsICc3LjAnLCAnLXRuJywgJzgnLCAnLW1hJywgJzIwMCcsICctbWV0YWxfYmluZGluZycsICctaW1hZScsICc8aW5maWxlLm1hZT4nLCAnLW9tYWUnLCAnPG91dGZpbGUubWFlPic=

> <r_lp_tautomer_probability>
1

> <r_epik_Ionization_Penalty>
6.28011e-06

> <r_epik_Ionization_Penalty_Charging>
1.65421e-10

> <r_epik_Ionization_Penalty_Neutral>
6.27995e-06

> <r_epik_State_Penalty>
-0

> <r_epik_Charging_Adjusted_Penalty>
1.65421e-10

> <i_epik_Tot_Q>
0

> <i_epik_Tot_abs_Q>
0

> <r_epik_Metal_State_Penalty>
-0

> <b_epik_Metal_Only>
0

> <s_lp_Force_Field>
OPLS_2005

> <r_lp_Energy>
28.1215

> <b_lp_Chiralities_Consistent>
1

> <s_lp_Variant>
AV-unprocessed.smi:2552-2

> <Gold.Version>
5.8.1

> <Gold.Id.Protein>
6NUR|6NUR_protein|mol2

> <Gold.PLP.Fitness>
48.2333

> <Gold.PLP.PLP>
-43.0752

> <Gold.PLP.part.hbond>
-1.0000

> <Gold.PLP.part.metal>
0.0000

> <Gold.PLP.part.buried>
-5.0596

> <Gold.PLP.part.nonpolar>
-38.4972

> <Gold.PLP.part.repulsive>
1.8182

> <Gold.PLP.ligand.clash>
0.0000

> <Gold.PLP.ligand.torsion>
0.4325

> <Gold.PLP.Chemscore.Hbond>
1.0000

> <Gold.PLP.Chemscore.CHOScore>
1.0000

> <Gold.PLP.Chemscore.Metal>
0.0000

> <Gold.Chemscore.Hbonds>
donor molecule, donor type, donor heavy atom, donor atom, acceptor molecule, acceptor atom, score
      P1  H  7997  8009       L1     7  0.75
      L1  C     4    25       P1  7949  0.93

> <Gold.PLP.Chemscore.Internal.Correction>
0.0230

> <Gold.Rescore>
     Score         DG    S(hbond)    S(metal)    S(lipo)     H(rot)  DE(clash)    DE(int)     intcor
     13.69     -15.88       0.73        0.00     112.25       2.02       0.28       1.92       ----

> <Gold.Chemscore.Fitness>
13.6873

> <Gold.Chemscore.DG>
-15.8833

> <Gold.Chemscore.ZeroCoef>
-5.4800

> <Gold.Chemscore.Hbond>
0.7294

> <Gold.Chemscore.Metal>
0.0000

> <Gold.Chemscore.Lipo>
112.2517

> <Gold.Chemscore.Internal_Hbond>
0.0000

> <Gold.Chemscore.DEClash>
0.2761

> <Gold.Chemscore.DEInternal>
1.9199

> <Gold.Chemscore.Rot>
2.0181

> <Gold.Chemscore.Internal.Correction>
   9.000000E+99

> <Gold.Chemscore.Hbonds>
donor molecule, donor type, donor heavy atom, donor atom, acceptor molecule, acceptor atom, score
      P1  H  7997  8009       L1     7  0.04

> <Gold.Chemscore.Hbond.Weighted>
-2.4362

> <Gold.Chemscore.Metal.Weighted>
-0.0000

> <Gold.Chemscore.Lipo.Weighted>
-13.1335

> <Gold.Chemscore.Internal_Hbond.Weighted>
0.0000

> <Gold.Chemscore.DEClash.Weighted>
0.2761

> <Gold.Chemscore.DEInternal.Weighted>
1.9199

> <Gold.Chemscore.Rot.Weighted>
5.1663

> <Gold.Chemscore.Internal.Correction.Weighted>
   9.000000E+99

> <Gold.Protein.RotatedTorsions>
[ 6907 6896 6895 6894 ] final  -74.64 input  -60.11 | X-H torsion
[ 7974 7965 7964 7962 ] final   36.77 input  175.53 | X-H torsion
[ 8008 7997 7996 7995 ] final  172.15 input   59.86 | X-H torsion
[ 10167 10162 10161 10158 ] final -105.95 input  -65.29 | X-H torsion
[ 10718 10713 10712 10709 ] final  -47.71 input   66.30 | X-H torsion
[ 10763 10752 10751 10750 ] final   22.81 input  -60.55 | X-H torsion
[ 11005 11000 10999 10996 ] final   31.39 input  -57.11 | X-H torsion

> <Gold.Protein.ActiveResidues>
 VAL166  LYS551  ARG553  GLY616  TRP617  ASP618  TYR619  PRO620  LYS621  CYS622 
 ASP623  PHE694  ASN695  SER759  ASP760  ASP761  ALA762  ILE779  LEU786  VAL792 
 PHE793  MET794  SER795  GLU796  ALA797  LYS798  CYS799  TRP800  GLU811  SER814 

> <Gold.Protein.RotatedAtoms>
  150.7086  134.4839  159.5483 H   0  0  0  0  0  0  0  0  0  0  0  0  # atno 6907 bound_to 6896
  152.2470  134.8168  160.0461 H   0  0  0  0  0  0  0  0  0  0  0  0  # atno 6908 bound_to 6896
  151.8929  133.3485  159.3841 H   0  0  0  0  0  0  0  0  0  0  0  0  # atno 6909 bound_to 6896
  146.1187  139.5976  142.9304 H   0  0  0  0  0  0  0  0  0  0  0  0  # atno 7974 bound_to 7965
  156.1203  140.1493  156.9214 H   0  0  0  0  0  0  0  0  0  0  0  0  # atno 8008 bound_to 7997
  154.4830  140.0873  156.7464 H   0  0  0  0  0  0  0  0  0  0  0  0  # atno 8009 bound_to 7997
  155.4441  140.3432  155.4295 H   0  0  0  0  0  0  0  0  0  0  0  0  # atno 8010 bound_to 7997
  140.1930  143.3877  152.1191 H   0  0  0  0  0  0  0  0  0  0  0  0  # atno 10167 bound_to 10162
  156.2058  130.4158  149.9180 H   0  0  0  0  0  0  0  0  0  0  0  0  # atno 10718 bound_to 10713
  153.0886  135.6640  153.9899 H   0  0  0  0  0  0  0  0  0  0  0  0  # atno 10763 bound_to 10752
  153.9502  135.2984  155.3440 H   0  0  0  0  0  0  0  0  0  0  0  0  # atno 10764 bound_to 10752
  154.7298  135.5128  153.9017 H   0  0  0  0  0  0  0  0  0  0  0  0  # atno 10765 bound_to 10752
  140.2844  134.2936  155.7792 H   0  0  0  0  0  0  0  0  0  0  0  0  # atno 11005 bound_to 11000
  145.5512  141.0413  143.2277 LP  0  0  0  0  0  0  0  0  0  0  0  0  # atno 17320 bound_to 7965
  144.7577  139.7034  143.7247 LP  0  0  0  0  0  0  0  0  0  0  0  0  # atno 17321 bound_to 7965
  139.5248  144.7088  151.5271 LP  0  0  0  0  0  0  0  0  0  0  0  0  # atno 17342 bound_to 10162
  140.6442  143.8827  150.6721 LP  0  0  0  0  0  0  0  0  0  0  0  0  # atno 17343 bound_to 10162
  156.6875  130.8882  151.3584 LP  0  0  0  0  0  0  0  0  0  0  0  0  # atno 17370 bound_to 10713
  157.7011  130.9334  150.0789 LP  0  0  0  0  0  0  0  0  0  0  0  0  # atno 17371 bound_to 10713
  141.2157  133.7545  156.9529 LP  0  0  0  0  0  0  0  0  0  0  0  0  # atno 17394 bound_to 11000
  140.1253  134.9390  157.2261 LP  0  0  0  0  0  0  0  0  0  0  0  0  # atno 17395 bound_to 11000

$$$$
