AV-unprocessed.smi:3001|AV-procd|sdf|11432|dock4
  -GOLD-   2272016363D 1   1.00000     0.00000
 Structure written by MMmdl.
 42 43  0  0  0  0  0  0  0  0  2 V2000
  141.4847  144.9712  155.2967 C   0  0  0  0  0  0  0  0  0  0  0  0
  142.0627  143.8966  155.3433 C   0  0  0  0  0  0  0  0  0  0  0  0
  142.7642  142.6039  155.4109 C   0  0  0  0  0  0  0  0  0  0  0  0
  143.9554  142.5667  154.5699 N   0  0  0  0  0  0  0  0  0  0  0  0
  144.9911  143.4167  154.6483 C   0  0  0  0  0  0  0  0  0  0  0  0
  145.0417  144.3511  155.4497 O   0  0  0  0  0  0  0  0  0  0  0  0
  146.1308  143.1814  153.6493 C   0  0  0  0  0  0  0  0  0  0  0  0
  147.4263  142.9993  154.2997 N   0  0  0  0  0  0  0  0  0  0  0  0
  148.1207  141.8522  154.3214 C   0  0  0  0  0  0  0  0  0  0  0  0
  147.7513  140.8209  153.7597 O   0  0  0  0  0  0  0  0  0  0  0  0
  149.2442  141.9736  155.0475 N   0  0  0  0  0  0  0  0  0  0  0  0
  150.1840  140.9531  155.3642 C   0  0  0  0  0  0  0  0  0  0  0  0
  150.2849  139.7843  154.5670 C   0  0  0  0  0  0  0  0  0  0  0  0
  151.2677  138.8191  154.8554 C   0  0  0  0  0  0  0  0  0  0  0  0
  152.1476  139.0449  155.9275 C   0  0  0  0  0  0  0  0  0  0  0  0
  152.0347  140.1726  156.6591 N   0  3  0  0  0  0  0  0  0  0  0  0
  151.0999  141.1317  156.4415 C   0  0  0  0  0  0  0  0  0  0  0  0
  151.0955  142.2546  157.3005 N   0  0  0  0  0  0  0  0  0  0  0  0
  151.1803  143.6035  156.7528 C   0  0  0  0  0  0  0  0  0  0  0  0
  151.5001  144.4970  157.9478 C   0  0  0  0  0  0  0  0  0  0  0  0
  152.3952  143.6001  158.7977 C   0  0  0  0  0  0  0  0  0  0  0  0
  151.8343  142.1944  158.5581 C   0  0  0  0  0  0  0  0  0  0  0  0
  140.9807  145.9109  155.2584 H   0  0  0  0  0  0  0  0  0  0  0  0
  143.0037  142.3900  156.4535 H   0  0  0  0  0  0  0  0  0  0  0  0
  142.0736  141.8300  155.0763 H   0  0  0  0  0  0  0  0  0  0  0  0
  143.9969  141.8347  153.8757 H   0  0  0  0  0  0  0  0  0  0  0  0
  145.9058  142.3208  153.0164 H   0  0  0  0  0  0  0  0  0  0  0  0
  146.1962  144.0469  152.9897 H   0  0  0  0  0  0  0  0  0  0  0  0
  147.8009  143.7964  154.7928 H   0  0  0  0  0  0  0  0  0  0  0  0
  149.3715  142.8519  155.5288 H   0  0  0  0  0  0  0  0  0  0  0  0
  149.6337  139.6233  153.7212 H   0  0  0  0  0  0  0  0  0  0  0  0
  151.3519  137.9256  154.2543 H   0  0  0  0  0  0  0  0  0  0  0  0
  152.9354  138.3652  156.2186 H   0  0  0  0  0  0  0  0  0  0  0  0
  151.9872  143.6675  156.0217 H   0  0  0  0  0  0  0  0  0  0  0  0
  150.2495  143.8959  156.2662 H   0  0  0  0  0  0  0  0  0  0  0  0
  151.9791  145.4339  157.6622 H   0  0  0  0  0  0  0  0  0  0  0  0
  150.5856  144.7350  158.4930 H   0  0  0  0  0  0  0  0  0  0  0  0
  153.4207  143.6539  158.4298 H   0  0  0  0  0  0  0  0  0  0  0  0
  152.4016  143.8793  159.8514 H   0  0  0  0  0  0  0  0  0  0  0  0
  151.1424  141.9298  159.3580 H   0  0  0  0  0  0  0  0  0  0  0  0
  152.6299  141.4485  158.5347 H   0  0  0  0  0  0  0  0  0  0  0  0
  152.6887  140.3074  157.4302 H   0  0  0  0  0  0  0  0  0  0  0  0
  1  2  3  0  0  0  0
  1 23  1  0  0  0  0
  2  3  1  0  0  0  0
  3  4  1  0  0  0  0
  3 24  1  0  0  0  0
  3 25  1  0  0  0  0
  4  5  1  0  0  0  0
  4 26  1  0  0  0  0
  5  6  2  0  0  0  0
  5  7  1  0  0  0  0
  7  8  1  0  0  0  0
  7 27  1  0  0  0  0
  7 28  1  0  0  0  0
  8  9  1  0  0  0  0
  8 29  1  0  0  0  0
  9 10  2  0  0  0  0
  9 11  1  0  0  0  0
 11 12  1  0  0  0  0
 11 30  1  0  0  0  0
 12 17  1  0  0  0  0
 12 13  2  0  0  0  0
 13 14  1  0  0  0  0
 13 31  1  0  0  0  0
 14 15  2  0  0  0  0
 14 32  1  0  0  0  0
 15 16  1  0  0  0  0
 15 33  1  0  0  0  0
 16 17  2  0  0  0  0
 16 42  1  0  0  0  0
 17 18  1  0  0  0  0
 18 22  1  0  0  0  0
 18 19  1  0  0  0  0
 19 20  1  0  0  0  0
 19 34  1  0  0  0  0
 19 35  1  0  0  0  0
 20 21  1  0  0  0  0
 20 36  1  0  0  0  0
 20 37  1  0  0  0  0
 21 22  1  0  0  0  0
 21 38  1  0  0  0  0
 21 39  1  0  0  0  0
 22 40  1  0  0  0  0
 22 41  1  0  0  0  0
M  CHG  1  16   1
M  END
> <s_m_source_file>
AV-unprocessed.smi

> <i_m_source_file_index>
3001

> <i_lp_mmshare_version>
43012

> <i_f3d_flags>
0

> <s_epik_input>
W0NIXSNDW0NIMl1bTkhdQyg9TylbQ0gyXVtOSF1DKD1PKVtOSF1jMVtjSF1bY0hdW2NIXW5jMU4yW0NIMl1bQ0gyXVtDSDJdW0NIMl0y

> <s_epik_cmdline>
J2VwaWtfcHl0aG9uJywgJy1waCcsICc3LjAnLCAnLXRuJywgJzgnLCAnLW1hJywgJzIwMCcsICctbWV0YWxfYmluZGluZycsICctaW1hZScsICc8aW5maWxlLm1hZT4nLCAnLW9tYWUnLCAnPG91dGZpbGUubWFlPic=

> <r_lp_tautomer_probability>
0.999994

> <r_epik_Ionization_Penalty>
0.644915

> <r_epik_Ionization_Penalty_Charging>
0.644896

> <r_epik_Ionization_Penalty_Neutral>
1.90142e-05

> <r_epik_State_Penalty>
0.662902

> <r_epik_Charging_Adjusted_Penalty>
1.3078

> <i_epik_Tot_Q>
1

> <i_epik_Tot_abs_Q>
1

> <r_epik_Metal_State_Penalty>
0.837036

> <b_epik_Metal_Only>
0

> <s_lp_Force_Field>
OPLS_2005

> <r_lp_Energy>
32.9475

> <b_lp_Chiralities_Consistent>
1

> <s_lp_Variant>
AV-unprocessed.smi:3001-2

> <Gold.Version>
5.8.1

> <Gold.Id.Protein>
6NUR|6NUR_protein|mol2

> <Gold.PLP.Fitness>
46.9657

> <Gold.PLP.PLP>
-38.5462

> <Gold.PLP.part.hbond>
-3.8742

> <Gold.PLP.part.metal>
0.0000

> <Gold.PLP.part.buried>
-0.8540

> <Gold.PLP.part.nonpolar>
-34.7584

> <Gold.PLP.part.repulsive>
1.0715

> <Gold.PLP.ligand.clash>
0.0000

> <Gold.PLP.ligand.torsion>
0.3576

> <Gold.PLP.Chemscore.Hbond>
2.9120

> <Gold.PLP.Chemscore.CHOScore>
0.0000

> <Gold.PLP.Chemscore.Metal>
0.0000

> <Gold.Chemscore.Hbonds>
donor molecule, donor type, donor heavy atom, donor atom, acceptor molecule, acceptor atom, score
      L1  H     4    26       P1 10175  0.35
      L1  H     8    29       P1  8028  0.95
      L1  H    11    30       P1  8028  0.93

> <Gold.PLP.Chemscore.Internal.Correction>
0.3988

> <Gold.Rescore>
     Score         DG    S(hbond)    S(metal)    S(lipo)     H(rot)  DE(clash)    DE(int)     intcor
     13.51     -17.10       1.93        0.00      84.98       1.85       1.19       2.40       ----

> <Gold.Chemscore.Fitness>
13.5078

> <Gold.Chemscore.DG>
-17.1045

> <Gold.Chemscore.ZeroCoef>
-5.4800

> <Gold.Chemscore.Hbond>
1.9251

> <Gold.Chemscore.Metal>
0.0000

> <Gold.Chemscore.Lipo>
84.9790

> <Gold.Chemscore.Internal_Hbond>
0.0000

> <Gold.Chemscore.DEClash>
1.1930

> <Gold.Chemscore.DEInternal>
2.4036

> <Gold.Chemscore.Rot>
1.8547

> <Gold.Chemscore.Internal.Correction>
   9.000000E+99

> <Gold.Chemscore.Hbonds>
donor molecule, donor type, donor heavy atom, donor atom, acceptor molecule, acceptor atom, score
      L1  H     4    26       P1 10175  0.01
      L1  H     8    29       P1  8028  0.21
      L1  H    11    30       P1  8028  0.90

> <Gold.Chemscore.Hbond.Weighted>
-6.4299

> <Gold.Chemscore.Metal.Weighted>
-0.0000

> <Gold.Chemscore.Lipo.Weighted>
-9.9425

> <Gold.Chemscore.Internal_Hbond.Weighted>
0.0000

> <Gold.Chemscore.DEClash.Weighted>
1.1930

> <Gold.Chemscore.DEInternal.Weighted>
2.4036

> <Gold.Chemscore.Rot.Weighted>
4.7479

> <Gold.Chemscore.Internal.Correction.Weighted>
   9.000000E+99

> <Gold.Protein.RotatedTorsions>
[ 6907 6896 6895 6894 ] final  -26.67 input  -60.11 | X-H torsion
[ 7974 7965 7964 7962 ] final   89.02 input  175.53 | X-H torsion
[ 8008 7997 7996 7995 ] final  150.25 input   59.86 | X-H torsion
[ 10167 10162 10161 10158 ] final   11.42 input  -65.29 | X-H torsion
[ 10718 10713 10712 10709 ] final -162.71 input   66.30 | X-H torsion
[ 10763 10752 10751 10750 ] final  -19.99 input  -60.55 | X-H torsion
[ 11005 11000 10999 10996 ] final -132.34 input  -57.11 | X-H torsion

> <Gold.Protein.ActiveResidues>
 VAL166  LYS551  ARG553  GLY616  TRP617  ASP618  TYR619  PRO620  LYS621  CYS622 
 ASP623  PHE694  ASN695  SER759  ASP760  ASP761  ALA762  ILE779  LEU786  VAL792 
 PHE793  MET794  SER795  GLU796  ALA797  LYS798  CYS799  TRP800  GLU811  SER814 

> <Gold.Protein.RotatedAtoms>
  151.1577  135.0258  159.8696 H   0  0  0  0  0  0  0  0  0  0  0  0  # atno 6907 bound_to 6896
  152.5452  134.1315  159.8451 H   0  0  0  0  0  0  0  0  0  0  0  0  # atno 6908 bound_to 6896
  151.1407  133.4927  159.2629 H   0  0  0  0  0  0  0  0  0  0  0  0  # atno 6909 bound_to 6896
  145.5379  139.2287  143.2582 H   0  0  0  0  0  0  0  0  0  0  0  0  # atno 7974 bound_to 7965
  156.2723  140.2080  156.5988 H   0  0  0  0  0  0  0  0  0  0  0  0  # atno 8008 bound_to 7997
  154.6923  140.0529  157.0399 H   0  0  0  0  0  0  0  0  0  0  0  0  # atno 8009 bound_to 7997
  155.0849  140.3190  155.4593 H   0  0  0  0  0  0  0  0  0  0  0  0  # atno 8010 bound_to 7997
  140.6133  143.8362  150.7089 H   0  0  0  0  0  0  0  0  0  0  0  0  # atno 10167 bound_to 10162
  156.6143  130.8863  151.2943 H   0  0  0  0  0  0  0  0  0  0  0  0  # atno 10718 bound_to 10713
  153.6134  135.6995  153.5338 H   0  0  0  0  0  0  0  0  0  0  0  0  # atno 10763 bound_to 10752
  153.2997  135.4132  155.1241 H   0  0  0  0  0  0  0  0  0  0  0  0  # atno 10764 bound_to 10752
  154.8558  135.3646  154.5673 H   0  0  0  0  0  0  0  0  0  0  0  0  # atno 10765 bound_to 10752
  140.9179  134.1483  157.4338 H   0  0  0  0  0  0  0  0  0  0  0  0  # atno 11005 bound_to 11000
  146.2001  140.6198  142.9106 LP  0  0  0  0  0  0  0  0  0  0  0  0  # atno 17320 bound_to 7965
  144.7592  140.5381  143.6747 LP  0  0  0  0  0  0  0  0  0  0  0  0  # atno 17321 bound_to 7965
  140.1936  143.4016  152.1845 LP  0  0  0  0  0  0  0  0  0  0  0  0  # atno 17342 bound_to 10162
  139.5378  144.7227  151.4834 LP  0  0  0  0  0  0  0  0  0  0  0  0  # atno 17343 bound_to 10162
  157.7245  130.9604  150.1578 LP  0  0  0  0  0  0  0  0  0  0  0  0  # atno 17370 bound_to 10713
  156.2364  130.3687  149.8386 LP  0  0  0  0  0  0  0  0  0  0  0  0  # atno 17371 bound_to 10713
  139.8769  134.9960  156.5774 LP  0  0  0  0  0  0  0  0  0  0  0  0  # atno 17394 bound_to 11000
  140.8026  133.8493  155.8740 LP  0  0  0  0  0  0  0  0  0  0  0  0  # atno 17395 bound_to 11000

$$$$
