AV-unprocessed.smi:197|AV-procd|sdf|1548|dock5
  -GOLD-   2262019413D 1   1.00000     0.00000
 Structure written by MMmdl.
 54 57  0  0  0  0  0  0  0  0  1 V2000
  150.6839  138.9686  154.8452 C   0  0  0  0  0  0  0  0  0  0  0  0
  150.4334  140.3586  154.7058 O   0  0  0  0  0  0  0  0  0  0  0  0
  150.3241  141.0605  155.9375 C   0  0  0  0  0  0  0  0  0  0  0  0
  151.5125  140.7823  156.8779 C   0  0  0  0  0  0  0  0  0  0  0  0
  151.4873  141.5964  158.1989 C   0  0  2  0  0  0  0  0  0  0  0  0
  151.6788  143.1081  157.9301 C   0  0  0  0  0  0  0  0  0  0  0  0
  151.6861  143.8375  159.1520 O   0  0  0  0  0  0  0  0  0  0  0  0
  152.7549  143.4411  160.0006 C   0  0  0  0  0  0  0  0  0  0  0  0
  152.5791  141.9604  160.3620 C   0  0  0  0  0  0  0  0  0  0  0  0
  152.5125  141.1496  159.1518 N   0  0  0  0  0  0  0  0  0  0  0  0
  152.5266  139.8329  159.4600 C   0  0  0  0  0  0  0  0  0  0  0  0
  151.4633  139.0967  159.0542 N   0  0  0  0  0  0  0  0  0  0  0  0
  151.4066  137.7922  159.3384 C   0  0  0  0  0  0  0  0  0  0  0  0
  152.2898  137.0427  160.0013 N   0  0  0  0  0  0  0  0  0  0  0  0
  153.3689  137.7776  160.3963 C   0  0  0  0  0  0  0  0  0  0  0  0
  153.5684  139.1685  160.1690 C   0  0  0  0  0  0  0  0  0  0  0  0
  154.7817  139.5677  160.7163 N   0  0  0  0  0  0  0  0  0  0  0  0
  155.2645  138.4791  161.2494 C   0  0  0  0  0  0  0  0  0  0  0  0
  154.4870  137.3535  161.0938 N   0  0  0  0  0  0  0  0  0  0  0  0
  154.7819  136.0163  161.5871 C   0  0  0  0  0  0  0  0  0  0  0  0
  155.3187  135.9703  163.0437 C   0  0  1  0  0  0  0  0  0  0  0  0
  156.7349  136.0032  163.0034 O   0  0  0  0  0  0  0  0  0  0  0  0
  154.8318  137.1223  163.9185 C   0  0  0  0  0  0  0  0  0  0  0  0
  153.5222  136.5821  164.4682 C   0  0  0  0  0  0  0  0  0  0  0  0
  153.8350  135.2302  164.7590 O   0  0  0  0  0  0  0  0  0  0  0  0
  154.7667  134.7310  163.7996 C   0  0  2  0  0  0  0  0  0  0  0  0
  155.8012  133.8890  164.5656 C   0  0  0  0  0  0  0  0  0  0  0  0
  150.7945  138.5210  153.8578 H   0  0  0  0  0  0  0  0  0  0  0  0
  149.8660  138.4537  155.3484 H   0  0  0  0  0  0  0  0  0  0  0  0
  151.6057  138.7876  155.3994 H   0  0  0  0  0  0  0  0  0  0  0  0
  150.2266  142.1314  155.7536 H   0  0  0  0  0  0  0  0  0  0  0  0
  149.3930  140.7588  156.4157 H   0  0  0  0  0  0  0  0  0  0  0  0
  151.5318  139.7128  157.0818 H   0  0  0  0  0  0  0  0  0  0  0  0
  152.4427  140.9878  156.3472 H   0  0  0  0  0  0  0  0  0  0  0  0
  150.5130  141.4685  158.6700 H   0  0  0  0  0  0  0  0  0  0  0  0
  152.6041  143.2946  157.3821 H   0  0  0  0  0  0  0  0  0  0  0  0
  150.8649  143.4991  157.3208 H   0  0  0  0  0  0  0  0  0  0  0  0
  153.7141  143.6133  159.5095 H   0  0  0  0  0  0  0  0  0  0  0  0
  152.7408  144.0540  160.9019 H   0  0  0  0  0  0  0  0  0  0  0  0
  153.4106  141.6334  160.9882 H   0  0  0  0  0  0  0  0  0  0  0  0
  151.6654  141.8272  160.9431 H   0  0  0  0  0  0  0  0  0  0  0  0
  150.5273  137.2746  158.9843 H   0  0  0  0  0  0  0  0  0  0  0  0
  156.2119  138.4656  161.7684 H   0  0  0  0  0  0  0  0  0  0  0  0
  153.8727  135.4204  161.4997 H   0  0  0  0  0  0  0  0  0  0  0  0
  155.5047  135.5583  160.9101 H   0  0  0  0  0  0  0  0  0  0  0  0
  157.0658  135.6512  163.8156 H   0  0  0  0  0  0  0  0  0  0  0  0
  155.5182  137.2853  164.7512 H   0  0  0  0  0  0  0  0  0  0  0  0
  154.7197  138.0739  163.4015 H   0  0  0  0  0  0  0  0  0  0  0  0
  153.1851  137.1151  165.3573 H   0  0  0  0  0  0  0  0  0  0  0  0
  152.7315  136.6263  163.7180 H   0  0  0  0  0  0  0  0  0  0  0  0
  154.2273  134.0780  163.1119 H   0  0  0  0  0  0  0  0  0  0  0  0
  156.5337  133.4484  163.8887 H   0  0  0  0  0  0  0  0  0  0  0  0
  155.3153  133.0715  165.0983 H   0  0  0  0  0  0  0  0  0  0  0  0
  156.3368  134.4899  165.3013 H   0  0  0  0  0  0  0  0  0  0  0  0
  1  2  1  0  0  0  0
  1 28  1  0  0  0  0
  1 29  1  0  0  0  0
  1 30  1  0  0  0  0
  2  3  1  0  0  0  0
  3  4  1  0  0  0  0
  3 31  1  0  0  0  0
  3 32  1  0  0  0  0
  4  5  1  0  0  0  0
  4 33  1  0  0  0  0
  4 34  1  0  0  0  0
  5 10  1  0  0  0  0
  5  6  1  0  0  0  0
  5 35  1  0  0  0  0
  6  7  1  0  0  0  0
  6 36  1  0  0  0  0
  6 37  1  0  0  0  0
  7  8  1  0  0  0  0
  8  9  1  0  0  0  0
  8 38  1  0  0  0  0
  8 39  1  0  0  0  0
  9 10  1  0  0  0  0
  9 40  1  0  0  0  0
  9 41  1  0  0  0  0
 10 11  1  0  0  0  0
 11 16  1  0  0  0  0
 11 12  2  0  0  0  0
 12 13  1  0  0  0  0
 13 14  2  0  0  0  0
 13 42  1  0  0  0  0
 14 15  1  0  0  0  0
 15 19  1  0  0  0  0
 15 16  2  0  0  0  0
 16 17  1  0  0  0  0
 17 18  2  0  0  0  0
 18 19  1  0  0  0  0
 18 43  1  0  0  0  0
 19 20  1  0  0  0  0
 20 21  1  0  0  0  0
 20 44  1  0  0  0  0
 20 45  1  0  0  0  0
 21 26  1  0  0  0  0
 21 22  1  0  0  0  0
 21 23  1  0  0  0  0
 22 46  1  0  0  0  0
 23 24  1  0  0  0  0
 23 47  1  0  0  0  0
 23 48  1  0  0  0  0
 24 25  1  0  0  0  0
 24 49  1  0  0  0  0
 24 50  1  0  0  0  0
 25 26  1  0  0  0  0
 26 27  1  0  0  0  0
 26 51  1  0  0  0  0
 27 52  1  0  0  0  0
 27 53  1  0  0  0  0
 27 54  1  0  0  0  0
M  END
> <s_m_source_file>
AV-unprocessed.smi

> <i_m_source_file_index>
197

> <i_lp_mmshare_version>
43012

> <i_f3d_flags>
0

> <s_epik_input>
W0NIM11PW0NIMl1bQ0gyXVtDQEBIXTFbQ0gyXU9bQ0gyXVtDSDJdTjFjKG5bY0hdbjIpYyhjMjMpbltjSF1uM1tDSDJdW0NAQF00KFtPSF0pW0NIMl1bQ0gyXU9bQ0BIXTRbQ0gzXQ==

> <s_epik_cmdline>
J2VwaWtfcHl0aG9uJywgJy1waCcsICc3LjAnLCAnLXRuJywgJzgnLCAnLW1hJywgJzIwMCcsICctbWV0YWxfYmluZGluZycsICctaW1hZScsICc8aW5maWxlLm1hZT4nLCAnLW9tYWUnLCAnPG91dGZpbGUubWFlPic=

> <r_lp_tautomer_probability>
1

> <r_epik_Ionization_Penalty>
0.000106218

> <r_epik_Ionization_Penalty_Charging>
0

> <r_epik_Ionization_Penalty_Neutral>
0.000106218

> <r_epik_State_Penalty>
-0

> <r_epik_Charging_Adjusted_Penalty>
0

> <i_epik_Tot_Q>
0

> <i_epik_Tot_abs_Q>
0

> <r_epik_Metal_State_Penalty>
-0

> <b_epik_Metal_Only>
0

> <s_lp_Force_Field>
OPLS_2005

> <r_lp_Energy>
44.1389

> <b_lp_Chiralities_Consistent>
1

> <s_lp_Variant>
AV-unprocessed.smi:197-5

> <Gold.Version>
5.8.1

> <Gold.Id.Protein>
6NUR|6NUR_protein|mol2

> <Gold.PLP.Fitness>
49.1428

> <Gold.PLP.PLP>
-44.9599

> <Gold.PLP.part.hbond>
-1.9957

> <Gold.PLP.part.metal>
0.0000

> <Gold.PLP.part.buried>
-7.8299

> <Gold.PLP.part.nonpolar>
-35.4571

> <Gold.PLP.part.repulsive>
0.2287

> <Gold.PLP.ligand.clash>
0.0000

> <Gold.PLP.ligand.torsion>
1.0433

> <Gold.PLP.Chemscore.Hbond>
2.0000

> <Gold.PLP.Chemscore.CHOScore>
0.0000

> <Gold.PLP.Chemscore.Metal>
0.0000

> <Gold.Chemscore.Hbonds>
donor molecule, donor type, donor heavy atom, donor atom, acceptor molecule, acceptor atom, score
      P1  H  6896  6908       L1    14  1.00
      P1  H  7989  7998       L1     2  1.00

> <Gold.PLP.Chemscore.Internal.Correction>
0.2695

> <Gold.Rescore>
     Score         DG    S(hbond)    S(metal)    S(lipo)     H(rot)  DE(clash)    DE(int)     intcor
     14.06     -16.79       1.75        0.00     108.73       2.84       0.32       2.41       ----

> <Gold.Chemscore.Fitness>
14.0566

> <Gold.Chemscore.DG>
-16.7899

> <Gold.Chemscore.ZeroCoef>
-5.4800

> <Gold.Chemscore.Hbond>
1.7510

> <Gold.Chemscore.Metal>
0.0000

> <Gold.Chemscore.Lipo>
108.7282

> <Gold.Chemscore.Internal_Hbond>
0.0000

> <Gold.Chemscore.DEClash>
0.3197

> <Gold.Chemscore.DEInternal>
2.4136

> <Gold.Chemscore.Rot>
2.8358

> <Gold.Chemscore.Internal.Correction>
   9.000000E+99

> <Gold.Chemscore.Hbonds>
donor molecule, donor type, donor heavy atom, donor atom, acceptor molecule, acceptor atom, score
      P1  H  6896  6908       L1    14  0.87
      P1  H  7989  7998       L1     2  0.43

> <Gold.Chemscore.Hbond.Weighted>
-5.8482

> <Gold.Chemscore.Metal.Weighted>
-0.0000

> <Gold.Chemscore.Lipo.Weighted>
-12.7212

> <Gold.Chemscore.Internal_Hbond.Weighted>
0.0000

> <Gold.Chemscore.DEClash.Weighted>
0.3197

> <Gold.Chemscore.DEInternal.Weighted>
2.4136

> <Gold.Chemscore.Rot.Weighted>
7.2596

> <Gold.Chemscore.Internal.Correction.Weighted>
   9.000000E+99

> <Gold.Protein.RotatedTorsions>
[ 6907 6896 6895 6894 ] final -104.57 input  -60.11 | X-H torsion
[ 7974 7965 7964 7962 ] final -107.48 input  175.53 | X-H torsion
[ 8008 7997 7996 7995 ] final  103.89 input   59.86 | X-H torsion
[ 10167 10162 10161 10158 ] final   16.62 input  -65.29 | X-H torsion
[ 10718 10713 10712 10709 ] final  -97.16 input   66.30 | X-H torsion
[ 10763 10752 10751 10750 ] final  -31.30 input  -60.55 | X-H torsion
[ 11005 11000 10999 10996 ] final  113.92 input  -57.11 | X-H torsion

> <Gold.Protein.ActiveResidues>
 VAL166  LYS551  ARG553  GLY616  TRP617  ASP618  TYR619  PRO620  LYS621  CYS622 
 ASP623  PHE694  ASN695  SER759  ASP760  ASP761  ALA762  ILE779  LEU786  VAL792 
 PHE793  MET794  SER795  GLU796  ALA797  LYS798  CYS799  TRP800  GLU811  SER814 

> <Gold.Protein.RotatedAtoms>
  150.7294  134.0257  159.3716 H   0  0  0  0  0  0  0  0  0  0  0  0  # atno 6907 bound_to 6896
  151.8224  135.0645  160.0436 H   0  0  0  0  0  0  0  0  0  0  0  0  # atno 6908 bound_to 6896
  152.2994  133.5604  159.5645 H   0  0  0  0  0  0  0  0  0  0  0  0  # atno 6909 bound_to 6896
  145.2048  140.9071  143.3349 H   0  0  0  0  0  0  0  0  0  0  0  0  # atno 7974 bound_to 7965
  156.1525  140.3157  155.8671 H   0  0  0  0  0  0  0  0  0  0  0  0  # atno 8008 bound_to 7997
  155.3944  140.0495  157.3056 H   0  0  0  0  0  0  0  0  0  0  0  0  # atno 8009 bound_to 7997
  154.5071  140.2151  155.9241 H   0  0  0  0  0  0  0  0  0  0  0  0  # atno 8010 bound_to 7997
  140.5784  143.9027  150.6769 H   0  0  0  0  0  0  0  0  0  0  0  0  # atno 10167 bound_to 10162
  156.0077  130.5182  150.6333 H   0  0  0  0  0  0  0  0  0  0  0  0  # atno 10718 bound_to 10713
  153.7951  135.6894  153.4865 H   0  0  0  0  0  0  0  0  0  0  0  0  # atno 10763 bound_to 10752
  153.1724  135.4537  154.9919 H   0  0  0  0  0  0  0  0  0  0  0  0  # atno 10764 bound_to 10752
  154.8029  135.3345  154.7444 H   0  0  0  0  0  0  0  0  0  0  0  0  # atno 10765 bound_to 10752
  139.8966  134.9559  156.6813 H   0  0  0  0  0  0  0  0  0  0  0  0  # atno 11005 bound_to 11000
  144.9913  139.3687  143.6213 LP  0  0  0  0  0  0  0  0  0  0  0  0  # atno 17320 bound_to 7965
  146.3410  139.9097  142.8782 LP  0  0  0  0  0  0  0  0  0  0  0  0  # atno 17321 bound_to 7965
  140.2521  143.3586  152.1397 LP  0  0  0  0  0  0  0  0  0  0  0  0  # atno 17342 bound_to 10162
  139.5156  144.6965  151.5616 LP  0  0  0  0  0  0  0  0  0  0  0  0  # atno 17343 bound_to 10162
  157.4127  131.0826  151.1205 LP  0  0  0  0  0  0  0  0  0  0  0  0  # atno 17370 bound_to 10713
  157.1832  130.6319  149.5679 LP  0  0  0  0  0  0  0  0  0  0  0  0  # atno 17371 bound_to 10713
  140.7297  133.9070  155.8203 LP  0  0  0  0  0  0  0  0  0  0  0  0  # atno 17394 bound_to 11000
  141.0163  134.0951  157.4168 LP  0  0  0  0  0  0  0  0  0  0  0  0  # atno 17395 bound_to 11000

$$$$
