AV-unprocessed.smi:701|AV-procd|sdf|3408|dock7
  -GOLD-   22720 0393D 1   1.00000     0.00000
 Structure written by MMmdl.
 49 51  0  0  0  0  0  0  0  0  1 V2000
  140.9190  135.5048  153.1705 C   0  0  0  0  0  0  0  0  0  0  0  0
  142.3910  135.0909  153.1130 C   0  0  0  0  0  0  0  0  0  0  0  0
  143.1720  136.1006  153.7291 O   0  0  0  0  0  0  0  0  0  0  0  0
  144.4659  135.6525  154.1150 C   0  0  2  0  0  0  0  0  0  0  0  0
  145.2489  136.7325  154.8736 C   0  0  0  0  0  0  0  0  0  0  0  0
  145.7436  137.2027  153.5052 C   0  0  1  0  0  0  0  0  0  0  0  0
  147.1393  137.6246  153.5220 N   0  0  0  0  0  0  0  0  0  0  0  0
  147.6020  138.6748  154.2149 C   0  0  0  0  0  0  0  0  0  0  0  0
  146.8809  139.3957  154.9059 O   0  0  0  0  0  0  0  0  0  0  0  0
  149.1017  138.9711  154.0809 C   0  0  0  0  0  0  0  0  0  0  0  0
  149.5336  140.0883  154.9326 N   0  0  0  0  0  0  0  0  0  0  0  0
  150.3922  139.8668  156.0001 C   0  0  0  0  0  0  0  0  0  0  0  0
  150.8412  140.8527  156.8126 C   0  0  0  0  0  0  0  0  0  0  0  0
  150.4289  142.2351  156.5941 C   0  0  0  0  0  0  0  0  0  0  0  0
  150.7808  143.1961  157.2744 O   0  0  0  0  0  0  0  0  0  0  0  0
  149.5659  142.4171  155.5102 N   0  0  0  0  0  0  0  0  0  0  0  0
  149.1011  141.4060  154.6679 C   0  0  0  0  0  0  0  0  0  0  0  0
  148.3447  141.6767  153.7357 O   0  0  0  0  0  0  0  0  0  0  0  0
  145.5046  135.7681  152.9661 C   0  0  0  0  0  0  0  0  0  0  0  0
  146.6884  134.7756  153.0514 C   0  0  0  0  0  0  0  0  0  0  0  0
  146.2884  133.3323  152.6972 C   0  0  0  0  0  0  0  0  0  0  0  0
  145.6581  133.2548  151.3007 C   0  0  0  0  0  0  0  0  0  0  0  0
  144.5089  134.2601  151.1518 C   0  0  0  0  0  0  0  0  0  0  0  0
  144.9641  135.6797  151.5276 C   0  0  0  0  0  0  0  0  0  0  0  0
  149.2545  143.3582  155.3190 H   0  0  0  0  0  0  0  0  0  0  0  0
  140.2832  134.7499  152.7079 H   0  0  0  0  0  0  0  0  0  0  0  0
  140.7566  136.4469  152.6460 H   0  0  0  0  0  0  0  0  0  0  0  0
  140.5897  135.6336  154.2017 H   0  0  0  0  0  0  0  0  0  0  0  0
  142.5277  134.1364  153.6221 H   0  0  0  0  0  0  0  0  0  0  0  0
  142.7009  134.9589  152.0754 H   0  0  0  0  0  0  0  0  0  0  0  0
  144.4550  134.6778  154.6048 H   0  0  0  0  0  0  0  0  0  0  0  0
  144.6416  137.4625  155.4089 H   0  0  0  0  0  0  0  0  0  0  0  0
  146.0333  136.3197  155.5101 H   0  0  0  0  0  0  0  0  0  0  0  0
  145.0624  137.9367  153.0677 H   0  0  0  0  0  0  0  0  0  0  0  0
  147.7922  137.0862  152.9713 H   0  0  0  0  0  0  0  0  0  0  0  0
  149.6859  138.0767  154.3073 H   0  0  0  0  0  0  0  0  0  0  0  0
  149.3087  139.1915  153.0329 H   0  0  0  0  0  0  0  0  0  0  0  0
  150.7279  138.8586  156.1965 H   0  0  0  0  0  0  0  0  0  0  0  0
  151.5105  140.6177  157.6276 H   0  0  0  0  0  0  0  0  0  0  0  0
  147.4883  135.0892  152.3791 H   0  0  0  0  0  0  0  0  0  0  0  0
  147.1273  134.7792  154.0492 H   0  0  0  0  0  0  0  0  0  0  0  0
  147.1628  132.6827  152.7445 H   0  0  0  0  0  0  0  0  0  0  0  0
  145.5842  132.9508  153.4368 H   0  0  0  0  0  0  0  0  0  0  0  0
  146.4205  133.4644  150.5492 H   0  0  0  0  0  0  0  0  0  0  0  0
  145.3008  132.2435  151.1053 H   0  0  0  0  0  0  0  0  0  0  0  0
  144.1360  134.2475  150.1274 H   0  0  0  0  0  0  0  0  0  0  0  0
  143.6747  133.9630  151.7885 H   0  0  0  0  0  0  0  0  0  0  0  0
  144.1322  136.3696  151.3842 H   0  0  0  0  0  0  0  0  0  0  0  0
  145.7307  136.0060  150.8237 H   0  0  0  0  0  0  0  0  0  0  0  0
  1  2  1  0  0  0  0
  1 26  1  0  0  0  0
  1 27  1  0  0  0  0
  1 28  1  0  0  0  0
  2  3  1  0  0  0  0
  2 29  1  0  0  0  0
  2 30  1  0  0  0  0
  3  4  1  0  0  0  0
  4 19  1  0  0  0  0
  4  5  1  0  0  0  0
  4 31  1  0  0  0  0
  5  6  1  0  0  0  0
  5 32  1  0  0  0  0
  5 33  1  0  0  0  0
  6  7  1  0  0  0  0
  6 19  1  0  0  0  0
  6 34  1  0  0  0  0
  7  8  1  0  0  0  0
  7 35  1  0  0  0  0
  8  9  2  0  0  0  0
  8 10  1  0  0  0  0
 10 11  1  0  0  0  0
 10 36  1  0  0  0  0
 10 37  1  0  0  0  0
 11 17  1  0  0  0  0
 11 12  1  0  0  0  0
 12 13  2  0  0  0  0
 12 38  1  0  0  0  0
 13 14  1  0  0  0  0
 13 39  1  0  0  0  0
 14 15  2  0  0  0  0
 14 16  1  0  0  0  0
 16 25  1  0  0  0  0
 16 17  1  0  0  0  0
 17 18  2  0  0  0  0
 19 24  1  0  0  0  0
 19 20  1  0  0  0  0
 20 21  1  0  0  0  0
 20 40  1  0  0  0  0
 20 41  1  0  0  0  0
 21 22  1  0  0  0  0
 21 42  1  0  0  0  0
 21 43  1  0  0  0  0
 22 23  1  0  0  0  0
 22 44  1  0  0  0  0
 22 45  1  0  0  0  0
 23 24  1  0  0  0  0
 23 46  1  0  0  0  0
 23 47  1  0  0  0  0
 24 48  1  0  0  0  0
 24 49  1  0  0  0  0
M  END
> <s_m_source_file>
AV-unprocessed.smi

> <i_m_source_file_index>
701

> <i_lp_mmshare_version>
43012

> <i_f3d_flags>
0

> <s_epik_input>
W0NIMl0xW0NIMl1bQ0gyXVtDSDJdW0NIMl1DMTJbQ0BIXShPW0NIMl1bQ0gzXSlbQ0gyXVtDQEhdMltOSF1DKD1PKVtDSDJdbjNbY0hdW2NIXWMoPU8pW25IXWMzPU8=

> <s_epik_cmdline>
J2VwaWtfcHl0aG9uJywgJy1waCcsICc3LjAnLCAnLXRuJywgJzgnLCAnLW1hJywgJzIwMCcsICctbWV0YWxfYmluZGluZycsICctaW1hZScsICc8aW5maWxlLm1hZT4nLCAnLW9tYWUnLCAnPG91dGZpbGUubWFlPic=

> <r_lp_tautomer_probability>
0.999537

> <r_epik_Ionization_Penalty>
0.00304597

> <r_epik_Ionization_Penalty_Charging>
0.00304595

> <r_epik_Ionization_Penalty_Neutral>
1.88422e-08

> <r_epik_State_Penalty>
0.00214084

> <r_epik_Charging_Adjusted_Penalty>
0.00518679

> <i_epik_Tot_Q>
0

> <i_epik_Tot_abs_Q>
0

> <r_epik_Metal_State_Penalty>
0.361872

> <b_epik_Metal_Only>
0

> <s_lp_Force_Field>
OPLS_2005

> <r_lp_Energy>
27.2214

> <b_lp_Chiralities_Consistent>
1

> <s_lp_Variant>
AV-unprocessed.smi:701-1

> <Gold.Version>
5.8.1

> <Gold.Id.Protein>
6NUR|6NUR_protein|mol2

> <Gold.PLP.Fitness>
40.4275

> <Gold.PLP.PLP>
-33.0687

> <Gold.PLP.part.hbond>
-3.0000

> <Gold.PLP.part.metal>
0.0000

> <Gold.PLP.part.buried>
-1.8367

> <Gold.PLP.part.nonpolar>
-27.6035

> <Gold.PLP.part.repulsive>
0.6018

> <Gold.PLP.ligand.clash>
0.0000

> <Gold.PLP.ligand.torsion>
0.4271

> <Gold.PLP.Chemscore.Hbond>
2.6240

> <Gold.PLP.Chemscore.CHOScore>
0.0000

> <Gold.PLP.Chemscore.Metal>
0.0000

> <Gold.Chemscore.Hbonds>
donor molecule, donor type, donor heavy atom, donor atom, acceptor molecule, acceptor atom, score
      L1  H     7    35       P1  7948  1.00
      L1  H    16    25       P1  8028  0.78
      P1  H  8011  8017       L1    18  0.43

> <Gold.PLP.Chemscore.Internal.Correction>
0.3410

> <Gold.Rescore>
     Score         DG    S(hbond)    S(metal)    S(lipo)     H(rot)  DE(clash)    DE(int)     intcor
      9.60     -14.18       2.00        0.00      62.99       2.09       0.10       4.48       ----

> <Gold.Chemscore.Fitness>
9.5986

> <Gold.Chemscore.DG>
-14.1768

> <Gold.Chemscore.ZeroCoef>
-5.4800

> <Gold.Chemscore.Hbond>
2.0017

> <Gold.Chemscore.Metal>
0.0000

> <Gold.Chemscore.Lipo>
62.9914

> <Gold.Chemscore.Internal_Hbond>
0.0000

> <Gold.Chemscore.DEClash>
0.1019

> <Gold.Chemscore.DEInternal>
4.4763

> <Gold.Chemscore.Rot>
2.0933

> <Gold.Chemscore.Internal.Correction>
   9.000000E+99

> <Gold.Chemscore.Hbonds>
donor molecule, donor type, donor heavy atom, donor atom, acceptor molecule, acceptor atom, score
      L1  H     7    35       P1  7948  1.00
      L1  H    16    25       P1  8028  0.76
      P1  H  8011  8017       L1    18  0.11

> <Gold.Chemscore.Hbond.Weighted>
-6.6856

> <Gold.Chemscore.Metal.Weighted>
-0.0000

> <Gold.Chemscore.Lipo.Weighted>
-7.3700

> <Gold.Chemscore.Internal_Hbond.Weighted>
0.0000

> <Gold.Chemscore.DEClash.Weighted>
0.1019

> <Gold.Chemscore.DEInternal.Weighted>
4.4763

> <Gold.Chemscore.Rot.Weighted>
5.3588

> <Gold.Chemscore.Internal.Correction.Weighted>
   9.000000E+99

> <Gold.Protein.RotatedTorsions>
[ 6907 6896 6895 6894 ] final -109.94 input  -60.11 | X-H torsion
[ 7974 7965 7964 7962 ] final    4.46 input  175.53 | X-H torsion
[ 8008 7997 7996 7995 ] final -141.35 input   59.86 | X-H torsion
[ 10167 10162 10161 10158 ] final  140.56 input  -65.29 | X-H torsion
[ 10718 10713 10712 10709 ] final -165.23 input   66.30 | X-H torsion
[ 10763 10752 10751 10750 ] final -103.27 input  -60.55 | X-H torsion
[ 11005 11000 10999 10996 ] final -173.86 input  -57.11 | X-H torsion

> <Gold.Protein.ActiveResidues>
 VAL166  LYS551  ARG553  GLY616  TRP617  ASP618  TYR619  PRO620  LYS621  CYS622 
 ASP623  PHE694  ASN695  SER759  ASP760  ASP761  ALA762  ILE779  LEU786  VAL792 
 PHE793  MET794  SER795  GLU796  ALA797  LYS798  CYS799  TRP800  GLU811  SER814 

> <Gold.Protein.RotatedAtoms>
  150.7593  133.9456  159.3469 H   0  0  0  0  0  0  0  0  0  0  0  0  # atno 6907 bound_to 6896
  151.7368  135.0861  160.0318 H   0  0  0  0  0  0  0  0  0  0  0  0  # atno 6908 bound_to 6896
  152.3554  133.6193  159.6011 H   0  0  0  0  0  0  0  0  0  0  0  0  # atno 6909 bound_to 6896
  146.2444  140.0532  142.8373 H   0  0  0  0  0  0  0  0  0  0  0  0  # atno 7974 bound_to 7965
  155.4763  140.0557  157.2973 H   0  0  0  0  0  0  0  0  0  0  0  0  # atno 8008 bound_to 7997
  154.4678  140.2026  156.0026 H   0  0  0  0  0  0  0  0  0  0  0  0  # atno 8009 bound_to 7997
  156.1004  140.3220  155.7939 H   0  0  0  0  0  0  0  0  0  0  0  0  # atno 8010 bound_to 7997
  139.5045  144.6227  151.6013 H   0  0  0  0  0  0  0  0  0  0  0  0  # atno 10167 bound_to 10162
  156.6504  130.9005  151.3012 H   0  0  0  0  0  0  0  0  0  0  0  0  # atno 10718 bound_to 10713
  154.7795  135.4830  153.9814 H   0  0  0  0  0  0  0  0  0  0  0  0  # atno 10763 bound_to 10752
  153.1474  135.6784  153.8941 H   0  0  0  0  0  0  0  0  0  0  0  0  # atno 10764 bound_to 10752
  153.8597  135.3157  155.3415 H   0  0  0  0  0  0  0  0  0  0  0  0  # atno 10765 bound_to 10752
  140.4810  134.6075  157.4919 H   0  0  0  0  0  0  0  0  0  0  0  0  # atno 11005 bound_to 11000
  145.0966  140.9319  143.4737 LP  0  0  0  0  0  0  0  0  0  0  0  0  # atno 17320 bound_to 7965
  145.0716  139.3027  143.5829 LP  0  0  0  0  0  0  0  0  0  0  0  0  # atno 17321 bound_to 7965
  140.5934  143.9740  150.6339 LP  0  0  0  0  0  0  0  0  0  0  0  0  # atno 17342 bound_to 10162
  140.2928  143.3313  152.1046 LP  0  0  0  0  0  0  0  0  0  0  0  0  # atno 17343 bound_to 10162
  157.7143  130.9478  150.1198 LP  0  0  0  0  0  0  0  0  0  0  0  0  # atno 17370 bound_to 10713
  156.2089  130.3665  149.8695 LP  0  0  0  0  0  0  0  0  0  0  0  0  # atno 17371 bound_to 10713
  139.9827  134.7112  155.9831 LP  0  0  0  0  0  0  0  0  0  0  0  0  # atno 17394 bound_to 11000
  141.1531  133.6546  156.4076 LP  0  0  0  0  0  0  0  0  0  0  0  0  # atno 17395 bound_to 11000

$$$$
