AV-unprocessed.smi:93|AV-procd|sdf|849|dock8
  -GOLD-   2262017293D 1   1.00000     0.00000
 Structure written by MMmdl.
 50 52  0  0  0  0  0  0  0  0  1 V2000
  150.4918  141.4458  157.1970 C   0  0  0  0  0  0  0  0  0  0  0  0
  149.5785  140.3122  157.0995 N   0  0  0  0  0  0  0  0  0  0  0  0
  148.3428  140.4464  156.3172 C   0  0  0  0  0  0  0  0  0  0  0  0
  148.4753  140.0975  154.8034 C   0  0  0  0  0  0  0  0  0  0  0  0
  147.0842  139.9294  154.1497 C   0  0  0  0  0  0  0  0  0  0  0  0
  149.2382  141.2568  154.1080 C   0  0  0  0  0  0  0  0  0  0  0  0
  148.5034  142.4655  154.1030 O   0  0  0  0  0  0  0  0  0  0  0  0
  149.2906  138.7874  154.6343 C   0  0  0  0  0  0  0  0  0  0  0  0
  149.5392  138.4669  153.2794 O   0  0  0  0  0  0  0  0  0  0  0  0
  149.8628  139.1677  157.7815 C   0  0  0  0  0  0  0  0  0  0  0  0
  151.1651  138.8262  157.9706 N   0  0  0  0  0  0  0  0  0  0  0  0
  151.4923  137.7181  158.6394 C   0  0  0  0  0  0  0  0  0  0  0  0
  150.6871  136.8182  159.2039 N   0  0  0  0  0  0  0  0  0  0  0  0
  149.3767  137.1505  159.0285 C   0  0  0  0  0  0  0  0  0  0  0  0
  148.8791  138.2907  158.3323 C   0  0  0  0  0  0  0  0  0  0  0  0
  147.4883  138.2856  158.3729 N   0  0  0  0  0  0  0  0  0  0  0  0
  147.1848  137.2095  159.0442 C   0  0  0  0  0  0  0  0  0  0  0  0
  148.2595  136.4748  159.4887 N   0  0  0  0  0  0  0  0  0  0  0  0
  148.2119  135.2464  160.2676 C   0  0  0  0  0  0  0  0  0  0  0  0
  147.4700  135.4007  161.6165 C   0  0  1  0  0  0  0  0  0  0  0  0
  148.0760  136.4470  162.3567 O   0  0  0  0  0  0  0  0  0  0  0  0
  145.9919  135.7282  161.4492 C   0  0  0  0  0  0  0  0  0  0  0  0
  145.3762  135.1499  162.7161 C   0  0  0  0  0  0  0  0  0  0  0  0
  146.0902  133.9380  162.8933 O   0  0  0  0  0  0  0  0  0  0  0  0
  147.4445  134.1318  162.4945 C   0  0  0  0  0  0  0  0  0  0  0  0
  150.8319  141.5821  158.2241 H   0  0  0  0  0  0  0  0  0  0  0  0
  150.0061  142.3708  156.8862 H   0  0  0  0  0  0  0  0  0  0  0  0
  151.3631  141.2977  156.5595 H   0  0  0  0  0  0  0  0  0  0  0  0
  147.5435  139.8608  156.7711 H   0  0  0  0  0  0  0  0  0  0  0  0
  148.0036  141.4787  156.4076 H   0  0  0  0  0  0  0  0  0  0  0  0
  147.1624  139.8105  153.0689 H   0  0  0  0  0  0  0  0  0  0  0  0
  146.4471  140.7947  154.3343 H   0  0  0  0  0  0  0  0  0  0  0  0
  146.5629  139.0516  154.5315 H   0  0  0  0  0  0  0  0  0  0  0  0
  150.1916  141.4380  154.6053 H   0  0  0  0  0  0  0  0  0  0  0  0
  149.4691  141.0087  153.0715 H   0  0  0  0  0  0  0  0  0  0  0  0
  148.9865  143.1125  154.5939 H   0  0  0  0  0  0  0  0  0  0  0  0
  150.2477  138.8614  155.1520 H   0  0  0  0  0  0  0  0  0  0  0  0
  148.7589  137.9416  155.0696 H   0  0  0  0  0  0  0  0  0  0  0  0
  149.4087  139.2443  152.7582 H   0  0  0  0  0  0  0  0  0  0  0  0
  152.5507  137.5269  158.7377 H   0  0  0  0  0  0  0  0  0  0  0  0
  146.1616  136.9257  159.2442 H   0  0  0  0  0  0  0  0  0  0  0  0
  147.7369  134.4745  159.6605 H   0  0  0  0  0  0  0  0  0  0  0  0
  149.2354  134.9108  160.4391 H   0  0  0  0  0  0  0  0  0  0  0  0
  147.5848  136.5726  163.1541 H   0  0  0  0  0  0  0  0  0  0  0  0
  145.7882  136.7919  161.3186 H   0  0  0  0  0  0  0  0  0  0  0  0
  145.5835  135.2030  160.5847 H   0  0  0  0  0  0  0  0  0  0  0  0
  145.5492  135.8055  163.5710 H   0  0  0  0  0  0  0  0  0  0  0  0
  144.3042  134.9757  162.6248 H   0  0  0  0  0  0  0  0  0  0  0  0
  147.7583  133.2443  161.9464 H   0  0  0  0  0  0  0  0  0  0  0  0
  148.0895  134.2193  163.3701 H   0  0  0  0  0  0  0  0  0  0  0  0
  1  2  1  0  0  0  0
  1 26  1  0  0  0  0
  1 27  1  0  0  0  0
  1 28  1  0  0  0  0
  2  3  1  0  0  0  0
  2 10  1  0  0  0  0
  3  4  1  0  0  0  0
  3 29  1  0  0  0  0
  3 30  1  0  0  0  0
  4  5  1  0  0  0  0
  4  6  1  0  0  0  0
  4  8  1  0  0  0  0
  5 31  1  0  0  0  0
  5 32  1  0  0  0  0
  5 33  1  0  0  0  0
  6  7  1  0  0  0  0
  6 34  1  0  0  0  0
  6 35  1  0  0  0  0
  7 36  1  0  0  0  0
  8  9  1  0  0  0  0
  8 37  1  0  0  0  0
  8 38  1  0  0  0  0
  9 39  1  0  0  0  0
 10 15  1  0  0  0  0
 10 11  2  0  0  0  0
 11 12  1  0  0  0  0
 12 13  2  0  0  0  0
 12 40  1  0  0  0  0
 13 14  1  0  0  0  0
 14 18  1  0  0  0  0
 14 15  2  0  0  0  0
 15 16  1  0  0  0  0
 16 17  2  0  0  0  0
 17 18  1  0  0  0  0
 17 41  1  0  0  0  0
 18 19  1  0  0  0  0
 19 20  1  0  0  0  0
 19 42  1  0  0  0  0
 19 43  1  0  0  0  0
 20 25  1  0  0  0  0
 20 21  1  0  0  0  0
 20 22  1  0  0  0  0
 21 44  1  0  0  0  0
 22 23  1  0  0  0  0
 22 45  1  0  0  0  0
 22 46  1  0  0  0  0
 23 24  1  0  0  0  0
 23 47  1  0  0  0  0
 23 48  1  0  0  0  0
 24 25  1  0  0  0  0
 25 49  1  0  0  0  0
 25 50  1  0  0  0  0
M  END
> <s_m_source_file>
AV-unprocessed.smi

> <i_m_source_file_index>
93

> <i_lp_mmshare_version>
43012

> <i_f3d_flags>
0

> <s_epik_input>
W09IXVtDSDJdQyhbQ0gzXSkoW0NIMl1bT0hdKVtDSDJdTihbQ0gzXSljKG5bY0hdbjEpYyhjMTIpbltjSF1uMltDSDJdW0NAQF0zKFtPSF0pW0NIMl1bQ0gyXU9bQ0gyXTM=

> <s_epik_cmdline>
J2VwaWtfcHl0aG9uJywgJy1waCcsICc3LjAnLCAnLXRuJywgJzgnLCAnLW1hJywgJzIwMCcsICctbWV0YWxfYmluZGluZycsICctaW1hZScsICc8aW5maWxlLm1hZT4nLCAnLW9tYWUnLCAnPG91dGZpbGUubWFlPic=

> <r_lp_tautomer_probability>
1

> <r_epik_Ionization_Penalty>
0.00325397

> <r_epik_Ionization_Penalty_Charging>
0

> <r_epik_Ionization_Penalty_Neutral>
0.00325397

> <r_epik_State_Penalty>
0.00225047

> <r_epik_Charging_Adjusted_Penalty>
0.00225047

> <i_epik_Tot_Q>
0

> <i_epik_Tot_abs_Q>
0

> <r_epik_Metal_State_Penalty>
-0

> <b_epik_Metal_Only>
0

> <s_lp_Force_Field>
OPLS_2005

> <r_lp_Energy>
39.2325

> <b_lp_Chiralities_Consistent>
1

> <s_lp_Variant>
AV-unprocessed.smi:93-1

> <Gold.Version>
5.8.1

> <Gold.Id.Protein>
6NUR|6NUR_protein|mol2

> <Gold.PLP.Fitness>
48.5586

> <Gold.PLP.PLP>
-38.4782

> <Gold.PLP.part.hbond>
-8.0532

> <Gold.PLP.part.metal>
0.0000

> <Gold.PLP.part.buried>
-4.7717

> <Gold.PLP.part.nonpolar>
-25.4097

> <Gold.PLP.part.repulsive>
0.0277

> <Gold.PLP.ligand.clash>
0.0000

> <Gold.PLP.ligand.torsion>
0.9616

> <Gold.PLP.Chemscore.Hbond>
3.8633

> <Gold.PLP.Chemscore.CHOScore>
0.0000

> <Gold.PLP.Chemscore.Metal>
0.0000

> <Gold.Chemscore.Hbonds>
donor molecule, donor type, donor heavy atom, donor atom, acceptor molecule, acceptor atom, score
      L1  H     7    36       P1  8028  0.91
      L1  H     9    39       P1  7957  0.93
      P1  H  6896  6909       L1    13  1.00
      P1  H  6931  6943       L1    21  0.88

> <Gold.PLP.Chemscore.Internal.Correction>
0.4139

> <Gold.Rescore>
     Score         DG    S(hbond)    S(metal)    S(lipo)     H(rot)  DE(clash)    DE(int)     intcor
     11.73     -13.11       3.45        0.00      67.43       4.60       0.25       1.13       ----

> <Gold.Chemscore.Fitness>
11.7349

> <Gold.Chemscore.DG>
-13.1142

> <Gold.Chemscore.ZeroCoef>
-5.4800

> <Gold.Chemscore.Hbond>
3.4500

> <Gold.Chemscore.Metal>
0.0000

> <Gold.Chemscore.Lipo>
67.4340

> <Gold.Chemscore.Internal_Hbond>
0.0000

> <Gold.Chemscore.DEClash>
0.2513

> <Gold.Chemscore.DEInternal>
1.1280

> <Gold.Chemscore.Rot>
4.6010

> <Gold.Chemscore.Internal.Correction>
   9.000000E+99

> <Gold.Chemscore.Hbonds>
donor molecule, donor type, donor heavy atom, donor atom, acceptor molecule, acceptor atom, score
      L1  H     7    36       P1  8028  0.88
      L1  H     9    39       P1  7957  0.89
      P1  H  6896  6909       L1    13  0.94
      P1  H  6931  6943       L1    21  0.52

> <Gold.Chemscore.Hbond.Weighted>
-11.5231

> <Gold.Chemscore.Metal.Weighted>
-0.0000

> <Gold.Chemscore.Lipo.Weighted>
-7.8898

> <Gold.Chemscore.Internal_Hbond.Weighted>
0.0000

> <Gold.Chemscore.DEClash.Weighted>
0.2513

> <Gold.Chemscore.DEInternal.Weighted>
1.1280

> <Gold.Chemscore.Rot.Weighted>
11.7787

> <Gold.Chemscore.Internal.Correction.Weighted>
   9.000000E+99

> <Gold.Protein.RotatedTorsions>
[ 6907 6896 6895 6894 ] final   87.66 input  -60.11 | X-H torsion
[ 7974 7965 7964 7962 ] final  -19.50 input  175.53 | X-H torsion
[ 8008 7997 7996 7995 ] final  -35.81 input   59.86 | X-H torsion
[ 10167 10162 10161 10158 ] final  138.43 input  -65.29 | X-H torsion
[ 10718 10713 10712 10709 ] final  118.20 input   66.30 | X-H torsion
[ 10763 10752 10751 10750 ] final   72.72 input  -60.55 | X-H torsion
[ 11005 11000 10999 10996 ] final  155.61 input  -57.11 | X-H torsion

> <Gold.Protein.ActiveResidues>
 VAL166  LYS551  ARG553  GLY616  TRP617  ASP618  TYR619  PRO620  LYS621  CYS622 
 ASP623  PHE694  ASN695  SER759  ASP760  ASP761  ALA762  ILE779  LEU786  VAL792 
 PHE793  MET794  SER795  GLU796  ALA797  LYS798  CYS799  TRP800  GLU811  SER814 

> <Gold.Protein.RotatedAtoms>
  152.5414  134.2242  159.8799 H   0  0  0  0  0  0  0  0  0  0  0  0  # atno 6907 bound_to 6896
  151.2218  133.4492  159.2608 H   0  0  0  0  0  0  0  0  0  0  0  0  # atno 6908 bound_to 6896
  151.0799  134.9864  159.8406 H   0  0  0  0  0  0  0  0  0  0  0  0  # atno 6909 bound_to 6896
  146.1838  140.4070  142.8484 H   0  0  0  0  0  0  0  0  0  0  0  0  # atno 7974 bound_to 7965
  154.4087  140.1647  156.2272 H   0  0  0  0  0  0  0  0  0  0  0  0  # atno 8008 bound_to 7997
  155.9313  140.3414  155.6228 H   0  0  0  0  0  0  0  0  0  0  0  0  # atno 8009 bound_to 7997
  155.7103  140.0756  157.2364 H   0  0  0  0  0  0  0  0  0  0  0  0  # atno 8010 bound_to 7997
  139.5111  144.6353  151.5711 H   0  0  0  0  0  0  0  0  0  0  0  0  # atno 10167 bound_to 10162
  157.6046  131.1045  150.7723 H   0  0  0  0  0  0  0  0  0  0  0  0  # atno 10718 bound_to 10713
  153.0476  135.5089  154.7786 H   0  0  0  0  0  0  0  0  0  0  0  0  # atno 10763 bound_to 10752
  154.6674  135.2947  154.9790 H   0  0  0  0  0  0  0  0  0  0  0  0  # atno 10764 bound_to 10752
  154.0620  135.6689  153.4865 H   0  0  0  0  0  0  0  0  0  0  0  0  # atno 10765 bound_to 10752
  140.1597  134.8618  157.2559 H   0  0  0  0  0  0  0  0  0  0  0  0  # atno 11005 bound_to 11000
  144.8361  140.6784  143.6259 LP  0  0  0  0  0  0  0  0  0  0  0  0  # atno 17320 bound_to 7965
  145.3999  139.1600  143.4183 LP  0  0  0  0  0  0  0  0  0  0  0  0  # atno 17321 bound_to 7965
  140.6101  143.9453  150.6447 LP  0  0  0  0  0  0  0  0  0  0  0  0  # atno 17342 bound_to 10162
  140.2692  143.3468  152.1253 LP  0  0  0  0  0  0  0  0  0  0  0  0  # atno 17343 bound_to 10162
  156.8114  130.4953  149.5355 LP  0  0  0  0  0  0  0  0  0  0  0  0  # atno 17370 bound_to 10713
  156.1128  130.6053  151.0074 LP  0  0  0  0  0  0  0  0  0  0  0  0  # atno 17371 bound_to 10713
  140.2504  134.3689  155.7444 LP  0  0  0  0  0  0  0  0  0  0  0  0  # atno 17394 bound_to 11000
  141.2208  133.7314  156.8927 LP  0  0  0  0  0  0  0  0  0  0  0  0  # atno 17395 bound_to 11000

$$$$
