AV-unprocessed.smi:109|AV-procd|sdf|1038|dock7
  -GOLD-   2262018 63D 1   1.00000     0.00000
 Structure written by MMmdl.
 58 61  0  0  0  0  0  0  0  0  1 V2000
  149.5946  136.2343  159.5865 O   0  0  0  0  0  0  0  0  0  0  0  0
  149.6383  136.4752  158.1968 C   0  0  0  0  0  0  0  0  0  0  0  0
  148.2260  136.7943  157.6762 C   0  0  0  0  0  0  0  0  0  0  0  0
  148.0268  136.4960  156.1700 C   0  0  1  0  0  0  0  0  0  0  0  0
  146.6368  136.7749  155.8011 N   0  0  0  0  0  0  0  0  0  0  0  0
  146.2008  136.6990  154.5234 C   0  0  0  0  0  0  0  0  0  0  0  0
  145.5820  137.7471  153.9199 N   0  0  0  0  0  0  0  0  0  0  0  0
  145.1677  137.6429  152.6535 C   0  0  0  0  0  0  0  0  0  0  0  0
  145.2709  136.6018  151.8242 N   0  0  0  0  0  0  0  0  0  0  0  0
  145.8914  135.5472  152.4279 C   0  0  0  0  0  0  0  0  0  0  0  0
  146.3812  135.5155  153.7623 C   0  0  0  0  0  0  0  0  0  0  0  0
  146.9572  134.2783  154.0211 N   0  0  0  0  0  0  0  0  0  0  0  0
  146.8157  133.6224  152.8998 C   0  0  0  0  0  0  0  0  0  0  0  0
  146.1738  134.3110  151.8919 N   0  0  0  0  0  0  0  0  0  0  0  0
  145.8530  133.8771  150.4960 C   0  0  1  0  0  0  0  0  0  0  0  0
  146.3127  132.5664  150.3113 O   0  0  0  0  0  0  0  0  0  0  0  0
  145.2487  131.6789  149.9623 C   0  0  1  0  0  0  0  0  0  0  0  0
  144.7875  130.9163  151.2237 C   0  0  0  0  0  0  0  0  0  0  0  0
  145.8419  130.1129  151.7085 O   0  0  0  0  0  0  0  0  0  0  0  0
  144.2111  132.6314  149.3526 C   0  0  1  0  0  0  0  0  0  0  0  0
  142.8922  132.1232  149.2686 O   0  0  0  0  0  0  0  0  0  0  0  0
  144.3406  133.8905  150.1943 C   0  0  1  0  0  0  0  0  0  0  0  0
  143.5202  133.8589  151.3524 O   0  0  0  0  0  0  0  0  0  0  0  0
  148.9799  137.2991  155.2393 C   0  0  0  0  0  0  0  0  0  0  0  0
  150.4225  136.7348  155.3036 C   0  0  0  0  0  0  0  0  0  0  0  0
  151.3976  137.5033  154.3984 C   0  0  0  0  0  0  0  0  0  0  0  0
  151.4134  138.9973  154.7428 C   0  0  0  0  0  0  0  0  0  0  0  0
  149.9989  139.5832  154.6617 C   0  0  0  0  0  0  0  0  0  0  0  0
  149.0169  138.8142  155.5612 C   0  0  0  0  0  0  0  0  0  0  0  0
  146.4237  134.5536  149.8583 H   0  0  0  0  0  0  0  0  0  0  0  0
  145.5836  130.9675  149.2059 H   0  0  0  0  0  0  0  0  0  0  0  0
  144.5319  132.8701  148.3374 H   0  0  0  0  0  0  0  0  0  0  0  0
  144.0899  134.7849  149.6229 H   0  0  0  0  0  0  0  0  0  0  0  0
  149.5326  137.0644  160.0337 H   0  0  0  0  0  0  0  0  0  0  0  0
  150.3166  137.3065  158.0022 H   0  0  0  0  0  0  0  0  0  0  0  0
  150.0519  135.5931  157.7077 H   0  0  0  0  0  0  0  0  0  0  0  0
  147.4850  136.2476  158.2611 H   0  0  0  0  0  0  0  0  0  0  0  0
  148.0529  137.8516  157.8697 H   0  0  0  0  0  0  0  0  0  0  0  0
  148.2650  135.4441  156.0163 H   0  0  0  0  0  0  0  0  0  0  0  0
  146.0080  136.9268  156.5767 H   0  0  0  0  0  0  0  0  0  0  0  0
  144.6848  138.5192  152.2472 H   0  0  0  0  0  0  0  0  0  0  0  0
  147.1826  132.6134  152.7816 H   0  0  0  0  0  0  0  0  0  0  0  0
  144.4371  131.5857  152.0079 H   0  0  0  0  0  0  0  0  0  0  0  0
  143.9632  130.2440  150.9879 H   0  0  0  0  0  0  0  0  0  0  0  0
  146.0692  129.4819  151.0426 H   0  0  0  0  0  0  0  0  0  0  0  0
  142.2874  132.8306  149.4330 H   0  0  0  0  0  0  0  0  0  0  0  0
  142.6253  134.0046  151.0856 H   0  0  0  0  0  0  0  0  0  0  0  0
  148.6213  137.1896  154.2145 H   0  0  0  0  0  0  0  0  0  0  0  0
  150.7821  136.7682  156.3331 H   0  0  0  0  0  0  0  0  0  0  0  0
  150.4401  135.6851  155.0105 H   0  0  0  0  0  0  0  0  0  0  0  0
  152.4013  137.0892  154.4984 H   0  0  0  0  0  0  0  0  0  0  0  0
  151.1100  137.3699  153.3549 H   0  0  0  0  0  0  0  0  0  0  0  0
  151.8146  139.1401  155.7471 H   0  0  0  0  0  0  0  0  0  0  0  0
  152.0781  139.5307  154.0628 H   0  0  0  0  0  0  0  0  0  0  0  0
  150.0170  140.6354  154.9474 H   0  0  0  0  0  0  0  0  0  0  0  0
  149.6491  139.5500  153.6290 H   0  0  0  0  0  0  0  0  0  0  0  0
  148.0343  139.2633  155.4266 H   0  0  0  0  0  0  0  0  0  0  0  0
  149.2873  138.9623  156.6077 H   0  0  0  0  0  0  0  0  0  0  0  0
  1  2  1  0  0  0  0
  1 34  1  0  0  0  0
  2  3  1  0  0  0  0
  2 35  1  0  0  0  0
  2 36  1  0  0  0  0
  3  4  1  0  0  0  0
  3 37  1  0  0  0  0
  3 38  1  0  0  0  0
  4  5  1  0  0  0  0
  4 24  1  0  0  0  0
  4 39  1  0  0  0  0
  5  6  1  0  0  0  0
  5 40  1  0  0  0  0
  6 11  1  0  0  0  0
  6  7  2  0  0  0  0
  7  8  1  0  0  0  0
  8  9  2  0  0  0  0
  8 41  1  0  0  0  0
  9 10  1  0  0  0  0
 10 14  1  0  0  0  0
 10 11  2  0  0  0  0
 11 12  1  0  0  0  0
 12 13  2  0  0  0  0
 13 14  1  0  0  0  0
 13 42  1  0  0  0  0
 14 15  1  0  0  0  0
 15 30  1  0  0  0  0
 15 22  1  0  0  0  0
 15 16  1  0  0  0  0
 16 17  1  0  0  0  0
 17 31  1  0  0  0  0
 17 18  1  0  0  0  0
 17 20  1  0  0  0  0
 18 19  1  0  0  0  0
 18 43  1  0  0  0  0
 18 44  1  0  0  0  0
 19 45  1  0  0  0  0
 20 32  1  0  0  0  0
 20 21  1  0  0  0  0
 20 22  1  0  0  0  0
 21 46  1  0  0  0  0
 22 33  1  0  0  0  0
 22 23  1  0  0  0  0
 23 47  1  0  0  0  0
 24 29  1  0  0  0  0
 24 25  1  0  0  0  0
 24 48  1  0  0  0  0
 25 26  1  0  0  0  0
 25 49  1  0  0  0  0
 25 50  1  0  0  0  0
 26 27  1  0  0  0  0
 26 51  1  0  0  0  0
 26 52  1  0  0  0  0
 27 28  1  0  0  0  0
 27 53  1  0  0  0  0
 27 54  1  0  0  0  0
 28 29  1  0  0  0  0
 28 55  1  0  0  0  0
 28 56  1  0  0  0  0
 29 57  1  0  0  0  0
 29 58  1  0  0  0  0
M  END
> <s_m_source_file>
AV-unprocessed.smi

> <i_m_source_file_index>
109

> <i_lp_mmshare_version>
43012

> <i_f3d_flags>
0

> <s_epik_input>
W0NIMl0xW0NIMl1bQ0gyXVtDSDJdW0NIMl1bQ0hdMVtDQEhdKFtDSDJdW0NIMl1bT0hdKVtOSF1jKG5bY0hdbjIpYyhjMjMpbltjSF1uM1tDQEBIXTRPW0NASF0oW0NIMl1bT0hdKVtDQEBIXShbT0hdKVtDQEhdNFtPSF0=

> <s_epik_cmdline>
J2VwaWtfcHl0aG9uJywgJy1waCcsICc3LjAnLCAnLXRuJywgJzgnLCAnLW1hJywgJzIwMCcsICctbWV0YWxfYmluZGluZycsICctaW1hZScsICc8aW5maWxlLm1hZT4nLCAnLW9tYWUnLCAnPG91dGZpbGUubWFlPic=

> <r_lp_tautomer_probability>
1

> <r_epik_Ionization_Penalty>
0.000793976

> <r_epik_Ionization_Penalty_Charging>
0

> <r_epik_Ionization_Penalty_Neutral>
0.000793976

> <r_epik_State_Penalty>
-0

> <r_epik_Charging_Adjusted_Penalty>
0

> <i_epik_Tot_Q>
0

> <i_epik_Tot_abs_Q>
0

> <r_epik_Metal_State_Penalty>
-0

> <b_epik_Metal_Only>
0

> <s_epik_Chemistry_Notes>
This compound contains an acetal/aminal-like group ( X-CH(R)-Y where X, Y are N, S, or O) that may be acid/base labile, releasing an aldehyde.

> <s_lp_Force_Field>
OPLS_2005

> <r_lp_Energy>
62.3675

> <b_lp_Chiralities_Consistent>
1

> <s_lp_Variant>
AV-unprocessed.smi:109-8

> <Gold.Version>
5.8.1

> <Gold.Id.Protein>
6NUR|6NUR_protein|mol2

> <Gold.PLP.Fitness>
52.2659

> <Gold.PLP.PLP>
-38.0587

> <Gold.PLP.part.hbond>
-4.7194

> <Gold.PLP.part.metal>
0.0000

> <Gold.PLP.part.buried>
-3.8557

> <Gold.PLP.part.nonpolar>
-30.1143

> <Gold.PLP.part.repulsive>
0.7703

> <Gold.PLP.ligand.clash>
0.0000

> <Gold.PLP.ligand.torsion>
0.8992

> <Gold.PLP.Chemscore.Hbond>
3.4375

> <Gold.PLP.Chemscore.CHOScore>
1.8575

> <Gold.PLP.Chemscore.Metal>
0.0000

> <Gold.Chemscore.Hbonds>
donor molecule, donor type, donor heavy atom, donor atom, acceptor molecule, acceptor atom, score
      L1  H    21    46       P1 10186  0.99
      L1  H    23    47       P1 10186  0.42
      P1  H  6896  6909       L1     1  1.00
      P1  H 10785 10796       L1    21  0.89
      L1  C     8    41       P1 10171  0.78
      L1  C     8    41       P1 10175  1.00

> <Gold.PLP.Chemscore.Internal.Correction>
0.1206

> <Gold.Rescore>
     Score         DG    S(hbond)    S(metal)    S(lipo)     H(rot)  DE(clash)    DE(int)     intcor
      6.10      -9.11       2.29        0.00      85.13       5.47       1.21       1.79       ----

> <Gold.Chemscore.Fitness>
6.1046

> <Gold.Chemscore.DG>
-9.1096

> <Gold.Chemscore.ZeroCoef>
-5.4800

> <Gold.Chemscore.Hbond>
2.2944

> <Gold.Chemscore.Metal>
0.0000

> <Gold.Chemscore.Lipo>
85.1274

> <Gold.Chemscore.Internal_Hbond>
0.0000

> <Gold.Chemscore.DEClash>
1.2141

> <Gold.Chemscore.DEInternal>
1.7908

> <Gold.Chemscore.Rot>
5.4662

> <Gold.Chemscore.Internal.Correction>
   9.000000E+99

> <Gold.Chemscore.Hbonds>
donor molecule, donor type, donor heavy atom, donor atom, acceptor molecule, acceptor atom, score
      L1  H    21    46       P1 10186  0.92
      L1  H    23    47       P1 10186  0.17
      P1  H  6896  6909       L1     1  0.30
      P1  H 10785 10796       L1    21  0.34

> <Gold.Chemscore.Hbond.Weighted>
-7.6632

> <Gold.Chemscore.Metal.Weighted>
-0.0000

> <Gold.Chemscore.Lipo.Weighted>
-9.9599

> <Gold.Chemscore.Internal_Hbond.Weighted>
0.0000

> <Gold.Chemscore.DEClash.Weighted>
1.2141

> <Gold.Chemscore.DEInternal.Weighted>
1.7908

> <Gold.Chemscore.Rot.Weighted>
13.9935

> <Gold.Chemscore.Internal.Correction.Weighted>
   9.000000E+99

> <Gold.Protein.RotatedTorsions>
[ 6907 6896 6895 6894 ] final   77.06 input  -60.11 | X-H torsion
[ 7974 7965 7964 7962 ] final    2.16 input  175.53 | X-H torsion
[ 8008 7997 7996 7995 ] final   -9.56 input   59.86 | X-H torsion
[ 10167 10162 10161 10158 ] final  128.50 input  -65.29 | X-H torsion
[ 10718 10713 10712 10709 ] final -168.04 input   66.30 | X-H torsion
[ 10763 10752 10751 10750 ] final  118.83 input  -60.55 | X-H torsion
[ 11005 11000 10999 10996 ] final   68.94 input  -57.11 | X-H torsion

> <Gold.Protein.ActiveResidues>
 VAL166  LYS551  ARG553  GLY616  TRP617  ASP618  TYR619  PRO620  LYS621  CYS622 
 ASP623  PHE694  ASN695  SER759  ASP760  ASP761  ALA762  ILE779  LEU786  VAL792 
 PHE793  MET794  SER795  GLU796  ALA797  LYS798  CYS799  TRP800  GLU811  SER814 

> <Gold.Protein.RotatedAtoms>
  152.5101  134.3875  159.9372 H   0  0  0  0  0  0  0  0  0  0  0  0  # atno 6907 bound_to 6896
  151.3834  133.3807  159.2720 H   0  0  0  0  0  0  0  0  0  0  0  0  # atno 6908 bound_to 6896
  150.9487  134.8910  159.7717 H   0  0  0  0  0  0  0  0  0  0  0  0  # atno 6909 bound_to 6896
  146.2443  140.0878  142.8353 H   0  0  0  0  0  0  0  0  0  0  0  0  # atno 7974 bound_to 7965
  154.5635  140.2352  155.8298 H   0  0  0  0  0  0  0  0  0  0  0  0  # atno 8008 bound_to 7997
  156.2049  140.3042  155.9565 H   0  0  0  0  0  0  0  0  0  0  0  0  # atno 8009 bound_to 7997
  155.2844  140.0424  157.3008 H   0  0  0  0  0  0  0  0  0  0  0  0  # atno 8010 bound_to 7997
  139.5524  144.6823  151.4284 H   0  0  0  0  0  0  0  0  0  0  0  0  # atno 10167 bound_to 10162
  156.6911  130.9160  151.3069 H   0  0  0  0  0  0  0  0  0  0  0  0  # atno 10718 bound_to 10713
  153.5737  135.3497  155.2848 H   0  0  0  0  0  0  0  0  0  0  0  0  # atno 10763 bound_to 10752
  154.8678  135.4165  154.2697 H   0  0  0  0  0  0  0  0  0  0  0  0  # atno 10764 bound_to 10752
  153.3468  135.7053  153.6891 H   0  0  0  0  0  0  0  0  0  0  0  0  # atno 10765 bound_to 10752
  139.9682  134.6945  156.0501 H   0  0  0  0  0  0  0  0  0  0  0  0  # atno 11005 bound_to 11000
  145.0677  140.9133  143.4901 LP  0  0  0  0  0  0  0  0  0  0  0  0  # atno 17320 bound_to 7965
  145.1006  139.2825  143.5688 LP  0  0  0  0  0  0  0  0  0  0  0  0  # atno 17321 bound_to 7965
  140.6789  143.8126  150.7095 LP  0  0  0  0  0  0  0  0  0  0  0  0  # atno 17342 bound_to 10162
  140.1574  143.4305  152.2090 LP  0  0  0  0  0  0  0  0  0  0  0  0  # atno 17343 bound_to 10162
  157.7008  130.9331  150.0780 LP  0  0  0  0  0  0  0  0  0  0  0  0  # atno 17370 bound_to 10713
  156.1797  130.3649  149.9053 LP  0  0  0  0  0  0  0  0  0  0  0  0  # atno 17371 bound_to 10713
  141.1362  133.6574  156.3600 LP  0  0  0  0  0  0  0  0  0  0  0  0  # atno 17394 bound_to 11000
  140.5350  134.6175  157.5362 LP  0  0  0  0  0  0  0  0  0  0  0  0  # atno 17395 bound_to 11000

$$$$
