AV-unprocessed.smi:283|AV-procd|sdf|2139|dock8
  -GOLD-   2262021463D 1   1.00000     0.00000
 Structure written by MMmdl.
 48 51  0  0  0  0  0  0  0  0  1 V2000
  150.3775  141.5144  156.9105 C   0  0  0  0  0  0  0  0  0  0  0  0
  151.8862  141.2954  157.1246 C   0  0  2  0  0  0  0  0  0  0  0  0
  152.2535  139.8967  156.9057 N   0  0  0  0  0  0  0  0  0  0  0  0
  151.5849  139.1129  156.0309 C   0  0  0  0  0  0  0  0  0  0  0  0
  150.9727  139.6356  154.9363 N   0  0  0  0  0  0  0  0  0  0  0  0
  150.3255  138.8344  154.0851 C   0  0  0  0  0  0  0  0  0  0  0  0
  150.1748  137.5094  154.1382 N   0  0  0  0  0  0  0  0  0  0  0  0
  150.7913  136.9776  155.2342 C   0  0  0  0  0  0  0  0  0  0  0  0
  151.5125  137.7084  156.2190 C   0  0  0  0  0  0  0  0  0  0  0  0
  152.0055  136.8391  157.1836 N   0  0  0  0  0  0  0  0  0  0  0  0
  151.5990  135.6632  156.7865 C   0  0  0  0  0  0  0  0  0  0  0  0
  150.8648  135.6537  155.6215 N   0  0  0  0  0  0  0  0  0  0  0  0
  150.2744  134.4660  154.9281 C   0  0  1  0  0  0  0  0  0  0  0  0
  150.5677  133.3180  155.6541 O   0  0  0  0  0  0  0  0  0  0  0  0
  149.5601  132.3413  155.4140 C   0  0  1  0  0  0  0  0  0  0  0  0
  149.2460  131.6135  156.7336 C   0  0  0  0  0  0  0  0  0  0  0  0
  150.3864  130.9704  157.2636 O   0  0  0  0  0  0  0  0  0  0  0  0
  148.3705  133.0602  154.7412 C   0  0  2  0  0  0  0  0  0  0  0  0
  148.2719  132.6443  153.3922 O   0  0  0  0  0  0  0  0  0  0  0  0
  148.7464  134.5360  154.7961 C   0  0  1  0  0  0  0  0  0  0  0  0
  148.1124  135.1827  155.8845 O   0  0  0  0  0  0  0  0  0  0  0  0
  152.2955  141.8002  158.5076 C   0  0  0  0  0  0  0  0  0  0  0  0
  152.7635  140.8880  159.4830 C   0  0  0  0  0  0  0  0  0  0  0  0
  153.1399  141.3352  160.7635 C   0  0  0  0  0  0  0  0  0  0  0  0
  153.0462  142.7006  161.0870 C   0  0  0  0  0  0  0  0  0  0  0  0
  152.5699  143.6154  160.1301 C   0  0  0  0  0  0  0  0  0  0  0  0
  152.1909  143.1737  158.8464 C   0  0  0  0  0  0  0  0  0  0  0  0
  151.5966  144.3429  157.7193 Cl  0  0  0  0  0  0  0  0  0  0  0  0
  150.7765  134.4183  153.9606 H   0  0  0  0  0  0  0  0  0  0  0  0
  149.9948  131.6124  154.7274 H   0  0  0  0  0  0  0  0  0  0  0  0
  147.4146  132.8556  155.2256 H   0  0  0  0  0  0  0  0  0  0  0  0
  148.4831  135.0774  153.8863 H   0  0  0  0  0  0  0  0  0  0  0  0
  150.1155  142.5664  157.0276 H   0  0  0  0  0  0  0  0  0  0  0  0
  149.7896  140.9445  157.6307 H   0  0  0  0  0  0  0  0  0  0  0  0
  150.0600  141.2118  155.9126 H   0  0  0  0  0  0  0  0  0  0  0  0
  152.4316  141.8834  156.3874 H   0  0  0  0  0  0  0  0  0  0  0  0
  152.9932  139.5447  157.4961 H   0  0  0  0  0  0  0  0  0  0  0  0
  149.8639  139.3242  153.2405 H   0  0  0  0  0  0  0  0  0  0  0  0
  151.8280  134.7615  157.3359 H   0  0  0  0  0  0  0  0  0  0  0  0
  148.8925  132.3304  157.4750 H   0  0  0  0  0  0  0  0  0  0  0  0
  148.4492  130.8832  156.5901 H   0  0  0  0  0  0  0  0  0  0  0  0
  150.2528  130.0355  157.2127 H   0  0  0  0  0  0  0  0  0  0  0  0
  147.6848  131.9051  153.3488 H   0  0  0  0  0  0  0  0  0  0  0  0
  148.5273  136.0217  156.0162 H   0  0  0  0  0  0  0  0  0  0  0  0
  152.8344  139.8340  159.2588 H   0  0  0  0  0  0  0  0  0  0  0  0
  153.4984  140.6294  161.4984 H   0  0  0  0  0  0  0  0  0  0  0  0
  153.3340  143.0452  162.0693 H   0  0  0  0  0  0  0  0  0  0  0  0
  152.4928  144.6624  160.3843 H   0  0  0  0  0  0  0  0  0  0  0  0
  1  2  1  0  0  0  0
  1 33  1  0  0  0  0
  1 34  1  0  0  0  0
  1 35  1  0  0  0  0
  2  3  1  0  0  0  0
  2 22  1  0  0  0  0
  2 36  1  0  0  0  0
  3  4  1  0  0  0  0
  3 37  1  0  0  0  0
  4  9  1  0  0  0  0
  4  5  2  0  0  0  0
  5  6  1  0  0  0  0
  6  7  2  0  0  0  0
  6 38  1  0  0  0  0
  7  8  1  0  0  0  0
  8 12  1  0  0  0  0
  8  9  2  0  0  0  0
  9 10  1  0  0  0  0
 10 11  2  0  0  0  0
 11 12  1  0  0  0  0
 11 39  1  0  0  0  0
 12 13  1  0  0  0  0
 13 29  1  0  0  0  0
 13 20  1  0  0  0  0
 13 14  1  0  0  0  0
 14 15  1  0  0  0  0
 15 30  1  0  0  0  0
 15 16  1  0  0  0  0
 15 18  1  0  0  0  0
 16 17  1  0  0  0  0
 16 40  1  0  0  0  0
 16 41  1  0  0  0  0
 17 42  1  0  0  0  0
 18 31  1  0  0  0  0
 18 19  1  0  0  0  0
 18 20  1  0  0  0  0
 19 43  1  0  0  0  0
 20 32  1  0  0  0  0
 20 21  1  0  0  0  0
 21 44  1  0  0  0  0
 22 27  1  0  0  0  0
 22 23  2  0  0  0  0
 23 24  1  0  0  0  0
 23 45  1  0  0  0  0
 24 25  2  0  0  0  0
 24 46  1  0  0  0  0
 25 26  1  0  0  0  0
 25 47  1  0  0  0  0
 26 27  2  0  0  0  0
 26 48  1  0  0  0  0
 27 28  1  0  0  0  0
M  END
> <s_m_source_file>
AV-unprocessed.smi

> <i_m_source_file_index>
283

> <i_lp_mmshare_version>
43012

> <i_f3d_flags>
0

> <s_epik_input>
Q2xjMVtjSF1bY0hdW2NIXVtjSF1jMVtDQEhdKFtDSDNdKVtOSF1jKG5bY0hdbjIpYyhjMjMpbltjSF1uM1tDQEBIXTRPW0NASF0oW0NIMl1bT0hdKVtDQEBIXShbT0hdKVtDQEhdNFtPSF0=

> <s_epik_cmdline>
J2VwaWtfcHl0aG9uJywgJy1waCcsICc3LjAnLCAnLXRuJywgJzgnLCAnLW1hJywgJzIwMCcsICctbWV0YWxfYmluZGluZycsICctaW1hZScsICc8aW5maWxlLm1hZT4nLCAnLW9tYWUnLCAnPG91dGZpbGUubWFlPic=

> <r_lp_tautomer_probability>
1

> <r_epik_Ionization_Penalty>
0.000266407

> <r_epik_Ionization_Penalty_Charging>
0

> <r_epik_Ionization_Penalty_Neutral>
0.000266407

> <r_epik_State_Penalty>
-0

> <r_epik_Charging_Adjusted_Penalty>
0

> <i_epik_Tot_Q>
0

> <i_epik_Tot_abs_Q>
0

> <r_epik_Metal_State_Penalty>
-0

> <b_epik_Metal_Only>
0

> <s_epik_Chemistry_Notes>
This compound contains an acetal/aminal-like group ( X-CH(R)-Y where X, Y are N, S, or O) that may be acid/base labile, releasing an aldehyde.

> <s_lp_Force_Field>
OPLS_2005

> <r_lp_Energy>
48.6958

> <b_lp_Chiralities_Consistent>
1

> <s_lp_Variant>
AV-unprocessed.smi:283-15

> <Gold.Version>
5.8.1

> <Gold.Id.Protein>
6NUR|6NUR_protein|mol2

> <Gold.PLP.Fitness>
45.3809

> <Gold.PLP.PLP>
-41.3579

> <Gold.PLP.part.hbond>
-1.0000

> <Gold.PLP.part.metal>
0.0000

> <Gold.PLP.part.buried>
-7.3950

> <Gold.PLP.part.nonpolar>
-36.3810

> <Gold.PLP.part.repulsive>
2.3317

> <Gold.PLP.ligand.clash>
0.0000

> <Gold.PLP.ligand.torsion>
0.6392

> <Gold.PLP.Chemscore.Hbond>
0.7500

> <Gold.PLP.Chemscore.CHOScore>
1.0000

> <Gold.PLP.Chemscore.Metal>
0.0000

> <Gold.Chemscore.Hbonds>
donor molecule, donor type, donor heavy atom, donor atom, acceptor molecule, acceptor atom, score
      P1  H  7989  7998       L1     5  0.70
      L1  C     6    38       P1  7957  1.00

> <Gold.PLP.Chemscore.Internal.Correction>
0.0513

> <Gold.Rescore>
     Score         DG    S(hbond)    S(metal)    S(lipo)     H(rot)  DE(clash)    DE(int)     intcor
      6.30      -8.43       0.00        0.00     114.84       4.10       0.05       2.08       ----

> <Gold.Chemscore.Fitness>
6.2985

> <Gold.Chemscore.DG>
-8.4280

> <Gold.Chemscore.ZeroCoef>
-5.4800

> <Gold.Chemscore.Hbond>
0.0000

> <Gold.Chemscore.Metal>
0.0000

> <Gold.Chemscore.Lipo>
114.8367

> <Gold.Chemscore.Internal_Hbond>
0.0000

> <Gold.Chemscore.DEClash>
0.0485

> <Gold.Chemscore.DEInternal>
2.0809

> <Gold.Chemscore.Rot>
4.0968

> <Gold.Chemscore.Internal.Correction>
   9.000000E+99

> <Gold.Chemscore.Hbonds>
donor molecule, donor type, donor heavy atom, donor atom, acceptor molecule, acceptor atom, score
      P1  H  7989  7998       L1     5  0.07

> <Gold.Chemscore.Hbond.Weighted>
-0.0000

> <Gold.Chemscore.Metal.Weighted>
-0.0000

> <Gold.Chemscore.Lipo.Weighted>
-13.4359

> <Gold.Chemscore.Internal_Hbond.Weighted>
0.0000

> <Gold.Chemscore.DEClash.Weighted>
0.0485

> <Gold.Chemscore.DEInternal.Weighted>
2.0809

> <Gold.Chemscore.Rot.Weighted>
10.4879

> <Gold.Chemscore.Internal.Correction.Weighted>
   9.000000E+99

> <Gold.Protein.RotatedTorsions>
[ 6907 6896 6895 6894 ] final  128.96 input  -60.11 | X-H torsion
[ 7974 7965 7964 7962 ] final  -48.18 input  175.53 | X-H torsion
[ 8008 7997 7996 7995 ] final    5.05 input   59.86 | X-H torsion
[ 10167 10162 10161 10158 ] final   37.25 input  -65.29 | X-H torsion
[ 10718 10713 10712 10709 ] final -141.79 input   66.30 | X-H torsion
[ 10763 10752 10751 10750 ] final   87.14 input  -60.55 | X-H torsion
[ 11005 11000 10999 10996 ] final  -93.48 input  -57.11 | X-H torsion

> <Gold.Protein.ActiveResidues>
 VAL166  LYS551  ARG553  GLY616  TRP617  ASP618  TYR619  PRO620  LYS621  CYS622 
 ASP623  PHE694  ASN695  SER759  ASP760  ASP761  ALA762  ILE779  LEU786  VAL792 
 PHE793  MET794  SER795  GLU796  ALA797  LYS798  CYS799  TRP800  GLU811  SER814 

> <Gold.Protein.RotatedAtoms>
  152.3670  133.6369  159.6057 H   0  0  0  0  0  0  0  0  0  0  0  0  # atno 6907 bound_to 6896
  150.7641  133.9332  159.3442 H   0  0  0  0  0  0  0  0  0  0  0  0  # atno 6908 bound_to 6896
  151.7161  135.0904  160.0327 H   0  0  0  0  0  0  0  0  0  0  0  0  # atno 6909 bound_to 6896
  145.9538  140.7546  142.9491 H   0  0  0  0  0  0  0  0  0  0  0  0  # atno 7974 bound_to 7965
  154.7236  140.2716  155.6519 H   0  0  0  0  0  0  0  0  0  0  0  0  # atno 8008 bound_to 7997
  156.2830  140.2729  156.1839 H   0  0  0  0  0  0  0  0  0  0  0  0  # atno 8009 bound_to 7997
  155.0475  140.0371  157.2521 H   0  0  0  0  0  0  0  0  0  0  0  0  # atno 8010 bound_to 7997
  140.4050  144.1671  150.6136 H   0  0  0  0  0  0  0  0  0  0  0  0  # atno 10167 bound_to 10162
  156.3382  130.7623  151.1754 H   0  0  0  0  0  0  0  0  0  0  0  0  # atno 10718 bound_to 10713
  153.1639  135.4554  154.9811 H   0  0  0  0  0  0  0  0  0  0  0  0  # atno 10763 bound_to 10752
  154.7918  135.3223  154.7762 H   0  0  0  0  0  0  0  0  0  0  0  0  # atno 10764 bound_to 10752
  153.8248  135.6943  153.4877 H   0  0  0  0  0  0  0  0  0  0  0  0  # atno 10765 bound_to 10752
  141.1496  133.7891  157.0166 H   0  0  0  0  0  0  0  0  0  0  0  0  # atno 11005 bound_to 11000
  144.6801  140.2479  143.7335 LP  0  0  0  0  0  0  0  0  0  0  0  0  # atno 17320 bound_to 7965
  145.8134  139.2013  143.1980 LP  0  0  0  0  0  0  0  0  0  0  0  0  # atno 17321 bound_to 7965
  140.4699  143.2417  151.9104 LP  0  0  0  0  0  0  0  0  0  0  0  0  # atno 17342 bound_to 10162
  139.4783  144.5381  151.8569 LP  0  0  0  0  0  0  0  0  0  0  0  0  # atno 17343 bound_to 10162
  157.7442  131.0462  150.4881 LP  0  0  0  0  0  0  0  0  0  0  0  0  # atno 17370 bound_to 10713
  156.5057  130.4127  149.6328 LP  0  0  0  0  0  0  0  0  0  0  0  0  # atno 17371 bound_to 10713
  140.0843  134.9630  157.1675 LP  0  0  0  0  0  0  0  0  0  0  0  0  # atno 17394 bound_to 11000
  140.3533  134.2574  155.7196 LP  0  0  0  0  0  0  0  0  0  0  0  0  # atno 17395 bound_to 11000

$$$$
