AV-unprocessed.smi:1356|AV-procd|sdf|5540|dock8
  -GOLD-   22720 5133D 1   1.00000     0.00000
 Structure written by MMmdl.
 41 42  0  0  0  0  0  0  0  0  1 V2000
  151.0351  132.5848  154.7401 C   0  0  0  0  0  0  0  0  0  0  0  0
  151.1171  133.9306  155.4278 C   0  0  2  0  0  0  0  0  0  0  0  0
  149.9154  134.5193  156.1261 C   0  0  0  0  0  0  0  0  0  0  0  0
  150.4136  135.1382  154.8364 C   0  0  1  0  0  0  0  0  0  0  0  0
  151.0974  136.4628  154.9311 C   0  0  0  0  0  0  0  0  0  0  0  0
  151.9625  136.7155  155.7707 O   0  0  0  0  0  0  0  0  0  0  0  0
  150.6718  137.3584  154.0275 N   0  0  0  0  0  0  0  0  0  0  0  0
  151.1290  138.7435  153.9232 C   0  0  0  0  0  0  0  0  0  0  0  0
  150.7283  139.6161  155.1342 C   0  0  0  0  0  0  0  0  0  0  0  0
  151.6866  139.4850  156.3225 C   0  0  0  0  0  0  0  0  0  0  0  0
  152.8214  139.0377  156.1555 O   0  0  0  0  0  0  0  0  0  0  0  0
  151.2227  139.9005  157.5108 N   0  0  0  0  0  0  0  0  0  0  0  0
  152.0000  139.9457  158.7427 C   0  0  0  0  0  0  0  0  0  0  0  0
  152.8233  141.2415  158.8359 C   0  0  0  0  0  0  0  0  0  0  0  0
  152.4758  142.0551  160.0678 C   0  0  0  0  0  0  0  0  0  0  0  0
  151.7661  143.2696  159.9526 C   0  0  0  0  0  0  0  0  0  0  0  0
  151.4618  143.9828  161.1281 C   0  0  0  0  0  0  0  0  0  0  0  0
  151.8759  143.4569  162.3671 C   0  0  0  0  0  0  0  0  0  0  0  0
  152.5780  142.2352  162.3754 C   0  0  0  0  0  0  0  0  0  0  0  0
  152.8749  141.5433  161.2541 N   0  0  0  0  0  0  0  0  0  0  0  0
  150.0605  132.4479  154.2705 H   0  0  0  0  0  0  0  0  0  0  0  0
  151.1873  131.7848  155.4648 H   0  0  0  0  0  0  0  0  0  0  0  0
  151.8050  132.5100  153.9720 H   0  0  0  0  0  0  0  0  0  0  0  0
  152.0761  134.1033  155.9137 H   0  0  0  0  0  0  0  0  0  0  0  0
  148.9741  133.9756  156.0796 H   0  0  0  0  0  0  0  0  0  0  0  0
  150.0908  135.0514  157.0596 H   0  0  0  0  0  0  0  0  0  0  0  0
  149.8000  134.9716  153.9520 H   0  0  0  0  0  0  0  0  0  0  0  0
  149.9584  137.0673  153.3746 H   0  0  0  0  0  0  0  0  0  0  0  0
  152.2125  138.7594  153.7961 H   0  0  0  0  0  0  0  0  0  0  0  0
  150.7104  139.1660  153.0092 H   0  0  0  0  0  0  0  0  0  0  0  0
  150.6626  140.6617  154.8294 H   0  0  0  0  0  0  0  0  0  0  0  0
  149.7288  139.3370  155.4687 H   0  0  0  0  0  0  0  0  0  0  0  0
  150.2757  140.2491  157.5552 H   0  0  0  0  0  0  0  0  0  0  0  0
  151.3067  139.8863  159.5822 H   0  0  0  0  0  0  0  0  0  0  0  0
  152.6484  139.0706  158.8115 H   0  0  0  0  0  0  0  0  0  0  0  0
  153.8899  141.0122  158.8570 H   0  0  0  0  0  0  0  0  0  0  0  0
  152.6608  141.8507  157.9455 H   0  0  0  0  0  0  0  0  0  0  0  0
  151.4605  143.6462  158.9877 H   0  0  0  0  0  0  0  0  0  0  0  0
  150.9203  144.9160  161.0802 H   0  0  0  0  0  0  0  0  0  0  0  0
  151.6598  143.9764  163.2889 H   0  0  0  0  0  0  0  0  0  0  0  0
  152.9097  141.8018  163.3073 H   0  0  0  0  0  0  0  0  0  0  0  0
  1  2  1  0  0  0  0
  1 21  1  0  0  0  0
  1 22  1  0  0  0  0
  1 23  1  0  0  0  0
  2  4  1  0  0  0  0
  2  3  1  0  0  0  0
  2 24  1  0  0  0  0
  3  4  1  0  0  0  0
  3 25  1  0  0  0  0
  3 26  1  0  0  0  0
  4  5  1  0  0  0  0
  4 27  1  0  0  0  0
  5  6  2  0  0  0  0
  5  7  1  0  0  0  0
  7  8  1  0  0  0  0
  7 28  1  0  0  0  0
  8  9  1  0  0  0  0
  8 29  1  0  0  0  0
  8 30  1  0  0  0  0
  9 10  1  0  0  0  0
  9 31  1  0  0  0  0
  9 32  1  0  0  0  0
 10 11  2  0  0  0  0
 10 12  1  0  0  0  0
 12 13  1  0  0  0  0
 12 33  1  0  0  0  0
 13 14  1  0  0  0  0
 13 34  1  0  0  0  0
 13 35  1  0  0  0  0
 14 15  1  0  0  0  0
 14 36  1  0  0  0  0
 14 37  1  0  0  0  0
 15 20  1  0  0  0  0
 15 16  2  0  0  0  0
 16 17  1  0  0  0  0
 16 38  1  0  0  0  0
 17 18  2  0  0  0  0
 17 39  1  0  0  0  0
 18 19  1  0  0  0  0
 18 40  1  0  0  0  0
 19 20  2  0  0  0  0
 19 41  1  0  0  0  0
M  END
> <s_m_source_file>
AV-unprocessed.smi

> <i_m_source_file_index>
1356

> <i_lp_mmshare_version>
43012

> <i_f3d_flags>
0

> <s_epik_input>
W0NIM11bQ0BASF0xW0NIMl1bQ0BIXTFDKD1PKVtOSF1bQ0gyXVtDSDJdQyg9TylbTkhdW0NIMl1bQ0gyXWMyW2NIXVtjSF1bY0hdW2NIXW4y

> <s_epik_cmdline>
J2VwaWtfcHl0aG9uJywgJy1waCcsICc3LjAnLCAnLXRuJywgJzgnLCAnLW1hJywgJzIwMCcsICctbWV0YWxfYmluZGluZycsICctaW1hZScsICc8aW5maWxlLm1hZT4nLCAnLW9tYWUnLCAnPG91dGZpbGUubWFlPic=

> <r_epik_Ionization_Penalty>
0.0258005

> <r_epik_Ionization_Penalty_Charging>
0

> <r_epik_Ionization_Penalty_Neutral>
0.0258005

> <r_epik_State_Penalty>
0.0210245

> <r_epik_Charging_Adjusted_Penalty>
0.0210245

> <i_epik_Tot_Q>
0

> <i_epik_Tot_abs_Q>
0

> <r_epik_Metal_State_Penalty>
0.0201445

> <b_epik_Metal_Only>
0

> <s_lp_Force_Field>
OPLS_2005

> <r_lp_Energy>
2.94754

> <b_lp_Chiralities_Consistent>
1

> <s_lp_Variant>
AV-unprocessed.smi:1356-1

> <Gold.Version>
5.8.1

> <Gold.Id.Protein>
6NUR|6NUR_protein|mol2

> <Gold.PLP.Fitness>
47.5919

> <Gold.PLP.PLP>
-41.4820

> <Gold.PLP.part.hbond>
-3.8285

> <Gold.PLP.part.metal>
0.0000

> <Gold.PLP.part.buried>
-5.2738

> <Gold.PLP.part.nonpolar>
-31.7119

> <Gold.PLP.part.repulsive>
0.1445

> <Gold.PLP.ligand.clash>
0.0000

> <Gold.PLP.ligand.torsion>
1.5177

> <Gold.PLP.Chemscore.Hbond>
3.0000

> <Gold.PLP.Chemscore.CHOScore>
0.0000

> <Gold.PLP.Chemscore.Metal>
0.0000

> <Gold.Chemscore.Hbonds>
donor molecule, donor type, donor heavy atom, donor atom, acceptor molecule, acceptor atom, score
      L1  H     7    28       P1  7948  1.00
      P1  H  7997  8010       L1    11  1.00
      P1  H 10752 10765       L1     6  0.70

> <Gold.PLP.Chemscore.Internal.Correction>
0.1452

> <Gold.Rescore>
     Score         DG    S(hbond)    S(metal)    S(lipo)     H(rot)  DE(clash)    DE(int)     intcor
     14.55     -19.82       2.28        0.00     105.19       2.18       0.76       4.52       ----

> <Gold.Chemscore.Fitness>
14.5469

> <Gold.Chemscore.DG>
-19.8223

> <Gold.Chemscore.ZeroCoef>
-5.4800

> <Gold.Chemscore.Hbond>
2.2767

> <Gold.Chemscore.Metal>
0.0000

> <Gold.Chemscore.Lipo>
105.1863

> <Gold.Chemscore.Internal_Hbond>
0.0000

> <Gold.Chemscore.DEClash>
0.7602

> <Gold.Chemscore.DEInternal>
4.5151

> <Gold.Chemscore.Rot>
2.1753

> <Gold.Chemscore.Internal.Correction>
   9.000000E+99

> <Gold.Chemscore.Hbonds>
donor molecule, donor type, donor heavy atom, donor atom, acceptor molecule, acceptor atom, score
      L1  H     7    28       P1  7948  0.30
      P1  H  7997  8010       L1    11  0.95
      P1  H 10752 10765       L1     6  0.07

> <Gold.Chemscore.Hbond.Weighted>
-7.6041

> <Gold.Chemscore.Metal.Weighted>
-0.0000

> <Gold.Chemscore.Lipo.Weighted>
-12.3068

> <Gold.Chemscore.Internal_Hbond.Weighted>
0.0000

> <Gold.Chemscore.DEClash.Weighted>
0.7602

> <Gold.Chemscore.DEInternal.Weighted>
4.5151

> <Gold.Chemscore.Rot.Weighted>
5.5687

> <Gold.Chemscore.Internal.Correction.Weighted>
   9.000000E+99

> <Gold.Protein.RotatedTorsions>
[ 6907 6896 6895 6894 ] final  117.35 input  -60.11 | X-H torsion
[ 7974 7965 7964 7962 ] final   19.31 input  175.53 | X-H torsion
[ 8008 7997 7996 7995 ] final   95.77 input   59.86 | X-H torsion
[ 10167 10162 10161 10158 ] final   26.12 input  -65.29 | X-H torsion
[ 10718 10713 10712 10709 ] final  159.91 input   66.30 | X-H torsion
[ 10763 10752 10751 10750 ] final -147.77 input  -60.55 | X-H torsion
[ 11005 11000 10999 10996 ] final  -61.24 input  -57.11 | X-H torsion

> <Gold.Protein.ActiveResidues>
 VAL166  LYS551  ARG553  GLY616  TRP617  ASP618  TYR619  PRO620  LYS621  CYS622 
 ASP623  PHE694  ASN695  SER759  ASP760  ASP761  ALA762  ILE779  LEU786  VAL792 
 PHE793  MET794  SER795  GLU796  ALA797  LYS798  CYS799  TRP800  GLU811  SER814 

> <Gold.Protein.RotatedAtoms>
  152.4617  133.7837  159.6864 H   0  0  0  0  0  0  0  0  0  0  0  0  # atno 6907 bound_to 6896
  150.8564  133.7699  159.3013 H   0  0  0  0  0  0  0  0  0  0  0  0  # atno 6908 bound_to 6896
  151.5278  135.1071  159.9947 H   0  0  0  0  0  0  0  0  0  0  0  0  # atno 6909 bound_to 6896
  146.2154  139.8331  142.8656 H   0  0  0  0  0  0  0  0  0  0  0  0  # atno 7974 bound_to 7965
  156.0725  140.3282  155.7593 H   0  0  0  0  0  0  0  0  0  0  0  0  # atno 8008 bound_to 7997
  155.5283  140.0591  157.2911 H   0  0  0  0  0  0  0  0  0  0  0  0  # atno 8009 bound_to 7997
  154.4538  140.1932  156.0458 H   0  0  0  0  0  0  0  0  0  0  0  0  # atno 8010 bound_to 7997
  140.5049  144.0255  150.6348 H   0  0  0  0  0  0  0  0  0  0  0  0  # atno 10167 bound_to 10162
  157.1577  131.0579  151.2248 H   0  0  0  0  0  0  0  0  0  0  0  0  # atno 10718 bound_to 10713
  154.8268  135.3352  154.6869 H   0  0  0  0  0  0  0  0  0  0  0  0  # atno 10763 bound_to 10752
  153.7494  135.6940  153.4953 H   0  0  0  0  0  0  0  0  0  0  0  0  # atno 10764 bound_to 10752
  153.2187  135.4456  155.0415 H   0  0  0  0  0  0  0  0  0  0  0  0  # atno 10765 bound_to 10752
  141.1317  133.6628  156.5345 H   0  0  0  0  0  0  0  0  0  0  0  0  # atno 11005 bound_to 11000
  145.2977  141.0185  143.3627 LP  0  0  0  0  0  0  0  0  0  0  0  0  # atno 17320 bound_to 7965
  144.9030  139.4625  143.6623 LP  0  0  0  0  0  0  0  0  0  0  0  0  # atno 17321 bound_to 7965
  140.3561  143.2935  152.0434 LP  0  0  0  0  0  0  0  0  0  0  0  0  # atno 17342 bound_to 10162
  139.4881  144.6338  151.7017 LP  0  0  0  0  0  0  0  0  0  0  0  0  # atno 17343 bound_to 10162
  157.4162  130.7412  149.6877 LP  0  0  0  0  0  0  0  0  0  0  0  0  # atno 17370 bound_to 10713
  155.9759  130.4082  150.3815 LP  0  0  0  0  0  0  0  0  0  0  0  0  # atno 17371 bound_to 10713
  140.4189  134.7205  157.4878 LP  0  0  0  0  0  0  0  0  0  0  0  0  # atno 17394 bound_to 11000
  140.0374  134.6317  155.9025 LP  0  0  0  0  0  0  0  0  0  0  0  0  # atno 17395 bound_to 11000

$$$$
