AV-unprocessed.smi:1056|AV-procd|sdf|4643|dock8
  -GOLD-   22720 3153D 1   1.00000     0.00000
 Structure written by MMmdl.
 44 46  0  0  0  0  0  0  0  0  3 V2000
  153.6500  142.7901  163.3547 C   0  0  0  0  0  0  0  0  0  0  0  0
  153.2010  142.5973  161.9169 C   0  0  0  0  0  0  0  0  0  0  0  0
  152.2588  143.4944  161.3654 C   0  0  0  0  0  0  0  0  0  0  0  0
  151.8154  143.3503  160.0327 C   0  0  0  0  0  0  0  0  0  0  0  0
  150.9118  144.0996  159.2989 N   0  0  0  0  0  0  0  0  0  0  0  0
  150.9255  143.4676  158.1291 C   0  0  0  0  0  0  0  0  0  0  0  0
  151.7276  142.3910  158.0202 N   0  0  0  0  0  0  0  0  0  0  0  0
  151.9075  141.5434  156.8554 C   0  0  0  0  0  0  0  0  0  0  0  0
  150.5663  141.1017  156.2405 C   0  0  1  0  0  0  0  0  0  0  0  0
  150.8150  140.2204  155.1623 O   0  0  0  0  0  0  0  0  0  0  0  0
  149.6728  140.3836  157.2702 C   0  0  0  0  0  0  0  0  0  0  0  0
  150.2202  139.0618  157.6645 N   0  3  2  0  0  0  0  0  0  0  0  0
  149.1867  138.1090  158.1482 C   0  0  0  0  0  0  0  0  0  0  0  0
  149.7729  136.6871  158.2321 C   0  0  0  0  0  0  0  0  0  0  0  0
  151.0673  136.7113  158.9240 N   0  5  0  0  0  0  0  0  0  0  0  0
  151.9031  137.7896  159.0486 C   0  0  0  0  0  0  0  0  0  0  0  0
  153.0412  137.7593  159.5109 O   0  0  0  0  0  0  0  0  0  0  0  0
  151.3554  139.1784  158.6212 C   0  0  0  0  0  0  0  0  0  0  0  0
  152.3446  142.2750  159.2608 C   0  0  0  0  0  0  0  0  0  0  0  0
  153.2832  141.3762  159.7976 C   0  0  0  0  0  0  0  0  0  0  0  0
  153.7149  141.5345  161.1312 C   0  0  0  0  0  0  0  0  0  0  0  0
  154.7272  140.5581  161.7032 C   0  0  0  0  0  0  0  0  0  0  0  0
  153.1673  143.6552  163.8103 H   0  0  0  0  0  0  0  0  0  0  0  0
  154.7280  142.9463  163.4011 H   0  0  0  0  0  0  0  0  0  0  0  0
  153.4001  141.9141  163.9536 H   0  0  0  0  0  0  0  0  0  0  0  0
  151.8674  144.3041  161.9637 H   0  0  0  0  0  0  0  0  0  0  0  0
  150.3127  143.8035  157.3051 H   0  0  0  0  0  0  0  0  0  0  0  0
  152.5090  142.0793  156.1194 H   0  0  0  0  0  0  0  0  0  0  0  0
  152.4882  140.6716  157.1590 H   0  0  0  0  0  0  0  0  0  0  0  0
  150.0587  141.9811  155.8459 H   0  0  0  0  0  0  0  0  0  0  0  0
  150.6930  139.3331  155.4650 H   0  0  0  0  0  0  0  0  0  0  0  0
  149.5728  141.0220  158.1497 H   0  0  0  0  0  0  0  0  0  0  0  0
  148.6637  140.2475  156.8780 H   0  0  0  0  0  0  0  0  0  0  0  0
  148.8263  138.4308  159.1267 H   0  0  0  0  0  0  0  0  0  0  0  0
  148.3215  138.0965  157.4868 H   0  0  0  0  0  0  0  0  0  0  0  0
  149.0575  136.0312  158.7274 H   0  0  0  0  0  0  0  0  0  0  0  0
  149.8834  136.2967  157.2202 H   0  0  0  0  0  0  0  0  0  0  0  0
  152.1613  139.7530  158.1625 H   0  0  0  0  0  0  0  0  0  0  0  0
  151.0359  139.7189  159.5136 H   0  0  0  0  0  0  0  0  0  0  0  0
  153.6667  140.5714  159.1882 H   0  0  0  0  0  0  0  0  0  0  0  0
  155.0113  139.8034  160.9693 H   0  0  0  0  0  0  0  0  0  0  0  0
  154.3131  140.0427  162.5700 H   0  0  0  0  0  0  0  0  0  0  0  0
  155.6319  141.0826  162.0114 H   0  0  0  0  0  0  0  0  0  0  0  0
  150.6118  138.6529  156.8281 H   0  0  0  0  0  0  0  0  0  0  0  0
  1  2  1  0  0  0  0
  1 23  1  0  0  0  0
  1 24  1  0  0  0  0
  1 25  1  0  0  0  0
  2 21  1  0  0  0  0
  2  3  2  0  0  0  0
  3  4  1  0  0  0  0
  3 26  1  0  0  0  0
  4 19  2  0  0  0  0
  4  5  1  0  0  0  0
  5  6  2  0  0  0  0
  6  7  1  0  0  0  0
  6 27  1  0  0  0  0
  7  8  1  0  0  0  0
  7 19  1  0  0  0  0
  8  9  1  0  0  0  0
  8 28  1  0  0  0  0
  8 29  1  0  0  0  0
  9 10  1  0  0  0  0
  9 11  1  0  0  0  0
  9 30  1  0  0  0  0
 10 31  1  0  0  0  0
 11 12  1  0  0  0  0
 11 32  1  0  0  0  0
 11 33  1  0  0  0  0
 12 18  1  0  0  0  0
 12 13  1  0  0  0  0
 12 44  1  0  0  0  0
 13 14  1  0  0  0  0
 13 34  1  0  0  0  0
 13 35  1  0  0  0  0
 14 15  1  0  0  0  0
 14 36  1  0  0  0  0
 14 37  1  0  0  0  0
 15 16  1  0  0  0  0
 16 17  2  0  0  0  0
 16 18  1  0  0  0  0
 18 38  1  0  0  0  0
 18 39  1  0  0  0  0
 19 20  1  0  0  0  0
 20 21  2  0  0  0  0
 20 40  1  0  0  0  0
 21 22  1  0  0  0  0
 22 41  1  0  0  0  0
 22 42  1  0  0  0  0
 22 43  1  0  0  0  0
M  CHG  1  12   1
M  CHG  1  15  -1
M  END
> <s_m_source_file>
AV-unprocessed.smi

> <i_m_source_file_index>
1056

> <i_lp_mmshare_version>
43012

> <i_f3d_flags>
0

> <s_epik_input>
W0NIM11jKFtjSF0xKWMoW0NIM10pW2NIXWMoYzEyKW4oW2NIXW4yKVtDSDJdW0NASF0oW09IXSlbQ0gyXU4zW0NIMl1bQ0gyXVtOSF1DKD1PKVtDSDJdMw==

> <s_epik_cmdline>
J2VwaWtfcHl0aG9uJywgJy1waCcsICc3LjAnLCAnLXRuJywgJzgnLCAnLW1hJywgJzIwMCcsICctbWV0YWxfYmluZGluZycsICctaW1hZScsICc8aW5maWxlLm1hZT4nLCAnLW9tYWUnLCAnPG91dGZpbGUubWFlPic=

> <r_epik_Ionization_Penalty>
5.13411

> <r_epik_Ionization_Penalty_Charging>
5.04792

> <r_epik_Ionization_Penalty_Neutral>
0.0861879

> <r_epik_State_Penalty>
5.18224

> <r_epik_Charging_Adjusted_Penalty>
10.2302

> <i_epik_Tot_Q>
0

> <i_epik_Tot_abs_Q>
2

> <r_epik_Metal_State_Penalty>
1.33873

> <b_epik_Metal_Only>
1

> <s_lp_Force_Field>
OPLS_2005

> <r_lp_Energy>
15.7703

> <b_lp_Chiralities_Consistent>
1

> <s_lp_Variant>
AV-unprocessed.smi:1056-14

> <Gold.Version>
5.8.1

> <Gold.Id.Protein>
6NUR|6NUR_protein|mol2

> <Gold.PLP.Fitness>
55.0676

> <Gold.PLP.PLP>
-43.7515

> <Gold.PLP.part.hbond>
-2.0000

> <Gold.PLP.part.metal>
0.0000

> <Gold.PLP.part.buried>
-7.6664

> <Gold.PLP.part.nonpolar>
-33.9054

> <Gold.PLP.part.repulsive>
0.2098

> <Gold.PLP.ligand.clash>
0.0000

> <Gold.PLP.ligand.torsion>
0.3719

> <Gold.PLP.Chemscore.Hbond>
3.0000

> <Gold.PLP.Chemscore.CHOScore>
1.0000

> <Gold.PLP.Chemscore.Metal>
0.0000

> <Gold.Chemscore.Hbonds>
donor molecule, donor type, donor heavy atom, donor atom, acceptor molecule, acceptor atom, score
      P1  H  6896  6907       L1    15  1.92
      P1  H  7989  7998       L1    10  1.00
      L1  C     6    27       P1  8028  1.00

> <Gold.PLP.Chemscore.Internal.Correction>
0.0599

> <Gold.Rescore>
     Score         DG    S(hbond)    S(metal)    S(lipo)     H(rot)  DE(clash)    DE(int)     intcor
     16.81     -18.17       1.75        0.00     109.04       2.31       0.80       0.57       ----

> <Gold.Chemscore.Fitness>
16.8084

> <Gold.Chemscore.DG>
-18.1720

> <Gold.Chemscore.ZeroCoef>
-5.4800

> <Gold.Chemscore.Hbond>
1.7544

> <Gold.Chemscore.Metal>
0.0000

> <Gold.Chemscore.Lipo>
109.0421

> <Gold.Chemscore.Internal_Hbond>
0.0000

> <Gold.Chemscore.DEClash>
0.7971

> <Gold.Chemscore.DEInternal>
0.5665

> <Gold.Chemscore.Rot>
2.3147

> <Gold.Chemscore.Internal.Correction>
   9.000000E+99

> <Gold.Chemscore.Hbonds>
donor molecule, donor type, donor heavy atom, donor atom, acceptor molecule, acceptor atom, score
      P1  H  6896  6907       L1    15  0.37
      P1  H  7989  7998       L1    10  0.96

> <Gold.Chemscore.Hbond.Weighted>
-5.8596

> <Gold.Chemscore.Metal.Weighted>
-0.0000

> <Gold.Chemscore.Lipo.Weighted>
-12.7579

> <Gold.Chemscore.Internal_Hbond.Weighted>
0.0000

> <Gold.Chemscore.DEClash.Weighted>
0.7971

> <Gold.Chemscore.DEInternal.Weighted>
0.5665

> <Gold.Chemscore.Rot.Weighted>
5.9256

> <Gold.Chemscore.Internal.Correction.Weighted>
   9.000000E+99

> <Gold.Protein.RotatedTorsions>
[ 6907 6896 6895 6894 ] final  -31.25 input  -60.11 | X-H torsion
[ 7974 7965 7964 7962 ] final  -16.99 input  175.53 | X-H torsion
[ 8008 7997 7996 7995 ] final  152.75 input   59.86 | X-H torsion
[ 10167 10162 10161 10158 ] final -106.24 input  -65.29 | X-H torsion
[ 10718 10713 10712 10709 ] final  -62.78 input   66.30 | X-H torsion
[ 10763 10752 10751 10750 ] final  154.10 input  -60.55 | X-H torsion
[ 11005 11000 10999 10996 ] final  -80.60 input  -57.11 | X-H torsion

> <Gold.Protein.ActiveResidues>
 VAL166  LYS551  ARG553  GLY616  TRP617  ASP618  TYR619  PRO620  LYS621  CYS622 
 ASP623  PHE694  ASN695  SER759  ASP760  ASP761  ALA762  ILE779  LEU786  VAL792 
 PHE793  MET794  SER795  GLU796  ALA797  LYS798  CYS799  TRP800  GLU811  SER814 

> <Gold.Protein.RotatedAtoms>
  151.0946  134.9936  159.8418 H   0  0  0  0  0  0  0  0  0  0  0  0  # atno 6907 bound_to 6896
  152.5432  134.2024  159.8727 H   0  0  0  0  0  0  0  0  0  0  0  0  # atno 6908 bound_to 6896
  151.2063  133.4538  159.2630 H   0  0  0  0  0  0  0  0  0  0  0  0  # atno 6909 bound_to 6896
  146.1962  140.3716  142.8440 H   0  0  0  0  0  0  0  0  0  0  0  0  # atno 7974 bound_to 7965
  156.2614  140.2012  156.6383 H   0  0  0  0  0  0  0  0  0  0  0  0  # atno 8008 bound_to 7997
  154.6629  140.0559  157.0107 H   0  0  0  0  0  0  0  0  0  0  0  0  # atno 8009 bound_to 7997
  155.1249  140.3228  155.4491 H   0  0  0  0  0  0  0  0  0  0  0  0  # atno 8010 bound_to 7997
  140.1899  143.3900  152.1214 H   0  0  0  0  0  0  0  0  0  0  0  0  # atno 10167 bound_to 10162
  156.0833  130.4213  150.1183 H   0  0  0  0  0  0  0  0  0  0  0  0  # atno 10718 bound_to 10713
  154.1468  135.2817  155.3146 H   0  0  0  0  0  0  0  0  0  0  0  0  # atno 10763 bound_to 10752
  154.6246  135.5456  153.7616 H   0  0  0  0  0  0  0  0  0  0  0  0  # atno 10764 bound_to 10752
  153.0233  135.6447  154.1614 H   0  0  0  0  0  0  0  0  0  0  0  0  # atno 10765 bound_to 10752
  141.1668  133.7157  156.8296 H   0  0  0  0  0  0  0  0  0  0  0  0  # atno 11005 bound_to 11000
  144.8585  140.7105  143.6122 LP  0  0  0  0  0  0  0  0  0  0  0  0  # atno 17320 bound_to 7965
  145.3636  139.1675  143.4370 LP  0  0  0  0  0  0  0  0  0  0  0  0  # atno 17321 bound_to 7965
  139.5260  144.7103  151.5228 LP  0  0  0  0  0  0  0  0  0  0  0  0  # atno 17342 bound_to 10162
  140.6463  143.8788  150.6740 LP  0  0  0  0  0  0  0  0  0  0  0  0  # atno 17343 bound_to 10162
  156.9210  130.9683  151.3548 LP  0  0  0  0  0  0  0  0  0  0  0  0  # atno 17370 bound_to 10713
  157.5958  130.8477  149.8727 LP  0  0  0  0  0  0  0  0  0  0  0  0  # atno 17371 bound_to 10713
  140.2060  134.8862  157.3222 LP  0  0  0  0  0  0  0  0  0  0  0  0  # atno 17394 bound_to 11000
  140.2137  134.4108  155.7600 LP  0  0  0  0  0  0  0  0  0  0  0  0  # atno 17395 bound_to 11000

$$$$
