AV-unprocessed.smi:1540|AV-procd|sdf|6200|dock2
  -GOLD-   22720 6363D 1   1.00000     0.00000
 Structure written by MMmdl.
 32 32  0  0  0  0  0  0  0  0  2 V2000
  145.5908  143.1159  154.7925 C   0  0  0  0  0  0  0  0  0  0  0  0
  146.4141  142.6432  153.8447 C   0  0  0  0  0  0  0  0  0  0  0  0
  147.6415  141.8019  154.1173 C   0  0  0  0  0  0  0  0  0  0  0  0
  147.2628  140.5346  154.6404 O   0  0  0  0  0  0  0  0  0  0  0  0
  148.2490  139.5106  154.5357 C   0  0  2  0  0  0  0  0  0  0  0  0
  147.7277  138.2852  155.3005 C   0  0  0  0  0  0  0  0  0  0  0  0
  149.5884  139.9967  155.1129 C   0  0  0  0  0  0  0  0  0  0  0  0
  150.5402  140.1842  154.3551 O   0  0  0  0  0  0  0  0  0  0  0  0
  149.6069  140.1859  156.4468 N   0  0  0  0  0  0  0  0  0  0  0  0
  150.6697  140.5792  157.2773 C   0  0  0  0  0  0  0  0  0  0  0  0
  150.7247  141.7547  157.9628 C   0  0  0  0  0  0  0  0  0  0  0  0
  151.8613  142.1163  158.8005 C   0  0  0  0  0  0  0  0  0  0  0  0
  151.9894  143.4478  159.5194 C   0  0  0  0  0  0  0  0  0  0  0  0
  152.9699  144.1657  158.9736 F   0  0  0  0  0  0  0  0  0  0  0  0
  150.8603  144.1515  159.4304 F   0  0  0  0  0  0  0  0  0  0  0  0
  152.2731  143.2696  160.8099 F   0  0  0  0  0  0  0  0  0  0  0  0
  152.8548  141.1566  158.7787 C   0  0  0  0  0  0  0  0  0  0  0  0
  152.8772  139.9693  158.1343 N   0  5  0  0  0  0  0  0  0  0  0  0
  151.8050  139.6372  157.3609 C   0  0  0  0  0  0  0  0  0  0  0  0
  151.7644  138.5763  156.7370 O   0  0  0  0  0  0  0  0  0  0  0  0
  145.7654  142.9144  155.8394 H   0  0  0  0  0  0  0  0  0  0  0  0
  144.7285  143.7118  154.5317 H   0  0  0  0  0  0  0  0  0  0  0  0
  146.2075  142.8644  152.8077 H   0  0  0  0  0  0  0  0  0  0  0  0
  148.1854  141.6718  153.1808 H   0  0  0  0  0  0  0  0  0  0  0  0
  148.2974  142.3347  154.8071 H   0  0  0  0  0  0  0  0  0  0  0  0
  148.3720  139.2335  153.4867 H   0  0  0  0  0  0  0  0  0  0  0  0
  148.4455  137.4646  155.2694 H   0  0  0  0  0  0  0  0  0  0  0  0
  146.7968  137.9244  154.8627 H   0  0  0  0  0  0  0  0  0  0  0  0
  147.5303  138.5187  156.3475 H   0  0  0  0  0  0  0  0  0  0  0  0
  148.7268  140.0672  156.9274 H   0  0  0  0  0  0  0  0  0  0  0  0
  149.9247  142.4729  157.8924 H   0  0  0  0  0  0  0  0  0  0  0  0
  153.7724  141.3784  159.3643 H   0  0  0  0  0  0  0  0  0  0  0  0
  1  2  2  0  0  0  0
  1 21  1  0  0  0  0
  1 22  1  0  0  0  0
  2  3  1  0  0  0  0
  2 23  1  0  0  0  0
  3  4  1  0  0  0  0
  3 24  1  0  0  0  0
  3 25  1  0  0  0  0
  4  5  1  0  0  0  0
  5  6  1  0  0  0  0
  5  7  1  0  0  0  0
  5 26  1  0  0  0  0
  6 27  1  0  0  0  0
  6 28  1  0  0  0  0
  6 29  1  0  0  0  0
  7  8  2  0  0  0  0
  7  9  1  0  0  0  0
  9 10  1  0  0  0  0
  9 30  1  0  0  0  0
 10 19  1  0  0  0  0
 10 11  2  0  0  0  0
 11 12  1  0  0  0  0
 11 31  1  0  0  0  0
 12 13  1  0  0  0  0
 12 17  2  0  0  0  0
 13 14  1  0  0  0  0
 13 15  1  0  0  0  0
 13 16  1  0  0  0  0
 17 18  1  0  0  0  0
 17 32  1  0  0  0  0
 18 19  1  0  0  0  0
 19 20  2  0  0  0  0
M  CHG  1  18  -1
M  END
> <s_m_source_file>
AV-unprocessed.smi

> <i_m_source_file_index>
1540

> <i_lp_mmshare_version>
43012

> <i_f3d_flags>
0

> <s_epik_input>
W0NIMl09W0NIXVtDSDJdT1tDQEhdKFtDSDNdKUMoPU8pW05IXWMxW2NIXWMoQyhGKShGKUYpW2NIXVtuSF1jMT1P

> <s_epik_cmdline>
J2VwaWtfcHl0aG9uJywgJy1waCcsICc3LjAnLCAnLXRuJywgJzgnLCAnLW1hJywgJzIwMCcsICctbWV0YWxfYmluZGluZycsICctaW1hZScsICc8aW5maWxlLm1hZT4nLCAnLW9tYWUnLCAnPG91dGZpbGUubWFlPic=

> <r_epik_Ionization_Penalty>
2.56803

> <r_epik_Ionization_Penalty_Charging>
0.0609694

> <r_epik_Ionization_Penalty_Neutral>
2.50706

> <r_epik_State_Penalty>
2.67253

> <r_epik_Charging_Adjusted_Penalty>
2.7335

> <i_epik_Tot_Q>
-1

> <i_epik_Tot_abs_Q>
1

> <r_epik_Metal_State_Penalty>
0.517713

> <b_epik_Metal_Only>
0

> <s_lp_Force_Field>
OPLS_2005

> <r_lp_Energy>
19.8511

> <b_lp_Chiralities_Consistent>
1

> <s_lp_Variant>
AV-unprocessed.smi:1540-3

> <Gold.Version>
5.8.1

> <Gold.Id.Protein>
6NUR|6NUR_protein|mol2

> <Gold.PLP.Fitness>
43.9077

> <Gold.PLP.PLP>
-36.8371

> <Gold.PLP.part.hbond>
-1.8952

> <Gold.PLP.part.metal>
0.0000

> <Gold.PLP.part.buried>
-6.8642

> <Gold.PLP.part.nonpolar>
-29.0400

> <Gold.PLP.part.repulsive>
0.2437

> <Gold.PLP.ligand.clash>
0.0000

> <Gold.PLP.ligand.torsion>
1.0294

> <Gold.PLP.Chemscore.Hbond>
3.0000

> <Gold.PLP.Chemscore.CHOScore>
0.0000

> <Gold.PLP.Chemscore.Metal>
0.0000

> <Gold.Chemscore.Hbonds>
donor molecule, donor type, donor heavy atom, donor atom, acceptor molecule, acceptor atom, score
      P1  H  7989  7998       L1     8  1.00
      P1  H  7997  8009       L1    18  1.98

> <Gold.PLP.Chemscore.Internal.Correction>
0.1293

> <Gold.Rescore>
     Score         DG    S(hbond)    S(metal)    S(lipo)     H(rot)  DE(clash)    DE(int)     intcor
     11.75     -12.70       1.35        0.00      61.99       1.77       0.00       0.94       ----

> <Gold.Chemscore.Fitness>
11.7540

> <Gold.Chemscore.DG>
-12.7010

> <Gold.Chemscore.ZeroCoef>
-5.4800

> <Gold.Chemscore.Hbond>
1.3508

> <Gold.Chemscore.Metal>
0.0000

> <Gold.Chemscore.Lipo>
61.9934

> <Gold.Chemscore.Internal_Hbond>
0.0000

> <Gold.Chemscore.DEClash>
0.0044

> <Gold.Chemscore.DEInternal>
0.9426

> <Gold.Chemscore.Rot>
1.7750

> <Gold.Chemscore.Internal.Correction>
   9.000000E+99

> <Gold.Chemscore.Hbonds>
donor molecule, donor type, donor heavy atom, donor atom, acceptor molecule, acceptor atom, score
      P1  H  7989  7998       L1     8  0.94
      P1  H  7997  8009       L1    18  0.25

> <Gold.Chemscore.Hbond.Weighted>
-4.5116

> <Gold.Chemscore.Metal.Weighted>
-0.0000

> <Gold.Chemscore.Lipo.Weighted>
-7.2532

> <Gold.Chemscore.Internal_Hbond.Weighted>
0.0000

> <Gold.Chemscore.DEClash.Weighted>
0.0044

> <Gold.Chemscore.DEInternal.Weighted>
0.9426

> <Gold.Chemscore.Rot.Weighted>
4.5439

> <Gold.Chemscore.Internal.Correction.Weighted>
   9.000000E+99

> <Gold.Protein.RotatedTorsions>
[ 6907 6896 6895 6894 ] final  -45.97 input  -60.11 | X-H torsion
[ 7974 7965 7964 7962 ] final  -54.38 input  175.53 | X-H torsion
[ 8008 7997 7996 7995 ] final  166.39 input   59.86 | X-H torsion
[ 10167 10162 10161 10158 ] final   69.66 input  -65.29 | X-H torsion
[ 10718 10713 10712 10709 ] final -167.56 input   66.30 | X-H torsion
[ 10763 10752 10751 10750 ] final  -73.90 input  -60.55 | X-H torsion
[ 11005 11000 10999 10996 ] final  176.78 input  -57.11 | X-H torsion

> <Gold.Protein.ActiveResidues>
 VAL166  LYS551  ARG553  GLY616  TRP617  ASP618  TYR619  PRO620  LYS621  CYS622 
 ASP623  PHE694  ASN695  SER759  ASP760  ASP761  ALA762  ILE779  LEU786  VAL792 
 PHE793  MET794  SER795  GLU796  ALA797  LYS798  CYS799  TRP800  GLU811  SER814 

> <Gold.Protein.RotatedAtoms>
  150.9163  134.8580  159.7458 H   0  0  0  0  0  0  0  0  0  0  0  0  # atno 6907 bound_to 6896
  152.4970  134.4285  159.9514 H   0  0  0  0  0  0  0  0  0  0  0  0  # atno 6908 bound_to 6896
  151.4323  133.3627  159.2805 H   0  0  0  0  0  0  0  0  0  0  0  0  # atno 6909 bound_to 6896
  145.8862  140.8106  142.9815 H   0  0  0  0  0  0  0  0  0  0  0  0  # atno 7974 bound_to 7965
  156.1723  140.1645  156.8426 H   0  0  0  0  0  0  0  0  0  0  0  0  # atno 8008 bound_to 7997
  154.5269  140.0765  156.8309 H   0  0  0  0  0  0  0  0  0  0  0  0  # atno 8009 bound_to 7997
  155.3487  140.3389  155.4241 H   0  0  0  0  0  0  0  0  0  0  0  0  # atno 8010 bound_to 7997
  140.0654  144.5197  150.7264 H   0  0  0  0  0  0  0  0  0  0  0  0  # atno 10167 bound_to 10162
  156.6841  130.9133  151.3061 H   0  0  0  0  0  0  0  0  0  0  0  0  # atno 10718 bound_to 10713
  154.4657  135.5882  153.6287 H   0  0  0  0  0  0  0  0  0  0  0  0  # atno 10763 bound_to 10752
  152.9828  135.6055  154.3430 H   0  0  0  0  0  0  0  0  0  0  0  0  # atno 10764 bound_to 10752
  154.3306  135.2842  155.2452 H   0  0  0  0  0  0  0  0  0  0  0  0  # atno 10765 bound_to 10752
  140.3769  134.6980  157.4427 H   0  0  0  0  0  0  0  0  0  0  0  0  # atno 11005 bound_to 11000
  144.6728  140.1459  143.7433 LP  0  0  0  0  0  0  0  0  0  0  0  0  # atno 17320 bound_to 7965
  145.8964  139.2405  143.1519 LP  0  0  0  0  0  0  0  0  0  0  0  0  # atno 17321 bound_to 7965
  140.7151  143.2538  151.4458 LP  0  0  0  0  0  0  0  0  0  0  0  0  # atno 17342 bound_to 10162
  139.5868  144.1587  152.2039 LP  0  0  0  0  0  0  0  0  0  0  0  0  # atno 17343 bound_to 10162
  157.7033  130.9357  150.0851 LP  0  0  0  0  0  0  0  0  0  0  0  0  # atno 17370 bound_to 10713
  156.1846  130.3651  149.8990 LP  0  0  0  0  0  0  0  0  0  0  0  0  # atno 17371 bound_to 10713
  140.0508  134.6133  155.8864 LP  0  0  0  0  0  0  0  0  0  0  0  0  # atno 17394 bound_to 11000
  141.1936  133.6579  156.5556 LP  0  0  0  0  0  0  0  0  0  0  0  0  # atno 17395 bound_to 11000

$$$$
