AV-unprocessed.smi:2148|AV-procd|sdf|8748|dock6
  -GOLD-   2272011523D 1   1.00000     0.00000
 Structure written by MMmdl.
 44 45  0  0  0  0  0  0  0  0  1 V2000
  145.1982  135.8011  151.5225 C   0  0  0  0  0  0  0  0  0  0  0  0
  145.7967  136.2058  153.1861 S   0  0  0  0  0  0  0  0  0  0  0  0
  145.8882  138.0194  153.0917 C   0  0  2  0  0  0  0  0  0  0  0  0
  146.5613  138.4487  151.7783 C   0  0  0  0  0  0  0  0  0  0  0  0
  146.6019  138.6209  154.3097 C   0  0  0  0  0  0  0  0  0  0  0  0
  146.0812  138.5470  155.4228 O   0  0  0  0  0  0  0  0  0  0  0  0
  147.7745  139.2319  154.0567 N   0  0  0  0  0  0  0  0  0  0  0  0
  148.6352  139.9026  154.9657 C   0  0  0  0  0  0  0  0  0  0  0  0
  148.1854  140.0929  156.2865 C   0  0  0  0  0  0  0  0  0  0  0  0
  149.0158  140.7592  157.2069 C   0  0  0  0  0  0  0  0  0  0  0  0
  150.2792  141.2300  156.7800 C   0  0  0  0  0  0  0  0  0  0  0  0
  151.1331  141.8840  157.6931 N   0  0  0  0  0  0  0  0  0  0  0  0
  150.6375  143.1610  158.1992 C   0  0  0  0  0  0  0  0  0  0  0  0
  151.7508  143.9379  158.9290 C   0  0  2  0  0  0  0  0  0  0  0  0
  152.7730  144.5818  157.9753 C   0  0  0  0  0  0  0  0  0  0  0  0
  152.3743  143.1053  159.9092 O   0  0  0  0  0  0  0  0  0  0  0  0
  152.9059  141.8818  159.4028 C   0  0  1  0  0  0  0  0  0  0  0  0
  153.5275  141.1157  160.5748 C   0  0  0  0  0  0  0  0  0  0  0  0
  151.7867  141.0763  158.7191 C   0  0  0  0  0  0  0  0  0  0  0  0
  150.6999  141.0725  155.5009 N   0  0  0  0  0  0  0  0  0  0  0  0
  149.9022  140.4300  154.6218 C   0  0  0  0  0  0  0  0  0  0  0  0
  145.1456  134.7196  151.3984 H   0  0  0  0  0  0  0  0  0  0  0  0
  145.8724  136.2027  150.7659 H   0  0  0  0  0  0  0  0  0  0  0  0
  144.2023  136.2121  151.3577 H   0  0  0  0  0  0  0  0  0  0  0  0
  144.8633  138.3931  153.0688 H   0  0  0  0  0  0  0  0  0  0  0  0
  146.6452  139.5339  151.7104 H   0  0  0  0  0  0  0  0  0  0  0  0
  145.9813  138.1117  150.9187 H   0  0  0  0  0  0  0  0  0  0  0  0
  147.5634  138.0287  151.6830 H   0  0  0  0  0  0  0  0  0  0  0  0
  148.0401  139.2903  153.0844 H   0  0  0  0  0  0  0  0  0  0  0  0
  147.2170  139.7282  156.5970 H   0  0  0  0  0  0  0  0  0  0  0  0
  148.6747  140.9103  158.2205 H   0  0  0  0  0  0  0  0  0  0  0  0
  150.2229  143.7816  157.4057 H   0  0  0  0  0  0  0  0  0  0  0  0
  149.8212  142.9562  158.8933 H   0  0  0  0  0  0  0  0  0  0  0  0
  151.2792  144.7522  159.4799 H   0  0  0  0  0  0  0  0  0  0  0  0
  152.2877  145.3135  157.3292 H   0  0  0  0  0  0  0  0  0  0  0  0
  153.2542  143.8494  157.3277 H   0  0  0  0  0  0  0  0  0  0  0  0
  153.5531  145.1004  158.5330 H   0  0  0  0  0  0  0  0  0  0  0  0
  153.6959  142.0946  158.6824 H   0  0  0  0  0  0  0  0  0  0  0  0
  153.9611  140.1723  160.2418 H   0  0  0  0  0  0  0  0  0  0  0  0
  152.7829  140.8917  161.3392 H   0  0  0  0  0  0  0  0  0  0  0  0
  154.3203  141.6991  161.0436 H   0  0  0  0  0  0  0  0  0  0  0  0
  151.0446  140.7618  159.4545 H   0  0  0  0  0  0  0  0  0  0  0  0
  152.2096  140.1741  158.2749 H   0  0  0  0  0  0  0  0  0  0  0  0
  150.2966  140.3618  153.6198 H   0  0  0  0  0  0  0  0  0  0  0  0
  1  2  1  0  0  0  0
  1 22  1  0  0  0  0
  1 23  1  0  0  0  0
  1 24  1  0  0  0  0
  2  3  1  0  0  0  0
  3  4  1  0  0  0  0
  3  5  1  0  0  0  0
  3 25  1  0  0  0  0
  4 26  1  0  0  0  0
  4 27  1  0  0  0  0
  4 28  1  0  0  0  0
  5  6  2  0  0  0  0
  5  7  1  0  0  0  0
  7  8  1  0  0  0  0
  7 29  1  0  0  0  0
  8 21  1  0  0  0  0
  8  9  2  0  0  0  0
  9 10  1  0  0  0  0
  9 30  1  0  0  0  0
 10 11  2  0  0  0  0
 10 31  1  0  0  0  0
 11 12  1  0  0  0  0
 11 20  1  0  0  0  0
 12 19  1  0  0  0  0
 12 13  1  0  0  0  0
 13 14  1  0  0  0  0
 13 32  1  0  0  0  0
 13 33  1  0  0  0  0
 14 15  1  0  0  0  0
 14 16  1  0  0  0  0
 14 34  1  0  0  0  0
 15 35  1  0  0  0  0
 15 36  1  0  0  0  0
 15 37  1  0  0  0  0
 16 17  1  0  0  0  0
 17 18  1  0  0  0  0
 17 19  1  0  0  0  0
 17 38  1  0  0  0  0
 18 39  1  0  0  0  0
 18 40  1  0  0  0  0
 18 41  1  0  0  0  0
 19 42  1  0  0  0  0
 19 43  1  0  0  0  0
 20 21  2  0  0  0  0
 21 44  1  0  0  0  0
M  END
> <s_m_source_file>
AV-unprocessed.smi

> <i_m_source_file_index>
2148

> <i_lp_mmshare_version>
43012

> <i_f3d_flags>
0

> <s_epik_input>
W0NIM11TW0NASF0oW0NIM10pQyg9TylbTkhdYzFbY0hdW2NIXWMobltjSF0xKU4yW0NIMl1bQ0BASF0oW0NIM10pT1tDQEBIXShbQ0gzXSlbQ0gyXTI=

> <s_epik_cmdline>
J2VwaWtfcHl0aG9uJywgJy1waCcsICc3LjAnLCAnLXRuJywgJzgnLCAnLW1hJywgJzIwMCcsICctbWV0YWxfYmluZGluZycsICctaW1hZScsICc8aW5maWxlLm1hZT4nLCAnLW9tYWUnLCAnPG91dGZpbGUubWFlPic=

> <r_lp_tautomer_probability>
1

> <r_epik_Ionization_Penalty>
0.000646494

> <r_epik_Ionization_Penalty_Charging>
0

> <r_epik_Ionization_Penalty_Neutral>
0.000646494

> <r_epik_State_Penalty>
0.000408447

> <r_epik_Charging_Adjusted_Penalty>
0.000408447

> <i_epik_Tot_Q>
0

> <i_epik_Tot_abs_Q>
0

> <r_epik_Metal_State_Penalty>
-0

> <b_epik_Metal_Only>
0

> <s_lp_Force_Field>
OPLS_2005

> <r_lp_Energy>
25.6211

> <b_lp_Chiralities_Consistent>
1

> <s_lp_Variant>
AV-unprocessed.smi:2148-3

> <Gold.Version>
5.8.1

> <Gold.Id.Protein>
6NUR|6NUR_protein|mol2

> <Gold.PLP.Fitness>
36.7811

> <Gold.PLP.PLP>
-36.1238

> <Gold.PLP.part.hbond>
-1.0000

> <Gold.PLP.part.metal>
0.0000

> <Gold.PLP.part.buried>
-3.7104

> <Gold.PLP.part.nonpolar>
-33.1192

> <Gold.PLP.part.repulsive>
0.1478

> <Gold.PLP.ligand.clash>
1.8928

> <Gold.PLP.ligand.torsion>
0.3835

> <Gold.PLP.Chemscore.Hbond>
0.0000

> <Gold.PLP.Chemscore.CHOScore>
0.9917

> <Gold.PLP.Chemscore.Metal>
0.0000

> <Gold.Chemscore.Hbonds>
donor molecule, donor type, donor heavy atom, donor atom, acceptor molecule, acceptor atom, score
      L1  C    21    44       P1  7957  0.91

> <Gold.PLP.Chemscore.Internal.Correction>
0.3420

> <Gold.Rescore>
     Score         DG    S(hbond)    S(metal)    S(lipo)     H(rot)  DE(clash)    DE(int)     intcor
     12.30     -14.22       0.00        0.00     102.41       1.27       0.23       1.69       ----

> <Gold.Chemscore.Fitness>
12.3029

> <Gold.Chemscore.DG>
-14.2214

> <Gold.Chemscore.ZeroCoef>
-5.4800

> <Gold.Chemscore.Hbond>
0.0000

> <Gold.Chemscore.Metal>
0.0000

> <Gold.Chemscore.Lipo>
102.4098

> <Gold.Chemscore.Internal_Hbond>
0.0000

> <Gold.Chemscore.DEClash>
0.2297

> <Gold.Chemscore.DEInternal>
1.6887

> <Gold.Chemscore.Rot>
1.2659

> <Gold.Chemscore.Internal.Correction>
   9.000000E+99

> <Gold.Chemscore.Hbond.Weighted>
-0.0000

> <Gold.Chemscore.Metal.Weighted>
-0.0000

> <Gold.Chemscore.Lipo.Weighted>
-11.9820

> <Gold.Chemscore.Internal_Hbond.Weighted>
0.0000

> <Gold.Chemscore.DEClash.Weighted>
0.2297

> <Gold.Chemscore.DEInternal.Weighted>
1.6887

> <Gold.Chemscore.Rot.Weighted>
3.2406

> <Gold.Chemscore.Internal.Correction.Weighted>
   9.000000E+99

> <Gold.Protein.RotatedTorsions>
[ 6907 6896 6895 6894 ] final   46.07 input  -60.11 | X-H torsion
[ 7974 7965 7964 7962 ] final   12.36 input  175.53 | X-H torsion
[ 8008 7997 7996 7995 ] final -152.57 input   59.86 | X-H torsion
[ 10167 10162 10161 10158 ] final  150.67 input  -65.29 | X-H torsion
[ 10718 10713 10712 10709 ] final   79.28 input   66.30 | X-H torsion
[ 10763 10752 10751 10750 ] final -101.09 input  -60.55 | X-H torsion
[ 11005 11000 10999 10996 ] final   -3.71 input  -57.11 | X-H torsion

> <Gold.Protein.ActiveResidues>
 VAL166  LYS551  ARG553  GLY616  TRP617  ASP618  TYR619  PRO620  LYS621  CYS622 
 ASP623  PHE694  ASN695  SER759  ASP760  ASP761  ALA762  ILE779  LEU786  VAL792 
 PHE793  MET794  SER795  GLU796  ALA797  LYS798  CYS799  TRP800  GLU811  SER814 

> <Gold.Protein.RotatedAtoms>
  152.2520  134.8122  160.0444 H   0  0  0  0  0  0  0  0  0  0  0  0  # atno 6907 bound_to 6896
  151.8799  133.3488  159.3771 H   0  0  0  0  0  0  0  0  0  0  0  0  # atno 6908 bound_to 6896
  150.7087  134.4956  159.5580 H   0  0  0  0  0  0  0  0  0  0  0  0  # atno 6909 bound_to 6896
  146.2353  139.9349  142.8491 H   0  0  0  0  0  0  0  0  0  0  0  0  # atno 7974 bound_to 7965
  155.6572  140.0718  157.2567 H   0  0  0  0  0  0  0  0  0  0  0  0  # atno 8008 bound_to 7997
  154.4150  140.1723  156.1788 H   0  0  0  0  0  0  0  0  0  0  0  0  # atno 8009 bound_to 7997
  155.9728  140.3360  155.6594 H   0  0  0  0  0  0  0  0  0  0  0  0  # atno 8010 bound_to 7997
  139.4848  144.5503  151.7412 H   0  0  0  0  0  0  0  0  0  0  0  0  # atno 10167 bound_to 10162
  157.6772  130.9907  150.1910 H   0  0  0  0  0  0  0  0  0  0  0  0  # atno 10718 bound_to 10713
  154.7630  135.4911  153.9501 H   0  0  0  0  0  0  0  0  0  0  0  0  # atno 10763 bound_to 10752
  153.1274  135.6745  153.9241 H   0  0  0  0  0  0  0  0  0  0  0  0  # atno 10764 bound_to 10752
  153.8955  135.3116  155.3427 H   0  0  0  0  0  0  0  0  0  0  0  0  # atno 10765 bound_to 10752
  140.6723  133.9226  155.8502 H   0  0  0  0  0  0  0  0  0  0  0  0  # atno 11005 bound_to 11000
  145.2009  140.9854  143.4156 LP  0  0  0  0  0  0  0  0  0  0  0  0  # atno 17320 bound_to 7965
  144.9775  139.3817  143.6278 LP  0  0  0  0  0  0  0  0  0  0  0  0  # atno 17321 bound_to 7965
  140.5056  144.1103  150.5982 LP  0  0  0  0  0  0  0  0  0  0  0  0  # atno 17342 bound_to 10162
  140.4011  143.2703  151.9947 LP  0  0  0  0  0  0  0  0  0  0  0  0  # atno 17343 bound_to 10162
  156.2621  130.3712  149.8119 LP  0  0  0  0  0  0  0  0  0  0  0  0  # atno 17370 bound_to 10713
  156.5861  130.8486  151.3396 LP  0  0  0  0  0  0  0  0  0  0  0  0  # atno 17371 bound_to 10713
  141.0382  134.0659  157.3933 LP  0  0  0  0  0  0  0  0  0  0  0  0  # atno 17394 bound_to 11000
  139.8978  135.0152  156.7116 LP  0  0  0  0  0  0  0  0  0  0  0  0  # atno 17395 bound_to 11000

$$$$
