AV-unprocessed.smi:34|AV-procd|sdf|230|dock8
  -GOLD-   2262015563D 1   1.00000     0.00000
 Structure written by MMmdl.
 55 59  0  0  0  0  0  0  0  0  1 V2000
  151.9136  140.1571  158.9425 O   0  0  0  0  0  0  0  0  0  0  0  0
  151.5904  141.1513  158.2918 C   0  0  0  0  0  0  0  0  0  0  0  0
  150.9627  141.0512  156.9862 N   0  0  0  0  0  0  0  0  0  0  0  0
  150.7249  139.9369  156.2558 C   0  0  0  0  0  0  0  0  0  0  0  0
  150.7422  139.9371  154.8964 N   0  0  0  0  0  0  0  0  0  0  0  0
  150.4957  138.8114  154.2195 C   0  0  0  0  0  0  0  0  0  0  0  0
  150.2092  137.5973  154.6952 N   0  0  0  0  0  0  0  0  0  0  0  0
  150.1872  137.5921  156.0591 C   0  0  0  0  0  0  0  0  0  0  0  0
  150.4335  138.7087  156.9043 C   0  0  0  0  0  0  0  0  0  0  0  0
  150.3284  138.3220  158.2342 N   0  0  0  0  0  0  0  0  0  0  0  0
  150.0396  137.0493  158.1727 C   0  0  0  0  0  0  0  0  0  0  0  0
  149.9218  136.5327  156.8982 N   0  0  0  0  0  0  0  0  0  0  0  0
  149.6094  135.1356  156.4591 C   0  0  1  0  0  0  0  0  0  0  0  0
  149.4898  134.3398  157.6014 O   0  0  0  0  0  0  0  0  0  0  0  0
  148.1122  134.2303  157.9421 C   0  0  2  0  0  0  0  0  0  0  0  0
  147.8762  133.0680  158.9126 C   0  0  0  0  0  0  0  0  0  0  0  0
  146.6368  133.2774  159.5688 O   0  0  0  0  0  0  0  0  0  0  0  0
  146.5981  133.9025  160.7601 C   0  0  0  0  0  0  0  0  0  0  0  0
  147.5903  134.3829  161.3118 O   0  0  0  0  0  0  0  0  0  0  0  0
  145.2260  133.9505  161.3431 C   0  0  0  0  0  0  0  0  0  0  0  0
  145.0040  134.6796  162.5348 C   0  0  0  0  0  0  0  0  0  0  0  0
  143.7191  134.7429  163.1081 C   0  0  0  0  0  0  0  0  0  0  0  0
  142.6400  134.0792  162.4959 C   0  0  0  0  0  0  0  0  0  0  0  0
  142.8473  133.3514  161.3097 C   0  0  0  0  0  0  0  0  0  0  0  0
  144.1318  133.2857  160.7355 C   0  0  0  0  0  0  0  0  0  0  0  0
  147.4792  134.0585  156.5642 C   0  0  2  0  0  0  0  0  0  0  0  0
  147.7403  132.8246  156.1223 F   0  0  0  0  0  0  0  0  0  0  0  0
  148.2379  135.1035  155.7555 C   0  0  2  0  0  0  0  0  0  0  0  0
  148.3089  134.7546  154.3878 O   0  0  0  0  0  0  0  0  0  0  0  0
  151.7394  142.5391  158.8435 C   0  0  0  0  0  0  0  0  0  0  0  0
  151.3569  143.6544  158.0649 C   0  0  0  0  0  0  0  0  0  0  0  0
  151.4800  144.9594  158.5805 C   0  0  0  0  0  0  0  0  0  0  0  0
  151.9786  145.1596  159.8815 C   0  0  0  0  0  0  0  0  0  0  0  0
  152.3500  144.0534  160.6687 C   0  0  0  0  0  0  0  0  0  0  0  0
  152.2280  142.7479  160.1541 C   0  0  0  0  0  0  0  0  0  0  0  0
  150.6809  141.9238  156.5642 H   0  0  0  0  0  0  0  0  0  0  0  0
  150.5324  138.8963  153.1434 H   0  0  0  0  0  0  0  0  0  0  0  0
  149.9031  136.4557  159.0652 H   0  0  0  0  0  0  0  0  0  0  0  0
  150.4572  134.8333  155.8430 H   0  0  0  0  0  0  0  0  0  0  0  0
  147.7624  135.1645  158.3858 H   0  0  0  0  0  0  0  0  0  0  0  0
  147.8339  132.1267  158.3631 H   0  0  0  0  0  0  0  0  0  0  0  0
  148.6890  132.9953  159.6364 H   0  0  0  0  0  0  0  0  0  0  0  0
  145.8170  135.1985  163.0223 H   0  0  0  0  0  0  0  0  0  0  0  0
  143.5621  135.3020  164.0187 H   0  0  0  0  0  0  0  0  0  0  0  0
  141.6545  134.1284  162.9354 H   0  0  0  0  0  0  0  0  0  0  0  0
  142.0196  132.8418  160.8389 H   0  0  0  0  0  0  0  0  0  0  0  0
  144.2553  132.7193  159.8240 H   0  0  0  0  0  0  0  0  0  0  0  0
  146.3983  134.2006  156.5560 H   0  0  0  0  0  0  0  0  0  0  0  0
  147.7460  136.0725  155.8574 H   0  0  0  0  0  0  0  0  0  0  0  0
  148.5262  135.5303  153.8930 H   0  0  0  0  0  0  0  0  0  0  0  0
  150.9716  143.5173  157.0647 H   0  0  0  0  0  0  0  0  0  0  0  0
  151.1905  145.8073  157.9772 H   0  0  0  0  0  0  0  0  0  0  0  0
  152.0722  146.1603  160.2764 H   0  0  0  0  0  0  0  0  0  0  0  0
  152.7264  144.2059  161.6695 H   0  0  0  0  0  0  0  0  0  0  0  0
  152.5092  141.9124  160.7786 H   0  0  0  0  0  0  0  0  0  0  0  0
  1  2  2  0  0  0  0
  2  3  1  0  0  0  0
  2 30  1  0  0  0  0
  3  4  1  0  0  0  0
  3 36  1  0  0  0  0
  4  9  1  0  0  0  0
  4  5  2  0  0  0  0
  5  6  1  0  0  0  0
  6  7  2  0  0  0  0
  6 37  1  0  0  0  0
  7  8  1  0  0  0  0
  8 12  1  0  0  0  0
  8  9  2  0  0  0  0
  9 10  1  0  0  0  0
 10 11  2  0  0  0  0
 11 12  1  0  0  0  0
 11 38  1  0  0  0  0
 12 13  1  0  0  0  0
 13 28  1  0  0  0  0
 13 14  1  0  0  0  0
 13 39  1  0  0  0  0
 14 15  1  0  0  0  0
 15 16  1  0  0  0  0
 15 26  1  0  0  0  0
 15 40  1  0  0  0  0
 16 17  1  0  0  0  0
 16 41  1  0  0  0  0
 16 42  1  0  0  0  0
 17 18  1  0  0  0  0
 18 19  2  0  0  0  0
 18 20  1  0  0  0  0
 20 25  1  0  0  0  0
 20 21  2  0  0  0  0
 21 22  1  0  0  0  0
 21 43  1  0  0  0  0
 22 23  2  0  0  0  0
 22 44  1  0  0  0  0
 23 24  1  0  0  0  0
 23 45  1  0  0  0  0
 24 25  2  0  0  0  0
 24 46  1  0  0  0  0
 25 47  1  0  0  0  0
 26 27  1  0  0  0  0
 26 28  1  0  0  0  0
 26 48  1  0  0  0  0
 28 29  1  0  0  0  0
 28 49  1  0  0  0  0
 29 50  1  0  0  0  0
 30 35  1  0  0  0  0
 30 31  2  0  0  0  0
 31 32  1  0  0  0  0
 31 51  1  0  0  0  0
 32 33  2  0  0  0  0
 32 52  1  0  0  0  0
 33 34  1  0  0  0  0
 33 53  1  0  0  0  0
 34 35  2  0  0  0  0
 34 54  1  0  0  0  0
 35 55  1  0  0  0  0
M  END
> <s_m_source_file>
AV-unprocessed.smi

> <i_m_source_file_index>
34

> <i_lp_mmshare_version>
43012

> <i_f3d_flags>
0

> <s_epik_input>
W2NIXTFbY0hdW2NIXVtjSF1bY0hdYzFDKD1PKVtOSF1jKG5bY0hdbjIpYyhjMjMpbltjSF1uM1tDQEBIXTRPW0NASF0oW0NAQEhdKEYpW0NASF00W09IXSlbQ0gyXU9DKD1PKWM1W2NIXVtjSF1bY0hdW2NIXVtjSF01

> <s_epik_cmdline>
J2VwaWtfcHl0aG9uJywgJy1waCcsICc3LjAnLCAnLXRuJywgJzgnLCAnLW1hJywgJzIwMCcsICctbWV0YWxfYmluZGluZycsICctaW1hZScsICc8aW5maWxlLm1hZT4nLCAnLW9tYWUnLCAnPG91dGZpbGUubWFlPic=

> <r_lp_tautomer_probability>
1

> <r_epik_Ionization_Penalty>
0.00257489

> <r_epik_Ionization_Penalty_Charging>
0

> <r_epik_Ionization_Penalty_Neutral>
0.00257489

> <r_epik_State_Penalty>
0.00519398

> <r_epik_Charging_Adjusted_Penalty>
0.00519398

> <i_epik_Tot_Q>
0

> <i_epik_Tot_abs_Q>
0

> <r_epik_Metal_State_Penalty>
0.335891

> <b_epik_Metal_Only>
0

> <s_epik_Chemistry_Notes>
This compound has an ester and may undergo hydrolysis at high or low pH. This compound contains an acetal/aminal-like group ( X-CH(R)-Y where X, Y are N, S, or O) that may be acid/base labile, releasing an aldehyde.

> <s_lp_Force_Field>
OPLS_2005

> <r_lp_Energy>
45.4918

> <b_lp_Chiralities_Consistent>
1

> <s_lp_Variant>
AV-unprocessed.smi:34-16

> <Gold.Version>
5.8.1

> <Gold.Id.Protein>
6NUR|6NUR_protein|mol2

> <Gold.PLP.Fitness>
57.3157

> <Gold.PLP.PLP>
-48.5344

> <Gold.PLP.part.hbond>
-3.0000

> <Gold.PLP.part.metal>
0.0000

> <Gold.PLP.part.buried>
-9.9756

> <Gold.PLP.part.nonpolar>
-37.2190

> <Gold.PLP.part.repulsive>
0.3094

> <Gold.PLP.ligand.clash>
0.0000

> <Gold.PLP.ligand.torsion>
0.7796

> <Gold.PLP.Chemscore.Hbond>
2.4195

> <Gold.PLP.Chemscore.CHOScore>
1.0000

> <Gold.PLP.Chemscore.Metal>
0.0000

> <Gold.Chemscore.Hbonds>
donor molecule, donor type, donor heavy atom, donor atom, acceptor molecule, acceptor atom, score
      L1  H    29    50       P1  7948  0.53
      P1  H  6896  6907       L1    14  0.75
      P1  H  7989  7998       L1     5  0.85
      L1  C     6    37       P1  7957  1.00

> <Gold.PLP.Chemscore.Internal.Correction>
0.0819

> <Gold.Rescore>
     Score         DG    S(hbond)    S(metal)    S(lipo)     H(rot)  DE(clash)    DE(int)     intcor
     14.87     -18.69       1.78        0.00     121.48       2.72       0.25       3.57       ----

> <Gold.Chemscore.Fitness>
14.8689

> <Gold.Chemscore.DG>
-18.6874

> <Gold.Chemscore.ZeroCoef>
-5.4800

> <Gold.Chemscore.Hbond>
1.7848

> <Gold.Chemscore.Metal>
0.0000

> <Gold.Chemscore.Lipo>
121.4813

> <Gold.Chemscore.Internal_Hbond>
0.0000

> <Gold.Chemscore.DEClash>
0.2457

> <Gold.Chemscore.DEInternal>
3.5728

> <Gold.Chemscore.Rot>
2.7215

> <Gold.Chemscore.Internal.Correction>
   9.000000E+99

> <Gold.Chemscore.Hbonds>
donor molecule, donor type, donor heavy atom, donor atom, acceptor molecule, acceptor atom, score
      L1  H    29    50       P1  7948  0.53
      P1  H  6896  6907       L1    14  0.56
      P1  H  7989  7998       L1     5  0.15

> <Gold.Chemscore.Hbond.Weighted>
-5.9611

> <Gold.Chemscore.Metal.Weighted>
-0.0000

> <Gold.Chemscore.Lipo.Weighted>
-14.2133

> <Gold.Chemscore.Internal_Hbond.Weighted>
0.0000

> <Gold.Chemscore.DEClash.Weighted>
0.2457

> <Gold.Chemscore.DEInternal.Weighted>
3.5728

> <Gold.Chemscore.Rot.Weighted>
6.9670

> <Gold.Chemscore.Internal.Correction.Weighted>
   9.000000E+99

> <Gold.Protein.RotatedTorsions>
[ 6907 6896 6895 6894 ] final -112.83 input  -60.11 | X-H torsion
[ 7974 7965 7964 7962 ] final   15.19 input  175.53 | X-H torsion
[ 8008 7997 7996 7995 ] final  153.54 input   59.86 | X-H torsion
[ 10167 10162 10161 10158 ] final   42.47 input  -65.29 | X-H torsion
[ 10718 10713 10712 10709 ] final   71.14 input   66.30 | X-H torsion
[ 10763 10752 10751 10750 ] final   71.84 input  -60.55 | X-H torsion
[ 11005 11000 10999 10996 ] final -141.66 input  -57.11 | X-H torsion

> <Gold.Protein.ActiveResidues>
 VAL166  LYS551  ARG553  GLY616  TRP617  ASP618  TYR619  PRO620  LYS621  CYS622 
 ASP623  PHE694  ASN695  SER759  ASP760  ASP761  ALA762  ILE779  LEU786  VAL792 
 PHE793  MET794  SER795  GLU796  ALA797  LYS798  CYS799  TRP800  GLU811  SER814 

> <Gold.Protein.RotatedAtoms>
  150.7786  133.9033  159.3347 H   0  0  0  0  0  0  0  0  0  0  0  0  # atno 6907 bound_to 6896
  151.6902  135.0946  160.0241 H   0  0  0  0  0  0  0  0  0  0  0  0  # atno 6908 bound_to 6896
  152.3830  133.6533  159.6211 H   0  0  0  0  0  0  0  0  0  0  0  0  # atno 6909 bound_to 6896
  146.2285  139.8930  142.8551 H   0  0  0  0  0  0  0  0  0  0  0  0  # atno 7974 bound_to 7965
  156.2576  140.1991  156.6506 H   0  0  0  0  0  0  0  0  0  0  0  0  # atno 8008 bound_to 7997
  154.6539  140.0568  157.0012 H   0  0  0  0  0  0  0  0  0  0  0  0  # atno 8009 bound_to 7997
  155.1376  140.3239  155.4462 H   0  0  0  0  0  0  0  0  0  0  0  0  # atno 8010 bound_to 7997
  140.3540  144.2313  150.6143 H   0  0  0  0  0  0  0  0  0  0  0  0  # atno 10167 bound_to 10162
  157.6436  130.9513  150.0748 H   0  0  0  0  0  0  0  0  0  0  0  0  # atno 10718 bound_to 10713
  153.0423  135.5122  154.7653 H   0  0  0  0  0  0  0  0  0  0  0  0  # atno 10763 bound_to 10752
  154.6581  135.2934  154.9903 H   0  0  0  0  0  0  0  0  0  0  0  0  # atno 10764 bound_to 10752
  154.0764  135.6670  153.4884 H   0  0  0  0  0  0  0  0  0  0  0  0  # atno 10765 bound_to 10752
  140.8302  134.2526  157.4860 H   0  0  0  0  0  0  0  0  0  0  0  0  # atno 11005 bound_to 11000
  145.2399  141.0005  143.3942 LP  0  0  0  0  0  0  0  0  0  0  0  0  # atno 17320 bound_to 7965
  144.9461  139.4135  143.6425 LP  0  0  0  0  0  0  0  0  0  0  0  0  # atno 17321 bound_to 7965
  140.5191  143.2270  151.8416 LP  0  0  0  0  0  0  0  0  0  0  0  0  # atno 17342 bound_to 10162
  139.4822  144.4858  151.9248 LP  0  0  0  0  0  0  0  0  0  0  0  0  # atno 17343 bound_to 10162
  156.1742  130.3647  149.9124 LP  0  0  0  0  0  0  0  0  0  0  0  0  # atno 17370 bound_to 10713
  156.7092  130.8963  151.3607 LP  0  0  0  0  0  0  0  0  0  0  0  0  # atno 17371 bound_to 10713
  139.8705  134.9582  156.4293 LP  0  0  0  0  0  0  0  0  0  0  0  0  # atno 17394 bound_to 11000
  140.9006  133.7782  155.9675 LP  0  0  0  0  0  0  0  0  0  0  0  0  # atno 17395 bound_to 11000

$$$$
