AV-unprocessed.smi:528|AV-procd|sdf|2834|dock3
  -GOLD-   2262023323D 1   1.00000     0.00000
 Structure written by MMmdl.
 45 47  0  0  0  0  0  0  0  0  1 V2000
  148.5409  141.5906  155.5560 C   0  0  0  0  0  0  0  0  0  0  0  0
  150.0340  141.3046  155.3256 C   0  0  1  0  0  0  0  0  0  0  0  0
  150.8095  142.2931  156.0730 N   0  0  0  0  0  0  0  0  0  0  0  0
  150.7292  142.5252  157.3928 C   0  0  0  0  0  0  0  0  0  0  0  0
  149.9995  141.8876  158.1531 O   0  0  0  0  0  0  0  0  0  0  0  0
  151.6190  143.6524  157.9332 C   0  0  0  0  0  0  0  0  0  0  0  0
  152.1650  143.3536  159.2675 N   0  0  0  0  0  0  0  0  0  0  0  0
  153.0156  142.2363  159.3812 C   0  0  0  0  0  0  0  0  0  0  0  0
  153.5636  141.8484  160.5488 C   0  0  0  0  0  0  0  0  0  0  0  0
  154.5208  140.6694  160.6314 C   0  0  0  0  0  0  0  0  0  0  0  0
  153.9312  139.5440  160.2273 F   0  0  0  0  0  0  0  0  0  0  0  0
  155.5769  140.8881  159.8497 F   0  0  0  0  0  0  0  0  0  0  0  0
  154.9576  140.4891  161.8784 F   0  0  0  0  0  0  0  0  0  0  0  0
  153.2619  142.6667  161.7068 C   0  0  0  0  0  0  0  0  0  0  0  0
  152.4561  143.7425  161.6142 C   0  0  0  0  0  0  0  0  0  0  0  0
  151.8490  144.1386  160.3415 C   0  0  0  0  0  0  0  0  0  0  0  0
  151.1045  145.1150  160.2462 O   0  0  0  0  0  0  0  0  0  0  0  0
  150.4315  139.8700  155.7579 C   0  0  1  0  0  0  0  0  0  0  0  0
  150.0961  138.7928  154.6968 C   0  0  0  0  0  0  0  0  0  0  0  0
  151.4370  138.0671  154.4888 C   0  0  2  0  0  0  0  0  0  0  0  0
  151.7809  137.2498  155.7468 C   0  0  0  0  0  0  0  0  0  0  0  0
  152.1629  138.3414  156.7630 C   0  0  0  0  0  0  0  0  0  0  0  0
  151.9528  139.6408  155.9623 C   0  0  1  0  0  0  0  0  0  0  0  0
  152.4266  139.2213  154.5752 C   0  0  0  0  0  0  0  0  0  0  0  0
  147.9081  140.9161  154.9797 H   0  0  0  0  0  0  0  0  0  0  0  0
  148.2872  142.6073  155.2544 H   0  0  0  0  0  0  0  0  0  0  0  0
  148.2726  141.4800  156.6072 H   0  0  0  0  0  0  0  0  0  0  0  0
  150.2263  141.4132  154.2571 H   0  0  0  0  0  0  0  0  0  0  0  0
  151.4411  142.8683  155.5346 H   0  0  0  0  0  0  0  0  0  0  0  0
  152.4205  143.8254  157.2140 H   0  0  0  0  0  0  0  0  0  0  0  0
  151.0560  144.5875  157.9646 H   0  0  0  0  0  0  0  0  0  0  0  0
  153.1924  141.7093  158.4549 H   0  0  0  0  0  0  0  0  0  0  0  0
  153.6844  142.4098  162.6670 H   0  0  0  0  0  0  0  0  0  0  0  0
  152.2502  144.3271  162.4989 H   0  0  0  0  0  0  0  0  0  0  0  0
  149.9086  139.6443  156.6888 H   0  0  0  0  0  0  0  0  0  0  0  0
  149.3050  138.1184  155.0264 H   0  0  0  0  0  0  0  0  0  0  0  0
  149.7744  139.2423  153.7567 H   0  0  0  0  0  0  0  0  0  0  0  0
  151.4820  137.4890  153.5654 H   0  0  0  0  0  0  0  0  0  0  0  0
  150.9417  136.6409  156.0850 H   0  0  0  0  0  0  0  0  0  0  0  0
  152.6258  136.5853  155.5621 H   0  0  0  0  0  0  0  0  0  0  0  0
  151.5546  138.3033  157.6672 H   0  0  0  0  0  0  0  0  0  0  0  0
  153.2071  138.2372  157.0610 H   0  0  0  0  0  0  0  0  0  0  0  0
  152.4930  140.4840  156.3915 H   0  0  0  0  0  0  0  0  0  0  0  0
  153.4695  138.9003  154.5527 H   0  0  0  0  0  0  0  0  0  0  0  0
  152.2725  139.9855  153.8119 H   0  0  0  0  0  0  0  0  0  0  0  0
  1  2  1  0  0  0  0
  1 25  1  0  0  0  0
  1 26  1  0  0  0  0
  1 27  1  0  0  0  0
  2  3  1  0  0  0  0
  2 18  1  0  0  0  0
  2 28  1  0  0  0  0
  3  4  1  0  0  0  0
  3 29  1  0  0  0  0
  4  5  2  0  0  0  0
  4  6  1  0  0  0  0
  6  7  1  0  0  0  0
  6 30  1  0  0  0  0
  6 31  1  0  0  0  0
  7 16  1  0  0  0  0
  7  8  1  0  0  0  0
  8  9  2  0  0  0  0
  8 32  1  0  0  0  0
  9 10  1  0  0  0  0
  9 14  1  0  0  0  0
 10 11  1  0  0  0  0
 10 12  1  0  0  0  0
 10 13  1  0  0  0  0
 14 15  2  0  0  0  0
 14 33  1  0  0  0  0
 15 16  1  0  0  0  0
 15 34  1  0  0  0  0
 16 17  2  0  0  0  0
 18 23  1  0  0  0  0
 18 19  1  0  0  0  0
 18 35  1  0  0  0  0
 19 20  1  0  0  0  0
 19 36  1  0  0  0  0
 19 37  1  0  0  0  0
 20 24  1  0  0  0  0
 20 21  1  0  0  0  0
 20 38  1  0  0  0  0
 21 22  1  0  0  0  0
 21 39  1  0  0  0  0
 21 40  1  0  0  0  0
 22 23  1  0  0  0  0
 22 41  1  0  0  0  0
 22 42  1  0  0  0  0
 23 24  1  0  0  0  0
 23 43  1  0  0  0  0
 24 44  1  0  0  0  0
 24 45  1  0  0  0  0
M  END
> <s_m_source_file>
AV-unprocessed.smi

> <i_m_source_file_index>
528

> <i_lp_mmshare_version>
43012

> <i_f3d_flags>
0

> <s_epik_input>
W0NIMl0xW0NIMl1bQ0BASF0oW0NIMl0yKVtDQEBIXShbQ0gyXVtDQEhdMTIpW0NASF0oW0NIM10pW05IXUMoPU8pW0NIMl1uM1tjSF1jKEMoRikoRilGKVtjSF1bY0hdYzM9Tw==

> <s_epik_cmdline>
J2VwaWtfcHl0aG9uJywgJy1waCcsICc3LjAnLCAnLXRuJywgJzgnLCAnLW1hJywgJzIwMCcsICctbWV0YWxfYmluZGluZycsICctaW1hZScsICc8aW5maWxlLm1hZT4nLCAnLW9tYWUnLCAnPG91dGZpbGUubWFlPic=

> <r_lp_tautomer_probability>
1

> <r_epik_Ionization_Penalty>
4.09479e-08

> <r_epik_Ionization_Penalty_Charging>
1.9321e-08

> <r_epik_Ionization_Penalty_Neutral>
2.16269e-08

> <r_epik_State_Penalty>
-0

> <r_epik_Charging_Adjusted_Penalty>
1.9321e-08

> <i_epik_Tot_Q>
0

> <i_epik_Tot_abs_Q>
0

> <r_epik_Metal_State_Penalty>
-0

> <b_epik_Metal_Only>
0

> <s_lp_Force_Field>
OPLS_2005

> <r_lp_Energy>
62.5946

> <b_lp_Chiralities_Consistent>
1

> <s_lp_Variant>
AV-unprocessed.smi:528-4

> <Gold.Version>
5.8.1

> <Gold.Id.Protein>
6NUR|6NUR_protein|mol2

> <Gold.PLP.Fitness>
54.7901

> <Gold.PLP.PLP>
-56.2281

> <Gold.PLP.part.hbond>
-0.6527

> <Gold.PLP.part.metal>
0.0000

> <Gold.PLP.part.buried>
-2.9356

> <Gold.PLP.part.nonpolar>
-52.7403

> <Gold.PLP.part.repulsive>
0.3965

> <Gold.PLP.ligand.clash>
0.0000

> <Gold.PLP.ligand.torsion>
0.7498

> <Gold.PLP.Chemscore.Hbond>
0.0000

> <Gold.PLP.Chemscore.CHOScore>
0.0000

> <Gold.PLP.Chemscore.Metal>
0.0000

> <Gold.PLP.Chemscore.Internal.Correction>
0.0615

> <Gold.Rescore>
     Score         DG    S(hbond)    S(metal)    S(lipo)     H(rot)  DE(clash)    DE(int)     intcor
     13.50     -15.76       0.00        0.00     125.33       1.71       0.24       2.02       ----

> <Gold.Chemscore.Fitness>
13.4995

> <Gold.Chemscore.DG>
-15.7591

> <Gold.Chemscore.ZeroCoef>
-5.4800

> <Gold.Chemscore.Hbond>
0.0000

> <Gold.Chemscore.Metal>
0.0000

> <Gold.Chemscore.Lipo>
125.3257

> <Gold.Chemscore.Internal_Hbond>
0.0000

> <Gold.Chemscore.DEClash>
0.2415

> <Gold.Chemscore.DEInternal>
2.0181

> <Gold.Chemscore.Rot>
1.7125

> <Gold.Chemscore.Internal.Correction>
   9.000000E+99

> <Gold.Chemscore.Hbond.Weighted>
-0.0000

> <Gold.Chemscore.Metal.Weighted>
-0.0000

> <Gold.Chemscore.Lipo.Weighted>
-14.6631

> <Gold.Chemscore.Internal_Hbond.Weighted>
0.0000

> <Gold.Chemscore.DEClash.Weighted>
0.2415

> <Gold.Chemscore.DEInternal.Weighted>
2.0181

> <Gold.Chemscore.Rot.Weighted>
4.3840

> <Gold.Chemscore.Internal.Correction.Weighted>
   9.000000E+99

> <Gold.Protein.RotatedTorsions>
[ 6907 6896 6895 6894 ] final -121.04 input  -60.11 | X-H torsion
[ 7974 7965 7964 7962 ] final -124.80 input  175.53 | X-H torsion
[ 8008 7997 7996 7995 ] final  -79.05 input   59.86 | X-H torsion
[ 10167 10162 10161 10158 ] final   64.19 input  -65.29 | X-H torsion
[ 10718 10713 10712 10709 ] final  -76.40 input   66.30 | X-H torsion
[ 10763 10752 10751 10750 ] final  117.37 input  -60.55 | X-H torsion
[ 11005 11000 10999 10996 ] final  -43.09 input  -57.11 | X-H torsion

> <Gold.Protein.ActiveResidues>
 VAL166  LYS551  ARG553  GLY616  TRP617  ASP618  TYR619  PRO620  LYS621  CYS622 
 ASP623  PHE694  ASN695  SER759  ASP760  ASP761  ALA762  ILE779  LEU786  VAL792 
 PHE793  MET794  SER795  GLU796  ALA797  LYS798  CYS799  TRP800  GLU811  SER814 

> <Gold.Protein.RotatedAtoms>
  150.8447  133.7880  159.3047 H   0  0  0  0  0  0  0  0  0  0  0  0  # atno 6907 bound_to 6896
  151.5571  135.1065  159.9973 H   0  0  0  0  0  0  0  0  0  0  0  0  # atno 6908 bound_to 6896
  152.4503  133.7574  159.6784 H   0  0  0  0  0  0  0  0  0  0  0  0  # atno 6909 bound_to 6896
  145.0042  140.7848  143.4477 H   0  0  0  0  0  0  0  0  0  0  0  0  # atno 7974 bound_to 7965
  154.5748  140.0684  156.9017 H   0  0  0  0  0  0  0  0  0  0  0  0  # atno 8008 bound_to 7997
  155.2569  140.3355  155.4258 H   0  0  0  0  0  0  0  0  0  0  0  0  # atno 8009 bound_to 7997
  156.2145  140.1773  156.7605 H   0  0  0  0  0  0  0  0  0  0  0  0  # atno 8010 bound_to 7997
  140.1249  144.4697  150.6899 H   0  0  0  0  0  0  0  0  0  0  0  0  # atno 10167 bound_to 10162
  156.0176  130.4465  150.3188 H   0  0  0  0  0  0  0  0  0  0  0  0  # atno 10718 bound_to 10713
  153.5514  135.3539  155.2761 H   0  0  0  0  0  0  0  0  0  0  0  0  # atno 10763 bound_to 10752
  154.8706  135.4115  154.2932 H   0  0  0  0  0  0  0  0  0  0  0  0  # atno 10764 bound_to 10752
  153.3659  135.7062  153.6744 H   0  0  0  0  0  0  0  0  0  0  0  0  # atno 10765 bound_to 10752
  141.0360  133.6799  156.2685 H   0  0  0  0  0  0  0  0  0  0  0  0  # atno 11005 bound_to 11000
  145.2111  139.2204  143.5142 LP  0  0  0  0  0  0  0  0  0  0  0  0  # atno 17320 bound_to 7965
  146.3458  140.1949  142.8589 LP  0  0  0  0  0  0  0  0  0  0  0  0  # atno 17321 bound_to 7965
  140.6851  143.2346  151.5282 LP  0  0  0  0  0  0  0  0  0  0  0  0  # atno 17342 bound_to 10162
  139.5549  144.2300  152.1596 LP  0  0  0  0  0  0  0  0  0  0  0  0  # atno 17343 bound_to 10162
  157.1289  131.0266  151.2978 LP  0  0  0  0  0  0  0  0  0  0  0  0  # atno 17370 bound_to 10713
  157.4567  130.7629  149.7199 LP  0  0  0  0  0  0  0  0  0  0  0  0  # atno 17371 bound_to 10713
  140.6321  134.5253  157.5560 LP  0  0  0  0  0  0  0  0  0  0  0  0  # atno 17394 bound_to 11000
  139.9241  134.8090  156.1121 LP  0  0  0  0  0  0  0  0  0  0  0  0  # atno 17395 bound_to 11000

$$$$
