AV-unprocessed.smi:227|AV-procd|sdf|1730|dock2
  -GOLD-   2262020223D 1   1.00000     0.00000
 Structure written by MMmdl.
 54 58  0  0  0  0  0  0  0  0  1 V2000
  148.3071  140.5992  153.5102 O   0  0  0  0  0  0  0  0  0  0  0  0
  149.3649  140.6556  154.4453 C   0  0  0  0  0  0  0  0  0  0  0  0
  148.9767  139.9761  155.7817 C   0  0  1  0  0  0  0  0  0  0  0  0
  148.3993  138.5523  155.5839 C   0  0  0  0  0  0  0  0  0  0  0  0
  147.6840  138.0605  156.7487 N   0  0  0  0  0  0  0  0  0  0  0  0
  146.3197  137.9723  156.8940 C   0  0  0  0  0  0  0  0  0  0  0  0
  145.9150  137.4903  158.0366 N   0  0  0  0  0  0  0  0  0  0  0  0
  147.0868  137.2232  158.7369 C   0  0  0  0  0  0  0  0  0  0  0  0
  147.3855  136.6881  160.0255 C   0  0  0  0  0  0  0  0  0  0  0  0
  146.4503  136.2797  160.9282 N   0  0  0  0  0  0  0  0  0  0  0  0
  146.4897  134.9424  161.4979 C   0  0  1  0  0  0  0  0  0  0  0  0
  147.6675  134.9933  162.4909 C   0  0  0  0  0  0  0  0  0  0  0  0
  147.5648  136.4387  163.0033 C   0  0  0  0  0  0  0  0  0  0  0  0
  146.3383  136.9512  162.2175 C   0  0  2  0  0  0  0  0  0  0  0  0
  145.0633  136.3286  162.8234 C   0  0  1  0  0  0  0  0  0  0  0  0
  143.7815  137.0614  162.3885 C   0  0  0  0  0  0  0  0  0  0  0  0
  142.7789  136.9188  163.3724 O   0  0  0  0  0  0  0  0  0  0  0  0
  145.1679  134.8876  162.2822 C   0  0  0  0  0  0  0  0  0  0  0  0
  148.6977  136.6083  160.3735 N   0  0  0  0  0  0  0  0  0  0  0  0
  149.6531  136.9943  159.5242 C   0  0  0  0  0  0  0  0  0  0  0  0
  149.5221  137.4910  158.2942 N   0  0  0  0  0  0  0  0  0  0  0  0
  148.2098  137.5923  157.9401 C   0  0  0  0  0  0  0  0  0  0  0  0
  150.1420  139.9841  156.8030 C   0  0  2  0  0  0  0  0  0  0  0  0
  150.5764  141.3638  157.2654 C   0  0  0  0  0  0  0  0  0  0  0  0
  151.9593  141.0861  157.8429 C   0  0  0  0  0  0  0  0  0  0  0  0
  152.4998  140.0368  157.0487 O   0  0  0  0  0  0  0  0  0  0  0  0
  151.4703  139.4387  156.2665 C   0  0  0  0  0  0  0  0  0  0  0  0
  148.6623  140.3600  152.6678 H   0  0  0  0  0  0  0  0  0  0  0  0
  150.2415  140.1786  154.0073 H   0  0  0  0  0  0  0  0  0  0  0  0
  149.6403  141.6987  154.6003 H   0  0  0  0  0  0  0  0  0  0  0  0
  148.1751  140.5816  156.2078 H   0  0  0  0  0  0  0  0  0  0  0  0
  147.7277  138.5313  154.7247 H   0  0  0  0  0  0  0  0  0  0  0  0
  149.1963  137.8415  155.3662 H   0  0  0  0  0  0  0  0  0  0  0  0
  145.6308  138.2750  156.1188 H   0  0  0  0  0  0  0  0  0  0  0  0
  146.5623  134.1241  160.7843 H   0  0  0  0  0  0  0  0  0  0  0  0
  147.5786  134.2530  163.2866 H   0  0  0  0  0  0  0  0  0  0  0  0
  148.6181  134.8318  161.9808 H   0  0  0  0  0  0  0  0  0  0  0  0
  147.4324  136.4986  164.0839 H   0  0  0  0  0  0  0  0  0  0  0  0
  148.4622  137.0019  162.7440 H   0  0  0  0  0  0  0  0  0  0  0  0
  146.2880  138.0398  162.1691 H   0  0  0  0  0  0  0  0  0  0  0  0
  145.1205  136.3416  163.9130 H   0  0  0  0  0  0  0  0  0  0  0  0
  143.9821  138.1248  162.2546 H   0  0  0  0  0  0  0  0  0  0  0  0
  143.4125  136.6810  161.4353 H   0  0  0  0  0  0  0  0  0  0  0  0
  142.1905  136.2299  163.1034 H   0  0  0  0  0  0  0  0  0  0  0  0
  144.3399  134.6518  161.6122 H   0  0  0  0  0  0  0  0  0  0  0  0
  145.1796  134.1387  163.0748 H   0  0  0  0  0  0  0  0  0  0  0  0
  150.6670  136.8907  159.8818 H   0  0  0  0  0  0  0  0  0  0  0  0
  149.8596  139.4041  157.6832 H   0  0  0  0  0  0  0  0  0  0  0  0
  150.6546  142.0455  156.4171 H   0  0  0  0  0  0  0  0  0  0  0  0
  149.9022  141.8059  157.9996 H   0  0  0  0  0  0  0  0  0  0  0  0
  152.6017  141.9669  157.8340 H   0  0  0  0  0  0  0  0  0  0  0  0
  151.8774  140.7358  158.8727 H   0  0  0  0  0  0  0  0  0  0  0  0
  151.5236  138.3509  156.3183 H   0  0  0  0  0  0  0  0  0  0  0  0
  151.6196  139.7336  155.2271 H   0  0  0  0  0  0  0  0  0  0  0  0
  1  2  1  0  0  0  0
  1 28  1  0  0  0  0
  2  3  1  0  0  0  0
  2 29  1  0  0  0  0
  2 30  1  0  0  0  0
  3  4  1  0  0  0  0
  3 23  1  0  0  0  0
  3 31  1  0  0  0  0
  4  5  1  0  0  0  0
  4 32  1  0  0  0  0
  4 33  1  0  0  0  0
  5 22  1  0  0  0  0
  5  6  1  0  0  0  0
  6  7  2  0  0  0  0
  6 34  1  0  0  0  0
  7  8  1  0  0  0  0
  8 22  2  0  0  0  0
  8  9  1  0  0  0  0
  9 10  1  0  0  0  0
  9 19  2  0  0  0  0
 10 14  1  0  0  0  0
 10 11  1  0  0  0  0
 11 18  1  0  0  0  0
 11 12  1  0  0  0  0
 11 35  1  0  0  0  0
 12 13  1  0  0  0  0
 12 36  1  0  0  0  0
 12 37  1  0  0  0  0
 13 14  1  0  0  0  0
 13 38  1  0  0  0  0
 13 39  1  0  0  0  0
 14 15  1  0  0  0  0
 14 40  1  0  0  0  0
 15 16  1  0  0  0  0
 15 18  1  0  0  0  0
 15 41  1  0  0  0  0
 16 17  1  0  0  0  0
 16 42  1  0  0  0  0
 16 43  1  0  0  0  0
 17 44  1  0  0  0  0
 18 45  1  0  0  0  0
 18 46  1  0  0  0  0
 19 20  1  0  0  0  0
 20 21  2  0  0  0  0
 20 47  1  0  0  0  0
 21 22  1  0  0  0  0
 23 27  1  0  0  0  0
 23 24  1  0  0  0  0
 23 48  1  0  0  0  0
 24 25  1  0  0  0  0
 24 49  1  0  0  0  0
 24 50  1  0  0  0  0
 25 26  1  0  0  0  0
 25 51  1  0  0  0  0
 25 52  1  0  0  0  0
 26 27  1  0  0  0  0
 27 53  1  0  0  0  0
 27 54  1  0  0  0  0
M  END
> <s_m_source_file>
AV-unprocessed.smi

> <i_m_source_file_index>
227

> <i_lp_mmshare_version>
43012

> <i_f3d_flags>
0

> <s_epik_input>
W0NIMl0xT1tDSDJdW0NIMl1bQ0BIXTFbQ0BIXShbQ0gyXVtPSF0pW0NIMl1uKFtjSF1uMiljKGMyMyluW2NIXW5jM04oW0NASF00NSlbQ0BASF0oW0NIMl1bQ0gyXTQpW0NASF0oW0NIMl01KVtDSDJdW09IXQ==

> <s_epik_cmdline>
J2VwaWtfcHl0aG9uJywgJy1waCcsICc3LjAnLCAnLXRuJywgJzgnLCAnLW1hJywgJzIwMCcsICctbWV0YWxfYmluZGluZycsICctaW1hZScsICc8aW5maWxlLm1hZT4nLCAnLW9tYWUnLCAnPG91dGZpbGUubWFlPic=

> <r_lp_tautomer_probability>
1

> <r_epik_Ionization_Penalty>
0.0055791

> <r_epik_Ionization_Penalty_Charging>
0

> <r_epik_Ionization_Penalty_Neutral>
0.0055791

> <r_epik_State_Penalty>
0.00401299

> <r_epik_Charging_Adjusted_Penalty>
0.00401299

> <i_epik_Tot_Q>
0

> <i_epik_Tot_abs_Q>
0

> <r_epik_Metal_State_Penalty>
-0

> <b_epik_Metal_Only>
0

> <s_lp_Force_Field>
OPLS_2005

> <r_lp_Energy>
89.0098

> <b_lp_Chiralities_Consistent>
1

> <s_lp_Variant>
AV-unprocessed.smi:227-4

> <Gold.Version>
5.8.1

> <Gold.Id.Protein>
6NUR|6NUR_protein|mol2

> <Gold.PLP.Fitness>
42.9992

> <Gold.PLP.PLP>
-37.3205

> <Gold.PLP.part.hbond>
-5.1331

> <Gold.PLP.part.metal>
0.0000

> <Gold.PLP.part.buried>
-5.7308

> <Gold.PLP.part.nonpolar>
-26.6634

> <Gold.PLP.part.repulsive>
0.0000

> <Gold.PLP.ligand.clash>
0.0000

> <Gold.PLP.ligand.torsion>
0.8462

> <Gold.PLP.Chemscore.Hbond>
2.3922

> <Gold.PLP.Chemscore.CHOScore>
0.0000

> <Gold.PLP.Chemscore.Metal>
0.0000

> <Gold.Chemscore.Hbonds>
donor molecule, donor type, donor heavy atom, donor atom, acceptor molecule, acceptor atom, score
      L1  H     1    28       P1  7957  1.00
      P1  H  6931  6943       L1    19  0.29
      P1  H  7997  8009       L1    26  1.00

> <Gold.PLP.Chemscore.Internal.Correction>
0.1946

> <Gold.Rescore>
     Score         DG    S(hbond)    S(metal)    S(lipo)     H(rot)  DE(clash)    DE(int)     intcor
      8.96     -12.49       1.90        0.00      84.47       3.61       0.01       3.52       ----

> <Gold.Chemscore.Fitness>
8.9602

> <Gold.Chemscore.DG>
-12.4855

> <Gold.Chemscore.ZeroCoef>
-5.4800

> <Gold.Chemscore.Hbond>
1.9031

> <Gold.Chemscore.Metal>
0.0000

> <Gold.Chemscore.Lipo>
84.4731

> <Gold.Chemscore.Internal_Hbond>
0.0000

> <Gold.Chemscore.DEClash>
0.0102

> <Gold.Chemscore.DEInternal>
3.5151

> <Gold.Chemscore.Rot>
3.6071

> <Gold.Chemscore.Internal.Correction>
   9.000000E+99

> <Gold.Chemscore.Hbonds>
donor molecule, donor type, donor heavy atom, donor atom, acceptor molecule, acceptor atom, score
      L1  H     1    28       P1  7957  1.00
      P1  H  6931  6943       L1    19  0.03
      P1  H  7997  8009       L1    26  0.88

> <Gold.Chemscore.Hbond.Weighted>
-6.3564

> <Gold.Chemscore.Metal.Weighted>
-0.0000

> <Gold.Chemscore.Lipo.Weighted>
-9.8834

> <Gold.Chemscore.Internal_Hbond.Weighted>
0.0000

> <Gold.Chemscore.DEClash.Weighted>
0.0102

> <Gold.Chemscore.DEInternal.Weighted>
3.5151

> <Gold.Chemscore.Rot.Weighted>
9.2342

> <Gold.Chemscore.Internal.Correction.Weighted>
   9.000000E+99

> <Gold.Protein.RotatedTorsions>
[ 6907 6896 6895 6894 ] final  119.56 input  -60.11 | X-H torsion
[ 7974 7965 7964 7962 ] final -126.94 input  175.53 | X-H torsion
[ 8008 7997 7996 7995 ] final  170.65 input   59.86 | X-H torsion
[ 10167 10162 10161 10158 ] final  -96.94 input  -65.29 | X-H torsion
[ 10718 10713 10712 10709 ] final  -99.72 input   66.30 | X-H torsion
[ 10763 10752 10751 10750 ] final  -39.87 input  -60.55 | X-H torsion
[ 11005 11000 10999 10996 ] final -148.22 input  -57.11 | X-H torsion

> <Gold.Protein.ActiveResidues>
 VAL166  LYS551  ARG553  GLY616  TRP617  ASP618  TYR619  PRO620  LYS621  CYS622 
 ASP623  PHE694  ASN695  SER759  ASP760  ASP761  ALA762  ILE779  LEU786  VAL792 
 PHE793  MET794  SER795  GLU796  ALA797  LYS798  CYS799  TRP800  GLU811  SER814 

> <Gold.Protein.RotatedAtoms>
  152.4463  133.7542  159.6710 H   0  0  0  0  0  0  0  0  0  0  0  0  # atno 6907 bound_to 6896
  150.8364  133.7997  159.3084 H   0  0  0  0  0  0  0  0  0  0  0  0  # atno 6908 bound_to 6896
  151.5635  135.1067  160.0030 H   0  0  0  0  0  0  0  0  0  0  0  0  # atno 6909 bound_to 6896
  144.9821  140.7651  143.4605 H   0  0  0  0  0  0  0  0  0  0  0  0  # atno 7974 bound_to 7965
  156.1345  140.1532  156.9015 H   0  0  0  0  0  0  0  0  0  0  0  0  # atno 8008 bound_to 7997
  154.4936  140.0844  156.7687 H   0  0  0  0  0  0  0  0  0  0  0  0  # atno 8009 bound_to 7997
  155.4194  140.3422  155.4272 H   0  0  0  0  0  0  0  0  0  0  0  0  # atno 8010 bound_to 7997
  140.2886  143.3236  152.0369 H   0  0  0  0  0  0  0  0  0  0  0  0  # atno 10167 bound_to 10162
  156.0142  130.5295  150.6711 H   0  0  0  0  0  0  0  0  0  0  0  0  # atno 10718 bound_to 10713
  153.9366  135.6766  153.4745 H   0  0  0  0  0  0  0  0  0  0  0  0  # atno 10763 bound_to 10752
  153.0952  135.4854  154.8763 H   0  0  0  0  0  0  0  0  0  0  0  0  # atno 10764 bound_to 10752
  154.7399  135.3158  154.8703 H   0  0  0  0  0  0  0  0  0  0  0  0  # atno 10765 bound_to 10752
  140.7635  134.3271  157.5095 H   0  0  0  0  0  0  0  0  0  0  0  0  # atno 11005 bound_to 11000
  145.2405  139.2074  143.4995 LP  0  0  0  0  0  0  0  0  0  0  0  0  # atno 17320 bound_to 7965
  146.3411  140.2300  142.8593 LP  0  0  0  0  0  0  0  0  0  0  0  0  # atno 17321 bound_to 7965
  139.4944  144.6541  151.6612 LP  0  0  0  0  0  0  0  0  0  0  0  0  # atno 17342 bound_to 10162
  140.5751  144.0042  150.6237 LP  0  0  0  0  0  0  0  0  0  0  0  0  # atno 17343 bound_to 10162
  157.4434  131.0864  151.0921 LP  0  0  0  0  0  0  0  0  0  0  0  0  # atno 17370 bound_to 10713
  157.1458  130.6163  149.5568 LP  0  0  0  0  0  0  0  0  0  0  0  0  # atno 17371 bound_to 10713
  139.8767  134.9217  156.3281 LP  0  0  0  0  0  0  0  0  0  0  0  0  # atno 17394 bound_to 11000
  140.9641  133.7370  156.0442 LP  0  0  0  0  0  0  0  0  0  0  0  0  # atno 17395 bound_to 11000

$$$$
