AV-unprocessed.smi:910|AV-procd|sdf|4130|dock5
  -GOLD-   22720 2 33D 1   1.00000     0.00000
 Structure written by MMmdl.
 47 48  0  0  0  0  0  0  0  0  2 V2000
  146.8729  134.8944  162.2360 C   0  0  0  0  0  0  0  0  0  0  0  0
  147.6678  135.1086  160.9863 C   0  0  0  0  0  0  0  0  0  0  0  0
  148.2304  136.2717  160.5153 N   0  3  0  0  0  0  0  0  0  0  0  0
  148.8515  136.0305  159.3635 C   0  0  0  0  0  0  0  0  0  0  0  0
  149.5541  137.0059  158.6201 N   0  0  0  0  0  0  0  0  0  0  0  0
  150.7143  137.5699  158.9864 C   0  0  0  0  0  0  0  0  0  0  0  0
  151.4015  137.1949  159.9371 O   0  0  0  0  0  0  0  0  0  0  0  0
  151.0321  138.6095  158.2002 N   0  0  0  0  0  0  0  0  0  0  0  0
  152.1487  139.5200  158.4363 C   0  0  0  0  0  0  0  0  0  0  0  0
  151.8166  140.9400  157.9515 C   0  0  0  0  0  0  0  0  0  0  0  0
  151.7468  141.8036  159.0754 O   0  0  0  0  0  0  0  0  0  0  0  0
  152.8707  142.6548  159.2568 C   0  0  2  0  0  0  0  0  0  0  0  0
  153.7758  141.9978  160.3150 C   0  0  0  0  0  0  0  0  0  0  0  0
  153.0978  141.9423  161.6950 C   0  0  0  0  0  0  0  0  0  0  0  0
  152.6433  143.3370  162.1497 C   0  0  0  0  0  0  0  0  0  0  0  0
  151.7308  143.9959  161.1035 C   0  0  0  0  0  0  0  0  0  0  0  0
  152.4085  144.0589  159.7196 C   0  0  2  0  0  0  0  0  0  0  0  0
  151.5191  144.7685  158.6874 C   0  0  0  0  0  0  0  0  0  0  0  0
  148.7373  134.7185  159.0241 O   0  0  0  0  0  0  0  0  0  0  0  0
  147.9989  134.1571  160.0452 C   0  0  0  0  0  0  0  0  0  0  0  0
  147.7103  132.6977  159.9448 C   0  0  0  0  0  0  0  0  0  0  0  0
  145.9080  134.4373  162.0156 H   0  0  0  0  0  0  0  0  0  0  0  0
  146.6810  135.8358  162.7512 H   0  0  0  0  0  0  0  0  0  0  0  0
  147.3998  134.2389  162.9296 H   0  0  0  0  0  0  0  0  0  0  0  0
  148.1595  137.1560  161.0023 H   0  0  0  0  0  0  0  0  0  0  0  0
  150.4186  138.8367  157.4312 H   0  0  0  0  0  0  0  0  0  0  0  0
  152.4315  139.5281  159.4904 H   0  0  0  0  0  0  0  0  0  0  0  0
  153.0108  139.1407  157.8877 H   0  0  0  0  0  0  0  0  0  0  0  0
  152.5905  141.2983  157.2714 H   0  0  0  0  0  0  0  0  0  0  0  0
  150.8760  140.9348  157.3993 H   0  0  0  0  0  0  0  0  0  0  0  0
  153.4422  142.7439  158.3306 H   0  0  0  0  0  0  0  0  0  0  0  0
  154.0515  140.9922  159.9964 H   0  0  0  0  0  0  0  0  0  0  0  0
  154.7071  142.5601  160.3943 H   0  0  0  0  0  0  0  0  0  0  0  0
  152.2371  141.2733  161.6555 H   0  0  0  0  0  0  0  0  0  0  0  0
  153.7835  141.5173  162.4285 H   0  0  0  0  0  0  0  0  0  0  0  0
  152.1221  143.2648  163.1046 H   0  0  0  0  0  0  0  0  0  0  0  0
  153.5166  143.9675  162.3212 H   0  0  0  0  0  0  0  0  0  0  0  0
  150.7950  143.4406  161.0355 H   0  0  0  0  0  0  0  0  0  0  0  0
  151.4663  145.0003  161.4352 H   0  0  0  0  0  0  0  0  0  0  0  0
  153.3061  144.6696  159.8275 H   0  0  0  0  0  0  0  0  0  0  0  0
  150.5696  144.2508  158.5532 H   0  0  0  0  0  0  0  0  0  0  0  0
  152.0118  144.8251  157.7165 H   0  0  0  0  0  0  0  0  0  0  0  0
  151.2948  145.7882  159.0018 H   0  0  0  0  0  0  0  0  0  0  0  0
  147.2980  132.3130  160.8777 H   0  0  0  0  0  0  0  0  0  0  0  0
  148.6194  132.1382  159.7233 H   0  0  0  0  0  0  0  0  0  0  0  0
  146.9897  132.5016  159.1508 H   0  0  0  0  0  0  0  0  0  0  0  0
  149.1000  137.3570  157.7901 H   0  0  0  0  0  0  0  0  0  0  0  0
  1 22  1  0  0  0  0
  1 23  1  0  0  0  0
  1 24  1  0  0  0  0
  1  2  1  0  0  0  0
  2  3  1  0  0  0  0
  2 20  2  0  0  0  0
  3 25  1  0  0  0  0
  3  4  2  0  0  0  0
  4 19  1  0  0  0  0
  4  5  1  0  0  0  0
  5  6  1  0  0  0  0
  5 47  1  0  0  0  0
  6  8  1  0  0  0  0
  6  7  2  0  0  0  0
  8  9  1  0  0  0  0
  8 26  1  0  0  0  0
  9 10  1  0  0  0  0
  9 27  1  0  0  0  0
  9 28  1  0  0  0  0
 10 11  1  0  0  0  0
 10 29  1  0  0  0  0
 10 30  1  0  0  0  0
 11 12  1  0  0  0  0
 12 17  1  0  0  0  0
 12 13  1  0  0  0  0
 12 31  1  0  0  0  0
 13 14  1  0  0  0  0
 13 32  1  0  0  0  0
 13 33  1  0  0  0  0
 14 15  1  0  0  0  0
 14 34  1  0  0  0  0
 14 35  1  0  0  0  0
 15 16  1  0  0  0  0
 15 36  1  0  0  0  0
 15 37  1  0  0  0  0
 16 17  1  0  0  0  0
 16 38  1  0  0  0  0
 16 39  1  0  0  0  0
 17 18  1  0  0  0  0
 17 40  1  0  0  0  0
 18 41  1  0  0  0  0
 18 42  1  0  0  0  0
 18 43  1  0  0  0  0
 19 20  1  0  0  0  0
 20 21  1  0  0  0  0
 21 44  1  0  0  0  0
 21 45  1  0  0  0  0
 21 46  1  0  0  0  0
M  CHG  1   3   1
M  END
> <s_m_source_file>
AV-unprocessed.smi

> <i_m_source_file_index>
910

> <i_lp_mmshare_version>
43012

> <i_f3d_flags>
0

> <s_epik_input>
W0NIM11jMW5jKG9jMVtDSDNdKVtOSF1DKD1PKVtOSF1bQ0gyXVtDSDJdT1tDQEBIXTJbQ0gyXVtDSDJdW0NIMl1bQ0gyXVtDQEhdMltDSDNd

> <s_epik_cmdline>
J2VwaWtfcHl0aG9uJywgJy1waCcsICc3LjAnLCAnLXRuJywgJzgnLCAnLW1hJywgJzIwMCcsICctbWV0YWxfYmluZGluZycsICctaW1hZScsICc8aW5maWxlLm1hZT4nLCAnLW9tYWUnLCAnPG91dGZpbGUubWFlPic=

> <r_epik_Ionization_Penalty>
7.32931

> <r_epik_Ionization_Penalty_Charging>
7.12214

> <r_epik_Ionization_Penalty_Neutral>
0.207166

> <r_epik_State_Penalty>
2.61278

> <r_epik_Charging_Adjusted_Penalty>
9.73492

> <i_epik_Tot_Q>
1

> <i_epik_Tot_abs_Q>
1

> <r_epik_Metal_State_Penalty>
2.64585

> <b_epik_Metal_Only>
0

> <s_lp_Force_Field>
OPLS_2005

> <r_lp_Energy>
15.8254

> <b_lp_Chiralities_Consistent>
1

> <s_lp_Variant>
AV-unprocessed.smi:910-15

> <Gold.Version>
5.8.1

> <Gold.Id.Protein>
6NUR|6NUR_protein|mol2

> <Gold.PLP.Fitness>
46.8176

> <Gold.PLP.PLP>
-45.1300

> <Gold.PLP.part.hbond>
-2.0000

> <Gold.PLP.part.metal>
0.0000

> <Gold.PLP.part.buried>
-6.1254

> <Gold.PLP.part.nonpolar>
-37.9848

> <Gold.PLP.part.repulsive>
0.4137

> <Gold.PLP.ligand.clash>
0.0000

> <Gold.PLP.ligand.torsion>
2.0716

> <Gold.PLP.Chemscore.Hbond>
1.9270

> <Gold.PLP.Chemscore.CHOScore>
0.0000

> <Gold.PLP.Chemscore.Metal>
0.0000

> <Gold.Chemscore.Hbonds>
donor molecule, donor type, donor heavy atom, donor atom, acceptor molecule, acceptor atom, score
      P1  H  6896  6907       L1     7  0.81
      P1  H  6896  6909       L1    19  0.83

> <Gold.PLP.Chemscore.Internal.Correction>
0.0498

> <Gold.Rescore>
     Score         DG    S(hbond)    S(metal)    S(lipo)     H(rot)  DE(clash)    DE(int)     intcor
     17.02     -19.03       1.09        0.00     121.66       1.69       0.00       2.01       ----

> <Gold.Chemscore.Fitness>
17.0167

> <Gold.Chemscore.DG>
-19.0296

> <Gold.Chemscore.ZeroCoef>
-5.4800

> <Gold.Chemscore.Hbond>
1.0942

> <Gold.Chemscore.Metal>
0.0000

> <Gold.Chemscore.Lipo>
121.6570

> <Gold.Chemscore.Internal_Hbond>
0.0000

> <Gold.Chemscore.DEClash>
0.0000

> <Gold.Chemscore.DEInternal>
2.0129

> <Gold.Chemscore.Rot>
1.6949

> <Gold.Chemscore.Internal.Correction>
   9.000000E+99

> <Gold.Chemscore.Hbonds>
donor molecule, donor type, donor heavy atom, donor atom, acceptor molecule, acceptor atom, score
      P1  H  6896  6907       L1     7  0.72
      P1  H  6896  6909       L1    19  0.11

> <Gold.Chemscore.Hbond.Weighted>
-3.6547

> <Gold.Chemscore.Metal.Weighted>
-0.0000

> <Gold.Chemscore.Lipo.Weighted>
-14.2339

> <Gold.Chemscore.Internal_Hbond.Weighted>
0.0000

> <Gold.Chemscore.DEClash.Weighted>
0.0000

> <Gold.Chemscore.DEInternal.Weighted>
2.0129

> <Gold.Chemscore.Rot.Weighted>
4.3390

> <Gold.Chemscore.Internal.Correction.Weighted>
   9.000000E+99

> <Gold.Protein.RotatedTorsions>
[ 6907 6896 6895 6894 ] final   15.54 input  -60.11 | X-H torsion
[ 7974 7965 7964 7962 ] final  -78.01 input  175.53 | X-H torsion
[ 8008 7997 7996 7995 ] final  -81.99 input   59.86 | X-H torsion
[ 10167 10162 10161 10158 ] final  -34.89 input  -65.29 | X-H torsion
[ 10718 10713 10712 10709 ] final -115.75 input   66.30 | X-H torsion
[ 10763 10752 10751 10750 ] final   46.91 input  -60.55 | X-H torsion
[ 11005 11000 10999 10996 ] final  122.19 input  -57.11 | X-H torsion

> <Gold.Protein.ActiveResidues>
 VAL166  LYS551  ARG553  GLY616  TRP617  ASP618  TYR619  PRO620  LYS621  CYS622 
 ASP623  PHE694  ASN695  SER759  ASP760  ASP761  ALA762  ILE779  LEU786  VAL792 
 PHE793  MET794  SER795  GLU796  ALA797  LYS798  CYS799  TRP800  GLU811  SER814 

> <Gold.Protein.RotatedAtoms>
  151.8196  135.0655  160.0423 H   0  0  0  0  0  0  0  0  0  0  0  0  # atno 6907 bound_to 6896
  152.2960  133.5604  159.5596 H   0  0  0  0  0  0  0  0  0  0  0  0  # atno 6908 bound_to 6896
  150.7251  134.0276  159.3764 H   0  0  0  0  0  0  0  0  0  0  0  0  # atno 6909 bound_to 6896
  145.5922  140.9427  143.1286 H   0  0  0  0  0  0  0  0  0  0  0  0  # atno 7974 bound_to 7965
  154.6040  140.0640  156.9406 H   0  0  0  0  0  0  0  0  0  0  0  0  # atno 8008 bound_to 7997
  155.2085  140.3320  155.4314 H   0  0  0  0  0  0  0  0  0  0  0  0  # atno 8009 bound_to 7997
  156.2336  140.1852  156.7162 H   0  0  0  0  0  0  0  0  0  0  0  0  # atno 8010 bound_to 7997
  140.7176  143.3516  151.2144 H   0  0  0  0  0  0  0  0  0  0  0  0  # atno 10167 bound_to 10162
  156.0917  130.6098  150.8947 H   0  0  0  0  0  0  0  0  0  0  0  0  # atno 10718 bound_to 10713
  152.9805  135.5993  154.3677 H   0  0  0  0  0  0  0  0  0  0  0  0  # atno 10763 bound_to 10752
  154.3353  135.2768  155.2453 H   0  0  0  0  0  0  0  0  0  0  0  0  # atno 10764 bound_to 10752
  154.4558  135.5978  153.6278 H   0  0  0  0  0  0  0  0  0  0  0  0  # atno 10765 bound_to 10752
  139.9258  134.9640  156.8072 H   0  0  0  0  0  0  0  0  0  0  0  0  # atno 11005 bound_to 11000
  144.7346  139.7623  143.7334 LP  0  0  0  0  0  0  0  0  0  0  0  0  # atno 17320 bound_to 7965
  146.1639  139.4763  142.9971 LP  0  0  0  0  0  0  0  0  0  0  0  0  # atno 17321 bound_to 7965
  139.7048  143.9474  152.2922 LP  0  0  0  0  0  0  0  0  0  0  0  0  # atno 17342 bound_to 10162
  139.9179  144.6817  150.8493 LP  0  0  0  0  0  0  0  0  0  0  0  0  # atno 17343 bound_to 10162
  157.6068  131.0938  150.8866 LP  0  0  0  0  0  0  0  0  0  0  0  0  # atno 17370 bound_to 10713
  156.9013  130.5247  149.5282 LP  0  0  0  0  0  0  0  0  0  0  0  0  # atno 17371 bound_to 10713
  140.6342  133.9878  155.7676 LP  0  0  0  0  0  0  0  0  0  0  0  0  # atno 17394 bound_to 11000
  141.0813  134.0057  157.3381 LP  0  0  0  0  0  0  0  0  0  0  0  0  # atno 17395 bound_to 11000

$$$$
