AV-unprocessed.smi:1389|AV-procd|sdf|5654|dock1
  -GOLD-   22720 5273D 1   1.00000     0.00000
 Structure written by MMmdl.
 52 54  0  0  0  0  0  0  0  0  4 V2000
  154.2619  140.4090  160.5898 C   0  0  0  0  0  0  0  0  0  0  0  0
  154.6429  138.9104  160.6214 C   0  0  2  0  0  0  0  0  0  0  0  0
  153.8643  138.0552  159.5667 C   0  0  0  0  0  0  0  0  0  0  0  0
  153.7693  138.7640  158.2891 N   0  5  0  0  0  0  0  0  0  0  0  0
  152.6471  138.8333  157.5243 C   0  0  0  0  0  0  0  0  0  0  0  0
  151.8635  137.9176  157.2470 O   0  0  0  0  0  0  0  0  0  0  0  0
  152.4269  140.0755  157.0617 N   0  0  0  0  0  0  0  0  0  0  0  0
  151.3146  140.5539  156.3156 C   0  0  0  0  0  0  0  0  0  0  0  0
  150.7228  139.7595  155.3014 C   0  0  0  0  0  0  0  0  0  0  0  0
  149.6701  140.2808  154.5261 C   0  0  0  0  0  0  0  0  0  0  0  0
  149.2378  141.5967  154.7644 C   0  0  0  0  0  0  0  0  0  0  0  0
  149.8322  142.3326  155.7264 N   0  3  0  0  0  0  0  0  0  0  0  0
  150.8394  141.8818  156.5161 C   0  0  0  0  0  0  0  0  0  0  0  0
  151.3595  142.7632  157.4914 N   0  0  0  0  0  0  0  0  0  0  0  0
  151.9843  144.0196  157.0956 C   0  0  0  0  0  0  0  0  0  0  0  0
  152.0925  144.8305  158.3843 C   0  0  0  0  0  0  0  0  0  0  0  0
  150.8292  144.4218  159.1361 C   0  0  0  0  0  0  0  0  0  0  0  0
  150.6295  142.9548  158.7412 C   0  0  0  0  0  0  0  0  0  0  0  0
  154.6032  138.4026  162.0353 N   0  3  0  0  0  0  0  0  0  0  0  0
  154.4193  136.9390  162.2446 C   0  0  0  0  0  0  0  0  0  0  0  0
  154.1380  136.6547  163.7290 C   0  0  0  0  0  0  0  0  0  0  0  0
  155.1989  137.1694  164.5256 O   0  0  0  0  0  0  0  0  0  0  0  0
  155.3300  138.5804  164.3976 C   0  0  0  0  0  0  0  0  0  0  0  0
  155.6545  138.9414  162.9389 C   0  0  0  0  0  0  0  0  0  0  0  0
  154.4737  140.8659  159.6212 H   0  0  0  0  0  0  0  0  0  0  0  0
  154.8380  140.9669  161.3285 H   0  0  0  0  0  0  0  0  0  0  0  0
  153.2064  140.5806  160.8065 H   0  0  0  0  0  0  0  0  0  0  0  0
  155.6985  138.8756  160.3468 H   0  0  0  0  0  0  0  0  0  0  0  0
  154.3598  137.0911  159.4487 H   0  0  0  0  0  0  0  0  0  0  0  0
  152.8772  137.8167  159.9632 H   0  0  0  0  0  0  0  0  0  0  0  0
  153.0599  140.7824  157.4070 H   0  0  0  0  0  0  0  0  0  0  0  0
  151.0787  138.7615  155.0940 H   0  0  0  0  0  0  0  0  0  0  0  0
  149.2115  139.6831  153.7520 H   0  0  0  0  0  0  0  0  0  0  0  0
  148.4440  142.0824  154.2159 H   0  0  0  0  0  0  0  0  0  0  0  0
  152.9605  143.8528  156.6389 H   0  0  0  0  0  0  0  0  0  0  0  0
  151.3542  144.5498  156.3802 H   0  0  0  0  0  0  0  0  0  0  0  0
  152.9755  144.5229  158.9464 H   0  0  0  0  0  0  0  0  0  0  0  0
  152.1578  145.9045  158.2077 H   0  0  0  0  0  0  0  0  0  0  0  0
  150.9095  144.5629  160.2143 H   0  0  0  0  0  0  0  0  0  0  0  0
  149.9851  145.0151  158.7819 H   0  0  0  0  0  0  0  0  0  0  0  0
  149.5706  142.7111  158.6428 H   0  0  0  0  0  0  0  0  0  0  0  0
  151.0583  142.3019  159.5025 H   0  0  0  0  0  0  0  0  0  0  0  0
  153.5920  136.5650  161.6423 H   0  0  0  0  0  0  0  0  0  0  0  0
  155.3129  136.3925  161.9398 H   0  0  0  0  0  0  0  0  0  0  0  0
  153.1885  137.0952  164.0373 H   0  0  0  0  0  0  0  0  0  0  0  0
  154.0598  135.5805  163.8971 H   0  0  0  0  0  0  0  0  0  0  0  0
  154.4140  139.0737  164.7267 H   0  0  0  0  0  0  0  0  0  0  0  0
  156.1292  138.9228  165.0552 H   0  0  0  0  0  0  0  0  0  0  0  0
  156.6308  138.5356  162.6718 H   0  0  0  0  0  0  0  0  0  0  0  0
  155.7185  140.0253  162.8370 H   0  0  0  0  0  0  0  0  0  0  0  0
  153.7521  138.8100  162.3948 H   0  0  0  0  0  0  0  0  0  0  0  0
  149.4981  143.2849  155.8740 H   0  0  0  0  0  0  0  0  0  0  0  0
  1  2  1  0  0  0  0
  1 25  1  0  0  0  0
  1 26  1  0  0  0  0
  1 27  1  0  0  0  0
  2  3  1  0  0  0  0
  2 19  1  0  0  0  0
  2 28  1  0  0  0  0
  3  4  1  0  0  0  0
  3 29  1  0  0  0  0
  3 30  1  0  0  0  0
  4  5  1  0  0  0  0
  5  6  2  0  0  0  0
  5  7  1  0  0  0  0
  7  8  1  0  0  0  0
  7 31  1  0  0  0  0
  8 13  1  0  0  0  0
  8  9  2  0  0  0  0
  9 10  1  0  0  0  0
  9 32  1  0  0  0  0
 10 11  2  0  0  0  0
 10 33  1  0  0  0  0
 11 12  1  0  0  0  0
 11 34  1  0  0  0  0
 12 13  2  0  0  0  0
 12 52  1  0  0  0  0
 13 14  1  0  0  0  0
 14 18  1  0  0  0  0
 14 15  1  0  0  0  0
 15 16  1  0  0  0  0
 15 35  1  0  0  0  0
 15 36  1  0  0  0  0
 16 17  1  0  0  0  0
 16 37  1  0  0  0  0
 16 38  1  0  0  0  0
 17 18  1  0  0  0  0
 17 39  1  0  0  0  0
 17 40  1  0  0  0  0
 18 41  1  0  0  0  0
 18 42  1  0  0  0  0
 19 24  1  0  0  0  0
 19 20  1  0  0  0  0
 19 51  1  0  0  0  0
 20 21  1  0  0  0  0
 20 43  1  0  0  0  0
 20 44  1  0  0  0  0
 21 22  1  0  0  0  0
 21 45  1  0  0  0  0
 21 46  1  0  0  0  0
 22 23  1  0  0  0  0
 23 24  1  0  0  0  0
 23 47  1  0  0  0  0
 23 48  1  0  0  0  0
 24 49  1  0  0  0  0
 24 50  1  0  0  0  0
M  CHG  1   4  -1
M  CHG  1  12   1
M  CHG  1  19   1
M  END
> <s_m_source_file>
AV-unprocessed.smi

> <i_m_source_file_index>
1389

> <i_lp_mmshare_version>
43012

> <i_f3d_flags>
0

> <s_epik_input>
W0NIMl0xW0NIMl1PW0NIMl1bQ0gyXU4xW0NASF0oW0NIM10pW0NIMl1bTkhdQyg9TylbTkhdYzJbY0hdW2NIXVtjSF1uYzJOM1tDSDJdW0NIMl1bQ0gyXVtDSDJdMw==

> <s_epik_cmdline>
J2VwaWtfcHl0aG9uJywgJy1waCcsICc3LjAnLCAnLXRuJywgJzgnLCAnLW1hJywgJzIwMCcsICctbWV0YWxfYmluZGluZycsICctaW1hZScsICc8aW5maWxlLm1hZT4nLCAnLW9tYWUnLCAnPG91dGZpbGUubWFlPic=

> <r_lp_tautomer_probability>
0.999994

> <r_epik_Ionization_Penalty>
8.58362

> <r_epik_Ionization_Penalty_Charging>
8.58361

> <r_epik_Ionization_Penalty_Neutral>
3.55275e-06

> <r_epik_State_Penalty>
8.57766

> <r_epik_Charging_Adjusted_Penalty>
17.1613

> <i_epik_Tot_Q>
1

> <i_epik_Tot_abs_Q>
3

> <r_epik_Metal_State_Penalty>
4.57399

> <b_epik_Metal_Only>
1

> <s_lp_Force_Field>
OPLS_2005

> <r_lp_Energy>
52.6414

> <b_lp_Chiralities_Consistent>
1

> <s_lp_Variant>
AV-unprocessed.smi:1389-9

> <Gold.Version>
5.8.1

> <Gold.Id.Protein>
6NUR|6NUR_protein|mol2

> <Gold.PLP.Fitness>
53.1755

> <Gold.PLP.PLP>
-43.4199

> <Gold.PLP.part.hbond>
-1.9797

> <Gold.PLP.part.metal>
0.0000

> <Gold.PLP.part.buried>
-5.2352

> <Gold.PLP.part.nonpolar>
-37.3390

> <Gold.PLP.part.repulsive>
1.1675

> <Gold.PLP.ligand.clash>
0.0000

> <Gold.PLP.ligand.torsion>
1.5526

> <Gold.PLP.Chemscore.Hbond>
4.0000

> <Gold.PLP.Chemscore.CHOScore>
0.0000

> <Gold.PLP.Chemscore.Metal>
0.0000

> <Gold.Chemscore.Hbonds>
donor molecule, donor type, donor heavy atom, donor atom, acceptor molecule, acceptor atom, score
      L1  H    12    52       P1  8028  2.00
      P1  H  7997  8009       L1     4  1.80

> <Gold.PLP.Chemscore.Internal.Correction>
0.8608

> <Gold.Rescore>
     Score         DG    S(hbond)    S(metal)    S(lipo)     H(rot)  DE(clash)    DE(int)     intcor
     17.31     -20.34       1.76        0.00     112.35       1.63       0.34       2.69       ----

> <Gold.Chemscore.Fitness>
17.3072

> <Gold.Chemscore.DG>
-20.3365

> <Gold.Chemscore.ZeroCoef>
-5.4800

> <Gold.Chemscore.Hbond>
1.7623

> <Gold.Chemscore.Metal>
0.0000

> <Gold.Chemscore.Lipo>
112.3498

> <Gold.Chemscore.Internal_Hbond>
0.0000

> <Gold.Chemscore.DEClash>
0.3393

> <Gold.Chemscore.DEInternal>
2.6900

> <Gold.Chemscore.Rot>
1.6307

> <Gold.Chemscore.Internal.Correction>
   9.000000E+99

> <Gold.Chemscore.Hbonds>
donor molecule, donor type, donor heavy atom, donor atom, acceptor molecule, acceptor atom, score
      L1  H    12    52       P1  8028  0.97
      P1  H  7997  8009       L1     4  0.18

> <Gold.Chemscore.Hbond.Weighted>
-5.8861

> <Gold.Chemscore.Metal.Weighted>
-0.0000

> <Gold.Chemscore.Lipo.Weighted>
-13.1449

> <Gold.Chemscore.Internal_Hbond.Weighted>
0.0000

> <Gold.Chemscore.DEClash.Weighted>
0.3393

> <Gold.Chemscore.DEInternal.Weighted>
2.6900

> <Gold.Chemscore.Rot.Weighted>
4.1746

> <Gold.Chemscore.Internal.Correction.Weighted>
   9.000000E+99

> <Gold.Protein.RotatedTorsions>
[ 6907 6896 6895 6894 ] final   89.02 input  -60.11 | X-H torsion
[ 7974 7965 7964 7962 ] final   47.77 input  175.53 | X-H torsion
[ 8008 7997 7996 7995 ] final  133.84 input   59.86 | X-H torsion
[ 10167 10162 10161 10158 ] final  -47.41 input  -65.29 | X-H torsion
[ 10718 10713 10712 10709 ] final  163.97 input   66.30 | X-H torsion
[ 10763 10752 10751 10750 ] final -153.98 input  -60.55 | X-H torsion
[ 11005 11000 10999 10996 ] final   97.46 input  -57.11 | X-H torsion

> <Gold.Protein.ActiveResidues>
 VAL166  LYS551  ARG553  GLY616  TRP617  ASP618  TYR619  PRO620  LYS621  CYS622 
 ASP623  PHE694  ASN695  SER759  ASP760  ASP761  ALA762  ILE779  LEU786  VAL792 
 PHE793  MET794  SER795  GLU796  ALA797  LYS798  CYS799  TRP800  GLU811  SER814 

> <Gold.Protein.RotatedAtoms>
  152.5432  134.2031  159.8719 H   0  0  0  0  0  0  0  0  0  0  0  0  # atno 6907 bound_to 6896
  151.2018  133.4599  159.2604 H   0  0  0  0  0  0  0  0  0  0  0  0  # atno 6908 bound_to 6896
  151.0981  134.9969  159.8491 H   0  0  0  0  0  0  0  0  0  0  0  0  # atno 6909 bound_to 6896
  146.0267  139.4714  142.9863 H   0  0  0  0  0  0  0  0  0  0  0  0  # atno 7974 bound_to 7965
  156.2995  140.2511  156.3320 H   0  0  0  0  0  0  0  0  0  0  0  0  # atno 8008 bound_to 7997
  154.9136  140.0402  157.1979 H   0  0  0  0  0  0  0  0  0  0  0  0  # atno 8009 bound_to 7997
  154.8381  140.2886  155.5682 H   0  0  0  0  0  0  0  0  0  0  0  0  # atno 8010 bound_to 7997
  140.6776  143.2786  151.3922 H   0  0  0  0  0  0  0  0  0  0  0  0  # atno 10167 bound_to 10162
  157.1009  131.0442  151.2498 H   0  0  0  0  0  0  0  0  0  0  0  0  # atno 10718 bound_to 10713
  154.7890  135.3200  154.7820 H   0  0  0  0  0  0  0  0  0  0  0  0  # atno 10763 bound_to 10752
  153.8513  135.6862  153.4796 H   0  0  0  0  0  0  0  0  0  0  0  0  # atno 10764 bound_to 10752
  153.1553  135.4682  154.9635 H   0  0  0  0  0  0  0  0  0  0  0  0  # atno 10765 bound_to 10752
  139.8776  134.9002  156.4310 H   0  0  0  0  0  0  0  0  0  0  0  0  # atno 11005 bound_to 11000
  145.7107  141.0107  143.1455 LP  0  0  0  0  0  0  0  0  0  0  0  0  # atno 17320 bound_to 7965
  144.7012  139.8754  143.7443 LP  0  0  0  0  0  0  0  0  0  0  0  0  # atno 17321 bound_to 7965
  139.6078  144.1161  152.2267 LP  0  0  0  0  0  0  0  0  0  0  0  0  # atno 17342 bound_to 10162
  140.0565  144.5891  150.7296 LP  0  0  0  0  0  0  0  0  0  0  0  0  # atno 17343 bound_to 10162
  157.4641  130.7670  149.7263 LP  0  0  0  0  0  0  0  0  0  0  0  0  # atno 17370 bound_to 10713
  155.9874  130.3967  150.3168 LP  0  0  0  0  0  0  0  0  0  0  0  0  # atno 17371 bound_to 10713
  140.9066  133.7741  155.9743 LP  0  0  0  0  0  0  0  0  0  0  0  0  # atno 17394 bound_to 11000
  140.8592  134.2861  157.5242 LP  0  0  0  0  0  0  0  0  0  0  0  0  # atno 17395 bound_to 11000

$$$$
