AV-unprocessed.smi:600|AV-procd|sdf|3030|dock8
  -GOLD-   2262023543D 1   1.00000     0.00000
 Structure written by MMmdl.
 33 34  0  0  0  0  0  0  0  0  1 V2000
  151.5063  145.3672  158.7871 C   0  0  0  0  0  0  0  0  0  0  0  0
  152.0014  144.1096  158.3640 O   0  0  0  0  0  0  0  0  0  0  0  0
  151.0588  143.3889  157.5876 C   0  0  0  0  0  0  0  0  0  0  0  0
  151.0945  141.9003  157.9698 C   0  0  0  0  0  0  0  0  0  0  0  0
  150.6132  141.0470  156.8774 N   0  0  0  0  0  0  0  0  0  0  0  0
  149.3131  141.3192  156.4857 N   0  0  0  0  0  0  0  0  0  0  0  0
  148.7520  140.6288  155.5471 C   0  0  0  0  0  0  0  0  0  0  0  0
  147.3431  140.9331  155.1480 C   0  0  0  0  0  0  0  0  0  0  0  0
  146.9631  140.5749  154.0276 O   0  0  0  0  0  0  0  0  0  0  0  0
  146.5989  141.6101  156.1148 N   0  0  0  0  0  0  0  0  0  0  0  0
  145.5210  142.2720  155.8167 C   0  0  0  0  0  0  0  0  0  0  0  0
  144.9138  142.4379  154.5758 N   0  0  0  0  0  0  0  0  0  0  0  0
  143.9279  143.4954  154.4487 C   0  0  0  0  0  0  0  0  0  0  0  0
  143.2525  143.6538  155.8079 C   0  0  0  0  0  0  0  0  0  0  0  0
  144.5051  143.1796  157.0128 S   0  0  0  0  0  0  0  0  0  0  0  0
  149.4844  139.5580  154.8795 C   0  0  0  0  0  0  0  0  0  0  0  0
  150.7511  139.3040  155.2744 C   0  0  0  0  0  0  0  0  0  0  0  0
  151.3999  140.0664  156.3411 C   0  0  0  0  0  0  0  0  0  0  0  0
  152.5483  139.8428  156.7227 O   0  0  0  0  0  0  0  0  0  0  0  0
  152.2671  145.8822  159.3734 H   0  0  0  0  0  0  0  0  0  0  0  0
  150.6206  145.2514  159.4131 H   0  0  0  0  0  0  0  0  0  0  0  0
  151.2526  145.9985  157.9346 H   0  0  0  0  0  0  0  0  0  0  0  0
  150.0559  143.7949  157.7305 H   0  0  0  0  0  0  0  0  0  0  0  0
  151.3041  143.4977  156.5303 H   0  0  0  0  0  0  0  0  0  0  0  0
  152.1219  141.6202  158.2079 H   0  0  0  0  0  0  0  0  0  0  0  0
  150.5338  141.7339  158.8910 H   0  0  0  0  0  0  0  0  0  0  0  0
  144.4406  144.4154  154.1663 H   0  0  0  0  0  0  0  0  0  0  0  0
  143.2045  143.2625  153.6670 H   0  0  0  0  0  0  0  0  0  0  0  0
  142.8864  144.6661  155.9795 H   0  0  0  0  0  0  0  0  0  0  0  0
  142.4117  142.9654  155.8976 H   0  0  0  0  0  0  0  0  0  0  0  0
  149.0491  138.9689  154.0861 H   0  0  0  0  0  0  0  0  0  0  0  0
  151.3041  138.5139  154.7885 H   0  0  0  0  0  0  0  0  0  0  0  0
  145.2856  142.0509  153.7199 H   0  0  0  0  0  0  0  0  0  0  0  0
  1  2  1  0  0  0  0
  1 20  1  0  0  0  0
  1 21  1  0  0  0  0
  1 22  1  0  0  0  0
  2  3  1  0  0  0  0
  3  4  1  0  0  0  0
  3 23  1  0  0  0  0
  3 24  1  0  0  0  0
  4  5  1  0  0  0  0
  4 25  1  0  0  0  0
  4 26  1  0  0  0  0
  5 18  1  0  0  0  0
  5  6  1  0  0  0  0
  6  7  2  0  0  0  0
  7  8  1  0  0  0  0
  7 16  1  0  0  0  0
  8  9  2  0  0  0  0
  8 10  1  0  0  0  0
 10 11  2  0  0  0  0
 11 15  1  0  0  0  0
 11 12  1  0  0  0  0
 12 13  1  0  0  0  0
 12 33  1  0  0  0  0
 13 14  1  0  0  0  0
 13 27  1  0  0  0  0
 13 28  1  0  0  0  0
 14 15  1  0  0  0  0
 14 29  1  0  0  0  0
 14 30  1  0  0  0  0
 16 17  2  0  0  0  0
 16 31  1  0  0  0  0
 17 18  1  0  0  0  0
 17 32  1  0  0  0  0
 18 19  2  0  0  0  0
M  END
> <s_m_source_file>
AV-unprocessed.smi

> <i_m_source_file_index>
600

> <i_lp_mmshare_version>
43012

> <i_f3d_flags>
0

> <s_epik_input>
W0NIM11PW0NIMl1bQ0gyXW4xbmMoW2NIXVtjSF1jMT1PKUMoPU8pW05IXUMyPU5bQ0gyXVtDSDJdUzI=

> <s_epik_cmdline>
J2VwaWtfcHl0aG9uJywgJy1waCcsICc3LjAnLCAnLXRuJywgJzgnLCAnLW1hJywgJzIwMCcsICctbWV0YWxfYmluZGluZycsICctaW1hZScsICc8aW5maWxlLm1hZT4nLCAnLW9tYWUnLCAnPG91dGZpbGUubWFlPic=

> <r_epik_Ionization_Penalty>
0.0115713

> <r_epik_Ionization_Penalty_Charging>
8.15052e-11

> <r_epik_Ionization_Penalty_Neutral>
0.0115713

> <r_epik_State_Penalty>
0.0066973

> <r_epik_Charging_Adjusted_Penalty>
0.0066973

> <i_epik_Tot_Q>
0

> <i_epik_Tot_abs_Q>
0

> <r_epik_Metal_State_Penalty>
-0

> <b_epik_Metal_Only>
0

> <s_epik_Chemistry_Notes>
This compound has an imine and may undergo hydrolysis.

> <s_lp_Force_Field>
OPLS_2005

> <r_lp_Energy>
40.8102

> <b_lp_Chiralities_Consistent>
1

> <s_lp_Variant>
AV-unprocessed.smi:600-1

> <Gold.Version>
5.8.1

> <Gold.Id.Protein>
6NUR|6NUR_protein|mol2

> <Gold.PLP.Fitness>
37.9201

> <Gold.PLP.PLP>
-36.3140

> <Gold.PLP.part.hbond>
-1.0000

> <Gold.PLP.part.metal>
0.0000

> <Gold.PLP.part.buried>
-3.5152

> <Gold.PLP.part.nonpolar>
-31.8268

> <Gold.PLP.part.repulsive>
1.1985

> <Gold.PLP.ligand.clash>
0.0000

> <Gold.PLP.ligand.torsion>
0.7071

> <Gold.PLP.Chemscore.Hbond>
1.0000

> <Gold.PLP.Chemscore.CHOScore>
0.0000

> <Gold.PLP.Chemscore.Metal>
0.0000

> <Gold.Chemscore.Hbonds>
donor molecule, donor type, donor heavy atom, donor atom, acceptor molecule, acceptor atom, score
      P1  H  7997  8009       L1    19  1.00

> <Gold.PLP.Chemscore.Internal.Correction>
0.0202

> <Gold.Rescore>
     Score         DG    S(hbond)    S(metal)    S(lipo)     H(rot)  DE(clash)    DE(int)     intcor
     12.34     -13.13       1.00        0.00      70.61       1.54       0.24       0.55       ----

> <Gold.Chemscore.Fitness>
12.3422

> <Gold.Chemscore.DG>
-13.1320

> <Gold.Chemscore.ZeroCoef>
-5.4800

> <Gold.Chemscore.Hbond>
1.0000

> <Gold.Chemscore.Metal>
0.0000

> <Gold.Chemscore.Lipo>
70.6056

> <Gold.Chemscore.Internal_Hbond>
0.0000

> <Gold.Chemscore.DEClash>
0.2352

> <Gold.Chemscore.DEInternal>
0.5546

> <Gold.Chemscore.Rot>
1.5425

> <Gold.Chemscore.Internal.Correction>
   9.000000E+99

> <Gold.Chemscore.Hbonds>
donor molecule, donor type, donor heavy atom, donor atom, acceptor molecule, acceptor atom, score
      P1  H  7997  8009       L1    19  1.00

> <Gold.Chemscore.Hbond.Weighted>
-3.3400

> <Gold.Chemscore.Metal.Weighted>
-0.0000

> <Gold.Chemscore.Lipo.Weighted>
-8.2609

> <Gold.Chemscore.Internal_Hbond.Weighted>
0.0000

> <Gold.Chemscore.DEClash.Weighted>
0.2352

> <Gold.Chemscore.DEInternal.Weighted>
0.5546

> <Gold.Chemscore.Rot.Weighted>
3.9489

> <Gold.Chemscore.Internal.Correction.Weighted>
   9.000000E+99

> <Gold.Protein.RotatedTorsions>
[ 6907 6896 6895 6894 ] final  -77.01 input  -60.11 | X-H torsion
[ 7974 7965 7964 7962 ] final    0.32 input  175.53 | X-H torsion
[ 8008 7997 7996 7995 ] final -163.11 input   59.86 | X-H torsion
[ 10167 10162 10161 10158 ] final  147.39 input  -65.29 | X-H torsion
[ 10718 10713 10712 10709 ] final   12.68 input   66.30 | X-H torsion
[ 10763 10752 10751 10750 ] final  -60.20 input  -60.55 | X-H torsion
[ 11005 11000 10999 10996 ] final  -41.66 input  -57.11 | X-H torsion

> <Gold.Protein.ActiveResidues>
 VAL166  LYS551  ARG553  GLY616  TRP617  ASP618  TYR619  PRO620  LYS621  CYS622 
 ASP623  PHE694  ASN695  SER759  ASP760  ASP761  ALA762  ILE779  LEU786  VAL792 
 PHE793  MET794  SER795  GLU796  ALA797  LYS798  CYS799  TRP800  GLU811  SER814 

> <Gold.Protein.RotatedAtoms>
  150.7011  134.4487  159.5325 H   0  0  0  0  0  0  0  0  0  0  0  0  # atno 6907 bound_to 6896
  152.2184  134.8434  160.0498 H   0  0  0  0  0  0  0  0  0  0  0  0  # atno 6908 bound_to 6896
  151.9293  133.3572  159.3962 H   0  0  0  0  0  0  0  0  0  0  0  0  # atno 6909 bound_to 6896
  146.2433  140.1156  142.8342 H   0  0  0  0  0  0  0  0  0  0  0  0  # atno 7974 bound_to 7965
  155.8165  140.0913  157.1873 H   0  0  0  0  0  0  0  0  0  0  0  0  # atno 8008 bound_to 7997
  154.3979  140.1445  156.3509 H   0  0  0  0  0  0  0  0  0  0  0  0  # atno 8009 bound_to 7997
  155.8310  140.3442  155.5575 H   0  0  0  0  0  0  0  0  0  0  0  0  # atno 8010 bound_to 7997
  139.4891  144.5759  151.6967 H   0  0  0  0  0  0  0  0  0  0  0  0  # atno 10167 bound_to 10162
  157.0137  130.6127  149.5711 H   0  0  0  0  0  0  0  0  0  0  0  0  # atno 10718 bound_to 10713
  154.2656  135.6300  153.5290 H   0  0  0  0  0  0  0  0  0  0  0  0  # atno 10763 bound_to 10752
  152.9888  135.5598  154.5657 H   0  0  0  0  0  0  0  0  0  0  0  0  # atno 10764 bound_to 10752
  154.5215  135.2883  155.1233 H   0  0  0  0  0  0  0  0  0  0  0  0  # atno 10765 bound_to 10752
  141.0261  133.6840  156.2488 H   0  0  0  0  0  0  0  0  0  0  0  0  # atno 11005 bound_to 11000
  145.0450  140.8974  143.5030 LP  0  0  0  0  0  0  0  0  0  0  0  0  # atno 17320 bound_to 7965
  145.1243  139.2673  143.5572 LP  0  0  0  0  0  0  0  0  0  0  0  0  # atno 17321 bound_to 7965
  140.5355  144.0663  150.6069 LP  0  0  0  0  0  0  0  0  0  0  0  0  # atno 17342 bound_to 10162
  140.3667  143.2877  152.0323 LP  0  0  0  0  0  0  0  0  0  0  0  0  # atno 17343 bound_to 10162
  156.0127  130.5219  150.8038 LP  0  0  0  0  0  0  0  0  0  0  0  0  # atno 17370 bound_to 10713
  157.5301  131.0936  150.9966 LP  0  0  0  0  0  0  0  0  0  0  0  0  # atno 17371 bound_to 10713
  140.6488  134.5089  157.5576 LP  0  0  0  0  0  0  0  0  0  0  0  0  # atno 17394 bound_to 11000
  139.9177  134.8212  156.1312 LP  0  0  0  0  0  0  0  0  0  0  0  0  # atno 17395 bound_to 11000

$$$$
