AV-unprocessed.smi:760|AV-procd|sdf|3627|dock5
  -GOLD-   22720 1 23D 1   1.00000     0.00000
 Structure written by MMmdl.
 44 45  0  0  0  0  0  0  0  0  2 V2000
  145.5528  131.6721  149.6737 C   0  0  0  0  0  0  0  0  0  0  0  0
  145.8222  131.5040  150.9789 C   0  0  0  0  0  0  0  0  0  0  0  0
  145.4683  130.2223  151.7125 C   0  0  0  0  0  0  0  0  0  0  0  0
  146.5284  132.5771  151.7937 C   0  0  0  0  0  0  0  0  0  0  0  0
  145.6567  133.7418  152.1000 N   0  3  2  0  0  0  0  0  0  0  0  0
  145.4623  134.6033  150.9047 C   0  0  0  0  0  0  0  0  0  0  0  0
  144.4453  135.7236  151.1762 C   0  0  0  0  0  0  0  0  0  0  0  0
  144.8733  136.5776  152.3786 C   0  0  1  0  0  0  0  0  0  0  0  0
  143.8541  137.5844  152.6601 N   0  0  0  0  0  0  0  0  0  0  0  0
  142.6301  137.3291  153.1447 C   0  0  0  0  0  0  0  0  0  0  0  0
  142.2267  136.1969  153.4104 O   0  0  0  0  0  0  0  0  0  0  0  0
  141.9184  138.4582  153.2910 N   0  0  0  0  0  0  0  0  0  0  0  0
  140.5933  138.5797  153.7787 C   0  0  0  0  0  0  0  0  0  0  0  0
  139.5784  137.5874  153.8925 C   0  0  0  0  0  0  0  0  0  0  0  0
  138.4685  138.0997  154.4030 N   0  0  0  0  0  0  0  0  0  0  0  0
  138.7510  139.4072  154.6197 N   0  0  0  0  0  0  0  0  0  0  0  0
  137.7338  140.2684  155.1837 C   0  0  0  0  0  0  0  0  0  0  0  0
  140.0413  139.7321  154.2516 C   0  0  0  0  0  0  0  0  0  0  0  0
  145.0936  135.6647  153.5976 C   0  0  0  0  0  0  0  0  0  0  0  0
  146.0882  134.5344  153.2830 C   0  0  0  0  0  0  0  0  0  0  0  0
  145.0613  130.9015  149.0974 H   0  0  0  0  0  0  0  0  0  0  0  0
  145.8203  132.5841  149.1602 H   0  0  0  0  0  0  0  0  0  0  0  0
  146.3780  129.7171  152.0378 H   0  0  0  0  0  0  0  0  0  0  0  0
  144.9164  129.5368  151.0686 H   0  0  0  0  0  0  0  0  0  0  0  0
  144.8598  130.4180  152.5941 H   0  0  0  0  0  0  0  0  0  0  0  0
  146.9332  132.1502  152.7128 H   0  0  0  0  0  0  0  0  0  0  0  0
  147.3844  132.9199  151.2102 H   0  0  0  0  0  0  0  0  0  0  0  0
  146.4202  135.0313  150.6044 H   0  0  0  0  0  0  0  0  0  0  0  0
  145.1102  133.9988  150.0678 H   0  0  0  0  0  0  0  0  0  0  0  0
  144.3434  136.3505  150.2893 H   0  0  0  0  0  0  0  0  0  0  0  0
  143.4632  135.2849  151.3601 H   0  0  0  0  0  0  0  0  0  0  0  0
  145.8120  137.0768  152.1293 H   0  0  0  0  0  0  0  0  0  0  0  0
  144.0980  138.5459  152.4726 H   0  0  0  0  0  0  0  0  0  0  0  0
  142.3692  139.3210  153.0236 H   0  0  0  0  0  0  0  0  0  0  0  0
  139.5989  136.5393  153.6342 H   0  0  0  0  0  0  0  0  0  0  0  0
  138.0513  141.3100  155.1253 H   0  0  0  0  0  0  0  0  0  0  0  0
  137.5680  140.0053  156.2287 H   0  0  0  0  0  0  0  0  0  0  0  0
  136.8002  140.1520  154.6319 H   0  0  0  0  0  0  0  0  0  0  0  0
  140.4425  140.7296  154.3557 H   0  0  0  0  0  0  0  0  0  0  0  0
  145.4595  136.2468  154.4442 H   0  0  0  0  0  0  0  0  0  0  0  0
  144.1430  135.2309  153.9116 H   0  0  0  0  0  0  0  0  0  0  0  0
  146.1539  133.8938  154.1610 H   0  0  0  0  0  0  0  0  0  0  0  0
  147.0842  134.9439  153.1070 H   0  0  0  0  0  0  0  0  0  0  0  0
  144.7485  133.3616  152.3256 H   0  0  0  0  0  0  0  0  0  0  0  0
  1  2  2  0  0  0  0
  1 21  1  0  0  0  0
  1 22  1  0  0  0  0
  2  3  1  0  0  0  0
  2  4  1  0  0  0  0
  3 23  1  0  0  0  0
  3 24  1  0  0  0  0
  3 25  1  0  0  0  0
  4  5  1  0  0  0  0
  4 26  1  0  0  0  0
  4 27  1  0  0  0  0
  5 20  1  0  0  0  0
  5  6  1  0  0  0  0
  5 44  1  0  0  0  0
  6  7  1  0  0  0  0
  6 28  1  0  0  0  0
  6 29  1  0  0  0  0
  7  8  1  0  0  0  0
  7 30  1  0  0  0  0
  7 31  1  0  0  0  0
  8  9  1  0  0  0  0
  8 19  1  0  0  0  0
  8 32  1  0  0  0  0
  9 10  1  0  0  0  0
  9 33  1  0  0  0  0
 10 11  2  0  0  0  0
 10 12  1  0  0  0  0
 12 13  1  0  0  0  0
 12 34  1  0  0  0  0
 13 18  2  0  0  0  0
 13 14  1  0  0  0  0
 14 15  2  0  0  0  0
 14 35  1  0  0  0  0
 15 16  1  0  0  0  0
 16 17  1  0  0  0  0
 16 18  1  0  0  0  0
 17 36  1  0  0  0  0
 17 37  1  0  0  0  0
 17 38  1  0  0  0  0
 18 39  1  0  0  0  0
 19 20  1  0  0  0  0
 19 40  1  0  0  0  0
 19 41  1  0  0  0  0
 20 42  1  0  0  0  0
 20 43  1  0  0  0  0
M  CHG  1   5   1
M  END
> <s_m_source_file>
AV-unprocessed.smi

> <i_m_source_file_index>
760

> <i_lp_mmshare_version>
43012

> <i_f3d_flags>
0

> <s_epik_input>
W0NIMl09QyhbQ0gzXSlbQ0gyXU4xW0NIMl1bQ0gyXVtDSF0oW0NIMl1bQ0gyXTEpW05IXUMoPU8pW05IXWMyW2NIXW5uKFtDSDNdKVtjSF0y

> <s_epik_cmdline>
J2VwaWtfcHl0aG9uJywgJy1waCcsICc3LjAnLCAnLXRuJywgJzgnLCAnLW1hJywgJzIwMCcsICctbWV0YWxfYmluZGluZycsICctaW1hZScsICc8aW5maWxlLm1hZT4nLCAnLW9tYWUnLCAnPG91dGZpbGUubWFlPic=

> <r_lp_tautomer_probability>
1

> <r_epik_Ionization_Penalty>
0.0194996

> <r_epik_Ionization_Penalty_Charging>
0.0193505

> <r_epik_Ionization_Penalty_Neutral>
0.000149098

> <r_epik_State_Penalty>
0.0154499

> <r_epik_Charging_Adjusted_Penalty>
0.0348004

> <i_epik_Tot_Q>
1

> <i_epik_Tot_abs_Q>
1

> <r_epik_Metal_State_Penalty>
0.0154507

> <b_epik_Metal_Only>
0

> <s_lp_Force_Field>
OPLS_2005

> <r_lp_Energy>
20.4425

> <b_lp_Chiralities_Consistent>
1

> <s_lp_Variant>
AV-unprocessed.smi:760-1

> <Gold.Version>
5.8.1

> <Gold.Id.Protein>
6NUR|6NUR_protein|mol2

> <Gold.PLP.Fitness>
42.3931

> <Gold.PLP.PLP>
-34.3245

> <Gold.PLP.part.hbond>
-3.1134

> <Gold.PLP.part.metal>
0.0000

> <Gold.PLP.part.buried>
-2.6303

> <Gold.PLP.part.nonpolar>
-28.8815

> <Gold.PLP.part.repulsive>
0.3225

> <Gold.PLP.ligand.clash>
0.0000

> <Gold.PLP.ligand.torsion>
0.4667

> <Gold.PLP.Chemscore.Hbond>
2.0000

> <Gold.PLP.Chemscore.CHOScore>
0.9894

> <Gold.PLP.Chemscore.Metal>
0.0000

> <Gold.Chemscore.Hbonds>
donor molecule, donor type, donor heavy atom, donor atom, acceptor molecule, acceptor atom, score
      L1  H     9    33       P1 10175  1.00
      L1  H    12    34       P1 10175  1.00

> <Gold.PLP.Chemscore.Internal.Correction>
0.0340

> <Gold.Rescore>
     Score         DG    S(hbond)    S(metal)    S(lipo)     H(rot)  DE(clash)    DE(int)     intcor
     16.38     -18.28       1.90        0.00      85.20       1.38       0.10       1.79       ----

> <Gold.Chemscore.Fitness>
16.3827

> <Gold.Chemscore.DG>
-18.2760

> <Gold.Chemscore.ZeroCoef>
-5.4800

> <Gold.Chemscore.Hbond>
1.9006

> <Gold.Chemscore.Metal>
0.0000

> <Gold.Chemscore.Lipo>
85.2009

> <Gold.Chemscore.Internal_Hbond>
0.0000

> <Gold.Chemscore.DEClash>
0.1009

> <Gold.Chemscore.DEInternal>
1.7923

> <Gold.Chemscore.Rot>
1.3752

> <Gold.Chemscore.Internal.Correction>
   9.000000E+99

> <Gold.Chemscore.Hbonds>
donor molecule, donor type, donor heavy atom, donor atom, acceptor molecule, acceptor atom, score
      L1  H     9    33       P1 10175  0.95
      L1  H    12    34       P1 10175  0.99

> <Gold.Chemscore.Hbond.Weighted>
-6.3479

> <Gold.Chemscore.Metal.Weighted>
-0.0000

> <Gold.Chemscore.Lipo.Weighted>
-9.9685

> <Gold.Chemscore.Internal_Hbond.Weighted>
0.0000

> <Gold.Chemscore.DEClash.Weighted>
0.1009

> <Gold.Chemscore.DEInternal.Weighted>
1.7923

> <Gold.Chemscore.Rot.Weighted>
3.5204

> <Gold.Chemscore.Internal.Correction.Weighted>
   9.000000E+99

> <Gold.Protein.RotatedTorsions>
[ 6907 6896 6895 6894 ] final  152.07 input  -60.11 | X-H torsion
[ 7974 7965 7964 7962 ] final   52.20 input  175.53 | X-H torsion
[ 8008 7997 7996 7995 ] final  -94.17 input   59.86 | X-H torsion
[ 10167 10162 10161 10158 ] final  146.70 input  -65.29 | X-H torsion
[ 10718 10713 10712 10709 ] final  -41.27 input   66.30 | X-H torsion
[ 10763 10752 10751 10750 ] final  -49.50 input  -60.55 | X-H torsion
[ 11005 11000 10999 10996 ] final -156.20 input  -57.11 | X-H torsion

> <Gold.Protein.ActiveResidues>
 VAL166  LYS551  ARG553  GLY616  TRP617  ASP618  TYR619  PRO620  LYS621  CYS622 
 ASP623  PHE694  ASN695  SER759  ASP760  ASP761  ALA762  ILE779  LEU786  VAL792 
 PHE793  MET794  SER795  GLU796  ALA797  LYS798  CYS799  TRP800  GLU811  SER814 

> <Gold.Protein.RotatedAtoms>
  152.0918  133.4204  159.4547 H   0  0  0  0  0  0  0  0  0  0  0  0  # atno 6907 bound_to 6896
  150.6862  134.2862  159.4657 H   0  0  0  0  0  0  0  0  0  0  0  0  # atno 6908 bound_to 6896
  152.0714  134.9530  160.0625 H   0  0  0  0  0  0  0  0  0  0  0  0  # atno 6909 bound_to 6896
  145.9837  139.4268  143.0116 H   0  0  0  0  0  0  0  0  0  0  0  0  # atno 7974 bound_to 7965
  154.7451  140.0492  157.0844 H   0  0  0  0  0  0  0  0  0  0  0  0  # atno 8008 bound_to 7997
  155.0129  140.3138  155.4803 H   0  0  0  0  0  0  0  0  0  0  0  0  # atno 8009 bound_to 7997
  156.2873  140.2181  156.5244 H   0  0  0  0  0  0  0  0  0  0  0  0  # atno 8010 bound_to 7997
  139.4902  144.5810  151.6871 H   0  0  0  0  0  0  0  0  0  0  0  0  # atno 10167 bound_to 10162
  156.2722  130.4208  149.8425 H   0  0  0  0  0  0  0  0  0  0  0  0  # atno 10718 bound_to 10713
  154.0951  135.6571  153.4859 H   0  0  0  0  0  0  0  0  0  0  0  0  # atno 10763 bound_to 10752
  153.0308  135.5212  154.7342 H   0  0  0  0  0  0  0  0  0  0  0  0  # atno 10764 bound_to 10752
  154.6477  135.2997  154.9994 H   0  0  0  0  0  0  0  0  0  0  0  0  # atno 10765 bound_to 10752
  140.6782  134.4174  157.5228 H   0  0  0  0  0  0  0  0  0  0  0  0  # atno 11005 bound_to 11000
  145.7732  140.9888  143.1138 LP  0  0  0  0  0  0  0  0  0  0  0  0  # atno 17320 bound_to 7965
  144.6868  139.9473  143.7477 LP  0  0  0  0  0  0  0  0  0  0  0  0  # atno 17321 bound_to 7965
  140.5416  144.0569  150.6091 LP  0  0  0  0  0  0  0  0  0  0  0  0  # atno 17342 bound_to 10162
  140.3594  143.2917  152.0401 LP  0  0  0  0  0  0  0  0  0  0  0  0  # atno 17343 bound_to 10162
  156.5903  130.8503  151.3406 LP  0  0  0  0  0  0  0  0  0  0  0  0  # atno 17370 bound_to 10713
  157.7288  130.9661  150.1757 LP  0  0  0  0  0  0  0  0  0  0  0  0  # atno 17371 bound_to 10713
  139.8960  134.8670  156.2107 LP  0  0  0  0  0  0  0  0  0  0  0  0  # atno 17394 bound_to 11000
  141.0339  133.6974  156.1477 LP  0  0  0  0  0  0  0  0  0  0  0  0  # atno 17395 bound_to 11000

$$$$
