AV-unprocessed.smi:3278|AV-procd|sdf|12544|dock3
  -GOLD-   2272018463D 1   1.00000     0.00000
 Structure written by MMmdl.
 38 39  0  0  0  0  0  0  0  0  1 V2000
  146.2582  142.9301  153.4795 C   0  0  0  0  0  0  0  0  0  0  0  0
  147.1143  141.8780  153.9843 N   0  0  0  0  0  0  0  0  0  0  0  0
  148.3795  141.9807  154.5199 C   0  0  0  0  0  0  0  0  0  0  0  0
  148.7918  140.7208  154.8572 C   0  0  0  0  0  0  0  0  0  0  0  0
  150.1063  140.2930  155.4759 C   0  0  1  0  0  0  0  0  0  0  0  0
  149.8377  139.4566  156.7386 C   0  0  0  0  0  0  0  0  0  0  0  0
  150.8550  139.4529  154.6171 O   0  0  0  0  0  0  0  0  0  0  0  0
  150.9999  141.5040  155.8258 C   0  0  0  0  0  0  0  0  0  0  0  0
  150.3400  142.4269  156.7542 N   0  0  0  0  0  0  0  0  0  0  0  0
  151.2244  143.1781  157.6491 C   0  0  2  0  0  0  0  0  0  0  0  0
  151.9051  142.1909  158.6175 C   0  0  0  0  0  0  0  0  0  0  0  0
  152.9409  142.8632  159.5316 C   0  0  0  0  0  0  0  0  0  0  0  0
  152.3124  143.9304  160.4362 C   0  0  0  0  0  0  0  0  0  0  0  0
  151.5843  145.2672  159.4542 S   0  0  0  0  0  0  0  0  0  0  0  0
  150.4650  144.2779  158.4243 C   0  0  0  0  0  0  0  0  0  0  0  0
  147.6834  139.9072  154.4781 C   0  0  0  0  0  0  0  0  0  0  0  0
  146.6841  140.6009  153.9578 N   0  0  0  0  0  0  0  0  0  0  0  0
  146.7056  143.9043  153.6785 H   0  0  0  0  0  0  0  0  0  0  0  0
  145.2842  142.8817  153.9672 H   0  0  0  0  0  0  0  0  0  0  0  0
  146.1268  142.8130  152.4035 H   0  0  0  0  0  0  0  0  0  0  0  0
  148.8809  142.9325  154.6156 H   0  0  0  0  0  0  0  0  0  0  0  0
  149.2881  140.0301  157.4858 H   0  0  0  0  0  0  0  0  0  0  0  0
  150.7667  139.1229  157.2029 H   0  0  0  0  0  0  0  0  0  0  0  0
  149.2472  138.5690  156.5076 H   0  0  0  0  0  0  0  0  0  0  0  0
  150.2534  138.9353  154.1042 H   0  0  0  0  0  0  0  0  0  0  0  0
  151.9254  141.1466  156.2791 H   0  0  0  0  0  0  0  0  0  0  0  0
  151.2854  142.0128  154.9057 H   0  0  0  0  0  0  0  0  0  0  0  0
  149.7504  143.0673  156.2320 H   0  0  0  0  0  0  0  0  0  0  0  0
  152.0025  143.6530  157.0499 H   0  0  0  0  0  0  0  0  0  0  0  0
  151.1533  141.6872  159.2270 H   0  0  0  0  0  0  0  0  0  0  0  0
  152.4040  141.4083  158.0440 H   0  0  0  0  0  0  0  0  0  0  0  0
  153.4180  142.1040  160.1514 H   0  0  0  0  0  0  0  0  0  0  0  0
  153.7333  143.3087  158.9291 H   0  0  0  0  0  0  0  0  0  0  0  0
  151.5401  143.4888  161.0669 H   0  0  0  0  0  0  0  0  0  0  0  0
  153.0655  144.3544  161.1005 H   0  0  0  0  0  0  0  0  0  0  0  0
  149.9657  144.9715  157.7496 H   0  0  0  0  0  0  0  0  0  0  0  0
  149.6947  143.8380  159.0590 H   0  0  0  0  0  0  0  0  0  0  0  0
  147.5770  138.8359  154.5648 H   0  0  0  0  0  0  0  0  0  0  0  0
  1  2  1  0  0  0  0
  1 18  1  0  0  0  0
  1 19  1  0  0  0  0
  1 20  1  0  0  0  0
  2 17  1  0  0  0  0
  2  3  1  0  0  0  0
  3  4  2  0  0  0  0
  3 21  1  0  0  0  0
  4  5  1  0  0  0  0
  4 16  1  0  0  0  0
  5  6  1  0  0  0  0
  5  7  1  0  0  0  0
  5  8  1  0  0  0  0
  6 22  1  0  0  0  0
  6 23  1  0  0  0  0
  6 24  1  0  0  0  0
  7 25  1  0  0  0  0
  8  9  1  0  0  0  0
  8 26  1  0  0  0  0
  8 27  1  0  0  0  0
  9 10  1  0  0  0  0
  9 28  1  0  0  0  0
 10 15  1  0  0  0  0
 10 11  1  0  0  0  0
 10 29  1  0  0  0  0
 11 12  1  0  0  0  0
 11 30  1  0  0  0  0
 11 31  1  0  0  0  0
 12 13  1  0  0  0  0
 12 32  1  0  0  0  0
 12 33  1  0  0  0  0
 13 14  1  0  0  0  0
 13 34  1  0  0  0  0
 13 35  1  0  0  0  0
 14 15  1  0  0  0  0
 15 36  1  0  0  0  0
 15 37  1  0  0  0  0
 16 17  2  0  0  0  0
 16 38  1  0  0  0  0
M  END
> <s_m_source_file>
AV-unprocessed.smi

> <i_m_source_file_index>
3278

> <i_lp_mmshare_version>
43012

> <i_f3d_flags>
0

> <s_epik_input>
W0NIM11uMVtjSF1jKFtjSF1uMSlbQ0BAXShbQ0gzXSkoW09IXSlbQ0gyXVtOSF1bQ0BASF0yW0NIMl1bQ0gyXVtDSDJdU1tDSDJdMg==

> <s_epik_cmdline>
J2VwaWtfcHl0aG9uJywgJy1waCcsICc3LjAnLCAnLXRuJywgJzgnLCAnLW1hJywgJzIwMCcsICctbWV0YWxfYmluZGluZycsICctaW1hZScsICc8aW5maWxlLm1hZT4nLCAnLW9tYWUnLCAnPG91dGZpbGUubWFlPic=

> <r_lp_tautomer_probability>
1

> <r_epik_Ionization_Penalty>
2.06123

> <r_epik_Ionization_Penalty_Charging>
0

> <r_epik_Ionization_Penalty_Neutral>
2.06123

> <r_epik_State_Penalty>
2.1944

> <r_epik_Charging_Adjusted_Penalty>
2.1944

> <i_epik_Tot_Q>
0

> <i_epik_Tot_abs_Q>
0

> <r_epik_Metal_State_Penalty>
2.19434

> <b_epik_Metal_Only>
0

> <s_lp_Force_Field>
OPLS_2005

> <r_lp_Energy>
12.429

> <b_lp_Chiralities_Consistent>
1

> <s_lp_Variant>
AV-unprocessed.smi:3278-5

> <Gold.Version>
5.8.1

> <Gold.Id.Protein>
6NUR|6NUR_protein|mol2

> <Gold.PLP.Fitness>
45.2178

> <Gold.PLP.PLP>
-37.0906

> <Gold.PLP.part.hbond>
-1.9884

> <Gold.PLP.part.metal>
0.0000

> <Gold.PLP.part.buried>
-4.4140

> <Gold.PLP.part.nonpolar>
-30.8366

> <Gold.PLP.part.repulsive>
0.1422

> <Gold.PLP.ligand.clash>
0.0000

> <Gold.PLP.ligand.torsion>
0.2950

> <Gold.PLP.Chemscore.Hbond>
1.9425

> <Gold.PLP.Chemscore.CHOScore>
0.9535

> <Gold.PLP.Chemscore.Metal>
0.0000

> <Gold.Chemscore.Hbonds>
donor molecule, donor type, donor heavy atom, donor atom, acceptor molecule, acceptor atom, score
      L1  H     9    28       P1  8028  1.00
      P1  H  7989  7998       L1     7  0.90
      L1  C     3    21       P1  8028  1.00

> <Gold.PLP.Chemscore.Internal.Correction>
0.0292

> <Gold.Rescore>
     Score         DG    S(hbond)    S(metal)    S(lipo)     H(rot)  DE(clash)    DE(int)     intcor
     16.42     -17.22       1.28        0.00     106.05       1.93       0.22       0.58       ----

> <Gold.Chemscore.Fitness>
16.4215

> <Gold.Chemscore.DG>
-17.2225

> <Gold.Chemscore.ZeroCoef>
-5.4800

> <Gold.Chemscore.Hbond>
1.2823

> <Gold.Chemscore.Metal>
0.0000

> <Gold.Chemscore.Lipo>
106.0492

> <Gold.Chemscore.Internal_Hbond>
0.0000

> <Gold.Chemscore.DEClash>
0.2175

> <Gold.Chemscore.DEInternal>
0.5836

> <Gold.Chemscore.Rot>
1.9329

> <Gold.Chemscore.Internal.Correction>
   9.000000E+99

> <Gold.Chemscore.Hbonds>
donor molecule, donor type, donor heavy atom, donor atom, acceptor molecule, acceptor atom, score
      L1  H     9    28       P1  8028  0.98
      P1  H  7989  7998       L1     7  0.12

> <Gold.Chemscore.Hbond.Weighted>
-4.2830

> <Gold.Chemscore.Metal.Weighted>
-0.0000

> <Gold.Chemscore.Lipo.Weighted>
-12.4078

> <Gold.Chemscore.Internal_Hbond.Weighted>
0.0000

> <Gold.Chemscore.DEClash.Weighted>
0.2175

> <Gold.Chemscore.DEInternal.Weighted>
0.5836

> <Gold.Chemscore.Rot.Weighted>
4.9483

> <Gold.Chemscore.Internal.Correction.Weighted>
   9.000000E+99

> <Gold.Protein.RotatedTorsions>
[ 6907 6896 6895 6894 ] final  120.71 input  -60.11 | X-H torsion
[ 7974 7965 7964 7962 ] final  126.95 input  175.53 | X-H torsion
[ 8008 7997 7996 7995 ] final -134.89 input   59.86 | X-H torsion
[ 10167 10162 10161 10158 ] final   27.11 input  -65.29 | X-H torsion
[ 10718 10713 10712 10709 ] final -131.81 input   66.30 | X-H torsion
[ 10763 10752 10751 10750 ] final  127.44 input  -60.55 | X-H torsion
[ 11005 11000 10999 10996 ] final   88.60 input  -57.11 | X-H torsion

> <Gold.Protein.ActiveResidues>
 VAL166  LYS551  ARG553  GLY616  TRP617  ASP618  TYR619  PRO620  LYS621  CYS622 
 ASP623  PHE694  ASN695  SER759  ASP760  ASP761  ALA762  ILE779  LEU786  VAL792 
 PHE793  MET794  SER795  GLU796  ALA797  LYS798  CYS799  TRP800  GLU811  SER814 

> <Gold.Protein.RotatedAtoms>
  152.4377  133.7391  159.6630 H   0  0  0  0  0  0  0  0  0  0  0  0  # atno 6907 bound_to 6896
  150.8263  133.8155  159.3123 H   0  0  0  0  0  0  0  0  0  0  0  0  # atno 6908 bound_to 6896
  151.5823  135.1060  160.0071 H   0  0  0  0  0  0  0  0  0  0  0  0  # atno 6909 bound_to 6896
  145.0560  139.3844  143.5030 H   0  0  0  0  0  0  0  0  0  0  0  0  # atno 7974 bound_to 7965
  155.3696  140.0487  157.3045 H   0  0  0  0  0  0  0  0  0  0  0  0  # atno 8008 bound_to 7997
  154.5137  140.2200  155.9070 H   0  0  0  0  0  0  0  0  0  0  0  0  # atno 8009 bound_to 7997
  156.1612  140.3116  155.8815 H   0  0  0  0  0  0  0  0  0  0  0  0  # atno 8010 bound_to 7997
  140.4966  144.0382  150.6317 H   0  0  0  0  0  0  0  0  0  0  0  0  # atno 10167 bound_to 10162
  156.2282  130.7021  151.0830 H   0  0  0  0  0  0  0  0  0  0  0  0  # atno 10718 bound_to 10713
  153.7094  135.3270  155.3243 H   0  0  0  0  0  0  0  0  0  0  0  0  # atno 10763 bound_to 10752
  154.8389  135.4473  154.1329 H   0  0  0  0  0  0  0  0  0  0  0  0  # atno 10764 bound_to 10752
  153.2419  135.6972  153.7853 H   0  0  0  0  0  0  0  0  0  0  0  0  # atno 10765 bound_to 10752
  139.8893  134.8498  156.3024 H   0  0  0  0  0  0  0  0  0  0  0  0  # atno 11005 bound_to 11000
  146.3521  140.0234  142.8656 LP  0  0  0  0  0  0  0  0  0  0  0  0  # atno 17320 bound_to 7965
  145.1468  140.9601  143.4456 LP  0  0  0  0  0  0  0  0  0  0  0  0  # atno 17321 bound_to 7965
  140.3666  143.2878  152.0325 LP  0  0  0  0  0  0  0  0  0  0  0  0  # atno 17342 bound_to 10162
  139.4862  144.6262  151.7159 LP  0  0  0  0  0  0  0  0  0  0  0  0  # atno 17343 bound_to 10162
  157.7120  131.0729  150.6464 LP  0  0  0  0  0  0  0  0  0  0  0  0  # atno 17370 bound_to 10713
  156.6531  130.4490  149.5713 LP  0  0  0  0  0  0  0  0  0  0  0  0  # atno 17371 bound_to 10713
  140.9905  133.7212  156.0806 LP  0  0  0  0  0  0  0  0  0  0  0  0  # atno 17394 bound_to 11000
  140.7632  134.3916  157.5522 LP  0  0  0  0  0  0  0  0  0  0  0  0  # atno 17395 bound_to 11000

$$$$
