AV-unprocessed.smi:203|AV-procd|sdf|1586|dock2
  -GOLD-   2262019483D 1   1.00000     0.00000
 Structure written by MMmdl.
 57 61  0  0  0  0  0  0  0  0  1 V2000
  142.5720  136.5465  153.0688 O   0  0  0  0  0  0  0  0  0  0  0  0
  143.7047  136.2836  152.6714 C   0  0  0  0  0  0  0  0  0  0  0  0
  144.6353  135.3102  153.3736 C   0  0  0  0  0  0  0  0  0  0  0  0
  145.8037  135.1429  152.3801 C   0  0  1  0  0  0  0  0  0  0  0  0
  145.8851  133.7357  151.7073 C   0  0  2  0  0  0  0  0  0  0  0  0
  144.6768  133.4428  150.7782 C   0  0  0  0  0  0  0  0  0  0  0  0
  144.7806  132.0568  150.1286 C   0  0  0  0  0  0  0  0  0  0  0  0
  144.9307  130.9833  151.2115 C   0  0  0  0  0  0  0  0  0  0  0  0
  146.1357  131.2957  152.1085 C   0  0  0  0  0  0  0  0  0  0  0  0
  146.0412  132.6390  152.6799 N   0  0  0  0  0  0  0  0  0  0  0  0
  146.9858  132.8137  153.6311 C   0  0  0  0  0  0  0  0  0  0  0  0
  148.2768  132.8543  153.2202 N   0  0  0  0  0  0  0  0  0  0  0  0
  149.2565  133.0132  154.1152 C   0  0  0  0  0  0  0  0  0  0  0  0
  149.1638  133.1539  155.4398 N   0  0  0  0  0  0  0  0  0  0  0  0
  147.8642  133.1202  155.8528 C   0  0  0  0  0  0  0  0  0  0  0  0
  146.7206  132.9545  155.0227 C   0  0  0  0  0  0  0  0  0  0  0  0
  145.5659  132.9681  155.7963 N   0  0  0  0  0  0  0  0  0  0  0  0
  146.0027  133.1335  157.0152 C   0  0  0  0  0  0  0  0  0  0  0  0
  147.3695  133.2348  157.1397 N   0  0  0  0  0  0  0  0  0  0  0  0
  148.1164  133.4235  158.3705 C   0  0  0  0  0  0  0  0  0  0  0  0
  147.9169  134.8328  158.9677 C   0  0  1  0  0  0  0  0  0  0  0  0
  147.2329  135.6677  158.0548 O   0  0  0  0  0  0  0  0  0  0  0  0
  147.1640  134.8517  160.3140 C   0  0  2  0  0  0  0  0  0  0  0  0
  147.3198  136.1548  161.1081 C   0  0  0  0  0  0  0  0  0  0  0  0
  147.3032  135.7149  162.5663 C   0  0  0  0  0  0  0  0  0  0  0  0
  147.1689  134.1949  162.4979 C   0  0  0  0  0  0  0  0  0  0  0  0
  147.6606  133.8668  161.2093 O   0  0  0  0  0  0  0  0  0  0  0  0
  145.6312  136.2960  151.3681 C   0  0  0  0  0  0  0  0  0  0  0  0
  144.2882  136.7956  151.5897 N   0  0  0  0  0  0  0  0  0  0  0  0
  144.9777  135.7531  154.3094 H   0  0  0  0  0  0  0  0  0  0  0  0
  144.1293  134.3737  153.6091 H   0  0  0  0  0  0  0  0  0  0  0  0
  146.7376  135.3365  152.9088 H   0  0  0  0  0  0  0  0  0  0  0  0
  146.7767  133.7290  151.0791 H   0  0  0  0  0  0  0  0  0  0  0  0
  143.7448  133.4940  151.3415 H   0  0  0  0  0  0  0  0  0  0  0  0
  144.5988  134.1938  149.9931 H   0  0  0  0  0  0  0  0  0  0  0  0
  143.8970  131.8581  149.5214 H   0  0  0  0  0  0  0  0  0  0  0  0
  145.6382  132.0272  149.4555 H   0  0  0  0  0  0  0  0  0  0  0  0
  144.0236  130.9385  151.8159 H   0  0  0  0  0  0  0  0  0  0  0  0
  145.0500  130.0013  150.7533 H   0  0  0  0  0  0  0  0  0  0  0  0
  146.1952  130.5544  152.9071 H   0  0  0  0  0  0  0  0  0  0  0  0
  147.0556  131.2120  151.5280 H   0  0  0  0  0  0  0  0  0  0  0  0
  150.2586  133.0286  153.7128 H   0  0  0  0  0  0  0  0  0  0  0  0
  145.3362  133.1853  157.8639 H   0  0  0  0  0  0  0  0  0  0  0  0
  147.8101  132.6565  159.0827 H   0  0  0  0  0  0  0  0  0  0  0  0
  149.1696  133.2425  158.1561 H   0  0  0  0  0  0  0  0  0  0  0  0
  148.8938  135.2938  159.1196 H   0  0  0  0  0  0  0  0  0  0  0  0
  147.8357  135.9164  157.3704 H   0  0  0  0  0  0  0  0  0  0  0  0
  146.0984  134.6734  160.1536 H   0  0  0  0  0  0  0  0  0  0  0  0
  148.2665  136.6478  160.8868 H   0  0  0  0  0  0  0  0  0  0  0  0
  146.5214  136.8612  160.8787 H   0  0  0  0  0  0  0  0  0  0  0  0
  148.2408  135.9931  163.0490 H   0  0  0  0  0  0  0  0  0  0  0  0
  146.4879  136.1672  163.1317 H   0  0  0  0  0  0  0  0  0  0  0  0
  147.7286  133.6866  163.2833 H   0  0  0  0  0  0  0  0  0  0  0  0
  146.1226  133.8944  162.5729 H   0  0  0  0  0  0  0  0  0  0  0  0
  146.3400  137.0997  151.5726 H   0  0  0  0  0  0  0  0  0  0  0  0
  145.7756  135.9879  150.3325 H   0  0  0  0  0  0  0  0  0  0  0  0
  143.8491  137.4653  150.9747 H   0  0  0  0  0  0  0  0  0  0  0  0
  1  2  2  0  0  0  0
  2 29  1  0  0  0  0
  2  3  1  0  0  0  0
  3  4  1  0  0  0  0
  3 30  1  0  0  0  0
  3 31  1  0  0  0  0
  4  5  1  0  0  0  0
  4 28  1  0  0  0  0
  4 32  1  0  0  0  0
  5 10  1  0  0  0  0
  5  6  1  0  0  0  0
  5 33  1  0  0  0  0
  6  7  1  0  0  0  0
  6 34  1  0  0  0  0
  6 35  1  0  0  0  0
  7  8  1  0  0  0  0
  7 36  1  0  0  0  0
  7 37  1  0  0  0  0
  8  9  1  0  0  0  0
  8 38  1  0  0  0  0
  8 39  1  0  0  0  0
  9 10  1  0  0  0  0
  9 40  1  0  0  0  0
  9 41  1  0  0  0  0
 10 11  1  0  0  0  0
 11 16  1  0  0  0  0
 11 12  2  0  0  0  0
 12 13  1  0  0  0  0
 13 14  2  0  0  0  0
 13 42  1  0  0  0  0
 14 15  1  0  0  0  0
 15 19  1  0  0  0  0
 15 16  2  0  0  0  0
 16 17  1  0  0  0  0
 17 18  2  0  0  0  0
 18 19  1  0  0  0  0
 18 43  1  0  0  0  0
 19 20  1  0  0  0  0
 20 21  1  0  0  0  0
 20 44  1  0  0  0  0
 20 45  1  0  0  0  0
 21 22  1  0  0  0  0
 21 23  1  0  0  0  0
 21 46  1  0  0  0  0
 22 47  1  0  0  0  0
 23 27  1  0  0  0  0
 23 24  1  0  0  0  0
 23 48  1  0  0  0  0
 24 25  1  0  0  0  0
 24 49  1  0  0  0  0
 24 50  1  0  0  0  0
 25 26  1  0  0  0  0
 25 51  1  0  0  0  0
 25 52  1  0  0  0  0
 26 27  1  0  0  0  0
 26 53  1  0  0  0  0
 26 54  1  0  0  0  0
 28 29  1  0  0  0  0
 28 55  1  0  0  0  0
 28 56  1  0  0  0  0
 29 57  1  0  0  0  0
M  END
> <s_m_source_file>
AV-unprocessed.smi

> <i_m_source_file_index>
203

> <i_lp_mmshare_version>
43012

> <i_f3d_flags>
0

> <s_epik_input>
Tz1DMVtDSDJdW0NASF0oW0NIMl1bTkhdMSlbQ0BASF0yW0NIMl1bQ0gyXVtDSDJdW0NIMl1OMmMobltjSF1uMyljKGMzNCluW2NIXW40W0NIMl1bQ0BIXShbT0hdKVtDQEBIXTVbQ0gyXVtDSDJdW0NIMl1PNQ==

> <s_epik_cmdline>
J2VwaWtfcHl0aG9uJywgJy1waCcsICc3LjAnLCAnLXRuJywgJzgnLCAnLW1hJywgJzIwMCcsICctbWV0YWxfYmluZGluZycsICctaW1hZScsICc8aW5maWxlLm1hZT4nLCAnLW9tYWUnLCAnPG91dGZpbGUubWFlPic=

> <r_lp_tautomer_probability>
1

> <r_epik_Ionization_Penalty>
0.00175146

> <r_epik_Ionization_Penalty_Charging>
0

> <r_epik_Ionization_Penalty_Neutral>
0.00175146

> <r_epik_State_Penalty>
0.00109045

> <r_epik_Charging_Adjusted_Penalty>
0.00109045

> <i_epik_Tot_Q>
0

> <i_epik_Tot_abs_Q>
0

> <r_epik_Metal_State_Penalty>
-0

> <b_epik_Metal_Only>
0

> <s_lp_Force_Field>
OPLS_2005

> <r_lp_Energy>
58.3664

> <b_lp_Chiralities_Consistent>
1

> <s_lp_Variant>
AV-unprocessed.smi:203-5

> <Gold.Version>
5.8.1

> <Gold.Id.Protein>
6NUR|6NUR_protein|mol2

> <Gold.PLP.Fitness>
42.4159

> <Gold.PLP.PLP>
-41.2931

> <Gold.PLP.part.hbond>
-1.0000

> <Gold.PLP.part.metal>
0.0000

> <Gold.PLP.part.buried>
-8.8464

> <Gold.PLP.part.nonpolar>
-32.7654

> <Gold.PLP.part.repulsive>
0.6355

> <Gold.PLP.ligand.clash>
0.0000

> <Gold.PLP.ligand.torsion>
1.1151

> <Gold.PLP.Chemscore.Hbond>
1.0000

> <Gold.PLP.Chemscore.CHOScore>
0.0000

> <Gold.PLP.Chemscore.Metal>
0.0000

> <Gold.Chemscore.Hbonds>
donor molecule, donor type, donor heavy atom, donor atom, acceptor molecule, acceptor atom, score
      L1  H    29    57       P1 10171  1.00

> <Gold.PLP.Chemscore.Internal.Correction>
0.3529

> <Gold.Rescore>
     Score         DG    S(hbond)    S(metal)    S(lipo)     H(rot)  DE(clash)    DE(int)     intcor
     10.23     -12.12       0.99        0.00      87.80       2.72       0.00       1.88       ----

> <Gold.Chemscore.Fitness>
10.2322

> <Gold.Chemscore.DG>
-12.1154

> <Gold.Chemscore.ZeroCoef>
-5.4800

> <Gold.Chemscore.Hbond>
0.9937

> <Gold.Chemscore.Metal>
0.0000

> <Gold.Chemscore.Lipo>
87.7959

> <Gold.Chemscore.Internal_Hbond>
0.0000

> <Gold.Chemscore.DEClash>
0.0000

> <Gold.Chemscore.DEInternal>
1.8832

> <Gold.Chemscore.Rot>
2.7171

> <Gold.Chemscore.Internal.Correction>
   9.000000E+99

> <Gold.Chemscore.Hbonds>
donor molecule, donor type, donor heavy atom, donor atom, acceptor molecule, acceptor atom, score
      L1  H    29    57       P1 10171  0.97

> <Gold.Chemscore.Hbond.Weighted>
-3.3190

> <Gold.Chemscore.Metal.Weighted>
-0.0000

> <Gold.Chemscore.Lipo.Weighted>
-10.2721

> <Gold.Chemscore.Internal_Hbond.Weighted>
0.0000

> <Gold.Chemscore.DEClash.Weighted>
0.0000

> <Gold.Chemscore.DEInternal.Weighted>
1.8832

> <Gold.Chemscore.Rot.Weighted>
6.9557

> <Gold.Chemscore.Internal.Correction.Weighted>
   9.000000E+99

> <Gold.Protein.RotatedTorsions>
[ 6907 6896 6895 6894 ] final    4.42 input  -60.11 | X-H torsion
[ 7974 7965 7964 7962 ] final  160.19 input  175.53 | X-H torsion
[ 8008 7997 7996 7995 ] final  131.08 input   59.86 | X-H torsion
[ 10167 10162 10161 10158 ] final -178.86 input  -65.29 | X-H torsion
[ 10718 10713 10712 10709 ] final   57.58 input   66.30 | X-H torsion
[ 10763 10752 10751 10750 ] final   43.10 input  -60.55 | X-H torsion
[ 11005 11000 10999 10996 ] final  141.01 input  -57.11 | X-H torsion

> <Gold.Protein.ActiveResidues>
 VAL166  LYS551  ARG553  GLY616  TRP617  ASP618  TYR619  PRO620  LYS621  CYS622 
 ASP623  PHE694  ASN695  SER759  ASP760  ASP761  ALA762  ILE779  LEU786  VAL792 
 PHE793  MET794  SER795  GLU796  ALA797  LYS798  CYS799  TRP800  GLU811  SER814 

> <Gold.Protein.RotatedAtoms>
  151.6410  135.1012  160.0141 H   0  0  0  0  0  0  0  0  0  0  0  0  # atno 6907 bound_to 6896
  152.4054  133.6876  159.6360 H   0  0  0  0  0  0  0  0  0  0  0  0  # atno 6908 bound_to 6896
  150.7949  133.8636  159.3279 H   0  0  0  0  0  0  0  0  0  0  0  0  # atno 6909 bound_to 6896
  144.7750  139.7722  143.6282 H   0  0  0  0  0  0  0  0  0  0  0  0  # atno 7974 bound_to 7965
  156.2964  140.2580  156.2867 H   0  0  0  0  0  0  0  0  0  0  0  0  # atno 8008 bound_to 7997
  154.9549  140.0393  157.2181 H   0  0  0  0  0  0  0  0  0  0  0  0  # atno 8009 bound_to 7997
  154.8001  140.2826  155.5932 H   0  0  0  0  0  0  0  0  0  0  0  0  # atno 8010 bound_to 7997
  139.5413  144.2356  152.0900 H   0  0  0  0  0  0  0  0  0  0  0  0  # atno 10167 bound_to 10162
  157.5526  130.8776  149.8986 H   0  0  0  0  0  0  0  0  0  0  0  0  # atno 10718 bound_to 10713
  152.9868  135.6112  154.3056 H   0  0  0  0  0  0  0  0  0  0  0  0  # atno 10763 bound_to 10752
  154.2775  135.2778  155.2713 H   0  0  0  0  0  0  0  0  0  0  0  0  # atno 10764 bound_to 10752
  154.5068  135.5852  153.6630 H   0  0  0  0  0  0  0  0  0  0  0  0  # atno 10765 bound_to 10752
  140.0370  134.9324  157.0771 H   0  0  0  0  0  0  0  0  0  0  0  0  # atno 11005 bound_to 11000
  146.1923  139.5171  142.9797 LP  0  0  0  0  0  0  0  0  0  0  0  0  # atno 17320 bound_to 7965
  145.6212  141.0322  143.1914 LP  0  0  0  0  0  0  0  0  0  0  0  0  # atno 17321 bound_to 7965
  140.1835  144.4821  150.6516 LP  0  0  0  0  0  0  0  0  0  0  0  0  # atno 17342 bound_to 10162
  140.6643  143.2262  151.5780 LP  0  0  0  0  0  0  0  0  0  0  0  0  # atno 17343 bound_to 10162
  156.0590  130.3703  150.1025 LP  0  0  0  0  0  0  0  0  0  0  0  0  # atno 17370 bound_to 10713
  156.9197  130.9679  151.3550 LP  0  0  0  0  0  0  0  0  0  0  0  0  # atno 17371 bound_to 10713
  140.4132  134.1959  155.7163 LP  0  0  0  0  0  0  0  0  0  0  0  0  # atno 17394 bound_to 11000
  141.1862  133.8306  157.1075 LP  0  0  0  0  0  0  0  0  0  0  0  0  # atno 17395 bound_to 11000

$$$$
