AV-unprocessed.smi:287|AV-procd|sdf|2202|dock5
  -GOLD-   2262022 23D 1   1.00000     0.00000
 Structure written by MMmdl.
 55 58  0  0  0  0  0  0  0  0  1 V2000
  142.0861  134.9612  163.3862 C   0  0  0  0  0  0  0  0  0  0  0  0
  143.4383  134.8840  162.7639 C   0  0  0  0  0  0  0  0  0  0  0  0
  144.2460  133.8514  162.3859 C   0  0  0  0  0  0  0  0  0  0  0  0
  145.4358  134.4185  161.8387 C   0  0  0  0  0  0  0  0  0  0  0  0
  146.6268  133.6433  161.2918 C   0  0  2  0  0  0  0  0  0  0  0  0
  146.4318  132.1406  161.5523 C   0  0  0  0  0  0  0  0  0  0  0  0
  147.8435  133.9807  161.9296 O   0  0  0  0  0  0  0  0  0  0  0  0
  146.8534  133.8954  159.7840 C   0  0  0  0  0  0  0  0  0  0  0  0
  147.8612  133.0161  159.2055 N   0  0  0  0  0  0  0  0  0  0  0  0
  148.2621  133.1648  157.9254 C   0  0  0  0  0  0  0  0  0  0  0  0
  149.5939  133.3351  157.7496 N   0  0  0  0  0  0  0  0  0  0  0  0
  150.0943  133.4937  156.5217 C   0  0  0  0  0  0  0  0  0  0  0  0
  149.4485  133.5143  155.3554 N   0  0  0  0  0  0  0  0  0  0  0  0
  148.1048  133.3432  155.5206 C   0  0  0  0  0  0  0  0  0  0  0  0
  147.4326  133.1608  156.7639 C   0  0  0  0  0  0  0  0  0  0  0  0
  146.0688  133.0172  156.5289 N   0  0  0  0  0  0  0  0  0  0  0  0
  145.9494  133.1110  155.2331 C   0  0  0  0  0  0  0  0  0  0  0  0
  147.1249  133.3144  154.5481 N   0  0  0  0  0  0  0  0  0  0  0  0
  147.3018  133.4703  153.0694 C   0  0  2  0  0  0  0  0  0  0  0  0
  146.5648  134.5757  152.6527 O   0  0  0  0  0  0  0  0  0  0  0  0
  146.0343  134.3207  151.3581 C   0  0  2  0  0  0  0  0  0  0  0  0
  144.8679  135.2738  151.0429 C   0  0  0  0  0  0  0  0  0  0  0  0
  144.3902  135.0383  149.7356 O   0  0  0  0  0  0  0  0  0  0  0  0
  145.6776  132.8278  151.4141 C   0  0  2  0  0  0  0  0  0  0  0  0
  144.3969  132.6299  151.9889 O   0  0  0  0  0  0  0  0  0  0  0  0
  146.8061  132.2483  152.2663 C   0  0  2  0  0  0  0  0  0  0  0  0
  146.4219  131.1194  153.0352 O   0  0  0  0  0  0  0  0  0  0  0  0
  145.2559  135.7773  161.9419 C   0  0  0  0  0  0  0  0  0  0  0  0
  146.0890  136.9644  161.5856 C   0  0  0  0  0  0  0  0  0  0  0  0
  144.0461  136.0673  162.4976 O   0  0  0  0  0  0  0  0  0  0  0  0
  148.3685  133.6561  152.9369 H   0  0  0  0  0  0  0  0  0  0  0  0
  146.8340  134.4505  150.6259 H   0  0  0  0  0  0  0  0  0  0  0  0
  145.6637  132.3858  150.4173 H   0  0  0  0  0  0  0  0  0  0  0  0
  147.6258  131.9485  151.6121 H   0  0  0  0  0  0  0  0  0  0  0  0
  141.5727  134.0015  163.3220 H   0  0  0  0  0  0  0  0  0  0  0  0
  141.4696  135.7075  162.8851 H   0  0  0  0  0  0  0  0  0  0  0  0
  142.1611  135.2344  164.4388 H   0  0  0  0  0  0  0  0  0  0  0  0
  144.0090  132.8025  162.4874 H   0  0  0  0  0  0  0  0  0  0  0  0
  145.5299  131.7692  161.0644 H   0  0  0  0  0  0  0  0  0  0  0  0
  146.3370  131.9318  162.6188 H   0  0  0  0  0  0  0  0  0  0  0  0
  147.2717  131.5561  161.1744 H   0  0  0  0  0  0  0  0  0  0  0  0
  148.4608  133.2795  161.7872 H   0  0  0  0  0  0  0  0  0  0  0  0
  145.9156  133.8114  159.2331 H   0  0  0  0  0  0  0  0  0  0  0  0
  147.2079  134.9189  159.6550 H   0  0  0  0  0  0  0  0  0  0  0  0
  148.2314  132.3087  159.8242 H   0  0  0  0  0  0  0  0  0  0  0  0
  151.1651  133.6236  156.4654 H   0  0  0  0  0  0  0  0  0  0  0  0
  144.9916  133.0396  154.7386 H   0  0  0  0  0  0  0  0  0  0  0  0
  144.0399  135.0951  151.7293 H   0  0  0  0  0  0  0  0  0  0  0  0
  145.1657  136.3172  151.1542 H   0  0  0  0  0  0  0  0  0  0  0  0
  145.1237  135.0593  149.1401 H   0  0  0  0  0  0  0  0  0  0  0  0
  143.7493  132.9952  151.4038 H   0  0  0  0  0  0  0  0  0  0  0  0
  145.8333  131.4057  153.7166 H   0  0  0  0  0  0  0  0  0  0  0  0
  147.0880  136.8780  162.0134 H   0  0  0  0  0  0  0  0  0  0  0  0
  145.6444  137.8866  161.9602 H   0  0  0  0  0  0  0  0  0  0  0  0
  146.1892  137.0543  160.5038 H   0  0  0  0  0  0  0  0  0  0  0  0
  1  2  1  0  0  0  0
  1 35  1  0  0  0  0
  1 36  1  0  0  0  0
  1 37  1  0  0  0  0
  2 30  1  0  0  0  0
  2  3  2  0  0  0  0
  3  4  1  0  0  0  0
  3 38  1  0  0  0  0
  4  5  1  0  0  0  0
  4 28  2  0  0  0  0
  5  6  1  0  0  0  0
  5  7  1  0  0  0  0
  5  8  1  0  0  0  0
  6 39  1  0  0  0  0
  6 40  1  0  0  0  0
  6 41  1  0  0  0  0
  7 42  1  0  0  0  0
  8  9  1  0  0  0  0
  8 43  1  0  0  0  0
  8 44  1  0  0  0  0
  9 10  1  0  0  0  0
  9 45  1  0  0  0  0
 10 15  1  0  0  0  0
 10 11  2  0  0  0  0
 11 12  1  0  0  0  0
 12 13  2  0  0  0  0
 12 46  1  0  0  0  0
 13 14  1  0  0  0  0
 14 18  1  0  0  0  0
 14 15  2  0  0  0  0
 15 16  1  0  0  0  0
 16 17  2  0  0  0  0
 17 18  1  0  0  0  0
 17 47  1  0  0  0  0
 18 19  1  0  0  0  0
 19 31  1  0  0  0  0
 19 26  1  0  0  0  0
 19 20  1  0  0  0  0
 20 21  1  0  0  0  0
 21 32  1  0  0  0  0
 21 22  1  0  0  0  0
 21 24  1  0  0  0  0
 22 23  1  0  0  0  0
 22 48  1  0  0  0  0
 22 49  1  0  0  0  0
 23 50  1  0  0  0  0
 24 33  1  0  0  0  0
 24 25  1  0  0  0  0
 24 26  1  0  0  0  0
 25 51  1  0  0  0  0
 26 34  1  0  0  0  0
 26 27  1  0  0  0  0
 27 52  1  0  0  0  0
 28 29  1  0  0  0  0
 28 30  1  0  0  0  0
 29 53  1  0  0  0  0
 29 54  1  0  0  0  0
 29 55  1  0  0  0  0
M  END
> <s_m_source_file>
AV-unprocessed.smi

> <i_m_source_file_index>
287

> <i_lp_mmshare_version>
43012

> <i_f3d_flags>
0

> <s_epik_input>
W0NIM11jMVtjSF1jKGMobzEpW0NIM10pW0NAQF0oW0NIM10pKFtPSF0pW0NIMl1bTkhdYyhuW2NIXW4yKWMoYzIzKW5bY0hdbjNbQ0BASF00T1tDQEhdKFtDSDJdW09IXSlbQ0BASF0oW09IXSlbQ0BIXTRbT0hd

> <s_epik_cmdline>
J2VwaWtfcHl0aG9uJywgJy1waCcsICc3LjAnLCAnLXRuJywgJzgnLCAnLW1hJywgJzIwMCcsICctbWV0YWxfYmluZGluZycsICctaW1hZScsICc8aW5maWxlLm1hZT4nLCAnLW9tYWUnLCAnPG91dGZpbGUubWFlPic=

> <r_lp_tautomer_probability>
1

> <r_epik_Ionization_Penalty>
0.000992612

> <r_epik_Ionization_Penalty_Charging>
0

> <r_epik_Ionization_Penalty_Neutral>
0.000992612

> <r_epik_State_Penalty>
-0

> <r_epik_Charging_Adjusted_Penalty>
0

> <i_epik_Tot_Q>
0

> <i_epik_Tot_abs_Q>
0

> <r_epik_Metal_State_Penalty>
-0

> <b_epik_Metal_Only>
0

> <s_epik_Chemistry_Notes>
This compound contains an acetal/aminal-like group ( X-CH(R)-Y where X, Y are N, S, or O) that may be acid/base labile, releasing an aldehyde.

> <s_lp_Force_Field>
OPLS_2005

> <r_lp_Energy>
48.118

> <b_lp_Chiralities_Consistent>
1

> <s_lp_Variant>
AV-unprocessed.smi:287-26

> <Gold.Version>
5.8.1

> <Gold.Id.Protein>
6NUR|6NUR_protein|mol2

> <Gold.PLP.Fitness>
43.3801

> <Gold.PLP.PLP>
-35.9653

> <Gold.PLP.part.hbond>
-2.8939

> <Gold.PLP.part.metal>
0.0000

> <Gold.PLP.part.buried>
-7.9699

> <Gold.PLP.part.nonpolar>
-25.6063

> <Gold.PLP.part.repulsive>
0.3263

> <Gold.PLP.ligand.clash>
0.0000

> <Gold.PLP.ligand.torsion>
0.6625

> <Gold.PLP.Chemscore.Hbond>
2.0000

> <Gold.PLP.Chemscore.CHOScore>
0.8820

> <Gold.PLP.Chemscore.Metal>
0.0000

> <Gold.Chemscore.Hbonds>
donor molecule, donor type, donor heavy atom, donor atom, acceptor molecule, acceptor atom, score
      L1  H    23    50       P1  7921  1.00
      P1  H  6896  6908       L1    11  1.00
      L1  C    17    47       P1 10957  0.73

> <Gold.PLP.Chemscore.Internal.Correction>
0.0939

> <Gold.Rescore>
     Score         DG    S(hbond)    S(metal)    S(lipo)     H(rot)  DE(clash)    DE(int)     intcor
      6.13      -7.77       1.94        0.00      79.36       5.27       0.05       1.60       ----

> <Gold.Chemscore.Fitness>
6.1252

> <Gold.Chemscore.DG>
-7.7683

> <Gold.Chemscore.ZeroCoef>
-5.4800

> <Gold.Chemscore.Hbond>
1.9424

> <Gold.Chemscore.Metal>
0.0000

> <Gold.Chemscore.Lipo>
79.3559

> <Gold.Chemscore.Internal_Hbond>
0.0000

> <Gold.Chemscore.DEClash>
0.0456

> <Gold.Chemscore.DEInternal>
1.5974

> <Gold.Chemscore.Rot>
5.2672

> <Gold.Chemscore.Internal.Correction>
   9.000000E+99

> <Gold.Chemscore.Hbonds>
donor molecule, donor type, donor heavy atom, donor atom, acceptor molecule, acceptor atom, score
      L1  H    23    50       P1  7921  1.00
      P1  H  6896  6908       L1    11  0.91

> <Gold.Chemscore.Hbond.Weighted>
-6.4876

> <Gold.Chemscore.Metal.Weighted>
-0.0000

> <Gold.Chemscore.Lipo.Weighted>
-9.2846

> <Gold.Chemscore.Internal_Hbond.Weighted>
0.0000

> <Gold.Chemscore.DEClash.Weighted>
0.0456

> <Gold.Chemscore.DEInternal.Weighted>
1.5974

> <Gold.Chemscore.Rot.Weighted>
13.4839

> <Gold.Chemscore.Internal.Correction.Weighted>
   9.000000E+99

> <Gold.Protein.RotatedTorsions>
[ 6907 6896 6895 6894 ] final  122.31 input  -60.11 | X-H torsion
[ 7974 7965 7964 7962 ] final -129.17 input  175.53 | X-H torsion
[ 8008 7997 7996 7995 ] final  141.61 input   59.86 | X-H torsion
[ 10167 10162 10161 10158 ] final   65.77 input  -65.29 | X-H torsion
[ 10718 10713 10712 10709 ] final -108.28 input   66.30 | X-H torsion
[ 10763 10752 10751 10750 ] final -114.13 input  -60.55 | X-H torsion
[ 11005 11000 10999 10996 ] final  -86.64 input  -57.11 | X-H torsion

> <Gold.Protein.ActiveResidues>
 VAL166  LYS551  ARG553  GLY616  TRP617  ASP618  TYR619  PRO620  LYS621  CYS622 
 ASP623  PHE694  ASN695  SER759  ASP760  ASP761  ALA762  ILE779  LEU786  VAL792 
 PHE793  MET794  SER795  GLU796  ALA797  LYS798  CYS799  TRP800  GLU811  SER814 

> <Gold.Protein.RotatedAtoms>
  152.4253  133.7184  159.6518 H   0  0  0  0  0  0  0  0  0  0  0  0  # atno 6907 bound_to 6896
  150.8129  133.8378  159.3180 H   0  0  0  0  0  0  0  0  0  0  0  0  # atno 6908 bound_to 6896
  151.6083  135.1044  160.0127 H   0  0  0  0  0  0  0  0  0  0  0  0  # atno 6909 bound_to 6896
  144.9598  140.7434  143.4736 H   0  0  0  0  0  0  0  0  0  0  0  0  # atno 7974 bound_to 7965
  156.2963  140.2310  156.4593 H   0  0  0  0  0  0  0  0  0  0  0  0  # atno 8008 bound_to 7997
  154.8033  140.0447  157.1309 H   0  0  0  0  0  0  0  0  0  0  0  0  # atno 8009 bound_to 7997
  154.9508  140.3042  155.5079 H   0  0  0  0  0  0  0  0  0  0  0  0  # atno 8010 bound_to 7997
  140.1077  144.4847  150.6998 H   0  0  0  0  0  0  0  0  0  0  0  0  # atno 10167 bound_to 10162
  156.0478  130.5705  150.7939 H   0  0  0  0  0  0  0  0  0  0  0  0  # atno 10718 bound_to 10713
  154.8427  135.4429  154.1458 H   0  0  0  0  0  0  0  0  0  0  0  0  # atno 10763 bound_to 10752
  153.2631  135.6938  153.7564 H   0  0  0  0  0  0  0  0  0  0  0  0  # atno 10764 bound_to 10752
  153.6833  135.3399  155.3159 H   0  0  0  0  0  0  0  0  0  0  0  0  # atno 10765 bound_to 10752
  141.1627  133.7466  156.9190 H   0  0  0  0  0  0  0  0  0  0  0  0  # atno 11005 bound_to 11000
  145.2717  139.1952  143.4838 LP  0  0  0  0  0  0  0  0  0  0  0  0  # atno 17320 bound_to 7965
  146.3349  140.2665  142.8604 LP  0  0  0  0  0  0  0  0  0  0  0  0  # atno 17321 bound_to 7965
  140.6943  143.2394  151.5044 LP  0  0  0  0  0  0  0  0  0  0  0  0  # atno 17342 bound_to 10162
  139.5636  144.2095  152.1731 LP  0  0  0  0  0  0  0  0  0  0  0  0  # atno 17343 bound_to 10162
  157.5372  131.0939  150.9876 LP  0  0  0  0  0  0  0  0  0  0  0  0  # atno 17370 bound_to 10713
  157.0168  130.5658  149.5327 LP  0  0  0  0  0  0  0  0  0  0  0  0  # atno 17371 bound_to 10713
  140.1464  134.9259  157.2535 LP  0  0  0  0  0  0  0  0  0  0  0  0  # atno 17394 bound_to 11000
  140.2775  134.3389  155.7353 LP  0  0  0  0  0  0  0  0  0  0  0  0  # atno 17395 bound_to 11000

$$$$
