AV-unprocessed.smi:3337|AV-procd|sdf|12862|dock3
  -GOLD-   2272019263D 1   1.00000     0.00000
 Structure written by MMmdl.
 46 47  0  0  0  0  0  0  0  0  2 V2000
  144.2207  132.6640  149.8575 C   0  0  0  0  0  0  0  0  0  0  0  0
  145.0185  132.8151  151.1603 C   0  0  1  0  0  0  0  0  0  0  0  0
  145.8234  131.5424  151.4753 C   0  0  0  0  0  0  0  0  0  0  0  0
  146.6526  131.7184  152.7594 C   0  0  1  0  0  0  0  0  0  0  0  0
  147.4768  130.4607  153.0686 C   0  0  0  0  0  0  0  0  0  0  0  0
  147.5525  132.9666  152.6408 C   0  0  0  0  0  0  0  0  0  0  0  0
  146.7713  134.1959  152.3427 N   0  3  2  0  0  0  0  0  0  0  0  0
  146.0295  134.7280  153.5171 C   0  0  0  0  0  0  0  0  0  0  0  0
  146.3131  136.2230  153.7637 C   0  0  0  0  0  0  0  0  0  0  0  0
  147.7413  136.4838  153.8984 N   0  0  0  0  0  0  0  0  0  0  0  0
  148.4198  136.4519  155.0568 C   0  0  0  0  0  0  0  0  0  0  0  0
  147.8910  136.1718  156.1334 O   0  0  0  0  0  0  0  0  0  0  0  0
  149.9175  136.7883  154.9818 C   0  0  2  0  0  0  0  0  0  0  0  0
  150.6985  136.2925  156.2154 C   0  0  0  0  0  0  0  0  0  0  0  0
  150.1036  138.2154  154.7504 N   0  0  0  0  0  0  0  0  0  0  0  0
  149.6789  138.9842  153.7453 C   0  0  0  0  0  0  0  0  0  0  0  0
  149.9954  140.2647  153.8752 N   0  0  0  0  0  0  0  0  0  0  0  0
  150.6538  140.2169  155.0710 C   0  0  0  0  0  0  0  0  0  0  0  0
  150.7378  139.0162  155.6432 N   0  0  0  0  0  0  0  0  0  0  0  0
  145.9557  134.0422  151.1062 C   0  0  0  0  0  0  0  0  0  0  0  0
  144.8797  132.5137  149.0018 H   0  0  0  0  0  0  0  0  0  0  0  0
  143.6177  133.5512  149.6619 H   0  0  0  0  0  0  0  0  0  0  0  0
  143.5424  131.8117  149.9089 H   0  0  0  0  0  0  0  0  0  0  0  0
  144.2925  132.9629  151.9599 H   0  0  0  0  0  0  0  0  0  0  0  0
  145.1477  130.6927  151.5826 H   0  0  0  0  0  0  0  0  0  0  0  0
  146.4848  131.3079  150.6395 H   0  0  0  0  0  0  0  0  0  0  0  0
  145.9636  131.8657  153.5921 H   0  0  0  0  0  0  0  0  0  0  0  0
  148.2008  130.2553  152.2794 H   0  0  0  0  0  0  0  0  0  0  0  0
  146.8347  129.5846  153.1663 H   0  0  0  0  0  0  0  0  0  0  0  0
  148.0261  130.5708  154.0041 H   0  0  0  0  0  0  0  0  0  0  0  0
  148.1390  133.1077  153.5496 H   0  0  0  0  0  0  0  0  0  0  0  0
  148.2755  132.8196  151.8368 H   0  0  0  0  0  0  0  0  0  0  0  0
  144.9608  134.5469  153.4058 H   0  0  0  0  0  0  0  0  0  0  0  0
  146.3359  134.1797  154.4089 H   0  0  0  0  0  0  0  0  0  0  0  0
  145.9381  136.8152  152.9286 H   0  0  0  0  0  0  0  0  0  0  0  0
  145.8027  136.5887  154.6550 H   0  0  0  0  0  0  0  0  0  0  0  0
  148.2463  136.7232  153.0572 H   0  0  0  0  0  0  0  0  0  0  0  0
  150.3262  136.2680  154.1136 H   0  0  0  0  0  0  0  0  0  0  0  0
  150.5876  135.2151  156.3428 H   0  0  0  0  0  0  0  0  0  0  0  0
  150.3604  136.7700  157.1359 H   0  0  0  0  0  0  0  0  0  0  0  0
  151.7635  136.5007  156.1094 H   0  0  0  0  0  0  0  0  0  0  0  0
  149.1242  138.6005  152.9016 H   0  0  0  0  0  0  0  0  0  0  0  0
  151.0780  141.0944  155.5368 H   0  0  0  0  0  0  0  0  0  0  0  0
  146.6423  133.9339  150.2653 H   0  0  0  0  0  0  0  0  0  0  0  0
  145.3845  134.9476  150.9055 H   0  0  0  0  0  0  0  0  0  0  0  0
  147.4618  134.9031  152.1346 H   0  0  0  0  0  0  0  0  0  0  0  0
  1  2  1  0  0  0  0
  1 21  1  0  0  0  0
  1 22  1  0  0  0  0
  1 23  1  0  0  0  0
  2 20  1  0  0  0  0
  2  3  1  0  0  0  0
  2 24  1  0  0  0  0
  3  4  1  0  0  0  0
  3 25  1  0  0  0  0
  3 26  1  0  0  0  0
  4  5  1  0  0  0  0
  4  6  1  0  0  0  0
  4 27  1  0  0  0  0
  5 28  1  0  0  0  0
  5 29  1  0  0  0  0
  5 30  1  0  0  0  0
  6  7  1  0  0  0  0
  6 31  1  0  0  0  0
  6 32  1  0  0  0  0
  7  8  1  0  0  0  0
  7 20  1  0  0  0  0
  7 46  1  0  0  0  0
  8  9  1  0  0  0  0
  8 33  1  0  0  0  0
  8 34  1  0  0  0  0
  9 10  1  0  0  0  0
  9 35  1  0  0  0  0
  9 36  1  0  0  0  0
 10 11  1  0  0  0  0
 10 37  1  0  0  0  0
 11 12  2  0  0  0  0
 11 13  1  0  0  0  0
 13 14  1  0  0  0  0
 13 15  1  0  0  0  0
 13 38  1  0  0  0  0
 14 39  1  0  0  0  0
 14 40  1  0  0  0  0
 14 41  1  0  0  0  0
 15 19  1  0  0  0  0
 15 16  1  0  0  0  0
 16 17  2  0  0  0  0
 16 42  1  0  0  0  0
 17 18  1  0  0  0  0
 18 19  2  0  0  0  0
 18 43  1  0  0  0  0
 20 44  1  0  0  0  0
 20 45  1  0  0  0  0
M  CHG  1   7   1
M  END
> <s_m_source_file>
AV-unprocessed.smi

> <i_m_source_file_index>
3337

> <i_lp_mmshare_version>
43012

> <i_f3d_flags>
0

> <s_epik_input>
W0NIM11bQ0BASF0xW0NIMl1bQ0BASF0oW0NIM10pW0NIMl1OKFtDSDJdMSlbQ0gyXVtDSDJdW05IXUMoPU8pW0NASF0oW0NIM10pbjJbY0hdbltjSF1uMg==

> <s_epik_cmdline>
J2VwaWtfcHl0aG9uJywgJy1waCcsICc3LjAnLCAnLXRuJywgJzgnLCAnLW1hJywgJzIwMCcsICctbWV0YWxfYmluZGluZycsICctaW1hZScsICc8aW5maWxlLm1hZT4nLCAnLW9tYWUnLCAnPG91dGZpbGUubWFlPic=

> <r_lp_tautomer_probability>
1

> <r_epik_Ionization_Penalty>
0.00175613

> <r_epik_Ionization_Penalty_Charging>
0.00174812

> <r_epik_Ionization_Penalty_Neutral>
8.01354e-06

> <r_epik_State_Penalty>
0.00118332

> <r_epik_Charging_Adjusted_Penalty>
0.00293143

> <i_epik_Tot_Q>
1

> <i_epik_Tot_abs_Q>
1

> <r_epik_Metal_State_Penalty>
-0

> <b_epik_Metal_Only>
0

> <s_lp_Force_Field>
OPLS_2005

> <r_lp_Energy>
24.5444

> <b_lp_Chiralities_Consistent>
1

> <s_lp_Variant>
AV-unprocessed.smi:3337-2

> <Gold.Version>
5.8.1

> <Gold.Id.Protein>
6NUR|6NUR_protein|mol2

> <Gold.PLP.Fitness>
43.9226

> <Gold.PLP.PLP>
-29.9906

> <Gold.PLP.part.hbond>
-2.7318

> <Gold.PLP.part.metal>
0.0000

> <Gold.PLP.part.buried>
-4.6715

> <Gold.PLP.part.nonpolar>
-23.4448

> <Gold.PLP.part.repulsive>
0.1612

> <Gold.PLP.ligand.clash>
0.0000

> <Gold.PLP.ligand.torsion>
1.3074

> <Gold.PLP.Chemscore.Hbond>
3.9750

> <Gold.PLP.Chemscore.CHOScore>
1.4962

> <Gold.PLP.Chemscore.Metal>
0.0000

> <Gold.Chemscore.Hbonds>
donor molecule, donor type, donor heavy atom, donor atom, acceptor molecule, acceptor atom, score
      L1  H     7    46       P1  7948  2.00
      L1  H    10    37       P1  7948  0.81
      L1  C    16    42       P1  7948  0.93
      L1  C    16    42       P1  7957  0.52

> <Gold.PLP.Chemscore.Internal.Correction>
0.1332

> <Gold.Rescore>
     Score         DG    S(hbond)    S(metal)    S(lipo)     H(rot)  DE(clash)    DE(int)     intcor
     13.85     -15.38       2.81        0.00      59.51       2.51       0.00       1.53       ----

> <Gold.Chemscore.Fitness>
13.8518

> <Gold.Chemscore.DG>
-15.3823

> <Gold.Chemscore.ZeroCoef>
-5.4800

> <Gold.Chemscore.Hbond>
2.8063

> <Gold.Chemscore.Metal>
0.0000

> <Gold.Chemscore.Lipo>
59.5068

> <Gold.Chemscore.Internal_Hbond>
0.0000

> <Gold.Chemscore.DEClash>
0.0048

> <Gold.Chemscore.DEInternal>
1.5257

> <Gold.Chemscore.Rot>
2.5129

> <Gold.Chemscore.Internal.Correction>
   9.000000E+99

> <Gold.Chemscore.Hbonds>
donor molecule, donor type, donor heavy atom, donor atom, acceptor molecule, acceptor atom, score
      L1  H     7    46       P1  7948  0.89
      L1  H    10    37       P1  7948  0.76

> <Gold.Chemscore.Hbond.Weighted>
-9.3731

> <Gold.Chemscore.Metal.Weighted>
-0.0000

> <Gold.Chemscore.Lipo.Weighted>
-6.9623

> <Gold.Chemscore.Internal_Hbond.Weighted>
0.0000

> <Gold.Chemscore.DEClash.Weighted>
0.0048

> <Gold.Chemscore.DEInternal.Weighted>
1.5257

> <Gold.Chemscore.Rot.Weighted>
6.4331

> <Gold.Chemscore.Internal.Correction.Weighted>
   9.000000E+99

> <Gold.Protein.RotatedTorsions>
[ 6907 6896 6895 6894 ] final -134.29 input  -60.11 | X-H torsion
[ 7974 7965 7964 7962 ] final  -20.84 input  175.53 | X-H torsion
[ 8008 7997 7996 7995 ] final  -56.83 input   59.86 | X-H torsion
[ 10167 10162 10161 10158 ] final -163.70 input  -65.29 | X-H torsion
[ 10718 10713 10712 10709 ] final    4.50 input   66.30 | X-H torsion
[ 10763 10752 10751 10750 ] final -178.88 input  -60.55 | X-H torsion
[ 11005 11000 10999 10996 ] final  -95.64 input  -57.11 | X-H torsion

> <Gold.Protein.ActiveResidues>
 VAL166  LYS551  ARG553  GLY616  TRP617  ASP618  TYR619  PRO620  LYS621  CYS622 
 ASP623  PHE694  ASN695  SER759  ASP760  ASP761  ALA762  ILE779  LEU786  VAL792 
 PHE793  MET794  SER795  GLU796  ALA797  LYS798  CYS799  TRP800  GLU811  SER814 

> <Gold.Protein.RotatedAtoms>
  150.9841  133.6216  159.2717 H   0  0  0  0  0  0  0  0  0  0  0  0  # atno 6907 bound_to 6896
  151.3460  135.0873  159.9397 H   0  0  0  0  0  0  0  0  0  0  0  0  # atno 6908 bound_to 6896
  152.5225  133.9443  159.7695 H   0  0  0  0  0  0  0  0  0  0  0  0  # atno 6909 bound_to 6896
  146.1766  140.4259  142.8511 H   0  0  0  0  0  0  0  0  0  0  0  0  # atno 7974 bound_to 7965
  154.4245  140.1121  156.5700 H   0  0  0  0  0  0  0  0  0  0  0  0  # atno 8008 bound_to 7997
  155.6222  140.3495  155.4637 H   0  0  0  0  0  0  0  0  0  0  0  0  # atno 8009 bound_to 7997
  156.0015  140.1200  157.0532 H   0  0  0  0  0  0  0  0  0  0  0  0  # atno 8010 bound_to 7997
  139.6302  144.0454  152.2009 H   0  0  0  0  0  0  0  0  0  0  0  0  # atno 10167 bound_to 10162
  156.8935  130.5696  149.5649 H   0  0  0  0  0  0  0  0  0  0  0  0  # atno 10718 bound_to 10713
  154.5421  135.2807  155.1086 H   0  0  0  0  0  0  0  0  0  0  0  0  # atno 10763 bound_to 10752
  154.2565  135.6329  153.5262 H   0  0  0  0  0  0  0  0  0  0  0  0  # atno 10764 bound_to 10752
  152.9981  135.5595  154.5963 H   0  0  0  0  0  0  0  0  0  0  0  0  # atno 10765 bound_to 10752
  141.1436  133.8040  157.0462 H   0  0  0  0  0  0  0  0  0  0  0  0  # atno 11005 bound_to 11000
  144.8246  140.6607  143.6331 LP  0  0  0  0  0  0  0  0  0  0  0  0  # atno 17320 bound_to 7965
  145.4195  139.1566  143.4082 LP  0  0  0  0  0  0  0  0  0  0  0  0  # atno 17321 bound_to 7965
  140.0118  144.6218  150.7641 LP  0  0  0  0  0  0  0  0  0  0  0  0  # atno 17342 bound_to 10162
  140.7434  143.2846  151.3499 LP  0  0  0  0  0  0  0  0  0  0  0  0  # atno 17343 bound_to 10162
  156.0617  130.5668  150.9206 LP  0  0  0  0  0  0  0  0  0  0  0  0  # atno 17370 bound_to 10713
  157.6069  131.0938  150.8863 LP  0  0  0  0  0  0  0  0  0  0  0  0  # atno 17371 bound_to 10713
  140.0661  134.9728  157.1388 LP  0  0  0  0  0  0  0  0  0  0  0  0  # atno 17394 bound_to 11000
  140.3778  134.2320  155.7173 LP  0  0  0  0  0  0  0  0  0  0  0  0  # atno 17395 bound_to 11000

$$$$
