AV-unprocessed.smi:1749|AV-procd|sdf|7051|dock4
  -GOLD-   22720 8263D 1   1.00000     0.00000
 Structure written by MMmdl.
 31 32  0  0  0  0  0  0  0  0  2 V2000
  153.3807  141.1275  160.0002 C   0  0  0  0  0  0  0  0  0  0  0  0
  152.4938  142.2983  159.5537 C   0  0  1  0  0  0  0  0  0  0  0  0
  153.3220  143.5772  159.3245 C   0  0  0  0  0  0  0  0  0  0  0  0
  152.4379  144.7501  158.8721 C   0  0  0  0  0  0  0  0  0  0  0  0
  151.6348  144.3906  157.6106 C   0  0  0  0  0  0  0  0  0  0  0  0
  150.8002  143.1071  157.8030 C   0  0  2  0  0  0  0  0  0  0  0  0
  149.7082  143.3251  158.7492 N   0  0  0  0  0  0  0  0  0  0  0  0
  148.4340  142.9056  158.6271 C   0  0  0  0  0  0  0  0  0  0  0  0
  148.1130  142.2521  157.6352 O   0  0  0  0  0  0  0  0  0  0  0  0
  147.5641  143.2342  159.6186 N   0  5  0  0  0  0  0  0  0  0  0  0
  146.2560  142.9208  159.5647 C   0  0  0  0  0  0  0  0  0  0  0  0
  145.6735  142.1059  160.4589 N   0  0  0  0  0  0  0  0  0  0  0  0
  144.3222  141.9030  160.2135 N   0  0  0  0  0  0  0  0  0  0  0  0
  143.9157  142.5828  159.1419 C   0  0  0  0  0  0  0  0  0  0  0  0
  145.1462  143.5308  158.3344 S   0  0  0  0  0  0  0  0  0  0  0  0
  151.6874  141.9427  158.2862 C   0  0  0  0  0  0  0  0  0  0  0  0
  154.1160  140.8732  159.2362 H   0  0  0  0  0  0  0  0  0  0  0  0
  152.7838  140.2369  160.1982 H   0  0  0  0  0  0  0  0  0  0  0  0
  153.9213  141.3717  160.9151 H   0  0  0  0  0  0  0  0  0  0  0  0
  151.7885  142.4963  160.3624 H   0  0  0  0  0  0  0  0  0  0  0  0
  153.8484  143.8503  160.2396 H   0  0  0  0  0  0  0  0  0  0  0  0
  154.0889  143.3900  158.5716 H   0  0  0  0  0  0  0  0  0  0  0  0
  151.7556  145.0267  159.6772 H   0  0  0  0  0  0  0  0  0  0  0  0
  153.0558  145.6274  158.6794 H   0  0  0  0  0  0  0  0  0  0  0  0
  150.9924  145.2250  157.3270 H   0  0  0  0  0  0  0  0  0  0  0  0
  152.3252  144.2455  156.7791 H   0  0  0  0  0  0  0  0  0  0  0  0
  150.3694  142.8214  156.8418 H   0  0  0  0  0  0  0  0  0  0  0  0
  149.9345  143.8623  159.5732 H   0  0  0  0  0  0  0  0  0  0  0  0
  142.8849  142.5265  158.8256 H   0  0  0  0  0  0  0  0  0  0  0  0
  152.3770  141.6682  157.4867 H   0  0  0  0  0  0  0  0  0  0  0  0
  151.0717  141.0610  158.4696 H   0  0  0  0  0  0  0  0  0  0  0  0
  1  2  1  0  0  0  0
  1 17  1  0  0  0  0
  1 18  1  0  0  0  0
  1 19  1  0  0  0  0
  2 16  1  0  0  0  0
  2  3  1  0  0  0  0
  2 20  1  0  0  0  0
  3  4  1  0  0  0  0
  3 21  1  0  0  0  0
  3 22  1  0  0  0  0
  4  5  1  0  0  0  0
  4 23  1  0  0  0  0
  4 24  1  0  0  0  0
  5  6  1  0  0  0  0
  5 25  1  0  0  0  0
  5 26  1  0  0  0  0
  6  7  1  0  0  0  0
  6 16  1  0  0  0  0
  6 27  1  0  0  0  0
  7  8  1  0  0  0  0
  7 28  1  0  0  0  0
  8  9  2  0  0  0  0
  8 10  1  0  0  0  0
 10 11  1  0  0  0  0
 11 15  1  0  0  0  0
 11 12  2  0  0  0  0
 12 13  1  0  0  0  0
 13 14  2  0  0  0  0
 14 15  1  0  0  0  0
 14 29  1  0  0  0  0
 16 30  1  0  0  0  0
 16 31  1  0  0  0  0
M  CHG  1  10  -1
M  END
> <s_m_source_file>
AV-unprocessed.smi

> <i_m_source_file_index>
1749

> <i_lp_mmshare_version>
43012

> <i_f3d_flags>
0

> <s_epik_input>
W0NIM11bQ0BASF0xW0NIMl1bQ0gyXVtDSDJdW0NASF0oW0NIMl0xKVtOSF1DKD1PKVtOSF1jMm5uW2NIXXMy

> <s_epik_cmdline>
J2VwaWtfcHl0aG9uJywgJy1waCcsICc3LjAnLCAnLXRuJywgJzgnLCAnLW1hJywgJzIwMCcsICctbWV0YWxfYmluZGluZycsICctaW1hZScsICc8aW5maWxlLm1hZT4nLCAnLW9tYWUnLCAnPG91dGZpbGUubWFlPic=

> <r_lp_tautomer_probability>
1

> <r_epik_Ionization_Penalty>
4.55442

> <r_epik_Ionization_Penalty_Charging>
4.5081

> <r_epik_Ionization_Penalty_Neutral>
0.0463156

> <r_epik_State_Penalty>
4.50781

> <r_epik_Charging_Adjusted_Penalty>
9.01591

> <i_epik_Tot_Q>
-1

> <i_epik_Tot_abs_Q>
1

> <r_epik_Metal_State_Penalty>
0.823335

> <b_epik_Metal_Only>
1

> <s_lp_Force_Field>
OPLS_2005

> <r_lp_Energy>
7.79441

> <b_lp_Chiralities_Consistent>
1

> <s_lp_Variant>
AV-unprocessed.smi:1749-8

> <Gold.Version>
5.8.1

> <Gold.Id.Protein>
6NUR|6NUR_protein|mol2

> <Gold.PLP.Fitness>
35.6669

> <Gold.PLP.PLP>
-28.3372

> <Gold.PLP.part.hbond>
-2.0000

> <Gold.PLP.part.metal>
0.0000

> <Gold.PLP.part.buried>
-3.9659

> <Gold.PLP.part.nonpolar>
-22.7574

> <Gold.PLP.part.repulsive>
0.3608

> <Gold.PLP.ligand.clash>
0.0000

> <Gold.PLP.ligand.torsion>
0.8407

> <Gold.PLP.Chemscore.Hbond>
3.0000

> <Gold.PLP.Chemscore.CHOScore>
0.0000

> <Gold.PLP.Chemscore.Metal>
0.0000

> <Gold.Chemscore.Hbonds>
donor molecule, donor type, donor heavy atom, donor atom, acceptor molecule, acceptor atom, score
      P1  H  6933  6944       L1    10  0.90
      P1  H  6934  6946       L1    12  1.00

> <Gold.PLP.Chemscore.Internal.Correction>
0.0112

> <Gold.Rescore>
     Score         DG    S(hbond)    S(metal)    S(lipo)     H(rot)  DE(clash)    DE(int)     intcor
     15.62     -16.92       1.25        0.00      84.04       1.00       0.12       1.18       ----

> <Gold.Chemscore.Fitness>
15.6208

> <Gold.Chemscore.DG>
-16.9227

> <Gold.Chemscore.ZeroCoef>
-5.4800

> <Gold.Chemscore.Hbond>
1.2486

> <Gold.Chemscore.Metal>
0.0000

> <Gold.Chemscore.Lipo>
84.0361

> <Gold.Chemscore.Internal_Hbond>
0.0000

> <Gold.Chemscore.DEClash>
0.1179

> <Gold.Chemscore.DEInternal>
1.1840

> <Gold.Chemscore.Rot>
1.0000

> <Gold.Chemscore.Internal.Correction>
   9.000000E+99

> <Gold.Chemscore.Hbonds>
donor molecule, donor type, donor heavy atom, donor atom, acceptor molecule, acceptor atom, score
      P1  H  6933  6944       L1    10  0.14
      P1  H  6934  6946       L1    12  0.45

> <Gold.Chemscore.Hbond.Weighted>
-4.1704

> <Gold.Chemscore.Metal.Weighted>
-0.0000

> <Gold.Chemscore.Lipo.Weighted>
-9.8322

> <Gold.Chemscore.Internal_Hbond.Weighted>
0.0000

> <Gold.Chemscore.DEClash.Weighted>
0.1179

> <Gold.Chemscore.DEInternal.Weighted>
1.1840

> <Gold.Chemscore.Rot.Weighted>
2.5600

> <Gold.Chemscore.Internal.Correction.Weighted>
   9.000000E+99

> <Gold.Protein.RotatedTorsions>
[ 6907 6896 6895 6894 ] final  130.25 input  -60.11 | X-H torsion
[ 7974 7965 7964 7962 ] final  130.37 input  175.53 | X-H torsion
[ 8008 7997 7996 7995 ] final   67.26 input   59.86 | X-H torsion
[ 10167 10162 10161 10158 ] final -150.86 input  -65.29 | X-H torsion
[ 10718 10713 10712 10709 ] final   52.92 input   66.30 | X-H torsion
[ 10763 10752 10751 10750 ] final -158.10 input  -60.55 | X-H torsion
[ 11005 11000 10999 10996 ] final   12.36 input  -57.11 | X-H torsion

> <Gold.Protein.ActiveResidues>
 VAL166  LYS551  ARG553  GLY616  TRP617  ASP618  TYR619  PRO620  LYS621  CYS622 
 ASP623  PHE694  ASN695  SER759  ASP760  ASP761  ALA762  ILE779  LEU786  VAL792 
 PHE793  MET794  SER795  GLU796  ALA797  LYS798  CYS799  TRP800  GLU811  SER814 

> <Gold.Protein.RotatedAtoms>
  152.3544  133.6219  159.5968 H   0  0  0  0  0  0  0  0  0  0  0  0  # atno 6907 bound_to 6896
  150.7559  133.9523  159.3498 H   0  0  0  0  0  0  0  0  0  0  0  0  # atno 6908 bound_to 6896
  151.7370  135.0863  160.0360 H   0  0  0  0  0  0  0  0  0  0  0  0  # atno 6909 bound_to 6896
  145.0187  139.4152  143.5208 H   0  0  0  0  0  0  0  0  0  0  0  0  # atno 7974 bound_to 7965
  155.6902  140.3496  155.4890 H   0  0  0  0  0  0  0  0  0  0  0  0  # atno 8008 bound_to 7997
  155.9531  140.1123  157.0982 H   0  0  0  0  0  0  0  0  0  0  0  0  # atno 8009 bound_to 7997
  154.4126  140.1190  156.5065 H   0  0  0  0  0  0  0  0  0  0  0  0  # atno 8010 bound_to 7997
  139.7318  143.8797  152.2537 H   0  0  0  0  0  0  0  0  0  0  0  0  # atno 10167 bound_to 10162
  157.5119  130.8506  149.8446 H   0  0  0  0  0  0  0  0  0  0  0  0  # atno 10718 bound_to 10713
  154.7583  135.3111  154.8427 H   0  0  0  0  0  0  0  0  0  0  0  0  # atno 10763 bound_to 10752
  153.9194  135.6797  153.4752 H   0  0  0  0  0  0  0  0  0  0  0  0  # atno 10764 bound_to 10752
  153.1182  135.4834  154.9082 H   0  0  0  0  0  0  0  0  0  0  0  0  # atno 10765 bound_to 10752
  140.4928  134.0823  155.7775 H   0  0  0  0  0  0  0  0  0  0  0  0  # atno 11005 bound_to 11000
  146.3482  139.9672  142.8710 LP  0  0  0  0  0  0  0  0  0  0  0  0  # atno 17320 bound_to 7965
  145.1925  140.9818  143.4203 LP  0  0  0  0  0  0  0  0  0  0  0  0  # atno 17321 bound_to 7965
  139.8722  144.7062  150.8974 LP  0  0  0  0  0  0  0  0  0  0  0  0  # atno 17342 bound_to 10162
  140.7772  143.3729  151.1617 LP  0  0  0  0  0  0  0  0  0  0  0  0  # atno 17343 bound_to 10162
  156.0295  130.3769  150.1728 LP  0  0  0  0  0  0  0  0  0  0  0  0  # atno 17370 bound_to 10713
  156.9918  130.9895  151.3413 LP  0  0  0  0  0  0  0  0  0  0  0  0  # atno 17371 bound_to 10713
  141.1475  133.9028  157.2179 LP  0  0  0  0  0  0  0  0  0  0  0  0  # atno 17394 bound_to 11000
  139.9759  135.0114  156.9629 LP  0  0  0  0  0  0  0  0  0  0  0  0  # atno 17395 bound_to 11000

$$$$
