AV-unprocessed.smi:2941|AV-procd|sdf|11264|dock1
  -GOLD-   2272016153D 1   1.00000     0.00000
 Structure written by MMmdl.
 36 37  0  0  0  0  0  0  0  0  1 V2000
  146.7017  142.2950  154.0472 C   0  0  0  0  0  0  0  0  0  0  0  0
  147.8087  141.7311  154.7284 O   0  0  0  0  0  0  0  0  0  0  0  0
  147.6877  141.8287  156.1372 C   0  0  0  0  0  0  0  0  0  0  0  0
  147.2024  140.4786  156.6859 C   0  0  0  0  0  0  0  0  0  0  0  0
  148.2938  139.7334  157.3277 N   0  0  0  0  0  0  0  0  0  0  0  0
  149.5141  140.4149  157.5010 C   0  0  0  0  0  0  0  0  0  0  0  0
  150.5802  139.8385  158.0871 C   0  0  0  0  0  0  0  0  0  0  0  0
  151.8462  140.5916  158.2542 C   0  0  0  0  0  0  0  0  0  0  0  0
  152.9332  140.0686  158.0045 O   0  0  0  0  0  0  0  0  0  0  0  0
  151.7814  141.9968  158.7529 C   0  0  0  0  0  0  0  0  0  0  0  0
  152.1767  142.2418  160.0877 C   0  0  0  0  0  0  0  0  0  0  0  0
  152.1315  143.5425  160.6237 C   0  0  0  0  0  0  0  0  0  0  0  0
  152.5067  143.7594  161.9064 F   0  0  0  0  0  0  0  0  0  0  0  0
  151.6956  144.6164  159.8274 C   0  0  0  0  0  0  0  0  0  0  0  0
  151.3129  144.3891  158.4928 C   0  0  0  0  0  0  0  0  0  0  0  0
  151.3571  143.0895  157.9481 C   0  0  0  0  0  0  0  0  0  0  0  0
  151.0126  142.9311  156.6343 O   0  0  0  0  0  0  0  0  0  0  0  0
  150.4453  138.4642  158.5284 C   0  0  0  0  0  0  0  0  0  0  0  0
  149.2831  137.8038  158.3569 C   0  0  0  0  0  0  0  0  0  0  0  0
  149.1294  136.4524  158.7834 C   0  0  0  0  0  0  0  0  0  0  0  0
  149.0203  135.3475  159.1100 N   0  0  0  0  0  0  0  0  0  0  0  0
  148.1177  138.4358  157.7226 C   0  0  0  0  0  0  0  0  0  0  0  0
  147.0513  137.8429  157.5514 O   0  0  0  0  0  0  0  0  0  0  0  0
  146.8387  142.1847  152.9715 H   0  0  0  0  0  0  0  0  0  0  0  0
  146.6049  143.3590  154.2662 H   0  0  0  0  0  0  0  0  0  0  0  0
  145.7721  141.7945  154.3212 H   0  0  0  0  0  0  0  0  0  0  0  0
  148.6512  142.0934  156.5756 H   0  0  0  0  0  0  0  0  0  0  0  0
  146.9789  142.6169  156.3963 H   0  0  0  0  0  0  0  0  0  0  0  0
  146.3920  140.6455  157.3970 H   0  0  0  0  0  0  0  0  0  0  0  0
  146.7552  139.8903  155.8828 H   0  0  0  0  0  0  0  0  0  0  0  0
  149.5186  141.4309  157.1313 H   0  0  0  0  0  0  0  0  0  0  0  0
  152.5098  141.4281  160.7163 H   0  0  0  0  0  0  0  0  0  0  0  0
  151.6607  145.6151  160.2374 H   0  0  0  0  0  0  0  0  0  0  0  0
  150.9922  145.2215  157.8832 H   0  0  0  0  0  0  0  0  0  0  0  0
  150.4862  143.6414  156.3001 H   0  0  0  0  0  0  0  0  0  0  0  0
  151.2767  137.9545  158.9939 H   0  0  0  0  0  0  0  0  0  0  0  0
  1  2  1  0  0  0  0
  1 24  1  0  0  0  0
  1 25  1  0  0  0  0
  1 26  1  0  0  0  0
  2  3  1  0  0  0  0
  3  4  1  0  0  0  0
  3 27  1  0  0  0  0
  3 28  1  0  0  0  0
  4  5  1  0  0  0  0
  4 29  1  0  0  0  0
  4 30  1  0  0  0  0
  5 22  1  0  0  0  0
  5  6  1  0  0  0  0
  6  7  2  0  0  0  0
  6 31  1  0  0  0  0
  7  8  1  0  0  0  0
  7 18  1  0  0  0  0
  8  9  2  0  0  0  0
  8 10  1  0  0  0  0
 10 16  1  0  0  0  0
 10 11  2  0  0  0  0
 11 12  1  0  0  0  0
 11 32  1  0  0  0  0
 12 13  1  0  0  0  0
 12 14  2  0  0  0  0
 14 15  1  0  0  0  0
 14 33  1  0  0  0  0
 15 16  2  0  0  0  0
 15 34  1  0  0  0  0
 16 17  1  0  0  0  0
 17 35  1  0  0  0  0
 18 19  2  0  0  0  0
 18 36  1  0  0  0  0
 19 20  1  0  0  0  0
 19 22  1  0  0  0  0
 20 21  3  0  0  0  0
 22 23  2  0  0  0  0
M  END
> <s_m_source_file>
AV-unprocessed.smi

> <i_m_source_file_index>
2941

> <i_lp_mmshare_version>
43012

> <i_f3d_flags>
0

> <s_epik_input>
W0NIM11PW0NIMl1bQ0gyXW4xW2NIXWMoW2NIXWMoQyNOKWMxPU8pQyg9TyljMltjSF1jKEYpW2NIXVtjSF1jMltPSF0=

> <s_epik_cmdline>
J2VwaWtfcHl0aG9uJywgJy1waCcsICc3LjAnLCAnLXRuJywgJzgnLCAnLW1hJywgJzIwMCcsICctbWV0YWxfYmluZGluZycsICctaW1hZScsICc8aW5maWxlLm1hZT4nLCAnLW9tYWUnLCAnPG91dGZpbGUubWFlPic=

> <r_epik_Ionization_Penalty>
0.27579

> <r_epik_Ionization_Penalty_Charging>
5.62591e-11

> <r_epik_Ionization_Penalty_Neutral>
0.27579

> <r_epik_State_Penalty>
0.26814

> <r_epik_Charging_Adjusted_Penalty>
0.26814

> <i_epik_Tot_Q>
0

> <i_epik_Tot_abs_Q>
0

> <r_epik_Metal_State_Penalty>
0.26814

> <b_epik_Metal_Only>
0

> <s_lp_Force_Field>
OPLS_2005

> <r_lp_Energy>
22.041

> <b_lp_Chiralities_Consistent>
1

> <s_lp_Variant>
AV-unprocessed.smi:2941-1

> <Gold.Version>
5.8.1

> <Gold.Id.Protein>
6NUR|6NUR_protein|mol2

> <Gold.PLP.Fitness>
43.8353

> <Gold.PLP.PLP>
-41.0508

> <Gold.PLP.part.hbond>
-3.0000

> <Gold.PLP.part.metal>
0.0000

> <Gold.PLP.part.buried>
-6.2917

> <Gold.PLP.part.nonpolar>
-31.3007

> <Gold.PLP.part.repulsive>
0.1301

> <Gold.PLP.ligand.clash>
2.4318

> <Gold.PLP.ligand.torsion>
2.7820

> <Gold.PLP.Chemscore.Hbond>
3.0000

> <Gold.PLP.Chemscore.CHOScore>
0.0000

> <Gold.PLP.Chemscore.Metal>
0.0000

> <Gold.Chemscore.Hbonds>
donor molecule, donor type, donor heavy atom, donor atom, acceptor molecule, acceptor atom, score
      L1  H    17    35       P1  8028  1.00
      P1  H  6896  6907       L1    21  1.00
      P1  H  7997  8008       L1     9  1.00

> <Gold.PLP.Chemscore.Internal.Correction>
1.7803

> <Gold.Rescore>
     Score         DG    S(hbond)    S(metal)    S(lipo)     H(rot)  DE(clash)    DE(int)     intcor
     17.36     -20.14       2.92        0.00      86.40       2.04       0.06       2.72       ----

> <Gold.Chemscore.Fitness>
17.3582

> <Gold.Chemscore.DG>
-20.1386

> <Gold.Chemscore.ZeroCoef>
-5.4800

> <Gold.Chemscore.Hbond>
2.9222

> <Gold.Chemscore.Metal>
0.0000

> <Gold.Chemscore.Lipo>
86.3961

> <Gold.Chemscore.Internal_Hbond>
0.0000

> <Gold.Chemscore.DEClash>
0.0591

> <Gold.Chemscore.DEInternal>
2.7214

> <Gold.Chemscore.Rot>
2.0351

> <Gold.Chemscore.Internal.Correction>
   9.000000E+99

> <Gold.Chemscore.Hbonds>
donor molecule, donor type, donor heavy atom, donor atom, acceptor molecule, acceptor atom, score
      L1  H    17    35       P1  8028  0.94
      P1  H  6896  6907       L1    21  0.92
      P1  H  7997  8008       L1     9  0.95

> <Gold.Chemscore.Hbond.Weighted>
-9.7602

> <Gold.Chemscore.Metal.Weighted>
-0.0000

> <Gold.Chemscore.Lipo.Weighted>
-10.1083

> <Gold.Chemscore.Internal_Hbond.Weighted>
0.0000

> <Gold.Chemscore.DEClash.Weighted>
0.0591

> <Gold.Chemscore.DEInternal.Weighted>
2.7214

> <Gold.Chemscore.Rot.Weighted>
5.2099

> <Gold.Chemscore.Internal.Correction.Weighted>
   9.000000E+99

> <Gold.Protein.RotatedTorsions>
[ 6907 6896 6895 6894 ] final  -80.82 input  -60.11 | X-H torsion
[ 7974 7965 7964 7962 ] final  146.11 input  175.53 | X-H torsion
[ 8008 7997 7996 7995 ] final  -71.39 input   59.86 | X-H torsion
[ 10167 10162 10161 10158 ] final  -33.06 input  -65.29 | X-H torsion
[ 10718 10713 10712 10709 ] final -105.08 input   66.30 | X-H torsion
[ 10763 10752 10751 10750 ] final  154.11 input  -60.55 | X-H torsion
[ 11005 11000 10999 10996 ] final   21.48 input  -57.11 | X-H torsion

> <Gold.Protein.ActiveResidues>
 VAL166  LYS551  ARG553  GLY616  TRP617  ASP618  TYR619  PRO620  LYS621  CYS622 
 ASP623  PHE694  ASN695  SER759  ASP760  ASP761  ALA762  ILE779  LEU786  VAL792 
 PHE793  MET794  SER795  GLU796  ALA797  LYS798  CYS799  TRP800  GLU811  SER814 

> <Gold.Protein.RotatedAtoms>
  150.6922  134.3911  159.5076 H   0  0  0  0  0  0  0  0  0  0  0  0  # atno 6907 bound_to 6896
  152.1699  134.8840  160.0544 H   0  0  0  0  0  0  0  0  0  0  0  0  # atno 6908 bound_to 6896
  151.9870  133.3743  159.4166 H   0  0  0  0  0  0  0  0  0  0  0  0  # atno 6909 bound_to 6896
  144.8698  139.5865  143.5892 H   0  0  0  0  0  0  0  0  0  0  0  0  # atno 7974 bound_to 7965
  154.5084  140.0816  156.7940 H   0  0  0  0  0  0  0  0  0  0  0  0  # atno 8008 bound_to 7997
  155.3841  140.3429  155.4230 H   0  0  0  0  0  0  0  0  0  0  0  0  # atno 8009 bound_to 7997
  156.1543  140.1568  156.8705 H   0  0  0  0  0  0  0  0  0  0  0  0  # atno 8010 bound_to 7997
  140.7211  143.3648  151.1892 H   0  0  0  0  0  0  0  0  0  0  0  0  # atno 10167 bound_to 10162
  156.0331  130.5546  150.7488 H   0  0  0  0  0  0  0  0  0  0  0  0  # atno 10718 bound_to 10713
  154.1470  135.2817  155.3145 H   0  0  0  0  0  0  0  0  0  0  0  0  # atno 10763 bound_to 10752
  154.6245  135.5456  153.7615 H   0  0  0  0  0  0  0  0  0  0  0  0  # atno 10764 bound_to 10752
  153.0233  135.6447  154.1615 H   0  0  0  0  0  0  0  0  0  0  0  0  # atno 10765 bound_to 10752
  140.3911  134.1818  155.7662 H   0  0  0  0  0  0  0  0  0  0  0  0  # atno 11005 bound_to 11000
  146.2922  139.7172  142.9153 LP  0  0  0  0  0  0  0  0  0  0  0  0  # atno 17320 bound_to 7965
  145.4153  141.0401  143.2994 LP  0  0  0  0  0  0  0  0  0  0  0  0  # atno 17321 bound_to 7965
  139.7208  143.9227  152.2984 LP  0  0  0  0  0  0  0  0  0  0  0  0  # atno 17342 bound_to 10162
  139.8983  144.6926  150.8693 LP  0  0  0  0  0  0  0  0  0  0  0  0  # atno 17343 bound_to 10162
  157.5038  131.0920  151.0282 LP  0  0  0  0  0  0  0  0  0  0  0  0  # atno 17370 bound_to 10713
  157.0656  130.5843  149.5393 LP  0  0  0  0  0  0  0  0  0  0  0  0  # atno 17371 bound_to 10713
  141.1890  133.8247  157.0971 LP  0  0  0  0  0  0  0  0  0  0  0  0  # atno 17394 bound_to 11000
  140.0406  134.9856  157.0955 LP  0  0  0  0  0  0  0  0  0  0  0  0  # atno 17395 bound_to 11000

$$$$
