AV-unprocessed.smi:221|AV-procd|sdf|1691|dock6
  -GOLD-   2262020133D 1   1.00000     0.00000
 Structure written by MMmdl.
 50 53  0  0  0  0  0  0  0  0  1 V2000
  144.2071  137.6158  161.8199 N   0  0  0  0  0  0  0  0  0  0  0  0
  145.3727  137.2160  161.3024 C   0  0  0  0  0  0  0  0  0  0  0  0
  145.8285  137.7152  160.2757 O   0  0  0  0  0  0  0  0  0  0  0  0
  146.1370  136.0909  162.0302 C   0  0  1  0  0  0  0  0  0  0  0  0
  145.3512  134.7935  162.2724 C   0  0  0  0  0  0  0  0  0  0  0  0
  146.4458  133.7644  162.5852 C   0  0  1  0  0  0  0  0  0  0  0  0
  146.2798  132.6721  161.8386 F   0  0  0  0  0  0  0  0  0  0  0  0
  147.7721  134.4657  162.2449 C   0  0  0  0  0  0  0  0  0  0  0  0
  147.4244  135.6538  161.4719 N   0  0  0  0  0  0  0  0  0  0  0  0
  147.5926  135.4428  160.1385 C   0  0  0  0  0  0  0  0  0  0  0  0
  146.9367  134.4428  159.4908 N   0  0  0  0  0  0  0  0  0  0  0  0
  147.1325  134.2440  158.1843 C   0  0  0  0  0  0  0  0  0  0  0  0
  147.9325  134.9106  157.3498 N   0  0  0  0  0  0  0  0  0  0  0  0
  148.6029  135.9058  157.9976 C   0  0  0  0  0  0  0  0  0  0  0  0
  148.4934  136.2350  159.3774 C   0  0  0  0  0  0  0  0  0  0  0  0
  149.3271  137.3041  159.6810 N   0  0  0  0  0  0  0  0  0  0  0  0
  149.9008  137.5900  158.5437 C   0  0  0  0  0  0  0  0  0  0  0  0
  149.5281  136.7967  157.4823 N   0  0  0  0  0  0  0  0  0  0  0  0
  150.0138  136.8954  156.1169 C   0  0  0  0  0  0  0  0  0  0  0  0
  150.9137  138.1336  155.8799 C   0  0  1  0  0  0  0  0  0  0  0  0
  151.5504  138.1469  154.4684 C   0  0  0  0  0  0  0  0  0  0  0  0
  151.8467  136.8390  154.0232 O   0  0  0  0  0  0  0  0  0  0  0  0
  150.1639  139.4515  156.2019 C   0  0  2  0  0  0  0  0  0  0  0  0
  149.1311  139.8705  155.1705 C   0  0  0  0  0  0  0  0  0  0  0  0
  148.9337  141.3468  155.4945 C   0  0  0  0  0  0  0  0  0  0  0  0
  150.1974  141.8086  155.9578 O   0  0  0  0  0  0  0  0  0  0  0  0
  151.0510  140.7013  156.2303 C   0  0  0  0  0  0  0  0  0  0  0  0
  146.3757  136.5133  163.0082 H   0  0  0  0  0  0  0  0  0  0  0  0
  146.4247  133.4476  163.6284 H   0  0  0  0  0  0  0  0  0  0  0  0
  143.6858  138.3538  161.3695 H   0  0  0  0  0  0  0  0  0  0  0  0
  143.8548  137.1828  162.6612 H   0  0  0  0  0  0  0  0  0  0  0  0
  144.6370  134.8934  163.0904 H   0  0  0  0  0  0  0  0  0  0  0  0
  144.7926  134.5006  161.3820 H   0  0  0  0  0  0  0  0  0  0  0  0
  148.2695  134.7934  163.1587 H   0  0  0  0  0  0  0  0  0  0  0  0
  148.4659  133.7942  161.7342 H   0  0  0  0  0  0  0  0  0  0  0  0
  146.5695  133.4332  157.7456 H   0  0  0  0  0  0  0  0  0  0  0  0
  150.6204  138.3900  158.4466 H   0  0  0  0  0  0  0  0  0  0  0  0
  150.5549  135.9811  155.8701 H   0  0  0  0  0  0  0  0  0  0  0  0
  149.1431  136.9216  155.4613 H   0  0  0  0  0  0  0  0  0  0  0  0
  151.7423  138.0577  156.5858 H   0  0  0  0  0  0  0  0  0  0  0  0
  150.8848  138.6191  153.7464 H   0  0  0  0  0  0  0  0  0  0  0  0
  152.4674  138.7360  154.4562 H   0  0  0  0  0  0  0  0  0  0  0  0
  151.4790  136.7237  153.1604 H   0  0  0  0  0  0  0  0  0  0  0  0
  149.6670  139.3624  157.1694 H   0  0  0  0  0  0  0  0  0  0  0  0
  149.5307  139.7592  154.1615 H   0  0  0  0  0  0  0  0  0  0  0  0
  148.2019  139.3036  155.2355 H   0  0  0  0  0  0  0  0  0  0  0  0
  148.5886  141.9211  154.6345 H   0  0  0  0  0  0  0  0  0  0  0  0
  148.2045  141.4657  156.2967 H   0  0  0  0  0  0  0  0  0  0  0  0
  151.5605  140.8283  157.1857 H   0  0  0  0  0  0  0  0  0  0  0  0
  151.8097  140.6564  155.4477 H   0  0  0  0  0  0  0  0  0  0  0  0
  1  2  1  0  0  0  0
  1 30  1  0  0  0  0
  1 31  1  0  0  0  0
  2  3  2  0  0  0  0
  2  4  1  0  0  0  0
  4 28  1  0  0  0  0
  4  9  1  0  0  0  0
  4  5  1  0  0  0  0
  5  6  1  0  0  0  0
  5 32  1  0  0  0  0
  5 33  1  0  0  0  0
  6 29  1  0  0  0  0
  6  7  1  0  0  0  0
  6  8  1  0  0  0  0
  8  9  1  0  0  0  0
  8 34  1  0  0  0  0
  8 35  1  0  0  0  0
  9 10  1  0  0  0  0
 10 15  1  0  0  0  0
 10 11  2  0  0  0  0
 11 12  1  0  0  0  0
 12 13  2  0  0  0  0
 12 36  1  0  0  0  0
 13 14  1  0  0  0  0
 14 18  1  0  0  0  0
 14 15  2  0  0  0  0
 15 16  1  0  0  0  0
 16 17  2  0  0  0  0
 17 18  1  0  0  0  0
 17 37  1  0  0  0  0
 18 19  1  0  0  0  0
 19 20  1  0  0  0  0
 19 38  1  0  0  0  0
 19 39  1  0  0  0  0
 20 21  1  0  0  0  0
 20 23  1  0  0  0  0
 20 40  1  0  0  0  0
 21 22  1  0  0  0  0
 21 41  1  0  0  0  0
 21 42  1  0  0  0  0
 22 43  1  0  0  0  0
 23 27  1  0  0  0  0
 23 24  1  0  0  0  0
 23 44  1  0  0  0  0
 24 25  1  0  0  0  0
 24 45  1  0  0  0  0
 24 46  1  0  0  0  0
 25 26  1  0  0  0  0
 25 47  1  0  0  0  0
 25 48  1  0  0  0  0
 26 27  1  0  0  0  0
 27 49  1  0  0  0  0
 27 50  1  0  0  0  0
M  END
> <s_m_source_file>
AV-unprocessed.smi

> <i_m_source_file_index>
221

> <i_lp_mmshare_version>
43012

> <i_f3d_flags>
0

> <s_epik_input>
W05IMl1DKD1PKVtDQEBIXTFbQ0gyXVtDQEBIXShGKVtDSDJdTjFjKG5bY0hdbjIpYyhjMjMpbltjSF1uM1tDSDJdW0NASF0oW0NIMl1bT0hdKVtDQEBIXTRbQ0gyXVtDSDJdT1tDSDJdNA==

> <s_epik_cmdline>
J2VwaWtfcHl0aG9uJywgJy1waCcsICc3LjAnLCAnLXRuJywgJzgnLCAnLW1hJywgJzIwMCcsICctbWV0YWxfYmluZGluZycsICctaW1hZScsICc8aW5maWxlLm1hZT4nLCAnLW9tYWUnLCAnPG91dGZpbGUubWFlPic=

> <r_lp_tautomer_probability>
1

> <r_epik_Ionization_Penalty>
0.000818822

> <r_epik_Ionization_Penalty_Charging>
0

> <r_epik_Ionization_Penalty_Neutral>
0.000818822

> <r_epik_State_Penalty>
0.000440551

> <r_epik_Charging_Adjusted_Penalty>
0.000440551

> <i_epik_Tot_Q>
0

> <i_epik_Tot_abs_Q>
0

> <r_epik_Metal_State_Penalty>
-0

> <b_epik_Metal_Only>
0

> <s_lp_Force_Field>
OPLS_2005

> <r_lp_Energy>
55.0143

> <b_lp_Chiralities_Consistent>
1

> <s_lp_Variant>
AV-unprocessed.smi:221-6

> <Gold.Version>
5.8.1

> <Gold.Id.Protein>
6NUR|6NUR_protein|mol2

> <Gold.PLP.Fitness>
44.7493

> <Gold.PLP.PLP>
-36.3964

> <Gold.PLP.part.hbond>
-3.9128

> <Gold.PLP.part.metal>
0.0000

> <Gold.PLP.part.buried>
-8.2396

> <Gold.PLP.part.nonpolar>
-25.8223

> <Gold.PLP.part.repulsive>
0.3530

> <Gold.PLP.ligand.clash>
0.0000

> <Gold.PLP.ligand.torsion>
0.4348

> <Gold.PLP.Chemscore.Hbond>
3.0000

> <Gold.PLP.Chemscore.CHOScore>
0.0000

> <Gold.PLP.Chemscore.Metal>
0.0000

> <Gold.Chemscore.Hbonds>
donor molecule, donor type, donor heavy atom, donor atom, acceptor molecule, acceptor atom, score
      L1  H    22    43       P1  7949  1.00
      P1  H  6931  6943       L1    16  0.02
      P1  H  6934  6947       L1     3  1.00
      P1  H 10752 10763       L1    22  1.00

> <Gold.PLP.Chemscore.Internal.Correction>
0.2226

> <Gold.Rescore>
     Score         DG    S(hbond)    S(metal)    S(lipo)     H(rot)  DE(clash)    DE(int)     intcor
     10.70     -14.03       2.82        0.00      74.08       3.72       0.00       3.33       ----

> <Gold.Chemscore.Fitness>
10.6976

> <Gold.Chemscore.DG>
-14.0280

> <Gold.Chemscore.ZeroCoef>
-5.4800

> <Gold.Chemscore.Hbond>
2.8156

> <Gold.Chemscore.Metal>
0.0000

> <Gold.Chemscore.Lipo>
74.0817

> <Gold.Chemscore.Internal_Hbond>
0.0000

> <Gold.Chemscore.DEClash>
0.0015

> <Gold.Chemscore.DEInternal>
3.3289

> <Gold.Chemscore.Rot>
3.7202

> <Gold.Chemscore.Internal.Correction>
   9.000000E+99

> <Gold.Chemscore.Hbonds>
donor molecule, donor type, donor heavy atom, donor atom, acceptor molecule, acceptor atom, score
      L1  H    22    43       P1  7949  0.88
      P1  H  6931  6943       L1    16  0.03
      P1  H  6934  6947       L1     3  0.48
      P1  H 10752 10763       L1    22  0.76

> <Gold.Chemscore.Hbond.Weighted>
-9.4042

> <Gold.Chemscore.Metal.Weighted>
-0.0000

> <Gold.Chemscore.Lipo.Weighted>
-8.6676

> <Gold.Chemscore.Internal_Hbond.Weighted>
0.0000

> <Gold.Chemscore.DEClash.Weighted>
0.0015

> <Gold.Chemscore.DEInternal.Weighted>
3.3289

> <Gold.Chemscore.Rot.Weighted>
9.5237

> <Gold.Chemscore.Internal.Correction.Weighted>
   9.000000E+99

> <Gold.Protein.RotatedTorsions>
[ 6907 6896 6895 6894 ] final   23.47 input  -60.11 | X-H torsion
[ 7974 7965 7964 7962 ] final  176.04 input  175.53 | X-H torsion
[ 8008 7997 7996 7995 ] final  113.94 input   59.86 | X-H torsion
[ 10167 10162 10161 10158 ] final  -95.57 input  -65.29 | X-H torsion
[ 10718 10713 10712 10709 ] final   73.01 input   66.30 | X-H torsion
[ 10763 10752 10751 10750 ] final   48.06 input  -60.55 | X-H torsion
[ 11005 11000 10999 10996 ] final   29.12 input  -57.11 | X-H torsion

> <Gold.Protein.ActiveResidues>
 VAL166  LYS551  ARG553  GLY616  TRP617  ASP618  TYR619  PRO620  LYS621  CYS622 
 ASP623  PHE694  ASN695  SER759  ASP760  ASP761  ALA762  ILE779  LEU786  VAL792 
 PHE793  MET794  SER795  GLU796  ALA797  LYS798  CYS799  TRP800  GLU811  SER814 

> <Gold.Protein.RotatedAtoms>
  151.9429  135.0205  160.0536 H   0  0  0  0  0  0  0  0  0  0  0  0  # atno 6907 bound_to 6896
  152.2020  133.4843  159.5072 H   0  0  0  0  0  0  0  0  0  0  0  0  # atno 6908 bound_to 6896
  150.6957  134.1495  159.4178 H   0  0  0  0  0  0  0  0  0  0  0  0  # atno 6909 bound_to 6896
  144.7191  140.0037  143.6440 H   0  0  0  0  0  0  0  0  0  0  0  0  # atno 7974 bound_to 7965
  156.2290  140.2969  156.0140 H   0  0  0  0  0  0  0  0  0  0  0  0  # atno 8008 bound_to 7997
  155.2277  140.0418  157.2975 H   0  0  0  0  0  0  0  0  0  0  0  0  # atno 8009 bound_to 7997
  154.5964  140.2415  155.7859 H   0  0  0  0  0  0  0  0  0  0  0  0  # atno 8010 bound_to 7997
  140.3028  143.3152  152.0230 H   0  0  0  0  0  0  0  0  0  0  0  0  # atno 10167 bound_to 10162
  157.6528  130.9607  150.1008 H   0  0  0  0  0  0  0  0  0  0  0  0  # atno 10718 bound_to 10713
  152.9795  135.5956  154.3864 H   0  0  0  0  0  0  0  0  0  0  0  0  # atno 10763 bound_to 10752
  154.3523  135.2767  155.2367 H   0  0  0  0  0  0  0  0  0  0  0  0  # atno 10764 bound_to 10752
  154.4400  135.6015  153.6178 H   0  0  0  0  0  0  0  0  0  0  0  0  # atno 10765 bound_to 10752
  140.3083  134.2678  155.7739 H   0  0  0  0  0  0  0  0  0  0  0  0  # atno 11005 bound_to 11000
  146.0315  139.3339  143.0752 LP  0  0  0  0  0  0  0  0  0  0  0  0  # atno 17320 bound_to 7965
  145.8447  140.9561  143.0781 LP  0  0  0  0  0  0  0  0  0  0  0  0  # atno 17321 bound_to 7965
  139.4911  144.6443  151.6812 LP  0  0  0  0  0  0  0  0  0  0  0  0  # atno 17342 bound_to 10162
  140.5636  144.0227  150.6181 LP  0  0  0  0  0  0  0  0  0  0  0  0  # atno 17343 bound_to 10162
  156.1931  130.3656  149.8883 LP  0  0  0  0  0  0  0  0  0  0  0  0  # atno 17370 bound_to 10713
  156.6807  130.8857  151.3575 LP  0  0  0  0  0  0  0  0  0  0  0  0  # atno 17371 bound_to 10713
  141.2113  133.7691  156.9870 LP  0  0  0  0  0  0  0  0  0  0  0  0  # atno 17394 bound_to 11000
  140.1047  134.9514  157.1976 LP  0  0  0  0  0  0  0  0  0  0  0  0  # atno 17395 bound_to 11000

$$$$
