AV-unprocessed.smi:1589|AV-procd|sdf|6394|dock3
  -GOLD-   22720 7 33D 1   1.00000     0.00000
 Structure written by MMmdl.
 43 44  0  0  0  0  0  0  0  0  1 V2000
  151.2399  142.6112  156.8205 C   0  0  0  0  0  0  0  0  0  0  0  0
  150.1325  141.8151  156.0950 C   0  0  0  0  0  0  0  0  0  0  0  0
  149.1700  141.2417  157.1580 C   0  0  0  0  0  0  0  0  0  0  0  0
  150.6945  140.7556  155.2324 N   0  0  0  0  0  0  0  0  0  0  0  0
  149.6548  139.8054  154.8003 C   0  0  0  0  0  0  0  0  0  0  0  0
  150.2437  138.7016  153.9016 C   0  0  0  0  0  0  0  0  0  0  0  0
  151.2727  137.9808  154.6598 N   0  0  0  0  0  0  0  0  0  0  0  0
  151.1999  136.7160  155.1460 C   0  0  0  0  0  0  0  0  0  0  0  0
  151.9479  136.3006  156.0319 O   0  0  0  0  0  0  0  0  0  0  0  0
  150.2524  135.9555  154.5659 N   0  0  0  0  0  0  0  0  0  0  0  0
  149.9262  134.6064  154.8526 C   0  0  0  0  0  0  0  0  0  0  0  0
  150.5453  133.6978  155.7568 C   0  0  0  0  0  0  0  0  0  0  0  0
  149.9426  132.5183  155.7316 N   0  0  0  0  0  0  0  0  0  0  0  0
  148.9463  132.6483  154.8201 N   0  0  0  0  0  0  0  0  0  0  0  0
  148.0702  131.5202  154.5439 C   0  0  0  0  0  0  0  0  0  0  0  0
  146.7340  131.6102  155.2921 C   0  0  0  0  0  0  0  0  0  0  0  0
  145.6312  131.6464  154.5402 N   0  0  0  0  0  0  0  0  0  0  0  0
  146.6862  131.6503  156.5208 O   0  0  0  0  0  0  0  0  0  0  0  0
  148.9091  133.9143  154.2680 C   0  0  0  0  0  0  0  0  0  0  0  0
  152.3486  138.9068  155.0135 C   0  0  0  0  0  0  0  0  0  0  0  0
  151.7703  140.0146  155.9148 C   0  0  0  0  0  0  0  0  0  0  0  0
  150.8139  143.2862  157.5631 H   0  0  0  0  0  0  0  0  0  0  0  0
  151.8133  143.2414  156.1416 H   0  0  0  0  0  0  0  0  0  0  0  0
  151.9326  141.9483  157.3406 H   0  0  0  0  0  0  0  0  0  0  0  0
  149.5695  142.5103  155.4702 H   0  0  0  0  0  0  0  0  0  0  0  0
  148.8789  142.0087  157.8763 H   0  0  0  0  0  0  0  0  0  0  0  0
  149.6328  140.4283  157.7182 H   0  0  0  0  0  0  0  0  0  0  0  0
  148.2411  140.8743  156.7230 H   0  0  0  0  0  0  0  0  0  0  0  0
  149.1667  139.3631  155.6703 H   0  0  0  0  0  0  0  0  0  0  0  0
  148.8857  140.3138  154.2219 H   0  0  0  0  0  0  0  0  0  0  0  0
  149.4389  138.0659  153.5329 H   0  0  0  0  0  0  0  0  0  0  0  0
  150.6930  139.1426  153.0101 H   0  0  0  0  0  0  0  0  0  0  0  0
  149.6951  136.4008  153.8515 H   0  0  0  0  0  0  0  0  0  0  0  0
  151.3886  133.8388  156.4160 H   0  0  0  0  0  0  0  0  0  0  0  0
  147.8780  131.4622  153.4712 H   0  0  0  0  0  0  0  0  0  0  0  0
  148.5925  130.6056  154.8275 H   0  0  0  0  0  0  0  0  0  0  0  0
  144.7225  131.6996  154.9772 H   0  0  0  0  0  0  0  0  0  0  0  0
  145.7107  131.6143  153.5339 H   0  0  0  0  0  0  0  0  0  0  0  0
  148.1803  134.2017  153.5243 H   0  0  0  0  0  0  0  0  0  0  0  0
  153.1767  138.4135  155.5241 H   0  0  0  0  0  0  0  0  0  0  0  0
  152.7756  139.3386  154.1069 H   0  0  0  0  0  0  0  0  0  0  0  0
  152.5918  140.6804  156.1729 H   0  0  0  0  0  0  0  0  0  0  0  0
  151.3960  139.5857  156.8458 H   0  0  0  0  0  0  0  0  0  0  0  0
  1  2  1  0  0  0  0
  1 22  1  0  0  0  0
  1 23  1  0  0  0  0
  1 24  1  0  0  0  0
  2  3  1  0  0  0  0
  2  4  1  0  0  0  0
  2 25  1  0  0  0  0
  3 26  1  0  0  0  0
  3 27  1  0  0  0  0
  3 28  1  0  0  0  0
  4 21  1  0  0  0  0
  4  5  1  0  0  0  0
  5  6  1  0  0  0  0
  5 29  1  0  0  0  0
  5 30  1  0  0  0  0
  6  7  1  0  0  0  0
  6 31  1  0  0  0  0
  6 32  1  0  0  0  0
  7  8  1  0  0  0  0
  7 20  1  0  0  0  0
  8  9  2  0  0  0  0
  8 10  1  0  0  0  0
 10 11  1  0  0  0  0
 10 33  1  0  0  0  0
 11 19  2  0  0  0  0
 11 12  1  0  0  0  0
 12 13  2  0  0  0  0
 12 34  1  0  0  0  0
 13 14  1  0  0  0  0
 14 15  1  0  0  0  0
 14 19  1  0  0  0  0
 15 16  1  0  0  0  0
 15 35  1  0  0  0  0
 15 36  1  0  0  0  0
 16 17  1  0  0  0  0
 16 18  2  0  0  0  0
 17 37  1  0  0  0  0
 17 38  1  0  0  0  0
 19 39  1  0  0  0  0
 20 21  1  0  0  0  0
 20 40  1  0  0  0  0
 20 41  1  0  0  0  0
 21 42  1  0  0  0  0
 21 43  1  0  0  0  0
M  END
> <s_m_source_file>
AV-unprocessed.smi

> <i_m_source_file_index>
1589

> <i_lp_mmshare_version>
43012

> <i_f3d_flags>
0

> <s_epik_input>
W0NIM11bQ0hdKFtDSDNdKU4xW0NIMl1bQ0gyXU4oW0NIMl1bQ0gyXTEpQyg9TylbTkhdYzJbY0hdbm4oW2NIXTIpW0NIMl1DKD1PKVtOSDJd

> <s_epik_cmdline>
J2VwaWtfcHl0aG9uJywgJy1waCcsICc3LjAnLCAnLXRuJywgJzgnLCAnLW1hJywgJzIwMCcsICctbWV0YWxfYmluZGluZycsICctaW1hZScsICc8aW5maWxlLm1hZT4nLCAnLW9tYWUnLCAnPG91dGZpbGUubWFlPic=

> <r_lp_tautomer_probability>
1

> <r_epik_Ionization_Penalty>
0.648545

> <r_epik_Ionization_Penalty_Charging>
0

> <r_epik_Ionization_Penalty_Neutral>
0.648545

> <r_epik_State_Penalty>
0.6668

> <r_epik_Charging_Adjusted_Penalty>
0.6668

> <i_epik_Tot_Q>
0

> <i_epik_Tot_abs_Q>
0

> <r_epik_Metal_State_Penalty>
0.666798

> <b_epik_Metal_Only>
0

> <s_lp_Force_Field>
OPLS_2005

> <r_lp_Energy>
50.3263

> <b_lp_Chiralities_Consistent>
1

> <s_lp_Variant>
AV-unprocessed.smi:1589-2

> <Gold.Version>
5.8.1

> <Gold.Id.Protein>
6NUR|6NUR_protein|mol2

> <Gold.PLP.Fitness>
45.0819

> <Gold.PLP.PLP>
-34.9171

> <Gold.PLP.part.hbond>
-5.0856

> <Gold.PLP.part.metal>
0.0000

> <Gold.PLP.part.buried>
-0.2490

> <Gold.PLP.part.nonpolar>
-29.3985

> <Gold.PLP.part.repulsive>
0.2398

> <Gold.PLP.ligand.clash>
0.0000

> <Gold.PLP.ligand.torsion>
0.6206

> <Gold.PLP.Chemscore.Hbond>
3.0610

> <Gold.PLP.Chemscore.CHOScore>
0.7205

> <Gold.PLP.Chemscore.Metal>
0.0000

> <Gold.Chemscore.Hbonds>
donor molecule, donor type, donor heavy atom, donor atom, acceptor molecule, acceptor atom, score
      L1  H    10    33       P1  7948  0.73
      L1  H    17    37       P1 10957  0.74
      P1  H  7989  7998       L1     4  0.55
      P1  H 10752 10765       L1     9  1.00
      L1  C    19    39       P1  7948  0.40

> <Gold.PLP.Chemscore.Internal.Correction>
0.0614

> <Gold.Rescore>
     Score         DG    S(hbond)    S(metal)    S(lipo)     H(rot)  DE(clash)    DE(int)     intcor
     13.15     -14.99       1.85        0.00      68.22       1.82       0.24       1.60       ----

> <Gold.Chemscore.Fitness>
13.1468

> <Gold.Chemscore.DG>
-14.9862

> <Gold.Chemscore.ZeroCoef>
-5.4800

> <Gold.Chemscore.Hbond>
1.8508

> <Gold.Chemscore.Metal>
0.0000

> <Gold.Chemscore.Lipo>
68.2226

> <Gold.Chemscore.Internal_Hbond>
0.0000

> <Gold.Chemscore.DEClash>
0.2387

> <Gold.Chemscore.DEInternal>
1.6007

> <Gold.Chemscore.Rot>
1.8193

> <Gold.Chemscore.Internal.Correction>
   9.000000E+99

> <Gold.Chemscore.Hbonds>
donor molecule, donor type, donor heavy atom, donor atom, acceptor molecule, acceptor atom, score
      L1  H    10    33       P1  7948  0.39
      L1  H    17    37       P1 10957  0.08
      P1  H  7989  7998       L1     4  0.01
      P1  H 10752 10765       L1     9  0.54

> <Gold.Chemscore.Hbond.Weighted>
-6.1817

> <Gold.Chemscore.Metal.Weighted>
-0.0000

> <Gold.Chemscore.Lipo.Weighted>
-7.9820

> <Gold.Chemscore.Internal_Hbond.Weighted>
0.0000

> <Gold.Chemscore.DEClash.Weighted>
0.2387

> <Gold.Chemscore.DEInternal.Weighted>
1.6007

> <Gold.Chemscore.Rot.Weighted>
4.6575

> <Gold.Chemscore.Internal.Correction.Weighted>
   9.000000E+99

> <Gold.Protein.RotatedTorsions>
[ 6907 6896 6895 6894 ] final  -29.39 input  -60.11 | X-H torsion
[ 7974 7965 7964 7962 ] final  -60.05 input  175.53 | X-H torsion
[ 8008 7997 7996 7995 ] final -140.24 input   59.86 | X-H torsion
[ 10167 10162 10161 10158 ] final  139.06 input  -65.29 | X-H torsion
[ 10718 10713 10712 10709 ] final   39.74 input   66.30 | X-H torsion
[ 10763 10752 10751 10750 ] final -137.96 input  -60.55 | X-H torsion
[ 11005 11000 10999 10996 ] final  106.94 input  -57.11 | X-H torsion

> <Gold.Protein.ActiveResidues>
 VAL166  LYS551  ARG553  GLY616  TRP617  ASP618  TYR619  PRO620  LYS621  CYS622 
 ASP623  PHE694  ASN695  SER759  ASP760  ASP761  ALA762  ILE779  LEU786  VAL792 
 PHE793  MET794  SER795  GLU796  ALA797  LYS798  CYS799  TRP800  GLU811  SER814 

> <Gold.Protein.RotatedAtoms>
  151.1198  135.0073  159.8533 H   0  0  0  0  0  0  0  0  0  0  0  0  # atno 6907 bound_to 6896
  152.5447  134.1736  159.8617 H   0  0  0  0  0  0  0  0  0  0  0  0  # atno 6908 bound_to 6896
  151.1793  133.4690  159.2627 H   0  0  0  0  0  0  0  0  0  0  0  0  # atno 6909 bound_to 6896
  145.8201  140.8545  143.0137 H   0  0  0  0  0  0  0  0  0  0  0  0  # atno 7974 bound_to 7965
  155.4582  140.0543  157.2994 H   0  0  0  0  0  0  0  0  0  0  0  0  # atno 8008 bound_to 7997
  154.4748  140.2056  155.9859 H   0  0  0  0  0  0  0  0  0  0  0  0  # atno 8009 bound_to 7997
  156.1115  140.3203  155.8084 H   0  0  0  0  0  0  0  0  0  0  0  0  # atno 8010 bound_to 7997
  139.5091  144.6317  151.5800 H   0  0  0  0  0  0  0  0  0  0  0  0  # atno 10167 bound_to 10162
  157.3741  130.7717  149.7141 H   0  0  0  0  0  0  0  0  0  0  0  0  # atno 10718 bound_to 10713
  154.8649  135.3626  154.5307 H   0  0  0  0  0  0  0  0  0  0  0  0  # atno 10763 bound_to 10752
  153.5933  135.7015  153.5419 H   0  0  0  0  0  0  0  0  0  0  0  0  # atno 10764 bound_to 10752
  153.3354  135.4112  155.1491 H   0  0  0  0  0  0  0  0  0  0  0  0  # atno 10765 bound_to 10752
  139.8821  134.9385  156.5743 H   0  0  0  0  0  0  0  0  0  0  0  0  # atno 11005 bound_to 11000
  144.6748  140.0521  143.7478 LP  0  0  0  0  0  0  0  0  0  0  0  0  # atno 17320 bound_to 7965
  145.9684  139.2851  143.1113 LP  0  0  0  0  0  0  0  0  0  0  0  0  # atno 17321 bound_to 7965
  140.6052  143.9537  150.6414 LP  0  0  0  0  0  0  0  0  0  0  0  0  # atno 17342 bound_to 10162
  140.2762  143.3421  152.1193 LP  0  0  0  0  0  0  0  0  0  0  0  0  # atno 17343 bound_to 10162
  155.9761  130.4079  150.3799 LP  0  0  0  0  0  0  0  0  0  0  0  0  # atno 17370 bound_to 10713
  157.1894  131.0411  151.2708 LP  0  0  0  0  0  0  0  0  0  0  0  0  # atno 17371 bound_to 10713
  140.8075  133.8456  155.8780 LP  0  0  0  0  0  0  0  0  0  0  0  0  # atno 17394 bound_to 11000
  140.9537  134.1746  157.4708 LP  0  0  0  0  0  0  0  0  0  0  0  0  # atno 17395 bound_to 11000

$$$$
