AV-unprocessed.smi:1042|AV-procd|sdf|4538|dock10
  -GOLD-   22720 2563D 1   1.00000     0.00000
 Structure written by MMmdl.
 40 42  0  0  0  0  0  0  0  0  2 V2000
  146.3824  138.7190  154.5216 O   0  0  0  0  0  0  0  0  0  0  0  0
  147.1342  138.1113  153.7592 C   0  0  0  0  0  0  0  0  0  0  0  0
  146.7178  137.1406  152.9328 N   0  0  0  0  0  0  0  0  0  0  0  0
  145.3431  136.6612  152.8263 C   0  0  0  0  0  0  0  0  0  0  0  0
  145.2106  135.4595  151.8701 C   0  0  2  0  0  0  0  0  0  0  0  0
  144.9411  135.8464  150.4192 C   0  0  0  0  0  0  0  0  0  0  0  0
  144.3986  134.5476  149.8289 C   0  0  0  0  0  0  0  0  0  0  0  0
  143.5986  133.9286  150.9075 N   0  3  1  0  0  0  0  0  0  0  0  0
  143.5824  132.4506  150.8682 C   0  0  0  0  0  0  0  0  0  0  0  0
  144.6687  131.8114  151.6998 C   0  0  0  0  0  0  0  0  0  0  0  0
  144.7926  131.8527  150.1918 C   0  0  0  0  0  0  0  0  0  0  0  0
  144.0599  134.4955  152.1967 C   0  0  0  0  0  0  0  0  0  0  0  0
  148.4571  138.3199  153.6383 N   0  0  0  0  0  0  0  0  0  0  0  0
  149.2589  139.2796  154.3117 C   0  0  0  0  0  0  0  0  0  0  0  0
  150.5902  138.8772  154.5624 C   0  0  0  0  0  0  0  0  0  0  0  0
  151.4676  139.7588  155.2233 C   0  0  0  0  0  0  0  0  0  0  0  0
  150.9913  141.0227  155.6141 C   0  0  0  0  0  0  0  0  0  0  0  0
  149.6526  141.3453  155.3247 C   0  0  0  0  0  0  0  0  0  0  0  0
  148.8097  140.5016  154.6923 N   0  0  0  0  0  0  0  0  0  0  0  0
  147.4045  136.6886  152.3468 H   0  0  0  0  0  0  0  0  0  0  0  0
  145.0072  136.3830  153.8257 H   0  0  0  0  0  0  0  0  0  0  0  0
  144.6955  137.4765  152.4996 H   0  0  0  0  0  0  0  0  0  0  0  0
  146.1403  134.8879  151.8839 H   0  0  0  0  0  0  0  0  0  0  0  0
  144.1802  136.6268  150.3663 H   0  0  0  0  0  0  0  0  0  0  0  0
  145.8320  136.2055  149.9031 H   0  0  0  0  0  0  0  0  0  0  0  0
  143.8018  134.7100  148.9311 H   0  0  0  0  0  0  0  0  0  0  0  0
  145.2323  133.8948  149.5642 H   0  0  0  0  0  0  0  0  0  0  0  0
  142.6060  131.9777  150.7749 H   0  0  0  0  0  0  0  0  0  0  0  0
  145.3257  132.4601  152.2765 H   0  0  0  0  0  0  0  0  0  0  0  0
  144.4505  130.8477  152.1556 H   0  0  0  0  0  0  0  0  0  0  0  0
  144.6570  130.9160  149.6552 H   0  0  0  0  0  0  0  0  0  0  0  0
  145.5319  132.5291  149.7661 H   0  0  0  0  0  0  0  0  0  0  0  0
  144.3775  133.7262  152.9028 H   0  0  0  0  0  0  0  0  0  0  0  0
  143.2212  135.0271  152.6480 H   0  0  0  0  0  0  0  0  0  0  0  0
  148.9482  137.7277  152.9853 H   0  0  0  0  0  0  0  0  0  0  0  0
  150.9405  137.9025  154.2550 H   0  0  0  0  0  0  0  0  0  0  0  0
  152.4884  139.4696  155.4259 H   0  0  0  0  0  0  0  0  0  0  0  0
  151.6340  141.7262  156.1224 H   0  0  0  0  0  0  0  0  0  0  0  0
  149.2476  142.3054  155.6082 H   0  0  0  0  0  0  0  0  0  0  0  0
  142.6473  134.2448  150.7841 H   0  0  0  0  0  0  0  0  0  0  0  0
  1  2  2  0  0  0  0
  2  3  1  0  0  0  0
  2 13  1  0  0  0  0
  3  4  1  0  0  0  0
  3 20  1  0  0  0  0
  4  5  1  0  0  0  0
  4 21  1  0  0  0  0
  4 22  1  0  0  0  0
  5 12  1  0  0  0  0
  5  6  1  0  0  0  0
  5 23  1  0  0  0  0
  6  7  1  0  0  0  0
  6 24  1  0  0  0  0
  6 25  1  0  0  0  0
  7  8  1  0  0  0  0
  7 26  1  0  0  0  0
  7 27  1  0  0  0  0
  8  9  1  0  0  0  0
  8 12  1  0  0  0  0
  8 40  1  0  0  0  0
  9 11  1  0  0  0  0
  9 10  1  0  0  0  0
  9 28  1  0  0  0  0
 10 11  1  0  0  0  0
 10 29  1  0  0  0  0
 10 30  1  0  0  0  0
 11 31  1  0  0  0  0
 11 32  1  0  0  0  0
 12 33  1  0  0  0  0
 12 34  1  0  0  0  0
 13 14  1  0  0  0  0
 13 35  1  0  0  0  0
 14 19  1  0  0  0  0
 14 15  2  0  0  0  0
 15 16  1  0  0  0  0
 15 36  1  0  0  0  0
 16 17  2  0  0  0  0
 16 37  1  0  0  0  0
 17 18  1  0  0  0  0
 17 38  1  0  0  0  0
 18 19  2  0  0  0  0
 18 39  1  0  0  0  0
M  CHG  1   8   1
M  END
> <s_m_source_file>
AV-unprocessed.smi

> <i_m_source_file_index>
1042

> <i_lp_mmshare_version>
43012

> <i_f3d_flags>
0

> <s_epik_input>
bjFbY0hdW2NIXVtjSF1bY0hdYzFbTkhdQyg9TylbTkhdW0NIMl1bQ0BASF0yW0NIMl1bQ0gyXU4oW0NIMl0yKVtDSF0zW0NIMl1bQ0gyXTM=

> <s_epik_cmdline>
J2VwaWtfcHl0aG9uJywgJy1waCcsICc3LjAnLCAnLXRuJywgJzgnLCAnLW1hJywgJzIwMCcsICctbWV0YWxfYmluZGluZycsICctaW1hZScsICc8aW5maWxlLm1hZT4nLCAnLW9tYWUnLCAnPG91dGZpbGUubWFlPic=

> <r_lp_tautomer_probability>
1

> <r_epik_Ionization_Penalty>
0.000244736

> <r_epik_Ionization_Penalty_Charging>
0.000203384

> <r_epik_Ionization_Penalty_Neutral>
4.13519e-05

> <r_epik_State_Penalty>
-0

> <r_epik_Charging_Adjusted_Penalty>
0.000203384

> <i_epik_Tot_Q>
1

> <i_epik_Tot_abs_Q>
1

> <r_epik_Metal_State_Penalty>
-0

> <b_epik_Metal_Only>
0

> <s_lp_Force_Field>
OPLS_2005

> <r_lp_Energy>
38.555

> <b_lp_Chiralities_Consistent>
1

> <s_lp_Variant>
AV-unprocessed.smi:1042-3

> <Gold.Version>
5.8.1

> <Gold.Id.Protein>
6NUR|6NUR_protein|mol2

> <Gold.PLP.Fitness>
46.9902

> <Gold.PLP.PLP>
-33.7258

> <Gold.PLP.part.hbond>
-3.0947

> <Gold.PLP.part.metal>
0.0000

> <Gold.PLP.part.buried>
0.8331

> <Gold.PLP.part.nonpolar>
-31.2530

> <Gold.PLP.part.repulsive>
0.2325

> <Gold.PLP.ligand.clash>
0.0864

> <Gold.PLP.ligand.torsion>
1.4544

> <Gold.PLP.Chemscore.Hbond>
4.0000

> <Gold.PLP.Chemscore.CHOScore>
1.0000

> <Gold.PLP.Chemscore.Metal>
0.0000

> <Gold.Chemscore.Hbonds>
donor molecule, donor type, donor heavy atom, donor atom, acceptor molecule, acceptor atom, score
      L1  H     3    20       P1  7948  1.00
      L1  H     8    40       P1 10186  1.84
      L1  H    13    35       P1  7948  1.00
      L1  C    18    39       P1  8028  1.00

> <Gold.PLP.Chemscore.Internal.Correction>
1.2596

> <Gold.Rescore>
     Score         DG    S(hbond)    S(metal)    S(lipo)     H(rot)  DE(clash)    DE(int)     intcor
     16.86     -21.03       2.84        0.00      84.12       1.47       1.72       2.45       ----

> <Gold.Chemscore.Fitness>
16.8595

> <Gold.Chemscore.DG>
-21.0303

> <Gold.Chemscore.ZeroCoef>
-5.4800

> <Gold.Chemscore.Hbond>
2.8364

> <Gold.Chemscore.Metal>
0.0000

> <Gold.Chemscore.Lipo>
84.1166

> <Gold.Chemscore.Internal_Hbond>
0.0000

> <Gold.Chemscore.DEClash>
1.7225

> <Gold.Chemscore.DEInternal>
2.4483

> <Gold.Chemscore.Rot>
1.4707

> <Gold.Chemscore.Internal.Correction>
   9.000000E+99

> <Gold.Chemscore.Hbonds>
donor molecule, donor type, donor heavy atom, donor atom, acceptor molecule, acceptor atom, score
      L1  H     3    20       P1  7948  0.99
      L1  H     8    40       P1 10186  0.38
      L1  H    13    35       P1  7948  0.95

> <Gold.Chemscore.Hbond.Weighted>
-9.4737

> <Gold.Chemscore.Metal.Weighted>
-0.0000

> <Gold.Chemscore.Lipo.Weighted>
-9.8416

> <Gold.Chemscore.Internal_Hbond.Weighted>
0.0000

> <Gold.Chemscore.DEClash.Weighted>
1.7225

> <Gold.Chemscore.DEInternal.Weighted>
2.4483

> <Gold.Chemscore.Rot.Weighted>
3.7650

> <Gold.Chemscore.Internal.Correction.Weighted>
   9.000000E+99

> <Gold.Protein.RotatedTorsions>
[ 6907 6896 6895 6894 ] final  129.52 input  -60.11 | X-H torsion
[ 7974 7965 7964 7962 ] final  -25.50 input  175.53 | X-H torsion
[ 8008 7997 7996 7995 ] final  153.43 input   59.86 | X-H torsion
[ 10167 10162 10161 10158 ] final -116.84 input  -65.29 | X-H torsion
[ 10718 10713 10712 10709 ] final -176.98 input   66.30 | X-H torsion
[ 10763 10752 10751 10750 ] final   68.08 input  -60.55 | X-H torsion
[ 11005 11000 10999 10996 ] final   34.47 input  -57.11 | X-H torsion

> <Gold.Protein.ActiveResidues>
 VAL166  LYS551  ARG553  GLY616  TRP617  ASP618  TYR619  PRO620  LYS621  CYS622 
 ASP623  PHE694  ASN695  SER759  ASP760  ASP761  ALA762  ILE779  LEU786  VAL792 
 PHE793  MET794  SER795  GLU796  ALA797  LYS798  CYS799  TRP800  GLU811  SER814 

> <Gold.Protein.RotatedAtoms>
  152.3616  133.6304  159.6019 H   0  0  0  0  0  0  0  0  0  0  0  0  # atno 6907 bound_to 6896
  150.7605  133.9414  159.3466 H   0  0  0  0  0  0  0  0  0  0  0  0  # atno 6908 bound_to 6896
  151.7251  135.0887  160.0342 H   0  0  0  0  0  0  0  0  0  0  0  0  # atno 6909 bound_to 6896
  146.1487  140.4894  142.8620 H   0  0  0  0  0  0  0  0  0  0  0  0  # atno 7974 bound_to 7965
  156.2582  140.1994  156.6489 H   0  0  0  0  0  0  0  0  0  0  0  0  # atno 8008 bound_to 7997
  154.6552  140.0567  157.0025 H   0  0  0  0  0  0  0  0  0  0  0  0  # atno 8009 bound_to 7997
  155.1359  140.3238  155.4466 H   0  0  0  0  0  0  0  0  0  0  0  0  # atno 8010 bound_to 7997
  140.0749  143.4842  152.1959 H   0  0  0  0  0  0  0  0  0  0  0  0  # atno 10167 bound_to 10162
  156.8227  130.9625  151.3111 H   0  0  0  0  0  0  0  0  0  0  0  0  # atno 10718 bound_to 10713
  153.0218  135.5260  154.7080 H   0  0  0  0  0  0  0  0  0  0  0  0  # atno 10763 bound_to 10752
  154.6170  135.2884  155.0371 H   0  0  0  0  0  0  0  0  0  0  0  0  # atno 10764 bound_to 10752
  154.1371  135.6584  153.4987 H   0  0  0  0  0  0  0  0  0  0  0  0  # atno 10765 bound_to 10752
  140.2525  134.3286  155.7885 H   0  0  0  0  0  0  0  0  0  0  0  0  # atno 11005 bound_to 11000
  144.7877  140.5970  143.6562 LP  0  0  0  0  0  0  0  0  0  0  0  0  # atno 17320 bound_to 7965
  145.4875  139.1491  143.3728 LP  0  0  0  0  0  0  0  0  0  0  0  0  # atno 17321 bound_to 7965
  139.5814  144.7512  151.3631 LP  0  0  0  0  0  0  0  0  0  0  0  0  # atno 17342 bound_to 10162
  140.7107  143.7398  150.7562 LP  0  0  0  0  0  0  0  0  0  0  0  0  # atno 17343 bound_to 10162
  157.6448  130.8835  149.9517 LP  0  0  0  0  0  0  0  0  0  0  0  0  # atno 17370 bound_to 10713
  156.0979  130.3658  150.0272 LP  0  0  0  0  0  0  0  0  0  0  0  0  # atno 17371 bound_to 10713
  141.2200  133.7362  156.9060 LP  0  0  0  0  0  0  0  0  0  0  0  0  # atno 17394 bound_to 11000
  140.1544  134.9208  157.2634 LP  0  0  0  0  0  0  0  0  0  0  0  0  # atno 17395 bound_to 11000

$$$$
