AV-unprocessed.smi:816|AV-procd|sdf|3827|dock4
  -GOLD-   22720 1263D 1   1.00000     0.00000
 Structure written by MMmdl.
 40 41  0  0  0  0  0  0  0  0  1 V2000
  152.5605  142.7585  158.9979 C   0  0  0  0  0  0  0  0  0  0  0  0
  152.1130  141.3411  158.7615 C   0  0  0  0  0  0  0  0  0  0  0  0
  151.1568  141.1691  157.9093 N   0  0  0  0  0  0  0  0  0  0  0  0
  150.6699  139.9096  157.6185 N   0  0  0  0  0  0  0  0  0  0  0  0
  149.5985  139.9015  156.6156 C   0  0  0  0  0  0  0  0  0  0  0  0
  150.0039  140.6636  155.3349 C   0  0  1  0  0  0  0  0  0  0  0  0
  150.9249  139.8815  154.6010 O   0  0  0  0  0  0  0  0  0  0  0  0
  148.8033  140.9286  154.4132 C   0  0  0  0  0  0  0  0  0  0  0  0
  147.6253  141.0150  155.2049 O   0  0  0  0  0  0  0  0  0  0  0  0
  146.6950  141.9817  154.8904 C   0  0  0  0  0  0  0  0  0  0  0  0
  145.6915  142.2386  155.8471 C   0  0  0  0  0  0  0  0  0  0  0  0
  144.6972  143.2071  155.6083 C   0  0  0  0  0  0  0  0  0  0  0  0
  144.6979  143.9357  154.4027 C   0  0  0  0  0  0  0  0  0  0  0  0
  143.6729  144.9354  154.1527 C   0  0  0  0  0  0  0  0  0  0  0  0
  142.8567  145.7311  153.9539 N   0  0  0  0  0  0  0  0  0  0  0  0
  145.6973  143.6907  153.4403 C   0  0  0  0  0  0  0  0  0  0  0  0
  146.6901  142.7204  153.6802 C   0  0  0  0  0  0  0  0  0  0  0  0
  151.1272  138.7523  158.1757 C   0  0  0  0  0  0  0  0  0  0  0  0
  150.6674  137.6474  157.8837 O   0  0  0  0  0  0  0  0  0  0  0  0
  152.2080  138.9545  159.1433 C   0  0  0  0  0  0  0  0  0  0  0  0
  152.7114  137.7681  159.7572 C   0  0  0  0  0  0  0  0  0  0  0  0
  153.1181  136.8152  160.2740 N   0  0  0  0  0  0  0  0  0  0  0  0
  152.6963  140.1860  159.4361 C   0  0  0  0  0  0  0  0  0  0  0  0
  153.8179  140.4490  160.4316 C   0  0  0  0  0  0  0  0  0  0  0  0
  152.4530  143.0290  160.0484 H   0  0  0  0  0  0  0  0  0  0  0  0
  151.9772  143.4717  158.4136 H   0  0  0  0  0  0  0  0  0  0  0  0
  153.6068  142.8851  158.7196 H   0  0  0  0  0  0  0  0  0  0  0  0
  149.2576  138.8914  156.3804 H   0  0  0  0  0  0  0  0  0  0  0  0
  148.7284  140.3850  157.0636 H   0  0  0  0  0  0  0  0  0  0  0  0
  150.4755  141.6156  155.5826 H   0  0  0  0  0  0  0  0  0  0  0  0
  151.5144  139.4598  155.2073 H   0  0  0  0  0  0  0  0  0  0  0  0
  148.9479  141.8710  153.8818 H   0  0  0  0  0  0  0  0  0  0  0  0
  148.7167  140.1312  153.6730 H   0  0  0  0  0  0  0  0  0  0  0  0
  145.6822  141.6849  156.7745 H   0  0  0  0  0  0  0  0  0  0  0  0
  143.9361  143.3853  156.3548 H   0  0  0  0  0  0  0  0  0  0  0  0
  145.7091  144.2445  152.5123 H   0  0  0  0  0  0  0  0  0  0  0  0
  147.4382  142.5627  152.9183 H   0  0  0  0  0  0  0  0  0  0  0  0
  154.2407  139.5270  160.8296 H   0  0  0  0  0  0  0  0  0  0  0  0
  153.4492  141.0343  161.2746 H   0  0  0  0  0  0  0  0  0  0  0  0
  154.6314  141.0005  159.9593 H   0  0  0  0  0  0  0  0  0  0  0  0
  1  2  1  0  0  0  0
  1 25  1  0  0  0  0
  1 26  1  0  0  0  0
  1 27  1  0  0  0  0
  2 23  1  0  0  0  0
  2  3  2  0  0  0  0
  3  4  1  0  0  0  0
  4  5  1  0  0  0  0
  4 18  1  0  0  0  0
  5  6  1  0  0  0  0
  5 28  1  0  0  0  0
  5 29  1  0  0  0  0
  6  7  1  0  0  0  0
  6  8  1  0  0  0  0
  6 30  1  0  0  0  0
  7 31  1  0  0  0  0
  8  9  1  0  0  0  0
  8 32  1  0  0  0  0
  8 33  1  0  0  0  0
  9 10  1  0  0  0  0
 10 17  1  0  0  0  0
 10 11  2  0  0  0  0
 11 12  1  0  0  0  0
 11 34  1  0  0  0  0
 12 13  2  0  0  0  0
 12 35  1  0  0  0  0
 13 14  1  0  0  0  0
 13 16  1  0  0  0  0
 14 15  3  0  0  0  0
 16 17  2  0  0  0  0
 16 36  1  0  0  0  0
 17 37  1  0  0  0  0
 18 19  2  0  0  0  0
 18 20  1  0  0  0  0
 20 21  1  0  0  0  0
 20 23  2  0  0  0  0
 21 22  3  0  0  0  0
 23 24  1  0  0  0  0
 24 38  1  0  0  0  0
 24 39  1  0  0  0  0
 24 40  1  0  0  0  0
M  END
> <s_m_source_file>
AV-unprocessed.smi

> <i_m_source_file_index>
816

> <i_lp_mmshare_version>
43012

> <i_f3d_flags>
0

> <s_epik_input>
TiNDYyhjMVtDSDNdKWMoPU8pbihuYzFbQ0gzXSlbQ0gyXVtDQEhdKFtPSF0pW0NIMl1PYzJbY0hdW2NIXWMoQyNOKVtjSF1bY0hdMg==

> <s_epik_cmdline>
J2VwaWtfcHl0aG9uJywgJy1waCcsICc3LjAnLCAnLXRuJywgJzgnLCAnLW1hJywgJzIwMCcsICctbWV0YWxfYmluZGluZycsICctaW1hZScsICc8aW5maWxlLm1hZT4nLCAnLW9tYWUnLCAnPG91dGZpbGUubWFlPic=

> <r_lp_tautomer_probability>
1

> <r_epik_Ionization_Penalty>
1.1732e-07

> <r_epik_Ionization_Penalty_Charging>
1.4567e-10

> <r_epik_Ionization_Penalty_Neutral>
1.17174e-07

> <r_epik_State_Penalty>
-0

> <r_epik_Charging_Adjusted_Penalty>
1.4567e-10

> <i_epik_Tot_Q>
0

> <i_epik_Tot_abs_Q>
0

> <r_epik_Metal_State_Penalty>
-0

> <b_epik_Metal_Only>
0

> <s_lp_Force_Field>
OPLS_2005

> <r_lp_Energy>
30.507

> <b_lp_Chiralities_Consistent>
1

> <s_lp_Variant>
AV-unprocessed.smi:816-2

> <Gold.Version>
5.8.1

> <Gold.Id.Protein>
6NUR|6NUR_protein|mol2

> <Gold.PLP.Fitness>
46.2054

> <Gold.PLP.PLP>
-42.2146

> <Gold.PLP.part.hbond>
-2.7895

> <Gold.PLP.part.metal>
0.0000

> <Gold.PLP.part.buried>
-8.7247

> <Gold.PLP.part.nonpolar>
-31.9917

> <Gold.PLP.part.repulsive>
0.1585

> <Gold.PLP.ligand.clash>
0.0000

> <Gold.PLP.ligand.torsion>
0.9934

> <Gold.PLP.Chemscore.Hbond>
1.9750

> <Gold.PLP.Chemscore.CHOScore>
0.0000

> <Gold.PLP.Chemscore.Metal>
0.0000

> <Gold.Chemscore.Hbonds>
donor molecule, donor type, donor heavy atom, donor atom, acceptor molecule, acceptor atom, score
      P1  H  6896  6908       L1    22  0.88
      P1  H  7989  7998       L1     7  1.00

> <Gold.PLP.Chemscore.Internal.Correction>
0.0527

> <Gold.Rescore>
     Score         DG    S(hbond)    S(metal)    S(lipo)     H(rot)  DE(clash)    DE(int)     intcor
     14.24     -15.25       1.90        0.00      86.59       2.62       0.04       0.97       ----

> <Gold.Chemscore.Fitness>
14.2441

> <Gold.Chemscore.DG>
-15.2496

> <Gold.Chemscore.ZeroCoef>
-5.4800

> <Gold.Chemscore.Hbond>
1.9014

> <Gold.Chemscore.Metal>
0.0000

> <Gold.Chemscore.Lipo>
86.5946

> <Gold.Chemscore.Internal_Hbond>
0.0000

> <Gold.Chemscore.DEClash>
0.0384

> <Gold.Chemscore.DEInternal>
0.9670

> <Gold.Chemscore.Rot>
2.6222

> <Gold.Chemscore.Internal.Correction>
   9.000000E+99

> <Gold.Chemscore.Hbonds>
donor molecule, donor type, donor heavy atom, donor atom, acceptor molecule, acceptor atom, score
      P1  H  6896  6908       L1    22  0.83
      P1  H  7989  7998       L1     7  0.59

> <Gold.Chemscore.Hbond.Weighted>
-6.3507

> <Gold.Chemscore.Metal.Weighted>
-0.0000

> <Gold.Chemscore.Lipo.Weighted>
-10.1316

> <Gold.Chemscore.Internal_Hbond.Weighted>
0.0000

> <Gold.Chemscore.DEClash.Weighted>
0.0384

> <Gold.Chemscore.DEInternal.Weighted>
0.9670

> <Gold.Chemscore.Rot.Weighted>
6.7127

> <Gold.Chemscore.Internal.Correction.Weighted>
   9.000000E+99

> <Gold.Protein.RotatedTorsions>
[ 6907 6896 6895 6894 ] final  -91.76 input  -60.11 | X-H torsion
[ 7974 7965 7964 7962 ] final  -93.41 input  175.53 | X-H torsion
[ 8008 7997 7996 7995 ] final  -95.00 input   59.86 | X-H torsion
[ 10167 10162 10161 10158 ] final  160.79 input  -65.29 | X-H torsion
[ 10718 10713 10712 10709 ] final   74.22 input   66.30 | X-H torsion
[ 10763 10752 10751 10750 ] final -151.43 input  -60.55 | X-H torsion
[ 11005 11000 10999 10996 ] final  149.32 input  -57.11 | X-H torsion

> <Gold.Protein.ActiveResidues>
 VAL166  LYS551  ARG553  GLY616  TRP617  ASP618  TYR619  PRO620  LYS621  CYS622 
 ASP623  PHE694  ASN695  SER759  ASP760  ASP761  ALA762  ILE779  LEU786  VAL792 
 PHE793  MET794  SER795  GLU796  ALA797  LYS798  CYS799  TRP800  GLU811  SER814 

> <Gold.Protein.RotatedAtoms>
  150.6896  134.2228  159.4403 H   0  0  0  0  0  0  0  0  0  0  0  0  # atno 6907 bound_to 6896
  152.0183  134.9835  160.0579 H   0  0  0  0  0  0  0  0  0  0  0  0  # atno 6908 bound_to 6896
  152.1422  133.4436  159.4809 H   0  0  0  0  0  0  0  0  0  0  0  0  # atno 6909 bound_to 6896
  145.3869  140.9524  143.2362 H   0  0  0  0  0  0  0  0  0  0  0  0  # atno 7974 bound_to 7965
  154.7556  140.0484  157.0931 H   0  0  0  0  0  0  0  0  0  0  0  0  # atno 8008 bound_to 7997
  155.0001  140.3123  155.4851 H   0  0  0  0  0  0  0  0  0  0  0  0  # atno 8009 bound_to 7997
  156.2894  140.2203  156.5111 H   0  0  0  0  0  0  0  0  0  0  0  0  # atno 8010 bound_to 7997
  139.4843  144.4599  151.8718 H   0  0  0  0  0  0  0  0  0  0  0  0  # atno 10167 bound_to 10162
  157.6583  130.9667  150.1180 H   0  0  0  0  0  0  0  0  0  0  0  0  # atno 10718 bound_to 10713
  154.8058  135.3260  154.7435 H   0  0  0  0  0  0  0  0  0  0  0  0  # atno 10763 bound_to 10752
  153.8093  135.6897  153.4847 H   0  0  0  0  0  0  0  0  0  0  0  0  # atno 10764 bound_to 10752
  153.1802  135.4589  154.9963 H   0  0  0  0  0  0  0  0  0  0  0  0  # atno 10765 bound_to 10752
  140.1034  134.8969  157.1830 H   0  0  0  0  0  0  0  0  0  0  0  0  # atno 11005 bound_to 11000
  144.8467  139.5385  143.6875 LP  0  0  0  0  0  0  0  0  0  0  0  0  # atno 17320 bound_to 7965
  146.2816  139.6892  142.9225 LP  0  0  0  0  0  0  0  0  0  0  0  0  # atno 17321 bound_to 7965
  140.4061  144.2430  150.5890 LP  0  0  0  0  0  0  0  0  0  0  0  0  # atno 17342 bound_to 10162
  140.5011  143.2317  151.8677 LP  0  0  0  0  0  0  0  0  0  0  0  0  # atno 17343 bound_to 10162
  156.2059  130.3663  149.8730 LP  0  0  0  0  0  0  0  0  0  0  0  0  # atno 17370 bound_to 10713
  156.6621  130.8786  151.3549 LP  0  0  0  0  0  0  0  0  0  0  0  0  # atno 17371 bound_to 10713
  140.3188  134.2939  155.7250 LP  0  0  0  0  0  0  0  0  0  0  0  0  # atno 17394 bound_to 11000
  141.2112  133.7697  156.9882 LP  0  0  0  0  0  0  0  0  0  0  0  0  # atno 17395 bound_to 11000

$$$$
