AV-unprocessed.smi:2001|AV-procd|sdf|8104|dock8
  -GOLD-   2272010333D 1   1.00000     0.00000
 Structure written by MMmdl.
 50 51  0  0  0  0  0  0  0  0  1 V2000
  150.4657  135.5506  155.3015 C   0  0  0  0  0  0  0  0  0  0  0  0
  151.5290  136.4696  155.4810 O   0  0  0  0  0  0  0  0  0  0  0  0
  151.3069  137.6948  154.8038 C   0  0  0  0  0  0  0  0  0  0  0  0
  152.4069  138.6893  155.2037 C   0  0  0  0  0  0  0  0  0  0  0  0
  151.8701  139.7931  156.0062 N   0  0  0  0  0  0  0  0  0  0  0  0
  152.4216  139.8915  157.2729 N   0  0  0  0  0  0  0  0  0  0  0  0
  152.0346  140.8264  158.0796 C   0  0  0  0  0  0  0  0  0  0  0  0
  152.6083  140.9728  159.4460 C   0  0  0  0  0  0  0  0  0  0  0  0
  152.2557  141.8770  160.2052 O   0  0  0  0  0  0  0  0  0  0  0  0
  153.5336  140.0567  159.7854 N   0  0  0  0  0  0  0  0  0  0  0  0
  154.2509  140.0186  161.0540 C   0  0  0  0  0  0  0  0  0  0  0  0
  155.2276  138.8290  161.1183 C   0  0  0  0  0  0  0  0  0  0  0  0
  155.2232  138.1026  162.3865 N   0  0  0  0  0  0  0  0  0  0  0  0
  153.9636  137.4035  162.6316 C   0  0  0  0  0  0  0  0  0  0  0  0
  153.9497  136.6569  163.9813 C   0  0  1  0  0  0  0  0  0  0  0  0
  154.8020  135.3763  163.9768 C   0  0  0  0  0  0  0  0  0  0  0  0
  154.3236  137.5385  165.0416 O   0  0  0  0  0  0  0  0  0  0  0  0
  155.5487  138.2420  164.8441 C   0  0  2  0  0  0  0  0  0  0  0  0
  155.7529  139.1883  166.0317 C   0  0  0  0  0  0  0  0  0  0  0  0
  155.4927  138.9977  163.5044 C   0  0  0  0  0  0  0  0  0  0  0  0
  151.0166  141.7823  157.6770 C   0  0  0  0  0  0  0  0  0  0  0  0
  150.4834  141.6693  156.4408 C   0  0  0  0  0  0  0  0  0  0  0  0
  150.9027  140.6215  155.5092 C   0  0  0  0  0  0  0  0  0  0  0  0
  150.4272  140.4942  154.3812 O   0  0  0  0  0  0  0  0  0  0  0  0
  150.6836  134.6281  155.8397 H   0  0  0  0  0  0  0  0  0  0  0  0
  150.3334  135.3015  154.2479 H   0  0  0  0  0  0  0  0  0  0  0  0
  149.5279  135.9521  155.6876 H   0  0  0  0  0  0  0  0  0  0  0  0
  151.3164  137.5295  153.7252 H   0  0  0  0  0  0  0  0  0  0  0  0
  150.3262  138.0938  155.0680 H   0  0  0  0  0  0  0  0  0  0  0  0
  153.1824  138.1648  155.7650 H   0  0  0  0  0  0  0  0  0  0  0  0
  152.9053  139.0743  154.3121 H   0  0  0  0  0  0  0  0  0  0  0  0
  153.7664  139.3459  159.1067 H   0  0  0  0  0  0  0  0  0  0  0  0
  154.7851  140.9629  161.1518 H   0  0  0  0  0  0  0  0  0  0  0  0
  153.5399  139.9740  161.8806 H   0  0  0  0  0  0  0  0  0  0  0  0
  154.9610  138.1334  160.3215 H   0  0  0  0  0  0  0  0  0  0  0  0
  156.2386  139.1702  160.8900 H   0  0  0  0  0  0  0  0  0  0  0  0
  153.1435  138.1230  162.6194 H   0  0  0  0  0  0  0  0  0  0  0  0
  153.7586  136.6909  161.8337 H   0  0  0  0  0  0  0  0  0  0  0  0
  152.9226  136.3530  164.1850 H   0  0  0  0  0  0  0  0  0  0  0  0
  154.4318  134.6674  163.2361 H   0  0  0  0  0  0  0  0  0  0  0  0
  154.7701  134.8844  164.9491 H   0  0  0  0  0  0  0  0  0  0  0  0
  155.8461  135.5788  163.7390 H   0  0  0  0  0  0  0  0  0  0  0  0
  156.3758  137.5316  164.8270 H   0  0  0  0  0  0  0  0  0  0  0  0
  156.6857  139.7441  165.9338 H   0  0  0  0  0  0  0  0  0  0  0  0
  155.7940  138.6336  166.9694 H   0  0  0  0  0  0  0  0  0  0  0  0
  154.9387  139.9095  166.1062 H   0  0  0  0  0  0  0  0  0  0  0  0
  156.4414  139.5114  163.3445 H   0  0  0  0  0  0  0  0  0  0  0  0
  154.7239  139.7707  163.5514 H   0  0  0  0  0  0  0  0  0  0  0  0
  150.6876  142.5658  158.3441 H   0  0  0  0  0  0  0  0  0  0  0  0
  149.7248  142.3723  156.1287 H   0  0  0  0  0  0  0  0  0  0  0  0
  1  2  1  0  0  0  0
  1 25  1  0  0  0  0
  1 26  1  0  0  0  0
  1 27  1  0  0  0  0
  2  3  1  0  0  0  0
  3  4  1  0  0  0  0
  3 28  1  0  0  0  0
  3 29  1  0  0  0  0
  4  5  1  0  0  0  0
  4 30  1  0  0  0  0
  4 31  1  0  0  0  0
  5 23  1  0  0  0  0
  5  6  1  0  0  0  0
  6  7  2  0  0  0  0
  7  8  1  0  0  0  0
  7 21  1  0  0  0  0
  8  9  2  0  0  0  0
  8 10  1  0  0  0  0
 10 11  1  0  0  0  0
 10 32  1  0  0  0  0
 11 12  1  0  0  0  0
 11 33  1  0  0  0  0
 11 34  1  0  0  0  0
 12 13  1  0  0  0  0
 12 35  1  0  0  0  0
 12 36  1  0  0  0  0
 13 20  1  0  0  0  0
 13 14  1  0  0  0  0
 14 15  1  0  0  0  0
 14 37  1  0  0  0  0
 14 38  1  0  0  0  0
 15 16  1  0  0  0  0
 15 17  1  0  0  0  0
 15 39  1  0  0  0  0
 16 40  1  0  0  0  0
 16 41  1  0  0  0  0
 16 42  1  0  0  0  0
 17 18  1  0  0  0  0
 18 19  1  0  0  0  0
 18 20  1  0  0  0  0
 18 43  1  0  0  0  0
 19 44  1  0  0  0  0
 19 45  1  0  0  0  0
 19 46  1  0  0  0  0
 20 47  1  0  0  0  0
 20 48  1  0  0  0  0
 21 22  2  0  0  0  0
 21 49  1  0  0  0  0
 22 23  1  0  0  0  0
 22 50  1  0  0  0  0
 23 24  2  0  0  0  0
M  END
> <s_m_source_file>
AV-unprocessed.smi

> <i_m_source_file_index>
2001

> <i_lp_mmshare_version>
43012

> <i_f3d_flags>
0

> <s_epik_input>
W0NIM11PW0NIMl1bQ0gyXW4xbmMoW2NIXVtjSF1jMT1PKUMoPU8pW05IXVtDSDJdW0NIMl1OMltDSDJdW0NAQEhdKFtDSDNdKU9bQ0BASF0oW0NIM10pW0NIMl0y

> <s_epik_cmdline>
J2VwaWtfcHl0aG9uJywgJy1waCcsICc3LjAnLCAnLXRuJywgJzgnLCAnLW1hJywgJzIwMCcsICctbWV0YWxfYmluZGluZycsICctaW1hZScsICc8aW5maWxlLm1hZT4nLCAnLW9tYWUnLCAnPG91dGZpbGUubWFlPic=

> <r_lp_tautomer_probability>
1

> <r_epik_Ionization_Penalty>
0.206669

> <r_epik_Ionization_Penalty_Charging>
5.55992e-09

> <r_epik_Ionization_Penalty_Neutral>
0.206669

> <r_epik_State_Penalty>
0.196651

> <r_epik_Charging_Adjusted_Penalty>
0.196651

> <i_epik_Tot_Q>
0

> <i_epik_Tot_abs_Q>
0

> <r_epik_Metal_State_Penalty>
0.198372

> <b_epik_Metal_Only>
0

> <s_lp_Force_Field>
OPLS_2005

> <r_lp_Energy>
41.2012

> <b_lp_Chiralities_Consistent>
1

> <s_lp_Variant>
AV-unprocessed.smi:2001-3

> <Gold.Version>
5.8.1

> <Gold.Id.Protein>
6NUR|6NUR_protein|mol2

> <Gold.PLP.Fitness>
52.6241

> <Gold.PLP.PLP>
-45.1804

> <Gold.PLP.part.hbond>
-3.0814

> <Gold.PLP.part.metal>
0.0000

> <Gold.PLP.part.buried>
-4.8314

> <Gold.PLP.part.nonpolar>
-36.9159

> <Gold.PLP.part.repulsive>
0.3849

> <Gold.PLP.ligand.clash>
0.0000

> <Gold.PLP.ligand.torsion>
0.6976

> <Gold.PLP.Chemscore.Hbond>
2.9096

> <Gold.PLP.Chemscore.CHOScore>
0.0000

> <Gold.PLP.Chemscore.Metal>
0.0000

> <Gold.Chemscore.Hbonds>
donor molecule, donor type, donor heavy atom, donor atom, acceptor molecule, acceptor atom, score
      P1  H  7989  7998       L1    24  0.96
      P1  H  7997  8009       L1     6  0.84
      P1  H 10752 10763       L1     2  1.00

> <Gold.PLP.Chemscore.Internal.Correction>
0.1103

> <Gold.Rescore>
     Score         DG    S(hbond)    S(metal)    S(lipo)     H(rot)  DE(clash)    DE(int)     intcor
     13.21     -15.20       1.17        0.00      93.45       2.00       0.02       1.97       ----

> <Gold.Chemscore.Fitness>
13.2094

> <Gold.Chemscore.DG>
-15.2006

> <Gold.Chemscore.ZeroCoef>
-5.4800

> <Gold.Chemscore.Hbond>
1.1714

> <Gold.Chemscore.Metal>
0.0000

> <Gold.Chemscore.Lipo>
93.4470

> <Gold.Chemscore.Internal_Hbond>
0.0000

> <Gold.Chemscore.DEClash>
0.0212

> <Gold.Chemscore.DEInternal>
1.9700

> <Gold.Chemscore.Rot>
2.0020

> <Gold.Chemscore.Internal.Correction>
   9.000000E+99

> <Gold.Chemscore.Hbonds>
donor molecule, donor type, donor heavy atom, donor atom, acceptor molecule, acceptor atom, score
      P1  H  7989  7998       L1    24  0.30
      P1  H  7997  8009       L1     6  0.22
      P1  H 10752 10763       L1     2  0.26

> <Gold.Chemscore.Hbond.Weighted>
-3.9125

> <Gold.Chemscore.Metal.Weighted>
-0.0000

> <Gold.Chemscore.Lipo.Weighted>
-10.9333

> <Gold.Chemscore.Internal_Hbond.Weighted>
0.0000

> <Gold.Chemscore.DEClash.Weighted>
0.0212

> <Gold.Chemscore.DEInternal.Weighted>
1.9700

> <Gold.Chemscore.Rot.Weighted>
5.1252

> <Gold.Chemscore.Internal.Correction.Weighted>
   9.000000E+99

> <Gold.Protein.RotatedTorsions>
[ 6907 6896 6895 6894 ] final -134.89 input  -60.11 | X-H torsion
[ 7974 7965 7964 7962 ] final  121.92 input  175.53 | X-H torsion
[ 8008 7997 7996 7995 ] final  166.00 input   59.86 | X-H torsion
[ 10167 10162 10161 10158 ] final  -29.83 input  -65.29 | X-H torsion
[ 10718 10713 10712 10709 ] final   -2.94 input   66.30 | X-H torsion
[ 10763 10752 10751 10750 ] final   67.20 input  -60.55 | X-H torsion
[ 11005 11000 10999 10996 ] final   57.78 input  -57.11 | X-H torsion

> <Gold.Protein.ActiveResidues>
 VAL166  LYS551  ARG553  GLY616  TRP617  ASP618  TYR619  PRO620  LYS621  CYS622 
 ASP623  PHE694  ASN695  SER759  ASP760  ASP761  ALA762  ILE779  LEU786  VAL792 
 PHE793  MET794  SER795  GLU796  ALA797  LYS798  CYS799  TRP800  GLU811  SER814 

> <Gold.Protein.RotatedAtoms>
  150.9913  133.6147  159.2707 H   0  0  0  0  0  0  0  0  0  0  0  0  # atno 6907 bound_to 6896
  151.3366  135.0853  159.9366 H   0  0  0  0  0  0  0  0  0  0  0  0  # atno 6908 bound_to 6896
  152.5246  133.9532  159.7736 H   0  0  0  0  0  0  0  0  0  0  0  0  # atno 6909 bound_to 6896
  145.1136  139.3436  143.4750 H   0  0  0  0  0  0  0  0  0  0  0  0  # atno 7974 bound_to 7965
  156.1754  140.1655  156.8371 H   0  0  0  0  0  0  0  0  0  0  0  0  # atno 8008 bound_to 7997
  154.5302  140.0758  156.8364 H   0  0  0  0  0  0  0  0  0  0  0  0  # atno 8009 bound_to 7997
  155.3423  140.3385  155.4241 H   0  0  0  0  0  0  0  0  0  0  0  0  # atno 8010 bound_to 7997
  140.7256  143.3897  151.1451 H   0  0  0  0  0  0  0  0  0  0  0  0  # atno 10167 bound_to 10162
  156.7834  130.5338  149.5747 H   0  0  0  0  0  0  0  0  0  0  0  0  # atno 10718 bound_to 10713
  153.0175  135.5292  154.6943 H   0  0  0  0  0  0  0  0  0  0  0  0  # atno 10763 bound_to 10752
  154.6069  135.2874  155.0477 H   0  0  0  0  0  0  0  0  0  0  0  0  # atno 10764 bound_to 10752
  154.1513  135.6562  153.5016 H   0  0  0  0  0  0  0  0  0  0  0  0  # atno 10765 bound_to 10752
  140.0427  134.5851  155.9362 H   0  0  0  0  0  0  0  0  0  0  0  0  # atno 11005 bound_to 11000
  146.3525  140.1066  142.8605 LP  0  0  0  0  0  0  0  0  0  0  0  0  # atno 17320 bound_to 7965
  145.0819  140.9226  143.4820 LP  0  0  0  0  0  0  0  0  0  0  0  0  # atno 17321 bound_to 7965
  139.7500  143.8793  152.3074 LP  0  0  0  0  0  0  0  0  0  0  0  0  # atno 17342 bound_to 10162
  139.8643  144.7101  150.9062 LP  0  0  0  0  0  0  0  0  0  0  0  0  # atno 17343 bound_to 10162
  156.1204  130.6105  151.0184 LP  0  0  0  0  0  0  0  0  0  0  0  0  # atno 17370 bound_to 10713
  157.6635  131.0876  150.7782 LP  0  0  0  0  0  0  0  0  0  0  0  0  # atno 17371 bound_to 10713
  141.1891  133.6564  156.5353 LP  0  0  0  0  0  0  0  0  0  0  0  0  # atno 17394 bound_to 11000
  140.4044  134.7328  157.4799 LP  0  0  0  0  0  0  0  0  0  0  0  0  # atno 17395 bound_to 11000

$$$$
