AV-unprocessed.smi:1538|AV-procd|sdf|6194|dock5
  -GOLD-   22720 6363D 1   1.00000     0.00000
 Structure written by MMmdl.
 36 37  0  0  0  0  0  0  0  0  1 V2000
  148.6241  136.0731  155.7982 C   0  0  0  0  0  0  0  0  0  0  0  0
  149.6177  137.0701  155.3954 N   0  0  0  0  0  0  0  0  0  0  0  0
  149.0763  138.4068  155.1207 C   0  0  0  0  0  0  0  0  0  0  0  0
  150.0090  139.2686  154.2594 C   0  0  0  0  0  0  0  0  0  0  0  0
  151.4496  139.2516  154.7905 C   0  0  1  0  0  0  0  0  0  0  0  0
  151.6023  140.0607  156.0895 C   0  0  0  0  0  0  0  0  0  0  0  0
  152.5244  139.8199  156.8694 O   0  0  0  0  0  0  0  0  0  0  0  0
  150.6777  141.0071  156.3168 N   0  0  0  0  0  0  0  0  0  0  0  0
  150.5767  141.8082  157.5336 C   0  0  0  0  0  0  0  0  0  0  0  0
  151.9472  142.3591  157.9716 C   0  0  0  0  0  0  0  0  0  0  0  0
  151.8381  143.5852  158.7412 N   0  0  0  0  0  0  0  0  0  0  0  0
  152.2785  143.8030  160.0399 C   0  0  0  0  0  0  0  0  0  0  0  0
  151.9458  145.1013  160.3549 C   0  0  0  0  0  0  0  0  0  0  0  0
  151.3115  145.7002  159.2690 N   0  0  0  0  0  0  0  0  0  0  0  0
  151.2877  144.7433  158.3505 C   0  0  0  0  0  0  0  0  0  0  0  0
  151.9743  137.8041  154.9307 C   0  0  0  0  0  0  0  0  0  0  0  0
  150.9334  136.7473  155.3492 C   0  0  0  0  0  0  0  0  0  0  0  0
  151.3420  135.6171  155.6184 O   0  0  0  0  0  0  0  0  0  0  0  0
  148.8952  135.6154  156.7510 H   0  0  0  0  0  0  0  0  0  0  0  0
  148.5509  135.2845  155.0482 H   0  0  0  0  0  0  0  0  0  0  0  0
  147.6316  136.5074  155.9223 H   0  0  0  0  0  0  0  0  0  0  0  0
  148.1126  138.3241  154.6163 H   0  0  0  0  0  0  0  0  0  0  0  0
  148.8812  138.8992  156.0740 H   0  0  0  0  0  0  0  0  0  0  0  0
  150.0030  138.8906  153.2360 H   0  0  0  0  0  0  0  0  0  0  0  0
  149.6281  140.2896  154.2061 H   0  0  0  0  0  0  0  0  0  0  0  0
  152.0748  139.7446  154.0439 H   0  0  0  0  0  0  0  0  0  0  0  0
  149.9617  141.1465  155.6187 H   0  0  0  0  0  0  0  0  0  0  0  0
  149.8562  142.6193  157.4156 H   0  0  0  0  0  0  0  0  0  0  0  0
  150.1806  141.1652  158.3196 H   0  0  0  0  0  0  0  0  0  0  0  0
  152.4645  141.6208  158.5850 H   0  0  0  0  0  0  0  0  0  0  0  0
  152.5800  142.5419  157.1020 H   0  0  0  0  0  0  0  0  0  0  0  0
  152.7696  143.0351  160.6191 H   0  0  0  0  0  0  0  0  0  0  0  0
  152.1132  145.6462  161.2722 H   0  0  0  0  0  0  0  0  0  0  0  0
  150.8487  144.8850  157.3737 H   0  0  0  0  0  0  0  0  0  0  0  0
  152.3721  137.4851  153.9667 H   0  0  0  0  0  0  0  0  0  0  0  0
  152.8176  137.7612  155.6220 H   0  0  0  0  0  0  0  0  0  0  0  0
  1  2  1  0  0  0  0
  1 19  1  0  0  0  0
  1 20  1  0  0  0  0
  1 21  1  0  0  0  0
  2 17  1  0  0  0  0
  2  3  1  0  0  0  0
  3  4  1  0  0  0  0
  3 22  1  0  0  0  0
  3 23  1  0  0  0  0
  4  5  1  0  0  0  0
  4 24  1  0  0  0  0
  4 25  1  0  0  0  0
  5  6  1  0  0  0  0
  5 16  1  0  0  0  0
  5 26  1  0  0  0  0
  6  7  2  0  0  0  0
  6  8  1  0  0  0  0
  8  9  1  0  0  0  0
  8 27  1  0  0  0  0
  9 10  1  0  0  0  0
  9 28  1  0  0  0  0
  9 29  1  0  0  0  0
 10 11  1  0  0  0  0
 10 30  1  0  0  0  0
 10 31  1  0  0  0  0
 11 15  1  0  0  0  0
 11 12  1  0  0  0  0
 12 13  2  0  0  0  0
 12 32  1  0  0  0  0
 13 14  1  0  0  0  0
 13 33  1  0  0  0  0
 14 15  2  0  0  0  0
 15 34  1  0  0  0  0
 16 17  1  0  0  0  0
 16 35  1  0  0  0  0
 16 36  1  0  0  0  0
 17 18  2  0  0  0  0
M  END
> <s_m_source_file>
AV-unprocessed.smi

> <i_m_source_file_index>
1538

> <i_lp_mmshare_version>
43012

> <i_f3d_flags>
0

> <s_epik_input>
W0NIM11OMVtDSDJdW0NIMl1bQ0BIXShbQ0gyXUMxPU8pQyg9TylbTkhdW0NIMl1bQ0gyXW4yW2NIXVtjSF1uW2NIXTI=

> <s_epik_cmdline>
J2VwaWtfcHl0aG9uJywgJy1waCcsICc3LjAnLCAnLXRuJywgJzgnLCAnLW1hJywgJzIwMCcsICctbWV0YWxfYmluZGluZycsICctaW1hZScsICc8aW5maWxlLm1hZT4nLCAnLW9tYWUnLCAnPG91dGZpbGUubWFlPic=

> <r_lp_tautomer_probability>
1

> <r_epik_Ionization_Penalty>
0.590576

> <r_epik_Ionization_Penalty_Charging>
0.590576

> <r_epik_Ionization_Penalty_Neutral>
2.97775e-08

> <r_epik_State_Penalty>
0.604111

> <r_epik_Charging_Adjusted_Penalty>
1.19469

> <i_epik_Tot_Q>
0

> <i_epik_Tot_abs_Q>
0

> <r_epik_Metal_State_Penalty>
0.298544

> <b_epik_Metal_Only>
0

> <s_lp_Force_Field>
OPLS_2005

> <r_lp_Energy>
13.4422

> <b_lp_Chiralities_Consistent>
1

> <s_lp_Variant>
AV-unprocessed.smi:1538-3

> <Gold.Version>
5.8.1

> <Gold.Id.Protein>
6NUR|6NUR_protein|mol2

> <Gold.PLP.Fitness>
43.1562

> <Gold.PLP.PLP>
-35.9875

> <Gold.PLP.part.hbond>
-3.1525

> <Gold.PLP.part.metal>
0.0000

> <Gold.PLP.part.buried>
-3.0499

> <Gold.PLP.part.nonpolar>
-29.7771

> <Gold.PLP.part.repulsive>
0.3374

> <Gold.PLP.ligand.clash>
0.0000

> <Gold.PLP.ligand.torsion>
0.9381

> <Gold.PLP.Chemscore.Hbond>
2.0000

> <Gold.PLP.Chemscore.CHOScore>
1.0000

> <Gold.PLP.Chemscore.Metal>
0.0000

> <Gold.Chemscore.Hbonds>
donor molecule, donor type, donor heavy atom, donor atom, acceptor molecule, acceptor atom, score
      P1  H  7997  8010       L1     7  1.00
      P1  H 10752 10764       L1    18  1.00
      L1  C    15    34       P1  8028  0.91

> <Gold.PLP.Chemscore.Internal.Correction>
0.0448

> <Gold.Rescore>
     Score         DG    S(hbond)    S(metal)    S(lipo)     H(rot)  DE(clash)    DE(int)     intcor
     11.91     -15.10       1.94        0.00      70.10       1.98       1.05       2.14       ----

> <Gold.Chemscore.Fitness>
11.9065

> <Gold.Chemscore.DG>
-15.0961

> <Gold.Chemscore.ZeroCoef>
-5.4800

> <Gold.Chemscore.Hbond>
1.9396

> <Gold.Chemscore.Metal>
0.0000

> <Gold.Chemscore.Lipo>
70.1034

> <Gold.Chemscore.Internal_Hbond>
0.0000

> <Gold.Chemscore.DEClash>
1.0493

> <Gold.Chemscore.DEInternal>
2.1403

> <Gold.Chemscore.Rot>
1.9782

> <Gold.Chemscore.Internal.Correction>
   9.000000E+99

> <Gold.Chemscore.Hbonds>
donor molecule, donor type, donor heavy atom, donor atom, acceptor molecule, acceptor atom, score
      P1  H  7997  8010       L1     7  0.99
      P1  H 10752 10764       L1    18  0.29

> <Gold.Chemscore.Hbond.Weighted>
-6.4783

> <Gold.Chemscore.Metal.Weighted>
-0.0000

> <Gold.Chemscore.Lipo.Weighted>
-8.2021

> <Gold.Chemscore.Internal_Hbond.Weighted>
0.0000

> <Gold.Chemscore.DEClash.Weighted>
1.0493

> <Gold.Chemscore.DEInternal.Weighted>
2.1403

> <Gold.Chemscore.Rot.Weighted>
5.0643

> <Gold.Chemscore.Internal.Correction.Weighted>
   9.000000E+99

> <Gold.Protein.RotatedTorsions>
[ 6907 6896 6895 6894 ] final -135.70 input  -60.11 | X-H torsion
[ 7974 7965 7964 7962 ] final  -99.37 input  175.53 | X-H torsion
[ 8008 7997 7996 7995 ] final   70.91 input   59.86 | X-H torsion
[ 10167 10162 10161 10158 ] final  -85.63 input  -65.29 | X-H torsion
[ 10718 10713 10712 10709 ] final   90.42 input   66.30 | X-H torsion
[ 10763 10752 10751 10750 ] final  -59.55 input  -60.55 | X-H torsion
[ 11005 11000 10999 10996 ] final -160.20 input  -57.11 | X-H torsion

> <Gold.Protein.ActiveResidues>
 VAL166  LYS551  ARG553  GLY616  TRP617  ASP618  TYR619  PRO620  LYS621  CYS622 
 ASP623  PHE694  ASN695  SER759  ASP760  ASP761  ALA762  ILE779  LEU786  VAL792 
 PHE793  MET794  SER795  GLU796  ALA797  LYS798  CYS799  TRP800  GLU811  SER814 

> <Gold.Protein.RotatedAtoms>
  151.0011  133.6055  159.2694 H   0  0  0  0  0  0  0  0  0  0  0  0  # atno 6907 bound_to 6896
  151.3241  135.0825  159.9326 H   0  0  0  0  0  0  0  0  0  0  0  0  # atno 6908 bound_to 6896
  152.5274  133.9653  159.7790 H   0  0  0  0  0  0  0  0  0  0  0  0  # atno 6909 bound_to 6896
  145.3084  140.9394  143.2783 H   0  0  0  0  0  0  0  0  0  0  0  0  # atno 7974 bound_to 7965
  155.7460  140.3489  155.5127 H   0  0  0  0  0  0  0  0  0  0  0  0  # atno 8008 bound_to 7997
  155.9050  140.1040  157.1343 H   0  0  0  0  0  0  0  0  0  0  0  0  # atno 8009 bound_to 7997
  154.4048  140.1279  156.4471 H   0  0  0  0  0  0  0  0  0  0  0  0  # atno 8010 bound_to 7997
  140.4019  143.2659  151.9131 H   0  0  0  0  0  0  0  0  0  0  0  0  # atno 10167 bound_to 10162
  157.6959  131.0370  150.3575 H   0  0  0  0  0  0  0  0  0  0  0  0  # atno 10718 bound_to 10713
  154.2554  135.6318  153.5255 H   0  0  0  0  0  0  0  0  0  0  0  0  # atno 10763 bound_to 10752
  152.9905  135.5575  154.5762 H   0  0  0  0  0  0  0  0  0  0  0  0  # atno 10764 bound_to 10752
  154.5299  135.2887  155.1164 H   0  0  0  0  0  0  0  0  0  0  0  0  # atno 10765 bound_to 10752
  140.6341  134.4620  157.5231 H   0  0  0  0  0  0  0  0  0  0  0  0  # atno 11005 bound_to 11000
  144.9035  139.4618  143.6621 LP  0  0  0  0  0  0  0  0  0  0  0  0  # atno 17320 bound_to 7965
  146.3127  139.7803  142.9008 LP  0  0  0  0  0  0  0  0  0  0  0  0  # atno 17321 bound_to 7965
  139.4784  144.5625  151.8217 LP  0  0  0  0  0  0  0  0  0  0  0  0  # atno 17342 bound_to 10162
  140.4731  144.1559  150.5921 LP  0  0  0  0  0  0  0  0  0  0  0  0  # atno 17343 bound_to 10162
  156.4015  130.3917  149.6956 LP  0  0  0  0  0  0  0  0  0  0  0  0  # atno 17370 bound_to 10713
  156.4271  130.7797  151.2816 LP  0  0  0  0  0  0  0  0  0  0  0  0  # atno 17371 bound_to 10713
  139.9105  134.8356  156.1547 LP  0  0  0  0  0  0  0  0  0  0  0  0  # atno 17394 bound_to 11000
  141.0654  133.6822  156.2034 LP  0  0  0  0  0  0  0  0  0  0  0  0  # atno 17395 bound_to 11000

$$$$
