AV-unprocessed.smi:72|AV-procd|sdf|726|dock8
  -GOLD-   2262017 53D 1   1.00000     0.00000
 Structure written by MMmdl.
 28 29  0  0  0  0  0  0  0  0  2 V2000
  148.4560  136.6155  161.0339 N   0  0  0  0  0  0  0  0  0  0  0  0
  148.6263  136.7353  159.7907 C   0  0  0  0  0  0  0  0  0  0  0  0
  147.9729  137.8047  159.0677 N   0  0  0  0  0  0  0  0  0  0  0  0
  148.1666  137.8744  157.7866 C   0  0  0  0  0  0  0  0  0  0  0  0
  148.9986  136.9088  157.0816 N   0  0  0  0  0  0  0  0  0  0  0  0
  149.2338  137.0111  155.5897 C   0  0  1  0  0  0  0  0  0  0  0  0
  148.4858  138.0748  155.0729 O   0  0  0  0  0  0  0  0  0  0  0  0
  149.3011  138.8827  154.2294 C   0  0  1  0  0  0  0  0  0  0  0  0
  148.7618  140.3214  154.2066 C   0  0  0  0  0  0  0  0  0  0  0  0
  149.4925  141.1021  153.2849 O   0  0  0  0  0  0  0  0  0  0  0  0
  150.6779  138.7556  154.8818 C   0  0  2  0  0  0  0  0  0  0  0  0
  151.7417  139.1197  154.0222 O   0  0  0  0  0  0  0  0  0  0  0  0
  150.7175  137.2911  155.3026 C   0  0  2  0  0  0  0  0  0  0  0  0
  151.2031  136.4384  154.2821 O   0  0  0  0  0  0  0  0  0  0  0  0
  149.6561  135.8909  157.8217 C   0  0  0  0  0  0  0  0  0  0  0  0
  150.3970  135.1169  157.2149 O   0  0  0  0  0  0  0  0  0  0  0  0
  149.4483  135.8229  159.1667 N   0  5  0  0  0  0  0  0  0  0  0  0
  148.8622  136.0808  155.1565 H   0  0  0  0  0  0  0  0  0  0  0  0
  149.3275  138.4491  153.2275 H   0  0  0  0  0  0  0  0  0  0  0  0
  150.7165  139.3811  155.7751 H   0  0  0  0  0  0  0  0  0  0  0  0
  151.3298  137.1442  156.1938 H   0  0  0  0  0  0  0  0  0  0  0  0
  148.9676  135.8338  161.4170 H   0  0  0  0  0  0  0  0  0  0  0  0
  147.7272  138.6559  157.1657 H   0  0  0  0  0  0  0  0  0  0  0  0
  147.6989  140.3425  153.9645 H   0  0  0  0  0  0  0  0  0  0  0  0
  148.8793  140.7815  155.1880 H   0  0  0  0  0  0  0  0  0  0  0  0
  149.7904  140.5408  152.5856 H   0  0  0  0  0  0  0  0  0  0  0  0
  152.4502  138.5079  154.1497 H   0  0  0  0  0  0  0  0  0  0  0  0
  150.9784  136.8182  153.4461 H   0  0  0  0  0  0  0  0  0  0  0  0
  1  2  2  0  0  0  0
  1 22  1  0  0  0  0
  2 17  1  0  0  0  0
  2  3  1  0  0  0  0
  3  4  2  0  0  0  0
  4  5  1  0  0  0  0
  4 23  1  0  0  0  0
  5  6  1  0  0  0  0
  5 15  1  0  0  0  0
  6 18  1  0  0  0  0
  6 13  1  0  0  0  0
  6  7  1  0  0  0  0
  7  8  1  0  0  0  0
  8 19  1  0  0  0  0
  8  9  1  0  0  0  0
  8 11  1  0  0  0  0
  9 10  1  0  0  0  0
  9 24  1  0  0  0  0
  9 25  1  0  0  0  0
 10 26  1  0  0  0  0
 11 20  1  0  0  0  0
 11 12  1  0  0  0  0
 11 13  1  0  0  0  0
 12 27  1  0  0  0  0
 13 21  1  0  0  0  0
 13 14  1  0  0  0  0
 14 28  1  0  0  0  0
 15 16  2  0  0  0  0
 15 17  1  0  0  0  0
M  CHG  1  17  -1
M  END
> <s_m_source_file>
AV-unprocessed.smi

> <i_m_source_file_index>
72

> <i_lp_mmshare_version>
43012

> <i_f3d_flags>
0

> <s_epik_input>
W05IMl1jMW5bY0hdbihjKD1PKW4xKVtDQEBIXTJPW0NASF0oW0NIMl1bT0hdKVtDQEBIXShbT0hdKVtDQEhdMltPSF0=

> <s_epik_cmdline>
J2VwaWtfcHl0aG9uJywgJy1waCcsICc3LjAnLCAnLXRuJywgJzgnLCAnLW1hJywgJzIwMCcsICctbWV0YWxfYmluZGluZycsICctaW1hZScsICc8aW5maWxlLm1hZT4nLCAnLW9tYWUnLCAnPG91dGZpbGUubWFlPic=

> <r_lp_tautomer_probability>
7.17554e-07

> <r_epik_Ionization_Penalty>
12.8705

> <r_epik_Ionization_Penalty_Charging>
5.64144

> <r_epik_Ionization_Penalty_Neutral>
7.22905

> <r_epik_State_Penalty>
3.30104

> <r_epik_Charging_Adjusted_Penalty>
8.94249

> <i_epik_Tot_Q>
-1

> <i_epik_Tot_abs_Q>
1

> <r_epik_Metal_State_Penalty>
0.529074

> <b_epik_Metal_Only>
1

> <s_epik_Chemistry_Notes>
This compound contains an acetal/aminal-like group ( X-CH(R)-Y where X, Y are N, S, or O) that may be acid/base labile, releasing an aldehyde.

> <s_lp_Force_Field>
OPLS_2005

> <r_lp_Energy>
36.315

> <b_lp_Chiralities_Consistent>
1

> <s_lp_Variant>
AV-unprocessed.smi:72-64

> <Gold.Version>
5.8.1

> <Gold.Id.Protein>
6NUR|6NUR_protein|mol2

> <Gold.PLP.Fitness>
40.8684

> <Gold.PLP.PLP>
-20.4709

> <Gold.PLP.part.hbond>
-9.6256

> <Gold.PLP.part.metal>
0.0000

> <Gold.PLP.part.buried>
0.8884

> <Gold.PLP.part.nonpolar>
-11.3652

> <Gold.PLP.part.repulsive>
0.0884

> <Gold.PLP.ligand.clash>
0.0000

> <Gold.PLP.ligand.torsion>
0.0555

> <Gold.PLP.Chemscore.Hbond>
6.8289

> <Gold.PLP.Chemscore.CHOScore>
0.0000

> <Gold.PLP.Chemscore.Metal>
0.0000

> <Gold.Chemscore.Hbonds>
donor molecule, donor type, donor heavy atom, donor atom, acceptor molecule, acceptor atom, score
      L1  H    10    26       P1  7957  0.94
      L1  H    14    28       P1  7949  0.43
      P1  H  6896  6909       L1    17  2.00
      P1  H  6931  6943       L1     1  1.00
      P1  H  6934  6947       L1     3  0.09
      P1  H  7989  7998       L1    12  0.86
      P1  H  8011  8017       L1    10  0.45
      P1  H 10752 10765       L1    14  1.00

> <Gold.PLP.Chemscore.Internal.Correction>
0.0219

> <Gold.Rescore>
     Score         DG    S(hbond)    S(metal)    S(lipo)     H(rot)  DE(clash)    DE(int)     intcor
      8.91     -11.63       4.08        0.00      24.45       4.04       1.49       1.23       ----

> <Gold.Chemscore.Fitness>
8.9053

> <Gold.Chemscore.DG>
-11.6254

> <Gold.Chemscore.ZeroCoef>
-5.4800

> <Gold.Chemscore.Hbond>
4.0801

> <Gold.Chemscore.Metal>
0.0000

> <Gold.Chemscore.Lipo>
24.4524

> <Gold.Chemscore.Internal_Hbond>
0.0000

> <Gold.Chemscore.DEClash>
1.4879

> <Gold.Chemscore.DEInternal>
1.2323

> <Gold.Chemscore.Rot>
4.0403

> <Gold.Chemscore.Internal.Correction>
   9.000000E+99

> <Gold.Chemscore.Hbonds>
donor molecule, donor type, donor heavy atom, donor atom, acceptor molecule, acceptor atom, score
      L1  H    10    26       P1  7957  0.84
      L1  H    14    28       P1  7949  0.11
      P1  H  6896  6909       L1    17  0.30
      P1  H  6931  6943       L1     1  0.48
      P1  H  6934  6947       L1     3  0.02
      P1  H  7989  7998       L1    12  0.75
      P1  H  8011  8017       L1    10  0.02
      P1  H 10752 10765       L1    14  0.70

> <Gold.Chemscore.Hbond.Weighted>
-13.6276

> <Gold.Chemscore.Metal.Weighted>
-0.0000

> <Gold.Chemscore.Lipo.Weighted>
-2.8609

> <Gold.Chemscore.Internal_Hbond.Weighted>
0.0000

> <Gold.Chemscore.DEClash.Weighted>
1.4879

> <Gold.Chemscore.DEInternal.Weighted>
1.2323

> <Gold.Chemscore.Rot.Weighted>
10.3431

> <Gold.Chemscore.Internal.Correction.Weighted>
   9.000000E+99

> <Gold.Protein.RotatedTorsions>
[ 6907 6896 6895 6894 ] final   61.47 input  -60.11 | X-H torsion
[ 7974 7965 7964 7962 ] final  -21.76 input  175.53 | X-H torsion
[ 8008 7997 7996 7995 ] final -121.14 input   59.86 | X-H torsion
[ 10167 10162 10161 10158 ] final  -87.67 input  -65.29 | X-H torsion
[ 10718 10713 10712 10709 ] final -154.58 input   66.30 | X-H torsion
[ 10763 10752 10751 10750 ] final  153.78 input  -60.55 | X-H torsion
[ 11005 11000 10999 10996 ] final  -73.96 input  -57.11 | X-H torsion

> <Gold.Protein.ActiveResidues>
 VAL166  LYS551  ARG553  GLY616  TRP617  ASP618  TYR619  PRO620  LYS621  CYS622 
 ASP623  PHE694  ASN695  SER759  ASP760  ASP761  ALA762  ILE779  LEU786  VAL792 
 PHE793  MET794  SER795  GLU796  ALA797  LYS798  CYS799  TRP800  GLU811  SER814 

> <Gold.Protein.RotatedAtoms>
  152.4091  134.6156  160.0036 H   0  0  0  0  0  0  0  0  0  0  0  0  # atno 6907 bound_to 6896
  151.6338  133.3324  159.3123 H   0  0  0  0  0  0  0  0  0  0  0  0  # atno 6908 bound_to 6896
  150.7983  134.7100  159.6643 H   0  0  0  0  0  0  0  0  0  0  0  0  # atno 6909 bound_to 6896
  146.1714  140.4386  142.8531 H   0  0  0  0  0  0  0  0  0  0  0  0  # atno 7974 bound_to 7965
  155.1432  140.0402  157.2803 H   0  0  0  0  0  0  0  0  0  0  0  0  # atno 8008 bound_to 7997
  154.6458  140.2557  155.7243 H   0  0  0  0  0  0  0  0  0  0  0  0  # atno 8009 bound_to 7997
  156.2554  140.2846  156.0871 H   0  0  0  0  0  0  0  0  0  0  0  0  # atno 8010 bound_to 7997
  140.3822  143.2743  151.9370 H   0  0  0  0  0  0  0  0  0  0  0  0  # atno 10167 bound_to 10162
  156.5012  130.8392  151.2610 H   0  0  0  0  0  0  0  0  0  0  0  0  # atno 10718 bound_to 10713
  154.1418  135.2820  155.3159 H   0  0  0  0  0  0  0  0  0  0  0  0  # atno 10763 bound_to 10752
  154.6281  135.5444  153.7653 H   0  0  0  0  0  0  0  0  0  0  0  0  # atno 10764 bound_to 10752
  153.0248  135.6456  154.1565 H   0  0  0  0  0  0  0  0  0  0  0  0  # atno 10765 bound_to 10752
  141.1629  133.6895  156.7291 H   0  0  0  0  0  0  0  0  0  0  0  0  # atno 11005 bound_to 11000
  144.8169  140.6484  143.6378 LP  0  0  0  0  0  0  0  0  0  0  0  0  # atno 17320 bound_to 7965
  145.4329  139.1546  143.4012 LP  0  0  0  0  0  0  0  0  0  0  0  0  # atno 17321 bound_to 7965
  139.4794  144.5808  151.7936 LP  0  0  0  0  0  0  0  0  0  0  0  0  # atno 17342 bound_to 10162
  140.4926  144.1288  150.5953 LP  0  0  0  0  0  0  0  0  0  0  0  0  # atno 17343 bound_to 10162
  157.7462  130.9981  150.2841 LP  0  0  0  0  0  0  0  0  0  0  0  0  # atno 17370 bound_to 10713
  156.3331  130.3803  149.7473 LP  0  0  0  0  0  0  0  0  0  0  0  0  # atno 17371 bound_to 10713
  140.2758  134.8356  157.3889 LP  0  0  0  0  0  0  0  0  0  0  0  0  # atno 17394 bound_to 11000
  140.1478  134.4888  155.7983 LP  0  0  0  0  0  0  0  0  0  0  0  0  # atno 17395 bound_to 11000

$$$$
