AV-unprocessed.smi:1370|AV-procd|sdf|5580|dock7
  -GOLD-   22720 5173D 1   1.00000     0.00000
 Structure written by MMmdl.
 39 40  0  0  0  0  0  0  0  0  1 V2000
  156.4191  140.6203  163.0562 O   0  0  0  0  0  0  0  0  0  0  0  0
  155.6181  139.6998  162.8870 C   0  0  0  0  0  0  0  0  0  0  0  0
  154.8570  139.5522  161.5619 C   0  0  0  0  0  0  0  0  0  0  0  0
  154.0003  140.7084  161.2509 N   0  0  0  0  0  0  0  0  0  0  0  0
  153.7144  141.5979  162.3059 C   0  0  0  0  0  0  0  0  0  0  0  0
  152.9439  142.6833  162.1304 C   0  0  0  0  0  0  0  0  0  0  0  0
  152.4027  142.9304  160.8151 C   0  0  0  0  0  0  0  0  0  0  0  0
  152.6667  142.0840  159.8000 C   0  0  0  0  0  0  0  0  0  0  0  0
  153.5048  140.8941  159.9884 C   0  0  0  0  0  0  0  0  0  0  0  0
  153.7472  140.1131  159.0676 O   0  0  0  0  0  0  0  0  0  0  0  0
  155.3727  138.7609  163.8127 N   0  0  0  0  0  0  0  0  0  0  0  0
  156.0088  138.6856  165.1240 C   0  0  0  0  0  0  0  0  0  0  0  0
  155.6102  139.8665  166.0236 C   0  0  0  0  0  0  0  0  0  0  0  0
  156.9919  140.4299  167.0594 S   0  0  0  0  0  0  0  0  0  0  0  0
  156.2857  141.9591  167.7368 C   0  0  0  0  0  0  0  0  0  0  0  0
  155.9310  142.9706  166.6483 C   0  0  0  0  0  0  0  0  0  0  0  0
  155.8396  144.2975  167.4000 C   0  0  0  0  0  0  0  0  0  0  0  0
  156.8911  144.2067  168.5139 C   0  0  0  0  0  0  0  0  0  0  0  0
  157.2524  142.7193  168.6533 C   0  0  0  0  0  0  0  0  0  0  0  0
  155.5889  139.3948  160.7688 H   0  0  0  0  0  0  0  0  0  0  0  0
  154.2603  138.6382  161.5832 H   0  0  0  0  0  0  0  0  0  0  0  0
  154.1517  141.3375  163.2587 H   0  0  0  0  0  0  0  0  0  0  0  0
  152.7314  143.3511  162.9520 H   0  0  0  0  0  0  0  0  0  0  0  0
  151.7822  143.7977  160.6439 H   0  0  0  0  0  0  0  0  0  0  0  0
  152.2527  142.2849  158.8228 H   0  0  0  0  0  0  0  0  0  0  0  0
  154.7071  138.0355  163.5882 H   0  0  0  0  0  0  0  0  0  0  0  0
  155.7510  137.7422  165.6080 H   0  0  0  0  0  0  0  0  0  0  0  0
  157.0898  138.6723  164.9838 H   0  0  0  0  0  0  0  0  0  0  0  0
  155.2485  140.7007  165.4217 H   0  0  0  0  0  0  0  0  0  0  0  0
  154.7889  139.5679  166.6751 H   0  0  0  0  0  0  0  0  0  0  0  0
  155.3793  141.7131  168.2919 H   0  0  0  0  0  0  0  0  0  0  0  0
  156.7305  143.0237  165.9076 H   0  0  0  0  0  0  0  0  0  0  0  0
  155.0071  142.7204  166.1263 H   0  0  0  0  0  0  0  0  0  0  0  0
  155.9942  145.1572  166.7475 H   0  0  0  0  0  0  0  0  0  0  0  0
  154.8480  144.3949  167.8435 H   0  0  0  0  0  0  0  0  0  0  0  0
  157.7789  144.7833  168.2513 H   0  0  0  0  0  0  0  0  0  0  0  0
  156.5030  144.6149  169.4476 H   0  0  0  0  0  0  0  0  0  0  0  0
  157.1848  142.3764  169.6861 H   0  0  0  0  0  0  0  0  0  0  0  0
  158.2821  142.5672  168.3265 H   0  0  0  0  0  0  0  0  0  0  0  0
  1  2  2  0  0  0  0
  2  3  1  0  0  0  0
  2 11  1  0  0  0  0
  3  4  1  0  0  0  0
  3 20  1  0  0  0  0
  3 21  1  0  0  0  0
  4  9  1  0  0  0  0
  4  5  1  0  0  0  0
  5  6  2  0  0  0  0
  5 22  1  0  0  0  0
  6  7  1  0  0  0  0
  6 23  1  0  0  0  0
  7  8  2  0  0  0  0
  7 24  1  0  0  0  0
  8  9  1  0  0  0  0
  8 25  1  0  0  0  0
  9 10  2  0  0  0  0
 11 12  1  0  0  0  0
 11 26  1  0  0  0  0
 12 13  1  0  0  0  0
 12 27  1  0  0  0  0
 12 28  1  0  0  0  0
 13 14  1  0  0  0  0
 13 29  1  0  0  0  0
 13 30  1  0  0  0  0
 14 15  1  0  0  0  0
 15 19  1  0  0  0  0
 15 16  1  0  0  0  0
 15 31  1  0  0  0  0
 16 17  1  0  0  0  0
 16 32  1  0  0  0  0
 16 33  1  0  0  0  0
 17 18  1  0  0  0  0
 17 34  1  0  0  0  0
 17 35  1  0  0  0  0
 18 19  1  0  0  0  0
 18 36  1  0  0  0  0
 18 37  1  0  0  0  0
 19 38  1  0  0  0  0
 19 39  1  0  0  0  0
M  END
> <s_m_source_file>
AV-unprocessed.smi

> <i_m_source_file_index>
1370

> <i_lp_mmshare_version>
43012

> <i_f3d_flags>
0

> <s_epik_input>
Tz1jMVtjSF1bY0hdW2NIXVtjSF1uMVtDSDJdQyg9TylbTkhdW0NIMl1bQ0gyXVNbQ0hdMltDSDJdW0NIMl1bQ0gyXVtDSDJdMg==

> <s_epik_cmdline>
J2VwaWtfcHl0aG9uJywgJy1waCcsICc3LjAnLCAnLXRuJywgJzgnLCAnLW1hJywgJzIwMCcsICctbWV0YWxfYmluZGluZycsICctaW1hZScsICc8aW5maWxlLm1hZT4nLCAnLW9tYWUnLCAnPG91dGZpbGUubWFlPic=

> <r_lp_tautomer_probability>
1

> <r_epik_Ionization_Penalty>
3.75756e-07

> <r_epik_Ionization_Penalty_Charging>
3.52005e-07

> <r_epik_Ionization_Penalty_Neutral>
2.37506e-08

> <r_epik_State_Penalty>
-0

> <r_epik_Charging_Adjusted_Penalty>
3.52005e-07

> <i_epik_Tot_Q>
0

> <i_epik_Tot_abs_Q>
0

> <r_epik_Metal_State_Penalty>
-0

> <b_epik_Metal_Only>
0

> <s_lp_Force_Field>
OPLS_2005

> <r_lp_Energy>
28.6611

> <b_lp_Chiralities_Consistent>
1

> <s_lp_Variant>
AV-unprocessed.smi:1370-1

> <Gold.Version>
5.8.1

> <Gold.Id.Protein>
6NUR|6NUR_protein|mol2

> <Gold.PLP.Fitness>
44.6771

> <Gold.PLP.PLP>
-42.7979

> <Gold.PLP.part.hbond>
-1.6183

> <Gold.PLP.part.metal>
0.0000

> <Gold.PLP.part.buried>
-5.3165

> <Gold.PLP.part.nonpolar>
-35.4102

> <Gold.PLP.part.repulsive>
0.0230

> <Gold.PLP.ligand.clash>
0.0000

> <Gold.PLP.ligand.torsion>
0.5010

> <Gold.PLP.Chemscore.Hbond>
0.9440

> <Gold.PLP.Chemscore.CHOScore>
0.0000

> <Gold.PLP.Chemscore.Metal>
0.0000

> <Gold.Chemscore.Hbonds>
donor molecule, donor type, donor heavy atom, donor atom, acceptor molecule, acceptor atom, score
      P1  H  7997  8010       L1    10  0.63

> <Gold.PLP.Chemscore.Internal.Correction>
0.0493

> <Gold.Rescore>
     Score         DG    S(hbond)    S(metal)    S(lipo)     H(rot)  DE(clash)    DE(int)     intcor
     12.33     -15.61       0.97        0.00      99.78       1.87       1.56       1.71       ----

> <Gold.Chemscore.Fitness>
12.3342

> <Gold.Chemscore.DG>
-15.6076

> <Gold.Chemscore.ZeroCoef>
-5.4800

> <Gold.Chemscore.Hbond>
0.9688

> <Gold.Chemscore.Metal>
0.0000

> <Gold.Chemscore.Lipo>
99.7820

> <Gold.Chemscore.Internal_Hbond>
0.0000

> <Gold.Chemscore.DEClash>
1.5631

> <Gold.Chemscore.DEInternal>
1.7103

> <Gold.Chemscore.Rot>
1.8682

> <Gold.Chemscore.Internal.Correction>
   9.000000E+99

> <Gold.Chemscore.Hbonds>
donor molecule, donor type, donor heavy atom, donor atom, acceptor molecule, acceptor atom, score
      P1  H  7997  8010       L1    10  0.62

> <Gold.Chemscore.Hbond.Weighted>
-3.2358

> <Gold.Chemscore.Metal.Weighted>
-0.0000

> <Gold.Chemscore.Lipo.Weighted>
-11.6745

> <Gold.Chemscore.Internal_Hbond.Weighted>
0.0000

> <Gold.Chemscore.DEClash.Weighted>
1.5631

> <Gold.Chemscore.DEInternal.Weighted>
1.7103

> <Gold.Chemscore.Rot.Weighted>
4.7827

> <Gold.Chemscore.Internal.Correction.Weighted>
   9.000000E+99

> <Gold.Protein.RotatedTorsions>
[ 6907 6896 6895 6894 ] final   57.53 input  -60.11 | X-H torsion
[ 7974 7965 7964 7962 ] final  -90.49 input  175.53 | X-H torsion
[ 8008 7997 7996 7995 ] final    7.20 input   59.86 | X-H torsion
[ 10167 10162 10161 10158 ] final  -82.99 input  -65.29 | X-H torsion
[ 10718 10713 10712 10709 ] final -127.75 input   66.30 | X-H torsion
[ 10763 10752 10751 10750 ] final -156.94 input  -60.55 | X-H torsion
[ 11005 11000 10999 10996 ] final -134.02 input  -57.11 | X-H torsion

> <Gold.Protein.ActiveResidues>
 VAL166  LYS551  ARG553  GLY616  TRP617  ASP618  TYR619  PRO620  LYS621  CYS622 
 ASP623  PHE694  ASN695  SER759  ASP760  ASP761  ALA762  ILE779  LEU786  VAL792 
 PHE793  MET794  SER795  GLU796  ALA797  LYS798  CYS799  TRP800  GLU811  SER814 

> <Gold.Protein.RotatedAtoms>
  152.3740  134.6691  160.0166 H   0  0  0  0  0  0  0  0  0  0  0  0  # atno 6907 bound_to 6896
  151.6976  133.3305  159.3266 H   0  0  0  0  0  0  0  0  0  0  0  0  # atno 6908 bound_to 6896
  150.7695  134.6579  159.6368 H   0  0  0  0  0  0  0  0  0  0  0  0  # atno 6909 bound_to 6896
  145.4258  140.9553  143.2156 H   0  0  0  0  0  0  0  0  0  0  0  0  # atno 7974 bound_to 7965
  154.7508  140.2766  155.6294 H   0  0  0  0  0  0  0  0  0  0  0  0  # atno 8008 bound_to 7997
  156.2895  140.2679  156.2188 H   0  0  0  0  0  0  0  0  0  0  0  0  # atno 8009 bound_to 7997
  155.0139  140.0372  157.2400 H   0  0  0  0  0  0  0  0  0  0  0  0  # atno 8010 bound_to 7997
  140.4269  143.2563  151.8814 H   0  0  0  0  0  0  0  0  0  0  0  0  # atno 10167 bound_to 10162
  156.1886  130.6780  151.0396 H   0  0  0  0  0  0  0  0  0  0  0  0  # atno 10718 bound_to 10713
  154.7674  135.3135  154.8258 H   0  0  0  0  0  0  0  0  0  0  0  0  # atno 10763 bound_to 10752
  153.9002  135.6816  153.4760 H   0  0  0  0  0  0  0  0  0  0  0  0  # atno 10764 bound_to 10752
  153.1282  135.4792  154.9240 H   0  0  0  0  0  0  0  0  0  0  0  0  # atno 10765 bound_to 10752
  140.9028  134.1668  157.4448 H   0  0  0  0  0  0  0  0  0  0  0  0  # atno 11005 bound_to 11000
  144.8215  139.5783  143.6984 LP  0  0  0  0  0  0  0  0  0  0  0  0  # atno 17320 bound_to 7965
  146.2633  139.6461  142.9347 LP  0  0  0  0  0  0  0  0  0  0  0  0  # atno 17321 bound_to 7965
  139.4784  144.5377  151.8574 LP  0  0  0  0  0  0  0  0  0  0  0  0  # atno 17342 bound_to 10162
  140.4471  144.1906  150.5895 LP  0  0  0  0  0  0  0  0  0  0  0  0  # atno 17343 bound_to 10162
  157.6915  131.0808  150.7094 LP  0  0  0  0  0  0  0  0  0  0  0  0  # atno 17370 bound_to 10713
  156.7151  130.4663  149.5537 LP  0  0  0  0  0  0  0  0  0  0  0  0  # atno 17371 bound_to 10713
  139.8745  134.9905  156.5505 LP  0  0  0  0  0  0  0  0  0  0  0  0  # atno 17394 bound_to 11000
  140.8208  133.8355  155.8894 LP  0  0  0  0  0  0  0  0  0  0  0  0  # atno 17395 bound_to 11000

$$$$
