AV-unprocessed.smi:588|AV-procd|sdf|3004|dock5
  -GOLD-   2262023513D 1   1.00000     0.00000
 Structure written by MMmdl.
 50 51  0  0  0  0  0  0  0  0  1 V2000
  137.1346  137.0208  154.2835 C   0  0  0  0  0  0  0  0  0  0  0  0
  138.6529  137.2181  154.2359 C   0  0  0  0  0  0  0  0  0  0  0  0
  139.3067  136.4442  153.0790 C   0  0  0  0  0  0  0  0  0  0  0  0
  140.7413  136.6419  153.0161 N   0  0  0  0  0  0  0  0  0  0  0  0
  141.6673  135.5947  153.0126 C   0  0  0  0  0  0  0  0  0  0  0  0
  141.1839  134.2955  153.0650 N   0  0  0  0  0  0  0  0  0  0  0  0
  143.0128  135.8276  152.9622 C   0  0  0  0  0  0  0  0  0  0  0  0
  143.9423  134.7725  152.9272 N   0  0  0  0  0  0  0  0  0  0  0  0
  144.2841  134.1533  154.2167 C   0  0  0  0  0  0  0  0  0  0  0  0
  144.9210  135.1641  155.1836 C   0  0  0  0  0  0  0  0  0  0  0  0
  145.9882  135.8213  154.5222 O   0  0  0  0  0  0  0  0  0  0  0  0
  146.7499  136.6330  155.3989 C   0  0  0  0  0  0  0  0  0  0  0  0
  144.5011  134.3246  151.7712 C   0  0  0  0  0  0  0  0  0  0  0  0
  144.2944  134.8856  150.6934 O   0  0  0  0  0  0  0  0  0  0  0  0
  145.3975  133.0609  151.7749 C   0  0  0  0  0  0  0  0  0  0  0  0
  146.8540  133.3990  151.3795 C   0  0  0  0  0  0  0  0  0  0  0  0
  147.1923  132.5530  150.1466 C   0  0  0  0  0  0  0  0  0  0  0  0
  145.8446  132.1992  149.5266 C   0  0  0  0  0  0  0  0  0  0  0  0
  144.9285  132.0207  150.7360 C   0  0  0  0  0  0  0  0  0  0  0  0
  143.5325  137.1991  152.8764 C   0  0  0  0  0  0  0  0  0  0  0  0
  144.7200  137.5151  152.8163 O   0  0  0  0  0  0  0  0  0  0  0  0
  142.5580  138.1933  152.8539 N   0  0  0  0  0  0  0  0  0  0  0  0
  141.1848  137.9824  152.9098 C   0  0  0  0  0  0  0  0  0  0  0  0
  140.4238  138.9494  152.8613 O   0  0  0  0  0  0  0  0  0  0  0  0
  142.8753  139.1492  152.7824 H   0  0  0  0  0  0  0  0  0  0  0  0
  136.6963  137.5784  155.1113 H   0  0  0  0  0  0  0  0  0  0  0  0
  136.8791  135.9695  154.4179 H   0  0  0  0  0  0  0  0  0  0  0  0
  136.6640  137.3660  153.3626 H   0  0  0  0  0  0  0  0  0  0  0  0
  138.8741  138.2815  154.1374 H   0  0  0  0  0  0  0  0  0  0  0  0
  139.0846  136.9005  155.1856 H   0  0  0  0  0  0  0  0  0  0  0  0
  139.1118  135.3720  153.1400 H   0  0  0  0  0  0  0  0  0  0  0  0
  138.9010  136.7481  152.1145 H   0  0  0  0  0  0  0  0  0  0  0  0
  140.1943  134.0968  153.1049 H   0  0  0  0  0  0  0  0  0  0  0  0
  141.8027  133.4984  153.1083 H   0  0  0  0  0  0  0  0  0  0  0  0
  143.3990  133.7038  154.6701 H   0  0  0  0  0  0  0  0  0  0  0  0
  144.9814  133.3288  154.0604 H   0  0  0  0  0  0  0  0  0  0  0  0
  144.1784  135.8965  155.5042 H   0  0  0  0  0  0  0  0  0  0  0  0
  145.2930  134.6603  156.0769 H   0  0  0  0  0  0  0  0  0  0  0  0
  147.5543  137.1169  154.8450 H   0  0  0  0  0  0  0  0  0  0  0  0
  147.1997  136.0392  156.1955 H   0  0  0  0  0  0  0  0  0  0  0  0
  146.1344  137.4130  155.8489 H   0  0  0  0  0  0  0  0  0  0  0  0
  145.3863  132.5657  152.7450 H   0  0  0  0  0  0  0  0  0  0  0  0
  146.9696  134.4569  151.1366 H   0  0  0  0  0  0  0  0  0  0  0  0
  147.5461  133.1912  152.1961 H   0  0  0  0  0  0  0  0  0  0  0  0
  147.8504  133.0725  149.4496 H   0  0  0  0  0  0  0  0  0  0  0  0
  147.6982  131.6387  150.4596 H   0  0  0  0  0  0  0  0  0  0  0  0
  145.4907  133.0257  148.9089 H   0  0  0  0  0  0  0  0  0  0  0  0
  145.8910  131.3086  148.8993 H   0  0  0  0  0  0  0  0  0  0  0  0
  145.0595  131.0180  151.1452 H   0  0  0  0  0  0  0  0  0  0  0  0
  143.8753  132.1143  150.4662 H   0  0  0  0  0  0  0  0  0  0  0  0
  1  2  1  0  0  0  0
  1 26  1  0  0  0  0
  1 27  1  0  0  0  0
  1 28  1  0  0  0  0
  2  3  1  0  0  0  0
  2 29  1  0  0  0  0
  2 30  1  0  0  0  0
  3  4  1  0  0  0  0
  3 31  1  0  0  0  0
  3 32  1  0  0  0  0
  4 23  1  0  0  0  0
  4  5  1  0  0  0  0
  5  6  1  0  0  0  0
  5  7  2  0  0  0  0
  6 33  1  0  0  0  0
  6 34  1  0  0  0  0
  7  8  1  0  0  0  0
  7 20  1  0  0  0  0
  8  9  1  0  0  0  0
  8 13  1  0  0  0  0
  9 10  1  0  0  0  0
  9 35  1  0  0  0  0
  9 36  1  0  0  0  0
 10 11  1  0  0  0  0
 10 37  1  0  0  0  0
 10 38  1  0  0  0  0
 11 12  1  0  0  0  0
 12 39  1  0  0  0  0
 12 40  1  0  0  0  0
 12 41  1  0  0  0  0
 13 14  2  0  0  0  0
 13 15  1  0  0  0  0
 15 19  1  0  0  0  0
 15 16  1  0  0  0  0
 15 42  1  0  0  0  0
 16 17  1  0  0  0  0
 16 43  1  0  0  0  0
 16 44  1  0  0  0  0
 17 18  1  0  0  0  0
 17 45  1  0  0  0  0
 17 46  1  0  0  0  0
 18 19  1  0  0  0  0
 18 47  1  0  0  0  0
 18 48  1  0  0  0  0
 19 49  1  0  0  0  0
 19 50  1  0  0  0  0
 20 21  2  0  0  0  0
 20 22  1  0  0  0  0
 22 25  1  0  0  0  0
 22 23  1  0  0  0  0
 23 24  2  0  0  0  0
M  END
> <s_m_source_file>
AV-unprocessed.smi

> <i_m_source_file_index>
588

> <i_lp_mmshare_version>
43012

> <i_f3d_flags>
0

> <s_epik_input>
W0NIM11bQ0gyXVtDSDJdbjFjKFtOSDJdKWMoYyg9TylbbkhdYzE9TylOKFtDSDJdW0NIMl1PW0NIM10pQyg9TylbQ0hdMltDSDJdW0NIMl1bQ0gyXVtDSDJdMg==

> <s_epik_cmdline>
J2VwaWtfcHl0aG9uJywgJy1waCcsICc3LjAnLCAnLXRuJywgJzgnLCAnLW1hJywgJzIwMCcsICctbWV0YWxfYmluZGluZycsICctaW1hZScsICc8aW5maWxlLm1hZT4nLCAnLW9tYWUnLCAnPG91dGZpbGUubWFlPic=

> <r_lp_tautomer_probability>
1

> <r_epik_Ionization_Penalty>
2.06963e-05

> <r_epik_Ionization_Penalty_Charging>
5.41733e-06

> <r_epik_Ionization_Penalty_Neutral>
1.52789e-05

> <r_epik_State_Penalty>
-0

> <r_epik_Charging_Adjusted_Penalty>
5.41733e-06

> <i_epik_Tot_Q>
0

> <i_epik_Tot_abs_Q>
0

> <r_epik_Metal_State_Penalty>
-0

> <b_epik_Metal_Only>
0

> <s_epik_Chemistry_Notes>
This compound has an imine and may undergo hydrolysis.

> <s_lp_Force_Field>
OPLS_2005

> <r_lp_Energy>
42.8074

> <b_lp_Chiralities_Consistent>
1

> <s_lp_Variant>
AV-unprocessed.smi:588-1

> <Gold.Version>
5.8.1

> <Gold.Id.Protein>
6NUR|6NUR_protein|mol2

> <Gold.PLP.Fitness>
41.2683

> <Gold.PLP.PLP>
-36.6738

> <Gold.PLP.part.hbond>
-2.8304

> <Gold.PLP.part.metal>
0.0000

> <Gold.PLP.part.buried>
-5.4514

> <Gold.PLP.part.nonpolar>
-30.5726

> <Gold.PLP.part.repulsive>
1.7440

> <Gold.PLP.ligand.clash>
0.0000

> <Gold.PLP.ligand.torsion>
1.6154

> <Gold.PLP.Chemscore.Hbond>
1.8480

> <Gold.PLP.Chemscore.CHOScore>
0.0000

> <Gold.PLP.Chemscore.Metal>
0.0000

> <Gold.Chemscore.Hbonds>
donor molecule, donor type, donor heavy atom, donor atom, acceptor molecule, acceptor atom, score
      L1  H    22    25       P1 10175  0.96

> <Gold.PLP.Chemscore.Internal.Correction>
2.2813

> <Gold.Rescore>
     Score         DG    S(hbond)    S(metal)    S(lipo)     H(rot)  DE(clash)    DE(int)     intcor
      9.19     -14.64       2.12        0.00      62.88       2.07       1.05       4.40       ----

> <Gold.Chemscore.Fitness>
9.1929

> <Gold.Chemscore.DG>
-14.6386

> <Gold.Chemscore.ZeroCoef>
-5.4800

> <Gold.Chemscore.Hbond>
2.1233

> <Gold.Chemscore.Metal>
0.0000

> <Gold.Chemscore.Lipo>
62.8825

> <Gold.Chemscore.Internal_Hbond>
0.0000

> <Gold.Chemscore.DEClash>
1.0477

> <Gold.Chemscore.DEInternal>
4.3980

> <Gold.Chemscore.Rot>
2.0666

> <Gold.Chemscore.Internal.Correction>
   9.000000E+99

> <Gold.Chemscore.Hbonds>
donor molecule, donor type, donor heavy atom, donor atom, acceptor molecule, acceptor atom, score
      L1  H    22    25       P1 10175  0.91

> <Gold.Chemscore.Hbond.Weighted>
-7.0918

> <Gold.Chemscore.Metal.Weighted>
-0.0000

> <Gold.Chemscore.Lipo.Weighted>
-7.3573

> <Gold.Chemscore.Internal_Hbond.Weighted>
0.0000

> <Gold.Chemscore.DEClash.Weighted>
1.0477

> <Gold.Chemscore.DEInternal.Weighted>
4.3980

> <Gold.Chemscore.Rot.Weighted>
5.2905

> <Gold.Chemscore.Internal.Correction.Weighted>
   9.000000E+99

> <Gold.Protein.RotatedTorsions>
[ 6907 6896 6895 6894 ] final -147.72 input  -60.11 | X-H torsion
[ 7974 7965 7964 7962 ] final -165.98 input  175.53 | X-H torsion
[ 8008 7997 7996 7995 ] final  -15.24 input   59.86 | X-H torsion
[ 10167 10162 10161 10158 ] final -162.25 input  -65.29 | X-H torsion
[ 10718 10713 10712 10709 ] final -173.81 input   66.30 | X-H torsion
[ 10763 10752 10751 10750 ] final -134.35 input  -60.55 | X-H torsion
[ 11005 11000 10999 10996 ] final  129.87 input  -57.11 | X-H torsion

> <Gold.Protein.ActiveResidues>
 VAL166  LYS551  ARG553  GLY616  TRP617  ASP618  TYR619  PRO620  LYS621  CYS622 
 ASP623  PHE694  ASN695  SER759  ASP760  ASP761  ALA762  ILE779  LEU786  VAL792 
 PHE793  MET794  SER795  GLU796  ALA797  LYS798  CYS799  TRP800  GLU811  SER814 

> <Gold.Protein.RotatedAtoms>
  151.1596  133.4853  159.2594 H   0  0  0  0  0  0  0  0  0  0  0  0  # atno 6907 bound_to 6896
  151.1468  135.0207  159.8660 H   0  0  0  0  0  0  0  0  0  0  0  0  # atno 6908 bound_to 6896
  152.5463  134.1485  159.8561 H   0  0  0  0  0  0  0  0  0  0  0  0  # atno 6909 bound_to 6896
  144.7256  140.2735  143.6247 H   0  0  0  0  0  0  0  0  0  0  0  0  # atno 7974 bound_to 7965
  154.5146  140.2201  155.9091 H   0  0  0  0  0  0  0  0  0  0  0  0  # atno 8008 bound_to 7997
  156.1592  140.3145  155.8744 H   0  0  0  0  0  0  0  0  0  0  0  0  # atno 8009 bound_to 7997
  155.3785  140.0471  157.3035 H   0  0  0  0  0  0  0  0  0  0  0  0  # atno 8010 bound_to 7997
  139.6406  144.0267  152.2088 H   0  0  0  0  0  0  0  0  0  0  0  0  # atno 10167 bound_to 10162
  156.7758  130.9465  151.3120 H   0  0  0  0  0  0  0  0  0  0  0  0  # atno 10718 bound_to 10713
  154.8720  135.3737  154.4721 H   0  0  0  0  0  0  0  0  0  0  0  0  # atno 10763 bound_to 10752
  153.5381  135.7027  153.5655 H   0  0  0  0  0  0  0  0  0  0  0  0  # atno 10764 bound_to 10752
  153.3830  135.3992  155.1834 H   0  0  0  0  0  0  0  0  0  0  0  0  # atno 10765 bound_to 10752
  139.9640  134.9595  156.9212 H   0  0  0  0  0  0  0  0  0  0  0  0  # atno 11005 bound_to 11000
  145.8020  139.1968  143.2042 LP  0  0  0  0  0  0  0  0  0  0  0  0  # atno 17320 bound_to 7965
  146.0668  140.7911  142.9707 LP  0  0  0  0  0  0  0  0  0  0  0  0  # atno 17321 bound_to 7965
  139.9956  144.6330  150.7775 LP  0  0  0  0  0  0  0  0  0  0  0  0  # atno 17342 bound_to 10162
  140.7488  143.2929  151.3282 LP  0  0  0  0  0  0  0  0  0  0  0  0  # atno 17343 bound_to 10162
  157.6670  130.9016  149.9953 LP  0  0  0  0  0  0  0  0  0  0  0  0  # atno 17370 bound_to 10713
  156.1249  130.3645  149.9826 LP  0  0  0  0  0  0  0  0  0  0  0  0  # atno 17371 bound_to 10713
  140.5437  134.0694  155.7349 LP  0  0  0  0  0  0  0  0  0  0  0  0  # atno 17394 bound_to 11000
  141.1319  133.9288  157.2518 LP  0  0  0  0  0  0  0  0  0  0  0  0  # atno 17395 bound_to 11000

$$$$
