AV-unprocessed.smi:3056|AV-procd|sdf|11652|dock3
  -GOLD-   2272017 53D 1   1.00000     0.00000
 Structure written by MMmdl.
 48 49  0  0  0  0  0  0  0  0  2 V2000
  145.0427  136.6989  152.7894 C   0  0  0  0  0  0  0  0  0  0  0  0
  146.1033  137.7556  152.9047 C   0  0  0  0  0  0  0  0  0  0  0  0
  146.5757  138.6350  151.8898 C   0  0  0  0  0  0  0  0  0  0  0  0
  147.5259  139.4502  152.3176 N   0  0  0  0  0  0  0  0  0  0  0  0
  147.6936  139.1255  153.6175 N   0  0  0  0  0  0  0  0  0  0  0  0
  148.6907  139.8276  154.4160 C   0  0  1  0  0  0  0  0  0  0  0  0
  150.0875  139.2454  154.1321 C   0  0  0  0  0  0  0  0  0  0  0  0
  148.6163  141.3637  154.2067 C   0  0  1  0  0  0  0  0  0  0  0  0
  147.1742  141.9025  154.1847 C   0  0  0  0  0  0  0  0  0  0  0  0
  149.3685  142.0706  155.2675 N   0  3  0  0  0  0  0  0  0  0  0  0
  149.0039  141.6939  156.6510 C   0  0  0  0  0  0  0  0  0  0  0  0
  150.2035  141.1673  157.4528 C   0  0  0  0  0  0  0  0  0  0  0  0
  150.1720  140.0100  157.8752 O   0  0  0  0  0  0  0  0  0  0  0  0
  151.2578  141.9889  157.6728 N   0  0  0  0  0  0  0  0  0  0  0  0
  151.3643  143.3896  157.2518 C   0  0  0  0  0  0  0  0  0  0  0  0
  151.4663  144.2694  158.5103 C   0  0  0  0  0  0  0  0  0  0  0  0
  152.5828  143.8583  159.2951 O   0  0  0  0  0  0  0  0  0  0  0  0
  152.5147  142.4940  159.7058 C   0  0  2  0  0  0  0  0  0  0  0  0
  153.7498  142.1876  160.5599 C   0  0  0  0  0  0  0  0  0  0  0  0
  152.4331  141.5953  158.4554 C   0  0  0  0  0  0  0  0  0  0  0  0
  146.8467  138.1033  153.9967 C   0  0  0  0  0  0  0  0  0  0  0  0
  144.3695  136.8901  151.9534 H   0  0  0  0  0  0  0  0  0  0  0  0
  144.4285  136.6430  153.6883 H   0  0  0  0  0  0  0  0  0  0  0  0
  145.4760  135.7110  152.6335 H   0  0  0  0  0  0  0  0  0  0  0  0
  146.2590  138.7029  150.8594 H   0  0  0  0  0  0  0  0  0  0  0  0
  148.4641  139.6241  155.4646 H   0  0  0  0  0  0  0  0  0  0  0  0
  150.8336  139.6429  154.8199 H   0  0  0  0  0  0  0  0  0  0  0  0
  150.4168  139.4690  153.1169 H   0  0  0  0  0  0  0  0  0  0  0  0
  150.0895  138.1613  154.2500 H   0  0  0  0  0  0  0  0  0  0  0  0
  149.0575  141.6021  153.2371 H   0  0  0  0  0  0  0  0  0  0  0  0
  146.6023  141.5010  153.3479 H   0  0  0  0  0  0  0  0  0  0  0  0
  147.1641  142.9883  154.0840 H   0  0  0  0  0  0  0  0  0  0  0  0
  146.6431  141.6494  155.1031 H   0  0  0  0  0  0  0  0  0  0  0  0
  150.3509  141.8702  155.1447 H   0  0  0  0  0  0  0  0  0  0  0  0
  148.5867  142.5645  157.1578 H   0  0  0  0  0  0  0  0  0  0  0  0
  148.2332  140.9225  156.6136 H   0  0  0  0  0  0  0  0  0  0  0  0
  152.2582  143.5114  156.6384 H   0  0  0  0  0  0  0  0  0  0  0  0
  150.5335  143.7325  156.6376 H   0  0  0  0  0  0  0  0  0  0  0  0
  151.5983  145.3148  158.2309 H   0  0  0  0  0  0  0  0  0  0  0  0
  150.5513  144.2093  159.1017 H   0  0  0  0  0  0  0  0  0  0  0  0
  151.6230  142.3526  160.3192 H   0  0  0  0  0  0  0  0  0  0  0  0
  153.7354  141.1572  160.9157 H   0  0  0  0  0  0  0  0  0  0  0  0
  153.7911  142.8394  161.4329 H   0  0  0  0  0  0  0  0  0  0  0  0
  154.6690  142.3328  159.9919 H   0  0  0  0  0  0  0  0  0  0  0  0
  152.4101  140.5467  158.7555 H   0  0  0  0  0  0  0  0  0  0  0  0
  153.3285  141.7138  157.8432 H   0  0  0  0  0  0  0  0  0  0  0  0
  146.8440  137.7088  155.0022 H   0  0  0  0  0  0  0  0  0  0  0  0
  149.2339  143.0652  155.1537 H   0  0  0  0  0  0  0  0  0  0  0  0
  1  2  1  0  0  0  0
  1 22  1  0  0  0  0
  1 23  1  0  0  0  0
  1 24  1  0  0  0  0
  2 21  2  0  0  0  0
  2  3  1  0  0  0  0
  3  4  2  0  0  0  0
  3 25  1  0  0  0  0
  4  5  1  0  0  0  0
  5  6  1  0  0  0  0
  5 21  1  0  0  0  0
  6  7  1  0  0  0  0
  6  8  1  0  0  0  0
  6 26  1  0  0  0  0
  7 27  1  0  0  0  0
  7 28  1  0  0  0  0
  7 29  1  0  0  0  0
  8  9  1  0  0  0  0
  8 10  1  0  0  0  0
  8 30  1  0  0  0  0
  9 31  1  0  0  0  0
  9 32  1  0  0  0  0
  9 33  1  0  0  0  0
 10 11  1  0  0  0  0
 10 34  1  0  0  0  0
 10 48  1  0  0  0  0
 11 12  1  0  0  0  0
 11 35  1  0  0  0  0
 11 36  1  0  0  0  0
 12 13  2  0  0  0  0
 12 14  1  0  0  0  0
 14 20  1  0  0  0  0
 14 15  1  0  0  0  0
 15 16  1  0  0  0  0
 15 37  1  0  0  0  0
 15 38  1  0  0  0  0
 16 17  1  0  0  0  0
 16 39  1  0  0  0  0
 16 40  1  0  0  0  0
 17 18  1  0  0  0  0
 18 19  1  0  0  0  0
 18 20  1  0  0  0  0
 18 41  1  0  0  0  0
 19 42  1  0  0  0  0
 19 43  1  0  0  0  0
 19 44  1  0  0  0  0
 20 45  1  0  0  0  0
 20 46  1  0  0  0  0
 21 47  1  0  0  0  0
M  CHG  1  10   1
M  END
> <s_m_source_file>
AV-unprocessed.smi

> <i_m_source_file_index>
3056

> <i_lp_mmshare_version>
43012

> <i_f3d_flags>
0

> <s_epik_input>
W0NIM11jMVtjSF1ubihbY0hdMSlbQ0BIXShbQ0gzXSlbQ0BIXShbQ0gzXSlbTkhdW0NIMl1DKD1PKU4yW0NIMl1bQ0gyXU9bQ0BASF0oW0NIM10pW0NIMl0y

> <s_epik_cmdline>
J2VwaWtfcHl0aG9uJywgJy1waCcsICc3LjAnLCAnLXRuJywgJzgnLCAnLW1hJywgJzIwMCcsICctbWV0YWxfYmluZGluZycsICctaW1hZScsICc8aW5maWxlLm1hZT4nLCAnLW9tYWUnLCAnPG91dGZpbGUubWFlPic=

> <r_lp_tautomer_probability>
1

> <r_epik_Ionization_Penalty>
0.233715

> <r_epik_Ionization_Penalty_Charging>
0.233698

> <r_epik_Ionization_Penalty_Neutral>
1.68157e-05

> <r_epik_State_Penalty>
0.225221

> <r_epik_Charging_Adjusted_Penalty>
0.458919

> <i_epik_Tot_Q>
1

> <i_epik_Tot_abs_Q>
1

> <r_epik_Metal_State_Penalty>
0.225535

> <b_epik_Metal_Only>
0

> <s_lp_Force_Field>
OPLS_2005

> <r_lp_Energy>
28.8948

> <b_lp_Chiralities_Consistent>
1

> <s_lp_Variant>
AV-unprocessed.smi:3056-8

> <Gold.Version>
5.8.1

> <Gold.Id.Protein>
6NUR|6NUR_protein|mol2

> <Gold.PLP.Fitness>
46.5546

> <Gold.PLP.PLP>
-39.7270

> <Gold.PLP.part.hbond>
-1.0000

> <Gold.PLP.part.metal>
0.0000

> <Gold.PLP.part.buried>
-7.1678

> <Gold.PLP.part.nonpolar>
-37.3203

> <Gold.PLP.part.repulsive>
4.3905

> <Gold.PLP.ligand.clash>
0.0000

> <Gold.PLP.ligand.torsion>
1.0797

> <Gold.PLP.Chemscore.Hbond>
2.0000

> <Gold.PLP.Chemscore.CHOScore>
0.9618

> <Gold.PLP.Chemscore.Metal>
0.0000

> <Gold.Chemscore.Hbonds>
donor molecule, donor type, donor heavy atom, donor atom, acceptor molecule, acceptor atom, score
      L1  H    10    48       P1  8028  2.00
      L1  C     3    25       P1 10171  0.85

> <Gold.PLP.Chemscore.Internal.Correction>
0.1016

> <Gold.Rescore>
     Score         DG    S(hbond)    S(metal)    S(lipo)     H(rot)  DE(clash)    DE(int)     intcor
     14.42     -16.56       1.00        0.00     104.16       1.74       1.71       0.43       ----

> <Gold.Chemscore.Fitness>
14.4225

> <Gold.Chemscore.DG>
-16.5585

> <Gold.Chemscore.ZeroCoef>
-5.4800

> <Gold.Chemscore.Hbond>
0.9983

> <Gold.Chemscore.Metal>
0.0000

> <Gold.Chemscore.Lipo>
104.1610

> <Gold.Chemscore.Internal_Hbond>
0.0000

> <Gold.Chemscore.DEClash>
1.7075

> <Gold.Chemscore.DEInternal>
0.4284

> <Gold.Chemscore.Rot>
1.7354

> <Gold.Chemscore.Internal.Correction>
   9.000000E+99

> <Gold.Chemscore.Hbonds>
donor molecule, donor type, donor heavy atom, donor atom, acceptor molecule, acceptor atom, score
      L1  H    10    48       P1  8028  0.99

> <Gold.Chemscore.Hbond.Weighted>
-3.3342

> <Gold.Chemscore.Metal.Weighted>
-0.0000

> <Gold.Chemscore.Lipo.Weighted>
-12.1868

> <Gold.Chemscore.Internal_Hbond.Weighted>
0.0000

> <Gold.Chemscore.DEClash.Weighted>
1.7075

> <Gold.Chemscore.DEInternal.Weighted>
0.4284

> <Gold.Chemscore.Rot.Weighted>
4.4426

> <Gold.Chemscore.Internal.Correction.Weighted>
   9.000000E+99

> <Gold.Protein.RotatedTorsions>
[ 6907 6896 6895 6894 ] final -140.73 input  -60.11 | X-H torsion
[ 7974 7965 7964 7962 ] final  -61.27 input  175.53 | X-H torsion
[ 8008 7997 7996 7995 ] final   60.46 input   59.86 | X-H torsion
[ 10167 10162 10161 10158 ] final  154.54 input  -65.29 | X-H torsion
[ 10718 10713 10712 10709 ] final   29.73 input   66.30 | X-H torsion
[ 10763 10752 10751 10750 ] final  -63.98 input  -60.55 | X-H torsion
[ 11005 11000 10999 10996 ] final    6.71 input  -57.11 | X-H torsion

> <Gold.Protein.ActiveResidues>
 VAL166  LYS551  ARG553  GLY616  TRP617  ASP618  TYR619  PRO620  LYS621  CYS622 
 ASP623  PHE694  ASN695  SER759  ASP760  ASP761  ALA762  ILE779  LEU786  VAL792 
 PHE793  MET794  SER795  GLU796  ALA797  LYS798  CYS799  TRP800  GLU811  SER814 

> <Gold.Protein.RotatedAtoms>
  151.0645  133.5516  159.2631 H   0  0  0  0  0  0  0  0  0  0  0  0  # atno 6907 bound_to 6896
  151.2479  135.0611  159.9060 H   0  0  0  0  0  0  0  0  0  0  0  0  # atno 6908 bound_to 6896
  152.5402  134.0410  159.8121 H   0  0  0  0  0  0  0  0  0  0  0  0  # atno 6909 bound_to 6896
  145.8054  140.8630  143.0209 H   0  0  0  0  0  0  0  0  0  0  0  0  # atno 7974 bound_to 7965
  155.5827  140.3491  155.4545 H   0  0  0  0  0  0  0  0  0  0  0  0  # atno 8008 bound_to 7997
  156.0361  140.1285  157.0231 H   0  0  0  0  0  0  0  0  0  0  0  0  # atno 8009 bound_to 7997
  154.4372  140.1033  156.6155 H   0  0  0  0  0  0  0  0  0  0  0  0  # atno 8010 bound_to 7997
  139.4823  144.5177  151.7925 H   0  0  0  0  0  0  0  0  0  0  0  0  # atno 10167 bound_to 10162
  157.2504  130.7112  149.6402 H   0  0  0  0  0  0  0  0  0  0  0  0  # atno 10718 bound_to 10713
  154.3232  135.6192  153.5517 H   0  0  0  0  0  0  0  0  0  0  0  0  # atno 10763 bound_to 10752
  152.9818  135.5729  154.5046 H   0  0  0  0  0  0  0  0  0  0  0  0  # atno 10764 bound_to 10752
  154.4718  135.2859  155.1613 H   0  0  0  0  0  0  0  0  0  0  0  0  # atno 10765 bound_to 10752
  140.5565  134.0234  155.7955 H   0  0  0  0  0  0  0  0  0  0  0  0  # atno 11005 bound_to 11000
  144.6763  140.0319  143.7482 LP  0  0  0  0  0  0  0  0  0  0  0  0  # atno 17320 bound_to 7965
  145.9833  139.2958  143.1028 LP  0  0  0  0  0  0  0  0  0  0  0  0  # atno 17321 bound_to 7965
  140.4688  144.1617  150.5915 LP  0  0  0  0  0  0  0  0  0  0  0  0  # atno 17342 bound_to 10162
  140.4405  143.2528  151.9479 LP  0  0  0  0  0  0  0  0  0  0  0  0  # atno 17343 bound_to 10162
  155.9666  130.4429  150.5401 LP  0  0  0  0  0  0  0  0  0  0  0  0  # atno 17370 bound_to 10713
  157.3284  131.0695  151.1879 LP  0  0  0  0  0  0  0  0  0  0  0  0  # atno 17371 bound_to 10713
  141.1140  133.9569  157.2856 LP  0  0  0  0  0  0  0  0  0  0  0  0  # atno 17394 bound_to 11000
  139.9429  135.0188  156.8764 LP  0  0  0  0  0  0  0  0  0  0  0  0  # atno 17395 bound_to 11000

$$$$
