AV-unprocessed.smi:1018|AV-procd|sdf|4441|dock6
  -GOLD-   22720 2403D 1   1.00000     0.00000
 Structure written by MMmdl.
 52 53  0  0  0  0  0  0  0  0  1 V2000
  151.8219  145.1902  158.5678 C   0  0  0  0  0  0  0  0  0  0  0  0
  152.3343  143.7835  158.2423 C   0  0  2  0  0  0  0  0  0  0  0  0
  151.3381  142.9909  157.3745 C   0  0  0  0  0  0  0  0  0  0  0  0
  151.8180  141.6299  157.1794 N   0  0  0  0  0  0  0  0  0  0  0  0
  151.0271  140.8914  156.2893 C   0  0  0  0  0  0  0  0  0  0  0  0
  151.2956  139.5318  156.0105 C   0  0  0  0  0  0  0  0  0  0  0  0
  150.4569  138.8492  155.1096 C   0  0  0  0  0  0  0  0  0  0  0  0
  149.3847  139.5392  154.5093 C   0  0  0  0  0  0  0  0  0  0  0  0
  148.5462  138.8201  153.6152 N   0  0  0  0  0  0  0  0  0  0  0  0
  147.2338  138.9893  153.3809 C   0  0  0  0  0  0  0  0  0  0  0  0
  146.5194  139.8399  153.9107 O   0  0  0  0  0  0  0  0  0  0  0  0
  146.7928  138.1200  152.4608 N   0  0  0  0  0  0  0  0  0  0  0  0
  145.4229  138.0352  151.9517 C   0  0  0  0  0  0  0  0  0  0  0  0
  144.7275  136.6734  152.2384 C   0  0  0  0  0  0  0  0  0  0  0  0
  145.3370  136.0857  153.5286 C   0  0  0  0  0  0  0  0  0  0  0  0
  143.2110  136.8859  152.4768 C   0  0  0  0  0  0  0  0  0  0  0  0
  145.0061  135.6806  151.0799 C   0  0  0  0  0  0  0  0  0  0  0  0
  144.6383  136.0138  149.8382 N   0  0  0  0  0  0  0  0  0  0  0  0
  145.5614  134.6070  151.3078 O   0  0  0  0  0  0  0  0  0  0  0  0
  149.1908  140.8952  154.8687 C   0  0  0  0  0  0  0  0  0  0  0  0
  149.9905  141.5550  155.7338 N   0  0  0  0  0  0  0  0  0  0  0  0
  152.0991  140.9489  158.4365 C   0  0  0  0  0  0  0  0  0  0  0  0
  153.0857  141.7825  159.2758 C   0  0  2  0  0  0  0  0  0  0  0  0
  153.3444  141.1582  160.6508 C   0  0  0  0  0  0  0  0  0  0  0  0
  152.5421  143.0869  159.4698 O   0  0  0  0  0  0  0  0  0  0  0  0
  151.6570  145.7678  157.6579 H   0  0  0  0  0  0  0  0  0  0  0  0
  152.5407  145.7342  159.1809 H   0  0  0  0  0  0  0  0  0  0  0  0
  150.8798  145.1504  159.1150 H   0  0  0  0  0  0  0  0  0  0  0  0
  153.2874  143.8734  157.7179 H   0  0  0  0  0  0  0  0  0  0  0  0
  150.3587  142.9675  157.8544 H   0  0  0  0  0  0  0  0  0  0  0  0
  151.2123  143.4787  156.4070 H   0  0  0  0  0  0  0  0  0  0  0  0
  152.1219  139.0170  156.4780 H   0  0  0  0  0  0  0  0  0  0  0  0
  150.6396  137.8093  154.8817 H   0  0  0  0  0  0  0  0  0  0  0  0
  149.0135  138.1328  153.0423 H   0  0  0  0  0  0  0  0  0  0  0  0
  147.4552  137.4613  152.0776 H   0  0  0  0  0  0  0  0  0  0  0  0
  144.8602  138.8465  152.4153 H   0  0  0  0  0  0  0  0  0  0  0  0
  145.4016  138.2484  150.8815 H   0  0  0  0  0  0  0  0  0  0  0  0
  145.1578  136.7394  154.3830 H   0  0  0  0  0  0  0  0  0  0  0  0
  146.4167  135.9538  153.4452 H   0  0  0  0  0  0  0  0  0  0  0  0
  144.9057  135.1127  153.7686 H   0  0  0  0  0  0  0  0  0  0  0  0
  143.0399  137.6151  153.2692 H   0  0  0  0  0  0  0  0  0  0  0  0
  142.7177  135.9617  152.7808 H   0  0  0  0  0  0  0  0  0  0  0  0
  142.6988  137.2548  151.5877 H   0  0  0  0  0  0  0  0  0  0  0  0
  144.8163  135.3791  149.0734 H   0  0  0  0  0  0  0  0  0  0  0  0
  144.1868  136.9011  149.6699 H   0  0  0  0  0  0  0  0  0  0  0  0
  148.3694  141.4782  154.4827 H   0  0  0  0  0  0  0  0  0  0  0  0
  151.1731  140.8005  158.9938 H   0  0  0  0  0  0  0  0  0  0  0  0
  152.5174  139.9622  158.2337 H   0  0  0  0  0  0  0  0  0  0  0  0
  154.0377  141.8668  158.7482 H   0  0  0  0  0  0  0  0  0  0  0  0
  153.7711  140.1598  160.5536 H   0  0  0  0  0  0  0  0  0  0  0  0
  152.4220  141.0745  161.2260 H   0  0  0  0  0  0  0  0  0  0  0  0
  154.0434  141.7638  161.2282 H   0  0  0  0  0  0  0  0  0  0  0  0
  1  2  1  0  0  0  0
  1 26  1  0  0  0  0
  1 27  1  0  0  0  0
  1 28  1  0  0  0  0
  2 25  1  0  0  0  0
  2  3  1  0  0  0  0
  2 29  1  0  0  0  0
  3  4  1  0  0  0  0
  3 30  1  0  0  0  0
  3 31  1  0  0  0  0
  4  5  1  0  0  0  0
  4 22  1  0  0  0  0
  5 21  1  0  0  0  0
  5  6  2  0  0  0  0
  6  7  1  0  0  0  0
  6 32  1  0  0  0  0
  7  8  2  0  0  0  0
  7 33  1  0  0  0  0
  8  9  1  0  0  0  0
  8 20  1  0  0  0  0
  9 10  1  0  0  0  0
  9 34  1  0  0  0  0
 10 11  2  0  0  0  0
 10 12  1  0  0  0  0
 12 13  1  0  0  0  0
 12 35  1  0  0  0  0
 13 14  1  0  0  0  0
 13 36  1  0  0  0  0
 13 37  1  0  0  0  0
 14 15  1  0  0  0  0
 14 16  1  0  0  0  0
 14 17  1  0  0  0  0
 15 38  1  0  0  0  0
 15 39  1  0  0  0  0
 15 40  1  0  0  0  0
 16 41  1  0  0  0  0
 16 42  1  0  0  0  0
 16 43  1  0  0  0  0
 17 18  1  0  0  0  0
 17 19  2  0  0  0  0
 18 44  1  0  0  0  0
 18 45  1  0  0  0  0
 20 21  2  0  0  0  0
 20 46  1  0  0  0  0
 22 23  1  0  0  0  0
 22 47  1  0  0  0  0
 22 48  1  0  0  0  0
 23 24  1  0  0  0  0
 23 25  1  0  0  0  0
 23 49  1  0  0  0  0
 24 50  1  0  0  0  0
 24 51  1  0  0  0  0
 24 52  1  0  0  0  0
M  END
> <s_m_source_file>
AV-unprocessed.smi

> <i_m_source_file_index>
1018

> <i_lp_mmshare_version>
43012

> <i_f3d_flags>
0

> <s_epik_input>
W0NIM11bQ0BASF0xW0NIMl1OKFtDSDJdW0NASF0oTzEpW0NIM10pYzJbY0hdW2NIXWMoW2NIXW4yKVtOSF1DKD1PKVtOSF1bQ0gyXUMoW0NIM10pKFtDSDNdKUMoPU8pW05IMl0=

> <s_epik_cmdline>
J2VwaWtfcHl0aG9uJywgJy1waCcsICc3LjAnLCAnLXRuJywgJzgnLCAnLW1hJywgJzIwMCcsICctbWV0YWxfYmluZGluZycsICctaW1hZScsICc8aW5maWxlLm1hZT4nLCAnLW9tYWUnLCAnPG91dGZpbGUubWFlPic=

> <r_lp_tautomer_probability>
1

> <r_epik_Ionization_Penalty>
0.002562

> <r_epik_Ionization_Penalty_Charging>
0

> <r_epik_Ionization_Penalty_Neutral>
0.002562

> <r_epik_State_Penalty>
0.00175377

> <r_epik_Charging_Adjusted_Penalty>
0.00175377

> <i_epik_Tot_Q>
0

> <i_epik_Tot_abs_Q>
0

> <r_epik_Metal_State_Penalty>
-0

> <b_epik_Metal_Only>
0

> <s_lp_Force_Field>
OPLS_2005

> <r_lp_Energy>
23.1449

> <b_lp_Chiralities_Consistent>
1

> <s_lp_Variant>
AV-unprocessed.smi:1018-2

> <Gold.Version>
5.8.1

> <Gold.Id.Protein>
6NUR|6NUR_protein|mol2

> <Gold.PLP.Fitness>
56.0555

> <Gold.PLP.PLP>
-48.0789

> <Gold.PLP.part.hbond>
-4.8353

> <Gold.PLP.part.metal>
0.0000

> <Gold.PLP.part.buried>
-3.9956

> <Gold.PLP.part.nonpolar>
-41.2928

> <Gold.PLP.part.repulsive>
0.7255

> <Gold.PLP.ligand.clash>
1.0850

> <Gold.PLP.ligand.torsion>
0.9980

> <Gold.PLP.Chemscore.Hbond>
3.6365

> <Gold.PLP.Chemscore.CHOScore>
0.0000

> <Gold.PLP.Chemscore.Metal>
0.0000

> <Gold.Chemscore.Hbonds>
donor molecule, donor type, donor heavy atom, donor atom, acceptor molecule, acceptor atom, score
      L1  H     9    34       P1  7948  0.55
      L1  H    12    35       P1  7948  1.00
      L1  H    18    44       P1  7921  0.91
      L1  H    18    45       P1 10171  1.00

> <Gold.PLP.Chemscore.Internal.Correction>
0.1480

> <Gold.Rescore>
     Score         DG    S(hbond)    S(metal)    S(lipo)     H(rot)  DE(clash)    DE(int)     intcor
     20.42     -22.95       2.99        0.00     109.88       2.09       0.39       2.14       ----

> <Gold.Chemscore.Fitness>
20.4170

> <Gold.Chemscore.DG>
-22.9519

> <Gold.Chemscore.ZeroCoef>
-5.4800

> <Gold.Chemscore.Hbond>
2.9877

> <Gold.Chemscore.Metal>
0.0000

> <Gold.Chemscore.Lipo>
109.8762

> <Gold.Chemscore.Internal_Hbond>
0.0000

> <Gold.Chemscore.DEClash>
0.3943

> <Gold.Chemscore.DEInternal>
2.1407

> <Gold.Chemscore.Rot>
2.0947

> <Gold.Chemscore.Internal.Correction>
   9.000000E+99

> <Gold.Chemscore.Hbonds>
donor molecule, donor type, donor heavy atom, donor atom, acceptor molecule, acceptor atom, score
      L1  H     9    34       P1  7948  0.52
      L1  H    12    35       P1  7948  0.99
      L1  H    18    44       P1  7921  0.82
      L1  H    18    45       P1 10171  0.99

> <Gold.Chemscore.Hbond.Weighted>
-9.9788

> <Gold.Chemscore.Metal.Weighted>
-0.0000

> <Gold.Chemscore.Lipo.Weighted>
-12.8555

> <Gold.Chemscore.Internal_Hbond.Weighted>
0.0000

> <Gold.Chemscore.DEClash.Weighted>
0.3943

> <Gold.Chemscore.DEInternal.Weighted>
2.1407

> <Gold.Chemscore.Rot.Weighted>
5.3624

> <Gold.Chemscore.Internal.Correction.Weighted>
   9.000000E+99

> <Gold.Protein.RotatedTorsions>
[ 6907 6896 6895 6894 ] final   65.05 input  -60.11 | X-H torsion
[ 7974 7965 7964 7962 ] final  -13.29 input  175.53 | X-H torsion
[ 8008 7997 7996 7995 ] final  -94.32 input   59.86 | X-H torsion
[ 10167 10162 10161 10158 ] final -175.04 input  -65.29 | X-H torsion
[ 10718 10713 10712 10709 ] final -119.74 input   66.30 | X-H torsion
[ 10763 10752 10751 10750 ] final -151.07 input  -60.55 | X-H torsion
[ 11005 11000 10999 10996 ] final -125.78 input  -57.11 | X-H torsion

> <Gold.Protein.ActiveResidues>
 VAL166  LYS551  ARG553  GLY616  TRP617  ASP618  TYR619  PRO620  LYS621  CYS622 
 ASP623  PHE694  ASN695  SER759  ASP760  ASP761  ALA762  ILE779  LEU786  VAL792 
 PHE793  MET794  SER795  GLU796  ALA797  LYS798  CYS799  TRP800  GLU811  SER814 

> <Gold.Protein.RotatedAtoms>
  152.4378  134.5652  159.9905 H   0  0  0  0  0  0  0  0  0  0  0  0  # atno 6907 bound_to 6896
  151.5758  133.3378  159.3006 H   0  0  0  0  0  0  0  0  0  0  0  0  # atno 6908 bound_to 6896
  150.8279  134.7553  159.6893 H   0  0  0  0  0  0  0  0  0  0  0  0  # atno 6909 bound_to 6896
  146.2120  140.3182  142.8388 H   0  0  0  0  0  0  0  0  0  0  0  0  # atno 7974 bound_to 7965
  154.7469  140.0490  157.0859 H   0  0  0  0  0  0  0  0  0  0  0  0  # atno 8008 bound_to 7997
  155.0107  140.3135  155.4811 H   0  0  0  0  0  0  0  0  0  0  0  0  # atno 8009 bound_to 7997
  156.2877  140.2184  156.5221 H   0  0  0  0  0  0  0  0  0  0  0  0  # atno 8010 bound_to 7997
  139.5602  144.1890  152.1225 H   0  0  0  0  0  0  0  0  0  0  0  0  # atno 10167 bound_to 10162
  156.1204  130.6319  150.9454 H   0  0  0  0  0  0  0  0  0  0  0  0  # atno 10718 bound_to 10713
  154.8081  135.3269  154.7379 H   0  0  0  0  0  0  0  0  0  0  0  0  # atno 10763 bound_to 10752
  153.8033  135.6901  153.4856 H   0  0  0  0  0  0  0  0  0  0  0  0  # atno 10764 bound_to 10752
  153.1840  135.4576  155.0009 H   0  0  0  0  0  0  0  0  0  0  0  0  # atno 10765 bound_to 10752
  140.9734  134.0773  157.3844 H   0  0  0  0  0  0  0  0  0  0  0  0  # atno 11005 bound_to 11000
  144.8939  140.7558  143.5909 LP  0  0  0  0  0  0  0  0  0  0  0  0  # atno 17320 bound_to 7965
  145.3106  139.1820  143.4641 LP  0  0  0  0  0  0  0  0  0  0  0  0  # atno 17321 bound_to 7965
  140.1402  144.5209  150.6749 LP  0  0  0  0  0  0  0  0  0  0  0  0  # atno 17342 bound_to 10162
  140.6880  143.2360  151.5208 LP  0  0  0  0  0  0  0  0  0  0  0  0  # atno 17343 bound_to 10162
  157.6388  131.0913  150.8294 LP  0  0  0  0  0  0  0  0  0  0  0  0  # atno 17370 bound_to 10713
  156.8392  130.5042  149.5323 LP  0  0  0  0  0  0  0  0  0  0  0  0  # atno 17371 bound_to 10713
  139.8921  135.0122  156.6828 LP  0  0  0  0  0  0  0  0  0  0  0  0  # atno 17394 bound_to 11000
  140.7295  133.9071  155.8201 LP  0  0  0  0  0  0  0  0  0  0  0  0  # atno 17395 bound_to 11000

$$$$
