AV-unprocessed.smi:276|AV-procd|sdf|2071|dock5
  -GOLD-   2262021333D 1   1.00000     0.00000
 Structure written by MMmdl.
 57 61  0  0  0  0  0  0  0  0  1 V2000
  143.3841  139.4864  155.7615 C   0  0  0  0  0  0  0  0  0  0  0  0
  144.7205  139.1664  156.1057 O   0  0  0  0  0  0  0  0  0  0  0  0
  144.9653  137.7668  156.1301 C   0  0  1  0  0  0  0  0  0  0  0  0
  145.1713  137.1754  154.7272 C   0  0  0  0  0  0  0  0  0  0  0  0
  146.6852  137.4296  154.8686 C   0  0  1  0  0  0  0  0  0  0  0  0
  147.0772  138.7077  154.2574 N   0  0  0  0  0  0  0  0  0  0  0  0
  146.8245  138.8406  152.8262 C   0  0  0  0  0  0  0  0  0  0  0  0
  148.3231  139.1438  154.5463 C   0  0  0  0  0  0  0  0  0  0  0  0
  149.3546  138.5134  153.9313 N   0  0  0  0  0  0  0  0  0  0  0  0
  150.6106  138.9084  154.1595 C   0  0  0  0  0  0  0  0  0  0  0  0
  151.0470  139.8885  154.9537 N   0  0  0  0  0  0  0  0  0  0  0  0
  150.0116  140.5118  155.5865 C   0  0  0  0  0  0  0  0  0  0  0  0
  148.6293  140.2023  155.4487 C   0  0  0  0  0  0  0  0  0  0  0  0
  147.8730  141.0449  156.2552 N   0  0  0  0  0  0  0  0  0  0  0  0
  148.7559  141.8189  156.8241 C   0  0  0  0  0  0  0  0  0  0  0  0
  150.0635  141.5700  156.4761 N   0  0  0  0  0  0  0  0  0  0  0  0
  151.2366  142.2841  156.9502 C   0  0  0  0  0  0  0  0  0  0  0  0
  150.9805  143.0217  158.2847 C   0  0  2  0  0  0  0  0  0  0  0  0
  150.2126  144.1765  157.9982 O   0  0  0  0  0  0  0  0  0  0  0  0
  152.2655  143.4940  159.0047 C   0  0  2  0  0  0  0  0  0  0  0  0
  153.2381  142.3759  159.4226 C   0  0  0  0  0  0  0  0  0  0  0  0
  152.8473  142.0833  160.8529 C   0  0  0  0  0  0  0  0  0  0  0  0
  152.5010  143.4772  161.3478 C   0  0  0  0  0  0  0  0  0  0  0  0
  151.8602  144.0942  160.2393 O   0  0  0  0  0  0  0  0  0  0  0  0
  146.4472  137.4563  156.4027 C   0  0  0  0  0  0  0  0  0  0  0  0
  146.7824  136.2080  157.2378 C   0  0  0  0  0  0  0  0  0  0  0  0
  146.9971  137.1300  158.4403 C   0  0  0  0  0  0  0  0  0  0  0  0
  147.2625  138.2561  157.4403 C   0  0  0  0  0  0  0  0  0  0  0  0
  143.2552  140.5685  155.7669 H   0  0  0  0  0  0  0  0  0  0  0  0
  142.6816  139.0613  156.4792 H   0  0  0  0  0  0  0  0  0  0  0  0
  143.1286  139.1234  154.7657 H   0  0  0  0  0  0  0  0  0  0  0  0
  144.2747  137.2106  156.7661 H   0  0  0  0  0  0  0  0  0  0  0  0
  144.9361  136.1104  154.6923 H   0  0  0  0  0  0  0  0  0  0  0  0
  144.6630  137.7085  153.9248 H   0  0  0  0  0  0  0  0  0  0  0  0
  147.2761  136.5772  154.5336 H   0  0  0  0  0  0  0  0  0  0  0  0
  147.3693  139.6786  152.3878 H   0  0  0  0  0  0  0  0  0  0  0  0
  145.7651  139.0143  152.6405 H   0  0  0  0  0  0  0  0  0  0  0  0
  147.1195  137.9333  152.2981 H   0  0  0  0  0  0  0  0  0  0  0  0
  151.3752  138.3627  153.6266 H   0  0  0  0  0  0  0  0  0  0  0  0
  148.4753  142.6011  157.5144 H   0  0  0  0  0  0  0  0  0  0  0  0
  152.0370  141.5528  157.0524 H   0  0  0  0  0  0  0  0  0  0  0  0
  151.5533  142.9888  156.1801 H   0  0  0  0  0  0  0  0  0  0  0  0
  150.4011  142.3766  158.9467 H   0  0  0  0  0  0  0  0  0  0  0  0
  149.9268  144.1319  157.0985 H   0  0  0  0  0  0  0  0  0  0  0  0
  152.7937  144.2244  158.3895 H   0  0  0  0  0  0  0  0  0  0  0  0
  153.2242  141.4885  158.7936 H   0  0  0  0  0  0  0  0  0  0  0  0
  154.2585  142.7619  159.4041 H   0  0  0  0  0  0  0  0  0  0  0  0
  151.9677  141.4388  160.8825 H   0  0  0  0  0  0  0  0  0  0  0  0
  153.6435  141.6107  161.4287 H   0  0  0  0  0  0  0  0  0  0  0  0
  151.8577  143.4660  162.2279 H   0  0  0  0  0  0  0  0  0  0  0  0
  153.4064  144.0351  161.5907 H   0  0  0  0  0  0  0  0  0  0  0  0
  145.9676  135.4920  157.3507 H   0  0  0  0  0  0  0  0  0  0  0  0
  147.7029  135.7194  156.9136 H   0  0  0  0  0  0  0  0  0  0  0  0
  146.0878  137.2868  159.0228 H   0  0  0  0  0  0  0  0  0  0  0  0
  147.8466  136.8687  159.0719 H   0  0  0  0  0  0  0  0  0  0  0  0
  148.3248  138.3327  157.2103 H   0  0  0  0  0  0  0  0  0  0  0  0
  146.8423  139.2229  157.7181 H   0  0  0  0  0  0  0  0  0  0  0  0
  1  2  1  0  0  0  0
  1 29  1  0  0  0  0
  1 30  1  0  0  0  0
  1 31  1  0  0  0  0
  2  3  1  0  0  0  0
  3 25  1  0  0  0  0
  3  4  1  0  0  0  0
  3 32  1  0  0  0  0
  4  5  1  0  0  0  0
  4 33  1  0  0  0  0
  4 34  1  0  0  0  0
  5  6  1  0  0  0  0
  5 25  1  0  0  0  0
  5 35  1  0  0  0  0
  6  7  1  0  0  0  0
  6  8  1  0  0  0  0
  7 36  1  0  0  0  0
  7 37  1  0  0  0  0
  7 38  1  0  0  0  0
  8 13  1  0  0  0  0
  8  9  2  0  0  0  0
  9 10  1  0  0  0  0
 10 11  2  0  0  0  0
 10 39  1  0  0  0  0
 11 12  1  0  0  0  0
 12 16  1  0  0  0  0
 12 13  2  0  0  0  0
 13 14  1  0  0  0  0
 14 15  2  0  0  0  0
 15 16  1  0  0  0  0
 15 40  1  0  0  0  0
 16 17  1  0  0  0  0
 17 18  1  0  0  0  0
 17 41  1  0  0  0  0
 17 42  1  0  0  0  0
 18 19  1  0  0  0  0
 18 20  1  0  0  0  0
 18 43  1  0  0  0  0
 19 44  1  0  0  0  0
 20 24  1  0  0  0  0
 20 21  1  0  0  0  0
 20 45  1  0  0  0  0
 21 22  1  0  0  0  0
 21 46  1  0  0  0  0
 21 47  1  0  0  0  0
 22 23  1  0  0  0  0
 22 48  1  0  0  0  0
 22 49  1  0  0  0  0
 23 24  1  0  0  0  0
 23 50  1  0  0  0  0
 23 51  1  0  0  0  0
 25 28  1  0  0  0  0
 25 26  1  0  0  0  0
 26 27  1  0  0  0  0
 26 52  1  0  0  0  0
 26 53  1  0  0  0  0
 27 28  1  0  0  0  0
 27 54  1  0  0  0  0
 27 55  1  0  0  0  0
 28 56  1  0  0  0  0
 28 57  1  0  0  0  0
M  END
> <s_m_source_file>
AV-unprocessed.smi

> <i_m_source_file_index>
276

> <i_lp_mmshare_version>
43012

> <i_f3d_flags>
0

> <s_epik_input>
W0NIMl0xW0NIMl1bQ0gyXUMxMltDQEhdKE9bQ0gzXSlbQ0gyXVtDQEhdMk4oW0NIM10pYyhuW2NIXW4zKWMoYzM0KW5bY0hdbjRbQ0gyXVtDQEhdKFtPSF0pW0NAQEhdNVtDSDJdW0NIMl1bQ0gyXU81

> <s_epik_cmdline>
J2VwaWtfcHl0aG9uJywgJy1waCcsICc3LjAnLCAnLXRuJywgJzgnLCAnLW1hJywgJzIwMCcsICctbWV0YWxfYmluZGluZycsICctaW1hZScsICc8aW5maWxlLm1hZT4nLCAnLW9tYWUnLCAnPG91dGZpbGUubWFlPic=

> <r_lp_tautomer_probability>
1

> <r_epik_Ionization_Penalty>
0.00204117

> <r_epik_Ionization_Penalty_Charging>
0

> <r_epik_Ionization_Penalty_Neutral>
0.00204117

> <r_epik_State_Penalty>
0.00127401

> <r_epik_Charging_Adjusted_Penalty>
0.00127401

> <i_epik_Tot_Q>
0

> <i_epik_Tot_abs_Q>
0

> <r_epik_Metal_State_Penalty>
-0

> <b_epik_Metal_Only>
0

> <s_lp_Force_Field>
OPLS_2005

> <r_lp_Energy>
58.0583

> <b_lp_Chiralities_Consistent>
1

> <s_lp_Variant>
AV-unprocessed.smi:276-2

> <Gold.Version>
5.8.1

> <Gold.Id.Protein>
6NUR|6NUR_protein|mol2

> <Gold.PLP.Fitness>
39.9411

> <Gold.PLP.PLP>
-35.7943

> <Gold.PLP.part.hbond>
-3.0000

> <Gold.PLP.part.metal>
0.0000

> <Gold.PLP.part.buried>
-6.0033

> <Gold.PLP.part.nonpolar>
-28.1155

> <Gold.PLP.part.repulsive>
0.8812

> <Gold.PLP.ligand.clash>
0.0000

> <Gold.PLP.ligand.torsion>
0.8780

> <Gold.PLP.Chemscore.Hbond>
1.6000

> <Gold.PLP.Chemscore.CHOScore>
0.0699

> <Gold.PLP.Chemscore.Metal>
0.0000

> <Gold.Chemscore.Hbonds>
donor molecule, donor type, donor heavy atom, donor atom, acceptor molecule, acceptor atom, score
      L1  H    19    44       P1  8028  1.00
      P1  H  7989  7998       L1    11  0.60
      L1  C    15    40       P1  8028  0.08

> <Gold.PLP.Chemscore.Internal.Correction>
0.8930

> <Gold.Rescore>
     Score         DG    S(hbond)    S(metal)    S(lipo)     H(rot)  DE(clash)    DE(int)     intcor
     10.70     -11.79       1.33        0.00      75.38       2.72       0.23       0.86       ----

> <Gold.Chemscore.Fitness>
10.6999

> <Gold.Chemscore.DG>
-11.7902

> <Gold.Chemscore.ZeroCoef>
-5.4800

> <Gold.Chemscore.Hbond>
1.3312

> <Gold.Chemscore.Metal>
0.0000

> <Gold.Chemscore.Lipo>
75.3842

> <Gold.Chemscore.Internal_Hbond>
0.0000

> <Gold.Chemscore.DEClash>
0.2264

> <Gold.Chemscore.DEInternal>
0.8638

> <Gold.Chemscore.Rot>
2.7172

> <Gold.Chemscore.Internal.Correction>
   9.000000E+99

> <Gold.Chemscore.Hbonds>
donor molecule, donor type, donor heavy atom, donor atom, acceptor molecule, acceptor atom, score
      L1  H    19    44       P1  8028  0.75
      P1  H  7989  7998       L1    11  0.03

> <Gold.Chemscore.Hbond.Weighted>
-4.4462

> <Gold.Chemscore.Metal.Weighted>
-0.0000

> <Gold.Chemscore.Lipo.Weighted>
-8.8200

> <Gold.Chemscore.Internal_Hbond.Weighted>
0.0000

> <Gold.Chemscore.DEClash.Weighted>
0.2264

> <Gold.Chemscore.DEInternal.Weighted>
0.8638

> <Gold.Chemscore.Rot.Weighted>
6.9560

> <Gold.Chemscore.Internal.Correction.Weighted>
   9.000000E+99

> <Gold.Protein.RotatedTorsions>
[ 6907 6896 6895 6894 ] final    1.23 input  -60.11 | X-H torsion
[ 7974 7965 7964 7962 ] final  173.87 input  175.53 | X-H torsion
[ 8008 7997 7996 7995 ] final  -79.07 input   59.86 | X-H torsion
[ 10167 10162 10161 10158 ] final  147.01 input  -65.29 | X-H torsion
[ 10718 10713 10712 10709 ] final -117.15 input   66.30 | X-H torsion
[ 10763 10752 10751 10750 ] final   94.57 input  -60.55 | X-H torsion
[ 11005 11000 10999 10996 ] final   51.53 input  -57.11 | X-H torsion

> <Gold.Protein.ActiveResidues>
 VAL166  LYS551  ARG553  GLY616  TRP617  ASP618  TYR619  PRO620  LYS621  CYS622 
 ASP623  PHE694  ASN695  SER759  ASP760  ASP761  ALA762  ILE779  LEU786  VAL792 
 PHE793  MET794  SER795  GLU796  ALA797  LYS798  CYS799  TRP800  GLU811  SER814 

> <Gold.Protein.RotatedAtoms>
  151.5893  135.1054  160.0035 H   0  0  0  0  0  0  0  0  0  0  0  0  # atno 6907 bound_to 6896
  152.4314  133.7281  159.6582 H   0  0  0  0  0  0  0  0  0  0  0  0  # atno 6908 bound_to 6896
  150.8207  133.8187  159.3163 H   0  0  0  0  0  0  0  0  0  0  0  0  # atno 6909 bound_to 6896
  144.7234  139.9712  143.6437 H   0  0  0  0  0  0  0  0  0  0  0  0  # atno 7974 bound_to 7965
  154.5749  140.0684  156.9020 H   0  0  0  0  0  0  0  0  0  0  0  0  # atno 8008 bound_to 7997
  155.2566  140.3355  155.4259 H   0  0  0  0  0  0  0  0  0  0  0  0  # atno 8009 bound_to 7997
  156.2146  140.1773  156.7602 H   0  0  0  0  0  0  0  0  0  0  0  0  # atno 8010 bound_to 7997
  139.4897  144.5787  151.6915 H   0  0  0  0  0  0  0  0  0  0  0  0  # atno 10167 bound_to 10162
  156.1013  130.6174  150.9127 H   0  0  0  0  0  0  0  0  0  0  0  0  # atno 10718 bound_to 10713
  153.2432  135.4285  155.0719 H   0  0  0  0  0  0  0  0  0  0  0  0  # atno 10763 bound_to 10752
  154.8349  135.3407  154.6620 H   0  0  0  0  0  0  0  0  0  0  0  0  # atno 10764 bound_to 10752
  153.7043  135.7026  153.5111 H   0  0  0  0  0  0  0  0  0  0  0  0  # atno 10765 bound_to 10752
  140.0925  134.5190  155.8838 H   0  0  0  0  0  0  0  0  0  0  0  0  # atno 11005 bound_to 11000
  146.0562  139.3558  143.0609 LP  0  0  0  0  0  0  0  0  0  0  0  0  # atno 17320 bound_to 7965
  145.8152  140.9706  143.0928 LP  0  0  0  0  0  0  0  0  0  0  0  0  # atno 17321 bound_to 7965
  140.5388  144.0612  150.6080 LP  0  0  0  0  0  0  0  0  0  0  0  0  # atno 17342 bound_to 10162
  140.3627  143.2899  152.0366 LP  0  0  0  0  0  0  0  0  0  0  0  0  # atno 17343 bound_to 10162
  157.6184  131.0931  150.8668 LP  0  0  0  0  0  0  0  0  0  0  0  0  # atno 17370 bound_to 10713
  156.8795  130.5174  149.5292 LP  0  0  0  0  0  0  0  0  0  0  0  0  # atno 17371 bound_to 10713
  141.2082  133.6671  156.6356 LP  0  0  0  0  0  0  0  0  0  0  0  0  # atno 17394 bound_to 11000
  140.3332  134.7911  157.4342 LP  0  0  0  0  0  0  0  0  0  0  0  0  # atno 17395 bound_to 11000

$$$$
