AV-unprocessed.smi:845|AV-procd|sdf|3933|dock1
  -GOLD-   22720 1393D 1   1.00000     0.00000
 Structure written by MMmdl.
 41 42  0  0  0  0  0  0  0  0  2 V2000
  147.9323  140.9798  154.1692 C   0  0  0  0  0  0  0  0  0  0  0  0
  148.0997  139.5258  153.6965 C   0  0  0  0  0  0  0  0  0  0  0  0
  146.8537  139.0493  152.9245 C   0  0  0  0  0  0  0  0  0  0  0  0
  148.6235  138.5916  154.8336 C   0  0  2  0  0  0  0  0  0  0  0  0
  147.6772  138.5076  156.0620 C   0  0  0  0  0  0  0  0  0  0  0  0
  148.2913  137.7813  157.1711 N   0  0  0  0  0  0  0  0  0  0  0  0
  147.8464  137.7219  158.4345 C   0  0  0  0  0  0  0  0  0  0  0  0
  146.8285  138.3349  158.7640 O   0  0  0  0  0  0  0  0  0  0  0  0
  148.6119  136.9523  159.2413 N   0  5  0  0  0  0  0  0  0  0  0  0
  148.1030  136.4655  160.3848 C   0  0  0  0  0  0  0  0  0  0  0  0
  147.5778  137.2423  161.3394 N   0  0  0  0  0  0  0  0  0  0  0  0
  147.1030  136.5256  162.4395 C   0  0  0  0  0  0  0  0  0  0  0  0
  147.2612  135.1709  162.3152 C   0  0  0  0  0  0  0  0  0  0  0  0
  148.0171  134.7521  160.8043 S   0  0  0  0  0  0  0  0  0  0  0  0
  150.0534  138.7581  155.1647 N   0  0  0  0  0  0  0  0  0  0  0  0
  150.9901  138.4294  154.0905 C   0  0  0  0  0  0  0  0  0  0  0  0
  152.4512  138.5379  154.5594 C   0  0  0  0  0  0  0  0  0  0  0  0
  152.6974  139.8451  155.0680 O   0  0  0  0  0  0  0  0  0  0  0  0
  151.8315  140.1871  156.1456 C   0  0  0  0  0  0  0  0  0  0  0  0
  150.3679  140.0877  155.6833 C   0  0  0  0  0  0  0  0  0  0  0  0
  147.1132  141.0771  154.8823 H   0  0  0  0  0  0  0  0  0  0  0  0
  147.7181  141.6415  153.3295 H   0  0  0  0  0  0  0  0  0  0  0  0
  148.8398  141.3444  154.6513 H   0  0  0  0  0  0  0  0  0  0  0  0
  148.8958  139.5597  152.9518 H   0  0  0  0  0  0  0  0  0  0  0  0
  145.9337  139.1981  153.4855 H   0  0  0  0  0  0  0  0  0  0  0  0
  146.9167  138.0003  152.6394 H   0  0  0  0  0  0  0  0  0  0  0  0
  146.7450  139.6196  152.0017 H   0  0  0  0  0  0  0  0  0  0  0  0
  148.5522  137.6036  154.3757 H   0  0  0  0  0  0  0  0  0  0  0  0
  147.4462  139.5038  156.4364 H   0  0  0  0  0  0  0  0  0  0  0  0
  146.7212  138.0674  155.7787 H   0  0  0  0  0  0  0  0  0  0  0  0
  149.1296  137.2608  156.9583 H   0  0  0  0  0  0  0  0  0  0  0  0
  146.6652  137.0624  163.2678 H   0  0  0  0  0  0  0  0  0  0  0  0
  146.9803  134.3979  163.0143 H   0  0  0  0  0  0  0  0  0  0  0  0
  150.8225  137.4232  153.7215 H   0  0  0  0  0  0  0  0  0  0  0  0
  150.8430  139.1022  153.2454 H   0  0  0  0  0  0  0  0  0  0  0  0
  152.6650  137.7944  155.3288 H   0  0  0  0  0  0  0  0  0  0  0  0
  153.1310  138.3446  153.7296 H   0  0  0  0  0  0  0  0  0  0  0  0
  152.0148  139.5247  156.9930 H   0  0  0  0  0  0  0  0  0  0  0  0
  152.0567  141.2009  156.4764 H   0  0  0  0  0  0  0  0  0  0  0  0
  150.1893  140.8447  154.9196 H   0  0  0  0  0  0  0  0  0  0  0  0
  149.7121  140.3263  156.5213 H   0  0  0  0  0  0  0  0  0  0  0  0
  1  2  1  0  0  0  0
  1 21  1  0  0  0  0
  1 22  1  0  0  0  0
  1 23  1  0  0  0  0
  2  3  1  0  0  0  0
  2  4  1  0  0  0  0
  2 24  1  0  0  0  0
  3 25  1  0  0  0  0
  3 26  1  0  0  0  0
  3 27  1  0  0  0  0
  4  5  1  0  0  0  0
  4 15  1  0  0  0  0
  4 28  1  0  0  0  0
  5  6  1  0  0  0  0
  5 29  1  0  0  0  0
  5 30  1  0  0  0  0
  6  7  1  0  0  0  0
  6 31  1  0  0  0  0
  7  8  2  0  0  0  0
  7  9  1  0  0  0  0
  9 10  1  0  0  0  0
 10 14  1  0  0  0  0
 10 11  2  0  0  0  0
 11 12  1  0  0  0  0
 12 13  2  0  0  0  0
 12 32  1  0  0  0  0
 13 14  1  0  0  0  0
 13 33  1  0  0  0  0
 15 20  1  0  0  0  0
 15 16  1  0  0  0  0
 16 17  1  0  0  0  0
 16 34  1  0  0  0  0
 16 35  1  0  0  0  0
 17 18  1  0  0  0  0
 17 36  1  0  0  0  0
 17 37  1  0  0  0  0
 18 19  1  0  0  0  0
 19 20  1  0  0  0  0
 19 38  1  0  0  0  0
 19 39  1  0  0  0  0
 20 40  1  0  0  0  0
 20 41  1  0  0  0  0
M  CHG  1   9  -1
M  END
> <s_m_source_file>
AV-unprocessed.smi

> <i_m_source_file_index>
845

> <i_lp_mmshare_version>
43012

> <i_f3d_flags>
0

> <s_epik_input>
W0NIMl0xW0NIMl1PW0NIMl1bQ0gyXU4xW0NASF0oW0NIXShbQ0gzXSlbQ0gzXSlbQ0gyXVtOSF1DKD1PKVtOSF1jMm5bY0hdW2NIXXMy

> <s_epik_cmdline>
J2VwaWtfcHl0aG9uJywgJy1waCcsICc3LjAnLCAnLXRuJywgJzgnLCAnLW1hJywgJzIwMCcsICctbWV0YWxfYmluZGluZycsICctaW1hZScsICc8aW5maWxlLm1hZT4nLCAnLW9tYWUnLCAnPG91dGZpbGUubWFlPic=

> <r_lp_tautomer_probability>
0.999

> <r_epik_Ionization_Penalty>
9.02543

> <r_epik_Ionization_Penalty_Charging>
6.76546

> <r_epik_Ionization_Penalty_Neutral>
2.25997

> <r_epik_State_Penalty>
7.18984

> <r_epik_Charging_Adjusted_Penalty>
13.9553

> <i_epik_Tot_Q>
-1

> <i_epik_Tot_abs_Q>
1

> <r_epik_Metal_State_Penalty>
3.11401

> <b_epik_Metal_Only>
1

> <s_lp_Force_Field>
OPLS_2005

> <r_lp_Energy>
34.1255

> <b_lp_Chiralities_Consistent>
1

> <s_lp_Variant>
AV-unprocessed.smi:845-7

> <Gold.Version>
5.8.1

> <Gold.Id.Protein>
6NUR|6NUR_protein|mol2

> <Gold.PLP.Fitness>
43.5049

> <Gold.PLP.PLP>
-35.8173

> <Gold.PLP.part.hbond>
-5.0000

> <Gold.PLP.part.metal>
0.0000

> <Gold.PLP.part.buried>
-3.9335

> <Gold.PLP.part.nonpolar>
-26.5313

> <Gold.PLP.part.repulsive>
0.1311

> <Gold.PLP.ligand.clash>
0.0000

> <Gold.PLP.ligand.torsion>
1.1397

> <Gold.PLP.Chemscore.Hbond>
3.0945

> <Gold.PLP.Chemscore.CHOScore>
0.0000

> <Gold.PLP.Chemscore.Metal>
0.0000

> <Gold.Chemscore.Hbonds>
donor molecule, donor type, donor heavy atom, donor atom, acceptor molecule, acceptor atom, score
      P1  H  6931  6943       L1    11  0.91
      P1  H  6934  6947       L1    11  0.86
      P1  H  7989  7998       L1    18  0.31
      P1  H  7997  8008       L1    18  1.00

> <Gold.PLP.Chemscore.Internal.Correction>
0.6834

> <Gold.Rescore>
     Score         DG    S(hbond)    S(metal)    S(lipo)     H(rot)  DE(clash)    DE(int)     intcor
     14.66     -17.14       2.11        0.00      76.83       1.71       0.03       2.45       ----

> <Gold.Chemscore.Fitness>
14.6615

> <Gold.Chemscore.DG>
-17.1433

> <Gold.Chemscore.ZeroCoef>
-5.4800

> <Gold.Chemscore.Hbond>
2.1099

> <Gold.Chemscore.Metal>
0.0000

> <Gold.Chemscore.Lipo>
76.8280

> <Gold.Chemscore.Internal_Hbond>
0.0000

> <Gold.Chemscore.DEClash>
0.0275

> <Gold.Chemscore.DEInternal>
2.4543

> <Gold.Chemscore.Rot>
1.7081

> <Gold.Chemscore.Internal.Correction>
   9.000000E+99

> <Gold.Chemscore.Hbonds>
donor molecule, donor type, donor heavy atom, donor atom, acceptor molecule, acceptor atom, score
      P1  H  6931  6943       L1    11  0.23
      P1  H  6934  6947       L1    11  0.82
      P1  H  7989  7998       L1    18  0.01
      P1  H  7997  8008       L1    18  0.45

> <Gold.Chemscore.Hbond.Weighted>
-7.0472

> <Gold.Chemscore.Metal.Weighted>
-0.0000

> <Gold.Chemscore.Lipo.Weighted>
-8.9889

> <Gold.Chemscore.Internal_Hbond.Weighted>
0.0000

> <Gold.Chemscore.DEClash.Weighted>
0.0275

> <Gold.Chemscore.DEInternal.Weighted>
2.4543

> <Gold.Chemscore.Rot.Weighted>
4.3728

> <Gold.Chemscore.Internal.Correction.Weighted>
   9.000000E+99

> <Gold.Protein.RotatedTorsions>
[ 6907 6896 6895 6894 ] final   82.96 input  -60.11 | X-H torsion
[ 7974 7965 7964 7962 ] final  -41.28 input  175.53 | X-H torsion
[ 8008 7997 7996 7995 ] final   -5.26 input   59.86 | X-H torsion
[ 10167 10162 10161 10158 ] final -163.90 input  -65.29 | X-H torsion
[ 10718 10713 10712 10709 ] final  -59.45 input   66.30 | X-H torsion
[ 10763 10752 10751 10750 ] final   63.30 input  -60.55 | X-H torsion
[ 11005 11000 10999 10996 ] final -120.14 input  -57.11 | X-H torsion

> <Gold.Protein.ActiveResidues>
 VAL166  LYS551  ARG553  GLY616  TRP617  ASP618  TYR619  PRO620  LYS621  CYS622 
 ASP623  PHE694  ASN695  SER759  ASP760  ASP761  ALA762  ILE779  LEU786  VAL792 
 PHE793  MET794  SER795  GLU796  ALA797  LYS798  CYS799  TRP800  GLU811  SER814 

> <Gold.Protein.RotatedAtoms>
  152.5314  134.2968  159.9063 H   0  0  0  0  0  0  0  0  0  0  0  0  # atno 6907 bound_to 6896
  151.2920  133.4155  159.2641 H   0  0  0  0  0  0  0  0  0  0  0  0  # atno 6908 bound_to 6896
  151.0193  134.9472  159.8107 H   0  0  0  0  0  0  0  0  0  0  0  0  # atno 6909 bound_to 6896
  146.0226  140.6832  142.9171 H   0  0  0  0  0  0  0  0  0  0  0  0  # atno 7974 bound_to 7965
  154.6057  140.2463  155.7734 H   0  0  0  0  0  0  0  0  0  0  0  0  # atno 8008 bound_to 7997
  156.2339  140.2957  156.0213 H   0  0  0  0  0  0  0  0  0  0  0  0  # atno 8009 bound_to 7997
  155.2136  140.0398  157.2927 H   0  0  0  0  0  0  0  0  0  0  0  0  # atno 8010 bound_to 7997
  139.6288  144.0479  152.1998 H   0  0  0  0  0  0  0  0  0  0  0  0  # atno 10167 bound_to 10162
  156.1061  130.4180  150.0717 H   0  0  0  0  0  0  0  0  0  0  0  0  # atno 10718 bound_to 10713
  153.0013  135.5434  154.6329 H   0  0  0  0  0  0  0  0  0  0  0  0  # atno 10763 bound_to 10752
  154.5603  135.2833  155.0928 H   0  0  0  0  0  0  0  0  0  0  0  0  # atno 10764 bound_to 10752
  154.2133  135.6463  153.5174 H   0  0  0  0  0  0  0  0  0  0  0  0  # atno 10765 bound_to 10752
  141.0165  134.0188  157.3342 H   0  0  0  0  0  0  0  0  0  0  0  0  # atno 11005 bound_to 11000
  144.6996  140.3592  143.7167 LP  0  0  0  0  0  0  0  0  0  0  0  0  # atno 17320 bound_to 7965
  145.7169  139.1699  143.2506 LP  0  0  0  0  0  0  0  0  0  0  0  0  # atno 17321 bound_to 7965
  140.0140  144.6203  150.7623 LP  0  0  0  0  0  0  0  0  0  0  0  0  # atno 17342 bound_to 10162
  140.7427  143.2836  151.3529 LP  0  0  0  0  0  0  0  0  0  0  0  0  # atno 17343 bound_to 10162
  156.8692  130.9518  151.3611 LP  0  0  0  0  0  0  0  0  0  0  0  0  # atno 17370 bound_to 10713
  157.6237  130.8675  149.9153 LP  0  0  0  0  0  0  0  0  0  0  0  0  # atno 17371 bound_to 10713
  139.9120  135.0191  156.7730 LP  0  0  0  0  0  0  0  0  0  0  0  0  # atno 17394 bound_to 11000
  140.6646  133.9614  155.7823 LP  0  0  0  0  0  0  0  0  0  0  0  0  # atno 17395 bound_to 11000

$$$$
