AV-unprocessed.smi:232|AV-procd|sdf|1768|dock10
  -GOLD-   2262020303D 1   1.00000     0.00000
 Structure written by MMmdl.
 52 55  0  0  0  0  0  0  0  0  1 V2000
  155.0961  132.8391  159.9632 C   0  0  0  0  0  0  0  0  0  0  0  0
  155.1780  134.3319  160.3051 C   0  0  0  0  0  0  0  0  0  0  0  0
  154.6095  134.6662  161.7009 C   0  0  1  0  0  0  0  0  0  0  0  0
  155.2105  133.8224  162.8352 C   0  0  0  0  0  0  0  0  0  0  0  0
  155.2171  134.7495  164.0567 C   0  0  0  0  0  0  0  0  0  0  0  0
  154.6096  136.0615  163.5485 C   0  0  1  0  0  0  0  0  0  0  0  0
  155.1795  137.3105  164.2401 C   0  0  0  0  0  0  0  0  0  0  0  0
  154.8477  136.0461  162.1093 N   0  0  0  0  0  0  0  0  0  0  0  0
  154.1867  136.9754  161.3789 C   0  0  0  0  0  0  0  0  0  0  0  0
  153.1761  136.6105  160.5453 N   0  0  0  0  0  0  0  0  0  0  0  0
  152.5467  137.5359  159.8142 C   0  0  0  0  0  0  0  0  0  0  0  0
  152.7674  138.8518  159.7615 N   0  0  0  0  0  0  0  0  0  0  0  0
  153.7834  139.2160  160.5958 C   0  0  0  0  0  0  0  0  0  0  0  0
  154.5376  138.3493  161.4337 C   0  0  0  0  0  0  0  0  0  0  0  0
  155.4900  139.0739  162.1390 N   0  0  0  0  0  0  0  0  0  0  0  0
  155.3119  140.3031  161.7366 C   0  0  0  0  0  0  0  0  0  0  0  0
  154.3098  140.4768  160.8084 N   0  0  0  0  0  0  0  0  0  0  0  0
  153.9039  141.7242  160.1867 C   0  0  0  0  0  0  0  0  0  0  0  0
  152.4851  141.6437  159.5908 C   0  0  2  0  0  0  0  0  0  0  0  0
  152.4997  140.9348  158.3657 O   0  0  0  0  0  0  0  0  0  0  0  0
  151.8309  143.0288  159.4129 C   0  0  2  0  0  0  0  0  0  0  0  0
  152.4244  143.9288  158.3254 C   0  0  0  0  0  0  0  0  0  0  0  0
  151.9998  145.2964  158.8108 C   0  0  0  0  0  0  0  0  0  0  0  0
  152.1572  145.1518  160.3223 C   0  0  0  0  0  0  0  0  0  0  0  0
  151.8540  143.7911  160.6175 O   0  0  0  0  0  0  0  0  0  0  0  0
  155.4685  132.6528  158.9557 H   0  0  0  0  0  0  0  0  0  0  0  0
  154.0668  132.4823  160.0082 H   0  0  0  0  0  0  0  0  0  0  0  0
  155.6909  132.2382  160.6512 H   0  0  0  0  0  0  0  0  0  0  0  0
  156.2136  134.6676  160.2359 H   0  0  0  0  0  0  0  0  0  0  0  0
  154.6295  134.8815  159.5397 H   0  0  0  0  0  0  0  0  0  0  0  0
  153.5303  134.5033  161.6873 H   0  0  0  0  0  0  0  0  0  0  0  0
  154.6321  132.9143  163.0076 H   0  0  0  0  0  0  0  0  0  0  0  0
  156.2333  133.5237  162.6010 H   0  0  0  0  0  0  0  0  0  0  0  0
  154.6478  134.3411  164.8921 H   0  0  0  0  0  0  0  0  0  0  0  0
  156.2429  134.8988  164.3962 H   0  0  0  0  0  0  0  0  0  0  0  0
  153.5342  136.0216  163.7293 H   0  0  0  0  0  0  0  0  0  0  0  0
  155.0207  137.2641  165.3176 H   0  0  0  0  0  0  0  0  0  0  0  0
  154.6999  138.2199  163.8769 H   0  0  0  0  0  0  0  0  0  0  0  0
  156.2514  137.4064  164.0642 H   0  0  0  0  0  0  0  0  0  0  0  0
  151.7546  137.1688  159.1785 H   0  0  0  0  0  0  0  0  0  0  0  0
  155.9145  141.1217  162.1027 H   0  0  0  0  0  0  0  0  0  0  0  0
  153.9544  142.5120  160.9392 H   0  0  0  0  0  0  0  0  0  0  0  0
  154.6310  141.9814  159.4152 H   0  0  0  0  0  0  0  0  0  0  0  0
  151.8570  141.0677  160.2718 H   0  0  0  0  0  0  0  0  0  0  0  0
  152.8462  141.5028  157.6947 H   0  0  0  0  0  0  0  0  0  0  0  0
  150.7755  142.8797  159.1780 H   0  0  0  0  0  0  0  0  0  0  0  0
  153.5130  143.8729  158.3034 H   0  0  0  0  0  0  0  0  0  0  0  0
  152.0506  143.6930  157.3286 H   0  0  0  0  0  0  0  0  0  0  0  0
  152.5996  146.1064  158.3951 H   0  0  0  0  0  0  0  0  0  0  0  0
  150.9546  145.4774  158.5563 H   0  0  0  0  0  0  0  0  0  0  0  0
  153.1894  145.3471  160.6153 H   0  0  0  0  0  0  0  0  0  0  0  0
  151.5125  145.8341  160.8765 H   0  0  0  0  0  0  0  0  0  0  0  0
  1  2  1  0  0  0  0
  1 26  1  0  0  0  0
  1 27  1  0  0  0  0
  1 28  1  0  0  0  0
  2  3  1  0  0  0  0
  2 29  1  0  0  0  0
  2 30  1  0  0  0  0
  3  8  1  0  0  0  0
  3  4  1  0  0  0  0
  3 31  1  0  0  0  0
  4  5  1  0  0  0  0
  4 32  1  0  0  0  0
  4 33  1  0  0  0  0
  5  6  1  0  0  0  0
  5 34  1  0  0  0  0
  5 35  1  0  0  0  0
  6  7  1  0  0  0  0
  6  8  1  0  0  0  0
  6 36  1  0  0  0  0
  7 37  1  0  0  0  0
  7 38  1  0  0  0  0
  7 39  1  0  0  0  0
  8  9  1  0  0  0  0
  9 14  1  0  0  0  0
  9 10  2  0  0  0  0
 10 11  1  0  0  0  0
 11 12  2  0  0  0  0
 11 40  1  0  0  0  0
 12 13  1  0  0  0  0
 13 17  1  0  0  0  0
 13 14  2  0  0  0  0
 14 15  1  0  0  0  0
 15 16  2  0  0  0  0
 16 17  1  0  0  0  0
 16 41  1  0  0  0  0
 17 18  1  0  0  0  0
 18 19  1  0  0  0  0
 18 42  1  0  0  0  0
 18 43  1  0  0  0  0
 19 20  1  0  0  0  0
 19 21  1  0  0  0  0
 19 44  1  0  0  0  0
 20 45  1  0  0  0  0
 21 25  1  0  0  0  0
 21 22  1  0  0  0  0
 21 46  1  0  0  0  0
 22 23  1  0  0  0  0
 22 47  1  0  0  0  0
 22 48  1  0  0  0  0
 23 24  1  0  0  0  0
 23 49  1  0  0  0  0
 23 50  1  0  0  0  0
 24 25  1  0  0  0  0
 24 51  1  0  0  0  0
 24 52  1  0  0  0  0
M  END
> <s_m_source_file>
AV-unprocessed.smi

> <i_m_source_file_index>
232

> <i_lp_mmshare_version>
43012

> <i_f3d_flags>
0

> <s_epik_input>
W0NIM11bQ0gyXVtDQEBIXTFbQ0gyXVtDSDJdW0NAQEhdKFtDSDNdKU4xYyhuW2NIXW4yKWMoYzIzKW5bY0hdbjNbQ0gyXVtDQEhdKFtPSF0pW0NAQEhdNFtDSDJdW0NIMl1bQ0gyXU80

> <s_epik_cmdline>
J2VwaWtfcHl0aG9uJywgJy1waCcsICc3LjAnLCAnLXRuJywgJzgnLCAnLW1hJywgJzIwMCcsICctbWV0YWxfYmluZGluZycsICctaW1hZScsICc8aW5maWxlLm1hZT4nLCAnLW9tYWUnLCAnPG91dGZpbGUubWFlPic=

> <r_lp_tautomer_probability>
1

> <r_epik_Ionization_Penalty>
0.00258048

> <r_epik_Ionization_Penalty_Charging>
0

> <r_epik_Ionization_Penalty_Neutral>
0.00258048

> <r_epik_State_Penalty>
0.00168551

> <r_epik_Charging_Adjusted_Penalty>
0.00168551

> <i_epik_Tot_Q>
0

> <i_epik_Tot_abs_Q>
0

> <r_epik_Metal_State_Penalty>
-0

> <b_epik_Metal_Only>
0

> <s_lp_Force_Field>
OPLS_2005

> <r_lp_Energy>
54.3711

> <b_lp_Chiralities_Consistent>
1

> <s_lp_Variant>
AV-unprocessed.smi:232-2

> <Gold.Version>
5.8.1

> <Gold.Id.Protein>
6NUR|6NUR_protein|mol2

> <Gold.PLP.Fitness>
52.1326

> <Gold.PLP.PLP>
-50.6959

> <Gold.PLP.part.hbond>
-1.5087

> <Gold.PLP.part.metal>
0.0000

> <Gold.PLP.part.buried>
-4.9610

> <Gold.PLP.part.nonpolar>
-44.6599

> <Gold.PLP.part.repulsive>
0.0969

> <Gold.PLP.ligand.clash>
0.0000

> <Gold.PLP.ligand.torsion>
0.8107

> <Gold.PLP.Chemscore.Hbond>
0.9913

> <Gold.PLP.Chemscore.CHOScore>
0.0000

> <Gold.PLP.Chemscore.Metal>
0.0000

> <Gold.Chemscore.Hbonds>
donor molecule, donor type, donor heavy atom, donor atom, acceptor molecule, acceptor atom, score
      P1  H  6896  6908       L1    10  1.00

> <Gold.PLP.Chemscore.Internal.Correction>
0.0844

> <Gold.Rescore>
     Score         DG    S(hbond)    S(metal)    S(lipo)     H(rot)  DE(clash)    DE(int)     intcor
     12.46     -15.39       0.91        0.00     111.72       2.43       0.16       2.77       ----

> <Gold.Chemscore.Fitness>
12.4588

> <Gold.Chemscore.DG>
-15.3880

> <Gold.Chemscore.ZeroCoef>
-5.4800

> <Gold.Chemscore.Hbond>
0.9124

> <Gold.Chemscore.Metal>
0.0000

> <Gold.Chemscore.Lipo>
111.7205

> <Gold.Chemscore.Internal_Hbond>
0.0000

> <Gold.Chemscore.DEClash>
0.1580

> <Gold.Chemscore.DEInternal>
2.7712

> <Gold.Chemscore.Rot>
2.4260

> <Gold.Chemscore.Internal.Correction>
   9.000000E+99

> <Gold.Chemscore.Hbonds>
donor molecule, donor type, donor heavy atom, donor atom, acceptor molecule, acceptor atom, score
      P1  H  6896  6908       L1    10  0.29

> <Gold.Chemscore.Hbond.Weighted>
-3.0474

> <Gold.Chemscore.Metal.Weighted>
-0.0000

> <Gold.Chemscore.Lipo.Weighted>
-13.0713

> <Gold.Chemscore.Internal_Hbond.Weighted>
0.0000

> <Gold.Chemscore.DEClash.Weighted>
0.1580

> <Gold.Chemscore.DEInternal.Weighted>
2.7712

> <Gold.Chemscore.Rot.Weighted>
6.2107

> <Gold.Chemscore.Internal.Correction.Weighted>
   9.000000E+99

> <Gold.Protein.RotatedTorsions>
[ 6907 6896 6895 6894 ] final  -85.41 input  -60.11 | X-H torsion
[ 7974 7965 7964 7962 ] final   78.64 input  175.53 | X-H torsion
[ 8008 7997 7996 7995 ] final   94.18 input   59.86 | X-H torsion
[ 10167 10162 10161 10158 ] final  -21.48 input  -65.29 | X-H torsion
[ 10718 10713 10712 10709 ] final  -99.41 input   66.30 | X-H torsion
[ 10763 10752 10751 10750 ] final   67.51 input  -60.55 | X-H torsion
[ 11005 11000 10999 10996 ] final   26.01 input  -57.11 | X-H torsion

> <Gold.Protein.ActiveResidues>
 VAL166  LYS551  ARG553  GLY616  TRP617  ASP618  TYR619  PRO620  LYS621  CYS622 
 ASP623  PHE694  ASN695  SER759  ASP760  ASP761  ALA762  ILE779  LEU786  VAL792 
 PHE793  MET794  SER795  GLU796  ALA797  LYS798  CYS799  TRP800  GLU811  SER814 

> <Gold.Protein.RotatedAtoms>
  150.6870  134.3209  159.4785 H   0  0  0  0  0  0  0  0  0  0  0  0  # atno 6907 bound_to 6896
  152.1085  134.9289  160.0576 H   0  0  0  0  0  0  0  0  0  0  0  0  # atno 6908 bound_to 6896
  152.0540  133.3997  159.4426 H   0  0  0  0  0  0  0  0  0  0  0  0  # atno 6909 bound_to 6896
  145.6745  139.2506  143.1849 H   0  0  0  0  0  0  0  0  0  0  0  0  # atno 7974 bound_to 7965
  156.0551  140.3303  155.7396 H   0  0  0  0  0  0  0  0  0  0  0  0  # atno 8008 bound_to 7997
  155.5541  140.0613  157.2861 H   0  0  0  0  0  0  0  0  0  0  0  0  # atno 8009 bound_to 7997
  154.4454  140.1889  156.0705 H   0  0  0  0  0  0  0  0  0  0  0  0  # atno 8010 bound_to 7997
  140.7282  143.4624  151.0361 H   0  0  0  0  0  0  0  0  0  0  0  0  # atno 10167 bound_to 10162
  156.0133  130.5281  150.6666 H   0  0  0  0  0  0  0  0  0  0  0  0  # atno 10718 bound_to 10713
  153.0190  135.5281  154.6991 H   0  0  0  0  0  0  0  0  0  0  0  0  # atno 10763 bound_to 10752
  154.6105  135.2878  155.0440 H   0  0  0  0  0  0  0  0  0  0  0  0  # atno 10764 bound_to 10752
  154.1464  135.6570  153.5006 H   0  0  0  0  0  0  0  0  0  0  0  0  # atno 10765 bound_to 10752
  140.3416  134.2326  155.7689 H   0  0  0  0  0  0  0  0  0  0  0  0  # atno 11005 bound_to 11000
  146.1017  140.7536  142.9546 LP  0  0  0  0  0  0  0  0  0  0  0  0  # atno 17320 bound_to 7965
  144.7046  140.3798  143.7128 LP  0  0  0  0  0  0  0  0  0  0  0  0  # atno 17321 bound_to 7965
  139.8309  143.7692  152.3180 LP  0  0  0  0  0  0  0  0  0  0  0  0  # atno 17342 bound_to 10162
  139.7807  144.7445  151.0092 LP  0  0  0  0  0  0  0  0  0  0  0  0  # atno 17343 bound_to 10162
  157.4397  131.0860  151.0955 LP  0  0  0  0  0  0  0  0  0  0  0  0  # atno 17370 bound_to 10713
  157.1503  130.6181  149.5580 LP  0  0  0  0  0  0  0  0  0  0  0  0  # atno 17371 bound_to 10713
  141.2037  133.7906  157.0327 LP  0  0  0  0  0  0  0  0  0  0  0  0  # atno 17394 bound_to 11000
  140.0776  134.9666  157.1571 LP  0  0  0  0  0  0  0  0  0  0  0  0  # atno 17395 bound_to 11000

$$$$
