AV-unprocessed.smi:3282|AV-procd|sdf|12561|dock10
  -GOLD-   2272018483D 1   1.00000     0.00000
 Structure written by MMmdl.
 34 35  0  0  0  0  0  0  0  0  1 V2000
  151.9738  137.5559  155.6345 C   0  0  0  0  0  0  0  0  0  0  0  0
  150.5904  137.9039  155.0616 C   0  0  0  0  0  0  0  0  0  0  0  0
  150.3678  139.4112  154.8517 C   0  0  0  0  0  0  0  0  0  0  0  0
  151.2537  140.2109  155.1573 O   0  0  0  0  0  0  0  0  0  0  0  0
  149.1896  139.8150  154.3326 N   0  0  0  0  0  0  0  0  0  0  0  0
  148.7997  141.2005  154.0791 C   0  0  0  0  0  0  0  0  0  0  0  0
  147.3220  141.1570  153.6896 C   0  0  0  0  0  0  0  0  0  0  0  0
  147.0986  139.7360  153.1729 C   0  0  2  0  0  0  0  0  0  0  0  0
  145.7400  139.2591  153.4103 N   0  0  0  0  0  0  0  0  0  0  0  0
  145.3287  137.9971  153.2217 C   0  0  0  0  0  0  0  0  0  0  0  0
  146.0634  137.0973  152.8130 O   0  0  0  0  0  0  0  0  0  0  0  0
  144.0295  137.8546  153.5331 N   0  0  0  0  0  0  0  0  0  0  0  0
  143.2546  136.6686  153.4807 C   0  0  0  0  0  0  0  0  0  0  0  0
  142.1963  136.3764  154.2384 N   0  0  0  0  0  0  0  0  0  0  0  0
  141.7916  135.1221  153.8053 C   0  0  0  0  0  0  0  0  0  0  0  0
  142.6363  134.7234  152.8012 C   0  0  0  0  0  0  0  0  0  0  0  0
  143.5726  135.6982  152.5835 O   0  0  0  0  0  0  0  0  0  0  0  0
  148.1263  138.8947  153.9372 C   0  0  0  0  0  0  0  0  0  0  0  0
  152.0741  136.4788  155.7692 H   0  0  0  0  0  0  0  0  0  0  0  0
  152.1322  138.0249  156.6064 H   0  0  0  0  0  0  0  0  0  0  0  0
  152.7744  137.8789  154.9684 H   0  0  0  0  0  0  0  0  0  0  0  0
  150.4602  137.3939  154.1067 H   0  0  0  0  0  0  0  0  0  0  0  0
  149.8231  137.5212  155.7352 H   0  0  0  0  0  0  0  0  0  0  0  0
  148.9554  141.8402  154.9488 H   0  0  0  0  0  0  0  0  0  0  0  0
  149.3964  141.5937  153.2548 H   0  0  0  0  0  0  0  0  0  0  0  0
  146.7143  141.3335  154.5786 H   0  0  0  0  0  0  0  0  0  0  0  0
  147.0588  141.9177  152.9540 H   0  0  0  0  0  0  0  0  0  0  0  0
  147.3364  139.6973  152.1080 H   0  0  0  0  0  0  0  0  0  0  0  0
  145.0715  139.9360  153.7482 H   0  0  0  0  0  0  0  0  0  0  0  0
  143.5434  138.6805  153.8497 H   0  0  0  0  0  0  0  0  0  0  0  0
  140.9420  134.6164  154.2399 H   0  0  0  0  0  0  0  0  0  0  0  0
  142.7018  133.8404  152.1828 H   0  0  0  0  0  0  0  0  0  0  0  0
  148.5025  138.0771  153.3200 H   0  0  0  0  0  0  0  0  0  0  0  0
  147.6929  138.4617  154.8407 H   0  0  0  0  0  0  0  0  0  0  0  0
  1  2  1  0  0  0  0
  1 19  1  0  0  0  0
  1 20  1  0  0  0  0
  1 21  1  0  0  0  0
  2  3  1  0  0  0  0
  2 22  1  0  0  0  0
  2 23  1  0  0  0  0
  3  4  2  0  0  0  0
  3  5  1  0  0  0  0
  5 18  1  0  0  0  0
  5  6  1  0  0  0  0
  6  7  1  0  0  0  0
  6 24  1  0  0  0  0
  6 25  1  0  0  0  0
  7  8  1  0  0  0  0
  7 26  1  0  0  0  0
  7 27  1  0  0  0  0
  8  9  1  0  0  0  0
  8 18  1  0  0  0  0
  8 28  1  0  0  0  0
  9 10  1  0  0  0  0
  9 29  1  0  0  0  0
 10 11  2  0  0  0  0
 10 12  1  0  0  0  0
 12 13  1  0  0  0  0
 12 30  1  0  0  0  0
 13 17  1  0  0  0  0
 13 14  2  0  0  0  0
 14 15  1  0  0  0  0
 15 16  2  0  0  0  0
 15 31  1  0  0  0  0
 16 17  1  0  0  0  0
 16 32  1  0  0  0  0
 18 33  1  0  0  0  0
 18 34  1  0  0  0  0
M  END
> <s_m_source_file>
AV-unprocessed.smi

> <i_m_source_file_index>
3282

> <i_lp_mmshare_version>
43012

> <i_f3d_flags>
0

> <s_epik_input>
W0NIM11bQ0gyXUMoPU8pTjFbQ0gyXVtDSDJdW0NASF0oW0NIMl0xKVtOSF1DKD1PKVtOSF1jMm5bY0hdW2NIXW8y

> <s_epik_cmdline>
J2VwaWtfcHl0aG9uJywgJy1waCcsICc3LjAnLCAnLXRuJywgJzgnLCAnLW1hJywgJzIwMCcsICctbWV0YWxfYmluZGluZycsICctaW1hZScsICc8aW5maWxlLm1hZT4nLCAnLW9tYWUnLCAnPG91dGZpbGUubWFlPic=

> <r_lp_tautomer_probability>
0.785861

> <r_epik_Ionization_Penalty>
4.35681e-05

> <r_epik_Ionization_Penalty_Charging>
0

> <r_epik_Ionization_Penalty_Neutral>
4.35681e-05

> <r_epik_State_Penalty>
0.0212547

> <r_epik_Charging_Adjusted_Penalty>
0.0212547

> <i_epik_Tot_Q>
0

> <i_epik_Tot_abs_Q>
0

> <r_epik_Metal_State_Penalty>
0.00779955

> <b_epik_Metal_Only>
0

> <s_lp_Force_Field>
OPLS_2005

> <r_lp_Energy>
25.4049

> <b_lp_Chiralities_Consistent>
1

> <s_lp_Variant>
AV-unprocessed.smi:3282-2

> <Gold.Version>
5.8.1

> <Gold.Id.Protein>
6NUR|6NUR_protein|mol2

> <Gold.PLP.Fitness>
34.6485

> <Gold.PLP.PLP>
-27.6452

> <Gold.PLP.part.hbond>
-3.0000

> <Gold.PLP.part.metal>
0.0000

> <Gold.PLP.part.buried>
-2.2494

> <Gold.PLP.part.nonpolar>
-24.1681

> <Gold.PLP.part.repulsive>
0.4121

> <Gold.PLP.ligand.clash>
0.0000

> <Gold.PLP.ligand.torsion>
0.2329

> <Gold.PLP.Chemscore.Hbond>
1.4972

> <Gold.PLP.Chemscore.CHOScore>
0.9901

> <Gold.PLP.Chemscore.Metal>
0.0000

> <Gold.Chemscore.Hbonds>
donor molecule, donor type, donor heavy atom, donor atom, acceptor molecule, acceptor atom, score
      L1  H     9    29       P1 10175  0.32
      L1  H    12    30       P1 10175  0.16
      P1  H  7989  7998       L1     4  1.00
      L1  C    15    31       P1 11000  1.00

> <Gold.PLP.Chemscore.Internal.Correction>
0.0072

> <Gold.Rescore>
     Score         DG    S(hbond)    S(metal)    S(lipo)     H(rot)  DE(clash)    DE(int)     intcor
     10.66     -13.81       1.70        0.00      51.48       1.32       0.17       2.99       ----

> <Gold.Chemscore.Fitness>
10.6595

> <Gold.Chemscore.DG>
-13.8145

> <Gold.Chemscore.ZeroCoef>
-5.4800

> <Gold.Chemscore.Hbond>
1.7038

> <Gold.Chemscore.Metal>
0.0000

> <Gold.Chemscore.Lipo>
51.4774

> <Gold.Chemscore.Internal_Hbond>
0.0000

> <Gold.Chemscore.DEClash>
0.1694

> <Gold.Chemscore.DEInternal>
2.9856

> <Gold.Chemscore.Rot>
1.3199

> <Gold.Chemscore.Internal.Correction>
   9.000000E+99

> <Gold.Chemscore.Hbonds>
donor molecule, donor type, donor heavy atom, donor atom, acceptor molecule, acceptor atom, score
      L1  H     9    29       P1 10175  0.32
      L1  H    12    30       P1 10175  0.16
      P1  H  7989  7998       L1     4  0.25

> <Gold.Chemscore.Hbond.Weighted>
-5.6906

> <Gold.Chemscore.Metal.Weighted>
-0.0000

> <Gold.Chemscore.Lipo.Weighted>
-6.0229

> <Gold.Chemscore.Internal_Hbond.Weighted>
0.0000

> <Gold.Chemscore.DEClash.Weighted>
0.1694

> <Gold.Chemscore.DEInternal.Weighted>
2.9856

> <Gold.Chemscore.Rot.Weighted>
3.3789

> <Gold.Chemscore.Internal.Correction.Weighted>
   9.000000E+99

> <Gold.Protein.RotatedTorsions>
[ 6907 6896 6895 6894 ] final   31.54 input  -60.11 | X-H torsion
[ 7974 7965 7964 7962 ] final  121.49 input  175.53 | X-H torsion
[ 8008 7997 7996 7995 ] final   -7.89 input   59.86 | X-H torsion
[ 10167 10162 10161 10158 ] final   22.85 input  -65.29 | X-H torsion
[ 10718 10713 10712 10709 ] final  154.27 input   66.30 | X-H torsion
[ 10763 10752 10751 10750 ] final -141.01 input  -60.55 | X-H torsion
[ 11005 11000 10999 10996 ] final -175.67 input  -57.11 | X-H torsion

> <Gold.Protein.ActiveResidues>
 VAL166  LYS551  ARG553  GLY616  TRP617  ASP618  TYR619  PRO620  LYS621  CYS622 
 ASP623  PHE694  ASN695  SER759  ASP760  ASP761  ALA762  ILE779  LEU786  VAL792 
 PHE793  MET794  SER795  GLU796  ALA797  LYS798  CYS799  TRP800  GLU811  SER814 

> <Gold.Protein.RotatedAtoms>
  152.0618  134.9589  160.0574 H   0  0  0  0  0  0  0  0  0  0  0  0  # atno 6907 bound_to 6896
  152.0950  133.4215  159.4569 H   0  0  0  0  0  0  0  0  0  0  0  0  # atno 6908 bound_to 6896
  150.6838  134.2747  159.4646 H   0  0  0  0  0  0  0  0  0  0  0  0  # atno 6909 bound_to 6896
  145.1187  139.3403  143.4725 H   0  0  0  0  0  0  0  0  0  0  0  0  # atno 7974 bound_to 7965
  154.5794  140.2395  155.8076 H   0  0  0  0  0  0  0  0  0  0  0  0  # atno 8008 bound_to 7997
  156.2167  140.3010  155.9814 H   0  0  0  0  0  0  0  0  0  0  0  0  # atno 8009 bound_to 7997
  155.2569  140.0413  157.2983 H   0  0  0  0  0  0  0  0  0  0  0  0  # atno 8010 bound_to 7997
  140.5316  143.9832  150.6468 H   0  0  0  0  0  0  0  0  0  0  0  0  # atno 10167 bound_to 10162
  157.2339  131.0745  151.1836 H   0  0  0  0  0  0  0  0  0  0  0  0  # atno 10718 bound_to 10713
  154.8560  135.3536  154.5799 H   0  0  0  0  0  0  0  0  0  0  0  0  # atno 10763 bound_to 10752
  153.6411  135.6998  153.5246 H   0  0  0  0  0  0  0  0  0  0  0  0  # atno 10764 bound_to 10752
  153.2971  135.4217  155.1178 H   0  0  0  0  0  0  0  0  0  0  0  0  # atno 10765 bound_to 10752
  140.4607  134.6257  157.4841 H   0  0  0  0  0  0  0  0  0  0  0  0  # atno 11005 bound_to 11000
  146.3522  140.1137  142.8603 LP  0  0  0  0  0  0  0  0  0  0  0  0  # atno 17320 bound_to 7965
  145.0765  140.9191  143.4851 LP  0  0  0  0  0  0  0  0  0  0  0  0  # atno 17321 bound_to 7965
  140.3208  143.3138  152.0785 LP  0  0  0  0  0  0  0  0  0  0  0  0  # atno 17342 bound_to 10162
  139.4956  144.6574  151.6540 LP  0  0  0  0  0  0  0  0  0  0  0  0  # atno 17343 bound_to 10162
  157.3450  130.7052  149.6405 LP  0  0  0  0  0  0  0  0  0  0  0  0  # atno 17370 bound_to 10713
  155.9674  130.4269  150.4719 LP  0  0  0  0  0  0  0  0  0  0  0  0  # atno 17371 bound_to 10713
  139.9947  134.6930  155.9629 LP  0  0  0  0  0  0  0  0  0  0  0  0  # atno 17394 bound_to 11000
  141.1622  133.6538  156.4359 LP  0  0  0  0  0  0  0  0  0  0  0  0  # atno 17395 bound_to 11000

$$$$
