AV-unprocessed.smi:1900|AV-procd|sdf|7710|dock5
  -GOLD-   22720 9453D 1   1.00000     0.00000
 Structure written by MMmdl.
 44 45  0  0  0  0  0  0  0  0  2 V2000
  153.3367  138.4681  154.2688 C   0  0  0  0  0  0  0  0  0  0  0  0
  151.8918  138.2378  153.8120 C   0  0  1  0  0  0  0  0  0  0  0  0
  151.2268  137.0635  154.5551 C   0  0  0  0  0  0  0  0  0  0  0  0
  149.8098  136.9196  154.1438 N   0  3  1  0  0  0  0  0  0  0  0  0
  149.1477  135.7627  154.7977 C   0  0  0  0  0  0  0  0  0  0  0  0
  149.8832  134.4362  154.5403 C   0  0  0  0  0  0  0  0  0  0  0  0
  148.9120  133.2792  154.2527 C   0  0  0  0  0  0  0  0  0  0  0  0
  148.0035  133.5943  153.1559 N   0  0  0  0  0  0  0  0  0  0  0  0
  146.9433  132.8553  152.7991 C   0  0  0  0  0  0  0  0  0  0  0  0
  146.6287  131.8042  153.3581 O   0  0  0  0  0  0  0  0  0  0  0  0
  146.2851  133.4098  151.7679 N   0  0  0  0  0  0  0  0  0  0  0  0
  145.1223  132.9165  151.1237 C   0  0  0  0  0  0  0  0  0  0  0  0
  144.5212  131.6569  151.3922 C   0  0  0  0  0  0  0  0  0  0  0  0
  143.4461  131.4639  150.6416 N   0  0  0  0  0  0  0  0  0  0  0  0
  143.3546  132.5889  149.8973 N   0  0  0  0  0  0  0  0  0  0  0  0
  144.3535  133.5011  150.1566 C   0  0  0  0  0  0  0  0  0  0  0  0
  149.0863  138.2015  154.3317 C   0  0  0  0  0  0  0  0  0  0  0  0
  149.8103  139.3450  153.5958 C   0  0  1  0  0  0  0  0  0  0  0  0
  149.1378  140.7017  153.8334 C   0  0  0  0  0  0  0  0  0  0  0  0
  151.1511  139.4262  154.0660 O   0  0  0  0  0  0  0  0  0  0  0  0
  142.6131  132.7179  149.2236 H   0  0  0  0  0  0  0  0  0  0  0  0
  153.9529  137.5885  154.0814 H   0  0  0  0  0  0  0  0  0  0  0  0
  153.3841  138.6889  155.3356 H   0  0  0  0  0  0  0  0  0  0  0  0
  153.7851  139.3068  153.7356 H   0  0  0  0  0  0  0  0  0  0  0  0
  151.8954  138.0394  152.7386 H   0  0  0  0  0  0  0  0  0  0  0  0
  151.7675  136.1409  154.3396 H   0  0  0  0  0  0  0  0  0  0  0  0
  151.2777  137.2211  155.6339 H   0  0  0  0  0  0  0  0  0  0  0  0
  149.1272  135.9327  155.8752 H   0  0  0  0  0  0  0  0  0  0  0  0
  148.1072  135.6983  154.4757 H   0  0  0  0  0  0  0  0  0  0  0  0
  150.5666  134.5370  153.6973 H   0  0  0  0  0  0  0  0  0  0  0  0
  150.4962  134.1928  155.4091 H   0  0  0  0  0  0  0  0  0  0  0  0
  149.4612  132.3631  154.0286 H   0  0  0  0  0  0  0  0  0  0  0  0
  148.3110  133.0714  155.1383 H   0  0  0  0  0  0  0  0  0  0  0  0
  148.1870  134.4430  152.6405 H   0  0  0  0  0  0  0  0  0  0  0  0
  146.6481  134.2813  151.4105 H   0  0  0  0  0  0  0  0  0  0  0  0
  144.8232  130.8915  152.0918 H   0  0  0  0  0  0  0  0  0  0  0  0
  144.4173  134.4495  149.6445 H   0  0  0  0  0  0  0  0  0  0  0  0
  148.0682  138.1210  153.9527 H   0  0  0  0  0  0  0  0  0  0  0  0
  149.0141  138.4257  155.3973 H   0  0  0  0  0  0  0  0  0  0  0  0
  149.8173  139.1455  152.5227 H   0  0  0  0  0  0  0  0  0  0  0  0
  148.1059  140.6955  153.4815 H   0  0  0  0  0  0  0  0  0  0  0  0
  149.6642  141.4958  153.3033 H   0  0  0  0  0  0  0  0  0  0  0  0
  149.1285  140.9585  154.8931 H   0  0  0  0  0  0  0  0  0  0  0  0
  149.8207  136.7261  153.1524 H   0  0  0  0  0  0  0  0  0  0  0  0
  1  2  1  0  0  0  0
  1 22  1  0  0  0  0
  1 23  1  0  0  0  0
  1 24  1  0  0  0  0
  2 20  1  0  0  0  0
  2  3  1  0  0  0  0
  2 25  1  0  0  0  0
  3  4  1  0  0  0  0
  3 26  1  0  0  0  0
  3 27  1  0  0  0  0
  4  5  1  0  0  0  0
  4 17  1  0  0  0  0
  4 44  1  0  0  0  0
  5  6  1  0  0  0  0
  5 28  1  0  0  0  0
  5 29  1  0  0  0  0
  6  7  1  0  0  0  0
  6 30  1  0  0  0  0
  6 31  1  0  0  0  0
  7  8  1  0  0  0  0
  7 32  1  0  0  0  0
  7 33  1  0  0  0  0
  8  9  1  0  0  0  0
  8 34  1  0  0  0  0
  9 10  2  0  0  0  0
  9 11  1  0  0  0  0
 11 12  1  0  0  0  0
 11 35  1  0  0  0  0
 12 16  2  0  0  0  0
 12 13  1  0  0  0  0
 13 14  2  0  0  0  0
 13 36  1  0  0  0  0
 14 15  1  0  0  0  0
 15 21  1  0  0  0  0
 15 16  1  0  0  0  0
 16 37  1  0  0  0  0
 17 18  1  0  0  0  0
 17 38  1  0  0  0  0
 17 39  1  0  0  0  0
 18 19  1  0  0  0  0
 18 20  1  0  0  0  0
 18 40  1  0  0  0  0
 19 41  1  0  0  0  0
 19 42  1  0  0  0  0
 19 43  1  0  0  0  0
M  CHG  1   4   1
M  END
> <s_m_source_file>
AV-unprocessed.smi

> <i_m_source_file_index>
1900

> <i_lp_mmshare_version>
43012

> <i_f3d_flags>
0

> <s_epik_input>
W0NIM11bQ0BASF0xW0NIMl1OKFtDSDJdW0NASF0oTzEpW0NIM10pW0NIMl1bQ0gyXVtDSDJdW05IXUMoPU8pW05IXWMyW2NIXW5bbkhdW2NIXTI=

> <s_epik_cmdline>
J2VwaWtfcHl0aG9uJywgJy1waCcsICc3LjAnLCAnLXRuJywgJzgnLCAnLW1hJywgJzIwMCcsICctbWV0YWxfYmluZGluZycsICctaW1hZScsICc8aW5maWxlLm1hZT4nLCAnLW9tYWUnLCAnPG91dGZpbGUubWFlPic=

> <r_lp_tautomer_probability>
0.5

> <r_epik_Ionization_Penalty>
0.270543

> <r_epik_Ionization_Penalty_Charging>
0.270496

> <r_epik_Ionization_Penalty_Neutral>
4.67091e-05

> <r_epik_State_Penalty>
0.262618

> <r_epik_Charging_Adjusted_Penalty>
0.533114

> <i_epik_Tot_Q>
1

> <i_epik_Tot_abs_Q>
1

> <r_epik_Metal_State_Penalty>
0.262618

> <b_epik_Metal_Only>
0

> <s_lp_Force_Field>
OPLS_2005

> <r_lp_Energy>
18.2287

> <b_lp_Chiralities_Consistent>
1

> <s_lp_Variant>
AV-unprocessed.smi:1900-2

> <Gold.Version>
5.8.1

> <Gold.Id.Protein>
6NUR|6NUR_protein|mol2

> <Gold.PLP.Fitness>
51.5984

> <Gold.PLP.PLP>
-35.8909

> <Gold.PLP.part.hbond>
-4.8070

> <Gold.PLP.part.metal>
0.0000

> <Gold.PLP.part.buried>
-4.3521

> <Gold.PLP.part.nonpolar>
-27.7310

> <Gold.PLP.part.repulsive>
0.5617

> <Gold.PLP.ligand.clash>
0.0000

> <Gold.PLP.ligand.torsion>
0.3549

> <Gold.PLP.Chemscore.Hbond>
4.8247

> <Gold.PLP.Chemscore.CHOScore>
0.6337

> <Gold.PLP.Chemscore.Metal>
0.0000

> <Gold.Chemscore.Hbonds>
donor molecule, donor type, donor heavy atom, donor atom, acceptor molecule, acceptor atom, score
      L1  H     4    44       P1  7948  1.73
      L1  H     8    34       P1  7948  0.96
      L1  H    15    21       P1 10186  0.08
      P1  H  7989  7998       L1    20  1.00
      P1  H 10785 10796       L1    14  0.14
      L1  C    16    37       P1  7921  0.54

> <Gold.PLP.Chemscore.Internal.Correction>
0.0419

> <Gold.Rescore>
     Score         DG    S(hbond)    S(metal)    S(lipo)     H(rot)  DE(clash)    DE(int)     intcor
     18.43     -20.14       3.09        0.00      79.55       1.93       0.12       1.59       ----

> <Gold.Chemscore.Fitness>
18.4278

> <Gold.Chemscore.DG>
-20.1435

> <Gold.Chemscore.ZeroCoef>
-5.4800

> <Gold.Chemscore.Hbond>
3.0866

> <Gold.Chemscore.Metal>
0.0000

> <Gold.Chemscore.Lipo>
79.5466

> <Gold.Chemscore.Internal_Hbond>
0.0000

> <Gold.Chemscore.DEClash>
0.1220

> <Gold.Chemscore.DEInternal>
1.5937

> <Gold.Chemscore.Rot>
1.9347

> <Gold.Chemscore.Internal.Correction>
   9.000000E+99

> <Gold.Chemscore.Hbonds>
donor molecule, donor type, donor heavy atom, donor atom, acceptor molecule, acceptor atom, score
      L1  H     4    44       P1  7948  0.16
      L1  H     8    34       P1  7948  0.27
      L1  H    15    21       P1 10186  0.08
      P1  H  7989  7998       L1    20  0.34
      P1  H 10785 10796       L1    14  0.01

> <Gold.Chemscore.Hbond.Weighted>
-10.3094

> <Gold.Chemscore.Metal.Weighted>
-0.0000

> <Gold.Chemscore.Lipo.Weighted>
-9.3070

> <Gold.Chemscore.Internal_Hbond.Weighted>
0.0000

> <Gold.Chemscore.DEClash.Weighted>
0.1220

> <Gold.Chemscore.DEInternal.Weighted>
1.5937

> <Gold.Chemscore.Rot.Weighted>
4.9528

> <Gold.Chemscore.Internal.Correction.Weighted>
   9.000000E+99

> <Gold.Protein.RotatedTorsions>
[ 6907 6896 6895 6894 ] final -157.05 input  -60.11 | X-H torsion
[ 7974 7965 7964 7962 ] final   20.29 input  175.53 | X-H torsion
[ 8008 7997 7996 7995 ] final   95.82 input   59.86 | X-H torsion
[ 10167 10162 10161 10158 ] final  126.78 input  -65.29 | X-H torsion
[ 10718 10713 10712 10709 ] final  -55.73 input   66.30 | X-H torsion
[ 10763 10752 10751 10750 ] final -165.01 input  -60.55 | X-H torsion
[ 11005 11000 10999 10996 ] final -159.20 input  -57.11 | X-H torsion

> <Gold.Protein.ActiveResidues>
 VAL166  LYS551  ARG553  GLY616  TRP617  ASP618  TYR619  PRO620  LYS621  CYS622 
 ASP623  PHE694  ASN695  SER759  ASP760  ASP761  ALA762  ILE779  LEU786  VAL792 
 PHE793  MET794  SER795  GLU796  ALA797  LYS798  CYS799  TRP800  GLU811  SER814 

> <Gold.Protein.RotatedAtoms>
  151.2969  133.4140  159.2636 H   0  0  0  0  0  0  0  0  0  0  0  0  # atno 6907 bound_to 6896
  151.0229  134.9483  159.8079 H   0  0  0  0  0  0  0  0  0  0  0  0  # atno 6908 bound_to 6896
  152.5328  134.2932  159.9103 H   0  0  0  0  0  0  0  0  0  0  0  0  # atno 6909 bound_to 6896
  146.2117  139.8190  142.8684 H   0  0  0  0  0  0  0  0  0  0  0  0  # atno 7974 bound_to 7965
  156.0730  140.3281  155.7599 H   0  0  0  0  0  0  0  0  0  0  0  0  # atno 8008 bound_to 7997
  155.5275  140.0590  157.2912 H   0  0  0  0  0  0  0  0  0  0  0  0  # atno 8009 bound_to 7997
  154.4540  140.1933  156.0451 H   0  0  0  0  0  0  0  0  0  0  0  0  # atno 8010 bound_to 7997
  139.5613  144.6883  151.4036 H   0  0  0  0  0  0  0  0  0  0  0  0  # atno 10167 bound_to 10162
  156.1345  130.4157  150.0210 H   0  0  0  0  0  0  0  0  0  0  0  0  # atno 10718 bound_to 10713
  154.6973  135.2981  154.9393 H   0  0  0  0  0  0  0  0  0  0  0  0  # atno 10763 bound_to 10752
  154.0336  135.6667  153.4787 H   0  0  0  0  0  0  0  0  0  0  0  0  # atno 10764 bound_to 10752
  153.0655  135.5090  154.8098 H   0  0  0  0  0  0  0  0  0  0  0  0  # atno 10765 bound_to 10752
  140.6452  134.4509  157.5234 H   0  0  0  0  0  0  0  0  0  0  0  0  # atno 11005 bound_to 11000
  145.3116  141.0221  143.3551 LP  0  0  0  0  0  0  0  0  0  0  0  0  # atno 17320 bound_to 7965
  144.8931  139.4747  143.6668 LP  0  0  0  0  0  0  0  0  0  0  0  0  # atno 17321 bound_to 7965
  140.6893  143.7900  150.7231 LP  0  0  0  0  0  0  0  0  0  0  0  0  # atno 17342 bound_to 10162
  140.1378  143.4468  152.2213 LP  0  0  0  0  0  0  0  0  0  0  0  0  # atno 17343 bound_to 10162
  156.8113  130.9325  151.3644 LP  0  0  0  0  0  0  0  0  0  0  0  0  # atno 17370 bound_to 10713
  157.6519  130.8892  149.9651 LP  0  0  0  0  0  0  0  0  0  0  0  0  # atno 17371 bound_to 10713
  139.9065  134.8437  156.1685 LP  0  0  0  0  0  0  0  0  0  0  0  0  # atno 17394 bound_to 11000
  141.0577  133.6857  156.1892 LP  0  0  0  0  0  0  0  0  0  0  0  0  # atno 17395 bound_to 11000

$$$$
