AV-unprocessed.smi:34|AV-procd|sdf|244|dock5
  -GOLD-   2262016 03D 1   1.00000     0.00000
 Structure written by MMmdl.
 54 58  0  0  0  0  0  0  0  0  2 V2000
  154.1260  139.5178  159.7569 O   0  0  0  0  0  0  0  0  0  0  0  0
  153.1223  140.2283  159.6684 C   0  0  0  0  0  0  0  0  0  0  0  0
  152.0708  140.0802  158.8228 N   0  5  0  0  0  0  0  0  0  0  0  0
  152.0621  139.0764  157.9321 C   0  0  0  0  0  0  0  0  0  0  0  0
  152.9733  139.0500  156.9259 N   0  0  0  0  0  0  0  0  0  0  0  0
  152.9669  138.0535  156.0325 C   0  0  0  0  0  0  0  0  0  0  0  0
  152.1501  136.9981  155.9557 N   0  0  0  0  0  0  0  0  0  0  0  0
  151.2256  137.0181  156.9594 C   0  0  0  0  0  0  0  0  0  0  0  0
  151.1145  138.0158  157.9699 C   0  0  0  0  0  0  0  0  0  0  0  0
  150.0614  137.7287  158.8263 N   0  0  0  0  0  0  0  0  0  0  0  0
  149.5996  136.5890  158.3149 C   0  0  0  0  0  0  0  0  0  0  0  0
  150.2214  136.1035  157.2198 N   0  0  0  0  0  0  0  0  0  0  0  0
  149.9480  134.8589  156.4385 C   0  0  1  0  0  0  0  0  0  0  0  0
  149.0504  134.0679  157.1676 O   0  0  0  0  0  0  0  0  0  0  0  0
  147.8134  133.9268  156.4708 C   0  0  1  0  0  0  0  0  0  0  0  0
  146.7823  134.9353  157.0018 C   0  0  0  0  0  0  0  0  0  0  0  0
  146.7682  134.8787  158.4190 O   0  0  0  0  0  0  0  0  0  0  0  0
  146.6445  136.0088  159.1412 C   0  0  0  0  0  0  0  0  0  0  0  0
  146.3319  137.0979  158.6559 O   0  0  0  0  0  0  0  0  0  0  0  0
  146.9258  135.8028  160.5915 C   0  0  0  0  0  0  0  0  0  0  0  0
  146.9760  134.4869  161.1082 C   0  0  0  0  0  0  0  0  0  0  0  0
  147.2371  134.2619  162.4738 C   0  0  0  0  0  0  0  0  0  0  0  0
  147.4502  135.3500  163.3401 C   0  0  0  0  0  0  0  0  0  0  0  0
  147.4023  136.6637  162.8387 C   0  0  0  0  0  0  0  0  0  0  0  0
  147.1423  136.8908  161.4730 C   0  0  0  0  0  0  0  0  0  0  0  0
  148.1951  134.1436  155.0081 C   0  0  2  0  0  0  0  0  0  0  0  0
  148.6970  132.9936  154.5494 F   0  0  0  0  0  0  0  0  0  0  0  0
  149.2724  135.2122  155.1060 C   0  0  2  0  0  0  0  0  0  0  0  0
  150.1427  135.1508  153.9942 O   0  0  0  0  0  0  0  0  0  0  0  0
  153.0252  141.4570  160.5338 C   0  0  0  0  0  0  0  0  0  0  0  0
  153.7065  141.4965  161.7721 C   0  0  0  0  0  0  0  0  0  0  0  0
  153.6064  142.6239  162.6105 C   0  0  0  0  0  0  0  0  0  0  0  0
  152.8174  143.7228  162.2228 C   0  0  0  0  0  0  0  0  0  0  0  0
  152.1249  143.6912  160.9984 C   0  0  0  0  0  0  0  0  0  0  0  0
  152.2226  142.5630  160.1606 C   0  0  0  0  0  0  0  0  0  0  0  0
  153.7279  138.1101  155.2683 H   0  0  0  0  0  0  0  0  0  0  0  0
  148.7643  136.0794  158.7707 H   0  0  0  0  0  0  0  0  0  0  0  0
  150.9122  134.3575  156.3426 H   0  0  0  0  0  0  0  0  0  0  0  0
  147.4337  132.9170  156.6335 H   0  0  0  0  0  0  0  0  0  0  0  0
  147.0622  135.9432  156.6931 H   0  0  0  0  0  0  0  0  0  0  0  0
  145.7892  134.7328  156.5991 H   0  0  0  0  0  0  0  0  0  0  0  0
  146.8154  133.6357  160.4622 H   0  0  0  0  0  0  0  0  0  0  0  0
  147.2735  133.2526  162.8569 H   0  0  0  0  0  0  0  0  0  0  0  0
  147.6494  135.1775  164.3875 H   0  0  0  0  0  0  0  0  0  0  0  0
  147.5649  137.5001  163.5025 H   0  0  0  0  0  0  0  0  0  0  0  0
  147.1116  137.9119  161.1221 H   0  0  0  0  0  0  0  0  0  0  0  0
  147.3582  134.4202  154.3659 H   0  0  0  0  0  0  0  0  0  0  0  0
  148.8144  136.2007  155.1714 H   0  0  0  0  0  0  0  0  0  0  0  0
  149.7046  135.5373  153.2507 H   0  0  0  0  0  0  0  0  0  0  0  0
  154.3148  140.6609  162.0863 H   0  0  0  0  0  0  0  0  0  0  0  0
  154.1341  142.6438  163.5524 H   0  0  0  0  0  0  0  0  0  0  0  0
  152.7401  144.5870  162.8657 H   0  0  0  0  0  0  0  0  0  0  0  0
  151.5143  144.5310  160.7017 H   0  0  0  0  0  0  0  0  0  0  0  0
  151.6719  142.5554  159.2312 H   0  0  0  0  0  0  0  0  0  0  0  0
  1  2  2  0  0  0  0
  2  3  1  0  0  0  0
  2 30  1  0  0  0  0
  3  4  1  0  0  0  0
  4  9  1  0  0  0  0
  4  5  2  0  0  0  0
  5  6  1  0  0  0  0
  6  7  2  0  0  0  0
  6 36  1  0  0  0  0
  7  8  1  0  0  0  0
  8 12  1  0  0  0  0
  8  9  2  0  0  0  0
  9 10  1  0  0  0  0
 10 11  2  0  0  0  0
 11 12  1  0  0  0  0
 11 37  1  0  0  0  0
 12 13  1  0  0  0  0
 13 28  1  0  0  0  0
 13 14  1  0  0  0  0
 13 38  1  0  0  0  0
 14 15  1  0  0  0  0
 15 16  1  0  0  0  0
 15 26  1  0  0  0  0
 15 39  1  0  0  0  0
 16 17  1  0  0  0  0
 16 40  1  0  0  0  0
 16 41  1  0  0  0  0
 17 18  1  0  0  0  0
 18 19  2  0  0  0  0
 18 20  1  0  0  0  0
 20 25  1  0  0  0  0
 20 21  2  0  0  0  0
 21 22  1  0  0  0  0
 21 42  1  0  0  0  0
 22 23  2  0  0  0  0
 22 43  1  0  0  0  0
 23 24  1  0  0  0  0
 23 44  1  0  0  0  0
 24 25  2  0  0  0  0
 24 45  1  0  0  0  0
 25 46  1  0  0  0  0
 26 27  1  0  0  0  0
 26 28  1  0  0  0  0
 26 47  1  0  0  0  0
 28 29  1  0  0  0  0
 28 48  1  0  0  0  0
 29 49  1  0  0  0  0
 30 35  1  0  0  0  0
 30 31  2  0  0  0  0
 31 32  1  0  0  0  0
 31 50  1  0  0  0  0
 32 33  2  0  0  0  0
 32 51  1  0  0  0  0
 33 34  1  0  0  0  0
 33 52  1  0  0  0  0
 34 35  2  0  0  0  0
 34 53  1  0  0  0  0
 35 54  1  0  0  0  0
M  CHG  1   3  -1
M  END
> <s_m_source_file>
AV-unprocessed.smi

> <i_m_source_file_index>
34

> <i_lp_mmshare_version>
43012

> <i_f3d_flags>
0

> <s_epik_input>
W2NIXTFbY0hdW2NIXVtjSF1bY0hdYzFDKD1PKVtOSF1jKG5bY0hdbjIpYyhjMjMpbltjSF1uM1tDQEBIXTRPW0NASF0oW0NAQEhdKEYpW0NASF00W09IXSlbQ0gyXU9DKD1PKWM1W2NIXVtjSF1bY0hdW2NIXVtjSF01

> <s_epik_cmdline>
J2VwaWtfcHl0aG9uJywgJy1waCcsICc3LjAnLCAnLXRuJywgJzgnLCAnLW1hJywgJzIwMCcsICctbWV0YWxfYmluZGluZycsICctaW1hZScsICc8aW5maWxlLm1hZT4nLCAnLW9tYWUnLCAnPG91dGZpbGUubWFlPic=

> <r_lp_tautomer_probability>
1

> <r_epik_Ionization_Penalty>
4.33227

> <r_epik_Ionization_Penalty_Charging>
3.41027

> <r_epik_Ionization_Penalty_Neutral>
0.922001

> <r_epik_State_Penalty>
3.41358

> <r_epik_Charging_Adjusted_Penalty>
6.82385

> <i_epik_Tot_Q>
-1

> <i_epik_Tot_abs_Q>
1

> <r_epik_Metal_State_Penalty>
0.496292

> <b_epik_Metal_Only>
1

> <s_epik_Chemistry_Notes>
This compound has an ester and may undergo hydrolysis at high or low pH. This compound contains an acetal/aminal-like group ( X-CH(R)-Y where X, Y are N, S, or O) that may be acid/base labile, releasing an aldehyde.

> <s_lp_Force_Field>
OPLS_2005

> <r_lp_Energy>
49.0999

> <b_lp_Chiralities_Consistent>
1

> <s_lp_Variant>
AV-unprocessed.smi:34-30

> <Gold.Version>
5.8.1

> <Gold.Id.Protein>
6NUR|6NUR_protein|mol2

> <Gold.PLP.Fitness>
57.0738

> <Gold.PLP.PLP>
-53.0243

> <Gold.PLP.part.hbond>
-4.0000

> <Gold.PLP.part.metal>
0.0000

> <Gold.PLP.part.buried>
-3.0877

> <Gold.PLP.part.nonpolar>
-46.0728

> <Gold.PLP.part.repulsive>
0.0138

> <Gold.PLP.ligand.clash>
0.0000

> <Gold.PLP.ligand.torsion>
1.7635

> <Gold.PLP.Chemscore.Hbond>
2.4016

> <Gold.PLP.Chemscore.CHOScore>
0.0000

> <Gold.PLP.Chemscore.Metal>
0.0000

> <Gold.Chemscore.Hbonds>
donor molecule, donor type, donor heavy atom, donor atom, acceptor molecule, acceptor atom, score
      L1  H    29    49       P1  7948  0.40
      P1  H  7997  8009       L1     5  1.00
      P1  H 10752 10764       L1     7  0.99

> <Gold.PLP.Chemscore.Internal.Correction>
0.3717

> <Gold.Rescore>
     Score         DG    S(hbond)    S(metal)    S(lipo)     H(rot)  DE(clash)    DE(int)     intcor
     16.74     -18.99       1.51        0.00     131.29       2.69       0.41       1.84       ----

> <Gold.Chemscore.Fitness>
16.7393

> <Gold.Chemscore.DG>
-18.9880

> <Gold.Chemscore.ZeroCoef>
-5.4800

> <Gold.Chemscore.Hbond>
1.5102

> <Gold.Chemscore.Metal>
0.0000

> <Gold.Chemscore.Lipo>
131.2947

> <Gold.Chemscore.Internal_Hbond>
0.0000

> <Gold.Chemscore.DEClash>
0.4093

> <Gold.Chemscore.DEInternal>
1.8394

> <Gold.Chemscore.Rot>
2.6944

> <Gold.Chemscore.Internal.Correction>
   9.000000E+99

> <Gold.Chemscore.Hbonds>
donor molecule, donor type, donor heavy atom, donor atom, acceptor molecule, acceptor atom, score
      L1  H    29    49       P1  7948  0.01
      P1  H  7997  8009       L1     5  0.70
      P1  H 10752 10764       L1     7  0.58

> <Gold.Chemscore.Hbond.Weighted>
-5.0440

> <Gold.Chemscore.Metal.Weighted>
-0.0000

> <Gold.Chemscore.Lipo.Weighted>
-15.3615

> <Gold.Chemscore.Internal_Hbond.Weighted>
0.0000

> <Gold.Chemscore.DEClash.Weighted>
0.4093

> <Gold.Chemscore.DEInternal.Weighted>
1.8394

> <Gold.Chemscore.Rot.Weighted>
6.8975

> <Gold.Chemscore.Internal.Correction.Weighted>
   9.000000E+99

> <Gold.Protein.RotatedTorsions>
[ 6907 6896 6895 6894 ] final  -53.18 input  -60.11 | X-H torsion
[ 7974 7965 7964 7962 ] final -172.31 input  175.53 | X-H torsion
[ 8008 7997 7996 7995 ] final  179.27 input   59.86 | X-H torsion
[ 10167 10162 10161 10158 ] final  123.57 input  -65.29 | X-H torsion
[ 10718 10713 10712 10709 ] final -123.84 input   66.30 | X-H torsion
[ 10763 10752 10751 10750 ] final  -34.29 input  -60.55 | X-H torsion
[ 11005 11000 10999 10996 ] final   10.51 input  -57.11 | X-H torsion

> <Gold.Protein.ActiveResidues>
 VAL166  LYS551  ARG553  GLY616  TRP617  ASP618  TYR619  PRO620  LYS621  CYS622 
 ASP623  PHE694  ASN695  SER759  ASP760  ASP761  ALA762  ILE779  LEU786  VAL792 
 PHE793  MET794  SER795  GLU796  ALA797  LYS798  CYS799  TRP800  GLU811  SER814 

> <Gold.Protein.RotatedAtoms>
  150.8450  134.7756  159.6962 H   0  0  0  0  0  0  0  0  0  0  0  0  # atno 6907 bound_to 6896
  152.4529  134.5352  159.9832 H   0  0  0  0  0  0  0  0  0  0  0  0  # atno 6908 bound_to 6896
  151.5484  133.3383  159.2984 H   0  0  0  0  0  0  0  0  0  0  0  0  # atno 6909 bound_to 6896
  144.7147  140.1792  143.6360 H   0  0  0  0  0  0  0  0  0  0  0  0  # atno 7974 bound_to 7965
  156.0453  140.1313  157.0110 H   0  0  0  0  0  0  0  0  0  0  0  0  # atno 8008 bound_to 7997
  154.4409  140.1022  156.6367 H   0  0  0  0  0  0  0  0  0  0  0  0  # atno 8009 bound_to 7997
  155.5605  140.3464  155.4492 H   0  0  0  0  0  0  0  0  0  0  0  0  # atno 8010 bound_to 7997
  139.5792  144.6978  151.3573 H   0  0  0  0  0  0  0  0  0  0  0  0  # atno 10167 bound_to 10162
  156.1536  130.6552  150.9950 H   0  0  0  0  0  0  0  0  0  0  0  0  # atno 10718 bound_to 10713
  153.8443  135.6854  153.4799 H   0  0  0  0  0  0  0  0  0  0  0  0  # atno 10763 bound_to 10752
  153.1435  135.4647  154.9529 H   0  0  0  0  0  0  0  0  0  0  0  0  # atno 10764 bound_to 10752
  154.7831  135.3275  154.7894 H   0  0  0  0  0  0  0  0  0  0  0  0  # atno 10765 bound_to 10752
  140.5137  134.0627  155.7825 H   0  0  0  0  0  0  0  0  0  0  0  0  # atno 11005 bound_to 11000
  145.8872  139.2355  143.1570 LP  0  0  0  0  0  0  0  0  0  0  0  0  # atno 17320 bound_to 7965
  145.9938  140.8580  143.0053 LP  0  0  0  0  0  0  0  0  0  0  0  0  # atno 17321 bound_to 7965
  140.7072  143.7484  150.7502 LP  0  0  0  0  0  0  0  0  0  0  0  0  # atno 17342 bound_to 10162
  140.1012  143.4786  152.2424 LP  0  0  0  0  0  0  0  0  0  0  0  0  # atno 17343 bound_to 10162
  157.6677  131.0868  150.7688 LP  0  0  0  0  0  0  0  0  0  0  0  0  # atno 17370 bound_to 10713
  156.7755  130.4842  149.5410 LP  0  0  0  0  0  0  0  0  0  0  0  0  # atno 17371 bound_to 10713
  141.1372  133.9201  157.2408 LP  0  0  0  0  0  0  0  0  0  0  0  0  # atno 17394 bound_to 11000
  139.9644  135.0146  156.9348 LP  0  0  0  0  0  0  0  0  0  0  0  0  # atno 17395 bound_to 11000

$$$$
