AV-unprocessed.smi:3047|AV-procd|sdf|11622|dock5
  -GOLD-   2272017 03D 1   1.00000     0.00000
 Structure written by MMmdl.
 38 39  0  0  0  0  0  0  0  0  2 V2000
  153.9221  139.9797  159.8128 C   0  0  0  0  0  0  0  0  0  0  0  0
  152.5260  140.0350  158.6147 S   0  0  0  0  0  0  0  0  0  0  0  0
  153.0433  139.6339  157.2977 O   0  0  0  0  0  0  0  0  0  0  0  0
  151.3741  139.3303  159.1986 O   0  0  0  0  0  0  0  0  0  0  0  0
  152.1401  141.7248  158.5270 N   0  0  0  0  0  0  0  0  0  0  0  0
  152.4029  142.6417  159.6333 C   0  0  0  0  0  0  0  0  0  0  0  0
  152.1246  144.0230  159.0483 C   0  0  0  0  0  0  0  0  0  0  0  0
  151.0304  143.7712  158.0143 C   0  0  0  0  0  0  0  0  0  0  0  0
  151.3029  142.3468  157.4851 C   0  0  2  0  0  0  0  0  0  0  0  0
  150.0066  141.5932  157.1473 C   0  0  0  0  0  0  0  0  0  0  0  0
  149.8209  140.4458  157.5541 O   0  0  0  0  0  0  0  0  0  0  0  0
  149.1257  142.2434  156.3738 N   0  0  0  0  0  0  0  0  0  0  0  0
  147.8764  141.6731  155.8928 C   0  0  0  0  0  0  0  0  0  0  0  0
  147.7515  141.8539  154.3745 C   0  0  0  0  0  0  0  0  0  0  0  0
  147.6141  140.5690  153.6874 N   0  0  0  0  0  0  0  0  0  0  0  0
  146.5760  140.1575  152.8918 C   0  0  0  0  0  0  0  0  0  0  0  0
  146.8826  138.8872  152.4762 C   0  0  0  0  0  0  0  0  0  0  0  0
  148.0934  138.5774  153.0359 N   0  3  0  0  0  0  0  0  0  0  0  0
  148.5361  139.6015  153.7730 C   0  0  0  0  0  0  0  0  0  0  0  0
  154.3024  138.9603  159.8729 H   0  0  0  0  0  0  0  0  0  0  0  0
  153.5839  140.2907  160.7995 H   0  0  0  0  0  0  0  0  0  0  0  0
  154.7194  140.6413  159.4755 H   0  0  0  0  0  0  0  0  0  0  0  0
  151.7215  142.4164  160.4545 H   0  0  0  0  0  0  0  0  0  0  0  0
  153.4280  142.5451  159.9918 H   0  0  0  0  0  0  0  0  0  0  0  0
  151.8328  144.7514  159.8052 H   0  0  0  0  0  0  0  0  0  0  0  0
  153.0203  144.3967  158.5506 H   0  0  0  0  0  0  0  0  0  0  0  0
  150.0584  143.8505  158.5032 H   0  0  0  0  0  0  0  0  0  0  0  0
  151.0523  144.5151  157.2173 H   0  0  0  0  0  0  0  0  0  0  0  0
  151.9157  142.4208  156.5852 H   0  0  0  0  0  0  0  0  0  0  0  0
  149.3565  143.1789  156.0706 H   0  0  0  0  0  0  0  0  0  0  0  0
  147.8429  140.6121  156.1462 H   0  0  0  0  0  0  0  0  0  0  0  0
  147.0395  142.1545  156.4013 H   0  0  0  0  0  0  0  0  0  0  0  0
  146.8795  142.4611  154.1271 H   0  0  0  0  0  0  0  0  0  0  0  0
  148.6264  142.3660  153.9703 H   0  0  0  0  0  0  0  0  0  0  0  0
  145.7187  140.7823  152.6864 H   0  0  0  0  0  0  0  0  0  0  0  0
  146.3439  138.1986  151.8414 H   0  0  0  0  0  0  0  0  0  0  0  0
  149.4565  139.6385  154.3285 H   0  0  0  0  0  0  0  0  0  0  0  0
  148.5846  137.7009  152.9113 H   0  0  0  0  0  0  0  0  0  0  0  0
  1  2  1  0  0  0  0
  1 20  1  0  0  0  0
  1 21  1  0  0  0  0
  1 22  1  0  0  0  0
  2  3  2  0  0  0  0
  2  4  2  0  0  0  0
  2  5  1  0  0  0  0
  5  9  1  0  0  0  0
  5  6  1  0  0  0  0
  6  7  1  0  0  0  0
  6 23  1  0  0  0  0
  6 24  1  0  0  0  0
  7  8  1  0  0  0  0
  7 25  1  0  0  0  0
  7 26  1  0  0  0  0
  8  9  1  0  0  0  0
  8 27  1  0  0  0  0
  8 28  1  0  0  0  0
  9 10  1  0  0  0  0
  9 29  1  0  0  0  0
 10 11  2  0  0  0  0
 10 12  1  0  0  0  0
 12 13  1  0  0  0  0
 12 30  1  0  0  0  0
 13 14  1  0  0  0  0
 13 31  1  0  0  0  0
 13 32  1  0  0  0  0
 14 15  1  0  0  0  0
 14 33  1  0  0  0  0
 14 34  1  0  0  0  0
 15 19  1  0  0  0  0
 15 16  1  0  0  0  0
 16 17  2  0  0  0  0
 16 35  1  0  0  0  0
 17 18  1  0  0  0  0
 17 36  1  0  0  0  0
 18 19  2  0  0  0  0
 18 38  1  0  0  0  0
 19 37  1  0  0  0  0
M  CHG  1  18   1
M  END
> <s_m_source_file>
AV-unprocessed.smi

> <i_m_source_file_index>
3047

> <i_lp_mmshare_version>
43012

> <i_f3d_flags>
0

> <s_epik_input>
W0NIM11TKD1PKSg9TylOMVtDSDJdW0NIMl1bQ0gyXVtDQEhdMUMoPU8pW05IXVtDSDJdW0NIMl1uMltjSF1bY0hdbltjSF0y

> <s_epik_cmdline>
J2VwaWtfcHl0aG9uJywgJy1waCcsICc3LjAnLCAnLXRuJywgJzgnLCAnLW1hJywgJzIwMCcsICctbWV0YWxfYmluZGluZycsICctaW1hZScsICc8aW5maWxlLm1hZT4nLCAnLW9tYWUnLCAnPG91dGZpbGUubWFlPic=

> <r_lp_tautomer_probability>
1

> <r_epik_Ionization_Penalty>
0.281738

> <r_epik_Ionization_Penalty_Charging>
0

> <r_epik_Ionization_Penalty_Neutral>
0.281738

> <r_epik_State_Penalty>
0.274352

> <r_epik_Charging_Adjusted_Penalty>
0.274352

> <i_epik_Tot_Q>
1

> <i_epik_Tot_abs_Q>
1

> <r_epik_Metal_State_Penalty>
0.555562

> <b_epik_Metal_Only>
0

> <s_lp_Force_Field>
OPLS_2005

> <r_lp_Energy>
11.563

> <b_lp_Chiralities_Consistent>
1

> <s_lp_Variant>
AV-unprocessed.smi:3047-2

> <Gold.Version>
5.8.1

> <Gold.Id.Protein>
6NUR|6NUR_protein|mol2

> <Gold.PLP.Fitness>
48.2633

> <Gold.PLP.PLP>
-35.0390

> <Gold.PLP.part.hbond>
-4.0036

> <Gold.PLP.part.metal>
0.0000

> <Gold.PLP.part.buried>
2.1247

> <Gold.PLP.part.nonpolar>
-33.8566

> <Gold.PLP.part.repulsive>
0.1174

> <Gold.PLP.ligand.clash>
0.0000

> <Gold.PLP.ligand.torsion>
1.8519

> <Gold.PLP.Chemscore.Hbond>
3.9600

> <Gold.PLP.Chemscore.CHOScore>
1.0000

> <Gold.PLP.Chemscore.Metal>
0.0000

> <Gold.Chemscore.Hbonds>
donor molecule, donor type, donor heavy atom, donor atom, acceptor molecule, acceptor atom, score
      L1  H    12    30       P1  8028  1.00
      L1  H    18    38       P1  7948  1.95
      P1  H  7997  8009       L1     3  1.00
      L1  C    16    35       P1 10175  1.00

> <Gold.PLP.Chemscore.Internal.Correction>
2.0482

> <Gold.Rescore>
     Score         DG    S(hbond)    S(metal)    S(lipo)     H(rot)  DE(clash)    DE(int)     intcor
     12.94     -18.44       2.82        0.00      76.14       2.10       0.66       4.83       ----

> <Gold.Chemscore.Fitness>
12.9442

> <Gold.Chemscore.DG>
-18.4377

> <Gold.Chemscore.ZeroCoef>
-5.4800

> <Gold.Chemscore.Hbond>
2.8183

> <Gold.Chemscore.Metal>
0.0000

> <Gold.Chemscore.Lipo>
76.1438

> <Gold.Chemscore.Internal_Hbond>
0.0000

> <Gold.Chemscore.DEClash>
0.6602

> <Gold.Chemscore.DEInternal>
4.8333

> <Gold.Chemscore.Rot>
2.0954

> <Gold.Chemscore.Internal.Correction>
   9.000000E+99

> <Gold.Chemscore.Hbonds>
donor molecule, donor type, donor heavy atom, donor atom, acceptor molecule, acceptor atom, score
      L1  H    12    30       P1  8028  0.94
      L1  H    18    38       P1  7948  0.93
      P1  H  7997  8009       L1     3  0.94

> <Gold.Chemscore.Hbond.Weighted>
-9.4131

> <Gold.Chemscore.Metal.Weighted>
-0.0000

> <Gold.Chemscore.Lipo.Weighted>
-8.9088

> <Gold.Chemscore.Internal_Hbond.Weighted>
0.0000

> <Gold.Chemscore.DEClash.Weighted>
0.6602

> <Gold.Chemscore.DEInternal.Weighted>
4.8333

> <Gold.Chemscore.Rot.Weighted>
5.3643

> <Gold.Chemscore.Internal.Correction.Weighted>
   9.000000E+99

> <Gold.Protein.RotatedTorsions>
[ 6907 6896 6895 6894 ] final   -1.56 input  -60.11 | X-H torsion
[ 7974 7965 7964 7962 ] final   79.23 input  175.53 | X-H torsion
[ 8008 7997 7996 7995 ] final  177.84 input   59.86 | X-H torsion
[ 10167 10162 10161 10158 ] final  -78.45 input  -65.29 | X-H torsion
[ 10718 10713 10712 10709 ] final  121.71 input   66.30 | X-H torsion
[ 10763 10752 10751 10750 ] final  121.08 input  -60.55 | X-H torsion
[ 11005 11000 10999 10996 ] final  110.17 input  -57.11 | X-H torsion

> <Gold.Protein.ActiveResidues>
 VAL166  LYS551  ARG553  GLY616  TRP617  ASP618  TYR619  PRO620  LYS621  CYS622 
 ASP623  PHE694  ASN695  SER759  ASP760  ASP761  ALA762  ILE779  LEU786  VAL792 
 PHE793  MET794  SER795  GLU796  ALA797  LYS798  CYS799  TRP800  GLU811  SER814 

> <Gold.Protein.RotatedAtoms>
  151.5441  135.1068  159.9933 H   0  0  0  0  0  0  0  0  0  0  0  0  # atno 6907 bound_to 6896
  152.4522  133.7647  159.6776 H   0  0  0  0  0  0  0  0  0  0  0  0  # atno 6908 bound_to 6896
  150.8453  133.7804  159.3069 H   0  0  0  0  0  0  0  0  0  0  0  0  # atno 6909 bound_to 6896
  145.6669  139.2486  143.1891 H   0  0  0  0  0  0  0  0  0  0  0  0  # atno 7974 bound_to 7965
  156.0612  140.1348  156.9939 H   0  0  0  0  0  0  0  0  0  0  0  0  # atno 8008 bound_to 7997
  154.4483  140.0991  156.6591 H   0  0  0  0  0  0  0  0  0  0  0  0  # atno 8009 bound_to 7997
  155.5374  140.3460  155.4441 H   0  0  0  0  0  0  0  0  0  0  0  0  # atno 8010 bound_to 7997
  140.4681  143.2434  151.8247 H   0  0  0  0  0  0  0  0  0  0  0  0  # atno 10167 bound_to 10162
  157.5797  131.1076  150.8211 H   0  0  0  0  0  0  0  0  0  0  0  0  # atno 10718 bound_to 10713
  153.6085  135.3435  155.2970 H   0  0  0  0  0  0  0  0  0  0  0  0  # atno 10763 bound_to 10752
  154.8623  135.4244  154.2335 H   0  0  0  0  0  0  0  0  0  0  0  0  # atno 10764 bound_to 10752
  153.3180  135.7036  153.7128 H   0  0  0  0  0  0  0  0  0  0  0  0  # atno 10765 bound_to 10752
  139.8876  134.9477  156.6238 H   0  0  0  0  0  0  0  0  0  0  0  0  # atno 11005 bound_to 11000
  146.1078  140.7465  142.9518 LP  0  0  0  0  0  0  0  0  0  0  0  0  # atno 17320 bound_to 7965
  144.7070  140.3891  143.7110 LP  0  0  0  0  0  0  0  0  0  0  0  0  # atno 17321 bound_to 7965
  139.4814  144.4926  151.9165 LP  0  0  0  0  0  0  0  0  0  0  0  0  # atno 17342 bound_to 10162
  140.4011  144.2491  150.5893 LP  0  0  0  0  0  0  0  0  0  0  0  0  # atno 17343 bound_to 10162
  156.8660  130.5129  149.5300 LP  0  0  0  0  0  0  0  0  0  0  0  0  # atno 17370 bound_to 10713
  156.0843  130.5845  150.9619 LP  0  0  0  0  0  0  0  0  0  0  0  0  # atno 17371 bound_to 10713
  140.7718  133.8732  155.8498 LP  0  0  0  0  0  0  0  0  0  0  0  0  # atno 17394 bound_to 11000
  140.9835  134.1374  157.4473 LP  0  0  0  0  0  0  0  0  0  0  0  0  # atno 17395 bound_to 11000

$$$$
