AV-unprocessed.smi:122|AV-procd|sdf|1142|dock2
  -GOLD-   2262018273D 1   1.00000     0.00000
 Structure written by MMmdl.
 48 50  0  0  0  0  0  0  0  0  1 V2000
  146.6769  135.4277  159.0024 C   0  0  0  0  0  0  0  0  0  0  0  0
  147.5496  137.0204  159.2990 S   0  0  0  0  0  0  0  0  0  0  0  0
  146.8508  138.0622  158.5309 O   0  0  0  0  0  0  0  0  0  0  0  0
  147.7621  137.1920  160.7442 O   0  0  0  0  0  0  0  0  0  0  0  0
  149.0990  136.7690  158.5617 N   0  0  0  0  0  0  0  0  0  0  0  0
  149.1525  135.8777  157.3803 C   0  0  0  0  0  0  0  0  0  0  0  0
  150.6009  135.5414  156.9826 C   0  0  0  0  0  0  0  0  0  0  0  0
  151.3458  136.7885  156.8075 N   0  0  0  0  0  0  0  0  0  0  0  0
  151.7806  137.3060  155.6341 C   0  0  0  0  0  0  0  0  0  0  0  0
  151.6192  136.7190  154.5623 O   0  0  0  0  0  0  0  0  0  0  0  0
  152.5033  138.6693  155.6442 C   0  0  0  0  0  0  0  0  0  0  0  0
  151.6355  139.7994  156.0458 N   0  0  0  0  0  0  0  0  0  0  0  0
  150.5911  140.1973  155.1744 C   0  0  0  0  0  0  0  0  0  0  0  0
  150.3885  139.6109  154.1102 O   0  0  0  0  0  0  0  0  0  0  0  0
  149.8011  141.3394  155.6191 C   0  0  0  0  0  0  0  0  0  0  0  0
  148.7983  141.7955  154.8497 F   0  0  0  0  0  0  0  0  0  0  0  0
  150.0653  141.9522  156.7914 C   0  0  0  0  0  0  0  0  0  0  0  0
  151.0742  141.5435  157.6411 N   0  0  0  0  0  0  0  0  0  0  0  0
  151.3353  142.3266  158.9072 C   0  0  1  0  0  0  0  0  0  0  0  0
  152.6680  143.0992  158.8933 C   0  0  0  0  0  0  0  0  0  0  0  0
  152.2288  144.5397  159.0990 C   0  0  0  0  0  0  0  0  0  0  0  0
  150.8515  144.3872  159.7348 C   0  0  0  0  0  0  0  0  0  0  0  0
  150.3084  143.2547  159.0746 O   0  0  0  0  0  0  0  0  0  0  0  0
  151.9083  140.4651  157.2652 C   0  0  0  0  0  0  0  0  0  0  0  0
  152.8550  140.1175  157.9730 O   0  0  0  0  0  0  0  0  0  0  0  0
  151.4461  137.4935  158.0849 C   0  0  0  0  0  0  0  0  0  0  0  0
  150.0342  137.9170  158.5292 C   0  0  0  0  0  0  0  0  0  0  0  0
  145.6469  135.5132  159.3476 H   0  0  0  0  0  0  0  0  0  0  0  0
  147.1682  134.6244  159.5497 H   0  0  0  0  0  0  0  0  0  0  0  0
  146.6827  135.2020  157.9364 H   0  0  0  0  0  0  0  0  0  0  0  0
  148.6146  134.9538  157.5921 H   0  0  0  0  0  0  0  0  0  0  0  0
  148.6371  136.3630  156.5503 H   0  0  0  0  0  0  0  0  0  0  0  0
  151.0719  134.9478  157.7677 H   0  0  0  0  0  0  0  0  0  0  0  0
  150.6030  134.9019  156.1016 H   0  0  0  0  0  0  0  0  0  0  0  0
  153.3711  138.6007  156.3019 H   0  0  0  0  0  0  0  0  0  0  0  0
  152.9252  138.8527  154.6547 H   0  0  0  0  0  0  0  0  0  0  0  0
  149.4545  142.7984  157.0705 H   0  0  0  0  0  0  0  0  0  0  0  0
  151.2993  141.6018  159.7220 H   0  0  0  0  0  0  0  0  0  0  0  0
  153.2779  142.7526  159.7281 H   0  0  0  0  0  0  0  0  0  0  0  0
  153.2296  142.9514  157.9705 H   0  0  0  0  0  0  0  0  0  0  0  0
  152.9204  145.1114  159.7182 H   0  0  0  0  0  0  0  0  0  0  0  0
  152.1400  145.0473  158.1385 H   0  0  0  0  0  0  0  0  0  0  0  0
  150.9359  144.1818  160.8030 H   0  0  0  0  0  0  0  0  0  0  0  0
  150.2252  145.2693  159.6013 H   0  0  0  0  0  0  0  0  0  0  0  0
  151.8949  136.8372  158.8321 H   0  0  0  0  0  0  0  0  0  0  0  0
  152.0951  138.3687  158.0339 H   0  0  0  0  0  0  0  0  0  0  0  0
  149.6403  138.6710  157.8465 H   0  0  0  0  0  0  0  0  0  0  0  0
  150.0865  138.3792  159.5136 H   0  0  0  0  0  0  0  0  0  0  0  0
  1  2  1  0  0  0  0
  1 28  1  0  0  0  0
  1 29  1  0  0  0  0
  1 30  1  0  0  0  0
  2  3  2  0  0  0  0
  2  4  2  0  0  0  0
  2  5  1  0  0  0  0
  5 27  1  0  0  0  0
  5  6  1  0  0  0  0
  6  7  1  0  0  0  0
  6 31  1  0  0  0  0
  6 32  1  0  0  0  0
  7  8  1  0  0  0  0
  7 33  1  0  0  0  0
  7 34  1  0  0  0  0
  8  9  1  0  0  0  0
  8 26  1  0  0  0  0
  9 10  2  0  0  0  0
  9 11  1  0  0  0  0
 11 12  1  0  0  0  0
 11 35  1  0  0  0  0
 11 36  1  0  0  0  0
 12 24  1  0  0  0  0
 12 13  1  0  0  0  0
 13 14  2  0  0  0  0
 13 15  1  0  0  0  0
 15 16  1  0  0  0  0
 15 17  2  0  0  0  0
 17 18  1  0  0  0  0
 17 37  1  0  0  0  0
 18 19  1  0  0  0  0
 18 24  1  0  0  0  0
 19 23  1  0  0  0  0
 19 20  1  0  0  0  0
 19 38  1  0  0  0  0
 20 21  1  0  0  0  0
 20 39  1  0  0  0  0
 20 40  1  0  0  0  0
 21 22  1  0  0  0  0
 21 41  1  0  0  0  0
 21 42  1  0  0  0  0
 22 23  1  0  0  0  0
 22 43  1  0  0  0  0
 22 44  1  0  0  0  0
 24 25  2  0  0  0  0
 26 27  1  0  0  0  0
 26 45  1  0  0  0  0
 26 46  1  0  0  0  0
 27 47  1  0  0  0  0
 27 48  1  0  0  0  0
M  END
> <s_m_source_file>
AV-unprocessed.smi

> <i_m_source_file_index>
122

> <i_lp_mmshare_version>
43012

> <i_f3d_flags>
0

> <s_epik_input>
W0NIM11TKD1PKSg9TylOMVtDSDJdW0NIMl1OKFtDSDJdW0NIMl0xKUMoPU8pW0NIMl1uMmMoPU8pYyhGKVtjSF1uKGMyPU8pW0NAQEhdM1tDSDJdW0NIMl1bQ0gyXU8z

> <s_epik_cmdline>
J2VwaWtfcHl0aG9uJywgJy1waCcsICc3LjAnLCAnLXRuJywgJzgnLCAnLW1hJywgJzIwMCcsICctbWV0YWxfYmluZGluZycsICctaW1hZScsICc8aW5maWxlLm1hZT4nLCAnLW9tYWUnLCAnPG91dGZpbGUubWFlPic=

> <r_lp_tautomer_probability>
1

> <r_epik_Ionization_Penalty>
4.55442e-09

> <r_epik_Ionization_Penalty_Charging>
4.02834e-09

> <r_epik_Ionization_Penalty_Neutral>
5.2608e-10

> <r_epik_State_Penalty>
-0

> <r_epik_Charging_Adjusted_Penalty>
4.02834e-09

> <i_epik_Tot_Q>
0

> <i_epik_Tot_abs_Q>
0

> <r_epik_Metal_State_Penalty>
-0

> <b_epik_Metal_Only>
0

> <s_epik_Chemistry_Notes>
This compound contains an acetal/aminal-like group ( X-CH(R)-Y where X, Y are N, S, or O) that may be acid/base labile, releasing an aldehyde.

> <s_lp_Force_Field>
OPLS_2005

> <r_lp_Energy>
38.4276

> <b_lp_Chiralities_Consistent>
1

> <s_lp_Variant>
AV-unprocessed.smi:122-2

> <Gold.Version>
5.8.1

> <Gold.Id.Protein>
6NUR|6NUR_protein|mol2

> <Gold.PLP.Fitness>
57.1267

> <Gold.PLP.PLP>
-43.3950

> <Gold.PLP.part.hbond>
-5.3901

> <Gold.PLP.part.metal>
0.0000

> <Gold.PLP.part.buried>
-2.2923

> <Gold.PLP.part.nonpolar>
-35.7828

> <Gold.PLP.part.repulsive>
0.7994

> <Gold.PLP.ligand.clash>
0.0000

> <Gold.PLP.ligand.torsion>
0.7759

> <Gold.PLP.Chemscore.Hbond>
3.8620

> <Gold.PLP.Chemscore.CHOScore>
0.9471

> <Gold.PLP.Chemscore.Metal>
0.0000

> <Gold.Chemscore.Hbonds>
donor molecule, donor type, donor heavy atom, donor atom, acceptor molecule, acceptor atom, score
      P1  H  6931  6943       L1     4  0.83
      P1  H  6934  6947       L1     4  0.84
      P1  H  7989  7998       L1    14  0.15
      P1  H  7997  8008       L1    25  1.00
      P1  H 10752 10763       L1    10  1.00
      L1  C    17    37       P1  8028  0.94

> <Gold.PLP.Chemscore.Internal.Correction>
0.8564

> <Gold.Rescore>
     Score         DG    S(hbond)    S(metal)    S(lipo)     H(rot)  DE(clash)    DE(int)     intcor
     15.20     -17.77       2.71        0.00      72.86       2.06       0.30       2.27       ----

> <Gold.Chemscore.Fitness>
15.2011

> <Gold.Chemscore.DG>
-17.7727

> <Gold.Chemscore.ZeroCoef>
-5.4800

> <Gold.Chemscore.Hbond>
2.7102

> <Gold.Chemscore.Metal>
0.0000

> <Gold.Chemscore.Lipo>
72.8569

> <Gold.Chemscore.Internal_Hbond>
0.0000

> <Gold.Chemscore.DEClash>
0.2987

> <Gold.Chemscore.DEInternal>
2.2729

> <Gold.Chemscore.Rot>
2.0639

> <Gold.Chemscore.Internal.Correction>
   9.000000E+99

> <Gold.Chemscore.Hbonds>
donor molecule, donor type, donor heavy atom, donor atom, acceptor molecule, acceptor atom, score
      P1  H  6931  6943       L1     4  0.77
      P1  H  6934  6947       L1     4  0.19
      P1  H  7997  8008       L1    25  0.74
      P1  H 10752 10763       L1    10  0.78

> <Gold.Chemscore.Hbond.Weighted>
-9.0520

> <Gold.Chemscore.Metal.Weighted>
-0.0000

> <Gold.Chemscore.Lipo.Weighted>
-8.5243

> <Gold.Chemscore.Internal_Hbond.Weighted>
0.0000

> <Gold.Chemscore.DEClash.Weighted>
0.2987

> <Gold.Chemscore.DEInternal.Weighted>
2.2729

> <Gold.Chemscore.Rot.Weighted>
5.2836

> <Gold.Chemscore.Internal.Correction.Weighted>
   9.000000E+99

> <Gold.Protein.RotatedTorsions>
[ 6907 6896 6895 6894 ] final -145.89 input  -60.11 | X-H torsion
[ 7974 7965 7964 7962 ] final  115.89 input  175.53 | X-H torsion
[ 8008 7997 7996 7995 ] final  -79.35 input   59.86 | X-H torsion
[ 10167 10162 10161 10158 ] final   72.89 input  -65.29 | X-H torsion
[ 10718 10713 10712 10709 ] final   82.32 input   66.30 | X-H torsion
[ 10763 10752 10751 10750 ] final   35.87 input  -60.55 | X-H torsion
[ 11005 11000 10999 10996 ] final -127.98 input  -57.11 | X-H torsion

> <Gold.Protein.ActiveResidues>
 VAL166  LYS551  ARG553  GLY616  TRP617  ASP618  TYR619  PRO620  LYS621  CYS622 
 ASP623  PHE694  ASN695  SER759  ASP760  ASP761  ALA762  ILE779  LEU786  VAL792 
 PHE793  MET794  SER795  GLU796  ALA797  LYS798  CYS799  TRP800  GLU811  SER814 

> <Gold.Protein.RotatedAtoms>
  151.1341  133.5016  159.2598 H   0  0  0  0  0  0  0  0  0  0  0  0  # atno 6907 bound_to 6896
  151.1726  135.0324  159.8768 H   0  0  0  0  0  0  0  0  0  0  0  0  # atno 6908 bound_to 6896
  152.5460  134.1202  159.8449 H   0  0  0  0  0  0  0  0  0  0  0  0  # atno 6909 bound_to 6896
  145.1864  139.3023  143.4391 H   0  0  0  0  0  0  0  0  0  0  0  0  # atno 7974 bound_to 7965
  154.5776  140.0680  156.9058 H   0  0  0  0  0  0  0  0  0  0  0  0  # atno 8008 bound_to 7997
  155.2520  140.3352  155.4263 H   0  0  0  0  0  0  0  0  0  0  0  0  # atno 8009 bound_to 7997
  156.2166  140.1781  156.7560 H   0  0  0  0  0  0  0  0  0  0  0  0  # atno 8010 bound_to 7997
  140.0304  144.5470  150.7512 H   0  0  0  0  0  0  0  0  0  0  0  0  # atno 10167 bound_to 10162
  157.6854  131.0042  150.2357 H   0  0  0  0  0  0  0  0  0  0  0  0  # atno 10718 bound_to 10713
  153.0101  135.6321  154.1895 H   0  0  0  0  0  0  0  0  0  0  0  0  # atno 10763 bound_to 10752
  154.1637  135.2822  155.3103 H   0  0  0  0  0  0  0  0  0  0  0  0  # atno 10764 bound_to 10752
  154.5962  135.5602  153.7388 H   0  0  0  0  0  0  0  0  0  0  0  0  # atno 10765 bound_to 10752
  140.9555  134.1008  157.4021 H   0  0  0  0  0  0  0  0  0  0  0  0  # atno 11005 bound_to 11000
  146.3444  140.2062  142.8589 LP  0  0  0  0  0  0  0  0  0  0  0  0  # atno 17320 bound_to 7965
  145.0084  140.8693  143.5239 LP  0  0  0  0  0  0  0  0  0  0  0  0  # atno 17321 bound_to 7965
  140.7305  143.2683  151.3970 LP  0  0  0  0  0  0  0  0  0  0  0  0  # atno 17342 bound_to 10162
  139.6080  144.1157  152.2269 LP  0  0  0  0  0  0  0  0  0  0  0  0  # atno 17343 bound_to 10162
  156.2981  130.3754  149.7777 LP  0  0  0  0  0  0  0  0  0  0  0  0  # atno 17370 bound_to 10713
  156.5415  130.8302  151.3270 LP  0  0  0  0  0  0  0  0  0  0  0  0  # atno 17371 bound_to 10713
  139.8861  135.0078  156.6475 LP  0  0  0  0  0  0  0  0  0  0  0  0  # atno 17394 bound_to 11000
  140.7543  133.8871  155.8370 LP  0  0  0  0  0  0  0  0  0  0  0  0  # atno 17395 bound_to 11000

$$$$
