AV-unprocessed.smi:418|AV-procd|sdf|2529|dock3
  -GOLD-   2262022483D 1   1.00000     0.00000
 Structure written by MMmdl.
 40 42  0  0  0  0  0  0  0  0  1 V2000
  153.5589  142.9356  163.6209 C   0  0  0  0  0  0  0  0  0  0  0  0
  153.3495  142.4486  162.2627 N   0  0  0  0  0  0  0  0  0  0  0  0
  153.7899  141.2805  161.7392 C   0  0  0  0  0  0  0  0  0  0  0  0
  154.4520  140.4263  162.3284 O   0  0  0  0  0  0  0  0  0  0  0  0
  153.3788  141.2180  160.4506 N   0  0  0  0  0  0  0  0  0  0  0  0
  153.6509  140.1394  159.5030 C   0  0  0  0  0  0  0  0  0  0  0  0
  153.7053  138.7664  160.2028 C   0  0  1  0  0  0  0  0  0  0  0  0
  152.8193  137.8579  159.5817 O   0  0  0  0  0  0  0  0  0  0  0  0
  155.1088  138.1383  160.1890 C   0  0  0  0  0  0  0  0  0  0  0  0
  155.0231  136.7609  160.5343 O   0  0  0  0  0  0  0  0  0  0  0  0
  154.6513  136.4277  161.8193 C   0  0  0  0  0  0  0  0  0  0  0  0
  154.2541  137.3696  162.8026 C   0  0  0  0  0  0  0  0  0  0  0  0
  153.8913  136.9418  164.0946 C   0  0  0  0  0  0  0  0  0  0  0  0
  153.9196  135.5733  164.4203 C   0  0  0  0  0  0  0  0  0  0  0  0
  154.3112  134.6315  163.4510 C   0  0  0  0  0  0  0  0  0  0  0  0
  154.6746  135.0580  162.1589 C   0  0  0  0  0  0  0  0  0  0  0  0
  155.0502  134.1410  161.2354 F   0  0  0  0  0  0  0  0  0  0  0  0
  152.6679  142.3857  160.1377 C   0  0  0  0  0  0  0  0  0  0  0  0
  152.0550  142.8052  158.9441 C   0  0  0  0  0  0  0  0  0  0  0  0
  151.4107  144.0647  158.9572 C   0  0  0  0  0  0  0  0  0  0  0  0
  151.3931  144.8609  160.1322 C   0  0  0  0  0  0  0  0  0  0  0  0
  152.0196  144.4146  161.3196 C   0  0  0  0  0  0  0  0  0  0  0  0
  152.6506  143.1594  161.2789 C   0  0  0  0  0  0  0  0  0  0  0  0
  154.0085  142.1771  164.2630 H   0  0  0  0  0  0  0  0  0  0  0  0
  152.6092  143.2308  164.0675 H   0  0  0  0  0  0  0  0  0  0  0  0
  154.2175  143.8044  163.6107 H   0  0  0  0  0  0  0  0  0  0  0  0
  152.9195  140.1371  158.6927 H   0  0  0  0  0  0  0  0  0  0  0  0
  154.6118  140.3491  159.0315 H   0  0  0  0  0  0  0  0  0  0  0  0
  153.3934  138.8661  161.2433 H   0  0  0  0  0  0  0  0  0  0  0  0
  152.1793  137.5814  160.2201 H   0  0  0  0  0  0  0  0  0  0  0  0
  155.5205  138.2278  159.1827 H   0  0  0  0  0  0  0  0  0  0  0  0
  155.7737  138.6750  160.8682 H   0  0  0  0  0  0  0  0  0  0  0  0
  154.2193  138.4274  162.5910 H   0  0  0  0  0  0  0  0  0  0  0  0
  153.5907  137.6660  164.8373 H   0  0  0  0  0  0  0  0  0  0  0  0
  153.6415  135.2463  165.4114 H   0  0  0  0  0  0  0  0  0  0  0  0
  154.3335  133.5804  163.6979 H   0  0  0  0  0  0  0  0  0  0  0  0
  152.0743  142.1960  158.0525 H   0  0  0  0  0  0  0  0  0  0  0  0
  150.9268  144.4257  158.0615 H   0  0  0  0  0  0  0  0  0  0  0  0
  150.8964  145.8199  160.1193 H   0  0  0  0  0  0  0  0  0  0  0  0
  152.0124  145.0153  162.2172 H   0  0  0  0  0  0  0  0  0  0  0  0
  1  2  1  0  0  0  0
  1 24  1  0  0  0  0
  1 25  1  0  0  0  0
  1 26  1  0  0  0  0
  2 23  1  0  0  0  0
  2  3  1  0  0  0  0
  3  4  2  0  0  0  0
  3  5  1  0  0  0  0
  5  6  1  0  0  0  0
  5 18  1  0  0  0  0
  6  7  1  0  0  0  0
  6 27  1  0  0  0  0
  6 28  1  0  0  0  0
  7  8  1  0  0  0  0
  7  9  1  0  0  0  0
  7 29  1  0  0  0  0
  8 30  1  0  0  0  0
  9 10  1  0  0  0  0
  9 31  1  0  0  0  0
  9 32  1  0  0  0  0
 10 11  1  0  0  0  0
 11 16  1  0  0  0  0
 11 12  2  0  0  0  0
 12 13  1  0  0  0  0
 12 33  1  0  0  0  0
 13 14  2  0  0  0  0
 13 34  1  0  0  0  0
 14 15  1  0  0  0  0
 14 35  1  0  0  0  0
 15 16  2  0  0  0  0
 15 36  1  0  0  0  0
 16 17  1  0  0  0  0
 18 23  2  0  0  0  0
 18 19  1  0  0  0  0
 19 20  2  0  0  0  0
 19 37  1  0  0  0  0
 20 21  1  0  0  0  0
 20 38  1  0  0  0  0
 21 22  2  0  0  0  0
 21 39  1  0  0  0  0
 22 23  1  0  0  0  0
 22 40  1  0  0  0  0
M  END
> <s_m_source_file>
AV-unprocessed.smi

> <i_m_source_file_index>
418

> <i_lp_mmshare_version>
43012

> <i_f3d_flags>
0

> <s_epik_input>
W2NIXTFbY0hdW2NIXVtjSF1jKGMxMiluKFtDSDNdKWMoPU8pbjJbQ0gyXVtDQEhdKFtPSF0pW0NIMl1PYzNbY0hdW2NIXVtjSF1bY0hdYzNG

> <s_epik_cmdline>
J2VwaWtfcHl0aG9uJywgJy1waCcsICc3LjAnLCAnLXRuJywgJzgnLCAnLW1hJywgJzIwMCcsICctbWV0YWxfYmluZGluZycsICctaW1hZScsICc8aW5maWxlLm1hZT4nLCAnLW9tYWUnLCAnPG91dGZpbGUubWFlPic=

> <r_lp_tautomer_probability>
1

> <r_epik_Ionization_Penalty>
2.40171e-06

> <r_epik_Ionization_Penalty_Charging>
2.41238e-09

> <r_epik_Ionization_Penalty_Neutral>
2.3993e-06

> <r_epik_State_Penalty>
-0

> <r_epik_Charging_Adjusted_Penalty>
2.41238e-09

> <i_epik_Tot_Q>
0

> <i_epik_Tot_abs_Q>
0

> <r_epik_Metal_State_Penalty>
-0

> <b_epik_Metal_Only>
0

> <s_lp_Force_Field>
OPLS_2005

> <r_lp_Energy>
48.5553

> <b_lp_Chiralities_Consistent>
1

> <s_lp_Variant>
AV-unprocessed.smi:418-2

> <Gold.Version>
5.8.1

> <Gold.Id.Protein>
6NUR|6NUR_protein|mol2

> <Gold.PLP.Fitness>
54.6549

> <Gold.PLP.PLP>
-57.1188

> <Gold.PLP.part.hbond>
0.0000

> <Gold.PLP.part.metal>
0.0000

> <Gold.PLP.part.buried>
-6.2047

> <Gold.PLP.part.nonpolar>
-50.0598

> <Gold.PLP.part.repulsive>
0.0000

> <Gold.PLP.ligand.clash>
0.0000

> <Gold.PLP.ligand.torsion>
1.2530

> <Gold.PLP.Chemscore.Hbond>
0.0000

> <Gold.PLP.Chemscore.CHOScore>
0.0000

> <Gold.PLP.Chemscore.Metal>
0.0000

> <Gold.PLP.Chemscore.Internal.Correction>
0.0421

> <Gold.Rescore>
     Score         DG    S(hbond)    S(metal)    S(lipo)     H(rot)  DE(clash)    DE(int)     intcor
     14.15     -16.82       0.00        0.00     146.63       2.27       0.21       2.46       ----

> <Gold.Chemscore.Fitness>
14.1519

> <Gold.Chemscore.DG>
-16.8227

> <Gold.Chemscore.ZeroCoef>
-5.4800

> <Gold.Chemscore.Hbond>
0.0000

> <Gold.Chemscore.Metal>
0.0000

> <Gold.Chemscore.Lipo>
146.6284

> <Gold.Chemscore.Internal_Hbond>
0.0000

> <Gold.Chemscore.DEClash>
0.2090

> <Gold.Chemscore.DEInternal>
2.4618

> <Gold.Chemscore.Rot>
2.2706

> <Gold.Chemscore.Internal.Correction>
   9.000000E+99

> <Gold.Chemscore.Hbond.Weighted>
-0.0000

> <Gold.Chemscore.Metal.Weighted>
-0.0000

> <Gold.Chemscore.Lipo.Weighted>
-17.1555

> <Gold.Chemscore.Internal_Hbond.Weighted>
0.0000

> <Gold.Chemscore.DEClash.Weighted>
0.2090

> <Gold.Chemscore.DEInternal.Weighted>
2.4618

> <Gold.Chemscore.Rot.Weighted>
5.8128

> <Gold.Chemscore.Internal.Correction.Weighted>
   9.000000E+99

> <Gold.Protein.RotatedTorsions>
[ 6907 6896 6895 6894 ] final   33.71 input  -60.11 | X-H torsion
[ 7974 7965 7964 7962 ] final -106.19 input  175.53 | X-H torsion
[ 8008 7997 7996 7995 ] final -123.89 input   59.86 | X-H torsion
[ 10167 10162 10161 10158 ] final  108.67 input  -65.29 | X-H torsion
[ 10718 10713 10712 10709 ] final   25.85 input   66.30 | X-H torsion
[ 10763 10752 10751 10750 ] final -155.40 input  -60.55 | X-H torsion
[ 11005 11000 10999 10996 ] final   62.57 input  -57.11 | X-H torsion

> <Gold.Protein.ActiveResidues>
 VAL166  LYS551  ARG553  GLY616  TRP617  ASP618  TYR619  PRO620  LYS621  CYS622 
 ASP623  PHE694  ASN695  SER759  ASP760  ASP761  ALA762  ILE779  LEU786  VAL792 
 PHE793  MET794  SER795  GLU796  ALA797  LYS798  CYS799  TRP800  GLU811  SER814 

> <Gold.Protein.RotatedAtoms>
  152.0923  134.9399  160.0571 H   0  0  0  0  0  0  0  0  0  0  0  0  # atno 6907 bound_to 6896
  152.0645  133.4073  159.4440 H   0  0  0  0  0  0  0  0  0  0  0  0  # atno 6908 bound_to 6896
  150.6837  134.3082  159.4778 H   0  0  0  0  0  0  0  0  0  0  0  0  # atno 6909 bound_to 6896
  145.2209  140.9134  143.3260 H   0  0  0  0  0  0  0  0  0  0  0  0  # atno 7974 bound_to 7965
  155.1879  140.0412  157.2895 H   0  0  0  0  0  0  0  0  0  0  0  0  # atno 8008 bound_to 7997
  154.6159  140.2488  155.7582 H   0  0  0  0  0  0  0  0  0  0  0  0  # atno 8009 bound_to 7997
  156.2406  140.2905  156.0443 H   0  0  0  0  0  0  0  0  0  0  0  0  # atno 8010 bound_to 7997
  139.6827  144.7116  151.1486 H   0  0  0  0  0  0  0  0  0  0  0  0  # atno 10167 bound_to 10162
  157.1989  130.6881  149.6180 H   0  0  0  0  0  0  0  0  0  0  0  0  # atno 10718 bound_to 10713
  154.7789  135.3168  154.8032 H   0  0  0  0  0  0  0  0  0  0  0  0  # atno 10763 bound_to 10752
  153.8748  135.6840  153.4776 H   0  0  0  0  0  0  0  0  0  0  0  0  # atno 10764 bound_to 10752
  153.1420  135.4735  154.9447 H   0  0  0  0  0  0  0  0  0  0  0  0  # atno 10765 bound_to 10752
  140.0083  134.6335  155.9820 H   0  0  0  0  0  0  0  0  0  0  0  0  # atno 11005 bound_to 11000
  144.9766  139.3825  143.6282 LP  0  0  0  0  0  0  0  0  0  0  0  0  # atno 17320 bound_to 7965
  146.3376  139.8888  142.8812 LP  0  0  0  0  0  0  0  0  0  0  0  0  # atno 17321 bound_to 7965
  140.7657  143.5675  150.9032 LP  0  0  0  0  0  0  0  0  0  0  0  0  # atno 17342 bound_to 10162
  139.9348  143.6451  152.3068 LP  0  0  0  0  0  0  0  0  0  0  0  0  # atno 17343 bound_to 10162
  155.9702  130.4589  150.6017 LP  0  0  0  0  0  0  0  0  0  0  0  0  # atno 17370 bound_to 10713
  157.3786  131.0777  151.1496 LP  0  0  0  0  0  0  0  0  0  0  0  0  # atno 17371 bound_to 10713
  141.1693  133.6537  156.4593 LP  0  0  0  0  0  0  0  0  0  0  0  0  # atno 17394 bound_to 11000
  140.4600  134.6850  157.5081 LP  0  0  0  0  0  0  0  0  0  0  0  0  # atno 17395 bound_to 11000

$$$$
