AV-unprocessed.smi:3048|AV-procd|sdf|11625|dock3
  -GOLD-   2272017 13D 1   1.00000     0.00000
 Structure written by MMmdl.
 38 39  0  0  0  0  0  0  0  0  2 V2000
  155.0429  143.9736  168.7533 C   0  0  0  0  0  0  0  0  0  0  0  0
  154.9795  143.7145  167.2757 C   0  0  0  0  0  0  0  0  0  0  0  0
  154.9511  144.6702  166.2206 C   0  0  0  0  0  0  0  0  0  0  0  0
  154.9003  144.1113  165.0224 N   0  0  0  0  0  0  0  0  0  0  0  0
  154.8883  142.7842  165.2696 N   0  0  0  0  0  0  0  0  0  0  0  0
  154.8507  141.8440  164.1637 C   0  0  0  0  0  0  0  0  0  0  0  0
  153.7205  142.1668  163.1738 C   0  0  0  0  0  0  0  0  0  0  0  0
  154.1437  141.9422  161.7771 N   0  3  0  0  0  0  0  0  0  0  0  0
  153.0368  141.9283  160.8018 C   0  0  0  0  0  0  0  0  0  0  0  0
  152.9223  143.2802  160.0838 C   0  0  2  0  0  0  0  0  0  0  0  0
  151.9987  144.2560  160.8381 C   0  0  0  0  0  0  0  0  0  0  0  0
  151.8294  145.5588  160.0479 C   0  0  0  0  0  0  0  0  0  0  0  0
  151.3761  145.2429  158.6187 C   0  0  0  0  0  0  0  0  0  0  0  0
  152.3174  144.2127  157.9752 C   0  0  0  0  0  0  0  0  0  0  0  0
  152.3819  143.0427  158.7852 O   0  0  0  0  0  0  0  0  0  0  0  0
  154.9358  142.5162  166.6211 C   0  0  0  0  0  0  0  0  0  0  0  0
  155.0722  145.0400  168.9779 H   0  0  0  0  0  0  0  0  0  0  0  0
  155.9306  143.5275  169.2020 H   0  0  0  0  0  0  0  0  0  0  0  0
  154.1772  143.5604  169.2710 H   0  0  0  0  0  0  0  0  0  0  0  0
  154.9686  145.7480  166.2902 H   0  0  0  0  0  0  0  0  0  0  0  0
  155.8132  141.8831  163.6525 H   0  0  0  0  0  0  0  0  0  0  0  0
  154.7458  140.8307  164.5555 H   0  0  0  0  0  0  0  0  0  0  0  0
  152.8484  141.5502  163.3964 H   0  0  0  0  0  0  0  0  0  0  0  0
  153.4136  143.2071  163.2875 H   0  0  0  0  0  0  0  0  0  0  0  0
  154.8046  142.6597  161.5160 H   0  0  0  0  0  0  0  0  0  0  0  0
  153.1971  141.1309  160.0747 H   0  0  0  0  0  0  0  0  0  0  0  0
  152.1082  141.7038  161.3286 H   0  0  0  0  0  0  0  0  0  0  0  0
  153.9170  143.7206  159.9896 H   0  0  0  0  0  0  0  0  0  0  0  0
  151.0220  143.7948  160.9918 H   0  0  0  0  0  0  0  0  0  0  0  0
  152.4016  144.4716  161.8281 H   0  0  0  0  0  0  0  0  0  0  0  0
  151.1088  146.2124  160.5401 H   0  0  0  0  0  0  0  0  0  0  0  0
  152.7767  146.0988  160.0220 H   0  0  0  0  0  0  0  0  0  0  0  0
  150.3600  144.8464  158.6349 H   0  0  0  0  0  0  0  0  0  0  0  0
  151.3474  146.1545  158.0212 H   0  0  0  0  0  0  0  0  0  0  0  0
  151.9506  143.9367  156.9865 H   0  0  0  0  0  0  0  0  0  0  0  0
  153.3163  144.6297  157.8385 H   0  0  0  0  0  0  0  0  0  0  0  0
  154.9393  141.5052  167.0021 H   0  0  0  0  0  0  0  0  0  0  0  0
  154.6105  141.0468  161.7330 H   0  0  0  0  0  0  0  0  0  0  0  0
  1  2  1  0  0  0  0
  1 17  1  0  0  0  0
  1 18  1  0  0  0  0
  1 19  1  0  0  0  0
  2 16  2  0  0  0  0
  2  3  1  0  0  0  0
  3  4  2  0  0  0  0
  3 20  1  0  0  0  0
  4  5  1  0  0  0  0
  5  6  1  0  0  0  0
  5 16  1  0  0  0  0
  6  7  1  0  0  0  0
  6 21  1  0  0  0  0
  6 22  1  0  0  0  0
  7  8  1  0  0  0  0
  7 23  1  0  0  0  0
  7 24  1  0  0  0  0
  8  9  1  0  0  0  0
  8 25  1  0  0  0  0
  8 38  1  0  0  0  0
  9 10  1  0  0  0  0
  9 26  1  0  0  0  0
  9 27  1  0  0  0  0
 10 15  1  0  0  0  0
 10 11  1  0  0  0  0
 10 28  1  0  0  0  0
 11 12  1  0  0  0  0
 11 29  1  0  0  0  0
 11 30  1  0  0  0  0
 12 13  1  0  0  0  0
 12 31  1  0  0  0  0
 12 32  1  0  0  0  0
 13 14  1  0  0  0  0
 13 33  1  0  0  0  0
 13 34  1  0  0  0  0
 14 15  1  0  0  0  0
 14 35  1  0  0  0  0
 14 36  1  0  0  0  0
 16 37  1  0  0  0  0
M  CHG  1   8   1
M  END
> <s_m_source_file>
AV-unprocessed.smi

> <i_m_source_file_index>
3048

> <i_lp_mmshare_version>
43012

> <i_f3d_flags>
0

> <s_epik_input>
W0NIM11jMVtjSF1ubihbY0hdMSlbQ0gyXVtDSDJdW05IXVtDSDJdW0NAQEhdMltDSDJdW0NIMl1bQ0gyXVtDSDJdTzI=

> <s_epik_cmdline>
J2VwaWtfcHl0aG9uJywgJy1waCcsICc3LjAnLCAnLXRuJywgJzgnLCAnLW1hJywgJzIwMCcsICctbWV0YWxfYmluZGluZycsICctaW1hZScsICc8aW5maWxlLm1hZT4nLCAnLW9tYWUnLCAnPG91dGZpbGUubWFlPic=

> <r_lp_tautomer_probability>
1

> <r_epik_Ionization_Penalty>
0.0084937

> <r_epik_Ionization_Penalty_Charging>
0.00848754

> <r_epik_Ionization_Penalty_Neutral>
6.1613e-06

> <r_epik_State_Penalty>
0.00639836

> <r_epik_Charging_Adjusted_Penalty>
0.0148859

> <i_epik_Tot_Q>
1

> <i_epik_Tot_abs_Q>
1

> <r_epik_Metal_State_Penalty>
0.00642541

> <b_epik_Metal_Only>
0

> <s_lp_Force_Field>
OPLS_2005

> <r_lp_Energy>
10.6877

> <b_lp_Chiralities_Consistent>
1

> <s_lp_Variant>
AV-unprocessed.smi:3048-1

> <Gold.Version>
5.8.1

> <Gold.Id.Protein>
6NUR|6NUR_protein|mol2

> <Gold.PLP.Fitness>
42.9876

> <Gold.PLP.PLP>
-45.0255

> <Gold.PLP.part.hbond>
-1.0000

> <Gold.PLP.part.metal>
0.0000

> <Gold.PLP.part.buried>
-0.6920

> <Gold.PLP.part.nonpolar>
-41.8146

> <Gold.PLP.part.repulsive>
0.0326

> <Gold.PLP.ligand.clash>
0.0000

> <Gold.PLP.ligand.torsion>
1.0299

> <Gold.PLP.Chemscore.Hbond>
0.0000

> <Gold.PLP.Chemscore.CHOScore>
0.0000

> <Gold.PLP.Chemscore.Metal>
0.0000

> <Gold.PLP.Chemscore.Internal.Correction>
0.0218

> <Gold.Rescore>
     Score         DG    S(hbond)    S(metal)    S(lipo)     H(rot)  DE(clash)    DE(int)     intcor
     14.46     -16.06       0.00        0.00     125.80       1.61       0.61       0.99       ----

> <Gold.Chemscore.Fitness>
14.4627

> <Gold.Chemscore.DG>
-16.0642

> <Gold.Chemscore.ZeroCoef>
-5.4800

> <Gold.Chemscore.Hbond>
0.0000

> <Gold.Chemscore.Metal>
0.0000

> <Gold.Chemscore.Lipo>
125.7980

> <Gold.Chemscore.Internal_Hbond>
0.0000

> <Gold.Chemscore.DEClash>
0.6091

> <Gold.Chemscore.DEInternal>
0.9924

> <Gold.Chemscore.Rot>
1.6149

> <Gold.Chemscore.Internal.Correction>
   9.000000E+99

> <Gold.Chemscore.Hbond.Weighted>
-0.0000

> <Gold.Chemscore.Metal.Weighted>
-0.0000

> <Gold.Chemscore.Lipo.Weighted>
-14.7184

> <Gold.Chemscore.Internal_Hbond.Weighted>
0.0000

> <Gold.Chemscore.DEClash.Weighted>
0.6091

> <Gold.Chemscore.DEInternal.Weighted>
0.9924

> <Gold.Chemscore.Rot.Weighted>
4.1341

> <Gold.Chemscore.Internal.Correction.Weighted>
   9.000000E+99

> <Gold.Protein.RotatedTorsions>
[ 6907 6896 6895 6894 ] final -141.30 input  -60.11 | X-H torsion
[ 7974 7965 7964 7962 ] final  109.92 input  175.53 | X-H torsion
[ 8008 7997 7996 7995 ] final  -74.48 input   59.86 | X-H torsion
[ 10167 10162 10161 10158 ] final  -41.56 input  -65.29 | X-H torsion
[ 10718 10713 10712 10709 ] final  -29.43 input   66.30 | X-H torsion
[ 10763 10752 10751 10750 ] final   84.30 input  -60.55 | X-H torsion
[ 11005 11000 10999 10996 ] final  -78.39 input  -57.11 | X-H torsion

> <Gold.Protein.ActiveResidues>
 VAL166  LYS551  ARG553  GLY616  TRP617  ASP618  TYR619  PRO620  LYS621  CYS622 
 ASP623  PHE694  ASN695  SER759  ASP760  ASP761  ALA762  ILE779  LEU786  VAL792 
 PHE793  MET794  SER795  GLU796  ALA797  LYS798  CYS799  TRP800  GLU811  SER814 

> <Gold.Protein.RotatedAtoms>
  151.0720  133.5458  159.2626 H   0  0  0  0  0  0  0  0  0  0  0  0  # atno 6907 bound_to 6896
  151.2394  135.0583  159.9029 H   0  0  0  0  0  0  0  0  0  0  0  0  # atno 6908 bound_to 6896
  152.5413  134.0497  159.8158 H   0  0  0  0  0  0  0  0  0  0  0  0  # atno 6909 bound_to 6896
  145.2616  139.2700  143.4014 H   0  0  0  0  0  0  0  0  0  0  0  0  # atno 7974 bound_to 7965
  154.5334  140.0760  156.8386 H   0  0  0  0  0  0  0  0  0  0  0  0  # atno 8008 bound_to 7997
  155.3327  140.3402  155.4221 H   0  0  0  0  0  0  0  0  0  0  0  0  # atno 8009 bound_to 7997
  156.1804  140.1650  156.8271 H   0  0  0  0  0  0  0  0  0  0  0  0  # atno 8010 bound_to 7997
  140.6999  143.3088  151.3083 H   0  0  0  0  0  0  0  0  0  0  0  0  # atno 10167 bound_to 10162
  156.4126  130.4411  149.7241 H   0  0  0  0  0  0  0  0  0  0  0  0  # atno 10718 bound_to 10713
  153.1369  135.4659  154.9436 H   0  0  0  0  0  0  0  0  0  0  0  0  # atno 10763 bound_to 10752
  154.7714  135.3160  154.8184 H   0  0  0  0  0  0  0  0  0  0  0  0  # atno 10764 bound_to 10752
  153.8715  135.6903  153.4828 H   0  0  0  0  0  0  0  0  0  0  0  0  # atno 10765 bound_to 10752
  141.1664  133.7061  156.7964 H   0  0  0  0  0  0  0  0  0  0  0  0  # atno 11005 bound_to 11000
  146.3273  140.3035  142.8622 LP  0  0  0  0  0  0  0  0  0  0  0  0  # atno 17320 bound_to 7965
  144.9413  140.8081  143.5629 LP  0  0  0  0  0  0  0  0  0  0  0  0  # atno 17321 bound_to 7965
  139.6503  144.0375  152.2621 LP  0  0  0  0  0  0  0  0  0  0  0  0  # atno 17342 bound_to 10162
  139.9909  144.6362  150.7815 LP  0  0  0  0  0  0  0  0  0  0  0  0  # atno 17343 bound_to 10162
  156.4214  130.7770  151.2788 LP  0  0  0  0  0  0  0  0  0  0  0  0  # atno 17370 bound_to 10713
  157.7507  131.0182  150.3615 LP  0  0  0  0  0  0  0  0  0  0  0  0  # atno 17371 bound_to 10713
  140.2288  134.8701  157.3455 LP  0  0  0  0  0  0  0  0  0  0  0  0  # atno 17394 bound_to 11000
  140.1912  134.4369  155.7715 LP  0  0  0  0  0  0  0  0  0  0  0  0  # atno 17395 bound_to 11000

$$$$
