AV-unprocessed.smi:362|AV-procd|sdf|2422|dock9
  -GOLD-   2262022363D 1   1.00000     0.00000
 Structure written by MMmdl.
 35 37  0  0  0  0  0  0  0  0  2 V2000
  149.7124  141.3016  157.8514 O   0  0  0  0  0  0  0  0  0  0  0  0
  150.8561  141.2300  157.3999 C   0  0  0  0  0  0  0  0  0  0  0  0
  151.1238  140.5015  156.0766 C   0  0  0  0  0  0  0  0  0  0  0  0
  149.8873  140.2084  155.3344 N   0  0  0  0  0  0  0  0  0  0  0  0
  149.0938  141.2953  154.9274 C   0  0  0  0  0  0  0  0  0  0  0  0
  147.9436  141.1203  154.2493 C   0  0  0  0  0  0  0  0  0  0  0  0
  147.5268  139.7589  153.9366 C   0  0  0  0  0  0  0  0  0  0  0  0
  146.4829  139.5807  153.3119 O   0  0  0  0  0  0  0  0  0  0  0  0
  148.3280  138.7370  154.3583 N   0  5  0  0  0  0  0  0  0  0  0  0
  149.4936  138.9299  155.0504 C   0  0  0  0  0  0  0  0  0  0  0  0
  150.2006  137.9932  155.4246 O   0  0  0  0  0  0  0  0  0  0  0  0
  151.9254  141.7836  157.9947 N   0  0  0  0  0  0  0  0  0  0  0  0
  151.9448  142.4980  159.2691 C   0  0  0  0  0  0  0  0  0  0  0  0
  152.6183  143.8603  159.1930 C   0  0  0  0  0  0  0  0  0  0  0  0
  152.0817  145.0455  159.9593 C   0  0  0  0  0  0  0  0  0  0  0  0
  151.9751  145.0064  158.4509 C   0  0  0  0  0  0  0  0  0  0  0  0
  152.4988  141.6813  160.4274 C   0  0  0  0  0  0  0  0  0  0  0  0
  153.1220  142.3500  161.6289 C   0  0  0  0  0  0  0  0  0  0  0  0
  153.9861  141.5683  160.6646 C   0  0  0  0  0  0  0  0  0  0  0  0
  151.7926  141.1208  155.4777 H   0  0  0  0  0  0  0  0  0  0  0  0
  151.6766  139.5782  156.2614 H   0  0  0  0  0  0  0  0  0  0  0  0
  149.4700  142.2692  155.2044 H   0  0  0  0  0  0  0  0  0  0  0  0
  147.3430  141.9657  153.9472 H   0  0  0  0  0  0  0  0  0  0  0  0
  152.8173  141.6685  157.5359 H   0  0  0  0  0  0  0  0  0  0  0  0
  150.8928  142.6819  159.4907 H   0  0  0  0  0  0  0  0  0  0  0  0
  153.7030  143.8073  159.1202 H   0  0  0  0  0  0  0  0  0  0  0  0
  151.1636  144.9135  160.5279 H   0  0  0  0  0  0  0  0  0  0  0  0
  152.8067  145.7295  160.3957 H   0  0  0  0  0  0  0  0  0  0  0  0
  152.6300  145.6610  157.8795 H   0  0  0  0  0  0  0  0  0  0  0  0
  150.9900  144.8407  158.0195 H   0  0  0  0  0  0  0  0  0  0  0  0
  151.9297  140.7772  160.6356 H   0  0  0  0  0  0  0  0  0  0  0  0
  153.2112  143.4345  161.6169 H   0  0  0  0  0  0  0  0  0  0  0  0
  152.9281  141.9086  162.6044 H   0  0  0  0  0  0  0  0  0  0  0  0
  154.3687  140.6055  160.9969 H   0  0  0  0  0  0  0  0  0  0  0  0
  154.6512  142.1362  160.0174 H   0  0  0  0  0  0  0  0  0  0  0  0
  1  2  2  0  0  0  0
  2  3  1  0  0  0  0
  2 12  1  0  0  0  0
  3  4  1  0  0  0  0
  3 20  1  0  0  0  0
  3 21  1  0  0  0  0
  4 10  1  0  0  0  0
  4  5  1  0  0  0  0
  5  6  2  0  0  0  0
  5 22  1  0  0  0  0
  6  7  1  0  0  0  0
  6 23  1  0  0  0  0
  7  8  2  0  0  0  0
  7  9  1  0  0  0  0
  9 10  1  0  0  0  0
 10 11  2  0  0  0  0
 12 13  1  0  0  0  0
 12 24  1  0  0  0  0
 13 14  1  0  0  0  0
 13 17  1  0  0  0  0
 13 25  1  0  0  0  0
 14 16  1  0  0  0  0
 14 15  1  0  0  0  0
 14 26  1  0  0  0  0
 15 16  1  0  0  0  0
 15 27  1  0  0  0  0
 15 28  1  0  0  0  0
 16 29  1  0  0  0  0
 16 30  1  0  0  0  0
 17 19  1  0  0  0  0
 17 18  1  0  0  0  0
 17 31  1  0  0  0  0
 18 19  1  0  0  0  0
 18 32  1  0  0  0  0
 18 33  1  0  0  0  0
 19 34  1  0  0  0  0
 19 35  1  0  0  0  0
M  CHG  1   9  -1
M  END
> <s_m_source_file>
AV-unprocessed.smi

> <i_m_source_file_index>
362

> <i_lp_mmshare_version>
43012

> <i_f3d_flags>
0

> <s_epik_input>
W0NIMl0xW0NIMl1bQ0hdMVtDSF0oW0NIXTJbQ0gyXVtDSDJdMilbTkhdQyg9TylbQ0gyXW4zW2NIXVtjSF1jKD1PKVtuSF1jMz1P

> <s_epik_cmdline>
J2VwaWtfcHl0aG9uJywgJy1waCcsICc3LjAnLCAnLXRuJywgJzgnLCAnLW1hJywgJzIwMCcsICctbWV0YWxfYmluZGluZycsICctaW1hZScsICc8aW5maWxlLm1hZT4nLCAnLW9tYWUnLCAnPG91dGZpbGUubWFlPic=

> <r_lp_tautomer_probability>
0.999537

> <r_epik_Ionization_Penalty>
3.10326

> <r_epik_Ionization_Penalty_Charging>
2.95532e-08

> <r_epik_Ionization_Penalty_Neutral>
3.10326

> <r_epik_State_Penalty>
3.10233

> <r_epik_Charging_Adjusted_Penalty>
3.10233

> <i_epik_Tot_Q>
-1

> <i_epik_Tot_abs_Q>
1

> <r_epik_Metal_State_Penalty>
0.461987

> <b_epik_Metal_Only>
1

> <s_lp_Force_Field>
OPLS_2005

> <r_lp_Energy>
32.875

> <b_lp_Chiralities_Consistent>
1

> <s_lp_Variant>
AV-unprocessed.smi:362-2

> <Gold.Version>
5.8.1

> <Gold.Id.Protein>
6NUR|6NUR_protein|mol2

> <Gold.PLP.Fitness>
46.6820

> <Gold.PLP.PLP>
-44.3158

> <Gold.PLP.part.hbond>
0.0000

> <Gold.PLP.part.metal>
0.0000

> <Gold.PLP.part.buried>
-2.5720

> <Gold.PLP.part.nonpolar>
-41.9989

> <Gold.PLP.part.repulsive>
0.7523

> <Gold.PLP.ligand.clash>
0.0000

> <Gold.PLP.ligand.torsion>
1.4058

> <Gold.PLP.Chemscore.Hbond>
0.0000

> <Gold.PLP.Chemscore.CHOScore>
1.0000

> <Gold.PLP.Chemscore.Metal>
0.0000

> <Gold.Chemscore.Hbonds>
donor molecule, donor type, donor heavy atom, donor atom, acceptor molecule, acceptor atom, score
      L1  C     5    22       P1  8028  0.94

> <Gold.PLP.Chemscore.Internal.Correction>
2.1779

> <Gold.Rescore>
     Score         DG    S(hbond)    S(metal)    S(lipo)     H(rot)  DE(clash)    DE(int)     intcor
     10.57     -12.21       0.00        0.00     103.35       2.09       0.04       1.60       ----

> <Gold.Chemscore.Fitness>
10.5732

> <Gold.Chemscore.DG>
-12.2143

> <Gold.Chemscore.ZeroCoef>
-5.4800

> <Gold.Chemscore.Hbond>
0.0000

> <Gold.Chemscore.Metal>
0.0000

> <Gold.Chemscore.Lipo>
103.3523

> <Gold.Chemscore.Internal_Hbond>
0.0000

> <Gold.Chemscore.DEClash>
0.0430

> <Gold.Chemscore.DEInternal>
1.5981

> <Gold.Chemscore.Rot>
2.0929

> <Gold.Chemscore.Internal.Correction>
   9.000000E+99

> <Gold.Chemscore.Hbond.Weighted>
-0.0000

> <Gold.Chemscore.Metal.Weighted>
-0.0000

> <Gold.Chemscore.Lipo.Weighted>
-12.0922

> <Gold.Chemscore.Internal_Hbond.Weighted>
0.0000

> <Gold.Chemscore.DEClash.Weighted>
0.0430

> <Gold.Chemscore.DEInternal.Weighted>
1.5981

> <Gold.Chemscore.Rot.Weighted>
5.3579

> <Gold.Chemscore.Internal.Correction.Weighted>
   9.000000E+99

> <Gold.Protein.RotatedTorsions>
[ 6907 6896 6895 6894 ] final -116.06 input  -60.11 | X-H torsion
[ 7974 7965 7964 7962 ] final -115.84 input  175.53 | X-H torsion
[ 8008 7997 7996 7995 ] final   59.36 input   59.86 | X-H torsion
[ 10167 10162 10161 10158 ] final   89.34 input  -65.29 | X-H torsion
[ 10718 10713 10712 10709 ] final   77.82 input   66.30 | X-H torsion
[ 10763 10752 10751 10750 ] final  132.60 input  -60.55 | X-H torsion
[ 11005 11000 10999 10996 ] final  -47.95 input  -57.11 | X-H torsion

> <Gold.Protein.ActiveResidues>
 VAL166  LYS551  ARG553  GLY616  TRP617  ASP618  TYR619  PRO620  LYS621  CYS622 
 ASP623  PHE694  ASN695  SER759  ASP760  ASP761  ALA762  ILE779  LEU786  VAL792 
 PHE793  MET794  SER795  GLU796  ALA797  LYS798  CYS799  TRP800  GLU811  SER814 

> <Gold.Protein.RotatedAtoms>
  150.8027  133.8569  159.3220 H   0  0  0  0  0  0  0  0  0  0  0  0  # atno 6907 bound_to 6896
  151.6377  135.1014  160.0144 H   0  0  0  0  0  0  0  0  0  0  0  0  # atno 6908 bound_to 6896
  152.4115  133.6931  159.6437 H   0  0  0  0  0  0  0  0  0  0  0  0  # atno 6909 bound_to 6896
  145.1037  140.8568  143.3911 H   0  0  0  0  0  0  0  0  0  0  0  0  # atno 7974 bound_to 7965
  155.5650  140.3489  155.4501 H   0  0  0  0  0  0  0  0  0  0  0  0  # atno 8008 bound_to 7997
  156.0486  140.1312  157.0101 H   0  0  0  0  0  0  0  0  0  0  0  0  # atno 8009 bound_to 7997
  154.4424  140.1009  156.6328 H   0  0  0  0  0  0  0  0  0  0  0  0  # atno 8010 bound_to 7997
  139.8582  144.6558  150.9089 H   0  0  0  0  0  0  0  0  0  0  0  0  # atno 10167 bound_to 10162
  157.6724  130.9839  150.1697 H   0  0  0  0  0  0  0  0  0  0  0  0  # atno 10718 bound_to 10713
  153.7934  135.3152  155.3381 H   0  0  0  0  0  0  0  0  0  0  0  0  # atno 10763 bound_to 10752
  154.8117  135.4663  154.0537 H   0  0  0  0  0  0  0  0  0  0  0  0  # atno 10764 bound_to 10752
  153.1862  135.6901  153.8499 H   0  0  0  0  0  0  0  0  0  0  0  0  # atno 10765 bound_to 10752
  141.0671  133.6690  156.3371 H   0  0  0  0  0  0  0  0  0  0  0  0  # atno 11005 bound_to 11000
  145.0926  139.2879  143.5727 LP  0  0  0  0  0  0  0  0  0  0  0  0  # atno 17320 bound_to 7965
  146.3529  140.0468  142.8639 LP  0  0  0  0  0  0  0  0  0  0  0  0  # atno 17321 bound_to 7965
  140.7778  143.3767  151.1550 LP  0  0  0  0  0  0  0  0  0  0  0  0  # atno 17342 bound_to 10162
  139.7399  143.8940  152.3046 LP  0  0  0  0  0  0  0  0  0  0  0  0  # atno 17343 bound_to 10162
  156.2454  130.3695  149.8291 LP  0  0  0  0  0  0  0  0  0  0  0  0  # atno 17370 bound_to 10713
  156.6079  130.8574  151.3447 LP  0  0  0  0  0  0  0  0  0  0  0  0  # atno 17371 bound_to 10713
  140.5750  134.5803  157.5466 LP  0  0  0  0  0  0  0  0  0  0  0  0  # atno 17394 bound_to 11000
  139.9487  134.7655  156.0499 LP  0  0  0  0  0  0  0  0  0  0  0  0  # atno 17395 bound_to 11000

$$$$
