AV-unprocessed.smi:2215|AV-procd|sdf|8963|dock7
  -GOLD-   2272012183D 1   1.00000     0.00000
 Structure written by MMmdl.
 40 41  0  0  0  0  0  0  0  0  1 V2000
  151.0468  142.4290  156.8558 C   0  0  0  0  0  0  0  0  0  0  0  0
  150.3490  141.4277  155.9596 C   0  0  0  0  0  0  0  0  0  0  0  0
  149.0912  141.7111  155.3950 C   0  0  0  0  0  0  0  0  0  0  0  0
  148.4889  140.7488  154.5622 C   0  0  0  0  0  0  0  0  0  0  0  0
  149.1570  139.5291  154.3114 C   0  0  0  0  0  0  0  0  0  0  0  0
  148.4693  138.6334  153.4499 N   0  0  0  0  0  0  0  0  0  0  0  0
  147.1489  138.3866  153.3889 C   0  0  0  0  0  0  0  0  0  0  0  0
  146.2856  138.9505  154.0620 O   0  0  0  0  0  0  0  0  0  0  0  0
  146.8756  137.4338  152.4861 N   0  0  0  0  0  0  0  0  0  0  0  0
  145.5408  136.9301  152.1768 C   0  0  0  0  0  0  0  0  0  0  0  0
  145.5553  135.4671  151.6715 C   0  0  1  0  0  0  0  0  0  0  0  0
  145.4630  134.4651  152.8467 C   0  0  0  0  0  0  0  0  0  0  0  0
  145.4334  133.0059  152.3669 C   0  0  0  0  0  0  0  0  0  0  0  0
  144.2821  132.7718  151.3803 C   0  0  0  0  0  0  0  0  0  0  0  0
  144.3834  133.7361  150.1912 C   0  0  0  0  0  0  0  0  0  0  0  0
  144.4145  135.2038  150.6568 C   0  0  2  0  0  0  0  0  0  0  0  0
  144.5798  136.0130  149.5094 O   0  0  0  0  0  0  0  0  0  0  0  0
  150.3686  139.2648  154.8612 N   0  0  0  0  0  0  0  0  0  0  0  0
  150.9450  140.1874  155.6600 C   0  0  0  0  0  0  0  0  0  0  0  0
  150.3291  143.1120  157.3115 H   0  0  0  0  0  0  0  0  0  0  0  0
  151.7611  143.0156  156.2780 H   0  0  0  0  0  0  0  0  0  0  0  0
  151.5855  141.9203  157.6558 H   0  0  0  0  0  0  0  0  0  0  0  0
  148.5944  142.6498  155.5926 H   0  0  0  0  0  0  0  0  0  0  0  0
  147.5247  140.9514  154.1195 H   0  0  0  0  0  0  0  0  0  0  0  0
  149.0537  138.1027  152.8211 H   0  0  0  0  0  0  0  0  0  0  0  0
  147.6451  137.0251  151.9764 H   0  0  0  0  0  0  0  0  0  0  0  0
  144.9369  137.0038  153.0817 H   0  0  0  0  0  0  0  0  0  0  0  0
  145.0718  137.5903  151.4457 H   0  0  0  0  0  0  0  0  0  0  0  0
  146.5033  135.2916  151.1598 H   0  0  0  0  0  0  0  0  0  0  0  0
  146.3069  134.5940  153.5249 H   0  0  0  0  0  0  0  0  0  0  0  0
  144.5653  134.6694  153.4316 H   0  0  0  0  0  0  0  0  0  0  0  0
  146.3825  132.7575  151.8897 H   0  0  0  0  0  0  0  0  0  0  0  0
  145.3320  132.3363  153.2214 H   0  0  0  0  0  0  0  0  0  0  0  0
  144.2974  131.7406  151.0263 H   0  0  0  0  0  0  0  0  0  0  0  0
  143.3269  132.9121  151.8881 H   0  0  0  0  0  0  0  0  0  0  0  0
  145.2860  133.5091  149.6216 H   0  0  0  0  0  0  0  0  0  0  0  0
  143.5429  133.5749  149.5151 H   0  0  0  0  0  0  0  0  0  0  0  0
  143.4563  135.4551  151.1135 H   0  0  0  0  0  0  0  0  0  0  0  0
  145.1490  135.5639  148.9032 H   0  0  0  0  0  0  0  0  0  0  0  0
  151.9108  139.9276  156.0681 H   0  0  0  0  0  0  0  0  0  0  0  0
  1  2  1  0  0  0  0
  1 20  1  0  0  0  0
  1 21  1  0  0  0  0
  1 22  1  0  0  0  0
  2 19  1  0  0  0  0
  2  3  2  0  0  0  0
  3  4  1  0  0  0  0
  3 23  1  0  0  0  0
  4  5  2  0  0  0  0
  4 24  1  0  0  0  0
  5  6  1  0  0  0  0
  5 18  1  0  0  0  0
  6  7  1  0  0  0  0
  6 25  1  0  0  0  0
  7  8  2  0  0  0  0
  7  9  1  0  0  0  0
  9 10  1  0  0  0  0
  9 26  1  0  0  0  0
 10 11  1  0  0  0  0
 10 27  1  0  0  0  0
 10 28  1  0  0  0  0
 11 16  1  0  0  0  0
 11 12  1  0  0  0  0
 11 29  1  0  0  0  0
 12 13  1  0  0  0  0
 12 30  1  0  0  0  0
 12 31  1  0  0  0  0
 13 14  1  0  0  0  0
 13 32  1  0  0  0  0
 13 33  1  0  0  0  0
 14 15  1  0  0  0  0
 14 34  1  0  0  0  0
 14 35  1  0  0  0  0
 15 16  1  0  0  0  0
 15 36  1  0  0  0  0
 15 37  1  0  0  0  0
 16 17  1  0  0  0  0
 16 38  1  0  0  0  0
 17 39  1  0  0  0  0
 18 19  2  0  0  0  0
 19 40  1  0  0  0  0
M  END
> <s_m_source_file>
AV-unprocessed.smi

> <i_m_source_file_index>
2215

> <i_lp_mmshare_version>
43012

> <i_f3d_flags>
0

> <s_epik_input>
W0NIM11jMVtjSF1bY0hdYyhuW2NIXTEpW05IXUMoPU8pW05IXVtDSDJdW0NAQEhdMltDSDJdW0NIMl1bQ0gyXVtDSDJdW0NASF0yW09IXQ==

> <s_epik_cmdline>
J2VwaWtfcHl0aG9uJywgJy1waCcsICc3LjAnLCAnLXRuJywgJzgnLCAnLW1hJywgJzIwMCcsICctbWV0YWxfYmluZGluZycsICctaW1hZScsICc8aW5maWxlLm1hZT4nLCAnLW9tYWUnLCAnPG91dGZpbGUubWFlPic=

> <r_lp_tautomer_probability>
1

> <r_epik_Ionization_Penalty>
6.08491e-05

> <r_epik_Ionization_Penalty_Charging>
0

> <r_epik_Ionization_Penalty_Neutral>
6.08491e-05

> <r_epik_State_Penalty>
-0

> <r_epik_Charging_Adjusted_Penalty>
0

> <i_epik_Tot_Q>
0

> <i_epik_Tot_abs_Q>
0

> <r_epik_Metal_State_Penalty>
-0

> <b_epik_Metal_Only>
0

> <s_lp_Force_Field>
OPLS_2005

> <r_lp_Energy>
14.1492

> <b_lp_Chiralities_Consistent>
1

> <s_lp_Variant>
AV-unprocessed.smi:2215-4

> <Gold.Version>
5.8.1

> <Gold.Id.Protein>
6NUR|6NUR_protein|mol2

> <Gold.PLP.Fitness>
41.7346

> <Gold.PLP.PLP>
-35.5351

> <Gold.PLP.part.hbond>
-4.5640

> <Gold.PLP.part.metal>
0.0000

> <Gold.PLP.part.buried>
-2.3801

> <Gold.PLP.part.nonpolar>
-29.4258

> <Gold.PLP.part.repulsive>
0.3784

> <Gold.PLP.ligand.clash>
0.0000

> <Gold.PLP.ligand.torsion>
0.8461

> <Gold.PLP.Chemscore.Hbond>
2.6293

> <Gold.PLP.Chemscore.CHOScore>
0.0000

> <Gold.PLP.Chemscore.Metal>
0.0000

> <Gold.Chemscore.Hbonds>
donor molecule, donor type, donor heavy atom, donor atom, acceptor molecule, acceptor atom, score
      L1  H     6    25       P1  7948  0.67
      L1  H     9    26       P1  7948  0.96
      L1  H    17    39       P1  7921  1.00

> <Gold.PLP.Chemscore.Internal.Correction>
0.0038

> <Gold.Rescore>
     Score         DG    S(hbond)    S(metal)    S(lipo)     H(rot)  DE(clash)    DE(int)     intcor
     17.15     -19.39       2.83        0.00      76.16       1.73       0.15       2.09       ----

> <Gold.Chemscore.Fitness>
17.1500

> <Gold.Chemscore.DG>
-19.3949

> <Gold.Chemscore.ZeroCoef>
-5.4800

> <Gold.Chemscore.Hbond>
2.8272

> <Gold.Chemscore.Metal>
0.0000

> <Gold.Chemscore.Lipo>
76.1593

> <Gold.Chemscore.Internal_Hbond>
0.0000

> <Gold.Chemscore.DEClash>
0.1500

> <Gold.Chemscore.DEInternal>
2.0949

> <Gold.Chemscore.Rot>
1.7339

> <Gold.Chemscore.Internal.Correction>
   9.000000E+99

> <Gold.Chemscore.Hbonds>
donor molecule, donor type, donor heavy atom, donor atom, acceptor molecule, acceptor atom, score
      L1  H     6    25       P1  7948  0.66
      L1  H     9    26       P1  7948  0.90
      L1  H    17    39       P1  7921  1.00

> <Gold.Chemscore.Hbond.Weighted>
-9.4429

> <Gold.Chemscore.Metal.Weighted>
-0.0000

> <Gold.Chemscore.Lipo.Weighted>
-8.9106

> <Gold.Chemscore.Internal_Hbond.Weighted>
0.0000

> <Gold.Chemscore.DEClash.Weighted>
0.1500

> <Gold.Chemscore.DEInternal.Weighted>
2.0949

> <Gold.Chemscore.Rot.Weighted>
4.4387

> <Gold.Chemscore.Internal.Correction.Weighted>
   9.000000E+99

> <Gold.Protein.RotatedTorsions>
[ 6907 6896 6895 6894 ] final   31.62 input  -60.11 | X-H torsion
[ 7974 7965 7964 7962 ] final  -51.66 input  175.53 | X-H torsion
[ 8008 7997 7996 7995 ] final -151.80 input   59.86 | X-H torsion
[ 10167 10162 10161 10158 ] final  107.20 input  -65.29 | X-H torsion
[ 10718 10713 10712 10709 ] final  134.62 input   66.30 | X-H torsion
[ 10763 10752 10751 10750 ] final -146.94 input  -60.55 | X-H torsion
[ 11005 11000 10999 10996 ] final    7.16 input  -57.11 | X-H torsion

> <Gold.Protein.ActiveResidues>
 VAL166  LYS551  ARG553  GLY616  TRP617  ASP618  TYR619  PRO620  LYS621  CYS622 
 ASP623  PHE694  ASN695  SER759  ASP760  ASP761  ALA762  ILE779  LEU786  VAL792 
 PHE793  MET794  SER795  GLU796  ALA797  LYS798  CYS799  TRP800  GLU811  SER814 

> <Gold.Protein.RotatedAtoms>
  152.0629  134.9583  160.0574 H   0  0  0  0  0  0  0  0  0  0  0  0  # atno 6907 bound_to 6896
  152.0939  133.4210  159.4564 H   0  0  0  0  0  0  0  0  0  0  0  0  # atno 6908 bound_to 6896
  150.6837  134.2759  159.4650 H   0  0  0  0  0  0  0  0  0  0  0  0  # atno 6909 bound_to 6896
  145.9165  140.7871  142.9669 H   0  0  0  0  0  0  0  0  0  0  0  0  # atno 7974 bound_to 7965
  155.6450  140.0706  157.2606 H   0  0  0  0  0  0  0  0  0  0  0  0  # atno 8008 bound_to 7997
  154.4175  140.1743  156.1664 H   0  0  0  0  0  0  0  0  0  0  0  0  # atno 8009 bound_to 7997
  155.9824  140.3352  155.6678 H   0  0  0  0  0  0  0  0  0  0  0  0  # atno 8010 bound_to 7997
  139.6947  144.7103  151.1288 H   0  0  0  0  0  0  0  0  0  0  0  0  # atno 10167 bound_to 10162
  157.4654  131.1076  150.9869 H   0  0  0  0  0  0  0  0  0  0  0  0  # atno 10718 bound_to 10713
  154.8311  135.3373  154.6741 H   0  0  0  0  0  0  0  0  0  0  0  0  # atno 10763 bound_to 10752
  153.7361  135.6949  153.4982 H   0  0  0  0  0  0  0  0  0  0  0  0  # atno 10764 bound_to 10752
  153.2277  135.4427  155.0512 H   0  0  0  0  0  0  0  0  0  0  0  0  # atno 10765 bound_to 10752
  140.5513  134.0280  155.7938 H   0  0  0  0  0  0  0  0  0  0  0  0  # atno 11005 bound_to 11000
  144.6748  140.1908  143.7397 LP  0  0  0  0  0  0  0  0  0  0  0  0  # atno 17320 bound_to 7965
  145.8605  139.2220  143.1719 LP  0  0  0  0  0  0  0  0  0  0  0  0  # atno 17321 bound_to 7965
  140.7693  143.5509  150.9206 LP  0  0  0  0  0  0  0  0  0  0  0  0  # atno 17342 bound_to 10162
  139.9188  143.6631  152.3101 LP  0  0  0  0  0  0  0  0  0  0  0  0  # atno 17343 bound_to 10162
  157.0651  130.5841  149.5392 LP  0  0  0  0  0  0  0  0  0  0  0  0  # atno 17370 bound_to 10713
  156.0048  130.5133  150.7791 LP  0  0  0  0  0  0  0  0  0  0  0  0  # atno 17371 bound_to 10713
  141.1170  133.9524  157.2804 LP  0  0  0  0  0  0  0  0  0  0  0  0  # atno 17394 bound_to 11000
  139.9454  135.0185  156.8835 LP  0  0  0  0  0  0  0  0  0  0  0  0  # atno 17395 bound_to 11000

$$$$
