AV-unprocessed.smi:2226|AV-procd|sdf|9017|dock9
  -GOLD-   2272012223D 1   1.00000     0.00000
 Structure written by MMmdl.
 39 41  0  0  0  0  0  0  0  0  3 V2000
  147.6047  142.4666  153.8073 C   0  0  0  0  0  0  0  0  0  0  0  0
  148.4617  142.1910  154.9850 N   0  3  2  0  0  0  0  0  0  0  0  0
  149.6755  141.3900  154.6988 C   0  0  2  0  0  0  0  0  0  0  0  0
  149.3174  139.9210  154.3589 C   0  0  0  0  0  0  0  0  0  0  0  0
  148.3940  139.2420  155.3869 C   0  0  0  0  0  0  0  0  0  0  0  0
  147.2831  140.1769  155.8974 C   0  0  0  0  0  0  0  0  0  0  0  0
  147.7476  141.6317  156.1572 C   0  0  1  0  0  0  0  0  0  0  0  0
  148.6179  141.8311  157.4190 C   0  0  0  0  0  0  0  0  0  0  0  0
  150.1085  141.4120  157.2845 C   0  0  1  0  0  0  0  0  0  0  0  0
  150.3790  140.0804  157.8206 N   0  0  0  0  0  0  0  0  0  0  0  0
  151.5649  139.4547  157.8496 C   0  0  0  0  0  0  0  0  0  0  0  0
  152.5627  140.0038  157.3772 O   0  0  0  0  0  0  0  0  0  0  0  0
  151.5190  138.2363  158.4323 N   0  5  0  0  0  0  0  0  0  0  0  0
  152.2475  137.9965  159.5345 C   0  0  0  0  0  0  0  0  0  0  0  0
  152.8617  138.9076  160.2913 N   0  0  0  0  0  0  0  0  0  0  0  0
  153.4861  138.1985  161.3059 C   0  0  0  0  0  0  0  0  0  0  0  0
  153.2250  136.8698  161.1114 C   0  0  0  0  0  0  0  0  0  0  0  0
  152.4472  136.7293  159.9956 O   0  0  0  0  0  0  0  0  0  0  0  0
  150.6856  141.5754  155.8554 C   0  0  0  0  0  0  0  0  0  0  0  0
  147.1762  141.5580  153.3852 H   0  0  0  0  0  0  0  0  0  0  0  0
  148.1821  142.9621  153.0266 H   0  0  0  0  0  0  0  0  0  0  0  0
  146.7843  143.1305  154.0812 H   0  0  0  0  0  0  0  0  0  0  0  0
  150.1498  141.8131  153.8121 H   0  0  0  0  0  0  0  0  0  0  0  0
  148.8221  139.8980  153.3880 H   0  0  0  0  0  0  0  0  0  0  0  0
  150.2259  139.3313  154.2332 H   0  0  0  0  0  0  0  0  0  0  0  0
  147.9443  138.3548  154.9401 H   0  0  0  0  0  0  0  0  0  0  0  0
  148.9727  138.8567  156.2193 H   0  0  0  0  0  0  0  0  0  0  0  0
  146.4824  140.1924  155.1577 H   0  0  0  0  0  0  0  0  0  0  0  0
  146.8349  139.7587  156.7992 H   0  0  0  0  0  0  0  0  0  0  0  0
  146.8476  142.2285  156.3123 H   0  0  0  0  0  0  0  0  0  0  0  0
  148.6079  142.8981  157.6457 H   0  0  0  0  0  0  0  0  0  0  0  0
  148.1464  141.3586  158.2814 H   0  0  0  0  0  0  0  0  0  0  0  0
  150.6867  142.0868  157.9189 H   0  0  0  0  0  0  0  0  0  0  0  0
  149.5939  139.5831  158.2151 H   0  0  0  0  0  0  0  0  0  0  0  0
  154.0613  138.6897  162.0766 H   0  0  0  0  0  0  0  0  0  0  0  0
  153.4957  135.9646  161.6337 H   0  0  0  0  0  0  0  0  0  0  0  0
  151.5564  140.9340  155.7111 H   0  0  0  0  0  0  0  0  0  0  0  0
  151.0704  142.5936  155.7804 H   0  0  0  0  0  0  0  0  0  0  0  0
  148.7959  143.0981  155.2773 H   0  0  0  0  0  0  0  0  0  0  0  0
  1  2  1  0  0  0  0
  1 20  1  0  0  0  0
  1 21  1  0  0  0  0
  1 22  1  0  0  0  0
  2  7  1  0  0  0  0
  2  3  1  0  0  0  0
  2 39  1  0  0  0  0
  3 19  1  0  0  0  0
  3  4  1  0  0  0  0
  3 23  1  0  0  0  0
  4  5  1  0  0  0  0
  4 24  1  0  0  0  0
  4 25  1  0  0  0  0
  5  6  1  0  0  0  0
  5 26  1  0  0  0  0
  5 27  1  0  0  0  0
  6  7  1  0  0  0  0
  6 28  1  0  0  0  0
  6 29  1  0  0  0  0
  7  8  1  0  0  0  0
  7 30  1  0  0  0  0
  8  9  1  0  0  0  0
  8 31  1  0  0  0  0
  8 32  1  0  0  0  0
  9 10  1  0  0  0  0
  9 19  1  0  0  0  0
  9 33  1  0  0  0  0
 10 34  1  0  0  0  0
 10 11  1  0  0  0  0
 11 13  1  0  0  0  0
 11 12  2  0  0  0  0
 13 14  1  0  0  0  0
 14 18  1  0  0  0  0
 14 15  2  0  0  0  0
 15 16  1  0  0  0  0
 16 35  1  0  0  0  0
 16 17  2  0  0  0  0
 17 36  1  0  0  0  0
 17 18  1  0  0  0  0
 19 37  1  0  0  0  0
 19 38  1  0  0  0  0
M  CHG  1   2   1
M  CHG  1  13  -1
M  END
> <s_m_source_file>
AV-unprocessed.smi

> <i_m_source_file_index>
2226

> <i_lp_mmshare_version>
43012

> <i_f3d_flags>
0

> <s_epik_input>
W0NIMl0xW0NIMl1bQ0gyXVtDQEhdKE4oW0NIM10pW0NIXTEyKVtDSDJdW0NASF0oW0NIMl0yKVtOSF1DKD1PKVtOSF1jM25bY0hdW2NIXW8z

> <s_epik_cmdline>
J2VwaWtfcHl0aG9uJywgJy1waCcsICc3LjAnLCAnLXRuJywgJzgnLCAnLW1hJywgJzIwMCcsICctbWV0YWxfYmluZGluZycsICctaW1hZScsICc8aW5maWxlLm1hZT4nLCAnLW9tYWUnLCAnPG91dGZpbGUubWFlPic=

> <r_lp_tautomer_probability>
0.107061

> <r_epik_Ionization_Penalty>
10.5612

> <r_epik_Ionization_Penalty_Charging>
7.48913

> <r_epik_Ionization_Penalty_Neutral>
3.07202

> <r_epik_State_Penalty>
5.6431

> <r_epik_Charging_Adjusted_Penalty>
13.1322

> <i_epik_Tot_Q>
0

> <i_epik_Tot_abs_Q>
2

> <r_epik_Metal_State_Penalty>
1.58163

> <b_epik_Metal_Only>
1

> <s_lp_Force_Field>
OPLS_2005

> <r_lp_Energy>
26.2411

> <b_lp_Chiralities_Consistent>
1

> <s_lp_Variant>
AV-unprocessed.smi:2226-17

> <Gold.Version>
5.8.1

> <Gold.Id.Protein>
6NUR|6NUR_protein|mol2

> <Gold.PLP.Fitness>
37.2559

> <Gold.PLP.PLP>
-26.5188

> <Gold.PLP.part.hbond>
-3.0000

> <Gold.PLP.part.metal>
0.0000

> <Gold.PLP.part.buried>
-3.7914

> <Gold.PLP.part.nonpolar>
-18.6958

> <Gold.PLP.part.repulsive>
0.2323

> <Gold.PLP.ligand.clash>
0.0000

> <Gold.PLP.ligand.torsion>
0.6581

> <Gold.PLP.Chemscore.Hbond>
4.0000

> <Gold.PLP.Chemscore.CHOScore>
0.0000

> <Gold.PLP.Chemscore.Metal>
0.0000

> <Gold.Chemscore.Hbonds>
donor molecule, donor type, donor heavy atom, donor atom, acceptor molecule, acceptor atom, score
      L1  H     2    39       P1  8028  2.00
      P1  H  6896  6909       L1    18  1.00
      P1  H  7997  8010       L1    12  1.00

> <Gold.PLP.Chemscore.Internal.Correction>
0.0533

> <Gold.Rescore>
     Score         DG    S(hbond)    S(metal)    S(lipo)     H(rot)  DE(clash)    DE(int)     intcor
     17.52     -19.38       2.95        0.00      56.43       1.00       0.08       1.78       ----

> <Gold.Chemscore.Fitness>
17.5157

> <Gold.Chemscore.DG>
-19.3814

> <Gold.Chemscore.ZeroCoef>
-5.4800

> <Gold.Chemscore.Hbond>
2.9517

> <Gold.Chemscore.Metal>
0.0000

> <Gold.Chemscore.Lipo>
56.4328

> <Gold.Chemscore.Internal_Hbond>
0.0000

> <Gold.Chemscore.DEClash>
0.0819

> <Gold.Chemscore.DEInternal>
1.7838

> <Gold.Chemscore.Rot>
1.0000

> <Gold.Chemscore.Internal.Correction>
   9.000000E+99

> <Gold.Chemscore.Hbonds>
donor molecule, donor type, donor heavy atom, donor atom, acceptor molecule, acceptor atom, score
      L1  H     2    39       P1  8028  1.00
      P1  H  6896  6909       L1    18  0.60
      P1  H  7997  8010       L1    12  0.98

> <Gold.Chemscore.Hbond.Weighted>
-9.8587

> <Gold.Chemscore.Metal.Weighted>
-0.0000

> <Gold.Chemscore.Lipo.Weighted>
-6.6026

> <Gold.Chemscore.Internal_Hbond.Weighted>
0.0000

> <Gold.Chemscore.DEClash.Weighted>
0.0819

> <Gold.Chemscore.DEInternal.Weighted>
1.7838

> <Gold.Chemscore.Rot.Weighted>
2.5600

> <Gold.Chemscore.Internal.Correction.Weighted>
   9.000000E+99

> <Gold.Protein.RotatedTorsions>
[ 6907 6896 6895 6894 ] final  131.74 input  -60.11 | X-H torsion
[ 7974 7965 7964 7962 ] final -164.57 input  175.53 | X-H torsion
[ 8008 7997 7996 7995 ] final   53.88 input   59.86 | X-H torsion
[ 10167 10162 10161 10158 ] final  -13.18 input  -65.29 | X-H torsion
[ 10718 10713 10712 10709 ] final  -96.16 input   66.30 | X-H torsion
[ 10763 10752 10751 10750 ] final  162.41 input  -60.55 | X-H torsion
[ 11005 11000 10999 10996 ] final   -0.98 input  -57.11 | X-H torsion

> <Gold.Protein.ActiveResidues>
 VAL166  LYS551  ARG553  GLY616  TRP617  ASP618  TYR619  PRO620  LYS621  CYS622 
 ASP623  PHE694  ASN695  SER759  ASP760  ASP761  ALA762  ILE779  LEU786  VAL792 
 PHE793  MET794  SER795  GLU796  ALA797  LYS798  CYS799  TRP800  GLU811  SER814 

> <Gold.Protein.RotatedAtoms>
  152.3395  133.6050  159.5866 H   0  0  0  0  0  0  0  0  0  0  0  0  # atno 6907 bound_to 6896
  150.7470  133.9744  159.3565 H   0  0  0  0  0  0  0  0  0  0  0  0  # atno 6908 bound_to 6896
  151.7610  135.0811  160.0396 H   0  0  0  0  0  0  0  0  0  0  0  0  # atno 6909 bound_to 6896
  144.7293  140.2942  143.6215 H   0  0  0  0  0  0  0  0  0  0  0  0  # atno 7974 bound_to 7965
  155.4755  140.3466  155.4332 H   0  0  0  0  0  0  0  0  0  0  0  0  # atno 8008 bound_to 7997
  156.1073  140.1451  156.9416 H   0  0  0  0  0  0  0  0  0  0  0  0  # atno 8009 bound_to 7997
  154.4733  140.0893  156.7177 H   0  0  0  0  0  0  0  0  0  0  0  0  # atno 8010 bound_to 7997
  140.7177  143.5453  150.9362 H   0  0  0  0  0  0  0  0  0  0  0  0  # atno 10167 bound_to 10162
  156.0057  130.5139  150.6184 H   0  0  0  0  0  0  0  0  0  0  0  0  # atno 10718 bound_to 10713
  154.2779  135.2764  155.2710 H   0  0  0  0  0  0  0  0  0  0  0  0  # atno 10763 bound_to 10752
  154.5244  135.5747  153.6710 H   0  0  0  0  0  0  0  0  0  0  0  0  # atno 10764 bound_to 10752
  152.9934  135.6212  154.2937 H   0  0  0  0  0  0  0  0  0  0  0  0  # atno 10765 bound_to 10752
  140.6422  133.9479  155.8333 H   0  0  0  0  0  0  0  0  0  0  0  0  # atno 11005 bound_to 11000
  145.7825  139.1897  143.2149 LP  0  0  0  0  0  0  0  0  0  0  0  0  # atno 17320 bound_to 7965
  146.0822  140.7751  142.9636 LP  0  0  0  0  0  0  0  0  0  0  0  0  # atno 17321 bound_to 7965
  139.9177  143.6644  152.3103 LP  0  0  0  0  0  0  0  0  0  0  0  0  # atno 17342 bound_to 10162
  139.7050  144.7629  151.1209 LP  0  0  0  0  0  0  0  0  0  0  0  0  # atno 17343 bound_to 10162
  157.4004  131.0809  151.1314 LP  0  0  0  0  0  0  0  0  0  0  0  0  # atno 17370 bound_to 10713
  157.1977  130.6380  149.5727 LP  0  0  0  0  0  0  0  0  0  0  0  0  # atno 17371 bound_to 10713
  141.0598  134.0363  157.3674 LP  0  0  0  0  0  0  0  0  0  0  0  0  # atno 17394 bound_to 11000
  139.9076  135.0183  156.7553 LP  0  0  0  0  0  0  0  0  0  0  0  0  # atno 17395 bound_to 11000

$$$$
