AV-unprocessed.smi:3068|AV-procd|sdf|11708|dock8
  -GOLD-   2272017113D 1   1.00000     0.00000
 Structure written by MMmdl.
 39 41  0  0  0  0  0  0  0  0  1 V2000
  147.8114  146.7085  161.0238 N   0  0  0  0  0  0  0  0  0  0  0  0
  147.2384  145.7046  160.9689 C   0  0  0  0  0  0  0  0  0  0  0  0
  146.5165  144.4403  160.9001 C   0  0  0  0  0  0  0  0  0  0  0  0
  145.4613  144.2979  161.7354 N   0  0  0  0  0  0  0  0  0  0  0  0
  144.7830  143.1319  161.6816 C   0  0  0  0  0  0  0  0  0  0  0  0
  145.1545  142.1032  160.7947 C   0  0  0  0  0  0  0  0  0  0  0  0
  146.2061  142.2362  159.9594 N   0  0  0  0  0  0  0  0  0  0  0  0
  146.8960  143.4037  160.0010 C   0  0  0  0  0  0  0  0  0  0  0  0
  147.9972  143.5568  159.1381 N   0  0  0  0  0  0  0  0  0  0  0  0
  149.3014  143.9896  159.6266 C   0  0  0  0  0  0  0  0  0  0  0  0
  150.3656  144.0322  158.5088 C   0  0  2  0  0  0  0  0  0  0  0  0
  150.7609  142.6302  158.0078 C   0  0  0  0  0  0  0  0  0  0  0  0
  151.5709  141.8931  158.9702 N   0  0  0  0  0  0  0  0  0  0  0  0
  151.9402  140.5779  158.4483 C   0  0  0  0  0  0  0  0  0  0  0  0
  152.7684  139.7595  159.4506 C   0  0  0  0  0  0  0  0  0  0  0  0
  154.0263  140.5379  159.8602 C   0  0  0  0  0  0  0  0  0  0  0  0
  153.6382  141.9375  160.3608 C   0  0  0  0  0  0  0  0  0  0  0  0
  152.7592  142.6730  159.3272 C   0  0  2  0  0  0  0  0  0  0  0  0
  152.3660  144.0676  159.8528 C   0  0  0  0  0  0  0  0  0  0  0  0
  151.5389  144.7433  158.9088 O   0  0  0  0  0  0  0  0  0  0  0  0
  143.9414  143.0189  162.3486 H   0  0  0  0  0  0  0  0  0  0  0  0
  144.6079  141.1726  160.7556 H   0  0  0  0  0  0  0  0  0  0  0  0
  147.9456  143.1704  158.2062 H   0  0  0  0  0  0  0  0  0  0  0  0
  149.1867  144.9696  160.0884 H   0  0  0  0  0  0  0  0  0  0  0  0
  149.6276  143.3273  160.4289 H   0  0  0  0  0  0  0  0  0  0  0  0
  149.9457  144.5729  157.6603 H   0  0  0  0  0  0  0  0  0  0  0  0
  149.8623  142.0619  157.7647 H   0  0  0  0  0  0  0  0  0  0  0  0
  151.3168  142.7368  157.0749 H   0  0  0  0  0  0  0  0  0  0  0  0
  151.0390  140.0191  158.1932 H   0  0  0  0  0  0  0  0  0  0  0  0
  152.5040  140.6925  157.5212 H   0  0  0  0  0  0  0  0  0  0  0  0
  152.1649  139.5414  160.3327 H   0  0  0  0  0  0  0  0  0  0  0  0
  153.0449  138.7989  159.0154 H   0  0  0  0  0  0  0  0  0  0  0  0
  154.5737  139.9963  160.6322 H   0  0  0  0  0  0  0  0  0  0  0  0
  154.6967  140.6281  159.0045 H   0  0  0  0  0  0  0  0  0  0  0  0
  153.1000  141.8476  161.3055 H   0  0  0  0  0  0  0  0  0  0  0  0
  154.5383  142.5162  160.5709 H   0  0  0  0  0  0  0  0  0  0  0  0
  153.3587  142.8197  158.4268 H   0  0  0  0  0  0  0  0  0  0  0  0
  151.8564  143.9934  160.8139 H   0  0  0  0  0  0  0  0  0  0  0  0
  153.2574  144.6720  160.0218 H   0  0  0  0  0  0  0  0  0  0  0  0
  1  2  3  0  0  0  0
  2  3  1  0  0  0  0
  3  8  1  0  0  0  0
  3  4  2  0  0  0  0
  4  5  1  0  0  0  0
  5  6  2  0  0  0  0
  5 21  1  0  0  0  0
  6  7  1  0  0  0  0
  6 22  1  0  0  0  0
  7  8  2  0  0  0  0
  8  9  1  0  0  0  0
  9 10  1  0  0  0  0
  9 23  1  0  0  0  0
 10 11  1  0  0  0  0
 10 24  1  0  0  0  0
 10 25  1  0  0  0  0
 11 20  1  0  0  0  0
 11 12  1  0  0  0  0
 11 26  1  0  0  0  0
 12 13  1  0  0  0  0
 12 27  1  0  0  0  0
 12 28  1  0  0  0  0
 13 18  1  0  0  0  0
 13 14  1  0  0  0  0
 14 15  1  0  0  0  0
 14 29  1  0  0  0  0
 14 30  1  0  0  0  0
 15 16  1  0  0  0  0
 15 31  1  0  0  0  0
 15 32  1  0  0  0  0
 16 17  1  0  0  0  0
 16 33  1  0  0  0  0
 16 34  1  0  0  0  0
 17 18  1  0  0  0  0
 17 35  1  0  0  0  0
 17 36  1  0  0  0  0
 18 19  1  0  0  0  0
 18 37  1  0  0  0  0
 19 20  1  0  0  0  0
 19 38  1  0  0  0  0
 19 39  1  0  0  0  0
M  END
> <s_m_source_file>
AV-unprocessed.smi

> <i_m_source_file_index>
3068

> <i_lp_mmshare_version>
43012

> <i_f3d_flags>
0

> <s_epik_input>
TiNDYzFuW2NIXVtjSF1uYzFbTkhdW0NIMl1bQ0BIXShbQ0gyXTIpT1tDSDJdW0NAQEhdKE4yMylbQ0gyXVtDSDJdW0NIMl1bQ0gyXTM=

> <s_epik_cmdline>
J2VwaWtfcHl0aG9uJywgJy1waCcsICc3LjAnLCAnLXRuJywgJzgnLCAnLW1hJywgJzIwMCcsICctbWV0YWxfYmluZGluZycsICctaW1hZScsICc8aW5maWxlLm1hZT4nLCAnLW9tYWUnLCAnPG91dGZpbGUubWFlPic=

> <r_epik_Ionization_Penalty>
1.22359

> <r_epik_Ionization_Penalty_Charging>
0

> <r_epik_Ionization_Penalty_Neutral>
1.22359

> <r_epik_State_Penalty>
1.29103

> <r_epik_Charging_Adjusted_Penalty>
1.29103

> <i_epik_Tot_Q>
0

> <i_epik_Tot_abs_Q>
0

> <r_epik_Metal_State_Penalty>
1.29103

> <b_epik_Metal_Only>
0

> <s_lp_Force_Field>
OPLS_2005

> <r_lp_Energy>
49.2937

> <b_lp_Chiralities_Consistent>
1

> <s_lp_Variant>
AV-unprocessed.smi:3068-11

> <Gold.Version>
5.8.1

> <Gold.Id.Protein>
6NUR|6NUR_protein|mol2

> <Gold.PLP.Fitness>
40.8957

> <Gold.PLP.PLP>
-39.8438

> <Gold.PLP.part.hbond>
-3.7122

> <Gold.PLP.part.metal>
0.0000

> <Gold.PLP.part.buried>
-6.6450

> <Gold.PLP.part.nonpolar>
-32.6184

> <Gold.PLP.part.repulsive>
1.6965

> <Gold.PLP.ligand.clash>
0.0067

> <Gold.PLP.ligand.torsion>
0.5231

> <Gold.PLP.Chemscore.Hbond>
0.7000

> <Gold.PLP.Chemscore.CHOScore>
0.0000

> <Gold.PLP.Chemscore.Metal>
0.0000

> <Gold.Chemscore.Hbonds>
donor molecule, donor type, donor heavy atom, donor atom, acceptor molecule, acceptor atom, score
      P1  H  6934  6946       L1     7  0.40

> <Gold.PLP.Chemscore.Internal.Correction>
0.0048

> <Gold.Rescore>
     Score         DG    S(hbond)    S(metal)    S(lipo)     H(rot)  DE(clash)    DE(int)     intcor
      9.20     -13.75       0.02        0.00      98.58       1.30       3.70       0.84       ----

> <Gold.Chemscore.Fitness>
9.2045

> <Gold.Chemscore.DG>
-13.7461

> <Gold.Chemscore.ZeroCoef>
-5.4800

> <Gold.Chemscore.Hbond>
0.0196

> <Gold.Chemscore.Metal>
0.0000

> <Gold.Chemscore.Lipo>
98.5755

> <Gold.Chemscore.Internal_Hbond>
0.0000

> <Gold.Chemscore.DEClash>
3.6982

> <Gold.Chemscore.DEInternal>
0.8435

> <Gold.Chemscore.Rot>
1.3019

> <Gold.Chemscore.Internal.Correction>
   9.000000E+99

> <Gold.Chemscore.Hbonds>
donor molecule, donor type, donor heavy atom, donor atom, acceptor molecule, acceptor atom, score
      P1  H  6934  6946       L1     7  0.01

> <Gold.Chemscore.Hbond.Weighted>
-0.0655

> <Gold.Chemscore.Metal.Weighted>
-0.0000

> <Gold.Chemscore.Lipo.Weighted>
-11.5333

> <Gold.Chemscore.Internal_Hbond.Weighted>
0.0000

> <Gold.Chemscore.DEClash.Weighted>
3.6982

> <Gold.Chemscore.DEInternal.Weighted>
0.8435

> <Gold.Chemscore.Rot.Weighted>
3.3327

> <Gold.Chemscore.Internal.Correction.Weighted>
   9.000000E+99

> <Gold.Protein.RotatedTorsions>
[ 6907 6896 6895 6894 ] final  152.65 input  -60.11 | X-H torsion
[ 7974 7965 7964 7962 ] final  -50.75 input  175.53 | X-H torsion
[ 8008 7997 7996 7995 ] final  108.36 input   59.86 | X-H torsion
[ 10167 10162 10161 10158 ] final  153.75 input  -65.29 | X-H torsion
[ 10718 10713 10712 10709 ] final  -32.73 input   66.30 | X-H torsion
[ 10763 10752 10751 10750 ] final  101.19 input  -60.55 | X-H torsion
[ 11005 11000 10999 10996 ] final -145.42 input  -57.11 | X-H torsion

> <Gold.Protein.ActiveResidues>
 VAL166  LYS551  ARG553  GLY616  TRP617  ASP618  TYR619  PRO620  LYS621  CYS622 
 ASP623  PHE694  ASN695  SER759  ASP760  ASP761  ALA762  ILE779  LEU786  VAL792 
 PHE793  MET794  SER795  GLU796  ALA797  LYS798  CYS799  TRP800  GLU811  SER814 

> <Gold.Protein.RotatedAtoms>
  152.0837  133.4166  159.4512 H   0  0  0  0  0  0  0  0  0  0  0  0  # atno 6907 bound_to 6896
  150.6862  134.2952  159.4692 H   0  0  0  0  0  0  0  0  0  0  0  0  # atno 6908 bound_to 6896
  152.0796  134.9479  160.0624 H   0  0  0  0  0  0  0  0  0  0  0  0  # atno 6909 bound_to 6896
  145.9264  140.7788  142.9621 H   0  0  0  0  0  0  0  0  0  0  0  0  # atno 7974 bound_to 7965
  156.1897  140.3078  155.9307 H   0  0  0  0  0  0  0  0  0  0  0  0  # atno 8008 bound_to 7997
  155.3202  140.0455  157.3056 H   0  0  0  0  0  0  0  0  0  0  0  0  # atno 8009 bound_to 7997
  154.5437  140.2269  155.8608 H   0  0  0  0  0  0  0  0  0  0  0  0  # atno 8010 bound_to 7997
  139.4826  144.5246  151.7821 H   0  0  0  0  0  0  0  0  0  0  0  0  # atno 10167 bound_to 10162
  156.3714  130.4340  149.7542 H   0  0  0  0  0  0  0  0  0  0  0  0  # atno 10718 bound_to 10713
  153.3235  135.4053  155.1437 H   0  0  0  0  0  0  0  0  0  0  0  0  # atno 10763 bound_to 10752
  154.8606  135.3593  154.5564 H   0  0  0  0  0  0  0  0  0  0  0  0  # atno 10764 bound_to 10752
  153.5999  135.7071  153.5447 H   0  0  0  0  0  0  0  0  0  0  0  0  # atno 10765 bound_to 10752
  140.7924  134.2953  157.5008 H   0  0  0  0  0  0  0  0  0  0  0  0  # atno 11005 bound_to 11000
  144.6759  140.2058  143.7382 LP  0  0  0  0  0  0  0  0  0  0  0  0  # atno 17320 bound_to 7965
  145.8483  139.2163  143.1787 LP  0  0  0  0  0  0  0  0  0  0  0  0  # atno 17321 bound_to 7965
  140.4764  144.1512  150.5925 LP  0  0  0  0  0  0  0  0  0  0  0  0  # atno 17342 bound_to 10162
  140.4326  143.2561  151.9576 LP  0  0  0  0  0  0  0  0  0  0  0  0  # atno 17343 bound_to 10162
  156.4668  130.7978  151.2997 LP  0  0  0  0  0  0  0  0  0  0  0  0  # atno 17370 bound_to 10713
  157.7484  131.0048  150.3090 LP  0  0  0  0  0  0  0  0  0  0  0  0  # atno 17371 bound_to 10713
  139.8730  134.9382  156.3708 LP  0  0  0  0  0  0  0  0  0  0  0  0  # atno 17394 bound_to 11000
  140.9376  133.7536  156.0105 LP  0  0  0  0  0  0  0  0  0  0  0  0  # atno 17395 bound_to 11000

$$$$
