AV-unprocessed.smi:35|AV-procd|sdf|270|dock8
  -GOLD-   2262016 33D 1   1.00000     0.00000
 Structure written by MMmdl.
 28 29  0  0  0  0  0  0  0  0  2 V2000
  154.4714  141.5301  160.1774 O   0  0  0  0  0  0  0  0  0  0  0  0
  153.6621  141.0710  159.3733 C   0  0  0  0  0  0  0  0  0  0  0  0
  153.7581  139.8086  158.8647 N   0  5  0  0  0  0  0  0  0  0  0  0
  152.8569  139.3037  157.9720 C   0  0  0  0  0  0  0  0  0  0  0  0
  152.9425  138.1716  157.4956 O   0  0  0  0  0  0  0  0  0  0  0  0
  151.7684  140.1185  157.5548 N   0  0  0  0  0  0  0  0  0  0  0  0
  150.7641  139.5470  156.5701 C   0  0  1  0  0  0  0  0  0  0  0  0
  149.7251  140.4630  156.3694 O   0  0  0  0  0  0  0  0  0  0  0  0
  149.8303  141.0388  155.0722 C   0  0  2  0  0  0  0  0  0  0  0  0
  148.4907  141.6474  154.6209 C   0  0  0  0  0  0  0  0  0  0  0  0
  147.8350  142.2580  155.7123 O   0  0  0  0  0  0  0  0  0  0  0  0
  150.3994  139.8951  154.2241 C   0  0  2  0  0  0  0  0  0  0  0  0
  149.3848  138.9827  153.8457 O   0  0  0  0  0  0  0  0  0  0  0  0
  151.3786  139.2295  155.1824 C   0  0  1  0  0  0  0  0  0  0  0  0
  152.6738  139.7717  154.9898 O   0  0  0  0  0  0  0  0  0  0  0  0
  151.6466  141.4057  158.0531 C   0  0  0  0  0  0  0  0  0  0  0  0
  152.5429  141.8985  158.9316 C   0  0  0  0  0  0  0  0  0  0  0  0
  152.2456  143.7544  159.5595 Br  0  0  0  0  0  0  0  0  0  0  0  0
  150.3374  138.6722  157.0639 H   0  0  0  0  0  0  0  0  0  0  0  0
  150.5766  141.8333  155.1272 H   0  0  0  0  0  0  0  0  0  0  0  0
  148.6251  142.3726  153.8182 H   0  0  0  0  0  0  0  0  0  0  0  0
  147.8421  140.8625  154.2316 H   0  0  0  0  0  0  0  0  0  0  0  0
  148.1210  143.1568  155.7698 H   0  0  0  0  0  0  0  0  0  0  0  0
  150.8800  140.2608  153.3155 H   0  0  0  0  0  0  0  0  0  0  0  0
  149.2655  139.0424  152.9102 H   0  0  0  0  0  0  0  0  0  0  0  0
  151.4349  138.1491  155.0418 H   0  0  0  0  0  0  0  0  0  0  0  0
  152.8517  139.7896  154.0612 H   0  0  0  0  0  0  0  0  0  0  0  0
  150.8284  142.0370  157.7441 H   0  0  0  0  0  0  0  0  0  0  0  0
  1  2  2  0  0  0  0
  2 17  1  0  0  0  0
  2  3  1  0  0  0  0
  3  4  1  0  0  0  0
  4  5  2  0  0  0  0
  4  6  1  0  0  0  0
  6  7  1  0  0  0  0
  6 16  1  0  0  0  0
  7 14  1  0  0  0  0
  7  8  1  0  0  0  0
  7 19  1  0  0  0  0
  8  9  1  0  0  0  0
  9 10  1  0  0  0  0
  9 12  1  0  0  0  0
  9 20  1  0  0  0  0
 10 11  1  0  0  0  0
 10 21  1  0  0  0  0
 10 22  1  0  0  0  0
 11 23  1  0  0  0  0
 12 13  1  0  0  0  0
 12 14  1  0  0  0  0
 12 24  1  0  0  0  0
 13 25  1  0  0  0  0
 14 15  1  0  0  0  0
 14 26  1  0  0  0  0
 15 27  1  0  0  0  0
 16 17  2  0  0  0  0
 16 28  1  0  0  0  0
 17 18  1  0  0  0  0
M  CHG  1   3  -1
M  END
> <s_m_source_file>
AV-unprocessed.smi

> <i_m_source_file_index>
35

> <i_lp_mmshare_version>
43012

> <i_f3d_flags>
0

> <s_epik_input>
Tz1jMVtuSF1jKD1PKW4oW2NIXWMxQnIpW0NAQEhdMk9bQ0BASF0oW0NIMl1bT0hdKVtDQEBIXShbT0hdKVtDQEhdMltPSF0=

> <s_epik_cmdline>
J2VwaWtfcHl0aG9uJywgJy1waCcsICc3LjAnLCAnLXRuJywgJzgnLCAnLW1hJywgJzIwMCcsICctbWV0YWxfYmluZGluZycsICctaW1hZScsICc8aW5maWxlLm1hZT4nLCAnLW9tYWUnLCAnPG91dGZpbGUubWFlPic=

> <r_epik_Ionization_Penalty>
1.06112

> <r_epik_Ionization_Penalty_Charging>
2.1796e-09

> <r_epik_Ionization_Penalty_Neutral>
1.06112

> <r_epik_State_Penalty>
1.11484

> <r_epik_Charging_Adjusted_Penalty>
1.11484

> <i_epik_Tot_Q>
-1

> <i_epik_Tot_abs_Q>
1

> <r_epik_Metal_State_Penalty>
0.0032876

> <b_epik_Metal_Only>
0

> <s_epik_Chemistry_Notes>
This compound contains an acetal/aminal-like group ( X-CH(R)-Y where X, Y are N, S, or O) that may be acid/base labile, releasing an aldehyde.

> <s_lp_Force_Field>
OPLS_2005

> <r_lp_Energy>
42.6041

> <b_lp_Chiralities_Consistent>
1

> <s_lp_Variant>
AV-unprocessed.smi:35-24

> <Gold.Version>
5.8.1

> <Gold.Id.Protein>
6NUR|6NUR_protein|mol2

> <Gold.PLP.Fitness>
39.5662

> <Gold.PLP.PLP>
-29.2819

> <Gold.PLP.part.hbond>
-4.9492

> <Gold.PLP.part.metal>
0.0000

> <Gold.PLP.part.buried>
1.7751

> <Gold.PLP.part.nonpolar>
-24.4619

> <Gold.PLP.part.repulsive>
0.0300

> <Gold.PLP.ligand.clash>
0.0000

> <Gold.PLP.ligand.torsion>
0.2795

> <Gold.PLP.Chemscore.Hbond>
3.6008

> <Gold.PLP.Chemscore.CHOScore>
0.0000

> <Gold.PLP.Chemscore.Metal>
0.0000

> <Gold.Chemscore.Hbonds>
donor molecule, donor type, donor heavy atom, donor atom, acceptor molecule, acceptor atom, score
      L1  H    11    23       P1  8028  1.00
      L1  H    13    25       P1  7957  0.98
      P1  H  7997  8009       L1     3  0.76
      P1  H  7997  8010       L1    15  0.91

> <Gold.PLP.Chemscore.Internal.Correction>
0.0411

> <Gold.Rescore>
     Score         DG    S(hbond)    S(metal)    S(lipo)     H(rot)  DE(clash)    DE(int)     intcor
      9.44     -12.26       2.58        0.00      63.56       3.63       2.24       0.58       ----

> <Gold.Chemscore.Fitness>
9.4403

> <Gold.Chemscore.DG>
-12.2558

> <Gold.Chemscore.ZeroCoef>
-5.4800

> <Gold.Chemscore.Hbond>
2.5815

> <Gold.Chemscore.Metal>
0.0000

> <Gold.Chemscore.Lipo>
63.5577

> <Gold.Chemscore.Internal_Hbond>
0.0000

> <Gold.Chemscore.DEClash>
2.2397

> <Gold.Chemscore.DEInternal>
0.5759

> <Gold.Chemscore.Rot>
3.6261

> <Gold.Chemscore.Internal.Correction>
   9.000000E+99

> <Gold.Chemscore.Hbonds>
donor molecule, donor type, donor heavy atom, donor atom, acceptor molecule, acceptor atom, score
      L1  H    11    23       P1  8028  0.74
      L1  H    13    25       P1  7957  0.87
      P1  H  7997  8009       L1     3  0.01
      P1  H  7997  8010       L1    15  0.26

> <Gold.Chemscore.Hbond.Weighted>
-8.6224

> <Gold.Chemscore.Metal.Weighted>
-0.0000

> <Gold.Chemscore.Lipo.Weighted>
-7.4363

> <Gold.Chemscore.Internal_Hbond.Weighted>
0.0000

> <Gold.Chemscore.DEClash.Weighted>
2.2397

> <Gold.Chemscore.DEInternal.Weighted>
0.5759

> <Gold.Chemscore.Rot.Weighted>
9.2828

> <Gold.Chemscore.Internal.Correction.Weighted>
   9.000000E+99

> <Gold.Protein.RotatedTorsions>
[ 6907 6896 6895 6894 ] final   65.49 input  -60.11 | X-H torsion
[ 7974 7965 7964 7962 ] final  176.96 input  175.53 | X-H torsion
[ 8008 7997 7996 7995 ] final  114.78 input   59.86 | X-H torsion
[ 10167 10162 10161 10158 ] final  103.60 input  -65.29 | X-H torsion
[ 10718 10713 10712 10709 ] final   12.32 input   66.30 | X-H torsion
[ 10763 10752 10751 10750 ] final    2.44 input  -60.55 | X-H torsion
[ 11005 11000 10999 10996 ] final -101.13 input  -57.11 | X-H torsion

> <Gold.Protein.ActiveResidues>
 VAL166  LYS551  ARG553  GLY616  TRP617  ASP618  TYR619  PRO620  LYS621  CYS622 
 ASP623  PHE694  ASN695  SER759  ASP760  ASP761  ALA762  ILE779  LEU786  VAL792 
 PHE793  MET794  SER795  GLU796  ALA797  LYS798  CYS799  TRP800  GLU811  SER814 

> <Gold.Protein.RotatedAtoms>
  152.4411  134.5589  159.9888 H   0  0  0  0  0  0  0  0  0  0  0  0  # atno 6907 bound_to 6896
  151.5686  133.3387  159.2993 H   0  0  0  0  0  0  0  0  0  0  0  0  # atno 6908 bound_to 6896
  150.8317  134.7607  159.6923 H   0  0  0  0  0  0  0  0  0  0  0  0  # atno 6909 bound_to 6896
  144.7176  140.0174  143.6440 H   0  0  0  0  0  0  0  0  0  0  0  0  # atno 7974 bound_to 7965
  156.2342  140.2952  156.0267 H   0  0  0  0  0  0  0  0  0  0  0  0  # atno 8008 bound_to 7997
  155.2140  140.0413  157.2955 H   0  0  0  0  0  0  0  0  0  0  0  0  # atno 8009 bound_to 7997
  154.6048  140.2436  155.7752 H   0  0  0  0  0  0  0  0  0  0  0  0  # atno 8010 bound_to 7997
  139.7249  144.7050  151.0813 H   0  0  0  0  0  0  0  0  0  0  0  0  # atno 10167 bound_to 10162
  157.0084  130.6107  149.5705 H   0  0  0  0  0  0  0  0  0  0  0  0  # atno 10718 bound_to 10713
  153.2956  135.6952  153.7251 H   0  0  0  0  0  0  0  0  0  0  0  0  # atno 10763 bound_to 10752
  153.6185  135.3431  155.3004 H   0  0  0  0  0  0  0  0  0  0  0  0  # atno 10764 bound_to 10752
  154.8536  135.4380  154.2052 H   0  0  0  0  0  0  0  0  0  0  0  0  # atno 10765 bound_to 10752
  141.1243  133.8453  157.1191 H   0  0  0  0  0  0  0  0  0  0  0  0  # atno 11005 bound_to 11000
  146.0208  139.3249  143.0814 LP  0  0  0  0  0  0  0  0  0  0  0  0  # atno 17320 bound_to 7965
  145.8570  140.9497  143.0720 LP  0  0  0  0  0  0  0  0  0  0  0  0  # atno 17321 bound_to 7965
  140.7761  143.5118  150.9643 LP  0  0  0  0  0  0  0  0  0  0  0  0  # atno 17342 bound_to 10162
  139.8805  143.7078  152.3157 LP  0  0  0  0  0  0  0  0  0  0  0  0  # atno 17343 bound_to 10162
  156.0145  130.5238  150.8092 LP  0  0  0  0  0  0  0  0  0  0  0  0  # atno 17370 bound_to 10713
  157.5338  131.0938  150.9919 LP  0  0  0  0  0  0  0  0  0  0  0  0  # atno 17371 bound_to 10713
  140.0228  134.9938  157.0625 LP  0  0  0  0  0  0  0  0  0  0  0  0  # atno 17394 bound_to 11000
  140.4412  134.1679  155.7174 LP  0  0  0  0  0  0  0  0  0  0  0  0  # atno 17395 bound_to 11000

$$$$
