AV-unprocessed.smi:531|AV-procd|sdf|2846|dock7
  -GOLD-   2262023333D 1   1.00000     0.00000
 Structure written by MMmdl.
 46 48  0  0  0  0  0  0  0  0  1 V2000
  148.9047  141.5375  154.3393 C   0  0  0  0  0  0  0  0  0  0  0  0
  149.8741  141.1544  155.4596 C   0  0  0  0  0  0  0  0  0  0  0  0
  149.2075  141.2762  156.7045 O   0  0  0  0  0  0  0  0  0  0  0  0
  149.9865  140.8037  157.7900 C   0  0  0  0  0  0  0  0  0  0  0  0
  151.3546  141.4936  157.7529 C   0  0  0  0  0  0  0  0  0  0  0  0
  152.2336  140.9928  158.8060 N   0  0  0  0  0  0  0  0  0  0  0  0
  152.8636  141.6899  159.7925 C   0  0  0  0  0  0  0  0  0  0  0  0
  152.7556  143.0767  159.9186 N   0  0  0  0  0  0  0  0  0  0  0  0
  153.0869  144.0741  158.9002 C   0  0  0  0  0  0  0  0  0  0  0  0
  151.9307  145.0676  158.6833 C   0  0  0  0  0  0  0  0  0  0  0  0
  151.5762  145.7717  160.0002 C   0  0  0  0  0  0  0  0  0  0  0  0
  151.3429  144.7325  161.1057 C   0  0  0  0  0  0  0  0  0  0  0  0
  152.5280  143.7540  161.1944 C   0  0  0  0  0  0  0  0  0  0  0  0
  153.5439  140.9334  160.6585 N   0  0  0  0  0  0  0  0  0  0  0  0
  153.3503  139.6488  160.1762 C   0  0  0  0  0  0  0  0  0  0  0  0
  152.5544  139.6604  159.0769 C   0  0  0  0  0  0  0  0  0  0  0  0
  152.1392  138.4254  158.3957 C   0  0  0  0  0  0  0  0  0  0  0  0
  151.3985  138.4045  157.4154 O   0  0  0  0  0  0  0  0  0  0  0  0
  152.6465  137.3061  158.9670 N   0  0  0  0  0  0  0  0  0  0  0  0
  153.4582  137.2268  160.0649 C   0  0  0  0  0  0  0  0  0  0  0  0
  153.8342  136.1283  160.4736 O   0  0  0  0  0  0  0  0  0  0  0  0
  153.8203  138.4004  160.6750 N   0  0  0  0  0  0  0  0  0  0  0  0
  154.6843  138.3780  161.8568 C   0  0  0  0  0  0  0  0  0  0  0  0
  152.3906  136.4293  158.5368 H   0  0  0  0  0  0  0  0  0  0  0  0
  149.3855  141.4581  153.3641 H   0  0  0  0  0  0  0  0  0  0  0  0
  148.5550  142.5636  154.4579 H   0  0  0  0  0  0  0  0  0  0  0  0
  148.0324  140.8834  154.3368 H   0  0  0  0  0  0  0  0  0  0  0  0
  150.2207  140.1300  155.3158 H   0  0  0  0  0  0  0  0  0  0  0  0
  150.7483  141.8066  155.4354 H   0  0  0  0  0  0  0  0  0  0  0  0
  149.4811  141.0231  158.7320 H   0  0  0  0  0  0  0  0  0  0  0  0
  150.1090  139.7214  157.7243 H   0  0  0  0  0  0  0  0  0  0  0  0
  151.8253  141.3555  156.7816 H   0  0  0  0  0  0  0  0  0  0  0  0
  151.2340  142.5682  157.8464 H   0  0  0  0  0  0  0  0  0  0  0  0
  153.9780  144.6156  159.2207 H   0  0  0  0  0  0  0  0  0  0  0  0
  153.3649  143.5892  157.9655 H   0  0  0  0  0  0  0  0  0  0  0  0
  152.2066  145.8047  157.9288 H   0  0  0  0  0  0  0  0  0  0  0  0
  151.0542  144.5441  158.3002 H   0  0  0  0  0  0  0  0  0  0  0  0
  152.3920  146.4351  160.2901 H   0  0  0  0  0  0  0  0  0  0  0  0
  150.6929  146.3980  159.8722 H   0  0  0  0  0  0  0  0  0  0  0  0
  151.1970  145.2321  162.0637 H   0  0  0  0  0  0  0  0  0  0  0  0
  150.4261  144.1778  160.9014 H   0  0  0  0  0  0  0  0  0  0  0  0
  152.3299  143.0149  161.9715 H   0  0  0  0  0  0  0  0  0  0  0  0
  153.4354  144.2810  161.4924 H   0  0  0  0  0  0  0  0  0  0  0  0
  155.5658  137.7582  161.6859 H   0  0  0  0  0  0  0  0  0  0  0  0
  154.1429  137.9735  162.7128 H   0  0  0  0  0  0  0  0  0  0  0  0
  155.0422  139.3708  162.1296 H   0  0  0  0  0  0  0  0  0  0  0  0
  1  2  1  0  0  0  0
  1 25  1  0  0  0  0
  1 26  1  0  0  0  0
  1 27  1  0  0  0  0
  2  3  1  0  0  0  0
  2 28  1  0  0  0  0
  2 29  1  0  0  0  0
  3  4  1  0  0  0  0
  4  5  1  0  0  0  0
  4 30  1  0  0  0  0
  4 31  1  0  0  0  0
  5  6  1  0  0  0  0
  5 32  1  0  0  0  0
  5 33  1  0  0  0  0
  6 16  1  0  0  0  0
  6  7  1  0  0  0  0
  7  8  1  0  0  0  0
  7 14  2  0  0  0  0
  8 13  1  0  0  0  0
  8  9  1  0  0  0  0
  9 10  1  0  0  0  0
  9 34  1  0  0  0  0
  9 35  1  0  0  0  0
 10 11  1  0  0  0  0
 10 36  1  0  0  0  0
 10 37  1  0  0  0  0
 11 12  1  0  0  0  0
 11 38  1  0  0  0  0
 11 39  1  0  0  0  0
 12 13  1  0  0  0  0
 12 40  1  0  0  0  0
 12 41  1  0  0  0  0
 13 42  1  0  0  0  0
 13 43  1  0  0  0  0
 14 15  1  0  0  0  0
 15 22  1  0  0  0  0
 15 16  2  0  0  0  0
 16 17  1  0  0  0  0
 17 18  2  0  0  0  0
 17 19  1  0  0  0  0
 19 24  1  0  0  0  0
 19 20  1  0  0  0  0
 20 21  2  0  0  0  0
 20 22  1  0  0  0  0
 22 23  1  0  0  0  0
 23 44  1  0  0  0  0
 23 45  1  0  0  0  0
 23 46  1  0  0  0  0
M  END
> <s_m_source_file>
AV-unprocessed.smi

> <i_m_source_file_index>
531

> <i_lp_mmshare_version>
43012

> <i_f3d_flags>
0

> <s_epik_input>
W0NIM11uMWMoPU8pW25IXWMoPU8pYyhjMTIpbihbQ0gyXVtDSDJdT1tDSDJdW0NIM10pYyhuMilOM1tDSDJdW0NIMl1bQ0gyXVtDSDJdW0NIMl0z

> <s_epik_cmdline>
J2VwaWtfcHl0aG9uJywgJy1waCcsICc3LjAnLCAnLXRuJywgJzgnLCAnLW1hJywgJzIwMCcsICctbWV0YWxfYmluZGluZycsICctaW1hZScsICc8aW5maWxlLm1hZT4nLCAnLW9tYWUnLCAnPG91dGZpbGUubWFlPic=

> <r_lp_tautomer_probability>
1

> <r_epik_Ionization_Penalty>
0.000274134

> <r_epik_Ionization_Penalty_Charging>
0.000122674

> <r_epik_Ionization_Penalty_Neutral>
0.00015146

> <r_epik_State_Penalty>
-0

> <r_epik_Charging_Adjusted_Penalty>
0.000122674

> <i_epik_Tot_Q>
0

> <i_epik_Tot_abs_Q>
0

> <r_epik_Metal_State_Penalty>
0.0938197

> <b_epik_Metal_Only>
0

> <s_lp_Force_Field>
OPLS_2005

> <r_lp_Energy>
38.5132

> <b_lp_Chiralities_Consistent>
1

> <s_lp_Variant>
AV-unprocessed.smi:531-1

> <Gold.Version>
5.8.1

> <Gold.Id.Protein>
6NUR|6NUR_protein|mol2

> <Gold.PLP.Fitness>
48.8924

> <Gold.PLP.PLP>
-47.2600

> <Gold.PLP.part.hbond>
-1.0000

> <Gold.PLP.part.metal>
0.0000

> <Gold.PLP.part.buried>
-4.9639

> <Gold.PLP.part.nonpolar>
-41.2687

> <Gold.PLP.part.repulsive>
0.1549

> <Gold.PLP.ligand.clash>
0.0000

> <Gold.PLP.ligand.torsion>
0.9174

> <Gold.PLP.Chemscore.Hbond>
1.0000

> <Gold.PLP.Chemscore.CHOScore>
0.0000

> <Gold.PLP.Chemscore.Metal>
0.0000

> <Gold.Chemscore.Hbonds>
donor molecule, donor type, donor heavy atom, donor atom, acceptor molecule, acceptor atom, score
      P1  H  6896  6908       L1    21  0.94

> <Gold.PLP.Chemscore.Internal.Correction>
0.4671

> <Gold.Rescore>
     Score         DG    S(hbond)    S(metal)    S(lipo)     H(rot)  DE(clash)    DE(int)     intcor
     14.59     -16.57       0.97        0.00     102.66       1.62       0.06       1.92       ----

> <Gold.Chemscore.Fitness>
14.5932

> <Gold.Chemscore.DG>
-16.5730

> <Gold.Chemscore.ZeroCoef>
-5.4800

> <Gold.Chemscore.Hbond>
0.9669

> <Gold.Chemscore.Metal>
0.0000

> <Gold.Chemscore.Lipo>
102.6632

> <Gold.Chemscore.Internal_Hbond>
0.0000

> <Gold.Chemscore.DEClash>
0.0587

> <Gold.Chemscore.DEInternal>
1.9211

> <Gold.Chemscore.Rot>
1.6204

> <Gold.Chemscore.Internal.Correction>
   9.000000E+99

> <Gold.Chemscore.Hbonds>
donor molecule, donor type, donor heavy atom, donor atom, acceptor molecule, acceptor atom, score
      P1  H  6896  6908       L1    21  0.70

> <Gold.Chemscore.Hbond.Weighted>
-3.2296

> <Gold.Chemscore.Metal.Weighted>
-0.0000

> <Gold.Chemscore.Lipo.Weighted>
-12.0116

> <Gold.Chemscore.Internal_Hbond.Weighted>
0.0000

> <Gold.Chemscore.DEClash.Weighted>
0.0587

> <Gold.Chemscore.DEInternal.Weighted>
1.9211

> <Gold.Chemscore.Rot.Weighted>
4.1481

> <Gold.Chemscore.Internal.Correction.Weighted>
   9.000000E+99

> <Gold.Protein.RotatedTorsions>
[ 6907 6896 6895 6894 ] final  -59.81 input  -60.11 | X-H torsion
[ 7974 7965 7964 7962 ] final   71.76 input  175.53 | X-H torsion
[ 8008 7997 7996 7995 ] final  -90.35 input   59.86 | X-H torsion
[ 10167 10162 10161 10158 ] final   45.69 input  -65.29 | X-H torsion
[ 10718 10713 10712 10709 ] final   68.96 input   66.30 | X-H torsion
[ 10763 10752 10751 10750 ] final  151.17 input  -60.55 | X-H torsion
[ 11005 11000 10999 10996 ] final   79.69 input  -57.11 | X-H torsion

> <Gold.Protein.ActiveResidues>
 VAL166  LYS551  ARG553  GLY616  TRP617  ASP618  TYR619  PRO620  LYS621  CYS622 
 ASP623  PHE694  ASN695  SER759  ASP760  ASP761  ALA762  ILE779  LEU786  VAL792 
 PHE793  MET794  SER795  GLU796  ALA797  LYS798  CYS799  TRP800  GLU811  SER814 

> <Gold.Protein.RotatedAtoms>
  150.7902  134.6919  159.6501 H   0  0  0  0  0  0  0  0  0  0  0  0  # atno 6907 bound_to 6896
  152.4006  134.6289  160.0080 H   0  0  0  0  0  0  0  0  0  0  0  0  # atno 6908 bound_to 6896
  151.6561  133.3282  159.3199 H   0  0  0  0  0  0  0  0  0  0  0  0  # atno 6909 bound_to 6896
  145.7618  139.2804  143.1372 H   0  0  0  0  0  0  0  0  0  0  0  0  # atno 7974 bound_to 7965
  154.6975  140.0531  157.0425 H   0  0  0  0  0  0  0  0  0  0  0  0  # atno 8008 bound_to 7997
  155.0731  140.3201  155.4605 H   0  0  0  0  0  0  0  0  0  0  0  0  # atno 8009 bound_to 7997
  156.2749  140.2078  156.5859 H   0  0  0  0  0  0  0  0  0  0  0  0  # atno 8010 bound_to 7997
  140.3216  144.2698  150.6182 H   0  0  0  0  0  0  0  0  0  0  0  0  # atno 10167 bound_to 10162
  157.6319  130.9401  150.0448 H   0  0  0  0  0  0  0  0  0  0  0  0  # atno 10718 bound_to 10713
  154.0995  135.2846  155.3254 H   0  0  0  0  0  0  0  0  0  0  0  0  # atno 10763 bound_to 10752
  154.6565  135.5350  153.7969 H   0  0  0  0  0  0  0  0  0  0  0  0  # atno 10764 bound_to 10752
  153.0384  135.6523  154.1159 H   0  0  0  0  0  0  0  0  0  0  0  0  # atno 10765 bound_to 10752
  139.9163  134.7862  156.1812 H   0  0  0  0  0  0  0  0  0  0  0  0  # atno 11005 bound_to 11000
  146.0256  140.8306  142.9901 LP  0  0  0  0  0  0  0  0  0  0  0  0  # atno 17320 bound_to 7965
  144.6829  140.2693  143.7308 LP  0  0  0  0  0  0  0  0  0  0  0  0  # atno 17321 bound_to 7965
  140.5478  143.2211  151.7977 LP  0  0  0  0  0  0  0  0  0  0  0  0  # atno 17342 bound_to 10162
  139.4873  144.4516  151.9647 LP  0  0  0  0  0  0  0  0  0  0  0  0  # atno 17343 bound_to 10162
  156.1528  130.3642  149.9412 LP  0  0  0  0  0  0  0  0  0  0  0  0  # atno 17370 bound_to 10713
  156.7428  130.9086  151.3633 LP  0  0  0  0  0  0  0  0  0  0  0  0  # atno 17371 bound_to 10713
  141.0641  133.6827  156.2010 LP  0  0  0  0  0  0  0  0  0  0  0  0  # atno 17394 bound_to 11000
  140.6613  134.4964  157.5583 LP  0  0  0  0  0  0  0  0  0  0  0  0  # atno 17395 bound_to 11000

$$$$
