AV-unprocessed.smi:1076|AV-procd|sdf|4699|dock7
  -GOLD-   22720 3223D 1   1.00000     0.00000
 Structure written by MMmdl.
 44 45  0  0  0  0  0  0  0  0  1 V2000
  154.4467  139.6877  161.9511 C   0  0  0  0  0  0  0  0  0  0  0  0
  153.8510  140.9474  161.3929 C   0  0  0  0  0  0  0  0  0  0  0  0
  153.0708  141.9248  162.0739 C   0  0  0  0  0  0  0  0  0  0  0  0
  152.7078  142.9298  161.2936 N   0  0  0  0  0  0  0  0  0  0  0  0
  153.2439  142.6320  160.0911 N   0  0  0  0  0  0  0  0  0  0  0  0
  153.0763  143.5487  158.9762 C   0  0  0  0  0  0  0  0  0  0  0  0
  151.5917  143.8651  158.7061 C   0  0  2  0  0  0  0  0  0  0  0  0
  151.0752  144.9883  159.6196 C   0  0  0  0  0  0  0  0  0  0  0  0
  150.8119  142.6523  158.9242 N   0  0  0  0  0  0  0  0  0  0  0  0
  150.9143  141.7098  157.8176 C   0  0  0  0  0  0  0  0  0  0  0  0
  150.3499  142.3236  156.5194 C   0  0  0  0  0  0  0  0  0  0  0  0
  150.4279  141.4107  155.2773 C   0  0  0  0  0  0  0  0  0  0  0  0
  151.4406  140.7329  155.0941 O   0  0  0  0  0  0  0  0  0  0  0  0
  149.3807  141.3786  154.4180 N   0  0  0  0  0  0  0  0  0  0  0  0
  148.1705  142.1857  154.6023 C   0  0  0  0  0  0  0  0  0  0  0  0
  146.9875  141.2379  154.8687 C   0  0  0  0  0  0  0  0  0  0  0  0
  146.8517  140.3272  153.7810 O   0  0  0  0  0  0  0  0  0  0  0  0
  148.0217  139.5435  153.5604 C   0  0  0  0  0  0  0  0  0  0  0  0
  149.2230  140.4653  153.2809 C   0  0  0  0  0  0  0  0  0  0  0  0
  153.9321  141.4375  160.1206 C   0  0  0  0  0  0  0  0  0  0  0  0
  154.5208  139.7222  163.0383 H   0  0  0  0  0  0  0  0  0  0  0  0
  155.4524  139.5141  161.5672 H   0  0  0  0  0  0  0  0  0  0  0  0
  153.8479  138.8134  161.6962 H   0  0  0  0  0  0  0  0  0  0  0  0
  152.7627  141.9357  163.1089 H   0  0  0  0  0  0  0  0  0  0  0  0
  153.6371  144.4611  159.1853 H   0  0  0  0  0  0  0  0  0  0  0  0
  153.5324  143.0985  158.0931 H   0  0  0  0  0  0  0  0  0  0  0  0
  151.4987  144.1785  157.6650 H   0  0  0  0  0  0  0  0  0  0  0  0
  151.6641  145.8963  159.4873 H   0  0  0  0  0  0  0  0  0  0  0  0
  151.1354  144.7060  160.6713 H   0  0  0  0  0  0  0  0  0  0  0  0
  150.0380  145.2418  159.3998 H   0  0  0  0  0  0  0  0  0  0  0  0
  149.8473  142.8760  159.1227 H   0  0  0  0  0  0  0  0  0  0  0  0
  151.9575  141.4284  157.6738 H   0  0  0  0  0  0  0  0  0  0  0  0
  150.3673  140.7959  158.0541 H   0  0  0  0  0  0  0  0  0  0  0  0
  149.3101  142.6004  156.6980 H   0  0  0  0  0  0  0  0  0  0  0  0
  150.8914  143.2441  156.2981 H   0  0  0  0  0  0  0  0  0  0  0  0
  148.2573  142.9068  155.4162 H   0  0  0  0  0  0  0  0  0  0  0  0
  147.9870  142.7716  153.7005 H   0  0  0  0  0  0  0  0  0  0  0  0
  147.1308  140.6884  155.8006 H   0  0  0  0  0  0  0  0  0  0  0  0
  146.0630  141.8062  154.9711 H   0  0  0  0  0  0  0  0  0  0  0  0
  148.2135  138.9078  154.4265 H   0  0  0  0  0  0  0  0  0  0  0  0
  147.8482  138.8827  152.7111 H   0  0  0  0  0  0  0  0  0  0  0  0
  149.0467  141.0476  152.3754 H   0  0  0  0  0  0  0  0  0  0  0  0
  150.1002  139.8543  153.0774 H   0  0  0  0  0  0  0  0  0  0  0  0
  154.4313  141.0476  159.2458 H   0  0  0  0  0  0  0  0  0  0  0  0
  1  2  1  0  0  0  0
  1 21  1  0  0  0  0
  1 22  1  0  0  0  0
  1 23  1  0  0  0  0
  2 20  2  0  0  0  0
  2  3  1  0  0  0  0
  3  4  2  0  0  0  0
  3 24  1  0  0  0  0
  4  5  1  0  0  0  0
  5  6  1  0  0  0  0
  5 20  1  0  0  0  0
  6  7  1  0  0  0  0
  6 25  1  0  0  0  0
  6 26  1  0  0  0  0
  7  8  1  0  0  0  0
  7  9  1  0  0  0  0
  7 27  1  0  0  0  0
  8 28  1  0  0  0  0
  8 29  1  0  0  0  0
  8 30  1  0  0  0  0
  9 10  1  0  0  0  0
  9 31  1  0  0  0  0
 10 11  1  0  0  0  0
 10 32  1  0  0  0  0
 10 33  1  0  0  0  0
 11 12  1  0  0  0  0
 11 34  1  0  0  0  0
 11 35  1  0  0  0  0
 12 13  2  0  0  0  0
 12 14  1  0  0  0  0
 14 19  1  0  0  0  0
 14 15  1  0  0  0  0
 15 16  1  0  0  0  0
 15 36  1  0  0  0  0
 15 37  1  0  0  0  0
 16 17  1  0  0  0  0
 16 38  1  0  0  0  0
 16 39  1  0  0  0  0
 17 18  1  0  0  0  0
 18 19  1  0  0  0  0
 18 40  1  0  0  0  0
 18 41  1  0  0  0  0
 19 42  1  0  0  0  0
 19 43  1  0  0  0  0
 20 44  1  0  0  0  0
M  END
> <s_m_source_file>
AV-unprocessed.smi

> <i_m_source_file_index>
1076

> <i_lp_mmshare_version>
43012

> <i_f3d_flags>
0

> <s_epik_input>
W0NIM11jMVtjSF1ubihbY0hdMSlbQ0gyXVtDQEhdKFtDSDNdKVtOSF1bQ0gyXVtDSDJdQyg9TylOMltDSDJdW0NIMl1PW0NIMl1bQ0gyXTI=

> <s_epik_cmdline>
J2VwaWtfcHl0aG9uJywgJy1waCcsICc3LjAnLCAnLXRuJywgJzgnLCAnLW1hJywgJzIwMCcsICctbWV0YWxfYmluZGluZycsICctaW1hZScsICc8aW5maWxlLm1hZT4nLCAnLW9tYWUnLCAnPG91dGZpbGUubWFlPic=

> <r_lp_tautomer_probability>
1

> <r_epik_Ionization_Penalty>
2.55707

> <r_epik_Ionization_Penalty_Charging>
0

> <r_epik_Ionization_Penalty_Neutral>
2.55707

> <r_epik_State_Penalty>
2.726

> <r_epik_Charging_Adjusted_Penalty>
2.726

> <i_epik_Tot_Q>
0

> <i_epik_Tot_abs_Q>
0

> <r_epik_Metal_State_Penalty>
2.72594

> <b_epik_Metal_Only>
0

> <s_lp_Force_Field>
OPLS_2005

> <r_lp_Energy>
21.3245

> <b_lp_Chiralities_Consistent>
1

> <s_lp_Variant>
AV-unprocessed.smi:1076-3

> <Gold.Version>
5.8.1

> <Gold.Id.Protein>
6NUR|6NUR_protein|mol2

> <Gold.PLP.Fitness>
45.9445

> <Gold.PLP.PLP>
-44.7152

> <Gold.PLP.part.hbond>
-1.1233

> <Gold.PLP.part.metal>
0.0000

> <Gold.PLP.part.buried>
-0.6774

> <Gold.PLP.part.nonpolar>
-42.8997

> <Gold.PLP.part.repulsive>
0.2142

> <Gold.PLP.ligand.clash>
0.0000

> <Gold.PLP.ligand.torsion>
0.7224

> <Gold.PLP.Chemscore.Hbond>
0.8512

> <Gold.PLP.Chemscore.CHOScore>
0.0000

> <Gold.PLP.Chemscore.Metal>
0.0000

> <Gold.Chemscore.Hbonds>
donor molecule, donor type, donor heavy atom, donor atom, acceptor molecule, acceptor atom, score
      P1  H  7989  7998       L1    13  0.77

> <Gold.PLP.Chemscore.Internal.Correction>
0.1206

> <Gold.Rescore>
     Score         DG    S(hbond)    S(metal)    S(lipo)     H(rot)  DE(clash)    DE(int)     intcor
     12.67     -13.64       0.00        0.00     111.49       1.91       0.11       0.86       ----

> <Gold.Chemscore.Fitness>
12.6655

> <Gold.Chemscore.DG>
-13.6355

> <Gold.Chemscore.ZeroCoef>
-5.4800

> <Gold.Chemscore.Hbond>
0.0000

> <Gold.Chemscore.Metal>
0.0000

> <Gold.Chemscore.Lipo>
111.4925

> <Gold.Chemscore.Internal_Hbond>
0.0000

> <Gold.Chemscore.DEClash>
0.1071

> <Gold.Chemscore.DEInternal>
0.8630

> <Gold.Chemscore.Rot>
1.9098

> <Gold.Chemscore.Internal.Correction>
   9.000000E+99

> <Gold.Chemscore.Hbonds>
donor molecule, donor type, donor heavy atom, donor atom, acceptor molecule, acceptor atom, score
      P1  H  7989  7998       L1    13  0.26

> <Gold.Chemscore.Hbond.Weighted>
-0.0000

> <Gold.Chemscore.Metal.Weighted>
-0.0000

> <Gold.Chemscore.Lipo.Weighted>
-13.0446

> <Gold.Chemscore.Internal_Hbond.Weighted>
0.0000

> <Gold.Chemscore.DEClash.Weighted>
0.1071

> <Gold.Chemscore.DEInternal.Weighted>
0.8630

> <Gold.Chemscore.Rot.Weighted>
4.8891

> <Gold.Chemscore.Internal.Correction.Weighted>
   9.000000E+99

> <Gold.Protein.RotatedTorsions>
[ 6907 6896 6895 6894 ] final   61.83 input  -60.11 | X-H torsion
[ 7974 7965 7964 7962 ] final  112.73 input  175.53 | X-H torsion
[ 8008 7997 7996 7995 ] final   25.09 input   59.86 | X-H torsion
[ 10167 10162 10161 10158 ] final   -1.28 input  -65.29 | X-H torsion
[ 10718 10713 10712 10709 ] final  -78.89 input   66.30 | X-H torsion
[ 10763 10752 10751 10750 ] final   40.80 input  -60.55 | X-H torsion
[ 11005 11000 10999 10996 ] final  -33.06 input  -57.11 | X-H torsion

> <Gold.Protein.ActiveResidues>
 VAL166  LYS551  ARG553  GLY616  TRP617  ASP618  TYR619  PRO620  LYS621  CYS622 
 ASP623  PHE694  ASN695  SER759  ASP760  ASP761  ALA762  ILE779  LEU786  VAL792 
 PHE793  MET794  SER795  GLU796  ALA797  LYS798  CYS799  TRP800  GLU811  SER814 

> <Gold.Protein.RotatedAtoms>
  152.4122  134.6105  160.0023 H   0  0  0  0  0  0  0  0  0  0  0  0  # atno 6907 bound_to 6896
  151.6278  133.3328  159.3110 H   0  0  0  0  0  0  0  0  0  0  0  0  # atno 6908 bound_to 6896
  150.8012  134.7147  159.6669 H   0  0  0  0  0  0  0  0  0  0  0  0  # atno 6909 bound_to 6896
  145.2258  139.2841  143.4194 H   0  0  0  0  0  0  0  0  0  0  0  0  # atno 7974 bound_to 7965
  155.0063  140.3131  155.4847 H   0  0  0  0  0  0  0  0  0  0  0  0  # atno 8008 bound_to 7997
  156.2917  140.2223  156.5116 H   0  0  0  0  0  0  0  0  0  0  0  0  # atno 8009 bound_to 7997
  154.7574  140.0461  157.0933 H   0  0  0  0  0  0  0  0  0  0  0  0  # atno 8010 bound_to 7997
  140.6803  143.6794  150.8118 H   0  0  0  0  0  0  0  0  0  0  0  0  # atno 10167 bound_to 10162
  156.0106  130.4530  150.3564 H   0  0  0  0  0  0  0  0  0  0  0  0  # atno 10718 bound_to 10713
  152.9926  135.6181  154.2684 H   0  0  0  0  0  0  0  0  0  0  0  0  # atno 10763 bound_to 10752
  154.2418  135.2788  155.2853 H   0  0  0  0  0  0  0  0  0  0  0  0  # atno 10764 bound_to 10752
  154.5363  135.5774  153.6859 H   0  0  0  0  0  0  0  0  0  0  0  0  # atno 10765 bound_to 10752
  140.9603  133.7168  156.1359 H   0  0  0  0  0  0  0  0  0  0  0  0  # atno 11005 bound_to 11000
  146.3365  140.2578  142.8601 LP  0  0  0  0  0  0  0  0  0  0  0  0  # atno 17320 bound_to 7965
  144.9722  140.8380  143.5448 LP  0  0  0  0  0  0  0  0  0  0  0  0  # atno 17321 bound_to 7965
  140.0494  143.5265  152.2681 LP  0  0  0  0  0  0  0  0  0  0  0  0  # atno 17342 bound_to 10162
  139.6122  144.7611  151.2927 LP  0  0  0  0  0  0  0  0  0  0  0  0  # atno 17343 bound_to 10162
  157.1655  131.0355  151.2821 LP  0  0  0  0  0  0  0  0  0  0  0  0  # atno 17370 bound_to 10713
  157.4274  130.7471  149.6962 LP  0  0  0  0  0  0  0  0  0  0  0  0  # atno 17371 bound_to 10713
  140.7477  134.4080  157.5546 LP  0  0  0  0  0  0  0  0  0  0  0  0  # atno 17394 bound_to 11000
  139.8876  134.8879  156.2520 LP  0  0  0  0  0  0  0  0  0  0  0  0  # atno 17395 bound_to 11000

$$$$
