AV-unprocessed.smi:72|AV-procd|sdf|743|dock6
  -GOLD-   2262017 73D 1   1.00000     0.00000
 Structure written by MMmdl.
 29 30  0  0  0  0  0  0  0  0  1 V2000
  151.2346  134.6011  155.9805 N   0  0  0  0  0  0  0  0  0  0  0  0
  151.1663  135.9428  155.6684 C   0  0  0  0  0  0  0  0  0  0  0  0
  149.9090  136.4298  155.2850 N   0  0  0  0  0  0  0  0  0  0  0  0
  149.8375  137.6925  155.0056 C   0  0  0  0  0  0  0  0  0  0  0  0
  151.0036  138.5524  155.0955 N   0  0  0  0  0  0  0  0  0  0  0  0
  150.9148  140.0255  154.7661 C   0  0  2  0  0  0  0  0  0  0  0  0
  151.3641  140.7613  155.8659 O   0  0  0  0  0  0  0  0  0  0  0  0
  150.4739  141.8426  156.1212 C   0  0  2  0  0  0  0  0  0  0  0  0
  150.5551  142.2376  157.6033 C   0  0  0  0  0  0  0  0  0  0  0  0
  149.7115  143.3405  157.8553 O   0  0  0  0  0  0  0  0  0  0  0  0
  149.1197  141.2580  155.7156 C   0  0  1  0  0  0  0  0  0  0  0  0
  148.1361  142.2478  155.4783 O   0  0  0  0  0  0  0  0  0  0  0  0
  149.4609  140.4330  154.4782 C   0  0  1  0  0  0  0  0  0  0  0  0
  149.3761  141.1845  153.2814 O   0  0  0  0  0  0  0  0  0  0  0  0
  152.2553  137.9861  155.4616 C   0  0  0  0  0  0  0  0  0  0  0  0
  153.2675  138.6855  155.5004 O   0  0  0  0  0  0  0  0  0  0  0  0
  152.2759  136.6183  155.7608 N   0  0  0  0  0  0  0  0  0  0  0  0
  151.5958  140.2066  153.9334 H   0  0  0  0  0  0  0  0  0  0  0  0
  150.7242  142.6815  155.4686 H   0  0  0  0  0  0  0  0  0  0  0  0
  148.7625  140.5893  156.4999 H   0  0  0  0  0  0  0  0  0  0  0  0
  148.8151  139.5586  154.3847 H   0  0  0  0  0  0  0  0  0  0  0  0
  152.0860  134.1412  156.2680 H   0  0  0  0  0  0  0  0  0  0  0  0
  150.4414  133.9776  155.9373 H   0  0  0  0  0  0  0  0  0  0  0  0
  148.9164  138.1831  154.6877 H   0  0  0  0  0  0  0  0  0  0  0  0
  150.2139  141.4140  158.2313 H   0  0  0  0  0  0  0  0  0  0  0  0
  151.5797  142.4674  157.8975 H   0  0  0  0  0  0  0  0  0  0  0  0
  149.2836  143.5798  157.0472 H   0  0  0  0  0  0  0  0  0  0  0  0
  148.5557  143.0944  155.4816 H   0  0  0  0  0  0  0  0  0  0  0  0
  149.1698  140.5966  152.5709 H   0  0  0  0  0  0  0  0  0  0  0  0
  1  2  1  0  0  0  0
  1 22  1  0  0  0  0
  1 23  1  0  0  0  0
  2 17  2  0  0  0  0
  2  3  1  0  0  0  0
  3  4  2  0  0  0  0
  4  5  1  0  0  0  0
  4 24  1  0  0  0  0
  5  6  1  0  0  0  0
  5 15  1  0  0  0  0
  6 18  1  0  0  0  0
  6 13  1  0  0  0  0
  6  7  1  0  0  0  0
  7  8  1  0  0  0  0
  8 19  1  0  0  0  0
  8  9  1  0  0  0  0
  8 11  1  0  0  0  0
  9 10  1  0  0  0  0
  9 25  1  0  0  0  0
  9 26  1  0  0  0  0
 10 27  1  0  0  0  0
 11 20  1  0  0  0  0
 11 12  1  0  0  0  0
 11 13  1  0  0  0  0
 12 28  1  0  0  0  0
 13 21  1  0  0  0  0
 13 14  1  0  0  0  0
 14 29  1  0  0  0  0
 15 16  2  0  0  0  0
 15 17  1  0  0  0  0
M  END
> <s_m_source_file>
AV-unprocessed.smi

> <i_m_source_file_index>
72

> <i_lp_mmshare_version>
43012

> <i_f3d_flags>
0

> <s_epik_input>
W05IMl1jMW5bY0hdbihjKD1PKW4xKVtDQEBIXTJPW0NASF0oW0NIMl1bT0hdKVtDQEBIXShbT0hdKVtDQEhdMltPSF0=

> <s_epik_cmdline>
J2VwaWtfcHl0aG9uJywgJy1waCcsICc3LjAnLCAnLXRuJywgJzgnLCAnLW1hJywgJzIwMCcsICctbWV0YWxfYmluZGluZycsICctaW1hZScsICc8aW5maWxlLm1hZT4nLCAnLW9tYWUnLCAnPG91dGZpbGUubWFlPic=

> <r_lp_tautomer_probability>
4.77166e-05

> <r_epik_Ionization_Penalty>
1.3546

> <r_epik_Ionization_Penalty_Charging>
1.46833e-10

> <r_epik_Ionization_Penalty_Neutral>
1.3546

> <r_epik_State_Penalty>
3.51908

> <r_epik_Charging_Adjusted_Penalty>
3.51908

> <i_epik_Tot_Q>
0

> <i_epik_Tot_abs_Q>
0

> <r_epik_Metal_State_Penalty>
3.44088

> <b_epik_Metal_Only>
1

> <s_epik_Chemistry_Notes>
This compound contains an acetal/aminal-like group ( X-CH(R)-Y where X, Y are N, S, or O) that may be acid/base labile, releasing an aldehyde.

> <s_lp_Force_Field>
OPLS_2005

> <r_lp_Energy>
30.18

> <b_lp_Chiralities_Consistent>
1

> <s_lp_Variant>
AV-unprocessed.smi:72-81

> <Gold.Version>
5.8.1

> <Gold.Id.Protein>
6NUR|6NUR_protein|mol2

> <Gold.PLP.Fitness>
43.4358

> <Gold.PLP.PLP>
-26.0994

> <Gold.PLP.part.hbond>
-7.4257

> <Gold.PLP.part.metal>
0.0000

> <Gold.PLP.part.buried>
-2.0284

> <Gold.PLP.part.nonpolar>
-17.6759

> <Gold.PLP.part.repulsive>
0.2946

> <Gold.PLP.ligand.clash>
0.0000

> <Gold.PLP.ligand.torsion>
0.0474

> <Gold.PLP.Chemscore.Hbond>
5.8055

> <Gold.PLP.Chemscore.CHOScore>
0.0000

> <Gold.PLP.Chemscore.Metal>
0.0000

> <Gold.Chemscore.Hbonds>
donor molecule, donor type, donor heavy atom, donor atom, acceptor molecule, acceptor atom, score
      L1  H    10    27       P1  8028  1.00
      L1  H    12    28       P1  8028  1.00
      L1  H    14    29       P1  7957  0.91
      P1  H  7997  8010       L1    16  0.99
      P1  H  8011  8017       L1    14  0.75
      P1  H 10752 10764       L1    17  0.74

> <Gold.PLP.Chemscore.Internal.Correction>
0.0148

> <Gold.Rescore>
     Score         DG    S(hbond)    S(metal)    S(lipo)     H(rot)  DE(clash)    DE(int)     intcor
     10.42     -12.32       4.21        0.00      27.19       4.06       0.57       1.33       ----

> <Gold.Chemscore.Fitness>
10.4172

> <Gold.Chemscore.DG>
-12.3188

> <Gold.Chemscore.ZeroCoef>
-5.4800

> <Gold.Chemscore.Hbond>
4.2069

> <Gold.Chemscore.Metal>
0.0000

> <Gold.Chemscore.Lipo>
27.1921

> <Gold.Chemscore.Internal_Hbond>
0.0000

> <Gold.Chemscore.DEClash>
0.5673

> <Gold.Chemscore.DEInternal>
1.3343

> <Gold.Chemscore.Rot>
4.0600

> <Gold.Chemscore.Internal.Correction>
   9.000000E+99

> <Gold.Chemscore.Hbonds>
donor molecule, donor type, donor heavy atom, donor atom, acceptor molecule, acceptor atom, score
      L1  H    10    27       P1  8028  0.76
      L1  H    12    28       P1  8028  1.00
      L1  H    14    29       P1  7957  0.87
      P1  H  7997  8010       L1    16  0.94
      P1  H  8011  8017       L1    14  0.09
      P1  H 10752 10764       L1    17  0.09

> <Gold.Chemscore.Hbond.Weighted>
-14.0509

> <Gold.Chemscore.Metal.Weighted>
-0.0000

> <Gold.Chemscore.Lipo.Weighted>
-3.1815

> <Gold.Chemscore.Internal_Hbond.Weighted>
0.0000

> <Gold.Chemscore.DEClash.Weighted>
0.5673

> <Gold.Chemscore.DEInternal.Weighted>
1.3343

> <Gold.Chemscore.Rot.Weighted>
10.3936

> <Gold.Chemscore.Internal.Correction.Weighted>
   9.000000E+99

> <Gold.Protein.RotatedTorsions>
[ 6907 6896 6895 6894 ] final   87.14 input  -60.11 | X-H torsion
[ 7974 7965 7964 7962 ] final  -91.33 input  175.53 | X-H torsion
[ 8008 7997 7996 7995 ] final   88.11 input   59.86 | X-H torsion
[ 10167 10162 10161 10158 ] final  123.39 input  -65.29 | X-H torsion
[ 10718 10713 10712 10709 ] final   56.75 input   66.30 | X-H torsion
[ 10763 10752 10751 10750 ] final  -26.32 input  -60.55 | X-H torsion
[ 11005 11000 10999 10996 ] final   57.15 input  -57.11 | X-H torsion

> <Gold.Protein.ActiveResidues>
 VAL166  LYS551  ARG553  GLY616  TRP617  ASP618  TYR619  PRO620  LYS621  CYS622 
 ASP623  PHE694  ASN695  SER759  ASP760  ASP761  ALA762  ILE779  LEU786  VAL792 
 PHE793  MET794  SER795  GLU796  ALA797  LYS798  CYS799  TRP800  GLU811  SER814 

> <Gold.Protein.RotatedAtoms>
  152.5406  134.2322  159.8829 H   0  0  0  0  0  0  0  0  0  0  0  0  # atno 6907 bound_to 6896
  151.2294  133.4452  159.2611 H   0  0  0  0  0  0  0  0  0  0  0  0  # atno 6908 bound_to 6896
  151.0730  134.9824  159.8374 H   0  0  0  0  0  0  0  0  0  0  0  0  # atno 6909 bound_to 6896
  145.4145  140.9547  143.2215 H   0  0  0  0  0  0  0  0  0  0  0  0  # atno 7974 bound_to 7965
  155.9837  140.3375  155.6687 H   0  0  0  0  0  0  0  0  0  0  0  0  # atno 8008 bound_to 7997
  155.6514  140.0706  157.2604 H   0  0  0  0  0  0  0  0  0  0  0  0  # atno 8009 bound_to 7997
  154.4199  140.1725  156.1665 H   0  0  0  0  0  0  0  0  0  0  0  0  # atno 8010 bound_to 7997
  139.5802  144.6983  151.3548 H   0  0  0  0  0  0  0  0  0  0  0  0  # atno 10167 bound_to 10162
  157.5457  130.8729  149.8887 H   0  0  0  0  0  0  0  0  0  0  0  0  # atno 10718 bound_to 10713
  153.7140  135.6949  153.5030 H   0  0  0  0  0  0  0  0  0  0  0  0  # atno 10763 bound_to 10752
  153.2252  135.4356  155.0533 H   0  0  0  0  0  0  0  0  0  0  0  0  # atno 10764 bound_to 10752
  154.8306  135.3470  154.6676 H   0  0  0  0  0  0  0  0  0  0  0  0  # atno 10765 bound_to 10752
  140.0474  134.5785  155.9305 H   0  0  0  0  0  0  0  0  0  0  0  0  # atno 11005 bound_to 11000
  144.8286  139.5667  143.6954 LP  0  0  0  0  0  0  0  0  0  0  0  0  # atno 17320 bound_to 7965
  146.2688  139.6584  142.9311 LP  0  0  0  0  0  0  0  0  0  0  0  0  # atno 17321 bound_to 7965
  140.7081  143.7461  150.7518 LP  0  0  0  0  0  0  0  0  0  0  0  0  # atno 17342 bound_to 10162
  140.0992  143.4804  152.2435 LP  0  0  0  0  0  0  0  0  0  0  0  0  # atno 17343 bound_to 10162
  156.0533  130.3713  150.1149 LP  0  0  0  0  0  0  0  0  0  0  0  0  # atno 17370 bound_to 10713
  156.9325  130.9718  151.3530 LP  0  0  0  0  0  0  0  0  0  0  0  0  # atno 17371 bound_to 10713
  141.1914  133.6571  156.5454 LP  0  0  0  0  0  0  0  0  0  0  0  0  # atno 17394 bound_to 11000
  140.3971  134.7389  157.4757 LP  0  0  0  0  0  0  0  0  0  0  0  0  # atno 17395 bound_to 11000

$$$$
