AV-unprocessed.smi:741|AV-procd|sdf|3556|dock2
  -GOLD-   22720 0553D 1   1.00000     0.00000
 Structure written by MMmdl.
 43 44  0  0  0  0  0  0  0  0  3 V2000
  156.9845  139.6890  159.3934 C   0  0  0  0  0  0  0  0  0  0  0  0
  155.7777  139.0156  160.0630 C   0  0  0  0  0  0  0  0  0  0  0  0
  155.3294  139.6987  161.3694 C   0  0  2  0  0  0  0  0  0  0  0  0
  154.2790  138.8421  162.1113 C   0  0  0  0  0  0  0  0  0  0  0  0
  154.8659  137.6541  162.7779 N   0  3  0  0  0  0  0  0  0  0  0  0
  154.4972  137.5033  164.2051 C   0  0  0  0  0  0  0  0  0  0  0  0
  154.2733  136.0050  164.4538 C   0  0  0  0  0  0  0  0  0  0  0  0
  154.8057  135.3158  163.2009 C   0  0  0  0  0  0  0  0  0  0  0  0
  154.5876  136.3628  162.1149 C   0  0  0  0  0  0  0  0  0  0  0  0
  154.7990  141.0315  161.0705 N   0  0  0  0  0  0  0  0  0  0  0  0
  153.6601  141.3021  160.4156 C   0  0  0  0  0  0  0  0  0  0  0  0
  152.9393  140.4355  159.9228 O   0  0  0  0  0  0  0  0  0  0  0  0
  153.4371  142.6265  160.3523 N   0  0  0  0  0  0  0  0  0  0  0  0
  152.3363  143.3152  159.7721 C   0  0  0  0  0  0  0  0  0  0  0  0
  151.3431  142.5387  159.1344 C   0  0  0  0  0  0  0  0  0  0  0  0
  150.2408  143.1774  158.5304 C   0  0  0  0  0  0  0  0  0  0  0  0
  150.1468  144.5240  158.5570 N   0  3  0  0  0  0  0  0  0  0  0  0
  151.0770  145.3092  159.1411 C   0  0  0  0  0  0  0  0  0  0  0  0
  152.2014  144.7273  159.7617 C   0  0  0  0  0  0  0  0  0  0  0  0
  157.2880  139.1382  158.5028 H   0  0  0  0  0  0  0  0  0  0  0  0
  157.8403  139.7231  160.0683 H   0  0  0  0  0  0  0  0  0  0  0  0
  156.7579  140.7099  159.0859 H   0  0  0  0  0  0  0  0  0  0  0  0
  154.9464  138.9819  159.3574 H   0  0  0  0  0  0  0  0  0  0  0  0
  156.0371  137.9773  160.2727 H   0  0  0  0  0  0  0  0  0  0  0  0
  156.2154  139.7912  162.0003 H   0  0  0  0  0  0  0  0  0  0  0  0
  153.7932  139.4642  162.8650 H   0  0  0  0  0  0  0  0  0  0  0  0
  153.4916  138.5191  161.4286 H   0  0  0  0  0  0  0  0  0  0  0  0
  155.3062  137.8929  164.8234 H   0  0  0  0  0  0  0  0  0  0  0  0
  153.5934  138.0632  164.4508 H   0  0  0  0  0  0  0  0  0  0  0  0
  154.7625  135.6528  165.3622 H   0  0  0  0  0  0  0  0  0  0  0  0
  153.2056  135.8062  164.5552 H   0  0  0  0  0  0  0  0  0  0  0  0
  155.8719  135.1136  163.3115 H   0  0  0  0  0  0  0  0  0  0  0  0
  154.3026  134.3720  162.9887 H   0  0  0  0  0  0  0  0  0  0  0  0
  153.5493  136.3315  161.7805 H   0  0  0  0  0  0  0  0  0  0  0  0
  155.2256  136.1984  161.2469 H   0  0  0  0  0  0  0  0  0  0  0  0
  155.3289  141.8119  161.4313 H   0  0  0  0  0  0  0  0  0  0  0  0
  154.1638  143.2167  160.7308 H   0  0  0  0  0  0  0  0  0  0  0  0
  151.4184  141.4611  159.1092 H   0  0  0  0  0  0  0  0  0  0  0  0
  149.4392  142.6558  158.0280 H   0  0  0  0  0  0  0  0  0  0  0  0
  150.8991  146.3735  159.0892 H   0  0  0  0  0  0  0  0  0  0  0  0
  152.9414  145.3770  160.2028 H   0  0  0  0  0  0  0  0  0  0  0  0
  155.8694  137.7686  162.7658 H   0  0  0  0  0  0  0  0  0  0  0  0
  149.3423  144.9671  158.1121 H   0  0  0  0  0  0  0  0  0  0  0  0
  1  2  1  0  0  0  0
  1 20  1  0  0  0  0
  1 21  1  0  0  0  0
  1 22  1  0  0  0  0
  2  3  1  0  0  0  0
  2 23  1  0  0  0  0
  2 24  1  0  0  0  0
  3  4  1  0  0  0  0
  3 10  1  0  0  0  0
  3 25  1  0  0  0  0
  4  5  1  0  0  0  0
  4 26  1  0  0  0  0
  4 27  1  0  0  0  0
  5  9  1  0  0  0  0
  5  6  1  0  0  0  0
  5 42  1  0  0  0  0
  6  7  1  0  0  0  0
  6 28  1  0  0  0  0
  6 29  1  0  0  0  0
  7  8  1  0  0  0  0
  7 30  1  0  0  0  0
  7 31  1  0  0  0  0
  8  9  1  0  0  0  0
  8 32  1  0  0  0  0
  8 33  1  0  0  0  0
  9 34  1  0  0  0  0
  9 35  1  0  0  0  0
 10 11  1  0  0  0  0
 10 36  1  0  0  0  0
 11 12  2  0  0  0  0
 11 13  1  0  0  0  0
 13 14  1  0  0  0  0
 13 37  1  0  0  0  0
 14 19  1  0  0  0  0
 14 15  2  0  0  0  0
 15 16  1  0  0  0  0
 15 38  1  0  0  0  0
 16 17  2  0  0  0  0
 16 39  1  0  0  0  0
 17 18  1  0  0  0  0
 17 43  1  0  0  0  0
 18 19  2  0  0  0  0
 18 40  1  0  0  0  0
 19 41  1  0  0  0  0
M  CHG  1   5   1
M  CHG  1  17   1
M  END
> <s_m_source_file>
AV-unprocessed.smi

> <i_m_source_file_index>
741

> <i_lp_mmshare_version>
43012

> <i_f3d_flags>
0

> <s_epik_input>
W0NIMl0xW0NIMl1bQ0gyXVtDSDJdTjFbQ0gyXVtDQEBIXShbQ0gyXVtDSDNdKVtOSF1DKD1PKVtOSF1jMltjSF1bY0hdbltjSF1bY0hdMg==

> <s_epik_cmdline>
J2VwaWtfcHl0aG9uJywgJy1waCcsICc3LjAnLCAnLXRuJywgJzgnLCAnLW1hJywgJzIwMCcsICctbWV0YWxfYmluZGluZycsICctaW1hZScsICc8aW5maWxlLm1hZT4nLCAnLW9tYWUnLCAnPG91dGZpbGUubWFlPic=

> <r_epik_Ionization_Penalty>
1.10771

> <r_epik_Ionization_Penalty_Charging>
1.10769

> <r_epik_Ionization_Penalty_Neutral>
1.91663e-05

> <r_epik_State_Penalty>
1.16347

> <r_epik_Charging_Adjusted_Penalty>
2.27116

> <i_epik_Tot_Q>
2

> <i_epik_Tot_abs_Q>
2

> <r_epik_Metal_State_Penalty>
1.24871

> <b_epik_Metal_Only>
0

> <s_lp_Force_Field>
OPLS_2005

> <r_lp_Energy>
49.4114

> <b_lp_Chiralities_Consistent>
1

> <s_lp_Variant>
AV-unprocessed.smi:741-3

> <Gold.Version>
5.8.1

> <Gold.Id.Protein>
6NUR|6NUR_protein|mol2

> <Gold.PLP.Fitness>
43.3483

> <Gold.PLP.PLP>
-39.0644

> <Gold.PLP.part.hbond>
-2.7470

> <Gold.PLP.part.metal>
0.0000

> <Gold.PLP.part.buried>
-6.4999

> <Gold.PLP.part.nonpolar>
-31.1889

> <Gold.PLP.part.repulsive>
0.1839

> <Gold.PLP.ligand.clash>
0.0000

> <Gold.PLP.ligand.torsion>
0.8898

> <Gold.PLP.Chemscore.Hbond>
2.0000

> <Gold.PLP.Chemscore.CHOScore>
0.0000

> <Gold.PLP.Chemscore.Metal>
0.0000

> <Gold.Chemscore.Hbonds>
donor molecule, donor type, donor heavy atom, donor atom, acceptor molecule, acceptor atom, score
      L1  H    17    43       P1  8029  2.00

> <Gold.PLP.Chemscore.Internal.Correction>
0.0636

> <Gold.Rescore>
     Score         DG    S(hbond)    S(metal)    S(lipo)     H(rot)  DE(clash)    DE(int)     intcor
     13.07     -16.38       0.92        0.00     102.39       1.63       0.00       3.30       ----

> <Gold.Chemscore.Fitness>
13.0736

> <Gold.Chemscore.DG>
-16.3752

> <Gold.Chemscore.ZeroCoef>
-5.4800

> <Gold.Chemscore.Hbond>
0.9216

> <Gold.Chemscore.Metal>
0.0000

> <Gold.Chemscore.Lipo>
102.3895

> <Gold.Chemscore.Internal_Hbond>
0.0000

> <Gold.Chemscore.DEClash>
0.0048

> <Gold.Chemscore.DEInternal>
3.2968

> <Gold.Chemscore.Rot>
1.6260

> <Gold.Chemscore.Internal.Correction>
   9.000000E+99

> <Gold.Chemscore.Hbonds>
donor molecule, donor type, donor heavy atom, donor atom, acceptor molecule, acceptor atom, score
      L1  H    17    43       P1  8029  0.30

> <Gold.Chemscore.Hbond.Weighted>
-3.0782

> <Gold.Chemscore.Metal.Weighted>
-0.0000

> <Gold.Chemscore.Lipo.Weighted>
-11.9796

> <Gold.Chemscore.Internal_Hbond.Weighted>
0.0000

> <Gold.Chemscore.DEClash.Weighted>
0.0048

> <Gold.Chemscore.DEInternal.Weighted>
3.2968

> <Gold.Chemscore.Rot.Weighted>
4.1626

> <Gold.Chemscore.Internal.Correction.Weighted>
   9.000000E+99

> <Gold.Protein.RotatedTorsions>
[ 6907 6896 6895 6894 ] final  -86.29 input  -60.11 | X-H torsion
[ 7974 7965 7964 7962 ] final   31.07 input  175.53 | X-H torsion
[ 8008 7997 7996 7995 ] final  -99.37 input   59.86 | X-H torsion
[ 10167 10162 10161 10158 ] final   77.18 input  -65.29 | X-H torsion
[ 10718 10713 10712 10709 ] final  -48.62 input   66.30 | X-H torsion
[ 10763 10752 10751 10750 ] final -177.27 input  -60.55 | X-H torsion
[ 11005 11000 10999 10996 ] final  -52.49 input  -57.11 | X-H torsion

> <Gold.Protein.ActiveResidues>
 VAL166  LYS551  ARG553  GLY616  TRP617  ASP618  TYR619  PRO620  LYS621  CYS622 
 ASP623  PHE694  ASN695  SER759  ASP760  ASP761  ALA762  ILE779  LEU786  VAL792 
 PHE793  MET794  SER795  GLU796  ALA797  LYS798  CYS799  TRP800  GLU811  SER814 

> <Gold.Protein.RotatedAtoms>
  150.6867  134.3074  159.4731 H   0  0  0  0  0  0  0  0  0  0  0  0  # atno 6907 bound_to 6896
  152.0963  134.9370  160.0580 H   0  0  0  0  0  0  0  0  0  0  0  0  # atno 6908 bound_to 6896
  152.0666  133.4052  159.4478 H   0  0  0  0  0  0  0  0  0  0  0  0  # atno 6909 bound_to 6896
  146.1573  139.6705  142.9058 H   0  0  0  0  0  0  0  0  0  0  0  0  # atno 7974 bound_to 7965
  154.8139  140.0448  157.1362 H   0  0  0  0  0  0  0  0  0  0  0  0  # atno 8008 bound_to 7997
  154.9337  140.3043  155.5135 H   0  0  0  0  0  0  0  0  0  0  0  0  # atno 8009 bound_to 7997
  156.2974  140.2318  156.4399 H   0  0  0  0  0  0  0  0  0  0  0  0  # atno 8010 bound_to 7997
  139.9843  144.5803  150.7873 H   0  0  0  0  0  0  0  0  0  0  0  0  # atno 10167 bound_to 10162
  156.1970  130.4155  149.9293 H   0  0  0  0  0  0  0  0  0  0  0  0  # atno 10718 bound_to 10713
  154.5622  135.2821  155.0908 H   0  0  0  0  0  0  0  0  0  0  0  0  # atno 10763 bound_to 10752
  154.2313  135.6373  153.5180 H   0  0  0  0  0  0  0  0  0  0  0  0  # atno 10764 bound_to 10752
  153.0032  135.5538  154.6220 H   0  0  0  0  0  0  0  0  0  0  0  0  # atno 10765 bound_to 10752
  141.0927  133.6630  156.4031 H   0  0  0  0  0  0  0  0  0  0  0  0  # atno 11005 bound_to 11000
  145.4677  141.0435  143.2716 LP  0  0  0  0  0  0  0  0  0  0  0  0  # atno 17320 bound_to 7965
  144.7980  139.6197  143.7084 LP  0  0  0  0  0  0  0  0  0  0  0  0  # atno 17321 bound_to 7965
  140.7478  143.2912  151.3327 LP  0  0  0  0  0  0  0  0  0  0  0  0  # atno 17342 bound_to 10162
  139.6386  144.0582  152.2536 LP  0  0  0  0  0  0  0  0  0  0  0  0  # atno 17343 bound_to 10162
  156.7014  130.8934  151.3600 LP  0  0  0  0  0  0  0  0  0  0  0  0  # atno 17370 bound_to 10713
  157.6963  130.9286  150.0655 LP  0  0  0  0  0  0  0  0  0  0  0  0  # atno 17371 bound_to 10713
  140.5214  134.6300  157.5319 LP  0  0  0  0  0  0  0  0  0  0  0  0  # atno 17394 bound_to 11000
  139.9756  134.7221  155.9956 LP  0  0  0  0  0  0  0  0  0  0  0  0  # atno 17395 bound_to 11000

$$$$
