AV-unprocessed.smi:213|AV-procd|sdf|1635|dock10
  -GOLD-   2262019593D 1   1.00000     0.00000
 Structure written by MMmdl.
 59 62  0  0  0  0  0  0  0  0  2 V2000
  151.4750  140.5138  158.4234 C   0  0  0  0  0  0  0  0  0  0  0  0
  151.7956  141.0983  157.0383 C   0  0  2  0  0  0  0  0  0  0  0  0
  151.4868  142.6140  156.9806 C   0  0  0  0  0  0  0  0  0  0  0  0
  151.6902  143.2968  158.2834 N   0  3  0  0  0  0  0  0  0  0  0  0
  153.0280  143.0500  158.8679 C   0  0  0  0  0  0  0  0  0  0  0  0
  153.1278  143.7063  160.2556 C   0  0  0  0  0  0  0  0  0  0  0  0
  152.8565  145.0986  160.1480 O   0  0  0  0  0  0  0  0  0  0  0  0
  151.5448  145.3512  159.6590 C   0  0  0  0  0  0  0  0  0  0  0  0
  151.3967  144.7505  158.2516 C   0  0  0  0  0  0  0  0  0  0  0  0
  151.1258  140.3442  155.9678 N   0  0  0  0  0  0  0  0  0  0  0  0
  151.4071  138.9182  155.8037 C   0  0  0  0  0  0  0  0  0  0  0  0
  149.8854  140.7697  155.6098 C   0  0  0  0  0  0  0  0  0  0  0  0
  149.5426  140.7918  154.2932 N   0  0  0  0  0  0  0  0  0  0  0  0
  148.3160  141.1670  153.9195 C   0  0  0  0  0  0  0  0  0  0  0  0
  147.2921  141.5473  154.6848 N   0  0  0  0  0  0  0  0  0  0  0  0
  147.6304  141.5375  156.0053 C   0  0  0  0  0  0  0  0  0  0  0  0
  148.8926  141.1675  156.5501 C   0  0  0  0  0  0  0  0  0  0  0  0
  148.8618  141.2891  157.9345 N   0  0  0  0  0  0  0  0  0  0  0  0
  147.6516  141.7032  158.1936 C   0  0  0  0  0  0  0  0  0  0  0  0
  146.8460  141.8802  157.0923 N   0  0  0  0  0  0  0  0  0  0  0  0
  145.4675  142.3374  157.0930 C   0  0  0  0  0  0  0  0  0  0  0  0
  145.1948  143.3696  155.9784 C   0  0  1  0  0  0  0  0  0  0  0  0
  145.0435  142.7234  154.7299 O   0  0  0  0  0  0  0  0  0  0  0  0
  143.9628  144.2656  156.2245 C   0  0  2  0  0  0  0  0  0  0  0  0
  143.5596  145.1287  155.0274 C   0  0  0  0  0  0  0  0  0  0  0  0
  142.8166  146.2965  155.6590 C   0  0  0  0  0  0  0  0  0  0  0  0
  143.1584  146.1988  157.1484 C   0  0  0  0  0  0  0  0  0  0  0  0
  144.2052  145.2419  157.2265 O   0  0  0  0  0  0  0  0  0  0  0  0
  152.0681  141.0033  159.1964 H   0  0  0  0  0  0  0  0  0  0  0  0
  151.7056  139.4486  158.4613 H   0  0  0  0  0  0  0  0  0  0  0  0
  150.4262  140.6411  158.6906 H   0  0  0  0  0  0  0  0  0  0  0  0
  152.8720  140.9877  156.9258 H   0  0  0  0  0  0  0  0  0  0  0  0
  152.1334  143.0724  156.2309 H   0  0  0  0  0  0  0  0  0  0  0  0
  150.4643  142.7840  156.6396 H   0  0  0  0  0  0  0  0  0  0  0  0
  153.2016  141.9771  158.9582 H   0  0  0  0  0  0  0  0  0  0  0  0
  153.7983  143.4474  158.2051 H   0  0  0  0  0  0  0  0  0  0  0  0
  152.4320  143.2420  160.9566 H   0  0  0  0  0  0  0  0  0  0  0  0
  154.1297  143.5716  160.6639 H   0  0  0  0  0  0  0  0  0  0  0  0
  150.8015  144.9346  160.3407 H   0  0  0  0  0  0  0  0  0  0  0  0
  151.3791  146.4280  159.6277 H   0  0  0  0  0  0  0  0  0  0  0  0
  152.0770  145.2480  157.5587 H   0  0  0  0  0  0  0  0  0  0  0  0
  150.3847  144.9307  157.8904 H   0  0  0  0  0  0  0  0  0  0  0  0
  151.0277  138.5564  154.8471 H   0  0  0  0  0  0  0  0  0  0  0  0
  150.9424  138.3347  156.5990 H   0  0  0  0  0  0  0  0  0  0  0  0
  152.4781  138.7219  155.8204 H   0  0  0  0  0  0  0  0  0  0  0  0
  148.1260  141.1564  152.8562 H   0  0  0  0  0  0  0  0  0  0  0  0
  147.3118  141.8968  159.2008 H   0  0  0  0  0  0  0  0  0  0  0  0
  144.8132  141.4713  156.9862 H   0  0  0  0  0  0  0  0  0  0  0  0
  145.2562  142.7657  158.0727 H   0  0  0  0  0  0  0  0  0  0  0  0
  146.0671  144.0164  155.8756 H   0  0  0  0  0  0  0  0  0  0  0  0
  144.2129  142.9778  154.3581 H   0  0  0  0  0  0  0  0  0  0  0  0
  143.1043  143.6578  156.5188 H   0  0  0  0  0  0  0  0  0  0  0  0
  144.4404  145.5024  154.5049 H   0  0  0  0  0  0  0  0  0  0  0  0
  142.9521  144.5824  154.3051 H   0  0  0  0  0  0  0  0  0  0  0  0
  143.1487  147.2433  155.2320 H   0  0  0  0  0  0  0  0  0  0  0  0
  141.7398  146.2187  155.5053 H   0  0  0  0  0  0  0  0  0  0  0  0
  143.4671  147.1549  157.5716 H   0  0  0  0  0  0  0  0  0  0  0  0
  142.2994  145.8374  157.7154 H   0  0  0  0  0  0  0  0  0  0  0  0
  151.0286  142.8798  158.9235 H   0  0  0  0  0  0  0  0  0  0  0  0
  1  2  1  0  0  0  0
  1 29  1  0  0  0  0
  1 30  1  0  0  0  0
  1 31  1  0  0  0  0
  2  3  1  0  0  0  0
  2 10  1  0  0  0  0
  2 32  1  0  0  0  0
  3  4  1  0  0  0  0
  3 33  1  0  0  0  0
  3 34  1  0  0  0  0
  4  9  1  0  0  0  0
  4  5  1  0  0  0  0
  4 59  1  0  0  0  0
  5  6  1  0  0  0  0
  5 35  1  0  0  0  0
  5 36  1  0  0  0  0
  6  7  1  0  0  0  0
  6 37  1  0  0  0  0
  6 38  1  0  0  0  0
  7  8  1  0  0  0  0
  8  9  1  0  0  0  0
  8 39  1  0  0  0  0
  8 40  1  0  0  0  0
  9 41  1  0  0  0  0
  9 42  1  0  0  0  0
 10 11  1  0  0  0  0
 10 12  1  0  0  0  0
 11 43  1  0  0  0  0
 11 44  1  0  0  0  0
 11 45  1  0  0  0  0
 12 17  1  0  0  0  0
 12 13  2  0  0  0  0
 13 14  1  0  0  0  0
 14 15  2  0  0  0  0
 14 46  1  0  0  0  0
 15 16  1  0  0  0  0
 16 20  1  0  0  0  0
 16 17  2  0  0  0  0
 17 18  1  0  0  0  0
 18 19  2  0  0  0  0
 19 20  1  0  0  0  0
 19 47  1  0  0  0  0
 20 21  1  0  0  0  0
 21 22  1  0  0  0  0
 21 48  1  0  0  0  0
 21 49  1  0  0  0  0
 22 23  1  0  0  0  0
 22 24  1  0  0  0  0
 22 50  1  0  0  0  0
 23 51  1  0  0  0  0
 24 28  1  0  0  0  0
 24 25  1  0  0  0  0
 24 52  1  0  0  0  0
 25 26  1  0  0  0  0
 25 53  1  0  0  0  0
 25 54  1  0  0  0  0
 26 27  1  0  0  0  0
 26 55  1  0  0  0  0
 26 56  1  0  0  0  0
 27 28  1  0  0  0  0
 27 57  1  0  0  0  0
 27 58  1  0  0  0  0
M  CHG  1   4   1
M  END
> <s_m_source_file>
AV-unprocessed.smi

> <i_m_source_file_index>
213

> <i_lp_mmshare_version>
43012

> <i_f3d_flags>
0

> <s_epik_input>
W0NIMl0xW0NIMl1PW0NIMl1bQ0gyXU4xW0NIMl1bQ0BASF0oW0NIM10pTihbQ0gzXSljKG5bY0hdbjIpYyhjMjMpbltjSF1uM1tDSDJdW0NASF0oW09IXSlbQ0BASF00W0NIMl1bQ0gyXVtDSDJdTzQ=

> <s_epik_cmdline>
J2VwaWtfcHl0aG9uJywgJy1waCcsICc3LjAnLCAnLXRuJywgJzgnLCAnLW1hJywgJzIwMCcsICctbWV0YWxfYmluZGluZycsICctaW1hZScsICc8aW5maWxlLm1hZT4nLCAnLW9tYWUnLCAnPG91dGZpbGUubWFlPic=

> <r_lp_tautomer_probability>
1

> <r_epik_Ionization_Penalty>
0.399679

> <r_epik_Ionization_Penalty_Charging>
0.399433

> <r_epik_Ionization_Penalty_Neutral>
0.000246213

> <r_epik_State_Penalty>
0.286032

> <r_epik_Charging_Adjusted_Penalty>
0.685465

> <i_epik_Tot_Q>
1

> <i_epik_Tot_abs_Q>
1

> <r_epik_Metal_State_Penalty>
0.286072

> <b_epik_Metal_Only>
0

> <s_lp_Force_Field>
OPLS_2005

> <r_lp_Energy>
46.8913

> <b_lp_Chiralities_Consistent>
1

> <s_lp_Variant>
AV-unprocessed.smi:213-3

> <Gold.Version>
5.8.1

> <Gold.Id.Protein>
6NUR|6NUR_protein|mol2

> <Gold.PLP.Fitness>
49.1706

> <Gold.PLP.PLP>
-47.4639

> <Gold.PLP.part.hbond>
-2.4500

> <Gold.PLP.part.metal>
0.0000

> <Gold.PLP.part.buried>
-3.5379

> <Gold.PLP.part.nonpolar>
-42.3885

> <Gold.PLP.part.repulsive>
0.8759

> <Gold.PLP.ligand.clash>
0.0000

> <Gold.PLP.ligand.torsion>
2.2684

> <Gold.PLP.Chemscore.Hbond>
0.6763

> <Gold.PLP.Chemscore.CHOScore>
1.0000

> <Gold.PLP.Chemscore.Metal>
0.0000

> <Gold.Chemscore.Hbonds>
donor molecule, donor type, donor heavy atom, donor atom, acceptor molecule, acceptor atom, score
      P1  H  7989  7998       L1    13  0.28
      L1  C    14    46       P1  7957  0.91

> <Gold.PLP.Chemscore.Internal.Correction>
1.2147

> <Gold.Rescore>
     Score         DG    S(hbond)    S(metal)    S(lipo)     H(rot)  DE(clash)    DE(int)     intcor
      7.92     -12.44       0.69        0.00     101.60       2.83       1.16       3.37       ----

> <Gold.Chemscore.Fitness>
7.9156

> <Gold.Chemscore.DG>
-12.4438

> <Gold.Chemscore.ZeroCoef>
-5.4800

> <Gold.Chemscore.Hbond>
0.6916

> <Gold.Chemscore.Metal>
0.0000

> <Gold.Chemscore.Lipo>
101.5970

> <Gold.Chemscore.Internal_Hbond>
0.0000

> <Gold.Chemscore.DEClash>
1.1607

> <Gold.Chemscore.DEInternal>
3.3675

> <Gold.Chemscore.Rot>
2.8254

> <Gold.Chemscore.Internal.Correction>
   9.000000E+99

> <Gold.Chemscore.Hbonds>
donor molecule, donor type, donor heavy atom, donor atom, acceptor molecule, acceptor atom, score
      P1  H  7989  7998       L1    13  0.05

> <Gold.Chemscore.Hbond.Weighted>
-2.3099

> <Gold.Chemscore.Metal.Weighted>
-0.0000

> <Gold.Chemscore.Lipo.Weighted>
-11.8869

> <Gold.Chemscore.Internal_Hbond.Weighted>
0.0000

> <Gold.Chemscore.DEClash.Weighted>
1.1607

> <Gold.Chemscore.DEInternal.Weighted>
3.3675

> <Gold.Chemscore.Rot.Weighted>
7.2330

> <Gold.Chemscore.Internal.Correction.Weighted>
   9.000000E+99

> <Gold.Protein.RotatedTorsions>
[ 6907 6896 6895 6894 ] final   40.21 input  -60.11 | X-H torsion
[ 7974 7965 7964 7962 ] final  105.15 input  175.53 | X-H torsion
[ 8008 7997 7996 7995 ] final  -80.77 input   59.86 | X-H torsion
[ 10167 10162 10161 10158 ] final  144.04 input  -65.29 | X-H torsion
[ 10718 10713 10712 10709 ] final  154.24 input   66.30 | X-H torsion
[ 10763 10752 10751 10750 ] final -104.16 input  -60.55 | X-H torsion
[ 11005 11000 10999 10996 ] final   72.75 input  -57.11 | X-H torsion

> <Gold.Protein.ActiveResidues>
 VAL166  LYS551  ARG553  GLY616  TRP617  ASP618  TYR619  PRO620  LYS621  CYS622 
 ASP623  PHE694  ASN695  SER759  ASP760  ASP761  ALA762  ILE779  LEU786  VAL792 
 PHE793  MET794  SER795  GLU796  ALA797  LYS798  CYS799  TRP800  GLU811  SER814 

> <Gold.Protein.RotatedAtoms>
  152.1796  134.8765  160.0527 H   0  0  0  0  0  0  0  0  0  0  0  0  # atno 6907 bound_to 6896
  151.9695  133.3716  159.4074 H   0  0  0  0  0  0  0  0  0  0  0  0  # atno 6908 bound_to 6896
  150.6915  134.4079  159.5192 H   0  0  0  0  0  0  0  0  0  0  0  0  # atno 6909 bound_to 6896
  145.3234  139.2506  143.3699 H   0  0  0  0  0  0  0  0  0  0  0  0  # atno 7974 bound_to 7965
  154.5916  140.0658  156.9247 H   0  0  0  0  0  0  0  0  0  0  0  0  # atno 8008 bound_to 7997
  155.2285  140.3335  155.4288 H   0  0  0  0  0  0  0  0  0  0  0  0  # atno 8009 bound_to 7997
  156.2260  140.1819  156.7347 H   0  0  0  0  0  0  0  0  0  0  0  0  # atno 8010 bound_to 7997
  139.4956  144.5999  151.6503 H   0  0  0  0  0  0  0  0  0  0  0  0  # atno 10167 bound_to 10162
  157.2342  131.0745  151.1834 H   0  0  0  0  0  0  0  0  0  0  0  0  # atno 10718 bound_to 10713
  154.7859  135.4796  153.9945 H   0  0  0  0  0  0  0  0  0  0  0  0  # atno 10763 bound_to 10752
  153.1559  135.6800  153.8820 H   0  0  0  0  0  0  0  0  0  0  0  0  # atno 10764 bound_to 10752
  153.8449  135.3174  155.3407 H   0  0  0  0  0  0  0  0  0  0  0  0  # atno 10765 bound_to 10752
  139.9475  134.7287  156.0943 H   0  0  0  0  0  0  0  0  0  0  0  0  # atno 11005 bound_to 11000
  146.3073  140.3796  142.8682 LP  0  0  0  0  0  0  0  0  0  0  0  0  # atno 17320 bound_to 7965
  144.8921  140.7537  143.5920 LP  0  0  0  0  0  0  0  0  0  0  0  0  # atno 17321 bound_to 7965
  140.5646  144.0211  150.6186 LP  0  0  0  0  0  0  0  0  0  0  0  0  # atno 17342 bound_to 10162
  140.3308  143.3079  152.0689 LP  0  0  0  0  0  0  0  0  0  0  0  0  # atno 17343 bound_to 10162
  157.3446  130.7051  149.6403 LP  0  0  0  0  0  0  0  0  0  0  0  0  # atno 17370 bound_to 10713
  155.9673  130.4270  150.4723 LP  0  0  0  0  0  0  0  0  0  0  0  0  # atno 17371 bound_to 10713
  141.1129  133.6637  156.3023 LP  0  0  0  0  0  0  0  0  0  0  0  0  # atno 17394 bound_to 11000
  140.5799  134.5756  157.5477 LP  0  0  0  0  0  0  0  0  0  0  0  0  # atno 17395 bound_to 11000

$$$$
