AV-unprocessed.smi:1251|AV-procd|sdf|5259|dock9
  -GOLD-   22720 4373D 1   1.00000     0.00000
 Structure written by MMmdl.
 39 40  0  0  0  0  0  0  0  0  1 V2000
  151.7141  142.8176  158.1918 C   0  0  0  0  0  0  0  0  0  0  0  0
  151.3007  141.6045  157.3518 C   0  0  0  0  0  0  0  0  0  0  0  0
  150.4778  141.9967  156.1166 C   0  0  0  0  0  0  0  0  0  0  0  0
  150.0651  140.8151  155.3039 C   0  0  0  0  0  0  0  0  0  0  0  0
  150.9456  139.9384  154.8044 N   0  0  0  0  0  0  0  0  0  0  0  0
  150.3294  138.9090  154.1060 N   0  0  0  0  0  0  0  0  0  0  0  0
  148.9990  139.0291  154.1114 C   0  0  0  0  0  0  0  0  0  0  0  0
  148.2382  138.0428  153.4354 N   0  0  0  0  0  0  0  0  0  0  0  0
  146.9588  137.6960  153.6489 C   0  0  0  0  0  0  0  0  0  0  0  0
  146.2189  138.1940  154.4970 O   0  0  0  0  0  0  0  0  0  0  0  0
  146.5794  136.7178  152.8133 N   0  0  0  0  0  0  0  0  0  0  0  0
  145.2565  136.0971  152.7625 C   0  0  1  0  0  0  0  0  0  0  0  0
  144.1916  137.2035  152.7814 C   0  0  0  0  0  0  0  0  0  0  0  0
  145.1290  135.2001  151.5139 C   0  0  1  0  0  0  0  0  0  0  0  0
  146.1518  134.0658  151.4223 C   0  0  0  0  0  0  0  0  0  0  0  0
  145.4514  133.0995  150.4957 C   0  0  0  0  0  0  0  0  0  0  0  0
  143.9994  133.2270  150.9483 C   0  0  0  0  0  0  0  0  0  0  0  0
  143.8679  134.5351  151.5002 O   0  0  0  0  0  0  0  0  0  0  0  0
  148.3783  140.4297  154.9852 S   0  0  0  0  0  0  0  0  0  0  0  0
  152.2954  142.5082  159.0608 H   0  0  0  0  0  0  0  0  0  0  0  0
  150.8416  143.3632  158.5525 H   0  0  0  0  0  0  0  0  0  0  0  0
  152.3258  143.5084  157.6112 H   0  0  0  0  0  0  0  0  0  0  0  0
  152.1951  141.0647  157.0384 H   0  0  0  0  0  0  0  0  0  0  0  0
  150.7253  140.9160  157.9718 H   0  0  0  0  0  0  0  0  0  0  0  0
  149.5819  142.5394  156.4201 H   0  0  0  0  0  0  0  0  0  0  0  0
  151.0528  142.6737  155.4832 H   0  0  0  0  0  0  0  0  0  0  0  0
  148.7248  137.5465  152.7037 H   0  0  0  0  0  0  0  0  0  0  0  0
  147.2621  136.3701  152.1560 H   0  0  0  0  0  0  0  0  0  0  0  0
  145.1023  135.4788  153.6487 H   0  0  0  0  0  0  0  0  0  0  0  0
  143.1858  136.7826  152.7828 H   0  0  0  0  0  0  0  0  0  0  0  0
  144.2783  137.8538  151.9103 H   0  0  0  0  0  0  0  0  0  0  0  0
  144.2856  137.8248  153.6728 H   0  0  0  0  0  0  0  0  0  0  0  0
  145.1928  135.8063  150.6084 H   0  0  0  0  0  0  0  0  0  0  0  0
  147.1209  134.3927  151.0442 H   0  0  0  0  0  0  0  0  0  0  0  0
  146.3026  133.6030  152.3988 H   0  0  0  0  0  0  0  0  0  0  0  0
  145.5547  133.4328  149.4621 H   0  0  0  0  0  0  0  0  0  0  0  0
  145.8334  132.0808  150.5668 H   0  0  0  0  0  0  0  0  0  0  0  0
  143.2977  133.0703  150.1288 H   0  0  0  0  0  0  0  0  0  0  0  0
  143.7761  132.4993  151.7293 H   0  0  0  0  0  0  0  0  0  0  0  0
  1  2  1  0  0  0  0
  1 20  1  0  0  0  0
  1 21  1  0  0  0  0
  1 22  1  0  0  0  0
  2  3  1  0  0  0  0
  2 23  1  0  0  0  0
  2 24  1  0  0  0  0
  3  4  1  0  0  0  0
  3 25  1  0  0  0  0
  3 26  1  0  0  0  0
  4 19  1  0  0  0  0
  4  5  2  0  0  0  0
  5  6  1  0  0  0  0
  6  7  2  0  0  0  0
  7  8  1  0  0  0  0
  7 19  1  0  0  0  0
  8  9  1  0  0  0  0
  8 27  1  0  0  0  0
  9 10  2  0  0  0  0
  9 11  1  0  0  0  0
 11 12  1  0  0  0  0
 11 28  1  0  0  0  0
 12 13  1  0  0  0  0
 12 14  1  0  0  0  0
 12 29  1  0  0  0  0
 13 30  1  0  0  0  0
 13 31  1  0  0  0  0
 13 32  1  0  0  0  0
 14 18  1  0  0  0  0
 14 15  1  0  0  0  0
 14 33  1  0  0  0  0
 15 16  1  0  0  0  0
 15 34  1  0  0  0  0
 15 35  1  0  0  0  0
 16 17  1  0  0  0  0
 16 36  1  0  0  0  0
 16 37  1  0  0  0  0
 17 18  1  0  0  0  0
 17 38  1  0  0  0  0
 17 39  1  0  0  0  0
M  END
> <s_m_source_file>
AV-unprocessed.smi

> <i_m_source_file_index>
1251

> <i_lp_mmshare_version>
43012

> <i_f3d_flags>
0

> <s_epik_input>
W0NIM11bQ0gyXVtDSDJdYzFubmMoczEpW05IXUMoPU8pW05IXVtDQEhdKFtDSDNdKVtDQEBIXTJbQ0gyXVtDSDJdW0NIMl1PMg==

> <s_epik_cmdline>
J2VwaWtfcHl0aG9uJywgJy1waCcsICc3LjAnLCAnLXRuJywgJzgnLCAnLW1hJywgJzIwMCcsICctbWV0YWxfYmluZGluZycsICctaW1hZScsICc8aW5maWxlLm1hZT4nLCAnLW9tYWUnLCAnPG91dGZpbGUubWFlPic=

> <r_lp_tautomer_probability>
1

> <r_epik_Ionization_Penalty>
0.000503621

> <r_epik_Ionization_Penalty_Charging>
0

> <r_epik_Ionization_Penalty_Neutral>
0.000503621

> <r_epik_State_Penalty>
-0

> <r_epik_Charging_Adjusted_Penalty>
0

> <i_epik_Tot_Q>
0

> <i_epik_Tot_abs_Q>
0

> <r_epik_Metal_State_Penalty>
0.219912

> <b_epik_Metal_Only>
0

> <s_lp_Force_Field>
OPLS_2005

> <r_lp_Energy>
11.0911

> <b_lp_Chiralities_Consistent>
1

> <s_lp_Variant>
AV-unprocessed.smi:1251-4

> <Gold.Version>
5.8.1

> <Gold.Id.Protein>
6NUR|6NUR_protein|mol2

> <Gold.PLP.Fitness>
37.0401

> <Gold.PLP.PLP>
-28.7921

> <Gold.PLP.part.hbond>
-2.9332

> <Gold.PLP.part.metal>
0.0000

> <Gold.PLP.part.buried>
-3.2983

> <Gold.PLP.part.nonpolar>
-22.9155

> <Gold.PLP.part.repulsive>
0.5962

> <Gold.PLP.ligand.clash>
0.0000

> <Gold.PLP.ligand.torsion>
0.2558

> <Gold.PLP.Chemscore.Hbond>
2.9120

> <Gold.PLP.Chemscore.CHOScore>
0.0000

> <Gold.PLP.Chemscore.Metal>
0.0000

> <Gold.Chemscore.Hbonds>
donor molecule, donor type, donor heavy atom, donor atom, acceptor molecule, acceptor atom, score
      L1  H     8    27       P1  7948  1.00
      L1  H    11    28       P1  7948  0.90
      P1  H  7989  7998       L1     5  1.00

> <Gold.PLP.Chemscore.Internal.Correction>
0.0236

> <Gold.Rescore>
     Score         DG    S(hbond)    S(metal)    S(lipo)     H(rot)  DE(clash)    DE(int)     intcor
     14.63     -16.22       2.05        0.00      67.80       1.58       0.05       1.54       ----

> <Gold.Chemscore.Fitness>
14.6286

> <Gold.Chemscore.DG>
-16.2185

> <Gold.Chemscore.ZeroCoef>
-5.4800

> <Gold.Chemscore.Hbond>
2.0544

> <Gold.Chemscore.Metal>
0.0000

> <Gold.Chemscore.Lipo>
67.7994

> <Gold.Chemscore.Internal_Hbond>
0.0000

> <Gold.Chemscore.DEClash>
0.0458

> <Gold.Chemscore.DEInternal>
1.5441

> <Gold.Chemscore.Rot>
1.5843

> <Gold.Chemscore.Internal.Correction>
   9.000000E+99

> <Gold.Chemscore.Hbonds>
donor molecule, donor type, donor heavy atom, donor atom, acceptor molecule, acceptor atom, score
      L1  H     8    27       P1  7948  0.92
      L1  H    11    28       P1  7948  0.88
      P1  H  7989  7998       L1     5  0.09

> <Gold.Chemscore.Hbond.Weighted>
-6.8618

> <Gold.Chemscore.Metal.Weighted>
-0.0000

> <Gold.Chemscore.Lipo.Weighted>
-7.9325

> <Gold.Chemscore.Internal_Hbond.Weighted>
0.0000

> <Gold.Chemscore.DEClash.Weighted>
0.0458

> <Gold.Chemscore.DEInternal.Weighted>
1.5441

> <Gold.Chemscore.Rot.Weighted>
4.0558

> <Gold.Chemscore.Internal.Correction.Weighted>
   9.000000E+99

> <Gold.Protein.RotatedTorsions>
[ 6907 6896 6895 6894 ] final  159.53 input  -60.11 | X-H torsion
[ 7974 7965 7964 7962 ] final   -6.16 input  175.53 | X-H torsion
[ 8008 7997 7996 7995 ] final  111.64 input   59.86 | X-H torsion
[ 10167 10162 10161 10158 ] final    1.79 input  -65.29 | X-H torsion
[ 10718 10713 10712 10709 ] final   91.03 input   66.30 | X-H torsion
[ 10763 10752 10751 10750 ] final   16.01 input  -60.55 | X-H torsion
[ 11005 11000 10999 10996 ] final   46.22 input  -57.11 | X-H torsion

> <Gold.Protein.ActiveResidues>
 VAL166  LYS551  ARG553  GLY616  TRP617  ASP618  TYR619  PRO620  LYS621  CYS622 
 ASP623  PHE694  ASN695  SER759  ASP760  ASP761  ALA762  ILE779  LEU786  VAL792 
 PHE793  MET794  SER795  GLU796  ALA797  LYS798  CYS799  TRP800  GLU811  SER814 

> <Gold.Protein.RotatedAtoms>
  151.9842  133.3768  159.4118 H   0  0  0  0  0  0  0  0  0  0  0  0  # atno 6907 bound_to 6896
  150.6930  134.4006  159.5126 H   0  0  0  0  0  0  0  0  0  0  0  0  # atno 6908 bound_to 6896
  152.1730  134.8818  160.0583 H   0  0  0  0  0  0  0  0  0  0  0  0  # atno 6909 bound_to 6896
  146.2337  140.2128  142.8335 H   0  0  0  0  0  0  0  0  0  0  0  0  # atno 7974 bound_to 7965
  156.2138  140.3015  155.9792 H   0  0  0  0  0  0  0  0  0  0  0  0  # atno 8008 bound_to 7997
  155.2658  140.0431  157.3019 H   0  0  0  0  0  0  0  0  0  0  0  0  # atno 8009 bound_to 7997
  154.5737  140.2355  155.8162 H   0  0  0  0  0  0  0  0  0  0  0  0  # atno 8010 bound_to 7997
  140.6666  143.7162  150.7839 H   0  0  0  0  0  0  0  0  0  0  0  0  # atno 10167 bound_to 10162
  157.6960  131.0392  150.3668 H   0  0  0  0  0  0  0  0  0  0  0  0  # atno 10718 bound_to 10713
  153.1471  135.6771  153.8938 H   0  0  0  0  0  0  0  0  0  0  0  0  # atno 10763 bound_to 10752
  153.8377  135.3109  155.3425 H   0  0  0  0  0  0  0  0  0  0  0  0  # atno 10764 bound_to 10752
  154.7833  135.4876  153.9977 H   0  0  0  0  0  0  0  0  0  0  0  0  # atno 10765 bound_to 10752
  140.1389  134.4609  155.8465 H   0  0  0  0  0  0  0  0  0  0  0  0  # atno 11005 bound_to 11000
  144.9693  140.8353  143.5465 LP  0  0  0  0  0  0  0  0  0  0  0  0  # atno 17320 bound_to 7965
  145.2108  139.2206  143.5144 LP  0  0  0  0  0  0  0  0  0  0  0  0  # atno 17321 bound_to 7965
  140.0841  143.4941  152.2514 LP  0  0  0  0  0  0  0  0  0  0  0  0  # atno 17342 bound_to 10162
  139.5917  144.7552  151.3384 LP  0  0  0  0  0  0  0  0  0  0  0  0  # atno 17343 bound_to 10162
  156.4098  130.3932  149.6900 LP  0  0  0  0  0  0  0  0  0  0  0  0  # atno 17370 bound_to 10713
  156.4188  130.7758  151.2775 LP  0  0  0  0  0  0  0  0  0  0  0  0  # atno 17371 bound_to 10713
  141.2183  133.6825  156.7209 LP  0  0  0  0  0  0  0  0  0  0  0  0  # atno 17394 bound_to 11000
  140.2747  134.8364  157.3879 LP  0  0  0  0  0  0  0  0  0  0  0  0  # atno 17395 bound_to 11000

$$$$
