AV-unprocessed.smi:320|AV-procd|sdf|2333|dock8
  -GOLD-   2262022233D 1   1.00000     0.00000
 Structure written by MMmdl.
 49 52  0  0  0  0  0  0  0  0  1 V2000
  148.8167  141.7369  156.8100 C   0  0  0  0  0  0  0  0  0  0  0  0
  149.7367  141.3083  157.9695 C   0  0  1  0  0  0  0  0  0  0  0  0
  150.4962  140.1355  157.5316 N   0  0  0  0  0  0  0  0  0  0  0  0
  151.1144  139.9853  156.3498 C   0  0  0  0  0  0  0  0  0  0  0  0
  151.1388  140.8557  155.4789 O   0  0  0  0  0  0  0  0  0  0  0  0
  151.8238  138.6424  156.1299 C   0  0  0  0  0  0  0  0  0  0  0  0
  150.8930  137.5515  155.7970 N   0  0  0  0  0  0  0  0  0  0  0  0
  149.6144  137.9158  155.3293 C   0  0  0  0  0  0  0  0  0  0  0  0
  148.6896  136.9987  155.0038 C   0  0  0  0  0  0  0  0  0  0  0  0
  149.0335  135.6034  155.1425 C   0  0  0  0  0  0  0  0  0  0  0  0
  150.2528  135.2440  155.5907 C   0  0  0  0  0  0  0  0  0  0  0  0
  151.2667  136.2430  155.9489 C   0  0  0  0  0  0  0  0  0  0  0  0
  152.3828  135.9234  156.3603 O   0  0  0  0  0  0  0  0  0  0  0  0
  150.6836  142.4229  158.5221 C   0  0  0  0  0  0  0  0  0  0  0  0
  151.4197  143.1894  157.3852 C   0  0  0  0  0  0  0  0  0  0  0  0
  152.3542  144.2693  157.9734 C   0  0  2  0  0  0  0  0  0  0  0  0
  153.4113  143.6047  158.8789 C   0  0  0  0  0  0  0  0  0  0  0  0
  152.6990  142.8683  160.0317 C   0  0  1  0  0  0  0  0  0  0  0  0
  151.8753  143.8715  160.8626 C   0  0  0  0  0  0  0  0  0  0  0  0
  150.8236  144.5343  159.9514 C   0  0  1  0  0  0  0  0  0  0  0  0
  151.5284  145.2783  158.7983 C   0  0  0  0  0  0  0  0  0  0  0  0
  149.8856  143.4552  159.3699 C   0  0  0  0  0  0  0  0  0  0  0  0
  151.7635  141.7887  159.4500 C   0  0  0  0  0  0  0  0  0  0  0  0
  148.1394  142.5395  157.0979 H   0  0  0  0  0  0  0  0  0  0  0  0
  148.1902  140.9031  156.4911 H   0  0  0  0  0  0  0  0  0  0  0  0
  149.3820  142.0660  155.9382 H   0  0  0  0  0  0  0  0  0  0  0  0
  149.0741  141.0205  158.7877 H   0  0  0  0  0  0  0  0  0  0  0  0
  150.5365  139.3624  158.1798 H   0  0  0  0  0  0  0  0  0  0  0  0
  152.5623  138.7765  155.3385 H   0  0  0  0  0  0  0  0  0  0  0  0
  152.4011  138.3787  157.0184 H   0  0  0  0  0  0  0  0  0  0  0  0
  149.4337  138.9788  155.2612 H   0  0  0  0  0  0  0  0  0  0  0  0
  147.7128  137.2963  154.6520 H   0  0  0  0  0  0  0  0  0  0  0  0
  148.3088  134.8440  154.8877 H   0  0  0  0  0  0  0  0  0  0  0  0
  150.4912  134.1953  155.6896 H   0  0  0  0  0  0  0  0  0  0  0  0
  152.0025  142.5024  156.7707 H   0  0  0  0  0  0  0  0  0  0  0  0
  150.7035  143.6651  156.7152 H   0  0  0  0  0  0  0  0  0  0  0  0
  152.8554  144.7941  157.1595 H   0  0  0  0  0  0  0  0  0  0  0  0
  154.0186  142.9064  158.3015 H   0  0  0  0  0  0  0  0  0  0  0  0
  154.0962  144.3553  159.2755 H   0  0  0  0  0  0  0  0  0  0  0  0
  153.4435  142.3943  160.6721 H   0  0  0  0  0  0  0  0  0  0  0  0
  151.3883  143.3635  161.6960 H   0  0  0  0  0  0  0  0  0  0  0  0
  152.5286  144.6275  161.3003 H   0  0  0  0  0  0  0  0  0  0  0  0
  150.2380  145.2453  160.5350 H   0  0  0  0  0  0  0  0  0  0  0  0
  152.1749  146.0624  159.1939 H   0  0  0  0  0  0  0  0  0  0  0  0
  150.7938  145.7754  158.1633 H   0  0  0  0  0  0  0  0  0  0  0  0
  149.1259  143.9506  158.7661 H   0  0  0  0  0  0  0  0  0  0  0  0
  149.3540  142.9508  160.1781 H   0  0  0  0  0  0  0  0  0  0  0  0
  151.2863  141.2371  160.2613 H   0  0  0  0  0  0  0  0  0  0  0  0
  152.3678  141.0619  158.9066 H   0  0  0  0  0  0  0  0  0  0  0  0
  1  2  1  0  0  0  0
  1 24  1  0  0  0  0
  1 25  1  0  0  0  0
  1 26  1  0  0  0  0
  2  3  1  0  0  0  0
  2 14  1  0  0  0  0
  2 27  1  0  0  0  0
  3  4  1  0  0  0  0
  3 28  1  0  0  0  0
  4  5  2  0  0  0  0
  4  6  1  0  0  0  0
  6  7  1  0  0  0  0
  6 29  1  0  0  0  0
  6 30  1  0  0  0  0
  7 12  1  0  0  0  0
  7  8  1  0  0  0  0
  8  9  2  0  0  0  0
  8 31  1  0  0  0  0
  9 10  1  0  0  0  0
  9 32  1  0  0  0  0
 10 11  2  0  0  0  0
 10 33  1  0  0  0  0
 11 12  1  0  0  0  0
 11 34  1  0  0  0  0
 12 13  2  0  0  0  0
 14 22  1  0  0  0  0
 14 23  1  0  0  0  0
 14 15  1  0  0  0  0
 15 16  1  0  0  0  0
 15 35  1  0  0  0  0
 15 36  1  0  0  0  0
 16 21  1  0  0  0  0
 16 17  1  0  0  0  0
 16 37  1  0  0  0  0
 17 18  1  0  0  0  0
 17 38  1  0  0  0  0
 17 39  1  0  0  0  0
 18 19  1  0  0  0  0
 18 23  1  0  0  0  0
 18 40  1  0  0  0  0
 19 20  1  0  0  0  0
 19 41  1  0  0  0  0
 19 42  1  0  0  0  0
 20 21  1  0  0  0  0
 20 22  1  0  0  0  0
 20 43  1  0  0  0  0
 21 44  1  0  0  0  0
 21 45  1  0  0  0  0
 22 46  1  0  0  0  0
 22 47  1  0  0  0  0
 23 48  1  0  0  0  0
 23 49  1  0  0  0  0
M  END
> <s_m_source_file>
AV-unprocessed.smi

> <i_m_source_file_index>
320

> <i_lp_mmshare_version>
43012

> <i_f3d_flags>
0

> <s_epik_input>
W0NIMl0xW0NAQEhdKFtDSDJdMilbQ0gyXVtDQEBIXShbQ0gyXTMpW0NIMl1bQ0BIXTFbQ0gyXUMyM1tDQEhdKFtDSDNdKVtOSF1DKD1PKVtDSDJdbjRbY0hdW2NIXVtjSF1bY0hdYzQ9Tw==

> <s_epik_cmdline>
J2VwaWtfcHl0aG9uJywgJy1waCcsICc3LjAnLCAnLXRuJywgJzgnLCAnLW1hJywgJzIwMCcsICctbWV0YWxfYmluZGluZycsICctaW1hZScsICc8aW5maWxlLm1hZT4nLCAnLW9tYWUnLCAnPG91dGZpbGUubWFlPic=

> <r_lp_tautomer_probability>
1

> <r_epik_Ionization_Penalty>
4.15949e-07

> <r_epik_Ionization_Penalty_Charging>
3.97363e-07

> <r_epik_Ionization_Penalty_Neutral>
1.85865e-08

> <r_epik_State_Penalty>
-0

> <r_epik_Charging_Adjusted_Penalty>
3.97363e-07

> <i_epik_Tot_Q>
0

> <i_epik_Tot_abs_Q>
0

> <r_epik_Metal_State_Penalty>
-0

> <b_epik_Metal_Only>
0

> <s_lp_Force_Field>
OPLS_2005

> <r_lp_Energy>
45.3355

> <b_lp_Chiralities_Consistent>
1

> <s_lp_Variant>
AV-unprocessed.smi:320-2

> <Gold.Version>
5.8.1

> <Gold.Id.Protein>
6NUR|6NUR_protein|mol2

> <Gold.PLP.Fitness>
43.0378

> <Gold.PLP.PLP>
-39.9347

> <Gold.PLP.part.hbond>
-2.0000

> <Gold.PLP.part.metal>
0.0000

> <Gold.PLP.part.buried>
-2.6930

> <Gold.PLP.part.nonpolar>
-34.3355

> <Gold.PLP.part.repulsive>
0.0965

> <Gold.PLP.ligand.clash>
0.0000

> <Gold.PLP.ligand.torsion>
1.0629

> <Gold.PLP.Chemscore.Hbond>
1.7296

> <Gold.PLP.Chemscore.CHOScore>
0.0000

> <Gold.PLP.Chemscore.Metal>
0.0000

> <Gold.Chemscore.Hbonds>
donor molecule, donor type, donor heavy atom, donor atom, acceptor molecule, acceptor atom, score
      P1  H  7989  7998       L1     5  0.74
      P1  H 10752 10763       L1    13  1.00

> <Gold.PLP.Chemscore.Internal.Correction>
0.0402

> <Gold.Rescore>
     Score         DG    S(hbond)    S(metal)    S(lipo)     H(rot)  DE(clash)    DE(int)     intcor
     19.69     -22.38       1.75        0.00     127.73       1.52       0.30       2.40       ----

> <Gold.Chemscore.Fitness>
19.6855

> <Gold.Chemscore.DG>
-22.3836

> <Gold.Chemscore.ZeroCoef>
-5.4800

> <Gold.Chemscore.Hbond>
1.7516

> <Gold.Chemscore.Metal>
0.0000

> <Gold.Chemscore.Lipo>
127.7346

> <Gold.Chemscore.Internal_Hbond>
0.0000

> <Gold.Chemscore.DEClash>
0.3003

> <Gold.Chemscore.DEInternal>
2.3977

> <Gold.Chemscore.Rot>
1.5202

> <Gold.Chemscore.Internal.Correction>
   9.000000E+99

> <Gold.Chemscore.Hbonds>
donor molecule, donor type, donor heavy atom, donor atom, acceptor molecule, acceptor atom, score
      P1  H  7989  7998       L1     5  0.69
      P1  H 10752 10763       L1    13  0.48

> <Gold.Chemscore.Hbond.Weighted>
-5.8503

> <Gold.Chemscore.Metal.Weighted>
-0.0000

> <Gold.Chemscore.Lipo.Weighted>
-14.9450

> <Gold.Chemscore.Internal_Hbond.Weighted>
0.0000

> <Gold.Chemscore.DEClash.Weighted>
0.3003

> <Gold.Chemscore.DEInternal.Weighted>
2.3977

> <Gold.Chemscore.Rot.Weighted>
3.8916

> <Gold.Chemscore.Internal.Correction.Weighted>
   9.000000E+99

> <Gold.Protein.RotatedTorsions>
[ 6907 6896 6895 6894 ] final  -76.29 input  -60.11 | X-H torsion
[ 7974 7965 7964 7962 ] final  -89.40 input  175.53 | X-H torsion
[ 8008 7997 7996 7995 ] final   -6.05 input   59.86 | X-H torsion
[ 10167 10162 10161 10158 ] final  161.82 input  -65.29 | X-H torsion
[ 10718 10713 10712 10709 ] final   34.18 input   66.30 | X-H torsion
[ 10763 10752 10751 10750 ] final   91.37 input  -60.55 | X-H torsion
[ 11005 11000 10999 10996 ] final -156.01 input  -57.11 | X-H torsion

> <Gold.Protein.ActiveResidues>
 VAL166  LYS551  ARG553  GLY616  TRP617  ASP618  TYR619  PRO620  LYS621  CYS622 
 ASP623  PHE694  ASN695  SER759  ASP760  ASP761  ALA762  ILE779  LEU786  VAL792 
 PHE793  MET794  SER795  GLU796  ALA797  LYS798  CYS799  TRP800  GLU811  SER814 

> <Gold.Protein.RotatedAtoms>
  150.7032  134.4593  159.5372 H   0  0  0  0  0  0  0  0  0  0  0  0  # atno 6907 bound_to 6896
  152.2271  134.8355  160.0487 H   0  0  0  0  0  0  0  0  0  0  0  0  # atno 6908 bound_to 6896
  151.9184  133.3544  159.3925 H   0  0  0  0  0  0  0  0  0  0  0  0  # atno 6909 bound_to 6896
  145.4403  140.9559  143.2079 H   0  0  0  0  0  0  0  0  0  0  0  0  # atno 7974 bound_to 7965
  154.5976  140.2443  155.7835 H   0  0  0  0  0  0  0  0  0  0  0  0  # atno 8008 bound_to 7997
  156.2290  140.2973  156.0092 H   0  0  0  0  0  0  0  0  0  0  0  0  # atno 8009 bound_to 7997
  155.2265  140.0402  157.2946 H   0  0  0  0  0  0  0  0  0  0  0  0  # atno 8010 bound_to 7997
  139.4853  144.4499  151.8844 H   0  0  0  0  0  0  0  0  0  0  0  0  # atno 10167 bound_to 10162
  157.3072  130.7380  149.6702 H   0  0  0  0  0  0  0  0  0  0  0  0  # atno 10718 bound_to 10713
  153.2076  135.4400  155.0341 H   0  0  0  0  0  0  0  0  0  0  0  0  # atno 10763 bound_to 10752
  154.8182  135.3325  154.7118 H   0  0  0  0  0  0  0  0  0  0  0  0  # atno 10764 bound_to 10752
  153.7558  135.6995  153.4991 H   0  0  0  0  0  0  0  0  0  0  0  0  # atno 10765 bound_to 10752
  140.6803  134.4152  157.5227 H   0  0  0  0  0  0  0  0  0  0  0  0  # atno 11005 bound_to 11000
  144.8126  139.5935  143.7023 LP  0  0  0  0  0  0  0  0  0  0  0  0  # atno 17320 bound_to 7965
  146.2560  139.6303  142.9395 LP  0  0  0  0  0  0  0  0  0  0  0  0  # atno 17321 bound_to 7965
  140.3955  144.2561  150.5896 LP  0  0  0  0  0  0  0  0  0  0  0  0  # atno 17342 bound_to 10162
  140.5106  143.2291  151.8541 LP  0  0  0  0  0  0  0  0  0  0  0  0  # atno 17343 bound_to 10162
  155.9675  130.4262  150.4689 LP  0  0  0  0  0  0  0  0  0  0  0  0  # atno 17370 bound_to 10713
  157.2681  131.0581  151.2277 LP  0  0  0  0  0  0  0  0  0  0  0  0  # atno 17371 bound_to 10713
  139.8954  134.8684  156.2134 LP  0  0  0  0  0  0  0  0  0  0  0  0  # atno 17394 bound_to 11000
  141.0323  133.6982  156.1451 LP  0  0  0  0  0  0  0  0  0  0  0  0  # atno 17395 bound_to 11000

$$$$
