AV-unprocessed.smi:727|AV-procd|sdf|3517|dock3
  -GOLD-   22720 0513D 1   1.00000     0.00000
 Structure written by MMmdl.
 38 39  0  0  0  0  0  0  0  0  1 V2000
  150.9961  140.2539  155.5697 C   0  0  0  0  0  0  0  0  0  0  0  0
  149.7426  140.3137  154.8129 N   0  0  0  0  0  0  0  0  0  0  0  0
  149.0992  141.5591  154.7183 C   0  0  0  0  0  0  0  0  0  0  0  0
  147.9509  141.7075  154.0436 C   0  0  0  0  0  0  0  0  0  0  0  0
  147.3741  140.5483  153.4058 C   0  0  0  0  0  0  0  0  0  0  0  0
  147.9755  139.3343  153.4889 C   0  0  0  0  0  0  0  0  0  0  0  0
  147.4919  138.1529  152.8977 N   0  0  0  0  0  0  0  0  0  0  0  0
  146.2256  137.7595  152.6655 C   0  0  0  0  0  0  0  0  0  0  0  0
  145.2082  138.3890  152.9533 O   0  0  0  0  0  0  0  0  0  0  0  0
  146.2040  136.5571  152.0721 N   0  0  0  0  0  0  0  0  0  0  0  0
  145.0044  135.8184  151.6867 C   0  0  0  0  0  0  0  0  0  0  0  0
  145.3342  134.4407  151.0754 C   0  0  1  0  0  0  0  0  0  0  0  0
  146.0891  133.5608  152.0970 C   0  0  0  0  0  0  0  0  0  0  0  0
  146.2243  132.1183  151.6448 C   0  0  0  0  0  0  0  0  0  0  0  0
  145.5003  131.5850  150.6473 C   0  0  0  0  0  0  0  0  0  0  0  0
  144.4617  132.3642  149.8629 C   0  0  0  0  0  0  0  0  0  0  0  0
  144.0910  133.6964  150.5413 C   0  0  0  0  0  0  0  0  0  0  0  0
  149.2443  139.1835  154.2288 C   0  0  0  0  0  0  0  0  0  0  0  0
  149.8339  138.1041  154.3248 O   0  0  0  0  0  0  0  0  0  0  0  0
  151.2723  141.2151  156.0046 H   0  0  0  0  0  0  0  0  0  0  0  0
  151.8180  139.9407  154.9242 H   0  0  0  0  0  0  0  0  0  0  0  0
  150.9160  139.5391  156.3901 H   0  0  0  0  0  0  0  0  0  0  0  0
  149.5927  142.3776  155.2220 H   0  0  0  0  0  0  0  0  0  0  0  0
  147.4682  142.6714  153.9781 H   0  0  0  0  0  0  0  0  0  0  0  0
  146.4583  140.6990  152.8589 H   0  0  0  0  0  0  0  0  0  0  0  0
  148.2136  137.4987  152.6320 H   0  0  0  0  0  0  0  0  0  0  0  0
  147.0888  136.1129  151.8746 H   0  0  0  0  0  0  0  0  0  0  0  0
  144.4067  135.6824  152.5886 H   0  0  0  0  0  0  0  0  0  0  0  0
  144.3851  136.3980  151.0000 H   0  0  0  0  0  0  0  0  0  0  0  0
  146.0034  134.6064  150.2293 H   0  0  0  0  0  0  0  0  0  0  0  0
  147.0845  133.9697  152.2730 H   0  0  0  0  0  0  0  0  0  0  0  0
  145.5726  133.5604  153.0576 H   0  0  0  0  0  0  0  0  0  0  0  0
  146.9383  131.5061  152.1762 H   0  0  0  0  0  0  0  0  0  0  0  0
  145.6534  130.5540  150.3637 H   0  0  0  0  0  0  0  0  0  0  0  0
  144.8612  132.5474  148.8651 H   0  0  0  0  0  0  0  0  0  0  0  0
  143.5688  131.7507  149.7397 H   0  0  0  0  0  0  0  0  0  0  0  0
  143.4070  133.5046  151.3691 H   0  0  0  0  0  0  0  0  0  0  0  0
  143.5415  134.3101  149.8278 H   0  0  0  0  0  0  0  0  0  0  0  0
  1  2  1  0  0  0  0
  1 20  1  0  0  0  0
  1 21  1  0  0  0  0
  1 22  1  0  0  0  0
  2 18  1  0  0  0  0
  2  3  1  0  0  0  0
  3  4  2  0  0  0  0
  3 23  1  0  0  0  0
  4  5  1  0  0  0  0
  4 24  1  0  0  0  0
  5  6  2  0  0  0  0
  5 25  1  0  0  0  0
  6  7  1  0  0  0  0
  6 18  1  0  0  0  0
  7  8  1  0  0  0  0
  7 26  1  0  0  0  0
  8  9  2  0  0  0  0
  8 10  1  0  0  0  0
 10 11  1  0  0  0  0
 10 27  1  0  0  0  0
 11 12  1  0  0  0  0
 11 28  1  0  0  0  0
 11 29  1  0  0  0  0
 12 17  1  0  0  0  0
 12 13  1  0  0  0  0
 12 30  1  0  0  0  0
 13 14  1  0  0  0  0
 13 31  1  0  0  0  0
 13 32  1  0  0  0  0
 14 15  2  0  0  0  0
 14 33  1  0  0  0  0
 15 16  1  0  0  0  0
 15 34  1  0  0  0  0
 16 17  1  0  0  0  0
 16 35  1  0  0  0  0
 16 36  1  0  0  0  0
 17 37  1  0  0  0  0
 17 38  1  0  0  0  0
 18 19  2  0  0  0  0
M  END
> <s_m_source_file>
AV-unprocessed.smi

> <i_m_source_file_index>
727

> <i_lp_mmshare_version>
43012

> <i_f3d_flags>
0

> <s_epik_input>
W0NIM11uMVtjSF1bY0hdW2NIXWMoYzE9TylbTkhdQyg9TylbTkhdW0NIMl1bQ0BASF0yW0NIMl1bQ0hdPVtDSF1bQ0gyXVtDSDJdMg==

> <s_epik_cmdline>
J2VwaWtfcHl0aG9uJywgJy1waCcsICc3LjAnLCAnLXRuJywgJzgnLCAnLW1hJywgJzIwMCcsICctbWV0YWxfYmluZGluZycsICctaW1hZScsICc8aW5maWxlLm1hZT4nLCAnLW9tYWUnLCAnPG91dGZpbGUubWFlPic=

> <r_lp_tautomer_probability>
1

> <r_epik_Ionization_Penalty>
2.60682e-05

> <r_epik_Ionization_Penalty_Charging>
4.8094e-06

> <r_epik_Ionization_Penalty_Neutral>
2.12588e-05

> <r_epik_State_Penalty>
-0

> <r_epik_Charging_Adjusted_Penalty>
4.8094e-06

> <i_epik_Tot_Q>
0

> <i_epik_Tot_abs_Q>
0

> <r_epik_Metal_State_Penalty>
-0

> <b_epik_Metal_Only>
0

> <s_lp_Force_Field>
OPLS_2005

> <r_lp_Energy>
21.4957

> <b_lp_Chiralities_Consistent>
1

> <s_lp_Variant>
AV-unprocessed.smi:727-2

> <Gold.Version>
5.8.1

> <Gold.Id.Protein>
6NUR|6NUR_protein|mol2

> <Gold.PLP.Fitness>
44.8412

> <Gold.PLP.PLP>
-36.2816

> <Gold.PLP.part.hbond>
-2.0748

> <Gold.PLP.part.metal>
0.0000

> <Gold.PLP.part.buried>
-2.8688

> <Gold.PLP.part.nonpolar>
-35.7810

> <Gold.PLP.part.repulsive>
3.6244

> <Gold.PLP.ligand.clash>
0.0000

> <Gold.PLP.ligand.torsion>
0.2147

> <Gold.PLP.Chemscore.Hbond>
1.9920

> <Gold.PLP.Chemscore.CHOScore>
1.0000

> <Gold.PLP.Chemscore.Metal>
0.0000

> <Gold.Chemscore.Hbonds>
donor molecule, donor type, donor heavy atom, donor atom, acceptor molecule, acceptor atom, score
      L1  H     7    26       P1  7948  1.00
      L1  H    10    27       P1  7948  0.98
      L1  C     3    23       P1  8028  1.00

> <Gold.PLP.Chemscore.Internal.Correction>
0.0130

> <Gold.Rescore>
     Score         DG    S(hbond)    S(metal)    S(lipo)     H(rot)  DE(clash)    DE(int)     intcor
     17.42     -19.28       1.91        0.00      90.03       1.21       1.58       0.28       ----

> <Gold.Chemscore.Fitness>
17.4184

> <Gold.Chemscore.DG>
-19.2786

> <Gold.Chemscore.ZeroCoef>
-5.4800

> <Gold.Chemscore.Hbond>
1.9052

> <Gold.Chemscore.Metal>
0.0000

> <Gold.Chemscore.Lipo>
90.0306

> <Gold.Chemscore.Internal_Hbond>
0.0000

> <Gold.Chemscore.DEClash>
1.5823

> <Gold.Chemscore.DEInternal>
0.2779

> <Gold.Chemscore.Rot>
1.2103

> <Gold.Chemscore.Internal.Correction>
   9.000000E+99

> <Gold.Chemscore.Hbonds>
donor molecule, donor type, donor heavy atom, donor atom, acceptor molecule, acceptor atom, score
      L1  H     7    26       P1  7948  0.99
      L1  H    10    27       P1  7948  0.93

> <Gold.Chemscore.Hbond.Weighted>
-6.3635

> <Gold.Chemscore.Metal.Weighted>
-0.0000

> <Gold.Chemscore.Lipo.Weighted>
-10.5336

> <Gold.Chemscore.Internal_Hbond.Weighted>
0.0000

> <Gold.Chemscore.DEClash.Weighted>
1.5823

> <Gold.Chemscore.DEInternal.Weighted>
0.2779

> <Gold.Chemscore.Rot.Weighted>
3.0984

> <Gold.Chemscore.Internal.Correction.Weighted>
   9.000000E+99

> <Gold.Protein.RotatedTorsions>
[ 6907 6896 6895 6894 ] final -178.24 input  -60.11 | X-H torsion
[ 7974 7965 7964 7962 ] final  171.59 input  175.53 | X-H torsion
[ 8008 7997 7996 7995 ] final  -23.41 input   59.86 | X-H torsion
[ 10167 10162 10161 10158 ] final  102.13 input  -65.29 | X-H torsion
[ 10718 10713 10712 10709 ] final  -58.59 input   66.30 | X-H torsion
[ 10763 10752 10751 10750 ] final  110.15 input  -60.55 | X-H torsion
[ 11005 11000 10999 10996 ] final   37.92 input  -57.11 | X-H torsion

> <Gold.Protein.ActiveResidues>
 VAL166  LYS551  ARG553  GLY616  TRP617  ASP618  TYR619  PRO620  LYS621  CYS622 
 ASP623  PHE694  ASN695  SER759  ASP760  ASP761  ALA762  ILE779  LEU786  VAL792 
 PHE793  MET794  SER795  GLU796  ALA797  LYS798  CYS799  TRP800  GLU811  SER814 

> <Gold.Protein.RotatedAtoms>
  151.6340  133.3330  159.3114 H   0  0  0  0  0  0  0  0  0  0  0  0  # atno 6907 bound_to 6896
  150.8042  134.7160  159.6640 H   0  0  0  0  0  0  0  0  0  0  0  0  # atno 6908 bound_to 6896
  152.4136  134.6085  160.0070 H   0  0  0  0  0  0  0  0  0  0  0  0  # atno 6909 bound_to 6896
  144.7290  139.9373  143.6427 H   0  0  0  0  0  0  0  0  0  0  0  0  # atno 7974 bound_to 7965
  154.4587  140.1981  156.0306 H   0  0  0  0  0  0  0  0  0  0  0  0  # atno 8008 bound_to 7997
  156.0797  140.3273  155.7650 H   0  0  0  0  0  0  0  0  0  0  0  0  # atno 8009 bound_to 7997
  155.5131  140.0563  157.2911 H   0  0  0  0  0  0  0  0  0  0  0  0  # atno 8010 bound_to 7997
  139.7377  144.7019  151.0624 H   0  0  0  0  0  0  0  0  0  0  0  0  # atno 10167 bound_to 10162
  156.1123  130.4174  150.0599 H   0  0  0  0  0  0  0  0  0  0  0  0  # atno 10718 bound_to 10713
  153.4448  135.3757  155.2249 H   0  0  0  0  0  0  0  0  0  0  0  0  # atno 10763 bound_to 10752
  154.8755  135.3871  154.4109 H   0  0  0  0  0  0  0  0  0  0  0  0  # atno 10764 bound_to 10752
  153.4660  135.7087  153.6085 H   0  0  0  0  0  0  0  0  0  0  0  0  # atno 10765 bound_to 10752
  140.2177  134.3678  155.8019 H   0  0  0  0  0  0  0  0  0  0  0  0  # atno 11005 bound_to 11000
  146.0812  139.3799  143.0463 LP  0  0  0  0  0  0  0  0  0  0  0  0  # atno 17320 bound_to 7965
  145.7839  140.9844  143.1085 LP  0  0  0  0  0  0  0  0  0  0  0  0  # atno 17321 bound_to 7965
  140.7781  143.4963  150.9828 LP  0  0  0  0  0  0  0  0  0  0  0  0  # atno 17342 bound_to 10162
  139.8652  143.7263  152.3170 LP  0  0  0  0  0  0  0  0  0  0  0  0  # atno 17343 bound_to 10162
  156.8559  130.9475  151.3622 LP  0  0  0  0  0  0  0  0  0  0  0  0  # atno 17370 bound_to 10713
  157.6305  130.8725  149.9266 LP  0  0  0  0  0  0  0  0  0  0  0  0  # atno 17371 bound_to 10713
  141.2224  133.7177  156.8524 LP  0  0  0  0  0  0  0  0  0  0  0  0  # atno 17394 bound_to 11000
  140.1883  134.8984  157.3030 LP  0  0  0  0  0  0  0  0  0  0  0  0  # atno 17395 bound_to 11000

$$$$
