AV-unprocessed.smi:1129|AV-procd|sdf|4847|dock5
  -GOLD-   22720 3413D 1   1.00000     0.00000
 Structure written by MMmdl.
 40 41  0  0  0  0  0  0  0  0  1 V2000
  147.5200  136.4390  162.8331 C   0  0  0  0  0  0  0  0  0  0  0  0
  147.5362  137.1434  161.6038 O   0  0  0  0  0  0  0  0  0  0  0  0
  146.8772  136.4383  160.5651 C   0  0  0  0  0  0  0  0  0  0  0  0
  147.9196  135.9094  159.5753 C   0  0  0  0  0  0  0  0  0  0  0  0
  147.3711  134.7911  158.8843 O   0  0  0  0  0  0  0  0  0  0  0  0
  147.2667  134.8519  157.5098 C   0  0  0  0  0  0  0  0  0  0  0  0
  147.6023  136.0573  156.8622 C   0  0  0  0  0  0  0  0  0  0  0  0
  147.4975  136.1297  155.4600 C   0  0  0  0  0  0  0  0  0  0  0  0
  147.0512  134.9911  154.7480 C   0  0  0  0  0  0  0  0  0  0  0  0
  146.9261  134.9350  153.3339 N   0  0  0  0  0  0  0  0  0  0  0  0
  146.1116  134.1554  152.5985 C   0  0  0  0  0  0  0  0  0  0  0  0
  145.3313  133.3300  153.0732 O   0  0  0  0  0  0  0  0  0  0  0  0
  146.2074  134.3427  151.0716 C   0  0  1  0  0  0  0  0  0  0  0  0
  146.6437  133.0557  150.3464 C   0  0  0  0  0  0  0  0  0  0  0  0
  145.5574  131.9633  150.3369 C   0  0  0  0  0  0  0  0  0  0  0  0
  144.1454  132.4952  150.0477 C   0  0  0  0  0  0  0  0  0  0  0  0
  143.2576  131.7076  149.7295 O   0  0  0  0  0  0  0  0  0  0  0  0
  143.8994  133.8093  150.1909 N   0  0  0  0  0  0  0  0  0  0  0  0
  144.8894  134.8567  150.4491 C   0  0  0  0  0  0  0  0  0  0  0  0
  146.7572  133.8275  155.4884 C   0  0  0  0  0  0  0  0  0  0  0  0
  146.8531  133.7523  156.8325 N   0  0  0  0  0  0  0  0  0  0  0  0
  148.0403  137.0197  163.5945 H   0  0  0  0  0  0  0  0  0  0  0  0
  148.0231  135.4754  162.7421 H   0  0  0  0  0  0  0  0  0  0  0  0
  146.4991  136.2701  163.1782 H   0  0  0  0  0  0  0  0  0  0  0  0
  146.2801  135.6174  160.9656 H   0  0  0  0  0  0  0  0  0  0  0  0
  146.1968  137.1164  160.0480 H   0  0  0  0  0  0  0  0  0  0  0  0
  148.1615  136.6959  158.8586 H   0  0  0  0  0  0  0  0  0  0  0  0
  148.8374  135.6401  160.1010 H   0  0  0  0  0  0  0  0  0  0  0  0
  147.9384  136.9115  157.4311 H   0  0  0  0  0  0  0  0  0  0  0  0
  147.7740  137.0452  154.9607 H   0  0  0  0  0  0  0  0  0  0  0  0
  147.5808  135.5042  152.8170 H   0  0  0  0  0  0  0  0  0  0  0  0
  146.9689  135.1034  150.8910 H   0  0  0  0  0  0  0  0  0  0  0  0
  146.9063  133.3022  149.3168 H   0  0  0  0  0  0  0  0  0  0  0  0
  147.5551  132.6601  150.7965 H   0  0  0  0  0  0  0  0  0  0  0  0
  145.8116  131.1960  149.6048 H   0  0  0  0  0  0  0  0  0  0  0  0
  145.5291  131.4633  151.3055 H   0  0  0  0  0  0  0  0  0  0  0  0
  142.9503  134.1191  150.0382 H   0  0  0  0  0  0  0  0  0  0  0  0
  144.4340  135.6192  151.0825 H   0  0  0  0  0  0  0  0  0  0  0  0
  145.1054  135.3447  149.4980 H   0  0  0  0  0  0  0  0  0  0  0  0
  146.4286  132.9279  154.9884 H   0  0  0  0  0  0  0  0  0  0  0  0
  1  2  1  0  0  0  0
  1 22  1  0  0  0  0
  1 23  1  0  0  0  0
  1 24  1  0  0  0  0
  2  3  1  0  0  0  0
  3  4  1  0  0  0  0
  3 25  1  0  0  0  0
  3 26  1  0  0  0  0
  4  5  1  0  0  0  0
  4 27  1  0  0  0  0
  4 28  1  0  0  0  0
  5  6  1  0  0  0  0
  6 21  1  0  0  0  0
  6  7  2  0  0  0  0
  7  8  1  0  0  0  0
  7 29  1  0  0  0  0
  8  9  2  0  0  0  0
  8 30  1  0  0  0  0
  9 10  1  0  0  0  0
  9 20  1  0  0  0  0
 10 11  1  0  0  0  0
 10 31  1  0  0  0  0
 11 12  2  0  0  0  0
 11 13  1  0  0  0  0
 13 19  1  0  0  0  0
 13 14  1  0  0  0  0
 13 32  1  0  0  0  0
 14 15  1  0  0  0  0
 14 33  1  0  0  0  0
 14 34  1  0  0  0  0
 15 16  1  0  0  0  0
 15 35  1  0  0  0  0
 15 36  1  0  0  0  0
 16 17  2  0  0  0  0
 16 18  1  0  0  0  0
 18 19  1  0  0  0  0
 18 37  1  0  0  0  0
 19 38  1  0  0  0  0
 19 39  1  0  0  0  0
 20 21  2  0  0  0  0
 20 40  1  0  0  0  0
M  END
> <s_m_source_file>
AV-unprocessed.smi

> <i_m_source_file_index>
1129

> <i_lp_mmshare_version>
43012

> <i_f3d_flags>
0

> <s_epik_input>
W0NIM11PW0NIMl1bQ0gyXU9jMVtjSF1bY0hdYyhbY0hdbjEpW05IXUMoPU8pW0NAQEhdMltDSDJdW0NIMl1DKD1PKVtOSF1bQ0gyXTI=

> <s_epik_cmdline>
J2VwaWtfcHl0aG9uJywgJy1waCcsICc3LjAnLCAnLXRuJywgJzgnLCAnLW1hJywgJzIwMCcsICctbWV0YWxfYmluZGluZycsICctaW1hZScsICc8aW5maWxlLm1hZT4nLCAnLW9tYWUnLCAnPG91dGZpbGUubWFlPic=

> <r_lp_tautomer_probability>
1

> <r_epik_Ionization_Penalty>
1.79985e-05

> <r_epik_Ionization_Penalty_Charging>
0

> <r_epik_Ionization_Penalty_Neutral>
1.79985e-05

> <r_epik_State_Penalty>
-0

> <r_epik_Charging_Adjusted_Penalty>
0

> <i_epik_Tot_Q>
0

> <i_epik_Tot_abs_Q>
0

> <r_epik_Metal_State_Penalty>
-0

> <b_epik_Metal_Only>
0

> <s_lp_Force_Field>
OPLS_2005

> <r_lp_Energy>
14.8931

> <b_lp_Chiralities_Consistent>
1

> <s_lp_Variant>
AV-unprocessed.smi:1129-2

> <Gold.Version>
5.8.1

> <Gold.Id.Protein>
6NUR|6NUR_protein|mol2

> <Gold.PLP.Fitness>
38.5296

> <Gold.PLP.PLP>
-26.9196

> <Gold.PLP.part.hbond>
-5.0000

> <Gold.PLP.part.metal>
0.0000

> <Gold.PLP.part.buried>
-3.7525

> <Gold.PLP.part.nonpolar>
-20.3826

> <Gold.PLP.part.repulsive>
2.5121

> <Gold.PLP.ligand.clash>
0.5235

> <Gold.PLP.ligand.torsion>
1.0347

> <Gold.PLP.Chemscore.Hbond>
4.7120

> <Gold.PLP.Chemscore.CHOScore>
0.0000

> <Gold.PLP.Chemscore.Metal>
0.0000

> <Gold.Chemscore.Hbonds>
donor molecule, donor type, donor heavy atom, donor atom, acceptor molecule, acceptor atom, score
      L1  H    10    31       P1  7948  1.00
      L1  H    18    37       P1 10186  1.00
      P1  H  6931  6943       L1     2  0.93
      P1  H  6934  6947       L1     2  0.78
      P1  H 10785 10796       L1    17  1.00

> <Gold.PLP.Chemscore.Internal.Correction>
0.0669

> <Gold.Rescore>
     Score         DG    S(hbond)    S(metal)    S(lipo)     H(rot)  DE(clash)    DE(int)     intcor
     16.25     -19.63       3.88        0.00      54.63       2.03       0.87       2.51       ----

> <Gold.Chemscore.Fitness>
16.2462

> <Gold.Chemscore.DG>
-19.6327

> <Gold.Chemscore.ZeroCoef>
-5.4800

> <Gold.Chemscore.Hbond>
3.8761

> <Gold.Chemscore.Metal>
0.0000

> <Gold.Chemscore.Lipo>
54.6301

> <Gold.Chemscore.Internal_Hbond>
0.0000

> <Gold.Chemscore.DEClash>
0.8749

> <Gold.Chemscore.DEInternal>
2.5116

> <Gold.Chemscore.Rot>
2.0255

> <Gold.Chemscore.Internal.Correction>
   9.000000E+99

> <Gold.Chemscore.Hbonds>
donor molecule, donor type, donor heavy atom, donor atom, acceptor molecule, acceptor atom, score
      L1  H    10    31       P1  7948  1.00
      L1  H    18    37       P1 10186  0.92
      P1  H  6931  6943       L1     2  0.20
      P1  H  6934  6947       L1     2  0.17
      P1  H 10785 10796       L1    17  0.99

> <Gold.Chemscore.Hbond.Weighted>
-12.9463

> <Gold.Chemscore.Metal.Weighted>
-0.0000

> <Gold.Chemscore.Lipo.Weighted>
-6.3917

> <Gold.Chemscore.Internal_Hbond.Weighted>
0.0000

> <Gold.Chemscore.DEClash.Weighted>
0.8749

> <Gold.Chemscore.DEInternal.Weighted>
2.5116

> <Gold.Chemscore.Rot.Weighted>
5.1853

> <Gold.Chemscore.Internal.Correction.Weighted>
   9.000000E+99

> <Gold.Protein.RotatedTorsions>
[ 6907 6896 6895 6894 ] final -136.15 input  -60.11 | X-H torsion
[ 7974 7965 7964 7962 ] final  -18.88 input  175.53 | X-H torsion
[ 8008 7997 7996 7995 ] final  175.18 input   59.86 | X-H torsion
[ 10167 10162 10161 10158 ] final   42.98 input  -65.29 | X-H torsion
[ 10718 10713 10712 10709 ] final   55.29 input   66.30 | X-H torsion
[ 10763 10752 10751 10750 ] final -130.88 input  -60.55 | X-H torsion
[ 11005 11000 10999 10996 ] final   -3.59 input  -57.11 | X-H torsion

> <Gold.Protein.ActiveResidues>
 VAL166  LYS551  ARG553  GLY616  TRP617  ASP618  TYR619  PRO620  LYS621  CYS622 
 ASP623  PHE694  ASN695  SER759  ASP760  ASP761  ALA762  ILE779  LEU786  VAL792 
 PHE793  MET794  SER795  GLU796  ALA797  LYS798  CYS799  TRP800  GLU811  SER814 

> <Gold.Protein.RotatedAtoms>
  151.0065  133.6006  159.2687 H   0  0  0  0  0  0  0  0  0  0  0  0  # atno 6907 bound_to 6896
  151.3173  135.0808  159.9303 H   0  0  0  0  0  0  0  0  0  0  0  0  # atno 6908 bound_to 6896
  152.5288  133.9719  159.7820 H   0  0  0  0  0  0  0  0  0  0  0  0  # atno 6909 bound_to 6896
  146.1870  140.3983  142.8472 H   0  0  0  0  0  0  0  0  0  0  0  0  # atno 7974 bound_to 7965
  156.0897  140.1415  156.9607 H   0  0  0  0  0  0  0  0  0  0  0  0  # atno 8008 bound_to 7997
  154.4634  140.0935  156.7003 H   0  0  0  0  0  0  0  0  0  0  0  0  # atno 8009 bound_to 7997
  155.4939  140.3449  155.4362 H   0  0  0  0  0  0  0  0  0  0  0  0  # atno 8010 bound_to 7997
  140.3489  144.2375  150.6147 H   0  0  0  0  0  0  0  0  0  0  0  0  # atno 10167 bound_to 10162
  157.5332  130.8645  149.8717 H   0  0  0  0  0  0  0  0  0  0  0  0  # atno 10718 bound_to 10713
  154.8753  135.3848  154.4155 H   0  0  0  0  0  0  0  0  0  0  0  0  # atno 10763 bound_to 10752
  153.4864  135.7030  153.5914 H   0  0  0  0  0  0  0  0  0  0  0  0  # atno 10764 bound_to 10752
  153.4307  135.3879  155.2136 H   0  0  0  0  0  0  0  0  0  0  0  0  # atno 10765 bound_to 10752
  140.6710  133.9237  155.8494 H   0  0  0  0  0  0  0  0  0  0  0  0  # atno 11005 bound_to 11000
  144.8415  140.6865  143.6226 LP  0  0  0  0  0  0  0  0  0  0  0  0  # atno 17320 bound_to 7965
  145.3908  139.1617  143.4230 LP  0  0  0  0  0  0  0  0  0  0  0  0  # atno 17321 bound_to 7965
  140.5238  143.2259  151.8347 LP  0  0  0  0  0  0  0  0  0  0  0  0  # atno 17342 bound_to 10162
  139.4829  144.4805  151.9313 LP  0  0  0  0  0  0  0  0  0  0  0  0  # atno 17343 bound_to 10162
  156.0438  130.3732  150.1368 LP  0  0  0  0  0  0  0  0  0  0  0  0  # atno 17370 bound_to 10713
  156.9551  130.9787  151.3490 LP  0  0  0  0  0  0  0  0  0  0  0  0  # atno 17371 bound_to 10713
  141.0392  134.0645  157.3922 LP  0  0  0  0  0  0  0  0  0  0  0  0  # atno 17394 bound_to 11000
  139.8982  135.0153  156.7135 LP  0  0  0  0  0  0  0  0  0  0  0  0  # atno 17395 bound_to 11000

$$$$
