AV-unprocessed.smi:515|AV-procd|sdf|2780|dock3
  -GOLD-   2262023253D 1   1.00000     0.00000
 Structure written by MMmdl.
 47 49  0  0  0  0  0  0  0  0  1 V2000
  151.6613  144.8404  159.5818 C   0  0  0  0  0  0  0  0  0  0  0  0
  152.8534  143.8880  159.6773 C   0  0  0  0  0  0  0  0  0  0  0  0
  152.5353  142.8260  160.5615 O   0  0  0  0  0  0  0  0  0  0  0  0
  151.8453  141.7739  159.9075 C   0  0  0  0  0  0  0  0  0  0  0  0
  152.8193  140.9211  159.0800 C   0  0  0  0  0  0  0  0  0  0  0  0
  152.1614  140.1988  157.9942 N   0  0  0  0  0  0  0  0  0  0  0  0
  152.2830  138.8858  157.6592 C   0  0  0  0  0  0  0  0  0  0  0  0
  153.1785  137.9224  158.3826 C   0  0  0  0  0  0  0  0  0  0  0  0
  153.7744  138.4581  159.6056 N   0  0  0  0  0  0  0  0  0  0  0  0
  153.8652  137.4480  160.6595 C   0  0  0  0  0  0  0  0  0  0  0  0
  154.5631  137.9789  161.9244 C   0  0  0  0  0  0  0  0  0  0  0  0
  155.8420  138.5064  161.5895 O   0  0  0  0  0  0  0  0  0  0  0  0
  155.7689  139.5413  160.6152 C   0  0  0  0  0  0  0  0  0  0  0  0
  155.1046  138.9938  159.3413 C   0  0  0  0  0  0  0  0  0  0  0  0
  151.5488  138.5202  156.6028 N   0  0  0  0  0  0  0  0  0  0  0  0
  150.9136  139.6952  156.2321 C   0  0  0  0  0  0  0  0  0  0  0  0
  151.2816  140.7173  157.0440 C   0  0  0  0  0  0  0  0  0  0  0  0
  150.7897  142.0887  156.8577 C   0  0  0  0  0  0  0  0  0  0  0  0
  151.1288  143.0333  157.5671 O   0  0  0  0  0  0  0  0  0  0  0  0
  149.9328  142.2081  155.8146 N   0  0  0  0  0  0  0  0  0  0  0  0
  149.5173  141.2216  154.9625 C   0  0  0  0  0  0  0  0  0  0  0  0
  148.7383  141.4878  154.0473 O   0  0  0  0  0  0  0  0  0  0  0  0
  150.0022  139.9550  155.1691 N   0  0  0  0  0  0  0  0  0  0  0  0
  149.5993  138.8603  154.2847 C   0  0  0  0  0  0  0  0  0  0  0  0
  149.5645  143.1321  155.6418 H   0  0  0  0  0  0  0  0  0  0  0  0
  151.8801  145.6730  158.9133 H   0  0  0  0  0  0  0  0  0  0  0  0
  151.4128  145.2532  160.5595 H   0  0  0  0  0  0  0  0  0  0  0  0
  150.7818  144.3249  159.1958 H   0  0  0  0  0  0  0  0  0  0  0  0
  153.0918  143.4959  158.6873 H   0  0  0  0  0  0  0  0  0  0  0  0
  153.7300  144.4278  160.0385 H   0  0  0  0  0  0  0  0  0  0  0  0
  151.3343  141.1587  160.6480 H   0  0  0  0  0  0  0  0  0  0  0  0
  151.0787  142.1859  159.2499 H   0  0  0  0  0  0  0  0  0  0  0  0
  153.6013  141.5500  158.6543 H   0  0  0  0  0  0  0  0  0  0  0  0
  153.3308  140.2216  159.7378 H   0  0  0  0  0  0  0  0  0  0  0  0
  152.6025  137.0256  158.6163 H   0  0  0  0  0  0  0  0  0  0  0  0
  153.9580  137.5893  157.6985 H   0  0  0  0  0  0  0  0  0  0  0  0
  152.8699  137.0949  160.9290 H   0  0  0  0  0  0  0  0  0  0  0  0
  154.4146  136.5804  160.2909 H   0  0  0  0  0  0  0  0  0  0  0  0
  153.9622  138.7499  162.4042 H   0  0  0  0  0  0  0  0  0  0  0  0
  154.6885  137.1766  162.6514 H   0  0  0  0  0  0  0  0  0  0  0  0
  155.2083  140.3892  161.0116 H   0  0  0  0  0  0  0  0  0  0  0  0
  156.7759  139.8961  160.3958 H   0  0  0  0  0  0  0  0  0  0  0  0
  155.7388  138.2163  158.9120 H   0  0  0  0  0  0  0  0  0  0  0  0
  155.0409  139.7899  158.5987 H   0  0  0  0  0  0  0  0  0  0  0  0
  148.5164  138.8397  154.1527 H   0  0  0  0  0  0  0  0  0  0  0  0
  149.8910  137.8842  154.6723 H   0  0  0  0  0  0  0  0  0  0  0  0
  150.0600  138.9802  153.3033 H   0  0  0  0  0  0  0  0  0  0  0  0
  1  2  1  0  0  0  0
  1 26  1  0  0  0  0
  1 27  1  0  0  0  0
  1 28  1  0  0  0  0
  2  3  1  0  0  0  0
  2 29  1  0  0  0  0
  2 30  1  0  0  0  0
  3  4  1  0  0  0  0
  4  5  1  0  0  0  0
  4 31  1  0  0  0  0
  4 32  1  0  0  0  0
  5  6  1  0  0  0  0
  5 33  1  0  0  0  0
  5 34  1  0  0  0  0
  6 17  1  0  0  0  0
  6  7  1  0  0  0  0
  7  8  1  0  0  0  0
  7 15  2  0  0  0  0
  8  9  1  0  0  0  0
  8 35  1  0  0  0  0
  8 36  1  0  0  0  0
  9 14  1  0  0  0  0
  9 10  1  0  0  0  0
 10 11  1  0  0  0  0
 10 37  1  0  0  0  0
 10 38  1  0  0  0  0
 11 12  1  0  0  0  0
 11 39  1  0  0  0  0
 11 40  1  0  0  0  0
 12 13  1  0  0  0  0
 13 14  1  0  0  0  0
 13 41  1  0  0  0  0
 13 42  1  0  0  0  0
 14 43  1  0  0  0  0
 14 44  1  0  0  0  0
 15 16  1  0  0  0  0
 16 23  1  0  0  0  0
 16 17  2  0  0  0  0
 17 18  1  0  0  0  0
 18 19  2  0  0  0  0
 18 20  1  0  0  0  0
 20 25  1  0  0  0  0
 20 21  1  0  0  0  0
 21 22  2  0  0  0  0
 21 23  1  0  0  0  0
 23 24  1  0  0  0  0
 24 45  1  0  0  0  0
 24 46  1  0  0  0  0
 24 47  1  0  0  0  0
M  END
> <s_m_source_file>
AV-unprocessed.smi

> <i_m_source_file_index>
515

> <i_lp_mmshare_version>
43012

> <i_f3d_flags>
0

> <s_epik_input>
W0NIM11uMWMoPU8pW25IXWMoPU8pYyhjMTIpbihbQ0gyXVtDSDJdT1tDSDJdW0NIM10pYyhuMilbQ0gyXU4zW0NIMl1bQ0gyXU9bQ0gyXVtDSDJdMw==

> <s_epik_cmdline>
J2VwaWtfcHl0aG9uJywgJy1waCcsICc3LjAnLCAnLXRuJywgJzgnLCAnLW1hJywgJzIwMCcsICctbWV0YWxfYmluZGluZycsICctaW1hZScsICc8aW5maWxlLm1hZT4nLCAnLW9tYWUnLCAnPG91dGZpbGUubWFlPic=

> <r_epik_Ionization_Penalty>
0.0971954

> <r_epik_Ionization_Penalty_Charging>
0.000195337

> <r_epik_Ionization_Penalty_Neutral>
0.0970001

> <r_epik_State_Penalty>
0.0871068

> <r_epik_Charging_Adjusted_Penalty>
0.0873021

> <i_epik_Tot_Q>
0

> <i_epik_Tot_abs_Q>
0

> <r_epik_Metal_State_Penalty>
0.234549

> <b_epik_Metal_Only>
0

> <s_lp_Force_Field>
OPLS_2005

> <r_lp_Energy>
38.6843

> <b_lp_Chiralities_Consistent>
1

> <s_lp_Variant>
AV-unprocessed.smi:515-1

> <Gold.Version>
5.8.1

> <Gold.Id.Protein>
6NUR|6NUR_protein|mol2

> <Gold.PLP.Fitness>
39.9965

> <Gold.PLP.PLP>
-38.6954

> <Gold.PLP.part.hbond>
-2.0281

> <Gold.PLP.part.metal>
0.0000

> <Gold.PLP.part.buried>
-5.5227

> <Gold.PLP.part.nonpolar>
-32.4960

> <Gold.PLP.part.repulsive>
0.8877

> <Gold.PLP.ligand.clash>
2.0367

> <Gold.PLP.ligand.torsion>
1.0032

> <Gold.PLP.Chemscore.Hbond>
1.7680

> <Gold.PLP.Chemscore.CHOScore>
0.0000

> <Gold.PLP.Chemscore.Metal>
0.0000

> <Gold.Chemscore.Hbonds>
donor molecule, donor type, donor heavy atom, donor atom, acceptor molecule, acceptor atom, score
      L1  H    20    25       P1  8028  1.00
      P1  H  8011  8017       L1    22  0.35

> <Gold.PLP.Chemscore.Internal.Correction>
0.0402

> <Gold.Rescore>
     Score         DG    S(hbond)    S(metal)    S(lipo)     H(rot)  DE(clash)    DE(int)     intcor
     11.00     -15.12       1.67        0.00      81.76       2.15       0.18       3.94       ----

> <Gold.Chemscore.Fitness>
10.9979

> <Gold.Chemscore.DG>
-15.1184

> <Gold.Chemscore.ZeroCoef>
-5.4800

> <Gold.Chemscore.Hbond>
1.6663

> <Gold.Chemscore.Metal>
0.0000

> <Gold.Chemscore.Lipo>
81.7612

> <Gold.Chemscore.Internal_Hbond>
0.0000

> <Gold.Chemscore.DEClash>
0.1783

> <Gold.Chemscore.DEInternal>
3.9423

> <Gold.Chemscore.Rot>
2.1458

> <Gold.Chemscore.Internal.Correction>
   9.000000E+99

> <Gold.Chemscore.Hbonds>
donor molecule, donor type, donor heavy atom, donor atom, acceptor molecule, acceptor atom, score
      L1  H    20    25       P1  8028  1.00
      P1  H  8011  8017       L1    22  0.29

> <Gold.Chemscore.Hbond.Weighted>
-5.5656

> <Gold.Chemscore.Metal.Weighted>
-0.0000

> <Gold.Chemscore.Lipo.Weighted>
-9.5661

> <Gold.Chemscore.Internal_Hbond.Weighted>
0.0000

> <Gold.Chemscore.DEClash.Weighted>
0.1783

> <Gold.Chemscore.DEInternal.Weighted>
3.9423

> <Gold.Chemscore.Rot.Weighted>
5.4932

> <Gold.Chemscore.Internal.Correction.Weighted>
   9.000000E+99

> <Gold.Protein.RotatedTorsions>
[ 6907 6896 6895 6894 ] final -167.86 input  -60.11 | X-H torsion
[ 7974 7965 7964 7962 ] final   29.88 input  175.53 | X-H torsion
[ 8008 7997 7996 7995 ] final -109.02 input   59.86 | X-H torsion
[ 10167 10162 10161 10158 ] final  -80.57 input  -65.29 | X-H torsion
[ 10718 10713 10712 10709 ] final   97.66 input   66.30 | X-H torsion
[ 10763 10752 10751 10750 ] final -108.18 input  -60.55 | X-H torsion
[ 11005 11000 10999 10996 ] final -102.37 input  -57.11 | X-H torsion

> <Gold.Protein.ActiveResidues>
 VAL166  LYS551  ARG553  GLY616  TRP617  ASP618  TYR619  PRO620  LYS621  CYS622 
 ASP623  PHE694  ASN695  SER759  ASP760  ASP761  ALA762  ILE779  LEU786  VAL792 
 PHE793  MET794  SER795  GLU796  ALA797  LYS798  CYS799  TRP800  GLU811  SER814 

> <Gold.Protein.RotatedAtoms>
  151.4663  133.3580  159.2816 H   0  0  0  0  0  0  0  0  0  0  0  0  # atno 6907 bound_to 6896
  150.8991  134.8404  159.7358 H   0  0  0  0  0  0  0  0  0  0  0  0  # atno 6908 bound_to 6896
  152.4869  134.4581  159.9648 H   0  0  0  0  0  0  0  0  0  0  0  0  # atno 6909 bound_to 6896
  146.1645  139.6863  142.9010 H   0  0  0  0  0  0  0  0  0  0  0  0  # atno 7974 bound_to 7965
  154.9530  140.0400  157.2153 H   0  0  0  0  0  0  0  0  0  0  0  0  # atno 8008 bound_to 7997
  154.7961  140.2844  155.5934 H   0  0  0  0  0  0  0  0  0  0  0  0  # atno 8009 bound_to 7997
  156.2956  140.2564  156.2818 H   0  0  0  0  0  0  0  0  0  0  0  0  # atno 8010 bound_to 7997
  140.4491  143.2489  151.8515 H   0  0  0  0  0  0  0  0  0  0  0  0  # atno 10167 bound_to 10162
  157.6909  131.0616  150.4677 H   0  0  0  0  0  0  0  0  0  0  0  0  # atno 10718 bound_to 10713
  154.8120  135.4647  154.0542 H   0  0  0  0  0  0  0  0  0  0  0  0  # atno 10763 bound_to 10752
  153.1965  135.6863  153.8292 H   0  0  0  0  0  0  0  0  0  0  0  0  # atno 10764 bound_to 10752
  153.7792  135.3259  155.3340 H   0  0  0  0  0  0  0  0  0  0  0  0  # atno 10765 bound_to 10752
  141.1192  133.8552  157.1350 H   0  0  0  0  0  0  0  0  0  0  0  0  # atno 11005 bound_to 11000
  145.4502  141.0428  143.2808 LP  0  0  0  0  0  0  0  0  0  0  0  0  # atno 17320 bound_to 7965
  144.8073  139.6027  143.7045 LP  0  0  0  0  0  0  0  0  0  0  0  0  # atno 17321 bound_to 7965
  139.4795  144.5141  151.8893 LP  0  0  0  0  0  0  0  0  0  0  0  0  # atno 17342 bound_to 10162
  140.4228  144.2220  150.5887 LP  0  0  0  0  0  0  0  0  0  0  0  0  # atno 17343 bound_to 10162
  156.5017  130.4118  149.6349 LP  0  0  0  0  0  0  0  0  0  0  0  0  # atno 17370 bound_to 10713
  156.3322  130.7337  151.2269 LP  0  0  0  0  0  0  0  0  0  0  0  0  # atno 17371 bound_to 10713
  140.0136  134.9977  157.0447 LP  0  0  0  0  0  0  0  0  0  0  0  0  # atno 17394 bound_to 11000
  140.4557  134.1536  155.7186 LP  0  0  0  0  0  0  0  0  0  0  0  0  # atno 17395 bound_to 11000

$$$$
