AV-unprocessed.smi:623|AV-procd|sdf|3094|dock4
  -GOLD-   22720 0 13D 1   1.00000     0.00000
 Structure written by MMmdl.
 45 47  0  0  0  0  0  0  0  0  1 V2000
  149.2379  141.2851  154.6482 C   0  0  0  0  0  0  0  0  0  0  0  0
  147.9086  140.6562  155.1533 C   0  0  0  0  0  0  0  0  0  0  0  0
  148.1939  140.2035  156.6126 C   0  0  0  0  0  0  0  0  0  0  0  0
  146.6824  141.5781  154.9999 C   0  0  1  0  0  0  0  0  0  0  0  0
  146.5460  141.7555  153.4702 C   0  0  0  0  0  0  0  0  0  0  0  0
  146.9964  140.3834  152.9312 C   0  0  0  0  0  0  0  0  0  0  0  0
  147.2713  139.5798  154.2325 C   0  0  1  0  0  0  0  0  0  0  0  0
  148.1218  138.3203  153.9920 C   0  0  0  0  0  0  0  0  0  0  0  0
  145.9022  139.2927  154.9320 C   0  0  2  0  0  0  0  0  0  0  0  0
  144.8727  138.7616  154.0405 N   0  0  0  0  0  0  0  0  0  0  0  0
  144.7384  137.4769  153.6797 C   0  0  0  0  0  0  0  0  0  0  0  0
  145.4438  136.5682  154.1173 O   0  0  0  0  0  0  0  0  0  0  0  0
  143.6462  137.1774  152.6498 C   0  0  0  0  0  0  0  0  0  0  0  0
  142.3348  137.0493  153.2992 N   0  0  0  0  0  0  0  0  0  0  0  0
  141.3398  137.9828  153.0448 C   0  0  0  0  0  0  0  0  0  0  0  0
  140.1002  137.9195  153.5857 C   0  0  0  0  0  0  0  0  0  0  0  0
  139.7440  136.8315  154.4896 C   0  0  0  0  0  0  0  0  0  0  0  0
  138.6500  136.6885  155.0310 O   0  0  0  0  0  0  0  0  0  0  0  0
  140.7697  135.9110  154.7186 N   0  0  0  0  0  0  0  0  0  0  0  0
  142.0487  135.9690  154.1626 C   0  0  0  0  0  0  0  0  0  0  0  0
  142.8770  135.0992  154.4288 O   0  0  0  0  0  0  0  0  0  0  0  0
  145.5041  140.6913  155.4567 C   0  0  0  0  0  0  0  0  0  0  0  0
  140.5685  135.1380  155.3362 H   0  0  0  0  0  0  0  0  0  0  0  0
  149.5363  142.1136  155.2914 H   0  0  0  0  0  0  0  0  0  0  0  0
  149.2076  141.6820  153.6362 H   0  0  0  0  0  0  0  0  0  0  0  0
  150.0473  140.5551  154.6728 H   0  0  0  0  0  0  0  0  0  0  0  0
  147.3592  139.7284  157.1229 H   0  0  0  0  0  0  0  0  0  0  0  0
  148.4860  141.0547  157.2283 H   0  0  0  0  0  0  0  0  0  0  0  0
  149.0182  139.4904  156.6414 H   0  0  0  0  0  0  0  0  0  0  0  0
  146.7455  142.5228  155.5406 H   0  0  0  0  0  0  0  0  0  0  0  0
  145.5256  141.9984  153.1717 H   0  0  0  0  0  0  0  0  0  0  0  0
  147.1865  142.5556  153.0982 H   0  0  0  0  0  0  0  0  0  0  0  0
  146.2530  139.9294  152.2764 H   0  0  0  0  0  0  0  0  0  0  0  0
  147.8981  140.4813  152.3265 H   0  0  0  0  0  0  0  0  0  0  0  0
  147.6309  137.6432  153.2928 H   0  0  0  0  0  0  0  0  0  0  0  0
  148.2907  137.7718  154.9187 H   0  0  0  0  0  0  0  0  0  0  0  0
  149.0955  138.5707  153.5713 H   0  0  0  0  0  0  0  0  0  0  0  0
  146.0293  138.6098  155.7734 H   0  0  0  0  0  0  0  0  0  0  0  0
  144.2424  139.4342  153.6290 H   0  0  0  0  0  0  0  0  0  0  0  0
  143.6335  137.9627  151.8914 H   0  0  0  0  0  0  0  0  0  0  0  0
  143.8954  136.2634  152.1078 H   0  0  0  0  0  0  0  0  0  0  0  0
  141.5574  138.8036  152.3760 H   0  0  0  0  0  0  0  0  0  0  0  0
  139.3678  138.6773  153.3473 H   0  0  0  0  0  0  0  0  0  0  0  0
  145.4052  140.6900  156.5425 H   0  0  0  0  0  0  0  0  0  0  0  0
  144.5514  141.0441  155.0586 H   0  0  0  0  0  0  0  0  0  0  0  0
  1  2  1  0  0  0  0
  1 24  1  0  0  0  0
  1 25  1  0  0  0  0
  1 26  1  0  0  0  0
  2  7  1  0  0  0  0
  2  3  1  0  0  0  0
  2  4  1  0  0  0  0
  3 27  1  0  0  0  0
  3 28  1  0  0  0  0
  3 29  1  0  0  0  0
  4 22  1  0  0  0  0
  4  5  1  0  0  0  0
  4 30  1  0  0  0  0
  5  6  1  0  0  0  0
  5 31  1  0  0  0  0
  5 32  1  0  0  0  0
  6  7  1  0  0  0  0
  6 33  1  0  0  0  0
  6 34  1  0  0  0  0
  7  8  1  0  0  0  0
  7  9  1  0  0  0  0
  8 35  1  0  0  0  0
  8 36  1  0  0  0  0
  8 37  1  0  0  0  0
  9 10  1  0  0  0  0
  9 22  1  0  0  0  0
  9 38  1  0  0  0  0
 10 11  1  0  0  0  0
 10 39  1  0  0  0  0
 11 12  2  0  0  0  0
 11 13  1  0  0  0  0
 13 14  1  0  0  0  0
 13 40  1  0  0  0  0
 13 41  1  0  0  0  0
 14 20  1  0  0  0  0
 14 15  1  0  0  0  0
 15 16  2  0  0  0  0
 15 42  1  0  0  0  0
 16 17  1  0  0  0  0
 16 43  1  0  0  0  0
 17 18  2  0  0  0  0
 17 19  1  0  0  0  0
 19 23  1  0  0  0  0
 19 20  1  0  0  0  0
 20 21  2  0  0  0  0
 22 44  1  0  0  0  0
 22 45  1  0  0  0  0
M  END
> <s_m_source_file>
AV-unprocessed.smi

> <i_m_source_file_index>
623

> <i_lp_mmshare_version>
43012

> <i_f3d_flags>
0

> <s_epik_input>
W0NIM11bQ0BdMTJDKFtDSDNdKShbQ0gzXSlbQ0BIXShbQ0gyXVtDSDJdMSlbQ0gyXVtDQEBIXTJbTkhdQyg9TylbQ0gyXW4zW2NIXVtjSF1jKD1PKVtuSF1jMz1P

> <s_epik_cmdline>
J2VwaWtfcHl0aG9uJywgJy1waCcsICc3LjAnLCAnLXRuJywgJzgnLCAnLW1hJywgJzIwMCcsICctbWV0YWxfYmluZGluZycsICctaW1hZScsICc8aW5maWxlLm1hZT4nLCAnLW9tYWUnLCAnPG91dGZpbGUubWFlPic=

> <r_lp_tautomer_probability>
0.999537

> <r_epik_Ionization_Penalty>
0.00303563

> <r_epik_Ionization_Penalty_Charging>
0.00303561

> <r_epik_Ionization_Penalty_Neutral>
2.03238e-08

> <r_epik_State_Penalty>
0.00213308

> <r_epik_Charging_Adjusted_Penalty>
0.00516869

> <i_epik_Tot_Q>
0

> <i_epik_Tot_abs_Q>
0

> <r_epik_Metal_State_Penalty>
0.361714

> <b_epik_Metal_Only>
0

> <s_lp_Force_Field>
OPLS_2005

> <r_lp_Energy>
57.3757

> <b_lp_Chiralities_Consistent>
1

> <s_lp_Variant>
AV-unprocessed.smi:623-4

> <Gold.Version>
5.8.1

> <Gold.Id.Protein>
6NUR|6NUR_protein|mol2

> <Gold.PLP.Fitness>
40.7308

> <Gold.PLP.PLP>
-30.1950

> <Gold.PLP.part.hbond>
-2.4449

> <Gold.PLP.part.metal>
0.0000

> <Gold.PLP.part.buried>
-5.8694

> <Gold.PLP.part.nonpolar>
-22.6246

> <Gold.PLP.part.repulsive>
0.2423

> <Gold.PLP.ligand.clash>
0.0000

> <Gold.PLP.ligand.torsion>
0.6488

> <Gold.PLP.Chemscore.Hbond>
2.0000

> <Gold.PLP.Chemscore.CHOScore>
1.9390

> <Gold.PLP.Chemscore.Metal>
0.0000

> <Gold.Chemscore.Hbonds>
donor molecule, donor type, donor heavy atom, donor atom, acceptor molecule, acceptor atom, score
      L1  H    10    39       P1 10175  1.00
      L1  H    19    23       P1 11000  1.00
      L1  C    15    42       P1 10160  1.00
      L1  C    15    42       P1 10175  0.79

> <Gold.PLP.Chemscore.Internal.Correction>
0.0164

> <Gold.Rescore>
     Score         DG    S(hbond)    S(metal)    S(lipo)     H(rot)  DE(clash)    DE(int)     intcor
     13.49     -14.47       1.95        0.00      57.72       1.66       0.20       0.78       ----

> <Gold.Chemscore.Fitness>
13.4911

> <Gold.Chemscore.DG>
-14.4696

> <Gold.Chemscore.ZeroCoef>
-5.4800

> <Gold.Chemscore.Hbond>
1.9455

> <Gold.Chemscore.Metal>
0.0000

> <Gold.Chemscore.Lipo>
57.7189

> <Gold.Chemscore.Internal_Hbond>
0.0000

> <Gold.Chemscore.DEClash>
0.2030

> <Gold.Chemscore.DEInternal>
0.7755

> <Gold.Chemscore.Rot>
1.6647

> <Gold.Chemscore.Internal.Correction>
   9.000000E+99

> <Gold.Chemscore.Hbonds>
donor molecule, donor type, donor heavy atom, donor atom, acceptor molecule, acceptor atom, score
      L1  H    10    39       P1 10175  0.99
      L1  H    19    23       P1 11000  0.82

> <Gold.Chemscore.Hbond.Weighted>
-6.4981

> <Gold.Chemscore.Metal.Weighted>
-0.0000

> <Gold.Chemscore.Lipo.Weighted>
-6.7531

> <Gold.Chemscore.Internal_Hbond.Weighted>
0.0000

> <Gold.Chemscore.DEClash.Weighted>
0.2030

> <Gold.Chemscore.DEInternal.Weighted>
0.7755

> <Gold.Chemscore.Rot.Weighted>
4.2617

> <Gold.Chemscore.Internal.Correction.Weighted>
   9.000000E+99

> <Gold.Protein.RotatedTorsions>
[ 6907 6896 6895 6894 ] final  -37.28 input  -60.11 | X-H torsion
[ 7974 7965 7964 7962 ] final   67.43 input  175.53 | X-H torsion
[ 8008 7997 7996 7995 ] final   27.79 input   59.86 | X-H torsion
[ 10167 10162 10161 10158 ] final  -45.37 input  -65.29 | X-H torsion
[ 10718 10713 10712 10709 ] final   84.77 input   66.30 | X-H torsion
[ 10763 10752 10751 10750 ] final   89.14 input  -60.55 | X-H torsion
[ 11005 11000 10999 10996 ] final -101.41 input  -57.11 | X-H torsion

> <Gold.Protein.ActiveResidues>
 VAL166  LYS551  ARG553  GLY616  TRP617  ASP618  TYR619  PRO620  LYS621  CYS622 
 ASP623  PHE694  ASN695  SER759  ASP760  ASP761  ALA762  ILE779  LEU786  VAL792 
 PHE793  MET794  SER795  GLU796  ALA797  LYS798  CYS799  TRP800  GLU811  SER814 

> <Gold.Protein.RotatedAtoms>
  151.0167  134.9438  159.8036 H   0  0  0  0  0  0  0  0  0  0  0  0  # atno 6907 bound_to 6896
  152.5315  134.2958  159.9070 H   0  0  0  0  0  0  0  0  0  0  0  0  # atno 6908 bound_to 6896
  151.2964  133.4100  159.2671 H   0  0  0  0  0  0  0  0  0  0  0  0  # atno 6909 bound_to 6896
  145.8147  139.3052  143.1078 H   0  0  0  0  0  0  0  0  0  0  0  0  # atno 7974 bound_to 7965
  155.0485  140.3177  155.4700 H   0  0  0  0  0  0  0  0  0  0  0  0  # atno 8008 bound_to 7997
  156.2839  140.2150  156.5554 H   0  0  0  0  0  0  0  0  0  0  0  0  # atno 8009 bound_to 7997
  154.7230  140.0488  157.0645 H   0  0  0  0  0  0  0  0  0  0  0  0  # atno 8010 bound_to 7997
  140.6861  143.2883  151.3629 H   0  0  0  0  0  0  0  0  0  0  0  0  # atno 10167 bound_to 10162
  157.6904  131.0147  150.2722 H   0  0  0  0  0  0  0  0  0  0  0  0  # atno 10718 bound_to 10713
  153.1840  135.4481  155.0065 H   0  0  0  0  0  0  0  0  0  0  0  0  # atno 10763 bound_to 10752
  154.8049  135.3270  154.7460 H   0  0  0  0  0  0  0  0  0  0  0  0  # atno 10764 bound_to 10752
  153.7921  135.6969  153.4925 H   0  0  0  0  0  0  0  0  0  0  0  0  # atno 10765 bound_to 10752
  141.1232  133.8476  157.1228 H   0  0  0  0  0  0  0  0  0  0  0  0  # atno 11005 bound_to 11000
  145.9739  140.8738  143.0148 LP  0  0  0  0  0  0  0  0  0  0  0  0  # atno 17320 bound_to 7965
  144.6753  140.1985  143.7389 LP  0  0  0  0  0  0  0  0  0  0  0  0  # atno 17321 bound_to 7965
  139.6220  144.0888  152.2400 LP  0  0  0  0  0  0  0  0  0  0  0  0  # atno 17342 bound_to 10162
  140.0335  144.6062  150.7468 LP  0  0  0  0  0  0  0  0  0  0  0  0  # atno 17343 bound_to 10162
  156.3283  130.3796  149.7513 LP  0  0  0  0  0  0  0  0  0  0  0  0  # atno 17370 bound_to 10713
  156.5061  130.8151  151.3151 LP  0  0  0  0  0  0  0  0  0  0  0  0  # atno 17371 bound_to 10713
  140.0206  134.9947  157.0585 LP  0  0  0  0  0  0  0  0  0  0  0  0  # atno 17394 bound_to 11000
  140.4445  134.1646  155.7176 LP  0  0  0  0  0  0  0  0  0  0  0  0  # atno 17395 bound_to 11000

$$$$
