AV-unprocessed.smi:381|AV-procd|sdf|2462|dock1
  -GOLD-   2262022403D 1   1.00000     0.00000
 Structure written by MMmdl.
 46 47  0  0  0  0  0  0  0  0  2 V2000
  151.1907  140.8344  155.5885 O   0  0  0  0  0  0  0  0  0  0  0  0
  150.4281  141.7926  155.6978 C   0  0  0  0  0  0  0  0  0  0  0  0
  149.3157  141.9358  154.9595 N   0  0  0  0  0  0  0  0  0  0  0  0
  148.8657  140.9785  153.9592 C   0  0  0  0  0  0  0  0  0  0  0  0
  147.3355  140.9884  153.8460 C   0  0  0  0  0  0  0  0  0  0  0  0
  146.8009  139.6999  153.2512 C   0  0  0  0  0  0  0  0  0  0  0  0
  146.1124  138.7684  154.0599 C   0  0  0  0  0  0  0  0  0  0  0  0
  145.6158  137.5825  153.4797 C   0  0  0  0  0  0  0  0  0  0  0  0
  145.8207  137.3535  152.1039 C   0  0  0  0  0  0  0  0  0  0  0  0
  146.4852  138.2668  151.3619 N   0  3  0  0  0  0  0  0  0  0  0  0
  146.9744  139.4153  151.8794 C   0  0  0  0  0  0  0  0  0  0  0  0
  150.6530  142.7809  156.5825 N   0  0  0  0  0  0  0  0  0  0  0  0
  151.7609  142.9328  157.5308 C   0  0  0  0  0  0  0  0  0  0  0  0
  151.4647  142.0459  158.7628 C   0  0  0  0  0  0  0  0  0  0  0  0
  152.4412  142.1688  159.9475 C   0  0  0  0  0  0  0  0  0  0  0  0
  152.0168  143.1618  161.0536 C   0  0  0  0  0  0  0  0  0  0  0  0
  152.4955  144.6129  160.8618 C   0  0  0  0  0  0  0  0  0  0  0  0
  151.5322  145.5623  160.1179 C   0  0  0  0  0  0  0  0  0  0  0  0
  150.9671  145.0710  158.7730 C   0  0  0  0  0  0  0  0  0  0  0  0
  152.0086  144.4279  157.8363 C   0  0  0  0  0  0  0  0  0  0  0  0
  148.7422  142.7526  155.1118 H   0  0  0  0  0  0  0  0  0  0  0  0
  149.3119  141.2198  152.9929 H   0  0  0  0  0  0  0  0  0  0  0  0
  149.2169  139.9838  154.2378 H   0  0  0  0  0  0  0  0  0  0  0  0
  146.8882  141.1442  154.8288 H   0  0  0  0  0  0  0  0  0  0  0  0
  147.0112  141.8238  153.2239 H   0  0  0  0  0  0  0  0  0  0  0  0
  145.9619  138.9617  155.1123 H   0  0  0  0  0  0  0  0  0  0  0  0
  145.0840  136.8602  154.0818 H   0  0  0  0  0  0  0  0  0  0  0  0
  145.4748  136.4757  151.5782 H   0  0  0  0  0  0  0  0  0  0  0  0
  147.4835  140.0667  151.1840 H   0  0  0  0  0  0  0  0  0  0  0  0
  149.9692  143.5239  156.5977 H   0  0  0  0  0  0  0  0  0  0  0  0
  152.6697  142.5375  157.0742 H   0  0  0  0  0  0  0  0  0  0  0  0
  150.4428  142.1883  159.1154 H   0  0  0  0  0  0  0  0  0  0  0  0
  151.4913  141.0102  158.4208 H   0  0  0  0  0  0  0  0  0  0  0  0
  152.4877  141.1848  160.4158 H   0  0  0  0  0  0  0  0  0  0  0  0
  153.4566  142.3658  159.6023 H   0  0  0  0  0  0  0  0  0  0  0  0
  150.9413  143.1256  161.2295 H   0  0  0  0  0  0  0  0  0  0  0  0
  152.4673  142.8051  161.9808 H   0  0  0  0  0  0  0  0  0  0  0  0
  152.6573  145.0445  161.8503 H   0  0  0  0  0  0  0  0  0  0  0  0
  153.4822  144.6207  160.3990 H   0  0  0  0  0  0  0  0  0  0  0  0
  150.6936  145.8026  160.7726 H   0  0  0  0  0  0  0  0  0  0  0  0
  152.0527  146.5064  159.9535 H   0  0  0  0  0  0  0  0  0  0  0  0
  150.1346  144.3935  158.9565 H   0  0  0  0  0  0  0  0  0  0  0  0
  150.5139  145.9218  158.2632 H   0  0  0  0  0  0  0  0  0  0  0  0
  153.0151  144.5502  158.2318 H   0  0  0  0  0  0  0  0  0  0  0  0
  152.0294  144.9889  156.9015 H   0  0  0  0  0  0  0  0  0  0  0  0
  146.6217  138.0822  150.3678 H   0  0  0  0  0  0  0  0  0  0  0  0
  1  2  2  0  0  0  0
  2  3  1  0  0  0  0
  2 12  1  0  0  0  0
  3  4  1  0  0  0  0
  3 21  1  0  0  0  0
  4  5  1  0  0  0  0
  4 22  1  0  0  0  0
  4 23  1  0  0  0  0
  5  6  1  0  0  0  0
  5 24  1  0  0  0  0
  5 25  1  0  0  0  0
  6 11  1  0  0  0  0
  6  7  2  0  0  0  0
  7  8  1  0  0  0  0
  7 26  1  0  0  0  0
  8  9  2  0  0  0  0
  8 27  1  0  0  0  0
  9 10  1  0  0  0  0
  9 28  1  0  0  0  0
 10 11  2  0  0  0  0
 10 46  1  0  0  0  0
 11 29  1  0  0  0  0
 12 13  1  0  0  0  0
 12 30  1  0  0  0  0
 13 20  1  0  0  0  0
 13 14  1  0  0  0  0
 13 31  1  0  0  0  0
 14 15  1  0  0  0  0
 14 32  1  0  0  0  0
 14 33  1  0  0  0  0
 15 16  1  0  0  0  0
 15 34  1  0  0  0  0
 15 35  1  0  0  0  0
 16 17  1  0  0  0  0
 16 36  1  0  0  0  0
 16 37  1  0  0  0  0
 17 18  1  0  0  0  0
 17 38  1  0  0  0  0
 17 39  1  0  0  0  0
 18 19  1  0  0  0  0
 18 40  1  0  0  0  0
 18 41  1  0  0  0  0
 19 20  1  0  0  0  0
 19 42  1  0  0  0  0
 19 43  1  0  0  0  0
 20 44  1  0  0  0  0
 20 45  1  0  0  0  0
M  CHG  1  10   1
M  END
> <s_m_source_file>
AV-unprocessed.smi

> <i_m_source_file_index>
381

> <i_lp_mmshare_version>
43012

> <i_f3d_flags>
0

> <s_epik_input>
W0NIMl0xW0NIMl1bQ0gyXVtDSDJdW0NIMl1bQ0gyXVtDSDJdW0NIXTFbTkhdQyg9TylbTkhdW0NIMl1bQ0gyXWMyW2NIXVtjSF1bY0hdbltjSF0y

> <s_epik_cmdline>
J2VwaWtfcHl0aG9uJywgJy1waCcsICc3LjAnLCAnLXRuJywgJzgnLCAnLW1hJywgJzIwMCcsICctbWV0YWxfYmluZGluZycsICctaW1hZScsICc8aW5maWxlLm1hZT4nLCAnLW9tYWUnLCAnPG91dGZpbGUubWFlPic=

> <r_epik_Ionization_Penalty>
2.21063

> <r_epik_Ionization_Penalty_Charging>
2.21057

> <r_epik_Ionization_Penalty_Neutral>
5.85974e-05

> <r_epik_State_Penalty>
2.35476

> <r_epik_Charging_Adjusted_Penalty>
4.56533

> <i_epik_Tot_Q>
1

> <i_epik_Tot_abs_Q>
1

> <r_epik_Metal_State_Penalty>
2.36886

> <b_epik_Metal_Only>
0

> <s_lp_Force_Field>
OPLS_2005

> <r_lp_Energy>
36.9097

> <b_lp_Chiralities_Consistent>
1

> <s_lp_Variant>
AV-unprocessed.smi:381-2

> <Gold.Version>
5.8.1

> <Gold.Id.Protein>
6NUR|6NUR_protein|mol2

> <Gold.PLP.Fitness>
49.9449

> <Gold.PLP.PLP>
-44.4258

> <Gold.PLP.part.hbond>
-4.4193

> <Gold.PLP.part.metal>
0.0000

> <Gold.PLP.part.buried>
-3.3797

> <Gold.PLP.part.nonpolar>
-36.3898

> <Gold.PLP.part.repulsive>
0.4003

> <Gold.PLP.ligand.clash>
0.0000

> <Gold.PLP.ligand.torsion>
0.7564

> <Gold.PLP.Chemscore.Hbond>
2.3255

> <Gold.PLP.Chemscore.CHOScore>
0.0000

> <Gold.PLP.Chemscore.Metal>
0.0000

> <Gold.Chemscore.Hbonds>
donor molecule, donor type, donor heavy atom, donor atom, acceptor molecule, acceptor atom, score
      L1  H     3    21       P1  8028  0.82
      L1  H    12    30       P1  8028  0.99
      P1  H  7989  7998       L1     1  0.56

> <Gold.PLP.Chemscore.Internal.Correction>
0.0554

> <Gold.Rescore>
     Score         DG    S(hbond)    S(metal)    S(lipo)     H(rot)  DE(clash)    DE(int)     intcor
     21.24     -23.57       1.90        0.00     133.35       1.51       1.75       0.58       ----

> <Gold.Chemscore.Fitness>
21.2413

> <Gold.Chemscore.DG>
-23.5715

> <Gold.Chemscore.ZeroCoef>
-5.4800

> <Gold.Chemscore.Hbond>
1.9017

> <Gold.Chemscore.Metal>
0.0000

> <Gold.Chemscore.Lipo>
133.3465

> <Gold.Chemscore.Internal_Hbond>
0.0000

> <Gold.Chemscore.DEClash>
1.7460

> <Gold.Chemscore.DEInternal>
0.5843

> <Gold.Chemscore.Rot>
1.5085

> <Gold.Chemscore.Internal.Correction>
   9.000000E+99

> <Gold.Chemscore.Hbonds>
donor molecule, donor type, donor heavy atom, donor atom, acceptor molecule, acceptor atom, score
      L1  H     3    21       P1  8028  0.77
      L1  H    12    30       P1  8028  0.93
      P1  H  7989  7998       L1     1  0.17

> <Gold.Chemscore.Hbond.Weighted>
-6.3517

> <Gold.Chemscore.Metal.Weighted>
-0.0000

> <Gold.Chemscore.Lipo.Weighted>
-15.6015

> <Gold.Chemscore.Internal_Hbond.Weighted>
0.0000

> <Gold.Chemscore.DEClash.Weighted>
1.7460

> <Gold.Chemscore.DEInternal.Weighted>
0.5843

> <Gold.Chemscore.Rot.Weighted>
3.8617

> <Gold.Chemscore.Internal.Correction.Weighted>
   9.000000E+99

> <Gold.Protein.RotatedTorsions>
[ 6907 6896 6895 6894 ] final  -26.15 input  -60.11 | X-H torsion
[ 7974 7965 7964 7962 ] final -111.08 input  175.53 | X-H torsion
[ 8008 7997 7996 7995 ] final  -77.71 input   59.86 | X-H torsion
[ 10167 10162 10161 10158 ] final   18.87 input  -65.29 | X-H torsion
[ 10718 10713 10712 10709 ] final   56.68 input   66.30 | X-H torsion
[ 10763 10752 10751 10750 ] final  100.60 input  -60.55 | X-H torsion
[ 11005 11000 10999 10996 ] final   86.38 input  -57.11 | X-H torsion

> <Gold.Protein.ActiveResidues>
 VAL166  LYS551  ARG553  GLY616  TRP617  ASP618  TYR619  PRO620  LYS621  CYS622 
 ASP623  PHE694  ASN695  SER759  ASP760  ASP761  ALA762  ILE779  LEU786  VAL792 
 PHE793  MET794  SER795  GLU796  ALA797  LYS798  CYS799  TRP800  GLU811  SER814 

> <Gold.Protein.RotatedAtoms>
  151.1651  135.0291  159.8726 H   0  0  0  0  0  0  0  0  0  0  0  0  # atno 6907 bound_to 6896
  152.5450  134.1235  159.8419 H   0  0  0  0  0  0  0  0  0  0  0  0  # atno 6908 bound_to 6896
  151.1334  133.4974  159.2631 H   0  0  0  0  0  0  0  0  0  0  0  0  # atno 6909 bound_to 6896
  145.1604  140.8875  143.3594 H   0  0  0  0  0  0  0  0  0  0  0  0  # atno 7974 bound_to 7965
  154.5621  140.0706  156.8835 H   0  0  0  0  0  0  0  0  0  0  0  0  # atno 8008 bound_to 7997
  155.2792  140.3370  155.4241 H   0  0  0  0  0  0  0  0  0  0  0  0  # atno 8009 bound_to 7997
  156.2051  140.1737  156.7803 H   0  0  0  0  0  0  0  0  0  0  0  0  # atno 8010 bound_to 7997
  140.5621  143.9318  150.6650 H   0  0  0  0  0  0  0  0  0  0  0  0  # atno 10167 bound_to 10162
  157.5451  130.8725  149.8879 H   0  0  0  0  0  0  0  0  0  0  0  0  # atno 10718 bound_to 10713
  153.3160  135.4073  155.1377 H   0  0  0  0  0  0  0  0  0  0  0  0  # atno 10763 bound_to 10752
  154.8588  135.3576  154.5659 H   0  0  0  0  0  0  0  0  0  0  0  0  # atno 10764 bound_to 10752
  153.6090  135.7068  153.5413 H   0  0  0  0  0  0  0  0  0  0  0  0  # atno 10765 bound_to 10752
  139.8946  134.8351  156.2713 H   0  0  0  0  0  0  0  0  0  0  0  0  # atno 11005 bound_to 11000
  145.0337  139.3319  143.6012 LP  0  0  0  0  0  0  0  0  0  0  0  0  # atno 17320 bound_to 7965
  146.3483  139.9684  142.8709 LP  0  0  0  0  0  0  0  0  0  0  0  0  # atno 17321 bound_to 7965
  140.2771  143.3415  152.1185 LP  0  0  0  0  0  0  0  0  0  0  0  0  # atno 17342 bound_to 10162
  139.5075  144.6833  151.5952 LP  0  0  0  0  0  0  0  0  0  0  0  0  # atno 17343 bound_to 10162
  156.0529  130.3714  150.1159 LP  0  0  0  0  0  0  0  0  0  0  0  0  # atno 17370 bound_to 10713
  156.9336  130.9722  151.3528 LP  0  0  0  0  0  0  0  0  0  0  0  0  # atno 17371 bound_to 10713
  141.0099  133.7102  156.1094 LP  0  0  0  0  0  0  0  0  0  0  0  0  # atno 17394 bound_to 11000
  140.7382  134.4179  157.5558 LP  0  0  0  0  0  0  0  0  0  0  0  0  # atno 17395 bound_to 11000

$$$$
