AV-unprocessed.smi:1897|AV-procd|sdf|7693|dock3
  -GOLD-   22720 9433D 1   1.00000     0.00000
 Structure written by MMmdl.
 38 40  0  0  0  0  0  0  0  0  3 V2000
  148.2208  136.6059  160.4681 C   0  0  0  0  0  0  0  0  0  0  0  0
  148.4029  135.9882  159.1241 C   0  0  0  0  0  0  0  0  0  0  0  0
  148.6903  134.6950  158.9563 N   0  0  0  0  0  0  0  0  0  0  0  0
  148.8131  134.3566  157.6169 N   0  0  0  0  0  0  0  0  0  0  0  0
  148.6327  135.3988  156.7925 C   0  0  0  0  0  0  0  0  0  0  0  0
  148.7252  135.2868  155.4542 N   0  5  0  0  0  0  0  0  0  0  0  0
  148.5232  134.1113  154.8044 C   0  0  0  0  0  0  0  0  0  0  0  0
  148.6989  133.0103  155.3248 O   0  0  0  0  0  0  0  0  0  0  0  0
  148.1213  134.1659  153.5202 N   0  0  0  0  0  0  0  0  0  0  0  0
  147.9311  133.0221  152.6347 C   0  0  1  0  0  0  0  0  0  0  0  0
  147.2142  131.8472  153.3127 C   0  0  0  0  0  0  0  0  0  0  0  0
  146.3910  131.1820  152.1955 C   0  0  0  0  0  0  0  0  0  0  0  0
  146.6362  131.9791  150.9729 N   0  3  1  0  0  0  0  0  0  0  0  0
  145.5809  131.9314  149.9289 C   0  0  0  0  0  0  0  0  0  0  0  0
  144.3769  132.8294  150.2595 C   0  0  0  0  0  0  0  0  0  0  0  0
  144.8350  134.2610  150.5550 C   0  0  0  0  0  0  0  0  0  0  0  0
  145.8422  134.2502  151.7094 C   0  0  0  0  0  0  0  0  0  0  0  0
  147.0539  133.3292  151.4097 C   0  0  1  0  0  0  0  0  0  0  0  0
  148.2670  136.9045  157.6326 S   0  0  0  0  0  0  0  0  0  0  0  0
  149.1916  136.8499  160.8993 H   0  0  0  0  0  0  0  0  0  0  0  0
  147.7022  135.9163  161.1349 H   0  0  0  0  0  0  0  0  0  0  0  0
  147.6329  137.5202  160.3876 H   0  0  0  0  0  0  0  0  0  0  0  0
  147.9805  135.0816  153.1186 H   0  0  0  0  0  0  0  0  0  0  0  0
  148.9043  132.6658  152.2904 H   0  0  0  0  0  0  0  0  0  0  0  0
  147.9227  131.1557  153.7697 H   0  0  0  0  0  0  0  0  0  0  0  0
  146.5457  132.1995  154.1000 H   0  0  0  0  0  0  0  0  0  0  0  0
  146.6864  130.1453  152.0316 H   0  0  0  0  0  0  0  0  0  0  0  0
  145.3331  131.1885  152.4608 H   0  0  0  0  0  0  0  0  0  0  0  0
  146.0260  132.2629  148.9899 H   0  0  0  0  0  0  0  0  0  0  0  0
  145.2623  130.9002  149.7734 H   0  0  0  0  0  0  0  0  0  0  0  0
  143.6753  132.8289  149.4248 H   0  0  0  0  0  0  0  0  0  0  0  0
  143.8328  132.4310  151.1165 H   0  0  0  0  0  0  0  0  0  0  0  0
  145.2908  134.7000  149.6668 H   0  0  0  0  0  0  0  0  0  0  0  0
  143.9782  134.8852  150.8100 H   0  0  0  0  0  0  0  0  0  0  0  0
  146.1831  135.2683  151.9012 H   0  0  0  0  0  0  0  0  0  0  0  0
  145.3350  133.9240  152.6183 H   0  0  0  0  0  0  0  0  0  0  0  0
  147.6528  133.7850  150.6197 H   0  0  0  0  0  0  0  0  0  0  0  0
  147.4611  131.5678  150.5599 H   0  0  0  0  0  0  0  0  0  0  0  0
  1  2  1  0  0  0  0
  1 20  1  0  0  0  0
  1 21  1  0  0  0  0
  1 22  1  0  0  0  0
  2 19  1  0  0  0  0
  2  3  2  0  0  0  0
  3  4  1  0  0  0  0
  4  5  2  0  0  0  0
  5  6  1  0  0  0  0
  5 19  1  0  0  0  0
  6  7  1  0  0  0  0
  7  8  2  0  0  0  0
  7  9  1  0  0  0  0
  9 10  1  0  0  0  0
  9 23  1  0  0  0  0
 10 18  1  0  0  0  0
 10 11  1  0  0  0  0
 10 24  1  0  0  0  0
 11 12  1  0  0  0  0
 11 25  1  0  0  0  0
 11 26  1  0  0  0  0
 12 13  1  0  0  0  0
 12 27  1  0  0  0  0
 12 28  1  0  0  0  0
 13 18  1  0  0  0  0
 13 14  1  0  0  0  0
 13 38  1  0  0  0  0
 14 15  1  0  0  0  0
 14 29  1  0  0  0  0
 14 30  1  0  0  0  0
 15 16  1  0  0  0  0
 15 31  1  0  0  0  0
 15 32  1  0  0  0  0
 16 17  1  0  0  0  0
 16 33  1  0  0  0  0
 16 34  1  0  0  0  0
 17 18  1  0  0  0  0
 17 35  1  0  0  0  0
 17 36  1  0  0  0  0
 18 37  1  0  0  0  0
M  CHG  1   6  -1
M  CHG  1  13   1
M  END
> <s_m_source_file>
AV-unprocessed.smi

> <i_m_source_file_index>
1897

> <i_lp_mmshare_version>
43012

> <i_f3d_flags>
0

> <s_epik_input>
W0NIM11jMW5uYyhzMSlbTkhdQyg9TylbTkhdW0NASF0oW0NIMl1bQ0gyXTIpW0NAQEhdKE4yMylbQ0gyXVtDSDJdW0NIMl1bQ0gyXTM=

> <s_epik_cmdline>
J2VwaWtfcHl0aG9uJywgJy1waCcsICc3LjAnLCAnLXRuJywgJzgnLCAnLW1hJywgJzIwMCcsICctbWV0YWxfYmluZGluZycsICctaW1hZScsICc8aW5maWxlLm1hZT4nLCAnLW9tYWUnLCAnPG91dGZpbGUubWFlPic=

> <r_lp_tautomer_probability>
1

> <r_epik_Ionization_Penalty>
3.77712

> <r_epik_Ionization_Penalty_Charging>
3.67739

> <r_epik_Ionization_Penalty_Neutral>
0.0997294

> <r_epik_State_Penalty>
3.67514

> <r_epik_Charging_Adjusted_Penalty>
7.35254

> <i_epik_Tot_Q>
0

> <i_epik_Tot_abs_Q>
2

> <r_epik_Metal_State_Penalty>
0.540795

> <b_epik_Metal_Only>
1

> <s_lp_Force_Field>
OPLS_2005

> <r_lp_Energy>
30.11

> <b_lp_Chiralities_Consistent>
1

> <s_lp_Variant>
AV-unprocessed.smi:1897-10

> <Gold.Version>
5.8.1

> <Gold.Id.Protein>
6NUR|6NUR_protein|mol2

> <Gold.PLP.Fitness>
36.6416

> <Gold.PLP.PLP>
-29.4489

> <Gold.PLP.part.hbond>
-3.0000

> <Gold.PLP.part.metal>
0.0000

> <Gold.PLP.part.buried>
-3.3559

> <Gold.PLP.part.nonpolar>
-22.3698

> <Gold.PLP.part.repulsive>
0.1487

> <Gold.PLP.ligand.clash>
0.0000

> <Gold.PLP.ligand.torsion>
0.5097

> <Gold.PLP.Chemscore.Hbond>
2.7360

> <Gold.PLP.Chemscore.CHOScore>
0.0000

> <Gold.PLP.Chemscore.Metal>
0.0000

> <Gold.Chemscore.Hbonds>
donor molecule, donor type, donor heavy atom, donor atom, acceptor molecule, acceptor atom, score
      L1  H     9    23       P1  7948  0.69
      L1  H    13    38       P1 10747  1.00
      P1  H  6896  6908       L1     3  0.79

> <Gold.PLP.Chemscore.Internal.Correction>
0.0042

> <Gold.Rescore>
     Score         DG    S(hbond)    S(metal)    S(lipo)     H(rot)  DE(clash)    DE(int)     intcor
     15.60     -19.14       2.49        0.00      67.45       1.00       0.03       3.52       ----

> <Gold.Chemscore.Fitness>
15.5972

> <Gold.Chemscore.DG>
-19.1426

> <Gold.Chemscore.ZeroCoef>
-5.4800

> <Gold.Chemscore.Hbond>
2.4943

> <Gold.Chemscore.Metal>
0.0000

> <Gold.Chemscore.Lipo>
67.4508

> <Gold.Chemscore.Internal_Hbond>
0.0000

> <Gold.Chemscore.DEClash>
0.0291

> <Gold.Chemscore.DEInternal>
3.5163

> <Gold.Chemscore.Rot>
1.0000

> <Gold.Chemscore.Internal.Correction>
   9.000000E+99

> <Gold.Chemscore.Hbonds>
donor molecule, donor type, donor heavy atom, donor atom, acceptor molecule, acceptor atom, score
      L1  H     9    23       P1  7948  0.69
      L1  H    13    38       P1 10747  1.00
      P1  H  6896  6908       L1     3  0.09

> <Gold.Chemscore.Hbond.Weighted>
-8.3309

> <Gold.Chemscore.Metal.Weighted>
-0.0000

> <Gold.Chemscore.Lipo.Weighted>
-7.8917

> <Gold.Chemscore.Internal_Hbond.Weighted>
0.0000

> <Gold.Chemscore.DEClash.Weighted>
0.0291

> <Gold.Chemscore.DEInternal.Weighted>
3.5163

> <Gold.Chemscore.Rot.Weighted>
2.5600

> <Gold.Chemscore.Internal.Correction.Weighted>
   9.000000E+99

> <Gold.Protein.RotatedTorsions>
[ 6907 6896 6895 6894 ] final  151.17 input  -60.11 | X-H torsion
[ 7974 7965 7964 7962 ] final  135.22 input  175.53 | X-H torsion
[ 8008 7997 7996 7995 ] final  161.38 input   59.86 | X-H torsion
[ 10167 10162 10161 10158 ] final  -36.05 input  -65.29 | X-H torsion
[ 10718 10713 10712 10709 ] final   94.60 input   66.30 | X-H torsion
[ 10763 10752 10751 10750 ] final  175.57 input  -60.55 | X-H torsion
[ 11005 11000 10999 10996 ] final   -0.17 input  -57.11 | X-H torsion

> <Gold.Protein.ActiveResidues>
 VAL166  LYS551  ARG553  GLY616  TRP617  ASP618  TYR619  PRO620  LYS621  CYS622 
 ASP623  PHE694  ASN695  SER759  ASP760  ASP761  ALA762  ILE779  LEU786  VAL792 
 PHE793  MET794  SER795  GLU796  ALA797  LYS798  CYS799  TRP800  GLU811  SER814 

> <Gold.Protein.RotatedAtoms>
  152.1043  133.4266  159.4601 H   0  0  0  0  0  0  0  0  0  0  0  0  # atno 6907 bound_to 6896
  150.6865  134.2723  159.4602 H   0  0  0  0  0  0  0  0  0  0  0  0  # atno 6908 bound_to 6896
  152.0586  134.9608  160.0625 H   0  0  0  0  0  0  0  0  0  0  0  0  # atno 6909 bound_to 6896
  144.9685  139.4632  143.5445 H   0  0  0  0  0  0  0  0  0  0  0  0  # atno 7974 bound_to 7965
  156.2107  140.1779  156.7702 H   0  0  0  0  0  0  0  0  0  0  0  0  # atno 8008 bound_to 7997
  154.5718  140.0681  156.9005 H   0  0  0  0  0  0  0  0  0  0  0  0  # atno 8009 bound_to 7997
  155.2659  140.3339  155.4271 H   0  0  0  0  0  0  0  0  0  0  0  0  # atno 8010 bound_to 7997
  140.7151  143.3435  151.2306 H   0  0  0  0  0  0  0  0  0  0  0  0  # atno 10167 bound_to 10162
  157.6946  131.0518  150.4211 H   0  0  0  0  0  0  0  0  0  0  0  0  # atno 10718 bound_to 10713
  154.4693  135.2770  155.1654 H   0  0  0  0  0  0  0  0  0  0  0  0  # atno 10763 bound_to 10752
  154.3410  135.6170  153.5600 H   0  0  0  0  0  0  0  0  0  0  0  0  # atno 10764 bound_to 10752
  152.9862  135.5788  154.5071 H   0  0  0  0  0  0  0  0  0  0  0  0  # atno 10765 bound_to 10752
  140.6333  133.9556  155.8286 H   0  0  0  0  0  0  0  0  0  0  0  0  # atno 11005 bound_to 11000
  146.3375  139.8881  142.8813 LP  0  0  0  0  0  0  0  0  0  0  0  0  # atno 17320 bound_to 7965
  145.2594  141.0072  143.3835 LP  0  0  0  0  0  0  0  0  0  0  0  0  # atno 17321 bound_to 7965
  139.6948  143.9631  152.2877 LP  0  0  0  0  0  0  0  0  0  0  0  0  # atno 17342 bound_to 10162
  139.9304  144.6745  150.8368 LP  0  0  0  0  0  0  0  0  0  0  0  0  # atno 17343 bound_to 10162
  156.4586  130.4027  149.6590 LP  0  0  0  0  0  0  0  0  0  0  0  0  # atno 17370 bound_to 10713
  156.3714  130.7532  151.2516 LP  0  0  0  0  0  0  0  0  0  0  0  0  # atno 17371 bound_to 10713
  141.0660  134.0276  157.3593 LP  0  0  0  0  0  0  0  0  0  0  0  0  # atno 17394 bound_to 11000
  139.9108  135.0189  156.7682 LP  0  0  0  0  0  0  0  0  0  0  0  0  # atno 17395 bound_to 11000

$$$$
