AV-unprocessed.smi:2282|AV-procd|sdf|9197|dock7
  -GOLD-   2272012413D 1   1.00000     0.00000
 Structure written by MMmdl.
 32 33  0  0  0  0  0  0  0  0  1 V2000
  155.5697  134.8112  161.6695 C   0  0  0  0  0  0  0  0  0  0  0  0
  155.1914  135.8228  160.6038 C   0  0  0  0  0  0  0  0  0  0  0  0
  154.9530  135.3154  159.3747 N   0  0  0  0  0  0  0  0  0  0  0  0
  154.6207  136.1724  158.3879 C   0  0  0  0  0  0  0  0  0  0  0  0
  154.5042  137.5628  158.5758 C   0  0  0  0  0  0  0  0  0  0  0  0
  154.7368  138.0963  159.8659 C   0  0  0  0  0  0  0  0  0  0  0  0
  154.6674  139.4864  160.1602 N   0  0  0  0  0  0  0  0  0  0  0  0
  153.9603  140.4462  159.5361 C   0  0  0  0  0  0  0  0  0  0  0  0
  153.2252  140.2564  158.5667 O   0  0  0  0  0  0  0  0  0  0  0  0
  154.1089  141.8581  160.1149 C   0  0  2  0  0  0  0  0  0  0  0  0
  153.6396  141.9898  161.5757 C   0  0  0  0  0  0  0  0  0  0  0  0
  152.3558  142.7876  161.4674 C   0  0  0  0  0  0  0  0  0  0  0  0
  152.6226  143.6406  160.2326 C   0  0  2  0  0  0  0  0  0  0  0  0
  151.3588  144.2056  159.5761 C   0  0  0  0  0  0  0  0  0  0  0  0
  153.2779  142.7355  159.3569 O   0  0  0  0  0  0  0  0  0  0  0  0
  155.1026  137.2033  160.9006 C   0  0  0  0  0  0  0  0  0  0  0  0
  155.4285  137.7855  162.4992 Cl  0  0  0  0  0  0  0  0  0  0  0  0
  154.8523  134.8387  162.4897 H   0  0  0  0  0  0  0  0  0  0  0  0
  156.5596  135.0334  162.0686 H   0  0  0  0  0  0  0  0  0  0  0  0
  155.5875  133.7958  161.2716 H   0  0  0  0  0  0  0  0  0  0  0  0
  154.4489  135.7372  157.4146 H   0  0  0  0  0  0  0  0  0  0  0  0
  154.2555  138.1867  157.7315 H   0  0  0  0  0  0  0  0  0  0  0  0
  155.1615  139.7748  160.9923 H   0  0  0  0  0  0  0  0  0  0  0  0
  155.1450  142.1915  160.0333 H   0  0  0  0  0  0  0  0  0  0  0  0
  153.4888  141.0368  162.0847 H   0  0  0  0  0  0  0  0  0  0  0  0
  154.3790  142.5502  162.1492 H   0  0  0  0  0  0  0  0  0  0  0  0
  151.5141  142.1158  161.2932 H   0  0  0  0  0  0  0  0  0  0  0  0
  152.1442  143.3792  162.3584 H   0  0  0  0  0  0  0  0  0  0  0  0
  153.3128  144.4487  160.4809 H   0  0  0  0  0  0  0  0  0  0  0  0
  150.8331  144.8774  160.2548 H   0  0  0  0  0  0  0  0  0  0  0  0
  150.6706  143.4088  159.2923 H   0  0  0  0  0  0  0  0  0  0  0  0
  151.6061  144.7677  158.6755 H   0  0  0  0  0  0  0  0  0  0  0  0
  1  2  1  0  0  0  0
  1 18  1  0  0  0  0
  1 19  1  0  0  0  0
  1 20  1  0  0  0  0
  2 16  1  0  0  0  0
  2  3  2  0  0  0  0
  3  4  1  0  0  0  0
  4  5  2  0  0  0  0
  4 21  1  0  0  0  0
  5  6  1  0  0  0  0
  5 22  1  0  0  0  0
  6  7  1  0  0  0  0
  6 16  2  0  0  0  0
  7  8  1  0  0  0  0
  7 23  1  0  0  0  0
  8  9  2  0  0  0  0
  8 10  1  0  0  0  0
 10 15  1  0  0  0  0
 10 11  1  0  0  0  0
 10 24  1  0  0  0  0
 11 12  1  0  0  0  0
 11 25  1  0  0  0  0
 11 26  1  0  0  0  0
 12 13  1  0  0  0  0
 12 27  1  0  0  0  0
 12 28  1  0  0  0  0
 13 14  1  0  0  0  0
 13 15  1  0  0  0  0
 13 29  1  0  0  0  0
 14 30  1  0  0  0  0
 14 31  1  0  0  0  0
 14 32  1  0  0  0  0
 16 17  1  0  0  0  0
M  END
> <s_m_source_file>
AV-unprocessed.smi

> <i_m_source_file_index>
2282

> <i_lp_mmshare_version>
43012

> <i_f3d_flags>
0

> <s_epik_input>
W0NIM11jMW5bY0hdW2NIXWMoYzFDbClbTkhdQyg9TylbQ0BASF0yW0NIMl1bQ0gyXVtDQEhdKE8yKVtDSDNd

> <s_epik_cmdline>
J2VwaWtfcHl0aG9uJywgJy1waCcsICc3LjAnLCAnLXRuJywgJzgnLCAnLW1hJywgJzIwMCcsICctbWV0YWxfYmluZGluZycsICctaW1hZScsICc8aW5maWxlLm1hZT4nLCAnLW9tYWUnLCAnPG91dGZpbGUubWFlPic=

> <r_epik_Ionization_Penalty>
0.00037231

> <r_epik_Ionization_Penalty_Charging>
0

> <r_epik_Ionization_Penalty_Neutral>
0.00037231

> <r_epik_State_Penalty>
0.000225113

> <r_epik_Charging_Adjusted_Penalty>
0.000225113

> <i_epik_Tot_Q>
0

> <i_epik_Tot_abs_Q>
0

> <r_epik_Metal_State_Penalty>
-0

> <b_epik_Metal_Only>
0

> <s_lp_Force_Field>
OPLS_2005

> <r_lp_Energy>
23.9667

> <b_lp_Chiralities_Consistent>
1

> <s_lp_Variant>
AV-unprocessed.smi:2282-3

> <Gold.Version>
5.8.1

> <Gold.Id.Protein>
6NUR|6NUR_protein|mol2

> <Gold.PLP.Fitness>
37.7856

> <Gold.PLP.PLP>
-32.2726

> <Gold.PLP.part.hbond>
-2.0000

> <Gold.PLP.part.metal>
0.0000

> <Gold.PLP.part.buried>
-2.8601

> <Gold.PLP.part.nonpolar>
-26.7992

> <Gold.PLP.part.repulsive>
0.0392

> <Gold.PLP.ligand.clash>
0.0000

> <Gold.PLP.ligand.torsion>
0.1394

> <Gold.PLP.Chemscore.Hbond>
1.9280

> <Gold.PLP.Chemscore.CHOScore>
0.0000

> <Gold.PLP.Chemscore.Metal>
0.0000

> <Gold.Chemscore.Hbonds>
donor molecule, donor type, donor heavy atom, donor atom, acceptor molecule, acceptor atom, score
      P1  H  7997  8009       L1     9  0.63

> <Gold.PLP.Chemscore.Internal.Correction>
0.0077

> <Gold.Rescore>
     Score         DG    S(hbond)    S(metal)    S(lipo)     H(rot)  DE(clash)    DE(int)     intcor
     15.58     -16.96       0.91        0.00      94.07       1.00       0.04       1.34       ----

> <Gold.Chemscore.Fitness>
15.5831

> <Gold.Chemscore.DG>
-16.9588

> <Gold.Chemscore.ZeroCoef>
-5.4800

> <Gold.Chemscore.Hbond>
0.9081

> <Gold.Chemscore.Metal>
0.0000

> <Gold.Chemscore.Lipo>
94.0672

> <Gold.Chemscore.Internal_Hbond>
0.0000

> <Gold.Chemscore.DEClash>
0.0351

> <Gold.Chemscore.DEInternal>
1.3406

> <Gold.Chemscore.Rot>
1.0000

> <Gold.Chemscore.Internal.Correction>
   9.000000E+99

> <Gold.Chemscore.Hbonds>
donor molecule, donor type, donor heavy atom, donor atom, acceptor molecule, acceptor atom, score
      P1  H  7997  8009       L1     9  0.09

> <Gold.Chemscore.Hbond.Weighted>
-3.0329

> <Gold.Chemscore.Metal.Weighted>
-0.0000

> <Gold.Chemscore.Lipo.Weighted>
-11.0059

> <Gold.Chemscore.Internal_Hbond.Weighted>
0.0000

> <Gold.Chemscore.DEClash.Weighted>
0.0351

> <Gold.Chemscore.DEInternal.Weighted>
1.3406

> <Gold.Chemscore.Rot.Weighted>
2.5600

> <Gold.Chemscore.Internal.Correction.Weighted>
   9.000000E+99

> <Gold.Protein.RotatedTorsions>
[ 6907 6896 6895 6894 ] final  -48.07 input  -60.11 | X-H torsion
[ 7974 7965 7964 7962 ] final  -70.32 input  175.53 | X-H torsion
[ 8008 7997 7996 7995 ] final  141.47 input   59.86 | X-H torsion
[ 10167 10162 10161 10158 ] final  -51.45 input  -65.29 | X-H torsion
[ 10718 10713 10712 10709 ] final  -51.34 input   66.30 | X-H torsion
[ 10763 10752 10751 10750 ] final  139.50 input  -60.55 | X-H torsion
[ 11005 11000 10999 10996 ] final   57.69 input  -57.11 | X-H torsion

> <Gold.Protein.ActiveResidues>
 VAL166  LYS551  ARG553  GLY616  TRP617  ASP618  TYR619  PRO620  LYS621  CYS622 
 ASP623  PHE694  ASN695  SER759  ASP760  ASP761  ALA762  ILE779  LEU786  VAL792 
 PHE793  MET794  SER795  GLU796  ALA797  LYS798  CYS799  TRP800  GLU811  SER814 

> <Gold.Protein.RotatedAtoms>
  150.8943  134.8349  159.7314 H   0  0  0  0  0  0  0  0  0  0  0  0  # atno 6907 bound_to 6896
  152.4855  134.4600  159.9612 H   0  0  0  0  0  0  0  0  0  0  0  0  # atno 6908 bound_to 6896
  151.4659  133.3542  159.2851 H   0  0  0  0  0  0  0  0  0  0  0  0  # atno 6909 bound_to 6896
  145.6925  140.9148  143.0774 H   0  0  0  0  0  0  0  0  0  0  0  0  # atno 7974 bound_to 7965
  156.2965  140.2314  156.4570 H   0  0  0  0  0  0  0  0  0  0  0  0  # atno 8008 bound_to 7997
  154.8052  140.0446  157.1323 H   0  0  0  0  0  0  0  0  0  0  0  0  # atno 8009 bound_to 7997
  154.9487  140.3039  155.5089 H   0  0  0  0  0  0  0  0  0  0  0  0  # atno 8010 bound_to 7997
  140.6587  143.2619  151.4506 H   0  0  0  0  0  0  0  0  0  0  0  0  # atno 10167 bound_to 10162
  156.1719  130.4149  149.9635 H   0  0  0  0  0  0  0  0  0  0  0  0  # atno 10718 bound_to 10713
  153.9071  135.3015  155.3448 H   0  0  0  0  0  0  0  0  0  0  0  0  # atno 10763 bound_to 10752
  154.7642  135.4919  153.9524 H   0  0  0  0  0  0  0  0  0  0  0  0  # atno 10764 bound_to 10752
  153.1213  135.6783  153.9432 H   0  0  0  0  0  0  0  0  0  0  0  0  # atno 10765 bound_to 10752
  140.0434  134.5841  155.9353 H   0  0  0  0  0  0  0  0  0  0  0  0  # atno 11005 bound_to 11000
  144.6992  139.8840  143.7449 LP  0  0  0  0  0  0  0  0  0  0  0  0  # atno 17320 bound_to 7965
  146.0869  139.3858  143.0429 LP  0  0  0  0  0  0  0  0  0  0  0  0  # atno 17321 bound_to 7965
  139.5816  144.1697  152.1975 LP  0  0  0  0  0  0  0  0  0  0  0  0  # atno 17342 bound_to 10162
  140.1024  144.5528  150.6980 LP  0  0  0  0  0  0  0  0  0  0  0  0  # atno 17343 bound_to 10162
  156.7432  130.9087  151.3633 LP  0  0  0  0  0  0  0  0  0  0  0  0  # atno 17370 bound_to 10713
  157.6808  130.9138  150.0263 LP  0  0  0  0  0  0  0  0  0  0  0  0  # atno 17371 bound_to 10713
  141.1894  133.6565  156.5368 LP  0  0  0  0  0  0  0  0  0  0  0  0  # atno 17394 bound_to 11000
  140.4033  134.7337  157.4793 LP  0  0  0  0  0  0  0  0  0  0  0  0  # atno 17395 bound_to 11000

$$$$
