AV-unprocessed.smi:3042|AV-procd|sdf|11599|dock9
  -GOLD-   2272016573D 1   1.00000     0.00000
 Structure written by MMmdl.
 33 34  0  0  0  0  0  0  0  0  2 V2000
  147.2864  138.6581  151.6866 N   0  3  0  0  0  0  0  0  0  0  0  0
  146.9420  138.9914  153.0810 C   0  0  0  0  0  0  0  0  0  0  0  0
  147.4787  140.3851  153.4981 C   0  0  2  0  0  0  0  0  0  0  0  0
  148.8512  140.2084  154.1466 C   0  0  0  0  0  0  0  0  0  0  0  0
  149.5054  138.9563  154.1547 C   0  0  0  0  0  0  0  0  0  0  0  0
  150.7730  138.8544  154.7586 C   0  0  0  0  0  0  0  0  0  0  0  0
  151.3360  140.0097  155.3356 C   0  0  0  0  0  0  0  0  0  0  0  0
  150.7213  141.2120  155.3352 N   0  0  0  0  0  0  0  0  0  0  0  0
  149.5057  141.3016  154.7555 C   0  0  0  0  0  0  0  0  0  0  0  0
  146.5656  141.1565  154.3675 N   0  0  0  0  0  0  0  0  0  0  0  0
  146.7077  140.7831  155.7800 C   0  0  0  0  0  0  0  0  0  0  0  0
  145.7628  141.5764  156.6984 C   0  0  0  0  0  0  0  0  0  0  0  0
  146.0003  142.9685  156.5346 O   0  0  0  0  0  0  0  0  0  0  0  0
  145.8152  143.3932  155.1908 C   0  0  0  0  0  0  0  0  0  0  0  0
  146.7563  142.6060  154.2619 C   0  0  0  0  0  0  0  0  0  0  0  0
  147.6715  137.7253  151.6473 H   0  0  0  0  0  0  0  0  0  0  0  0
  147.9689  139.3193  151.3441 H   0  0  0  0  0  0  0  0  0  0  0  0
  145.8558  138.9453  153.1427 H   0  0  0  0  0  0  0  0  0  0  0  0
  147.3342  138.2131  153.7364 H   0  0  0  0  0  0  0  0  0  0  0  0
  147.6280  140.9578  152.5811 H   0  0  0  0  0  0  0  0  0  0  0  0
  149.0448  138.0888  153.7053 H   0  0  0  0  0  0  0  0  0  0  0  0
  151.3012  137.9126  154.7811 H   0  0  0  0  0  0  0  0  0  0  0  0
  152.3061  139.9671  155.8081 H   0  0  0  0  0  0  0  0  0  0  0  0
  149.0443  142.2781  154.7735 H   0  0  0  0  0  0  0  0  0  0  0  0
  146.5019  139.7224  155.9215 H   0  0  0  0  0  0  0  0  0  0  0  0
  147.7377  140.9439  156.1020 H   0  0  0  0  0  0  0  0  0  0  0  0
  144.7200  141.3460  156.4743 H   0  0  0  0  0  0  0  0  0  0  0  0
  145.9342  141.3069  157.7406 H   0  0  0  0  0  0  0  0  0  0  0  0
  144.7739  143.2512  154.8964 H   0  0  0  0  0  0  0  0  0  0  0  0
  146.0232  144.4611  155.1237 H   0  0  0  0  0  0  0  0  0  0  0  0
  147.7914  142.8618  154.4934 H   0  0  0  0  0  0  0  0  0  0  0  0
  146.5641  142.9454  153.2457 H   0  0  0  0  0  0  0  0  0  0  0  0
  146.4565  138.7044  151.1130 H   0  0  0  0  0  0  0  0  0  0  0  0
  1  2  1  0  0  0  0
  1 16  1  0  0  0  0
  1 17  1  0  0  0  0
  1 33  1  0  0  0  0
  2  3  1  0  0  0  0
  2 18  1  0  0  0  0
  2 19  1  0  0  0  0
  3  4  1  0  0  0  0
  3 10  1  0  0  0  0
  3 20  1  0  0  0  0
  4  9  1  0  0  0  0
  4  5  2  0  0  0  0
  5  6  1  0  0  0  0
  5 21  1  0  0  0  0
  6  7  2  0  0  0  0
  6 22  1  0  0  0  0
  7  8  1  0  0  0  0
  7 23  1  0  0  0  0
  8  9  2  0  0  0  0
  9 24  1  0  0  0  0
 10 15  1  0  0  0  0
 10 11  1  0  0  0  0
 11 12  1  0  0  0  0
 11 25  1  0  0  0  0
 11 26  1  0  0  0  0
 12 13  1  0  0  0  0
 12 27  1  0  0  0  0
 12 28  1  0  0  0  0
 13 14  1  0  0  0  0
 14 15  1  0  0  0  0
 14 29  1  0  0  0  0
 14 30  1  0  0  0  0
 15 31  1  0  0  0  0
 15 32  1  0  0  0  0
M  CHG  1   1   1
M  END
> <s_m_source_file>
AV-unprocessed.smi

> <i_m_source_file_index>
3042

> <i_lp_mmshare_version>
43012

> <i_f3d_flags>
0

> <s_epik_input>
W0NIMl0xW0NIMl1PW0NIMl1bQ0gyXU4xW0NASF0oW0NIMl1bTkgyXSljMltjSF1bY0hdW2NIXW5bY0hdMg==

> <s_epik_cmdline>
J2VwaWtfcHl0aG9uJywgJy1waCcsICc3LjAnLCAnLXRuJywgJzgnLCAnLW1hJywgJzIwMCcsICctbWV0YWxfYmluZGluZycsICctaW1hZScsICc8aW5maWxlLm1hZT4nLCAnLW9tYWUnLCAnPG91dGZpbGUubWFlPic=

> <r_epik_Ionization_Penalty>
0.0112597

> <r_epik_Ionization_Penalty_Charging>
0.00794922

> <r_epik_Ionization_Penalty_Neutral>
0.00331052

> <r_epik_State_Penalty>
0.00596555

> <r_epik_Charging_Adjusted_Penalty>
0.0139148

> <i_epik_Tot_Q>
1

> <i_epik_Tot_abs_Q>
1

> <r_epik_Metal_State_Penalty>
0.00603286

> <b_epik_Metal_Only>
0

> <s_lp_Force_Field>
OPLS_2005

> <r_lp_Energy>
28.2789

> <b_lp_Chiralities_Consistent>
1

> <s_lp_Variant>
AV-unprocessed.smi:3042-1

> <Gold.Version>
5.8.1

> <Gold.Id.Protein>
6NUR|6NUR_protein|mol2

> <Gold.PLP.Fitness>
37.9849

> <Gold.PLP.PLP>
-28.2781

> <Gold.PLP.part.hbond>
-2.9024

> <Gold.PLP.part.metal>
0.0000

> <Gold.PLP.part.buried>
-2.8961

> <Gold.PLP.part.nonpolar>
-23.5103

> <Gold.PLP.part.repulsive>
1.0163

> <Gold.PLP.ligand.clash>
0.0000

> <Gold.PLP.ligand.torsion>
1.1822

> <Gold.PLP.Chemscore.Hbond>
3.0000

> <Gold.PLP.Chemscore.CHOScore>
1.0000

> <Gold.PLP.Chemscore.Metal>
0.0000

> <Gold.Chemscore.Hbonds>
donor molecule, donor type, donor heavy atom, donor atom, acceptor molecule, acceptor atom, score
      L1  H     1    16       P1  7948  2.00
      L1  H     1    17       P1  7957  1.00
      L1  C     9    24       P1  8028  0.85

> <Gold.PLP.Chemscore.Internal.Correction>
0.0712

> <Gold.Rescore>
     Score         DG    S(hbond)    S(metal)    S(lipo)     H(rot)  DE(clash)    DE(int)     intcor
     12.93     -15.48       1.97        0.00      61.85       1.48       0.18       2.38       ----

> <Gold.Chemscore.Fitness>
12.9263

> <Gold.Chemscore.DG>
-15.4812

> <Gold.Chemscore.ZeroCoef>
-5.4800

> <Gold.Chemscore.Hbond>
1.9657

> <Gold.Chemscore.Metal>
0.0000

> <Gold.Chemscore.Lipo>
61.8497

> <Gold.Chemscore.Internal_Hbond>
0.0000

> <Gold.Chemscore.DEClash>
0.1760

> <Gold.Chemscore.DEInternal>
2.3789

> <Gold.Chemscore.Rot>
1.4846

> <Gold.Chemscore.Internal.Correction>
   9.000000E+99

> <Gold.Chemscore.Hbonds>
donor molecule, donor type, donor heavy atom, donor atom, acceptor molecule, acceptor atom, score
      L1  H     1    16       P1  7948  0.99
      L1  H     1    17       P1  7957  0.87

> <Gold.Chemscore.Hbond.Weighted>
-6.5653

> <Gold.Chemscore.Metal.Weighted>
-0.0000

> <Gold.Chemscore.Lipo.Weighted>
-7.2364

> <Gold.Chemscore.Internal_Hbond.Weighted>
0.0000

> <Gold.Chemscore.DEClash.Weighted>
0.1760

> <Gold.Chemscore.DEInternal.Weighted>
2.3789

> <Gold.Chemscore.Rot.Weighted>
3.8005

> <Gold.Chemscore.Internal.Correction.Weighted>
   9.000000E+99

> <Gold.Protein.RotatedTorsions>
[ 6907 6896 6895 6894 ] final   97.36 input  -60.11 | X-H torsion
[ 7974 7965 7964 7962 ] final  179.35 input  175.53 | X-H torsion
[ 8008 7997 7996 7995 ] final -139.26 input   59.86 | X-H torsion
[ 10167 10162 10161 10158 ] final  -18.40 input  -65.29 | X-H torsion
[ 10718 10713 10712 10709 ] final  -78.91 input   66.30 | X-H torsion
[ 10763 10752 10751 10750 ] final  159.21 input  -60.55 | X-H torsion
[ 11005 11000 10999 10996 ] final   -9.02 input  -57.11 | X-H torsion

> <Gold.Protein.ActiveResidues>
 VAL166  LYS551  ARG553  GLY616  TRP617  ASP618  TYR619  PRO620  LYS621  CYS622 
 ASP623  PHE694  ASN695  SER759  ASP760  ASP761  ALA762  ILE779  LEU786  VAL792 
 PHE793  MET794  SER795  GLU796  ALA797  LYS798  CYS799  TRP800  GLU811  SER814 

> <Gold.Protein.RotatedAtoms>
  152.5424  134.0746  159.8208 H   0  0  0  0  0  0  0  0  0  0  0  0  # atno 6907 bound_to 6896
  151.0856  133.5348  159.2625 H   0  0  0  0  0  0  0  0  0  0  0  0  # atno 6908 bound_to 6896
  151.2159  135.0508  159.8984 H   0  0  0  0  0  0  0  0  0  0  0  0  # atno 6909 bound_to 6896
  144.7146  140.0535  143.6434 H   0  0  0  0  0  0  0  0  0  0  0  0  # atno 7974 bound_to 7965
  155.4419  140.0532  157.3009 H   0  0  0  0  0  0  0  0  0  0  0  0  # atno 8008 bound_to 7997
  154.4814  140.2083  155.9712 H   0  0  0  0  0  0  0  0  0  0  0  0  # atno 8009 bound_to 7997
  156.1211  140.3188  155.8215 H   0  0  0  0  0  0  0  0  0  0  0  0  # atno 8010 bound_to 7997
  140.7258  143.4920  150.9980 H   0  0  0  0  0  0  0  0  0  0  0  0  # atno 10167 bound_to 10162
  156.0105  130.4531  150.3569 H   0  0  0  0  0  0  0  0  0  0  0  0  # atno 10718 bound_to 10713
  154.2282  135.2779  155.2900 H   0  0  0  0  0  0  0  0  0  0  0  0  # atno 10763 bound_to 10752
  154.5646  135.5637  153.7042 H   0  0  0  0  0  0  0  0  0  0  0  0  # atno 10764 bound_to 10752
  153.0026  135.6306  154.2423 H   0  0  0  0  0  0  0  0  0  0  0  0  # atno 10765 bound_to 10752
  140.7297  133.8759  155.8883 H   0  0  0  0  0  0  0  0  0  0  0  0  # atno 11005 bound_to 11000
  145.9924  139.3025  143.0977 LP  0  0  0  0  0  0  0  0  0  0  0  0  # atno 17320 bound_to 7965
  145.8888  140.9317  143.0563 LP  0  0  0  0  0  0  0  0  0  0  0  0  # atno 17321 bound_to 7965
  139.8625  143.7296  152.3172 LP  0  0  0  0  0  0  0  0  0  0  0  0  # atno 17342 bound_to 10162
  139.7517  144.7532  151.0497 LP  0  0  0  0  0  0  0  0  0  0  0  0  # atno 17343 bound_to 10162
  157.1659  131.0356  151.2819 LP  0  0  0  0  0  0  0  0  0  0  0  0  # atno 17370 bound_to 10713
  157.4271  130.7470  149.6960 LP  0  0  0  0  0  0  0  0  0  0  0  0  # atno 17371 bound_to 10713
  140.9931  134.1251  157.4389 LP  0  0  0  0  0  0  0  0  0  0  0  0  # atno 17394 bound_to 11000
  139.8829  135.0046  156.6262 LP  0  0  0  0  0  0  0  0  0  0  0  0  # atno 17395 bound_to 11000

$$$$
