AV-unprocessed.smi:3030|AV-procd|sdf|11539|dock10
  -GOLD-   2272016483D 1   1.00000     0.00000
 Structure written by MMmdl.
 52 53  0  0  0  0  0  0  0  0  1 V2000
  148.6003  131.3110  162.0028 C   0  0  0  0  0  0  0  0  0  0  0  0
  147.4432  131.9300  161.2110 C   0  0  0  0  0  0  0  0  0  0  0  0
  147.4224  133.3806  161.3312 N   0  0  0  0  0  0  0  0  0  0  0  0
  147.2132  134.0016  162.5580 C   0  0  0  0  0  0  0  0  0  0  0  0
  147.2331  135.3358  162.7418 C   0  0  0  0  0  0  0  0  0  0  0  0
  147.4952  136.2211  161.5889 C   0  0  0  0  0  0  0  0  0  0  0  0
  147.5219  137.4447  161.7208 O   0  0  0  0  0  0  0  0  0  0  0  0
  147.7224  135.5576  160.2777 C   0  0  0  0  0  0  0  0  0  0  0  0
  147.9769  136.4076  159.1888 N   0  0  0  0  0  0  0  0  0  0  0  0
  149.0086  137.2460  158.9820 C   0  0  0  0  0  0  0  0  0  0  0  0
  149.9644  137.4170  159.7382 O   0  0  0  0  0  0  0  0  0  0  0  0
  148.8770  137.8793  157.8073 N   0  0  0  0  0  0  0  0  0  0  0  0
  149.8317  138.8273  157.2411 C   0  0  2  0  0  0  0  0  0  0  0  0
  150.0930  139.9930  158.2132 C   0  0  0  0  0  0  0  0  0  0  0  0
  151.2521  140.8794  157.7142 C   0  0  2  0  0  0  0  0  0  0  0  0
  151.4935  142.0709  158.6520 C   0  0  0  0  0  0  0  0  0  0  0  0
  151.0127  141.3392  156.2614 C   0  0  0  0  0  0  0  0  0  0  0  0
  150.6965  140.1525  155.3303 C   0  0  0  0  0  0  0  0  0  0  0  0
  149.4683  139.3400  155.8138 C   0  0  2  0  0  0  0  0  0  0  0  0
  148.1143  140.1211  155.6673 C   0  0  0  0  0  0  0  0  0  0  0  0
  146.8613  139.2672  155.9481 C   0  0  0  0  0  0  0  0  0  0  0  0
  147.9498  140.7554  154.2711 C   0  0  0  0  0  0  0  0  0  0  0  0
  147.6783  134.2013  160.2345 C   0  0  0  0  0  0  0  0  0  0  0  0
  148.6028  130.2259  161.9000 H   0  0  0  0  0  0  0  0  0  0  0  0
  148.5201  131.5447  163.0648 H   0  0  0  0  0  0  0  0  0  0  0  0
  149.5627  131.6817  161.6492 H   0  0  0  0  0  0  0  0  0  0  0  0
  147.5252  131.6527  160.1594 H   0  0  0  0  0  0  0  0  0  0  0  0
  146.4940  131.5225  161.5609 H   0  0  0  0  0  0  0  0  0  0  0  0
  147.0233  133.3208  163.3753 H   0  0  0  0  0  0  0  0  0  0  0  0
  147.0617  135.7741  163.7141 H   0  0  0  0  0  0  0  0  0  0  0  0
  147.2889  136.3563  158.4515 H   0  0  0  0  0  0  0  0  0  0  0  0
  148.0607  137.6758  157.2496 H   0  0  0  0  0  0  0  0  0  0  0  0
  150.7742  138.2807  157.1632 H   0  0  0  0  0  0  0  0  0  0  0  0
  149.1889  140.5881  158.3450 H   0  0  0  0  0  0  0  0  0  0  0  0
  150.3424  139.5987  159.1993 H   0  0  0  0  0  0  0  0  0  0  0  0
  152.1583  140.2716  157.7208 H   0  0  0  0  0  0  0  0  0  0  0  0
  150.6223  142.7254  158.6939 H   0  0  0  0  0  0  0  0  0  0  0  0
  152.3429  142.6677  158.3188 H   0  0  0  0  0  0  0  0  0  0  0  0
  151.7060  141.7344  159.6671 H   0  0  0  0  0  0  0  0  0  0  0  0
  150.1988  142.0636  156.2279 H   0  0  0  0  0  0  0  0  0  0  0  0
  151.8959  141.8619  155.8925 H   0  0  0  0  0  0  0  0  0  0  0  0
  150.5777  140.4951  154.3040 H   0  0  0  0  0  0  0  0  0  0  0  0
  151.5664  139.4951  155.2986 H   0  0  0  0  0  0  0  0  0  0  0  0
  149.3977  138.4694  155.1601 H   0  0  0  0  0  0  0  0  0  0  0  0
  148.1002  140.9431  156.3822 H   0  0  0  0  0  0  0  0  0  0  0  0
  146.8862  138.3277  155.3950 H   0  0  0  0  0  0  0  0  0  0  0  0
  145.9494  139.7919  155.6617 H   0  0  0  0  0  0  0  0  0  0  0  0
  146.7496  139.0413  157.0068 H   0  0  0  0  0  0  0  0  0  0  0  0
  148.0588  140.0107  153.4819 H   0  0  0  0  0  0  0  0  0  0  0  0
  148.6741  141.5494  154.0938 H   0  0  0  0  0  0  0  0  0  0  0  0
  146.9675  141.2148  154.1568 H   0  0  0  0  0  0  0  0  0  0  0  0
  147.8428  133.6355  159.3314 H   0  0  0  0  0  0  0  0  0  0  0  0
  1  2  1  0  0  0  0
  1 24  1  0  0  0  0
  1 25  1  0  0  0  0
  1 26  1  0  0  0  0
  2  3  1  0  0  0  0
  2 27  1  0  0  0  0
  2 28  1  0  0  0  0
  3 23  1  0  0  0  0
  3  4  1  0  0  0  0
  4  5  2  0  0  0  0
  4 29  1  0  0  0  0
  5  6  1  0  0  0  0
  5 30  1  0  0  0  0
  6  7  2  0  0  0  0
  6  8  1  0  0  0  0
  8  9  1  0  0  0  0
  8 23  2  0  0  0  0
  9 10  1  0  0  0  0
  9 31  1  0  0  0  0
 10 11  2  0  0  0  0
 10 12  1  0  0  0  0
 12 13  1  0  0  0  0
 12 32  1  0  0  0  0
 13 19  1  0  0  0  0
 13 14  1  0  0  0  0
 13 33  1  0  0  0  0
 14 15  1  0  0  0  0
 14 34  1  0  0  0  0
 14 35  1  0  0  0  0
 15 16  1  0  0  0  0
 15 17  1  0  0  0  0
 15 36  1  0  0  0  0
 16 37  1  0  0  0  0
 16 38  1  0  0  0  0
 16 39  1  0  0  0  0
 17 18  1  0  0  0  0
 17 40  1  0  0  0  0
 17 41  1  0  0  0  0
 18 19  1  0  0  0  0
 18 42  1  0  0  0  0
 18 43  1  0  0  0  0
 19 20  1  0  0  0  0
 19 44  1  0  0  0  0
 20 21  1  0  0  0  0
 20 22  1  0  0  0  0
 20 45  1  0  0  0  0
 21 46  1  0  0  0  0
 21 47  1  0  0  0  0
 21 48  1  0  0  0  0
 22 49  1  0  0  0  0
 22 50  1  0  0  0  0
 22 51  1  0  0  0  0
 23 52  1  0  0  0  0
M  END
> <s_m_source_file>
AV-unprocessed.smi

> <i_m_source_file_index>
3030

> <i_lp_mmshare_version>
43012

> <i_f3d_flags>
0

> <s_epik_input>
W0NIM11bQ0gyXW4xW2NIXVtjSF1jKD1PKWMoW2NIXTEpW05IXUMoPU8pW05IXVtDQEBIXTJbQ0gyXVtDQEBIXShbQ0gzXSlbQ0gyXVtDSDJdW0NASF0yW0NIXShbQ0gzXSlbQ0gzXQ==

> <s_epik_cmdline>
J2VwaWtfcHl0aG9uJywgJy1waCcsICc3LjAnLCAnLXRuJywgJzgnLCAnLW1hJywgJzIwMCcsICctbWV0YWxfYmluZGluZycsICctaW1hZScsICc8aW5maWxlLm1hZT4nLCAnLW9tYWUnLCAnPG91dGZpbGUubWFlPic=

> <r_lp_tautomer_probability>
1

> <r_epik_Ionization_Penalty>
0.00147933

> <r_epik_Ionization_Penalty_Charging>
0.00145753

> <r_epik_Ionization_Penalty_Neutral>
2.17987e-05

> <r_epik_State_Penalty>
0.00097457

> <r_epik_Charging_Adjusted_Penalty>
0.0024321

> <i_epik_Tot_Q>
0

> <i_epik_Tot_abs_Q>
0

> <r_epik_Metal_State_Penalty>
-0

> <b_epik_Metal_Only>
0

> <s_lp_Force_Field>
OPLS_2005

> <r_lp_Energy>
13.9811

> <b_lp_Chiralities_Consistent>
1

> <s_lp_Variant>
AV-unprocessed.smi:3030-7

> <Gold.Version>
5.8.1

> <Gold.Id.Protein>
6NUR|6NUR_protein|mol2

> <Gold.PLP.Fitness>
43.3170

> <Gold.PLP.PLP>
-39.7119

> <Gold.PLP.part.hbond>
-3.0000

> <Gold.PLP.part.metal>
0.0000

> <Gold.PLP.part.buried>
-3.9715

> <Gold.PLP.part.nonpolar>
-32.3962

> <Gold.PLP.part.repulsive>
0.1966

> <Gold.PLP.ligand.clash>
0.0000

> <Gold.PLP.ligand.torsion>
0.7258

> <Gold.PLP.Chemscore.Hbond>
1.6640

> <Gold.PLP.Chemscore.CHOScore>
0.0000

> <Gold.PLP.Chemscore.Metal>
0.0000

> <Gold.Chemscore.Hbonds>
donor molecule, donor type, donor heavy atom, donor atom, acceptor molecule, acceptor atom, score
      P1  H  6931  6943       L1     7  0.83
      P1  H  6934  6947       L1     7  0.70

> <Gold.PLP.Chemscore.Internal.Correction>
0.0646

> <Gold.Rescore>
     Score         DG    S(hbond)    S(metal)    S(lipo)     H(rot)  DE(clash)    DE(int)     intcor
     16.80     -17.75       1.75        0.00      82.79       1.27       0.08       0.88       ----

> <Gold.Chemscore.Fitness>
16.7965

> <Gold.Chemscore.DG>
-17.7546

> <Gold.Chemscore.ZeroCoef>
-5.4800

> <Gold.Chemscore.Hbond>
1.7473

> <Gold.Chemscore.Metal>
0.0000

> <Gold.Chemscore.Lipo>
82.7858

> <Gold.Chemscore.Internal_Hbond>
0.0000

> <Gold.Chemscore.DEClash>
0.0811

> <Gold.Chemscore.DEInternal>
0.8770

> <Gold.Chemscore.Rot>
1.2685

> <Gold.Chemscore.Internal.Correction>
   9.000000E+99

> <Gold.Chemscore.Hbonds>
donor molecule, donor type, donor heavy atom, donor atom, acceptor molecule, acceptor atom, score
      P1  H  6931  6943       L1     7  0.80
      P1  H  6934  6947       L1     7  0.72

> <Gold.Chemscore.Hbond.Weighted>
-5.8361

> <Gold.Chemscore.Metal.Weighted>
-0.0000

> <Gold.Chemscore.Lipo.Weighted>
-9.6859

> <Gold.Chemscore.Internal_Hbond.Weighted>
0.0000

> <Gold.Chemscore.DEClash.Weighted>
0.0811

> <Gold.Chemscore.DEInternal.Weighted>
0.8770

> <Gold.Chemscore.Rot.Weighted>
3.2474

> <Gold.Chemscore.Internal.Correction.Weighted>
   9.000000E+99

> <Gold.Protein.RotatedTorsions>
[ 6907 6896 6895 6894 ] final  -52.90 input  -60.11 | X-H torsion
[ 7974 7965 7964 7962 ] final -149.80 input  175.53 | X-H torsion
[ 8008 7997 7996 7995 ] final  122.01 input   59.86 | X-H torsion
[ 10167 10162 10161 10158 ] final -140.02 input  -65.29 | X-H torsion
[ 10718 10713 10712 10709 ] final  141.09 input   66.30 | X-H torsion
[ 10763 10752 10751 10750 ] final   97.70 input  -60.55 | X-H torsion
[ 11005 11000 10999 10996 ] final  -10.47 input  -57.11 | X-H torsion

> <Gold.Protein.ActiveResidues>
 VAL166  LYS551  ARG553  GLY616  TRP617  ASP618  TYR619  PRO620  LYS621  CYS622 
 ASP623  PHE694  ASN695  SER759  ASP760  ASP761  ALA762  ILE779  LEU786  VAL792 
 PHE793  MET794  SER795  GLU796  ALA797  LYS798  CYS799  TRP800  GLU811  SER814 

> <Gold.Protein.RotatedAtoms>
  150.8476  134.7790  159.6982 H   0  0  0  0  0  0  0  0  0  0  0  0  # atno 6907 bound_to 6896
  152.4549  134.5310  159.9821 H   0  0  0  0  0  0  0  0  0  0  0  0  # atno 6908 bound_to 6896
  151.5438  133.3390  159.2976 H   0  0  0  0  0  0  0  0  0  0  0  0  # atno 6909 bound_to 6896
  144.7945  140.5016  143.5749 H   0  0  0  0  0  0  0  0  0  0  0  0  # atno 7974 bound_to 7965
  156.2710  140.2795  156.1400 H   0  0  0  0  0  0  0  0  0  0  0  0  # atno 8008 bound_to 7997
  155.0964  140.0389  157.2701 H   0  0  0  0  0  0  0  0  0  0  0  0  # atno 8009 bound_to 7997
  154.6849  140.2617  155.6876 H   0  0  0  0  0  0  0  0  0  0  0  0  # atno 8010 bound_to 7997
  139.8322  143.7431  152.2665 H   0  0  0  0  0  0  0  0  0  0  0  0  # atno 10167 bound_to 10162
  157.3959  131.1010  151.0600 H   0  0  0  0  0  0  0  0  0  0  0  0  # atno 10718 bound_to 10713
  153.2801  135.4174  155.1070 H   0  0  0  0  0  0  0  0  0  0  0  0  # atno 10763 bound_to 10752
  154.8486  135.3493  154.6124 H   0  0  0  0  0  0  0  0  0  0  0  0  # atno 10764 bound_to 10752
  153.6544  135.7051  153.5255 H   0  0  0  0  0  0  0  0  0  0  0  0  # atno 10765 bound_to 10752
  140.7451  133.8638  155.8999 H   0  0  0  0  0  0  0  0  0  0  0  0  # atno 11005 bound_to 11000
  145.5708  139.1483  143.3289 LP  0  0  0  0  0  0  0  0  0  0  0  0  # atno 17320 bound_to 7965
  146.2209  140.5841  142.9017 LP  0  0  0  0  0  0  0  0  0  0  0  0  # atno 17321 bound_to 7965
  139.7643  144.7497  151.0318 LP  0  0  0  0  0  0  0  0  0  0  0  0  # atno 17342 bound_to 10162
  140.7805  143.4716  151.0138 LP  0  0  0  0  0  0  0  0  0  0  0  0  # atno 17343 bound_to 10162
  157.1617  130.6228  149.5613 LP  0  0  0  0  0  0  0  0  0  0  0  0  # atno 17370 bound_to 10713
  155.9810  130.4815  150.6804 LP  0  0  0  0  0  0  0  0  0  0  0  0  # atno 17371 bound_to 10713
  140.9801  134.1416  157.4501 LP  0  0  0  0  0  0  0  0  0  0  0  0  # atno 17394 bound_to 11000
  139.8798  135.0008  156.6029 LP  0  0  0  0  0  0  0  0  0  0  0  0  # atno 17395 bound_to 11000

$$$$
