AV-unprocessed.smi:1665|AV-procd|sdf|6669|dock1
  -GOLD-   22720 7383D 1   1.00000     0.00000
 Structure written by MMmdl.
 37 38  0  0  0  0  0  0  0  0  1 V2000
  152.9970  139.5365  159.2549 C   0  0  0  0  0  0  0  0  0  0  0  0
  152.7712  141.0168  158.9089 C   0  0  2  0  0  0  0  0  0  0  0  0
  152.4986  141.8539  160.1733 C   0  0  0  0  0  0  0  0  0  0  0  0
  152.2515  143.2528  159.8703 N   0  0  0  0  0  0  0  0  0  0  0  0
  151.9301  144.2738  160.7394 C   0  0  0  0  0  0  0  0  0  0  0  0
  151.7924  145.4108  159.9963 C   0  0  0  0  0  0  0  0  0  0  0  0
  152.0532  144.9788  158.6658 C   0  0  0  0  0  0  0  0  0  0  0  0
  152.3308  143.6875  158.5940 N   0  0  0  0  0  0  0  0  0  0  0  0
  151.6599  141.1524  157.9700 N   0  0  0  0  0  0  0  0  0  0  0  0
  151.6208  140.6369  156.7327 C   0  0  0  0  0  0  0  0  0  0  0  0
  152.5083  139.9216  156.2677 O   0  0  0  0  0  0  0  0  0  0  0  0
  150.3972  140.9963  155.8842 C   0  0  0  0  0  0  0  0  0  0  0  0
  149.1489  141.3396  156.7263 C   0  0  0  0  0  0  0  0  0  0  0  0
  147.9676  141.6364  155.9122 N   0  0  0  0  0  0  0  0  0  0  0  0
  148.0510  141.5525  154.4605 C   0  0  0  0  0  0  0  0  0  0  0  0
  146.8146  142.2489  153.8903 C   0  0  0  0  0  0  0  0  0  0  0  0
  145.5228  142.1661  155.1469 S   0  0  0  0  0  0  0  0  0  0  0  0
  146.7159  141.8831  156.4596 C   0  0  0  0  0  0  0  0  0  0  0  0
  146.4044  141.9120  157.6487 O   0  0  0  0  0  0  0  0  0  0  0  0
  153.8395  139.4190  159.9366 H   0  0  0  0  0  0  0  0  0  0  0  0
  153.2149  138.9483  158.3629 H   0  0  0  0  0  0  0  0  0  0  0  0
  152.1183  139.1024  159.7335 H   0  0  0  0  0  0  0  0  0  0  0  0
  153.6799  141.4003  158.4406 H   0  0  0  0  0  0  0  0  0  0  0  0
  151.6477  141.4512  160.7257 H   0  0  0  0  0  0  0  0  0  0  0  0
  153.3557  141.8049  160.8460 H   0  0  0  0  0  0  0  0  0  0  0  0
  151.8282  144.1075  161.8017 H   0  0  0  0  0  0  0  0  0  0  0  0
  151.5464  146.4015  160.3486 H   0  0  0  0  0  0  0  0  0  0  0  0
  152.0558  145.5627  157.7572 H   0  0  0  0  0  0  0  0  0  0  0  0
  150.8859  141.7305  158.2653 H   0  0  0  0  0  0  0  0  0  0  0  0
  150.6581  141.8501  155.2582 H   0  0  0  0  0  0  0  0  0  0  0  0
  150.1695  140.1780  155.1996 H   0  0  0  0  0  0  0  0  0  0  0  0
  148.9248  140.5171  157.4074 H   0  0  0  0  0  0  0  0  0  0  0  0
  149.3642  142.1986  157.3634 H   0  0  0  0  0  0  0  0  0  0  0  0
  148.9682  142.0052  154.0825 H   0  0  0  0  0  0  0  0  0  0  0  0
  148.0587  140.4994  154.1763 H   0  0  0  0  0  0  0  0  0  0  0  0
  147.0344  143.3008  153.7049 H   0  0  0  0  0  0  0  0  0  0  0  0
  146.4843  141.8057  152.9508 H   0  0  0  0  0  0  0  0  0  0  0  0
  1  2  1  0  0  0  0
  1 20  1  0  0  0  0
  1 21  1  0  0  0  0
  1 22  1  0  0  0  0
  2  3  1  0  0  0  0
  2  9  1  0  0  0  0
  2 23  1  0  0  0  0
  3  4  1  0  0  0  0
  3 24  1  0  0  0  0
  3 25  1  0  0  0  0
  4  8  1  0  0  0  0
  4  5  1  0  0  0  0
  5  6  2  0  0  0  0
  5 26  1  0  0  0  0
  6  7  1  0  0  0  0
  6 27  1  0  0  0  0
  7  8  2  0  0  0  0
  7 28  1  0  0  0  0
  9 10  1  0  0  0  0
  9 29  1  0  0  0  0
 10 11  2  0  0  0  0
 10 12  1  0  0  0  0
 12 13  1  0  0  0  0
 12 30  1  0  0  0  0
 12 31  1  0  0  0  0
 13 14  1  0  0  0  0
 13 32  1  0  0  0  0
 13 33  1  0  0  0  0
 14 18  1  0  0  0  0
 14 15  1  0  0  0  0
 15 16  1  0  0  0  0
 15 34  1  0  0  0  0
 15 35  1  0  0  0  0
 16 17  1  0  0  0  0
 16 36  1  0  0  0  0
 16 37  1  0  0  0  0
 17 18  1  0  0  0  0
 18 19  2  0  0  0  0
M  END
> <s_m_source_file>
AV-unprocessed.smi

> <i_m_source_file_index>
1665

> <i_lp_mmshare_version>
43012

> <i_f3d_flags>
0

> <s_epik_input>
bjFbY0hdW2NIXVtjSF1uMVtDSDJdW0NAQEhdKFtDSDNdKVtOSF1DKD1PKVtDSDJdW0NIMl1OMltDSDJdW0NIMl1TQzI9Tw==

> <s_epik_cmdline>
J2VwaWtfcHl0aG9uJywgJy1waCcsICc3LjAnLCAnLXRuJywgJzgnLCAnLW1hJywgJzIwMCcsICctbWV0YWxfYmluZGluZycsICctaW1hZScsICc8aW5maWxlLm1hZT4nLCAnLW9tYWUnLCAnPG91dGZpbGUubWFlPic=

> <r_lp_tautomer_probability>
1

> <r_epik_Ionization_Penalty>
0.000300775

> <r_epik_Ionization_Penalty_Charging>
0

> <r_epik_Ionization_Penalty_Neutral>
0.000300775

> <r_epik_State_Penalty>
-0

> <r_epik_Charging_Adjusted_Penalty>
0

> <i_epik_Tot_Q>
0

> <i_epik_Tot_abs_Q>
0

> <r_epik_Metal_State_Penalty>
-0

> <b_epik_Metal_Only>
0

> <s_lp_Force_Field>
OPLS_2005

> <r_lp_Energy>
0.465271

> <b_lp_Chiralities_Consistent>
1

> <s_lp_Variant>
AV-unprocessed.smi:1665-1

> <Gold.Version>
5.8.1

> <Gold.Id.Protein>
6NUR|6NUR_protein|mol2

> <Gold.PLP.Fitness>
45.5509

> <Gold.PLP.PLP>
-43.2080

> <Gold.PLP.part.hbond>
-1.0000

> <Gold.PLP.part.metal>
0.0000

> <Gold.PLP.part.buried>
-6.1603

> <Gold.PLP.part.nonpolar>
-35.7127

> <Gold.PLP.part.repulsive>
0.1792

> <Gold.PLP.ligand.clash>
0.0000

> <Gold.PLP.ligand.torsion>
0.3933

> <Gold.PLP.Chemscore.Hbond>
1.0000

> <Gold.PLP.Chemscore.CHOScore>
0.0000

> <Gold.PLP.Chemscore.Metal>
0.0000

> <Gold.Chemscore.Hbonds>
donor molecule, donor type, donor heavy atom, donor atom, acceptor molecule, acceptor atom, score
      P1  H  7997  8008       L1    11  1.00

> <Gold.PLP.Chemscore.Internal.Correction>
0.1295

> <Gold.Rescore>
     Score         DG    S(hbond)    S(metal)    S(lipo)     H(rot)  DE(clash)    DE(int)     intcor
     13.86     -14.36       1.00        0.00      95.55       2.20       0.08       0.42       ----

> <Gold.Chemscore.Fitness>
13.8648

> <Gold.Chemscore.DG>
-14.3558

> <Gold.Chemscore.ZeroCoef>
-5.4800

> <Gold.Chemscore.Hbond>
0.9986

> <Gold.Chemscore.Metal>
0.0000

> <Gold.Chemscore.Lipo>
95.5492

> <Gold.Chemscore.Internal_Hbond>
0.0000

> <Gold.Chemscore.DEClash>
0.0759

> <Gold.Chemscore.DEInternal>
0.4152

> <Gold.Chemscore.Rot>
2.2026

> <Gold.Chemscore.Internal.Correction>
   9.000000E+99

> <Gold.Chemscore.Hbonds>
donor molecule, donor type, donor heavy atom, donor atom, acceptor molecule, acceptor atom, score
      P1  H  7997  8008       L1    11  1.00

> <Gold.Chemscore.Hbond.Weighted>
-3.3353

> <Gold.Chemscore.Metal.Weighted>
-0.0000

> <Gold.Chemscore.Lipo.Weighted>
-11.1793

> <Gold.Chemscore.Internal_Hbond.Weighted>
0.0000

> <Gold.Chemscore.DEClash.Weighted>
0.0759

> <Gold.Chemscore.DEInternal.Weighted>
0.4152

> <Gold.Chemscore.Rot.Weighted>
5.6387

> <Gold.Chemscore.Internal.Correction.Weighted>
   9.000000E+99

> <Gold.Protein.RotatedTorsions>
[ 6907 6896 6895 6894 ] final   91.18 input  -60.11 | X-H torsion
[ 7974 7965 7964 7962 ] final  168.13 input  175.53 | X-H torsion
[ 8008 7997 7996 7995 ] final  -39.74 input   59.86 | X-H torsion
[ 10167 10162 10161 10158 ] final  115.57 input  -65.29 | X-H torsion
[ 10718 10713 10712 10709 ] final  -27.77 input   66.30 | X-H torsion
[ 10763 10752 10751 10750 ] final   30.78 input  -60.55 | X-H torsion
[ 11005 11000 10999 10996 ] final  111.69 input  -57.11 | X-H torsion

> <Gold.Protein.ActiveResidues>
 VAL166  LYS551  ARG553  GLY616  TRP617  ASP618  TYR619  PRO620  LYS621  CYS622 
 ASP623  PHE694  ASN695  SER759  ASP760  ASP761  ALA762  ILE779  LEU786  VAL792 
 PHE793  MET794  SER795  GLU796  ALA797  LYS798  CYS799  TRP800  GLU811  SER814 

> <Gold.Protein.RotatedAtoms>
  152.5449  134.1697  159.8591 H   0  0  0  0  0  0  0  0  0  0  0  0  # atno 6907 bound_to 6896
  151.1708  133.4779  159.2601 H   0  0  0  0  0  0  0  0  0  0  0  0  # atno 6908 bound_to 6896
  151.1277  135.0125  159.8623 H   0  0  0  0  0  0  0  0  0  0  0  0  # atno 6909 bound_to 6896
  144.7399  139.8862  143.6400 H   0  0  0  0  0  0  0  0  0  0  0  0  # atno 7974 bound_to 7965
  154.4019  140.1543  156.2913 H   0  0  0  0  0  0  0  0  0  0  0  0  # atno 8008 bound_to 7997
  155.8782  140.3445  155.5847 H   0  0  0  0  0  0  0  0  0  0  0  0  # atno 8009 bound_to 7997
  155.7697  140.0828  157.2105 H   0  0  0  0  0  0  0  0  0  0  0  0  # atno 8010 bound_to 7997
  139.6307  144.7114  151.2437 H   0  0  0  0  0  0  0  0  0  0  0  0  # atno 10167 bound_to 10162
  156.4338  130.4450  149.7099 H   0  0  0  0  0  0  0  0  0  0  0  0  # atno 10718 bound_to 10713
  153.0352  135.6455  154.1098 H   0  0  0  0  0  0  0  0  0  0  0  0  # atno 10763 bound_to 10752
  154.0814  135.2873  155.3291 H   0  0  0  0  0  0  0  0  0  0  0  0  # atno 10764 bound_to 10752
  154.6527  135.5420  153.7986 H   0  0  0  0  0  0  0  0  0  0  0  0  # atno 10765 bound_to 10752
  139.8909  134.9513  156.6471 H   0  0  0  0  0  0  0  0  0  0  0  0  # atno 11005 bound_to 11000
  146.1175  139.4188  143.0249 LP  0  0  0  0  0  0  0  0  0  0  0  0  # atno 17320 bound_to 7965
  145.7353  141.0028  143.1330 LP  0  0  0  0  0  0  0  0  0  0  0  0  # atno 17321 bound_to 7965
  140.7437  143.6485  150.8270 LP  0  0  0  0  0  0  0  0  0  0  0  0  # atno 17342 bound_to 10162
  140.0109  143.5643  152.2839 LP  0  0  0  0  0  0  0  0  0  0  0  0  # atno 17343 bound_to 10162
  156.3991  130.7665  151.2672 LP  0  0  0  0  0  0  0  0  0  0  0  0  # atno 17370 bound_to 10713
  157.7508  131.0245  150.3880 LP  0  0  0  0  0  0  0  0  0  0  0  0  # atno 17371 bound_to 10713
  140.7549  133.8866  155.8374 LP  0  0  0  0  0  0  0  0  0  0  0  0  # atno 17394 bound_to 11000
  140.9970  134.1201  157.4354 LP  0  0  0  0  0  0  0  0  0  0  0  0  # atno 17395 bound_to 11000

$$$$
