AV-unprocessed.smi:232|AV-procd|sdf|1767|dock2
  -GOLD-   2262020303D 1   1.00000     0.00000
 Structure written by MMmdl.
 52 55  0  0  0  0  0  0  0  0  1 V2000
  151.8377  145.0748  159.2986 C   0  0  0  0  0  0  0  0  0  0  0  0
  152.2062  143.8251  158.4873 C   0  0  0  0  0  0  0  0  0  0  0  0
  152.0947  142.4822  159.2451 C   0  0  2  0  0  0  0  0  0  0  0  0
  152.8072  142.5411  160.5990 C   0  0  0  0  0  0  0  0  0  0  0  0
  153.0909  141.0753  160.9024 C   0  0  0  0  0  0  0  0  0  0  0  0
  153.3861  140.4664  159.5251 C   0  0  1  0  0  0  0  0  0  0  0  0
  152.9769  138.9791  159.4596 C   0  0  0  0  0  0  0  0  0  0  0  0
  152.7286  141.3553  158.5598 N   0  0  0  0  0  0  0  0  0  0  0  0
  152.1918  140.8227  157.4365 C   0  0  0  0  0  0  0  0  0  0  0  0
  152.8345  139.8162  156.7889 N   0  0  0  0  0  0  0  0  0  0  0  0
  152.3173  139.3053  155.6676 C   0  0  0  0  0  0  0  0  0  0  0  0
  151.1967  139.6529  155.0309 N   0  0  0  0  0  0  0  0  0  0  0  0
  150.5533  140.6668  155.6780 C   0  0  0  0  0  0  0  0  0  0  0  0
  150.9771  141.3016  156.8781 C   0  0  0  0  0  0  0  0  0  0  0  0
  150.0685  142.2858  157.2453 N   0  0  0  0  0  0  0  0  0  0  0  0
  149.1585  142.2387  156.3112 C   0  0  0  0  0  0  0  0  0  0  0  0
  149.3825  141.3110  155.3180 N   0  0  0  0  0  0  0  0  0  0  0  0
  148.5395  141.0533  154.1636 C   0  0  0  0  0  0  0  0  0  0  0  0
  147.0537  140.8141  154.5191 C   0  0  2  0  0  0  0  0  0  0  0  0
  146.4506  140.3365  153.3337 O   0  0  0  0  0  0  0  0  0  0  0  0
  146.2632  142.0688  154.9596 C   0  0  2  0  0  0  0  0  0  0  0  0
  144.8116  141.8383  155.3932 C   0  0  0  0  0  0  0  0  0  0  0  0
  144.1156  143.1565  155.0935 C   0  0  0  0  0  0  0  0  0  0  0  0
  145.1084  143.9012  154.2019 C   0  0  0  0  0  0  0  0  0  0  0  0
  146.0685  142.9207  153.8393 O   0  0  0  0  0  0  0  0  0  0  0  0
  152.0849  145.9789  158.7423 H   0  0  0  0  0  0  0  0  0  0  0  0
  152.3808  145.1077  160.2431 H   0  0  0  0  0  0  0  0  0  0  0  0
  150.7712  145.1154  159.5165 H   0  0  0  0  0  0  0  0  0  0  0  0
  151.6076  143.7903  157.5762 H   0  0  0  0  0  0  0  0  0  0  0  0
  153.2398  143.9437  158.1602 H   0  0  0  0  0  0  0  0  0  0  0  0
  151.0447  142.2460  159.4243 H   0  0  0  0  0  0  0  0  0  0  0  0
  153.7506  143.0824  160.5113 H   0  0  0  0  0  0  0  0  0  0  0  0
  152.2100  143.0272  161.3709 H   0  0  0  0  0  0  0  0  0  0  0  0
  153.9100  140.9380  161.6087 H   0  0  0  0  0  0  0  0  0  0  0  0
  152.1975  140.6222  161.3350 H   0  0  0  0  0  0  0  0  0  0  0  0
  154.4571  140.5431  159.3347 H   0  0  0  0  0  0  0  0  0  0  0  0
  153.4568  138.4137  160.2586 H   0  0  0  0  0  0  0  0  0  0  0  0
  153.2738  138.5147  158.5194 H   0  0  0  0  0  0  0  0  0  0  0  0
  151.8990  138.8561  159.5708 H   0  0  0  0  0  0  0  0  0  0  0  0
  152.8848  138.5066  155.2136 H   0  0  0  0  0  0  0  0  0  0  0  0
  148.2980  142.8920  156.3150 H   0  0  0  0  0  0  0  0  0  0  0  0
  148.6324  141.8801  153.4580 H   0  0  0  0  0  0  0  0  0  0  0  0
  148.9488  140.1742  153.6633 H   0  0  0  0  0  0  0  0  0  0  0  0
  146.9734  140.0348  155.2776 H   0  0  0  0  0  0  0  0  0  0  0  0
  145.5164  140.4618  153.4004 H   0  0  0  0  0  0  0  0  0  0  0  0
  146.7983  142.6101  155.7429 H   0  0  0  0  0  0  0  0  0  0  0  0
  144.3569  141.0500  154.7922 H   0  0  0  0  0  0  0  0  0  0  0  0
  144.7259  141.5582  156.4427 H   0  0  0  0  0  0  0  0  0  0  0  0
  143.1671  142.9851  154.5833 H   0  0  0  0  0  0  0  0  0  0  0  0
  143.9115  143.7226  156.0031 H   0  0  0  0  0  0  0  0  0  0  0  0
  144.6375  144.3378  153.3206 H   0  0  0  0  0  0  0  0  0  0  0  0
  145.6017  144.7001  154.7576 H   0  0  0  0  0  0  0  0  0  0  0  0
  1  2  1  0  0  0  0
  1 26  1  0  0  0  0
  1 27  1  0  0  0  0
  1 28  1  0  0  0  0
  2  3  1  0  0  0  0
  2 29  1  0  0  0  0
  2 30  1  0  0  0  0
  3  8  1  0  0  0  0
  3  4  1  0  0  0  0
  3 31  1  0  0  0  0
  4  5  1  0  0  0  0
  4 32  1  0  0  0  0
  4 33  1  0  0  0  0
  5  6  1  0  0  0  0
  5 34  1  0  0  0  0
  5 35  1  0  0  0  0
  6  7  1  0  0  0  0
  6  8  1  0  0  0  0
  6 36  1  0  0  0  0
  7 37  1  0  0  0  0
  7 38  1  0  0  0  0
  7 39  1  0  0  0  0
  8  9  1  0  0  0  0
  9 14  1  0  0  0  0
  9 10  2  0  0  0  0
 10 11  1  0  0  0  0
 11 12  2  0  0  0  0
 11 40  1  0  0  0  0
 12 13  1  0  0  0  0
 13 17  1  0  0  0  0
 13 14  2  0  0  0  0
 14 15  1  0  0  0  0
 15 16  2  0  0  0  0
 16 17  1  0  0  0  0
 16 41  1  0  0  0  0
 17 18  1  0  0  0  0
 18 19  1  0  0  0  0
 18 42  1  0  0  0  0
 18 43  1  0  0  0  0
 19 20  1  0  0  0  0
 19 21  1  0  0  0  0
 19 44  1  0  0  0  0
 20 45  1  0  0  0  0
 21 25  1  0  0  0  0
 21 22  1  0  0  0  0
 21 46  1  0  0  0  0
 22 23  1  0  0  0  0
 22 47  1  0  0  0  0
 22 48  1  0  0  0  0
 23 24  1  0  0  0  0
 23 49  1  0  0  0  0
 23 50  1  0  0  0  0
 24 25  1  0  0  0  0
 24 51  1  0  0  0  0
 24 52  1  0  0  0  0
M  END
> <s_m_source_file>
AV-unprocessed.smi

> <i_m_source_file_index>
232

> <i_lp_mmshare_version>
43012

> <i_f3d_flags>
0

> <s_epik_input>
W0NIM11bQ0gyXVtDQEBIXTFbQ0gyXVtDSDJdW0NAQEhdKFtDSDNdKU4xYyhuW2NIXW4yKWMoYzIzKW5bY0hdbjNbQ0gyXVtDQEhdKFtPSF0pW0NAQEhdNFtDSDJdW0NIMl1bQ0gyXU80

> <s_epik_cmdline>
J2VwaWtfcHl0aG9uJywgJy1waCcsICc3LjAnLCAnLXRuJywgJzgnLCAnLW1hJywgJzIwMCcsICctbWV0YWxfYmluZGluZycsICctaW1hZScsICc8aW5maWxlLm1hZT4nLCAnLW9tYWUnLCAnPG91dGZpbGUubWFlPic=

> <r_lp_tautomer_probability>
1

> <r_epik_Ionization_Penalty>
0.00258048

> <r_epik_Ionization_Penalty_Charging>
0

> <r_epik_Ionization_Penalty_Neutral>
0.00258048

> <r_epik_State_Penalty>
0.00168551

> <r_epik_Charging_Adjusted_Penalty>
0.00168551

> <i_epik_Tot_Q>
0

> <i_epik_Tot_abs_Q>
0

> <r_epik_Metal_State_Penalty>
-0

> <b_epik_Metal_Only>
0

> <s_lp_Force_Field>
OPLS_2005

> <r_lp_Energy>
58.3797

> <b_lp_Chiralities_Consistent>
1

> <s_lp_Variant>
AV-unprocessed.smi:232-1

> <Gold.Version>
5.8.1

> <Gold.Id.Protein>
6NUR|6NUR_protein|mol2

> <Gold.PLP.Fitness>
55.9668

> <Gold.PLP.PLP>
-47.6722

> <Gold.PLP.part.hbond>
-3.0000

> <Gold.PLP.part.metal>
0.0000

> <Gold.PLP.part.buried>
-2.7460

> <Gold.PLP.part.nonpolar>
-42.2257

> <Gold.PLP.part.repulsive>
0.7490

> <Gold.PLP.ligand.clash>
0.0000

> <Gold.PLP.ligand.torsion>
0.5633

> <Gold.PLP.Chemscore.Hbond>
2.5175

> <Gold.PLP.Chemscore.CHOScore>
0.4290

> <Gold.PLP.Chemscore.Metal>
0.0000

> <Gold.Chemscore.Hbonds>
donor molecule, donor type, donor heavy atom, donor atom, acceptor molecule, acceptor atom, score
      L1  H    20    45       P1 10175  0.92
      P1  H  7989  7998       L1    12  0.55
      P1  H  7997  8008       L1    10  1.00
      L1  C    16    41       P1  8028  0.57

> <Gold.PLP.Chemscore.Internal.Correction>
0.5821

> <Gold.Rescore>
     Score         DG    S(hbond)    S(metal)    S(lipo)     H(rot)  DE(clash)    DE(int)     intcor
     11.44     -17.16       1.58        0.00     102.46       2.18       1.56       4.16       ----

> <Gold.Chemscore.Fitness>
11.4397

> <Gold.Chemscore.DG>
-17.1554

> <Gold.Chemscore.ZeroCoef>
-5.4800

> <Gold.Chemscore.Hbond>
1.5755

> <Gold.Chemscore.Metal>
0.0000

> <Gold.Chemscore.Lipo>
102.4577

> <Gold.Chemscore.Internal_Hbond>
0.0000

> <Gold.Chemscore.DEClash>
1.5587

> <Gold.Chemscore.DEInternal>
4.1570

> <Gold.Chemscore.Rot>
2.1775

> <Gold.Chemscore.Internal.Correction>
   9.000000E+99

> <Gold.Chemscore.Hbonds>
donor molecule, donor type, donor heavy atom, donor atom, acceptor molecule, acceptor atom, score
      L1  H    20    45       P1 10175  0.80
      P1  H  7989  7998       L1    12  0.02
      P1  H  7997  8008       L1    10  0.62

> <Gold.Chemscore.Hbond.Weighted>
-5.2622

> <Gold.Chemscore.Metal.Weighted>
-0.0000

> <Gold.Chemscore.Lipo.Weighted>
-11.9876

> <Gold.Chemscore.Internal_Hbond.Weighted>
0.0000

> <Gold.Chemscore.DEClash.Weighted>
1.5587

> <Gold.Chemscore.DEInternal.Weighted>
4.1570

> <Gold.Chemscore.Rot.Weighted>
5.5744

> <Gold.Chemscore.Internal.Correction.Weighted>
   9.000000E+99

> <Gold.Protein.RotatedTorsions>
[ 6907 6896 6895 6894 ] final -108.62 input  -60.11 | X-H torsion
[ 7974 7965 7964 7962 ] final    4.79 input  175.53 | X-H torsion
[ 8008 7997 7996 7995 ] final  -60.63 input   59.86 | X-H torsion
[ 10167 10162 10161 10158 ] final -104.90 input  -65.29 | X-H torsion
[ 10718 10713 10712 10709 ] final -136.94 input   66.30 | X-H torsion
[ 10763 10752 10751 10750 ] final  100.91 input  -60.55 | X-H torsion
[ 11005 11000 10999 10996 ] final  -92.85 input  -57.11 | X-H torsion

> <Gold.Protein.ActiveResidues>
 VAL166  LYS551  ARG553  GLY616  TRP617  ASP618  TYR619  PRO620  LYS621  CYS622 
 ASP623  PHE694  ASN695  SER759  ASP760  ASP761  ALA762  ILE779  LEU786  VAL792 
 PHE793  MET794  SER795  GLU796  ALA797  LYS798  CYS799  TRP800  GLU811  SER814 

> <Gold.Protein.RotatedAtoms>
  150.7512  133.9651  159.3527 H   0  0  0  0  0  0  0  0  0  0  0  0  # atno 6907 bound_to 6896
  151.7580  135.0815  160.0350 H   0  0  0  0  0  0  0  0  0  0  0  0  # atno 6908 bound_to 6896
  152.3422  133.6043  159.5920 H   0  0  0  0  0  0  0  0  0  0  0  0  # atno 6909 bound_to 6896
  146.2443  140.0482  142.8377 H   0  0  0  0  0  0  0  0  0  0  0  0  # atno 7974 bound_to 7965
  154.4408  140.1035  156.6304 H   0  0  0  0  0  0  0  0  0  0  0  0  # atno 8008 bound_to 7997
  155.5611  140.3487  155.4473 H   0  0  0  0  0  0  0  0  0  0  0  0  # atno 8009 bound_to 7997
  156.0459  140.1292  157.0094 H   0  0  0  0  0  0  0  0  0  0  0  0  # atno 8010 bound_to 7997
  140.2043  143.3794  152.1103 H   0  0  0  0  0  0  0  0  0  0  0  0  # atno 10167 bound_to 10162
  156.2826  130.7329  151.1331 H   0  0  0  0  0  0  0  0  0  0  0  0  # atno 10718 bound_to 10713
  153.3199  135.4063  155.1408 H   0  0  0  0  0  0  0  0  0  0  0  0  # atno 10763 bound_to 10752
  154.8598  135.3585  154.5610 H   0  0  0  0  0  0  0  0  0  0  0  0  # atno 10764 bound_to 10752
  153.6043  135.7070  153.5431 H   0  0  0  0  0  0  0  0  0  0  0  0  # atno 10765 bound_to 10752
  141.1512  133.7848  157.0077 H   0  0  0  0  0  0  0  0  0  0  0  0  # atno 11005 bound_to 11000
  145.1008  140.9344  143.4713 LP  0  0  0  0  0  0  0  0  0  0  0  0  # atno 17320 bound_to 7965
  145.0674  139.3058  143.5849 LP  0  0  0  0  0  0  0  0  0  0  0  0  # atno 17321 bound_to 7965
  139.5205  144.7033  151.5429 LP  0  0  0  0  0  0  0  0  0  0  0  0  # atno 17342 bound_to 10162
  140.6368  143.8968  150.6655 LP  0  0  0  0  0  0  0  0  0  0  0  0  # atno 17343 bound_to 10162
  157.7319  131.0604  150.5656 LP  0  0  0  0  0  0  0  0  0  0  0  0  # atno 17370 bound_to 10713
  156.5763  130.4293  149.5997 LP  0  0  0  0  0  0  0  0  0  0  0  0  # atno 17371 bound_to 10713
  140.0898  134.9599  157.1758 LP  0  0  0  0  0  0  0  0  0  0  0  0  # atno 17394 bound_to 11000
  140.3462  134.2649  155.7205 LP  0  0  0  0  0  0  0  0  0  0  0  0  # atno 17395 bound_to 11000

$$$$
