AV-unprocessed.smi:3202|AV-procd|sdf|12241|dock9
  -GOLD-   2272018 73D 1   1.00000     0.00000
 Structure written by MMmdl.
 43 44  0  0  0  0  0  0  0  0  2 V2000
  146.7474  138.6363  152.7860 C   0  0  0  0  0  0  0  0  0  0  0  0
  147.8833  139.3320  153.4557 C   0  0  0  0  0  0  0  0  0  0  0  0
  147.9258  140.4600  154.2256 C   0  0  0  0  0  0  0  0  0  0  0  0
  149.3032  140.6044  154.5650 C   0  0  0  0  0  0  0  0  0  0  0  0
  149.9375  141.6855  155.3979 C   0  0  0  0  0  0  0  0  0  0  0  0
  149.4293  141.7161  156.8583 C   0  0  2  0  0  0  0  0  0  0  0  0
  147.8994  141.8373  156.9549 C   0  0  0  0  0  0  0  0  0  0  0  0
  150.0441  142.8385  157.6038 N   0  3  0  0  0  0  0  0  0  0  0  0
  151.4654  142.6655  157.9891 C   0  0  2  0  0  0  0  0  0  0  0  0
  151.6828  141.5660  159.0386 C   0  0  0  0  0  0  0  0  0  0  0  0
  152.9678  141.9542  159.7813 C   0  0  0  0  0  0  0  0  0  0  0  0
  153.3490  143.3551  159.2806 C   0  0  0  0  0  0  0  0  0  0  0  0
  152.0919  143.9342  158.6069 C   0  0  0  0  0  0  0  0  0  0  0  0
  152.4651  144.9700  157.5300 C   0  0  0  0  0  0  0  0  0  0  0  0
  151.1857  144.5974  159.6703 C   0  0  0  0  0  0  0  0  0  0  0  0
  150.0540  139.6425  154.0469 N   0  0  0  0  0  0  0  0  0  0  0  0
  149.1781  138.8747  153.3727 N   0  0  0  0  0  0  0  0  0  0  0  0
  149.4735  138.0504  152.8684 H   0  0  0  0  0  0  0  0  0  0  0  0
  145.7996  139.1200  153.0229 H   0  0  0  0  0  0  0  0  0  0  0  0
  146.6841  137.5969  153.1085 H   0  0  0  0  0  0  0  0  0  0  0  0
  146.8701  138.6489  151.7029 H   0  0  0  0  0  0  0  0  0  0  0  0
  147.0949  141.0907  154.5055 H   0  0  0  0  0  0  0  0  0  0  0  0
  151.0174  141.5431  155.3800 H   0  0  0  0  0  0  0  0  0  0  0  0
  149.7662  142.6582  154.9339 H   0  0  0  0  0  0  0  0  0  0  0  0
  149.7085  140.7825  157.3471 H   0  0  0  0  0  0  0  0  0  0  0  0
  147.3990  140.9687  156.5268 H   0  0  0  0  0  0  0  0  0  0  0  0
  147.5365  142.7233  156.4330 H   0  0  0  0  0  0  0  0  0  0  0  0
  147.5772  141.9084  157.9942 H   0  0  0  0  0  0  0  0  0  0  0  0
  149.9580  143.6730  157.0414 H   0  0  0  0  0  0  0  0  0  0  0  0
  152.0461  142.4031  157.1041 H   0  0  0  0  0  0  0  0  0  0  0  0
  150.8499  141.5379  159.7427 H   0  0  0  0  0  0  0  0  0  0  0  0
  151.7590  140.5770  158.5856 H   0  0  0  0  0  0  0  0  0  0  0  0
  152.7901  141.9632  160.8573 H   0  0  0  0  0  0  0  0  0  0  0  0
  153.7719  141.2426  159.5909 H   0  0  0  0  0  0  0  0  0  0  0  0
  153.7336  143.9895  160.0800 H   0  0  0  0  0  0  0  0  0  0  0  0
  154.1497  143.2544  158.5462 H   0  0  0  0  0  0  0  0  0  0  0  0
  152.9871  145.8216  157.9676 H   0  0  0  0  0  0  0  0  0  0  0  0
  151.5782  145.3522  157.0232 H   0  0  0  0  0  0  0  0  0  0  0  0
  153.1184  144.5426  156.7685 H   0  0  0  0  0  0  0  0  0  0  0  0
  151.7022  145.4218  160.1632 H   0  0  0  0  0  0  0  0  0  0  0  0
  150.8830  143.8961  160.4482 H   0  0  0  0  0  0  0  0  0  0  0  0
  150.2784  145.0095  159.2278 H   0  0  0  0  0  0  0  0  0  0  0  0
  149.5188  142.9756  158.4555 H   0  0  0  0  0  0  0  0  0  0  0  0
  1  2  1  0  0  0  0
  1 19  1  0  0  0  0
  1 20  1  0  0  0  0
  1 21  1  0  0  0  0
  2 17  1  0  0  0  0
  2  3  2  0  0  0  0
  3  4  1  0  0  0  0
  3 22  1  0  0  0  0
  4  5  1  0  0  0  0
  4 16  2  0  0  0  0
  5  6  1  0  0  0  0
  5 23  1  0  0  0  0
  5 24  1  0  0  0  0
  6  7  1  0  0  0  0
  6  8  1  0  0  0  0
  6 25  1  0  0  0  0
  7 26  1  0  0  0  0
  7 27  1  0  0  0  0
  7 28  1  0  0  0  0
  8  9  1  0  0  0  0
  8 29  1  0  0  0  0
  8 43  1  0  0  0  0
  9 13  1  0  0  0  0
  9 10  1  0  0  0  0
  9 30  1  0  0  0  0
 10 11  1  0  0  0  0
 10 31  1  0  0  0  0
 10 32  1  0  0  0  0
 11 12  1  0  0  0  0
 11 33  1  0  0  0  0
 11 34  1  0  0  0  0
 12 13  1  0  0  0  0
 12 35  1  0  0  0  0
 12 36  1  0  0  0  0
 13 14  1  0  0  0  0
 13 15  1  0  0  0  0
 14 37  1  0  0  0  0
 14 38  1  0  0  0  0
 14 39  1  0  0  0  0
 15 40  1  0  0  0  0
 15 41  1  0  0  0  0
 15 42  1  0  0  0  0
 16 17  1  0  0  0  0
 17 18  1  0  0  0  0
M  CHG  1   8   1
M  END
> <s_m_source_file>
AV-unprocessed.smi

> <i_m_source_file_index>
3202

> <i_lp_mmshare_version>
43012

> <i_f3d_flags>
0

> <s_epik_input>
W0NIM11jMVtjSF1jKG5bbkhdMSlbQ0gyXVtDQEhdKFtDSDNdKVtOSF1bQ0BASF0oQzIoW0NIM10pW0NIM10pW0NIMl1bQ0gyXVtDSDJdMg==

> <s_epik_cmdline>
J2VwaWtfcHl0aG9uJywgJy1waCcsICc3LjAnLCAnLXRuJywgJzgnLCAnLW1hJywgJzIwMCcsICctbWV0YWxfYmluZGluZycsICctaW1hZScsICc8aW5maWxlLm1hZT4nLCAnLW9tYWUnLCAnPG91dGZpbGUubWFlPic=

> <r_lp_tautomer_probability>
0.5

> <r_epik_Ionization_Penalty>
0.000341671

> <r_epik_Ionization_Penalty_Charging>
0.000281809

> <r_epik_Ionization_Penalty_Neutral>
5.9862e-05

> <r_epik_State_Penalty>
0.41068

> <r_epik_Charging_Adjusted_Penalty>
0.410962

> <i_epik_Tot_Q>
1

> <i_epik_Tot_abs_Q>
1

> <r_epik_Metal_State_Penalty>
0.410672

> <b_epik_Metal_Only>
0

> <s_lp_Force_Field>
OPLS_2005

> <r_lp_Energy>
28.8614

> <b_lp_Chiralities_Consistent>
1

> <s_lp_Variant>
AV-unprocessed.smi:3202-1

> <Gold.Version>
5.8.1

> <Gold.Id.Protein>
6NUR|6NUR_protein|mol2

> <Gold.PLP.Fitness>
49.2645

> <Gold.PLP.PLP>
-38.6535

> <Gold.PLP.part.hbond>
-3.8891

> <Gold.PLP.part.metal>
0.0000

> <Gold.PLP.part.buried>
-3.8214

> <Gold.PLP.part.nonpolar>
-32.6363

> <Gold.PLP.part.repulsive>
1.5963

> <Gold.PLP.ligand.clash>
0.0000

> <Gold.PLP.ligand.torsion>
0.1729

> <Gold.PLP.Chemscore.Hbond>
3.6499

> <Gold.PLP.Chemscore.CHOScore>
0.0000

> <Gold.PLP.Chemscore.Metal>
0.0000

> <Gold.Chemscore.Hbonds>
donor molecule, donor type, donor heavy atom, donor atom, acceptor molecule, acceptor atom, score
      L1  H     8    29       P1  8028  1.95
      L1  H    17    18       P1  7948  0.83
      P1  H  7989  7998       L1    16  0.74

> <Gold.PLP.Chemscore.Internal.Correction>
0.0072

> <Gold.Rescore>
     Score         DG    S(hbond)    S(metal)    S(lipo)     H(rot)  DE(clash)    DE(int)     intcor
     20.79     -22.73       1.90        0.00     125.14       1.46       1.69       0.25       ----

> <Gold.Chemscore.Fitness>
20.7907

> <Gold.Chemscore.DG>
-22.7307

> <Gold.Chemscore.ZeroCoef>
-5.4800

> <Gold.Chemscore.Hbond>
1.9000

> <Gold.Chemscore.Metal>
0.0000

> <Gold.Chemscore.Lipo>
125.1377

> <Gold.Chemscore.Internal_Hbond>
0.0000

> <Gold.Chemscore.DEClash>
1.6940

> <Gold.Chemscore.DEInternal>
0.2461

> <Gold.Chemscore.Rot>
1.4596

> <Gold.Chemscore.Internal.Correction>
   9.000000E+99

> <Gold.Chemscore.Hbonds>
donor molecule, donor type, donor heavy atom, donor atom, acceptor molecule, acceptor atom, score
      L1  H     8    29       P1  8028  0.85
      L1  H    17    18       P1  7948  0.65
      P1  H  7989  7998       L1    16  0.10

> <Gold.Chemscore.Hbond.Weighted>
-6.3461

> <Gold.Chemscore.Metal.Weighted>
-0.0000

> <Gold.Chemscore.Lipo.Weighted>
-14.6411

> <Gold.Chemscore.Internal_Hbond.Weighted>
0.0000

> <Gold.Chemscore.DEClash.Weighted>
1.6940

> <Gold.Chemscore.DEInternal.Weighted>
0.2461

> <Gold.Chemscore.Rot.Weighted>
3.7365

> <Gold.Chemscore.Internal.Correction.Weighted>
   9.000000E+99

> <Gold.Protein.RotatedTorsions>
[ 6907 6896 6895 6894 ] final  152.08 input  -60.11 | X-H torsion
[ 7974 7965 7964 7962 ] final  134.58 input  175.53 | X-H torsion
[ 8008 7997 7996 7995 ] final  127.51 input   59.86 | X-H torsion
[ 10167 10162 10161 10158 ] final -145.66 input  -65.29 | X-H torsion
[ 10718 10713 10712 10709 ] final   64.41 input   66.30 | X-H torsion
[ 10763 10752 10751 10750 ] final  -93.01 input  -60.55 | X-H torsion
[ 11005 11000 10999 10996 ] final -121.33 input  -57.11 | X-H torsion

> <Gold.Protein.ActiveResidues>
 VAL166  LYS551  ARG553  GLY616  TRP617  ASP618  TYR619  PRO620  LYS621  CYS622 
 ASP623  PHE694  ASN695  SER759  ASP760  ASP761  ALA762  ILE779  LEU786  VAL792 
 PHE793  MET794  SER795  GLU796  ALA797  LYS798  CYS799  TRP800  GLU811  SER814 

> <Gold.Protein.RotatedAtoms>
  152.0918  133.4204  159.4546 H   0  0  0  0  0  0  0  0  0  0  0  0  # atno 6907 bound_to 6896
  150.6862  134.2863  159.4657 H   0  0  0  0  0  0  0  0  0  0  0  0  # atno 6908 bound_to 6896
  152.0715  134.9530  160.0625 H   0  0  0  0  0  0  0  0  0  0  0  0  # atno 6909 bound_to 6896
  144.9750  139.4565  143.5414 H   0  0  0  0  0  0  0  0  0  0  0  0  # atno 7974 bound_to 7965
  156.2892  140.2667  156.2286 H   0  0  0  0  0  0  0  0  0  0  0  0  # atno 8008 bound_to 7997
  155.0096  140.0387  157.2412 H   0  0  0  0  0  0  0  0  0  0  0  0  # atno 8009 bound_to 7997
  154.7530  140.2746  155.6282 H   0  0  0  0  0  0  0  0  0  0  0  0  # atno 8010 bound_to 7997
  139.7785  143.8135  152.2635 H   0  0  0  0  0  0  0  0  0  0  0  0  # atno 10167 bound_to 10162
  157.6038  130.9159  149.9843 H   0  0  0  0  0  0  0  0  0  0  0  0  # atno 10718 bound_to 10713
  154.6918  135.5210  153.8402 H   0  0  0  0  0  0  0  0  0  0  0  0  # atno 10763 bound_to 10752
  153.0637  135.6577  154.0412 H   0  0  0  0  0  0  0  0  0  0  0  0  # atno 10764 bound_to 10752
  154.0285  135.2987  155.3351 H   0  0  0  0  0  0  0  0  0  0  0  0  # atno 10765 bound_to 10752
  141.0078  134.0309  157.3454 H   0  0  0  0  0  0  0  0  0  0  0  0  # atno 11005 bound_to 11000
  146.3392  139.8986  142.8798 LP  0  0  0  0  0  0  0  0  0  0  0  0  # atno 17320 bound_to 7965
  145.2504  141.0042  143.3884 LP  0  0  0  0  0  0  0  0  0  0  0  0  # atno 17321 bound_to 7965
  139.8190  144.7303  150.9597 LP  0  0  0  0  0  0  0  0  0  0  0  0  # atno 17342 bound_to 10162
  140.7817  143.4177  151.0891 LP  0  0  0  0  0  0  0  0  0  0  0  0  # atno 17343 bound_to 10162
  156.1118  130.3649  150.0036 LP  0  0  0  0  0  0  0  0  0  0  0  0  # atno 17370 bound_to 10713
  156.8133  130.9332  151.3643 LP  0  0  0  0  0  0  0  0  0  0  0  0  # atno 17371 bound_to 10713
  139.9073  135.0182  156.7541 LP  0  0  0  0  0  0  0  0  0  0  0  0  # atno 17394 bound_to 11000
  140.6783  133.9497  155.7896 LP  0  0  0  0  0  0  0  0  0  0  0  0  # atno 17395 bound_to 11000

$$$$
