AV-unprocessed.smi:1047|AV-procd|sdf|4587|dock5
  -GOLD-   22720 3 63D 1   1.00000     0.00000
 Structure written by MMmdl.
 58 60  0  0  0  0  0  0  0  0  4 V2000
  145.7208  133.9129  150.6645 C   0  0  0  0  0  0  0  0  0  0  0  0
  145.4290  135.3794  151.0121 C   0  0  0  0  0  0  0  0  0  0  0  0
  146.1194  135.8202  152.2503 N   0  3  2  0  0  0  0  0  0  0  0  0
  145.8770  134.9314  153.4131 C   0  0  0  0  0  0  0  0  0  0  0  0
  146.6376  135.4414  154.6483 C   0  0  0  0  0  0  0  0  0  0  0  0
  146.2605  136.7855  154.9234 O   0  0  0  0  0  0  0  0  0  0  0  0
  146.5846  137.6678  153.8538 C   0  0  2  0  0  0  0  0  0  0  0  0
  146.2173  139.0972  154.2818 C   0  0  0  0  0  0  0  0  0  0  0  0
  146.4258  140.0593  153.1809 N   0  3  0  0  0  0  0  0  0  0  0  0
  147.3307  141.1764  153.5198 C   0  0  0  0  0  0  0  0  0  0  0  0
  148.5876  140.6733  154.2549 C   0  0  1  0  0  0  0  0  0  0  0  0
  149.7038  140.8156  153.4002 O   0  0  0  0  0  0  0  0  0  0  0  0
  148.9024  141.4302  155.5608 C   0  0  0  0  0  0  0  0  0  0  0  0
  150.0954  140.9191  156.2506 N   0  0  0  0  0  0  0  0  0  0  0  0
  150.8233  139.7965  156.0007 C   0  0  0  0  0  0  0  0  0  0  0  0
  151.8432  139.7584  156.9017 N   0  3  0  0  0  0  0  0  0  0  0  0
  151.7700  140.8749  157.7365 C   0  0  0  0  0  0  0  0  0  0  0  0
  152.5782  141.2728  158.7946 C   0  0  0  0  0  0  0  0  0  0  0  0
  152.2346  142.4751  159.4523 C   0  0  0  0  0  0  0  0  0  0  0  0
  153.0990  142.9399  160.6119 C   0  0  0  0  0  0  0  0  0  0  0  0
  151.1093  143.2357  159.0418 C   0  0  0  0  0  0  0  0  0  0  0  0
  150.7484  144.5267  159.7572 C   0  0  0  0  0  0  0  0  0  0  0  0
  150.2998  142.8143  157.9625 C   0  0  0  0  0  0  0  0  0  0  0  0
  150.6523  141.6269  157.3238 C   0  0  0  0  0  0  0  0  0  0  0  0
  145.8023  137.2257  152.6008 C   0  0  0  0  0  0  0  0  0  0  0  0
  145.2778  133.6528  149.7029 H   0  0  0  0  0  0  0  0  0  0  0  0
  145.3090  133.2270  151.4040 H   0  0  0  0  0  0  0  0  0  0  0  0
  146.7932  133.7297  150.5929 H   0  0  0  0  0  0  0  0  0  0  0  0
  145.7694  135.9936  150.1776 H   0  0  0  0  0  0  0  0  0  0  0  0
  144.3547  135.5468  151.1009 H   0  0  0  0  0  0  0  0  0  0  0  0
  144.8076  134.8895  153.6263 H   0  0  0  0  0  0  0  0  0  0  0  0
  146.1985  133.9145  153.1898 H   0  0  0  0  0  0  0  0  0  0  0  0
  146.4009  134.8241  155.5152 H   0  0  0  0  0  0  0  0  0  0  0  0
  147.7162  135.3763  154.4966 H   0  0  0  0  0  0  0  0  0  0  0  0
  147.6560  137.6196  153.6482 H   0  0  0  0  0  0  0  0  0  0  0  0
  145.1679  139.1349  154.5775 H   0  0  0  0  0  0  0  0  0  0  0  0
  146.8061  139.3963  155.1501 H   0  0  0  0  0  0  0  0  0  0  0  0
  146.8092  139.5649  152.3877 H   0  0  0  0  0  0  0  0  0  0  0  0
  147.6097  141.7168  152.6140 H   0  0  0  0  0  0  0  0  0  0  0  0
  146.7773  141.8723  154.1507 H   0  0  0  0  0  0  0  0  0  0  0  0
  148.4713  139.6125  154.4820 H   0  0  0  0  0  0  0  0  0  0  0  0
  149.6309  140.1897  152.6952 H   0  0  0  0  0  0  0  0  0  0  0  0
  149.0929  142.4818  155.3414 H   0  0  0  0  0  0  0  0  0  0  0  0
  148.0530  141.4142  156.2438 H   0  0  0  0  0  0  0  0  0  0  0  0
  150.6292  139.0687  155.2257 H   0  0  0  0  0  0  0  0  0  0  0  0
  153.4339  140.6885  159.1012 H   0  0  0  0  0  0  0  0  0  0  0  0
  153.5349  143.9158  160.3974 H   0  0  0  0  0  0  0  0  0  0  0  0
  153.9171  142.2449  160.8036 H   0  0  0  0  0  0  0  0  0  0  0  0
  152.5073  143.0173  161.5244 H   0  0  0  0  0  0  0  0  0  0  0  0
  149.8641  144.9920  159.3204 H   0  0  0  0  0  0  0  0  0  0  0  0
  151.5677  145.2432  159.6917 H   0  0  0  0  0  0  0  0  0  0  0  0
  150.5385  144.3358  160.8100 H   0  0  0  0  0  0  0  0  0  0  0  0
  149.4450  143.3975  157.6543 H   0  0  0  0  0  0  0  0  0  0  0  0
  146.0548  137.8766  151.7625 H   0  0  0  0  0  0  0  0  0  0  0  0
  144.7289  137.3249  152.7715 H   0  0  0  0  0  0  0  0  0  0  0  0
  145.5323  140.4487  152.9143 H   0  0  0  0  0  0  0  0  0  0  0  0
  147.1098  135.7903  152.0540 H   0  0  0  0  0  0  0  0  0  0  0  0
  152.5405  139.0255  156.9383 H   0  0  0  0  0  0  0  0  0  0  0  0
  1  2  1  0  0  0  0
  1 26  1  0  0  0  0
  1 27  1  0  0  0  0
  1 28  1  0  0  0  0
  2  3  1  0  0  0  0
  2 29  1  0  0  0  0
  2 30  1  0  0  0  0
  3 25  1  0  0  0  0
  3  4  1  0  0  0  0
  3 57  1  0  0  0  0
  4  5  1  0  0  0  0
  4 31  1  0  0  0  0
  4 32  1  0  0  0  0
  5  6  1  0  0  0  0
  5 33  1  0  0  0  0
  5 34  1  0  0  0  0
  6  7  1  0  0  0  0
  7  8  1  0  0  0  0
  7 25  1  0  0  0  0
  7 35  1  0  0  0  0
  8  9  1  0  0  0  0
  8 36  1  0  0  0  0
  8 37  1  0  0  0  0
  9 10  1  0  0  0  0
  9 38  1  0  0  0  0
  9 56  1  0  0  0  0
 10 11  1  0  0  0  0
 10 39  1  0  0  0  0
 10 40  1  0  0  0  0
 11 12  1  0  0  0  0
 11 13  1  0  0  0  0
 11 41  1  0  0  0  0
 12 42  1  0  0  0  0
 13 14  1  0  0  0  0
 13 43  1  0  0  0  0
 13 44  1  0  0  0  0
 14 24  1  0  0  0  0
 14 15  1  0  0  0  0
 15 16  2  0  0  0  0
 15 45  1  0  0  0  0
 16 17  1  0  0  0  0
 16 58  1  0  0  0  0
 17 24  2  0  0  0  0
 17 18  1  0  0  0  0
 18 19  2  0  0  0  0
 18 46  1  0  0  0  0
 19 20  1  0  0  0  0
 19 21  1  0  0  0  0
 20 47  1  0  0  0  0
 20 48  1  0  0  0  0
 20 49  1  0  0  0  0
 21 22  1  0  0  0  0
 21 23  2  0  0  0  0
 22 50  1  0  0  0  0
 22 51  1  0  0  0  0
 22 52  1  0  0  0  0
 23 24  1  0  0  0  0
 23 53  1  0  0  0  0
 25 54  1  0  0  0  0
 25 55  1  0  0  0  0
M  CHG  1   3   1
M  CHG  1   9   1
M  CHG  1  16   1
M  END
> <s_m_source_file>
AV-unprocessed.smi

> <i_m_source_file_index>
1047

> <i_lp_mmshare_version>
43012

> <i_f3d_flags>
0

> <s_epik_input>
W0NIM11bQ0gyXU4xW0NIMl1bQ0gyXU9bQ0BIXShbQ0gyXTEpW0NIMl1bTkhdW0NIMl1bQ0BIXShbT0hdKVtDSDJdbihbY0hdbjIpYyhjMjMpW2NIXWMoW0NIM10pYyhbY0hdMylbQ0gzXQ==

> <s_epik_cmdline>
J2VwaWtfcHl0aG9uJywgJy1waCcsICc3LjAnLCAnLXRuJywgJzgnLCAnLW1hJywgJzIwMCcsICctbWV0YWxfYmluZGluZycsICctaW1hZScsICc8aW5maWxlLm1hZT4nLCAnLW9tYWUnLCAnPG91dGZpbGUubWFlPic=

> <r_epik_Ionization_Penalty>
1.6114

> <r_epik_Ionization_Penalty_Charging>
1.61139

> <r_epik_Ionization_Penalty_Neutral>
5.04732e-06

> <r_epik_State_Penalty>
1.63724

> <r_epik_Charging_Adjusted_Penalty>
3.24864

> <i_epik_Tot_Q>
3

> <i_epik_Tot_abs_Q>
3

> <r_epik_Metal_State_Penalty>
5.64594

> <b_epik_Metal_Only>
0

> <s_lp_Force_Field>
OPLS_2005

> <r_lp_Energy>
41.4775

> <b_lp_Chiralities_Consistent>
1

> <s_lp_Variant>
AV-unprocessed.smi:1047-28

> <Gold.Version>
5.8.1

> <Gold.Id.Protein>
6NUR|6NUR_protein|mol2

> <Gold.PLP.Fitness>
59.8175

> <Gold.PLP.PLP>
-43.9857

> <Gold.PLP.part.hbond>
-4.1234

> <Gold.PLP.part.metal>
0.0000

> <Gold.PLP.part.buried>
-5.5467

> <Gold.PLP.part.nonpolar>
-34.3243

> <Gold.PLP.part.repulsive>
0.1691

> <Gold.PLP.ligand.clash>
0.0000

> <Gold.PLP.ligand.torsion>
1.2520

> <Gold.PLP.Chemscore.Hbond>
6.0540

> <Gold.PLP.Chemscore.CHOScore>
0.0000

> <Gold.PLP.Chemscore.Metal>
0.0000

> <Gold.Chemscore.Hbonds>
donor molecule, donor type, donor heavy atom, donor atom, acceptor molecule, acceptor atom, score
      L1  H     3    57       P1  7948  2.00
      L1  H     9    56       P1 10175  2.00
      L1  H    12    42       P1  7957  0.86
      P1  H  7989  7998       L1    12  0.26
      P1  H  8011  8017       L1    12  0.90

> <Gold.PLP.Chemscore.Internal.Correction>
0.1739

> <Gold.Rescore>
     Score         DG    S(hbond)    S(metal)    S(lipo)     H(rot)  DE(clash)    DE(int)     intcor
     21.01     -23.34       3.28        0.00     120.01       2.78       0.14       2.19       ----

> <Gold.Chemscore.Fitness>
21.0078

> <Gold.Chemscore.DG>
-23.3371

> <Gold.Chemscore.ZeroCoef>
-5.4800

> <Gold.Chemscore.Hbond>
3.2770

> <Gold.Chemscore.Metal>
0.0000

> <Gold.Chemscore.Lipo>
120.0087

> <Gold.Chemscore.Internal_Hbond>
0.0000

> <Gold.Chemscore.DEClash>
0.1386

> <Gold.Chemscore.DEInternal>
2.1907

> <Gold.Chemscore.Rot>
2.7848

> <Gold.Chemscore.Internal.Correction>
   9.000000E+99

> <Gold.Chemscore.Hbonds>
donor molecule, donor type, donor heavy atom, donor atom, acceptor molecule, acceptor atom, score
      L1  H     3    57       P1  7948  1.00
      L1  H     9    56       P1 10175  0.85
      L1  H    12    42       P1  7957  0.82
      P1  H  7989  7998       L1    12  0.04
      P1  H  8011  8017       L1    12  0.17

> <Gold.Chemscore.Hbond.Weighted>
-10.9452

> <Gold.Chemscore.Metal.Weighted>
-0.0000

> <Gold.Chemscore.Lipo.Weighted>
-14.0410

> <Gold.Chemscore.Internal_Hbond.Weighted>
0.0000

> <Gold.Chemscore.DEClash.Weighted>
0.1386

> <Gold.Chemscore.DEInternal.Weighted>
2.1907

> <Gold.Chemscore.Rot.Weighted>
7.1291

> <Gold.Chemscore.Internal.Correction.Weighted>
   9.000000E+99

> <Gold.Protein.RotatedTorsions>
[ 6907 6896 6895 6894 ] final  -34.84 input  -60.11 | X-H torsion
[ 7974 7965 7964 7962 ] final   51.56 input  175.53 | X-H torsion
[ 8008 7997 7996 7995 ] final -123.99 input   59.86 | X-H torsion
[ 10167 10162 10161 10158 ] final  131.97 input  -65.29 | X-H torsion
[ 10718 10713 10712 10709 ] final  170.56 input   66.30 | X-H torsion
[ 10763 10752 10751 10750 ] final -171.97 input  -60.55 | X-H torsion
[ 11005 11000 10999 10996 ] final  -41.27 input  -57.11 | X-H torsion

> <Gold.Protein.ActiveResidues>
 VAL166  LYS551  ARG553  GLY616  TRP617  ASP618  TYR619  PRO620  LYS621  CYS622 
 ASP623  PHE694  ASN695  SER759  ASP760  ASP761  ALA762  ILE779  LEU786  VAL792 
 PHE793  MET794  SER795  GLU796  ALA797  LYS798  CYS799  TRP800  GLU811  SER814 

> <Gold.Protein.RotatedAtoms>
  151.0475  134.9650  159.8193 H   0  0  0  0  0  0  0  0  0  0  0  0  # atno 6907 bound_to 6896
  152.5375  134.2579  159.8934 H   0  0  0  0  0  0  0  0  0  0  0  0  # atno 6908 bound_to 6896
  151.2594  133.4267  159.2649 H   0  0  0  0  0  0  0  0  0  0  0  0  # atno 6909 bound_to 6896
  145.9901  139.4330  143.0079 H   0  0  0  0  0  0  0  0  0  0  0  0  # atno 7974 bound_to 7965
  155.1895  140.0413  157.2897 H   0  0  0  0  0  0  0  0  0  0  0  0  # atno 8008 bound_to 7997
  154.6148  140.2486  155.7595 H   0  0  0  0  0  0  0  0  0  0  0  0  # atno 8009 bound_to 7997
  156.2400  140.2907  156.0428 H   0  0  0  0  0  0  0  0  0  0  0  0  # atno 8010 bound_to 7997
  139.5360  144.6683  151.4784 H   0  0  0  0  0  0  0  0  0  0  0  0  # atno 10167 bound_to 10162
  157.0063  131.0191  151.2816 H   0  0  0  0  0  0  0  0  0  0  0  0  # atno 10718 bound_to 10713
  154.6245  135.2879  155.0288 H   0  0  0  0  0  0  0  0  0  0  0  0  # atno 10763 bound_to 10752
  154.1471  135.6509  153.4959 H   0  0  0  0  0  0  0  0  0  0  0  0  # atno 10764 bound_to 10752
  153.0251  135.5346  154.7048 H   0  0  0  0  0  0  0  0  0  0  0  0  # atno 10765 bound_to 10752
  141.0234  133.6852  156.2434 H   0  0  0  0  0  0  0  0  0  0  0  0  # atno 11005 bound_to 11000
  145.7643  140.9922  143.1183 LP  0  0  0  0  0  0  0  0  0  0  0  0  # atno 17320 bound_to 7965
  144.6886  139.9369  143.7474 LP  0  0  0  0  0  0  0  0  0  0  0  0  # atno 17321 bound_to 7965
  140.6567  143.8585  150.6842 LP  0  0  0  0  0  0  0  0  0  0  0  0  # atno 17342 bound_to 10162
  140.1967  143.3992  152.1823 LP  0  0  0  0  0  0  0  0  0  0  0  0  # atno 17343 bound_to 10162
  157.5353  130.8085  149.7965 LP  0  0  0  0  0  0  0  0  0  0  0  0  # atno 17370 bound_to 10713
  156.0152  130.3816  150.2133 LP  0  0  0  0  0  0  0  0  0  0  0  0  # atno 17371 bound_to 10713
  140.6534  134.5043  157.5579 LP  0  0  0  0  0  0  0  0  0  0  0  0  # atno 17394 bound_to 11000
  139.9160  134.8245  156.1365 LP  0  0  0  0  0  0  0  0  0  0  0  0  # atno 17395 bound_to 11000

$$$$
