AV-unprocessed.smi:313|AV-procd|sdf|2310|dock3
  -GOLD-   2262022213D 1   1.00000     0.00000
 Structure written by MMmdl.
 50 51  0  0  0  0  0  0  0  0  1 V2000
  152.3041  143.6294  158.1983 C   0  0  0  0  0  0  0  0  0  0  0  0
  151.0311  143.4379  157.3602 C   0  0  0  0  0  0  0  0  0  0  0  0
  151.0679  142.2065  156.4330 C   0  0  1  0  0  0  0  0  0  0  0  0
  151.1548  140.8997  157.2335 C   0  0  0  0  0  0  0  0  0  0  0  0
  149.8813  142.1654  155.5808 N   0  0  0  0  0  0  0  0  0  0  0  0
  149.5660  141.1915  154.7124 C   0  0  0  0  0  0  0  0  0  0  0  0
  150.2517  140.1819  154.5445 O   0  0  0  0  0  0  0  0  0  0  0  0
  148.2684  141.3949  153.9146 C   0  0  2  0  0  0  0  0  0  0  0  0
  147.2314  142.0548  154.8383 C   0  0  0  0  0  0  0  0  0  0  0  0
  147.7304  140.1092  153.4736 N   0  0  0  0  0  0  0  0  0  0  0  0
  147.1349  139.2041  154.2689 C   0  0  0  0  0  0  0  0  0  0  0  0
  146.9590  139.3718  155.4761 O   0  0  0  0  0  0  0  0  0  0  0  0
  146.6241  137.9714  153.5810 C   0  0  0  0  0  0  0  0  0  0  0  0
  146.2411  137.9830  152.2220 C   0  0  0  0  0  0  0  0  0  0  0  0
  145.7993  136.7877  151.6237 C   0  0  0  0  0  0  0  0  0  0  0  0
  145.7593  135.6018  152.3946 C   0  0  0  0  0  0  0  0  0  0  0  0
  145.3287  134.3899  151.8121 N   0  0  0  0  0  0  0  0  0  0  0  0
  146.1877  133.7735  150.8024 C   0  0  0  0  0  0  0  0  0  0  0  0
  145.7078  132.3467  150.4876 C   0  0  0  0  0  0  0  0  0  0  0  0
  144.3392  132.3776  150.0976 O   0  0  0  0  0  0  0  0  0  0  0  0
  143.5047  132.8754  151.1378 C   0  0  0  0  0  0  0  0  0  0  0  0
  143.9066  134.3197  151.4835 C   0  0  0  0  0  0  0  0  0  0  0  0
  146.1282  135.5934  153.6994 N   0  0  0  0  0  0  0  0  0  0  0  0
  146.5523  136.7415  154.2689 C   0  0  0  0  0  0  0  0  0  0  0  0
  152.1930  144.4717  158.8813 H   0  0  0  0  0  0  0  0  0  0  0  0
  153.1729  143.8296  157.5709 H   0  0  0  0  0  0  0  0  0  0  0  0
  152.5184  142.7432  158.7957 H   0  0  0  0  0  0  0  0  0  0  0  0
  150.1826  143.3459  158.0393 H   0  0  0  0  0  0  0  0  0  0  0  0
  150.8497  144.3382  156.7717 H   0  0  0  0  0  0  0  0  0  0  0  0
  151.9682  142.2692  155.8193 H   0  0  0  0  0  0  0  0  0  0  0  0
  152.0452  140.8835  157.8624 H   0  0  0  0  0  0  0  0  0  0  0  0
  151.2063  140.0355  156.5702 H   0  0  0  0  0  0  0  0  0  0  0  0
  150.2875  140.7711  157.8820 H   0  0  0  0  0  0  0  0  0  0  0  0
  149.2543  142.9542  155.6452 H   0  0  0  0  0  0  0  0  0  0  0  0
  148.4495  142.0372  153.0502 H   0  0  0  0  0  0  0  0  0  0  0  0
  147.5818  143.0227  155.1992 H   0  0  0  0  0  0  0  0  0  0  0  0
  147.0092  141.4355  155.7086 H   0  0  0  0  0  0  0  0  0  0  0  0
  146.2937  142.2268  154.3091 H   0  0  0  0  0  0  0  0  0  0  0  0
  147.8013  139.9010  152.4884 H   0  0  0  0  0  0  0  0  0  0  0  0
  146.2832  138.8891  151.6349 H   0  0  0  0  0  0  0  0  0  0  0  0
  145.4892  136.7968  150.5895 H   0  0  0  0  0  0  0  0  0  0  0  0
  146.1733  134.3800  149.8957 H   0  0  0  0  0  0  0  0  0  0  0  0
  147.2193  133.7376  151.1553 H   0  0  0  0  0  0  0  0  0  0  0  0
  146.2989  131.9221  149.6762 H   0  0  0  0  0  0  0  0  0  0  0  0
  145.8371  131.6927  151.3518 H   0  0  0  0  0  0  0  0  0  0  0  0
  142.4670  132.8443  150.8061 H   0  0  0  0  0  0  0  0  0  0  0  0
  143.5770  132.2314  152.0158 H   0  0  0  0  0  0  0  0  0  0  0  0
  143.2849  134.6709  152.3053 H   0  0  0  0  0  0  0  0  0  0  0  0
  143.7091  134.9747  150.6340 H   0  0  0  0  0  0  0  0  0  0  0  0
  146.8390  136.6692  155.3081 H   0  0  0  0  0  0  0  0  0  0  0  0
  1  2  1  0  0  0  0
  1 25  1  0  0  0  0
  1 26  1  0  0  0  0
  1 27  1  0  0  0  0
  2  3  1  0  0  0  0
  2 28  1  0  0  0  0
  2 29  1  0  0  0  0
  3  4  1  0  0  0  0
  3  5  1  0  0  0  0
  3 30  1  0  0  0  0
  4 31  1  0  0  0  0
  4 32  1  0  0  0  0
  4 33  1  0  0  0  0
  5  6  1  0  0  0  0
  5 34  1  0  0  0  0
  6  7  2  0  0  0  0
  6  8  1  0  0  0  0
  8  9  1  0  0  0  0
  8 10  1  0  0  0  0
  8 35  1  0  0  0  0
  9 36  1  0  0  0  0
  9 37  1  0  0  0  0
  9 38  1  0  0  0  0
 10 11  1  0  0  0  0
 10 39  1  0  0  0  0
 11 12  2  0  0  0  0
 11 13  1  0  0  0  0
 13 24  1  0  0  0  0
 13 14  2  0  0  0  0
 14 15  1  0  0  0  0
 14 40  1  0  0  0  0
 15 16  2  0  0  0  0
 15 41  1  0  0  0  0
 16 17  1  0  0  0  0
 16 23  1  0  0  0  0
 17 22  1  0  0  0  0
 17 18  1  0  0  0  0
 18 19  1  0  0  0  0
 18 42  1  0  0  0  0
 18 43  1  0  0  0  0
 19 20  1  0  0  0  0
 19 44  1  0  0  0  0
 19 45  1  0  0  0  0
 20 21  1  0  0  0  0
 21 22  1  0  0  0  0
 21 46  1  0  0  0  0
 21 47  1  0  0  0  0
 22 48  1  0  0  0  0
 22 49  1  0  0  0  0
 23 24  2  0  0  0  0
 24 50  1  0  0  0  0
M  END
> <s_m_source_file>
AV-unprocessed.smi

> <i_m_source_file_index>
313

> <i_lp_mmshare_version>
43012

> <i_f3d_flags>
0

> <s_epik_input>
W0NIM11bQ0gyXVtDQEhdKFtDSDNdKVtOSF1DKD1PKVtDQEhdKFtDSDNdKVtOSF1DKD1PKWMxW2NIXVtjSF1jKG5bY0hdMSlOMltDSDJdW0NIMl1PW0NIMl1bQ0gyXTI=

> <s_epik_cmdline>
J2VwaWtfcHl0aG9uJywgJy1waCcsICc3LjAnLCAnLXRuJywgJzgnLCAnLW1hJywgJzIwMCcsICctbWV0YWxfYmluZGluZycsICctaW1hZScsICc8aW5maWxlLm1hZT4nLCAnLW9tYWUnLCAnPG91dGZpbGUubWFlPic=

> <r_lp_tautomer_probability>
1

> <r_epik_Ionization_Penalty>
9.96442e-06

> <r_epik_Ionization_Penalty_Charging>
0

> <r_epik_Ionization_Penalty_Neutral>
9.96442e-06

> <r_epik_State_Penalty>
-0

> <r_epik_Charging_Adjusted_Penalty>
0

> <i_epik_Tot_Q>
0

> <i_epik_Tot_abs_Q>
0

> <r_epik_Metal_State_Penalty>
-0

> <b_epik_Metal_Only>
0

> <s_lp_Force_Field>
OPLS_2005

> <r_lp_Energy>
19.2481

> <b_lp_Chiralities_Consistent>
1

> <s_lp_Variant>
AV-unprocessed.smi:313-2

> <Gold.Version>
5.8.1

> <Gold.Id.Protein>
6NUR|6NUR_protein|mol2

> <Gold.PLP.Fitness>
45.0010

> <Gold.PLP.PLP>
-40.3575

> <Gold.PLP.part.hbond>
-3.0000

> <Gold.PLP.part.metal>
0.0000

> <Gold.PLP.part.buried>
-1.3749

> <Gold.PLP.part.nonpolar>
-36.2185

> <Gold.PLP.part.repulsive>
0.6886

> <Gold.PLP.ligand.clash>
0.0000

> <Gold.PLP.ligand.torsion>
1.4008

> <Gold.PLP.Chemscore.Hbond>
2.3650

> <Gold.PLP.Chemscore.CHOScore>
0.0000

> <Gold.PLP.Chemscore.Metal>
0.0000

> <Gold.Chemscore.Hbonds>
donor molecule, donor type, donor heavy atom, donor atom, acceptor molecule, acceptor atom, score
      L1  H     5    34       P1  8028  1.00
      L1  H    10    39       P1  7957  0.30
      P1  H  7989  7998       L1     7  1.00

> <Gold.PLP.Chemscore.Internal.Correction>
0.3500

> <Gold.Rescore>
     Score         DG    S(hbond)    S(metal)    S(lipo)     H(rot)  DE(clash)    DE(int)     intcor
     13.80     -18.27       1.71        0.00      99.62       1.79       0.09       4.39       ----

> <Gold.Chemscore.Fitness>
13.7996

> <Gold.Chemscore.DG>
-18.2727

> <Gold.Chemscore.ZeroCoef>
-5.4800

> <Gold.Chemscore.Hbond>
1.7114

> <Gold.Chemscore.Metal>
0.0000

> <Gold.Chemscore.Lipo>
99.6229

> <Gold.Chemscore.Internal_Hbond>
0.0000

> <Gold.Chemscore.DEClash>
0.0874

> <Gold.Chemscore.DEInternal>
4.3858

> <Gold.Chemscore.Rot>
1.7888

> <Gold.Chemscore.Internal.Correction>
   9.000000E+99

> <Gold.Chemscore.Hbonds>
donor molecule, donor type, donor heavy atom, donor atom, acceptor molecule, acceptor atom, score
      L1  H     5    34       P1  8028  0.97
      L1  H    10    39       P1  7957  0.29
      P1  H  7989  7998       L1     7  0.25

> <Gold.Chemscore.Hbond.Weighted>
-5.7161

> <Gold.Chemscore.Metal.Weighted>
-0.0000

> <Gold.Chemscore.Lipo.Weighted>
-11.6559

> <Gold.Chemscore.Internal_Hbond.Weighted>
0.0000

> <Gold.Chemscore.DEClash.Weighted>
0.0874

> <Gold.Chemscore.DEInternal.Weighted>
4.3858

> <Gold.Chemscore.Rot.Weighted>
4.5793

> <Gold.Chemscore.Internal.Correction.Weighted>
   9.000000E+99

> <Gold.Protein.RotatedTorsions>
[ 6907 6896 6895 6894 ] final  -28.13 input  -60.11 | X-H torsion
[ 7974 7965 7964 7962 ] final   40.58 input  175.53 | X-H torsion
[ 8008 7997 7996 7995 ] final  162.29 input   59.86 | X-H torsion
[ 10167 10162 10161 10158 ] final   26.78 input  -65.29 | X-H torsion
[ 10718 10713 10712 10709 ] final  -56.51 input   66.30 | X-H torsion
[ 10763 10752 10751 10750 ] final  -49.69 input  -60.55 | X-H torsion
[ 11005 11000 10999 10996 ] final    6.97 input  -57.11 | X-H torsion

> <Gold.Protein.ActiveResidues>
 VAL166  LYS551  ARG553  GLY616  TRP617  ASP618  TYR619  PRO620  LYS621  CYS622 
 ASP623  PHE694  ASN695  SER759  ASP760  ASP761  ALA762  ILE779  LEU786  VAL792 
 PHE793  MET794  SER795  GLU796  ALA797  LYS798  CYS799  TRP800  GLU811  SER814 

> <Gold.Protein.RotatedAtoms>
  151.1373  135.0161  159.8609 H   0  0  0  0  0  0  0  0  0  0  0  0  # atno 6907 bound_to 6896
  152.5452  134.1541  159.8540 H   0  0  0  0  0  0  0  0  0  0  0  0  # atno 6908 bound_to 6896
  151.1613  133.4798  159.2627 H   0  0  0  0  0  0  0  0  0  0  0  0  # atno 6909 bound_to 6896
  146.0893  139.5517  142.9486 H   0  0  0  0  0  0  0  0  0  0  0  0  # atno 7974 bound_to 7965
  156.2042  140.1754  156.7835 H   0  0  0  0  0  0  0  0  0  0  0  0  # atno 8008 bound_to 7997
  154.5633  140.0695  156.8883 H   0  0  0  0  0  0  0  0  0  0  0  0  # atno 8009 bound_to 7997
  155.2808  140.3349  155.4261 H   0  0  0  0  0  0  0  0  0  0  0  0  # atno 8010 bound_to 7997
  140.4994  144.0339  150.6327 H   0  0  0  0  0  0  0  0  0  0  0  0  # atno 10167 bound_to 10162
  156.1283  130.4161  150.0315 H   0  0  0  0  0  0  0  0  0  0  0  0  # atno 10718 bound_to 10713
  154.0982  135.6567  153.4864 H   0  0  0  0  0  0  0  0  0  0  0  0  # atno 10763 bound_to 10752
  153.0298  135.5218  154.7313 H   0  0  0  0  0  0  0  0  0  0  0  0  # atno 10764 bound_to 10752
  154.6457  135.2994  155.0018 H   0  0  0  0  0  0  0  0  0  0  0  0  # atno 10765 bound_to 10752
  140.5535  134.0261  155.7945 H   0  0  0  0  0  0  0  0  0  0  0  0  # atno 11005 bound_to 11000
  145.6069  141.0346  143.1988 LP  0  0  0  0  0  0  0  0  0  0  0  0  # atno 17320 bound_to 7965
  144.7349  139.7616  143.7333 LP  0  0  0  0  0  0  0  0  0  0  0  0  # atno 17321 bound_to 7965
  140.3631  143.2897  152.0362 LP  0  0  0  0  0  0  0  0  0  0  0  0  # atno 17342 bound_to 10162
  139.4868  144.6288  151.7112 LP  0  0  0  0  0  0  0  0  0  0  0  0  # atno 17343 bound_to 10162
  156.8234  130.9367  151.3640 LP  0  0  0  0  0  0  0  0  0  0  0  0  # atno 17370 bound_to 10713
  157.6463  130.8847  149.9544 LP  0  0  0  0  0  0  0  0  0  0  0  0  # atno 17371 bound_to 10713
  141.1158  133.9543  157.2826 LP  0  0  0  0  0  0  0  0  0  0  0  0  # atno 17394 bound_to 11000
  139.9443  135.0186  156.8805 LP  0  0  0  0  0  0  0  0  0  0  0  0  # atno 17395 bound_to 11000

$$$$
