AV-unprocessed.smi:2775|AV-procd|sdf|10698|dock8
  -GOLD-   2272015133D 1   1.00000     0.00000
 Structure written by MMmdl.
 43 46  0  0  0  0  0  0  0  0  2 V2000
  144.6135  132.3994  150.5148 C   0  0  0  0  0  0  0  0  0  0  0  0
  144.6264  133.7455  151.2135 C   0  0  0  0  0  0  0  0  0  0  0  0
  143.5066  134.4987  151.1480 N   0  3  0  0  0  0  0  0  0  0  0  0
  143.4032  135.7137  151.7250 C   0  0  0  0  0  0  0  0  0  0  0  0
  144.4925  136.2474  152.4409 C   0  0  0  0  0  0  0  0  0  0  0  0
  145.6880  135.4930  152.5541 C   0  0  0  0  0  0  0  0  0  0  0  0
  146.8448  135.9501  153.2441 N   0  0  0  0  0  0  0  0  0  0  0  0
  147.1003  137.1536  153.7927 C   0  0  0  0  0  0  0  0  0  0  0  0
  146.3314  138.1118  153.7772 O   0  0  0  0  0  0  0  0  0  0  0  0
  148.3019  137.2319  154.3904 N   0  0  0  0  0  0  0  0  0  0  0  0
  148.8775  138.3908  155.0750 C   0  0  2  0  0  0  0  0  0  0  0  0
  149.2215  139.5360  154.1042 C   0  0  1  0  0  0  0  0  0  0  0  0
  148.5123  140.8579  154.2256 C   0  0  0  0  0  0  0  0  0  0  0  0
  149.5011  141.7035  155.0327 C   0  0  0  0  0  0  0  0  0  0  0  0
  150.3083  140.7519  155.7223 O   0  0  0  0  0  0  0  0  0  0  0  0
  150.5574  139.6729  154.8265 C   0  0  1  0  0  0  0  0  0  0  0  0
  150.3787  138.2673  155.4128 C   0  0  0  0  0  0  0  0  0  0  0  0
  151.2600  137.1080  154.9097 C   0  0  0  0  0  0  0  0  0  0  0  0
  151.2724  136.5489  156.3350 C   0  0  0  0  0  0  0  0  0  0  0  0
  150.8511  137.9340  156.8350 C   0  0  0  0  0  0  0  0  0  0  0  0
  145.7543  134.2288  151.9175 C   0  0  0  0  0  0  0  0  0  0  0  0
  147.1996  133.2773  152.0008 Cl  0  0  0  0  0  0  0  0  0  0  0  0
  144.8210  131.6001  151.2270 H   0  0  0  0  0  0  0  0  0  0  0  0
  145.3732  132.3706  149.7332 H   0  0  0  0  0  0  0  0  0  0  0  0
  143.6454  132.1981  150.0543 H   0  0  0  0  0  0  0  0  0  0  0  0
  142.4591  136.2224  151.5942 H   0  0  0  0  0  0  0  0  0  0  0  0
  144.3889  137.2284  152.8772 H   0  0  0  0  0  0  0  0  0  0  0  0
  147.5557  135.2487  153.3936 H   0  0  0  0  0  0  0  0  0  0  0  0
  148.8804  136.4045  154.3595 H   0  0  0  0  0  0  0  0  0  0  0  0
  148.2939  138.7538  155.9239 H   0  0  0  0  0  0  0  0  0  0  0  0
  149.3619  139.1882  153.0790 H   0  0  0  0  0  0  0  0  0  0  0  0
  148.2946  141.3091  153.2572 H   0  0  0  0  0  0  0  0  0  0  0  0
  147.5699  140.7465  154.7627 H   0  0  0  0  0  0  0  0  0  0  0  0
  150.1356  142.2903  154.3667 H   0  0  0  0  0  0  0  0  0  0  0  0
  149.0061  142.3869  155.7227 H   0  0  0  0  0  0  0  0  0  0  0  0
  151.4125  139.8230  154.1660 H   0  0  0  0  0  0  0  0  0  0  0  0
  150.8110  136.4488  154.1670 H   0  0  0  0  0  0  0  0  0  0  0  0
  152.2481  137.4429  154.5909 H   0  0  0  0  0  0  0  0  0  0  0  0
  150.5091  135.7876  156.4981 H   0  0  0  0  0  0  0  0  0  0  0  0
  152.2513  136.2192  156.6841 H   0  0  0  0  0  0  0  0  0  0  0  0
  151.7000  138.5430  157.1492 H   0  0  0  0  0  0  0  0  0  0  0  0
  150.0627  137.9232  157.5880 H   0  0  0  0  0  0  0  0  0  0  0  0
  142.7037  134.1340  150.6348 H   0  0  0  0  0  0  0  0  0  0  0  0
  1  2  1  0  0  0  0
  1 23  1  0  0  0  0
  1 24  1  0  0  0  0
  1 25  1  0  0  0  0
  2 21  1  0  0  0  0
  2  3  2  0  0  0  0
  3  4  1  0  0  0  0
  3 43  1  0  0  0  0
  4  5  2  0  0  0  0
  4 26  1  0  0  0  0
  5  6  1  0  0  0  0
  5 27  1  0  0  0  0
  6  7  1  0  0  0  0
  6 21  2  0  0  0  0
  7  8  1  0  0  0  0
  7 28  1  0  0  0  0
  8  9  2  0  0  0  0
  8 10  1  0  0  0  0
 10 11  1  0  0  0  0
 10 29  1  0  0  0  0
 11 17  1  0  0  0  0
 11 12  1  0  0  0  0
 11 30  1  0  0  0  0
 12 16  1  0  0  0  0
 12 13  1  0  0  0  0
 12 31  1  0  0  0  0
 13 14  1  0  0  0  0
 13 32  1  0  0  0  0
 13 33  1  0  0  0  0
 14 15  1  0  0  0  0
 14 34  1  0  0  0  0
 14 35  1  0  0  0  0
 15 16  1  0  0  0  0
 16 17  1  0  0  0  0
 16 36  1  0  0  0  0
 17 20  1  0  0  0  0
 17 18  1  0  0  0  0
 18 19  1  0  0  0  0
 18 37  1  0  0  0  0
 18 38  1  0  0  0  0
 19 20  1  0  0  0  0
 19 39  1  0  0  0  0
 19 40  1  0  0  0  0
 20 41  1  0  0  0  0
 20 42  1  0  0  0  0
 21 22  1  0  0  0  0
M  CHG  1   3   1
M  END
> <s_m_source_file>
AV-unprocessed.smi

> <i_m_source_file_index>
2775

> <i_lp_mmshare_version>
43012

> <i_f3d_flags>
0

> <s_epik_input>
W0NIM11jMW5bY0hdW2NIXWMoYzFDbClbTkhdQyg9TylbTkhdW0NAQEhdMltDQEhdKFtDSDJdW0NIMl1PMylbQ0BASF0zQzI0W0NIMl1bQ0gyXVtDSDJdNA==

> <s_epik_cmdline>
J2VwaWtfcHl0aG9uJywgJy1waCcsICc3LjAnLCAnLXRuJywgJzgnLCAnLW1hJywgJzIwMCcsICctbWV0YWxfYmluZGluZycsICctaW1hZScsICc8aW5maWxlLm1hZT4nLCAnLW9tYWUnLCAnPG91dGZpbGUubWFlPic=

> <r_epik_Ionization_Penalty>
2.4104

> <r_epik_Ionization_Penalty_Charging>
2.41038

> <r_epik_Ionization_Penalty_Neutral>
1.9872e-05

> <r_epik_State_Penalty>
2.56896

> <r_epik_Charging_Adjusted_Penalty>
4.97934

> <i_epik_Tot_Q>
1

> <i_epik_Tot_abs_Q>
1

> <r_epik_Metal_State_Penalty>
2.57906

> <b_epik_Metal_Only>
0

> <s_lp_Force_Field>
OPLS_2005

> <r_lp_Energy>
60.4392

> <b_lp_Chiralities_Consistent>
1

> <s_lp_Variant>
AV-unprocessed.smi:2775-11

> <Gold.Version>
5.8.1

> <Gold.Id.Protein>
6NUR|6NUR_protein|mol2

> <Gold.PLP.Fitness>
35.0131

> <Gold.PLP.PLP>
-29.0415

> <Gold.PLP.part.hbond>
-2.9070

> <Gold.PLP.part.metal>
0.0000

> <Gold.PLP.part.buried>
0.7236

> <Gold.PLP.part.nonpolar>
-27.1316

> <Gold.PLP.part.repulsive>
0.2159

> <Gold.PLP.ligand.clash>
0.0000

> <Gold.PLP.ligand.torsion>
0.1108

> <Gold.PLP.Chemscore.Hbond>
2.0000

> <Gold.PLP.Chemscore.CHOScore>
0.0000

> <Gold.PLP.Chemscore.Metal>
0.0000

> <Gold.Chemscore.Hbonds>
donor molecule, donor type, donor heavy atom, donor atom, acceptor molecule, acceptor atom, score
      L1  H     3    43       P1 10186  2.00

> <Gold.PLP.Chemscore.Internal.Correction>
0.1932

> <Gold.Rescore>
     Score         DG    S(hbond)    S(metal)    S(lipo)     H(rot)  DE(clash)    DE(int)     intcor
     13.11     -14.86       0.71        0.00      81.79       1.00       0.45       1.31       ----

> <Gold.Chemscore.Fitness>
13.1104

> <Gold.Chemscore.DG>
-14.8650

> <Gold.Chemscore.ZeroCoef>
-5.4800

> <Gold.Chemscore.Hbond>
0.7113

> <Gold.Chemscore.Metal>
0.0000

> <Gold.Chemscore.Lipo>
81.7882

> <Gold.Chemscore.Internal_Hbond>
0.0000

> <Gold.Chemscore.DEClash>
0.4477

> <Gold.Chemscore.DEInternal>
1.3068

> <Gold.Chemscore.Rot>
1.0000

> <Gold.Chemscore.Internal.Correction>
   9.000000E+99

> <Gold.Chemscore.Hbonds>
donor molecule, donor type, donor heavy atom, donor atom, acceptor molecule, acceptor atom, score
      L1  H     3    43       P1 10186  0.62

> <Gold.Chemscore.Hbond.Weighted>
-2.3757

> <Gold.Chemscore.Metal.Weighted>
-0.0000

> <Gold.Chemscore.Lipo.Weighted>
-9.5692

> <Gold.Chemscore.Internal_Hbond.Weighted>
0.0000

> <Gold.Chemscore.DEClash.Weighted>
0.4477

> <Gold.Chemscore.DEInternal.Weighted>
1.3068

> <Gold.Chemscore.Rot.Weighted>
2.5600

> <Gold.Chemscore.Internal.Correction.Weighted>
   9.000000E+99

> <Gold.Protein.RotatedTorsions>
[ 6907 6896 6895 6894 ] final  -70.43 input  -60.11 | X-H torsion
[ 7974 7965 7964 7962 ] final  179.42 input  175.53 | X-H torsion
[ 8008 7997 7996 7995 ] final   66.27 input   59.86 | X-H torsion
[ 10167 10162 10161 10158 ] final   30.62 input  -65.29 | X-H torsion
[ 10718 10713 10712 10709 ] final  106.68 input   66.30 | X-H torsion
[ 10763 10752 10751 10750 ] final   27.45 input  -60.55 | X-H torsion
[ 11005 11000 10999 10996 ] final  110.65 input  -57.11 | X-H torsion

> <Gold.Protein.ActiveResidues>
 VAL166  LYS551  ARG553  GLY616  TRP617  ASP618  TYR619  PRO620  LYS621  CYS622 
 ASP623  PHE694  ASN695  SER759  ASP760  ASP761  ALA762  ILE779  LEU786  VAL792 
 PHE793  MET794  SER795  GLU796  ALA797  LYS798  CYS799  TRP800  GLU811  SER814 

> <Gold.Protein.RotatedAtoms>
  150.7258  134.5454  159.5767 H   0  0  0  0  0  0  0  0  0  0  0  0  # atno 6907 bound_to 6896
  152.2954  134.7670  160.0378 H   0  0  0  0  0  0  0  0  0  0  0  0  # atno 6908 bound_to 6896
  151.8269  133.3367  159.3638 H   0  0  0  0  0  0  0  0  0  0  0  0  # atno 6909 bound_to 6896
  144.7146  140.0546  143.6434 H   0  0  0  0  0  0  0  0  0  0  0  0  # atno 7974 bound_to 7965
  155.6748  140.3497  155.4832 H   0  0  0  0  0  0  0  0  0  0  0  0  # atno 8008 bound_to 7997
  155.9657  140.1146  157.0879 H   0  0  0  0  0  0  0  0  0  0  0  0  # atno 8009 bound_to 7997
  154.4154  140.1167  156.5225 H   0  0  0  0  0  0  0  0  0  0  0  0  # atno 8010 bound_to 7997
  140.4662  144.0832  150.6225 H   0  0  0  0  0  0  0  0  0  0  0  0  # atno 10167 bound_to 10162
  157.6659  131.0856  150.6043 H   0  0  0  0  0  0  0  0  0  0  0  0  # atno 10718 bound_to 10713
  153.0555  135.6536  154.0588 H   0  0  0  0  0  0  0  0  0  0  0  0  # atno 10763 bound_to 10752
  154.0267  135.2915  155.3375 H   0  0  0  0  0  0  0  0  0  0  0  0  # atno 10764 bound_to 10752
  154.6868  135.5298  153.8404 H   0  0  0  0  0  0  0  0  0  0  0  0  # atno 10765 bound_to 10752
  139.8886  134.9489  156.6311 H   0  0  0  0  0  0  0  0  0  0  0  0  # atno 11005 bound_to 11000
  145.9915  139.3019  143.0982 LP  0  0  0  0  0  0  0  0  0  0  0  0  # atno 17320 bound_to 7965
  145.8897  140.9311  143.0558 LP  0  0  0  0  0  0  0  0  0  0  0  0  # atno 17321 bound_to 7965
  140.4033  143.2693  151.9921 LP  0  0  0  0  0  0  0  0  0  0  0  0  # atno 17342 bound_to 10162
  139.4812  144.5978  151.7659 LP  0  0  0  0  0  0  0  0  0  0  0  0  # atno 17343 bound_to 10162
  156.6344  130.4441  149.5775 LP  0  0  0  0  0  0  0  0  0  0  0  0  # atno 17370 bound_to 10713
  156.2257  130.6764  151.1413 LP  0  0  0  0  0  0  0  0  0  0  0  0  # atno 17371 bound_to 10713
  140.7665  133.8774  155.8459 LP  0  0  0  0  0  0  0  0  0  0  0  0  # atno 17394 bound_to 11000
  140.9878  134.1320  157.4436 LP  0  0  0  0  0  0  0  0  0  0  0  0  # atno 17395 bound_to 11000

$$$$
