AV-unprocessed.smi:693|AV-procd|sdf|3372|dock5
  -GOLD-   22720 0353D 1   1.00000     0.00000
 Structure written by MMmdl.
 46 47  0  0  0  0  0  0  0  0  1 V2000
  151.3953  139.8242  156.0398 C   0  0  0  0  0  0  0  0  0  0  0  0
  150.1010  139.6707  155.2686 C   0  0  0  0  0  0  0  0  0  0  0  0
  149.4518  138.4206  155.1864 C   0  0  0  0  0  0  0  0  0  0  0  0
  148.2531  138.3348  154.4526 C   0  0  0  0  0  0  0  0  0  0  0  0
  147.7517  139.4967  153.8306 C   0  0  0  0  0  0  0  0  0  0  0  0
  146.4647  139.4580  153.0309 C   0  0  0  0  0  0  0  0  0  0  0  0
  146.5576  138.5025  151.8305 C   0  0  0  0  0  0  0  0  0  0  0  0
  146.0404  137.1798  152.1594 N   0  0  0  0  0  0  0  0  0  0  0  0
  145.5800  136.2798  151.2741 C   0  0  0  0  0  0  0  0  0  0  0  0
  145.5304  136.5173  150.0663 O   0  0  0  0  0  0  0  0  0  0  0  0
  145.1565  135.1115  151.8207 N   0  0  0  0  0  0  0  0  0  0  0  0
  145.6681  134.4942  153.0549 C   0  0  0  0  0  0  0  0  0  0  0  0
  146.5846  133.3235  152.6651 C   0  0  0  0  0  0  0  0  0  0  0  0
  145.8350  132.3072  151.7826 C   0  0  0  0  0  0  0  0  0  0  0  0
  145.1095  132.9807  150.5892 C   0  0  1  0  0  0  0  0  0  0  0  0
  144.2170  132.0065  149.7864 C   0  0  0  0  0  0  0  0  0  0  0  0
  143.8690  132.4995  148.3778 C   0  0  0  0  0  0  0  0  0  0  0  0
  142.7182  132.0729  147.8522 N   0  0  0  0  0  0  0  0  0  0  0  0
  144.6365  133.2354  147.7614 O   0  0  0  0  0  0  0  0  0  0  0  0
  144.2808  134.1848  151.0922 C   0  0  0  0  0  0  0  0  0  0  0  0
  148.4779  140.6977  153.9741 C   0  0  0  0  0  0  0  0  0  0  0  0
  149.6278  140.7895  154.6765 N   0  0  0  0  0  0  0  0  0  0  0  0
  151.6157  138.9299  156.6237 H   0  0  0  0  0  0  0  0  0  0  0  0
  151.3350  140.6700  156.7255 H   0  0  0  0  0  0  0  0  0  0  0  0
  152.2244  139.9964  155.3532 H   0  0  0  0  0  0  0  0  0  0  0  0
  149.8604  137.5468  155.6722 H   0  0  0  0  0  0  0  0  0  0  0  0
  147.7295  137.3936  154.3707 H   0  0  0  0  0  0  0  0  0  0  0  0
  145.6505  139.1587  153.6923 H   0  0  0  0  0  0  0  0  0  0  0  0
  146.2277  140.4665  152.6891 H   0  0  0  0  0  0  0  0  0  0  0  0
  145.9702  138.8934  150.9994 H   0  0  0  0  0  0  0  0  0  0  0  0
  147.5870  138.4265  151.4760 H   0  0  0  0  0  0  0  0  0  0  0  0
  146.0406  136.9210  153.1353 H   0  0  0  0  0  0  0  0  0  0  0  0
  146.2029  135.1830  153.7084 H   0  0  0  0  0  0  0  0  0  0  0  0
  144.8295  134.1280  153.6489 H   0  0  0  0  0  0  0  0  0  0  0  0
  147.4536  133.7049  152.1269 H   0  0  0  0  0  0  0  0  0  0  0  0
  146.9656  132.8301  153.5596 H   0  0  0  0  0  0  0  0  0  0  0  0
  146.5419  131.5554  151.4327 H   0  0  0  0  0  0  0  0  0  0  0  0
  145.1033  131.7799  152.3961 H   0  0  0  0  0  0  0  0  0  0  0  0
  145.8719  133.3712  149.9125 H   0  0  0  0  0  0  0  0  0  0  0  0
  144.7071  131.0356  149.7038 H   0  0  0  0  0  0  0  0  0  0  0  0
  143.2885  131.8266  150.3307 H   0  0  0  0  0  0  0  0  0  0  0  0
  142.4453  132.3684  146.9261 H   0  0  0  0  0  0  0  0  0  0  0  0
  142.1246  131.4532  148.3842 H   0  0  0  0  0  0  0  0  0  0  0  0
  143.4847  133.8436  151.7555 H   0  0  0  0  0  0  0  0  0  0  0  0
  143.7741  134.6709  150.2571 H   0  0  0  0  0  0  0  0  0  0  0  0
  148.1265  141.6100  153.5145 H   0  0  0  0  0  0  0  0  0  0  0  0
  1  2  1  0  0  0  0
  1 23  1  0  0  0  0
  1 24  1  0  0  0  0
  1 25  1  0  0  0  0
  2 22  1  0  0  0  0
  2  3  2  0  0  0  0
  3  4  1  0  0  0  0
  3 26  1  0  0  0  0
  4  5  2  0  0  0  0
  4 27  1  0  0  0  0
  5  6  1  0  0  0  0
  5 21  1  0  0  0  0
  6  7  1  0  0  0  0
  6 28  1  0  0  0  0
  6 29  1  0  0  0  0
  7  8  1  0  0  0  0
  7 30  1  0  0  0  0
  7 31  1  0  0  0  0
  8  9  1  0  0  0  0
  8 32  1  0  0  0  0
  9 10  2  0  0  0  0
  9 11  1  0  0  0  0
 11 20  1  0  0  0  0
 11 12  1  0  0  0  0
 12 13  1  0  0  0  0
 12 33  1  0  0  0  0
 12 34  1  0  0  0  0
 13 14  1  0  0  0  0
 13 35  1  0  0  0  0
 13 36  1  0  0  0  0
 14 15  1  0  0  0  0
 14 37  1  0  0  0  0
 14 38  1  0  0  0  0
 15 16  1  0  0  0  0
 15 20  1  0  0  0  0
 15 39  1  0  0  0  0
 16 17  1  0  0  0  0
 16 40  1  0  0  0  0
 16 41  1  0  0  0  0
 17 18  1  0  0  0  0
 17 19  2  0  0  0  0
 18 42  1  0  0  0  0
 18 43  1  0  0  0  0
 20 44  1  0  0  0  0
 20 45  1  0  0  0  0
 21 22  2  0  0  0  0
 21 46  1  0  0  0  0
M  END
> <s_m_source_file>
AV-unprocessed.smi

> <i_m_source_file_index>
693

> <i_lp_mmshare_version>
43012

> <i_f3d_flags>
0

> <s_epik_input>
W0NIM11jMVtjSF1bY0hdYyhbY0hdbjEpW0NIMl1bQ0gyXVtOSF1DKD1PKU4yW0NIMl1bQ0gyXVtDSDJdW0NASF0oW0NIMl0yKVtDSDJdQyg9TylbTkgyXQ==

> <s_epik_cmdline>
J2VwaWtfcHl0aG9uJywgJy1waCcsICc3LjAnLCAnLXRuJywgJzgnLCAnLW1hJywgJzIwMCcsICctbWV0YWxfYmluZGluZycsICctaW1hZScsICc8aW5maWxlLm1hZT4nLCAnLW9tYWUnLCAnPG91dGZpbGUubWFlPic=

> <r_epik_Ionization_Penalty>
0.056948

> <r_epik_Ionization_Penalty_Charging>
0

> <r_epik_Ionization_Penalty_Neutral>
0.056948

> <r_epik_State_Penalty>
0.0490937

> <r_epik_Charging_Adjusted_Penalty>
0.0490937

> <i_epik_Tot_Q>
0

> <i_epik_Tot_abs_Q>
0

> <r_epik_Metal_State_Penalty>
0.0447689

> <b_epik_Metal_Only>
0

> <s_lp_Force_Field>
OPLS_2005

> <r_lp_Energy>
25.6146

> <b_lp_Chiralities_Consistent>
1

> <s_lp_Variant>
AV-unprocessed.smi:693-1

> <Gold.Version>
5.8.1

> <Gold.Id.Protein>
6NUR|6NUR_protein|mol2

> <Gold.PLP.Fitness>
46.9411

> <Gold.PLP.PLP>
-38.3321

> <Gold.PLP.part.hbond>
-6.0000

> <Gold.PLP.part.metal>
0.0000

> <Gold.PLP.part.buried>
-1.4442

> <Gold.PLP.part.nonpolar>
-40.2592

> <Gold.PLP.part.repulsive>
9.1098

> <Gold.PLP.ligand.clash>
0.0000

> <Gold.PLP.ligand.torsion>
1.1591

> <Gold.PLP.Chemscore.Hbond>
3.6085

> <Gold.PLP.Chemscore.CHOScore>
0.0000

> <Gold.PLP.Chemscore.Metal>
0.0000

> <Gold.Chemscore.Hbonds>
donor molecule, donor type, donor heavy atom, donor atom, acceptor molecule, acceptor atom, score
      L1  H    18    42       P1 10195  1.00
      L1  H    18    43       P1 10952  0.93
      P1  H  7918  7932       L1    19  0.37
      P1  H  7989  7998       L1    22  0.08

> <Gold.PLP.Chemscore.Internal.Correction>
0.1015

> <Gold.Rescore>
     Score         DG    S(hbond)    S(metal)    S(lipo)     H(rot)  DE(clash)    DE(int)     intcor
     14.72     -21.02       3.32        0.00      87.33       2.25       5.22       1.08       ----

> <Gold.Chemscore.Fitness>
14.7236

> <Gold.Chemscore.DG>
-21.0236

> <Gold.Chemscore.ZeroCoef>
-5.4800

> <Gold.Chemscore.Hbond>
3.3200

> <Gold.Chemscore.Metal>
0.0000

> <Gold.Chemscore.Lipo>
87.3311

> <Gold.Chemscore.Internal_Hbond>
0.0000

> <Gold.Chemscore.DEClash>
5.2249

> <Gold.Chemscore.DEInternal>
1.0751

> <Gold.Chemscore.Rot>
2.2512

> <Gold.Chemscore.Internal.Correction>
   9.000000E+99

> <Gold.Chemscore.Hbonds>
donor molecule, donor type, donor heavy atom, donor atom, acceptor molecule, acceptor atom, score
      L1  H    18    42       P1 10195  1.00
      L1  H    18    43       P1 10952  0.89
      P1  H  7918  7932       L1    19  0.36

> <Gold.Chemscore.Hbond.Weighted>
-11.0889

> <Gold.Chemscore.Metal.Weighted>
-0.0000

> <Gold.Chemscore.Lipo.Weighted>
-10.2177

> <Gold.Chemscore.Internal_Hbond.Weighted>
0.0000

> <Gold.Chemscore.DEClash.Weighted>
5.2249

> <Gold.Chemscore.DEInternal.Weighted>
1.0751

> <Gold.Chemscore.Rot.Weighted>
5.7631

> <Gold.Chemscore.Internal.Correction.Weighted>
   9.000000E+99

> <Gold.Protein.RotatedTorsions>
[ 6907 6896 6895 6894 ] final   31.24 input  -60.11 | X-H torsion
[ 7974 7965 7964 7962 ] final  146.29 input  175.53 | X-H torsion
[ 8008 7997 7996 7995 ] final  -42.90 input   59.86 | X-H torsion
[ 10167 10162 10161 10158 ] final  165.75 input  -65.29 | X-H torsion
[ 10718 10713 10712 10709 ] final  -69.80 input   66.30 | X-H torsion
[ 10763 10752 10751 10750 ] final -155.59 input  -60.55 | X-H torsion
[ 11005 11000 10999 10996 ] final  108.65 input  -57.11 | X-H torsion

> <Gold.Protein.ActiveResidues>
 VAL166  LYS551  ARG553  GLY616  TRP617  ASP618  TYR619  PRO620  LYS621  CYS622 
 ASP623  PHE694  ASN695  SER759  ASP760  ASP761  ALA762  ILE779  LEU786  VAL792 
 PHE793  MET794  SER795  GLU796  ALA797  LYS798  CYS799  TRP800  GLU811  SER814 

> <Gold.Protein.RotatedAtoms>
  152.0574  134.9615  160.0574 H   0  0  0  0  0  0  0  0  0  0  0  0  # atno 6907 bound_to 6896
  152.0992  133.4236  159.4587 H   0  0  0  0  0  0  0  0  0  0  0  0  # atno 6908 bound_to 6896
  150.6839  134.2700  159.4627 H   0  0  0  0  0  0  0  0  0  0  0  0  # atno 6909 bound_to 6896
  144.8683  139.5887  143.5899 H   0  0  0  0  0  0  0  0  0  0  0  0  # atno 7974 bound_to 7965
  154.3997  140.1461  156.3431 H   0  0  0  0  0  0  0  0  0  0  0  0  # atno 8008 bound_to 7997
  155.8338  140.3465  155.5568 H   0  0  0  0  0  0  0  0  0  0  0  0  # atno 8009 bound_to 7997
  155.8159  140.0891  157.1867 H   0  0  0  0  0  0  0  0  0  0  0  0  # atno 8010 bound_to 7997
  139.4911  144.4099  151.9311 H   0  0  0  0  0  0  0  0  0  0  0  0  # atno 10167 bound_to 10162
  156.0438  130.4319  150.2201 H   0  0  0  0  0  0  0  0  0  0  0  0  # atno 10718 bound_to 10713
  154.7776  135.3164  154.8059 H   0  0  0  0  0  0  0  0  0  0  0  0  # atno 10763 bound_to 10752
  153.8779  135.6838  153.4773 H   0  0  0  0  0  0  0  0  0  0  0  0  # atno 10764 bound_to 10752
  153.1403  135.4742  154.9422 H   0  0  0  0  0  0  0  0  0  0  0  0  # atno 10765 bound_to 10752
  139.8848  134.9436  156.6005 H   0  0  0  0  0  0  0  0  0  0  0  0  # atno 11005 bound_to 11000
  146.2912  139.7144  142.9160 LP  0  0  0  0  0  0  0  0  0  0  0  0  # atno 17320 bound_to 7965
  145.4179  141.0403  143.2980 LP  0  0  0  0  0  0  0  0  0  0  0  0  # atno 17321 bound_to 7965
  140.3540  144.3054  150.5944 LP  0  0  0  0  0  0  0  0  0  0  0  0  # atno 17342 bound_to 10162
  140.5460  143.2214  151.8006 LP  0  0  0  0  0  0  0  0  0  0  0  0  # atno 17343 bound_to 10162
  157.0293  131.0002  151.3317 LP  0  0  0  0  0  0  0  0  0  0  0  0  # atno 17370 bound_to 10713
  157.5289  130.8045  149.7893 LP  0  0  0  0  0  0  0  0  0  0  0  0  # atno 17371 bound_to 10713
  140.7887  133.8600  155.8628 LP  0  0  0  0  0  0  0  0  0  0  0  0  # atno 17394 bound_to 11000
  140.9696  134.1548  157.4587 LP  0  0  0  0  0  0  0  0  0  0  0  0  # atno 17395 bound_to 11000

$$$$
