AV-unprocessed.smi:1184|AV-procd|sdf|4969|dock2
  -GOLD-   22720 3563D 1   1.00000     0.00000
 Structure written by MMmdl.
 43 44  0  0  0  0  0  0  0  0  2 V2000
  143.7632  142.5390  155.4548 C   0  0  0  0  0  0  0  0  0  0  0  0
  144.6983  141.3417  155.6787 C   0  0  0  0  0  0  0  0  0  0  0  0
  145.6716  141.1797  154.5735 N   0  3  1  0  0  0  0  0  0  0  0  0
  146.4205  142.4100  154.2219 C   0  0  0  0  0  0  0  0  0  0  0  0
  147.8784  141.9919  153.9757 C   0  0  0  0  0  0  0  0  0  0  0  0
  147.8247  140.4707  153.8441 C   0  0  1  0  0  0  0  0  0  0  0  0
  149.1529  139.7498  154.1564 C   0  0  0  0  0  0  0  0  0  0  0  0
  149.7558  140.2555  155.3837 N   0  0  0  0  0  0  0  0  0  0  0  0
  151.0281  140.0567  155.7605 C   0  0  0  0  0  0  0  0  0  0  0  0
  151.8878  139.5712  155.0261 O   0  0  0  0  0  0  0  0  0  0  0  0
  151.3595  140.3980  157.2126 C   0  0  0  0  0  0  0  0  0  0  0  0
  151.1426  139.1673  158.0587 C   0  0  0  0  0  0  0  0  0  0  0  0
  149.9257  138.4604  158.2833 C   0  0  0  0  0  0  0  0  0  0  0  0
  148.5615  138.7479  157.7255 C   0  0  0  0  0  0  0  0  0  0  0  0
  150.0878  137.4512  159.1223 N   0  0  0  0  0  0  0  0  0  0  0  0
  151.4418  137.4566  159.4706 O   0  0  0  0  0  0  0  0  0  0  0  0
  152.0476  138.4854  158.8250 C   0  0  0  0  0  0  0  0  0  0  0  0
  153.5036  138.6753  159.0843 C   0  0  0  0  0  0  0  0  0  0  0  0
  146.6638  140.1050  154.7695 C   0  0  0  0  0  0  0  0  0  0  0  0
  143.1004  142.6752  156.3096 H   0  0  0  0  0  0  0  0  0  0  0  0
  143.1348  142.4021  154.5742 H   0  0  0  0  0  0  0  0  0  0  0  0
  144.3280  143.4625  155.3233 H   0  0  0  0  0  0  0  0  0  0  0  0
  145.2495  141.4957  156.6073 H   0  0  0  0  0  0  0  0  0  0  0  0
  144.1195  140.4256  155.8037 H   0  0  0  0  0  0  0  0  0  0  0  0
  145.9784  142.8458  153.3254 H   0  0  0  0  0  0  0  0  0  0  0  0
  146.3687  143.1589  155.0139 H   0  0  0  0  0  0  0  0  0  0  0  0
  148.3097  142.4721  153.0968 H   0  0  0  0  0  0  0  0  0  0  0  0
  148.4858  142.2727  154.8373 H   0  0  0  0  0  0  0  0  0  0  0  0
  147.5246  140.2344  152.8216 H   0  0  0  0  0  0  0  0  0  0  0  0
  148.9980  138.6721  154.2291 H   0  0  0  0  0  0  0  0  0  0  0  0
  149.8664  139.9093  153.3475 H   0  0  0  0  0  0  0  0  0  0  0  0
  149.1314  140.6833  156.0522 H   0  0  0  0  0  0  0  0  0  0  0  0
  152.3901  140.7494  157.2768 H   0  0  0  0  0  0  0  0  0  0  0  0
  150.7314  141.2287  157.5364 H   0  0  0  0  0  0  0  0  0  0  0  0
  148.0694  139.5379  158.2931 H   0  0  0  0  0  0  0  0  0  0  0  0
  147.9202  137.8663  157.7550 H   0  0  0  0  0  0  0  0  0  0  0  0
  148.6229  139.0749  156.6875 H   0  0  0  0  0  0  0  0  0  0  0  0
  154.0489  138.8077  158.1496 H   0  0  0  0  0  0  0  0  0  0  0  0
  153.9271  137.8138  159.6016 H   0  0  0  0  0  0  0  0  0  0  0  0
  153.6715  139.5576  159.7023 H   0  0  0  0  0  0  0  0  0  0  0  0
  147.0005  140.0926  155.8077 H   0  0  0  0  0  0  0  0  0  0  0  0
  146.2394  139.1280  154.5386 H   0  0  0  0  0  0  0  0  0  0  0  0
  145.1466  140.9325  153.7467 H   0  0  0  0  0  0  0  0  0  0  0  0
  1  2  1  0  0  0  0
  1 20  1  0  0  0  0
  1 21  1  0  0  0  0
  1 22  1  0  0  0  0
  2  3  1  0  0  0  0
  2 23  1  0  0  0  0
  2 24  1  0  0  0  0
  3 19  1  0  0  0  0
  3  4  1  0  0  0  0
  3 43  1  0  0  0  0
  4  5  1  0  0  0  0
  4 25  1  0  0  0  0
  4 26  1  0  0  0  0
  5  6  1  0  0  0  0
  5 27  1  0  0  0  0
  5 28  1  0  0  0  0
  6  7  1  0  0  0  0
  6 19  1  0  0  0  0
  6 29  1  0  0  0  0
  7  8  1  0  0  0  0
  7 30  1  0  0  0  0
  7 31  1  0  0  0  0
  8  9  1  0  0  0  0
  8 32  1  0  0  0  0
  9 10  2  0  0  0  0
  9 11  1  0  0  0  0
 11 12  1  0  0  0  0
 11 33  1  0  0  0  0
 11 34  1  0  0  0  0
 12 17  2  0  0  0  0
 12 13  1  0  0  0  0
 13 14  1  0  0  0  0
 13 15  2  0  0  0  0
 14 35  1  0  0  0  0
 14 36  1  0  0  0  0
 14 37  1  0  0  0  0
 15 16  1  0  0  0  0
 16 17  1  0  0  0  0
 17 18  1  0  0  0  0
 18 38  1  0  0  0  0
 18 39  1  0  0  0  0
 18 40  1  0  0  0  0
 19 41  1  0  0  0  0
 19 42  1  0  0  0  0
M  CHG  1   3   1
M  END
> <s_m_source_file>
AV-unprocessed.smi

> <i_m_source_file_index>
1184

> <i_lp_mmshare_version>
43012

> <i_f3d_flags>
0

> <s_epik_input>
W0NIM11bQ0gyXU4xW0NIMl1bQ0gyXVtDQEhdKFtDSDJdMSlbQ0gyXVtOSF1DKD1PKVtDSDJdYzJjKFtDSDNdKW5vYzJbQ0gzXQ==

> <s_epik_cmdline>
J2VwaWtfcHl0aG9uJywgJy1waCcsICc3LjAnLCAnLXRuJywgJzgnLCAnLW1hJywgJzIwMCcsICctbWV0YWxfYmluZGluZycsICctaW1hZScsICc8aW5maWxlLm1hZT4nLCAnLW9tYWUnLCAnPG91dGZpbGUubWFlPic=

> <r_epik_Ionization_Penalty>
0.000590726

> <r_epik_Ionization_Penalty_Charging>
0.000590692

> <r_epik_Ionization_Penalty_Neutral>
3.44741e-08

> <r_epik_State_Penalty>
0.000371644

> <r_epik_Charging_Adjusted_Penalty>
0.000962336

> <i_epik_Tot_Q>
1

> <i_epik_Tot_abs_Q>
1

> <r_epik_Metal_State_Penalty>
-0

> <b_epik_Metal_Only>
0

> <s_lp_Force_Field>
OPLS_2005

> <r_lp_Energy>
20.0287

> <b_lp_Chiralities_Consistent>
1

> <s_lp_Variant>
AV-unprocessed.smi:1184-1

> <Gold.Version>
5.8.1

> <Gold.Id.Protein>
6NUR|6NUR_protein|mol2

> <Gold.PLP.Fitness>
37.3546

> <Gold.PLP.PLP>
-26.5154

> <Gold.PLP.part.hbond>
-3.0000

> <Gold.PLP.part.metal>
0.0000

> <Gold.PLP.part.buried>
-3.2045

> <Gold.PLP.part.nonpolar>
-20.1429

> <Gold.PLP.part.repulsive>
0.1158

> <Gold.PLP.ligand.clash>
0.0000

> <Gold.PLP.ligand.torsion>
0.5798

> <Gold.PLP.Chemscore.Hbond>
3.9920

> <Gold.PLP.Chemscore.CHOScore>
0.0000

> <Gold.PLP.Chemscore.Metal>
0.0000

> <Gold.Chemscore.Hbonds>
donor molecule, donor type, donor heavy atom, donor atom, acceptor molecule, acceptor atom, score
      L1  H     3    43       P1 10175  2.00
      P1  H  6896  6909       L1    16  0.17
      P1  H  7989  7998       L1    10  0.83

> <Gold.PLP.Chemscore.Internal.Correction>
0.0227

> <Gold.Rescore>
     Score         DG    S(hbond)    S(metal)    S(lipo)     H(rot)  DE(clash)    DE(int)     intcor
     12.98     -13.54       1.96        0.00      49.37       1.67       0.05       0.52       ----

> <Gold.Chemscore.Fitness>
12.9824

> <Gold.Chemscore.DG>
-13.5437

> <Gold.Chemscore.ZeroCoef>
-5.4800

> <Gold.Chemscore.Hbond>
1.9636

> <Gold.Chemscore.Metal>
0.0000

> <Gold.Chemscore.Lipo>
49.3718

> <Gold.Chemscore.Internal_Hbond>
0.0000

> <Gold.Chemscore.DEClash>
0.0456

> <Gold.Chemscore.DEInternal>
0.5157

> <Gold.Chemscore.Rot>
1.6684

> <Gold.Chemscore.Internal.Correction>
   9.000000E+99

> <Gold.Chemscore.Hbonds>
donor molecule, donor type, donor heavy atom, donor atom, acceptor molecule, acceptor atom, score
      L1  H     3    43       P1 10175  0.80
      P1  H  6896  6909       L1    16  0.02
      P1  H  7989  7998       L1    10  0.13

> <Gold.Chemscore.Hbond.Weighted>
-6.5584

> <Gold.Chemscore.Metal.Weighted>
-0.0000

> <Gold.Chemscore.Lipo.Weighted>
-5.7765

> <Gold.Chemscore.Internal_Hbond.Weighted>
0.0000

> <Gold.Chemscore.DEClash.Weighted>
0.0456

> <Gold.Chemscore.DEInternal.Weighted>
0.5157

> <Gold.Chemscore.Rot.Weighted>
4.2712

> <Gold.Chemscore.Internal.Correction.Weighted>
   9.000000E+99

> <Gold.Protein.RotatedTorsions>
[ 6907 6896 6895 6894 ] final  121.33 input  -60.11 | X-H torsion
[ 7974 7965 7964 7962 ] final  -17.97 input  175.53 | X-H torsion
[ 8008 7997 7996 7995 ] final  109.33 input   59.86 | X-H torsion
[ 10167 10162 10161 10158 ] final  -31.17 input  -65.29 | X-H torsion
[ 10718 10713 10712 10709 ] final -107.37 input   66.30 | X-H torsion
[ 10763 10752 10751 10750 ] final -140.53 input  -60.55 | X-H torsion
[ 11005 11000 10999 10996 ] final  -21.86 input  -57.11 | X-H torsion

> <Gold.Protein.ActiveResidues>
 VAL166  LYS551  ARG553  GLY616  TRP617  ASP618  TYR619  PRO620  LYS621  CYS622 
 ASP623  PHE694  ASN695  SER759  ASP760  ASP761  ALA762  ILE779  LEU786  VAL792 
 PHE793  MET794  SER795  GLU796  ALA797  LYS798  CYS799  TRP800  GLU811  SER814 

> <Gold.Protein.RotatedAtoms>
  152.4330  133.7311  159.6587 H   0  0  0  0  0  0  0  0  0  0  0  0  # atno 6907 bound_to 6896
  150.8211  133.8241  159.3145 H   0  0  0  0  0  0  0  0  0  0  0  0  # atno 6908 bound_to 6896
  151.5923  135.1055  160.0093 H   0  0  0  0  0  0  0  0  0  0  0  0  # atno 6909 bound_to 6896
  146.1915  140.3855  142.8456 H   0  0  0  0  0  0  0  0  0  0  0  0  # atno 7974 bound_to 7965
  156.1971  140.3060  155.9449 H   0  0  0  0  0  0  0  0  0  0  0  0  # atno 8008 bound_to 7997
  155.3041  140.0448  157.3048 H   0  0  0  0  0  0  0  0  0  0  0  0  # atno 8009 bound_to 7997
  154.5523  140.2295  155.8474 H   0  0  0  0  0  0  0  0  0  0  0  0  # atno 8010 bound_to 7997
  140.7240  143.3792  151.1633 H   0  0  0  0  0  0  0  0  0  0  0  0  # atno 10167 bound_to 10162
  156.0433  130.5659  150.7811 H   0  0  0  0  0  0  0  0  0  0  0  0  # atno 10718 bound_to 10713
  154.8575  135.3550  154.5722 H   0  0  0  0  0  0  0  0  0  0  0  0  # atno 10763 bound_to 10752
  153.6335  135.7001  153.5272 H   0  0  0  0  0  0  0  0  0  0  0  0  # atno 10764 bound_to 10752
  153.3030  135.4201  155.1229 H   0  0  0  0  0  0  0  0  0  0  0  0  # atno 10765 bound_to 10752
  140.8602  133.7793  156.0066 H   0  0  0  0  0  0  0  0  0  0  0  0  # atno 11005 bound_to 11000
  144.8496  140.6981  143.6177 LP  0  0  0  0  0  0  0  0  0  0  0  0  # atno 17320 bound_to 7965
  145.3778  139.1644  143.4297 LP  0  0  0  0  0  0  0  0  0  0  0  0  # atno 17321 bound_to 7965
  139.7377  143.8973  152.3040 LP  0  0  0  0  0  0  0  0  0  0  0  0  # atno 17342 bound_to 10162
  139.8783  144.7031  150.8907 LP  0  0  0  0  0  0  0  0  0  0  0  0  # atno 17343 bound_to 10162
  157.5278  131.0935  150.9994 LP  0  0  0  0  0  0  0  0  0  0  0  0  # atno 17370 bound_to 10713
  157.0308  130.5710  149.5343 LP  0  0  0  0  0  0  0  0  0  0  0  0  # atno 17371 bound_to 10713
  140.8691  134.2748  157.5199 LP  0  0  0  0  0  0  0  0  0  0  0  0  # atno 17394 bound_to 11000
  139.8706  134.9558  156.4218 LP  0  0  0  0  0  0  0  0  0  0  0  0  # atno 17395 bound_to 11000

$$$$
