AV-unprocessed.smi:2572|AV-procd|sdf|10111|dock2
  -GOLD-   2272014133D 1   1.00000     0.00000
 Structure written by MMmdl.
 38 39  0  0  0  0  0  0  0  0  1 V2000
  147.2006  141.9067  154.0343 C   0  0  0  0  0  0  0  0  0  0  0  0
  148.5864  141.7393  153.7420 O   0  0  0  0  0  0  0  0  0  0  0  0
  149.1891  140.5849  154.2105 C   0  0  0  0  0  0  0  0  0  0  0  0
  148.4966  139.3261  154.0346 C   0  0  0  0  0  0  0  0  0  0  0  0
  149.0715  138.1928  154.4915 C   0  0  0  0  0  0  0  0  0  0  0  0
  150.3735  138.2029  155.1578 C   0  0  0  0  0  0  0  0  0  0  0  0
  150.9164  137.1856  155.5879 O   0  0  0  0  0  0  0  0  0  0  0  0
  150.9301  139.4464  155.2598 N   0  0  0  0  0  0  0  0  0  0  0  0
  152.2285  139.6496  155.9130 C   0  0  0  0  0  0  0  0  0  0  0  0
  152.1589  139.3679  157.4302 C   0  0  1  0  0  0  0  0  0  0  0  0
  153.4427  138.9765  157.8760 O   0  0  0  0  0  0  0  0  0  0  0  0
  151.7454  140.6206  158.2256 C   0  0  0  0  0  0  0  0  0  0  0  0
  152.9021  141.6056  158.4640 C   0  0  0  0  0  0  0  0  0  0  0  0
  152.4090  142.9690  158.9099 C   0  0  0  0  0  0  0  0  0  0  0  0
  152.4440  143.3255  160.2745 C   0  0  0  0  0  0  0  0  0  0  0  0
  151.9881  144.5933  160.6860 C   0  0  0  0  0  0  0  0  0  0  0  0
  151.4987  145.5095  159.7348 C   0  0  0  0  0  0  0  0  0  0  0  0
  151.4650  145.1577  158.3715 C   0  0  0  0  0  0  0  0  0  0  0  0
  151.9183  143.8892  157.9596 C   0  0  0  0  0  0  0  0  0  0  0  0
  150.3453  140.6129  154.7950 N   0  0  0  0  0  0  0  0  0  0  0  0
  146.8592  142.8510  153.6106 H   0  0  0  0  0  0  0  0  0  0  0  0
  147.0133  141.9453  155.1090 H   0  0  0  0  0  0  0  0  0  0  0  0
  146.5940  141.1135  153.5932 H   0  0  0  0  0  0  0  0  0  0  0  0
  147.5344  139.3056  153.5443 H   0  0  0  0  0  0  0  0  0  0  0  0
  148.5572  137.2518  154.3623 H   0  0  0  0  0  0  0  0  0  0  0  0
  153.0262  139.0722  155.4416 H   0  0  0  0  0  0  0  0  0  0  0  0
  152.5124  140.6913  155.7517 H   0  0  0  0  0  0  0  0  0  0  0  0
  151.4477  138.5658  157.6328 H   0  0  0  0  0  0  0  0  0  0  0  0
  153.3976  138.0822  158.1776 H   0  0  0  0  0  0  0  0  0  0  0  0
  150.9207  141.1275  157.7219 H   0  0  0  0  0  0  0  0  0  0  0  0
  151.3605  140.3080  159.1973 H   0  0  0  0  0  0  0  0  0  0  0  0
  153.5778  141.2108  159.2238 H   0  0  0  0  0  0  0  0  0  0  0  0
  153.4961  141.7215  157.5567 H   0  0  0  0  0  0  0  0  0  0  0  0
  152.8210  142.6290  161.0091 H   0  0  0  0  0  0  0  0  0  0  0  0
  152.0144  144.8633  161.7313 H   0  0  0  0  0  0  0  0  0  0  0  0
  151.1496  146.4815  160.0508 H   0  0  0  0  0  0  0  0  0  0  0  0
  151.0915  145.8608  157.6415 H   0  0  0  0  0  0  0  0  0  0  0  0
  151.8907  143.6251  156.9124 H   0  0  0  0  0  0  0  0  0  0  0  0
  1  2  1  0  0  0  0
  1 21  1  0  0  0  0
  1 22  1  0  0  0  0
  1 23  1  0  0  0  0
  2  3  1  0  0  0  0
  3 20  2  0  0  0  0
  3  4  1  0  0  0  0
  4  5  2  0  0  0  0
  4 24  1  0  0  0  0
  5  6  1  0  0  0  0
  5 25  1  0  0  0  0
  6  7  2  0  0  0  0
  6  8  1  0  0  0  0
  8  9  1  0  0  0  0
  8 20  1  0  0  0  0
  9 10  1  0  0  0  0
  9 26  1  0  0  0  0
  9 27  1  0  0  0  0
 10 11  1  0  0  0  0
 10 12  1  0  0  0  0
 10 28  1  0  0  0  0
 11 29  1  0  0  0  0
 12 13  1  0  0  0  0
 12 30  1  0  0  0  0
 12 31  1  0  0  0  0
 13 14  1  0  0  0  0
 13 32  1  0  0  0  0
 13 33  1  0  0  0  0
 14 19  1  0  0  0  0
 14 15  2  0  0  0  0
 15 16  1  0  0  0  0
 15 34  1  0  0  0  0
 16 17  2  0  0  0  0
 16 35  1  0  0  0  0
 17 18  1  0  0  0  0
 17 36  1  0  0  0  0
 18 19  2  0  0  0  0
 18 37  1  0  0  0  0
 19 38  1  0  0  0  0
M  END
> <s_m_source_file>
AV-unprocessed.smi

> <i_m_source_file_index>
2572

> <i_lp_mmshare_version>
43012

> <i_f3d_flags>
0

> <s_epik_input>
W0NIM11PYzFbY0hdW2NIXWMoPU8pbihuMSlbQ0gyXVtDQEhdKFtPSF0pW0NIMl1bQ0gyXWMyW2NIXVtjSF1bY0hdW2NIXVtjSF0y

> <s_epik_cmdline>
J2VwaWtfcHl0aG9uJywgJy1waCcsICc3LjAnLCAnLXRuJywgJzgnLCAnLW1hJywgJzIwMCcsICctbWV0YWxfYmluZGluZycsICctaW1hZScsICc8aW5maWxlLm1hZT4nLCAnLW9tYWUnLCAnPG91dGZpbGUubWFlPic=

> <r_lp_tautomer_probability>
1

> <r_epik_Ionization_Penalty>
8.48543e-06

> <r_epik_Ionization_Penalty_Charging>
6.90219e-06

> <r_epik_Ionization_Penalty_Neutral>
1.58323e-06

> <r_epik_State_Penalty>
-0

> <r_epik_Charging_Adjusted_Penalty>
6.90219e-06

> <i_epik_Tot_Q>
0

> <i_epik_Tot_abs_Q>
0

> <r_epik_Metal_State_Penalty>
-0

> <b_epik_Metal_Only>
0

> <s_lp_Force_Field>
OPLS_2005

> <r_lp_Energy>
30.5458

> <b_lp_Chiralities_Consistent>
1

> <s_lp_Variant>
AV-unprocessed.smi:2572-2

> <Gold.Version>
5.8.1

> <Gold.Id.Protein>
6NUR|6NUR_protein|mol2

> <Gold.PLP.Fitness>
52.2156

> <Gold.PLP.PLP>
-47.0767

> <Gold.PLP.part.hbond>
-3.0000

> <Gold.PLP.part.metal>
0.0000

> <Gold.PLP.part.buried>
-4.1199

> <Gold.PLP.part.nonpolar>
-40.4045

> <Gold.PLP.part.repulsive>
0.3433

> <Gold.PLP.ligand.clash>
0.0786

> <Gold.PLP.ligand.torsion>
1.0947

> <Gold.PLP.Chemscore.Hbond>
2.4560

> <Gold.PLP.Chemscore.CHOScore>
0.0000

> <Gold.PLP.Chemscore.Metal>
0.0000

> <Gold.Chemscore.Hbonds>
donor molecule, donor type, donor heavy atom, donor atom, acceptor molecule, acceptor atom, score
      P1  H  7989  7998       L1    20  0.65
      P1  H  7997  8008       L1    11  1.00
      P1  H  8011  8017       L1     2  0.58

> <Gold.PLP.Chemscore.Internal.Correction>
0.0389

> <Gold.Rescore>
     Score         DG    S(hbond)    S(metal)    S(lipo)     H(rot)  DE(clash)    DE(int)     intcor
     15.51     -16.94       1.39        0.00     113.48       2.52       0.66       0.77       ----

> <Gold.Chemscore.Fitness>
15.5074

> <Gold.Chemscore.DG>
-16.9375

> <Gold.Chemscore.ZeroCoef>
-5.4800

> <Gold.Chemscore.Hbond>
1.3877

> <Gold.Chemscore.Metal>
0.0000

> <Gold.Chemscore.Lipo>
113.4766

> <Gold.Chemscore.Internal_Hbond>
0.0000

> <Gold.Chemscore.DEClash>
0.6564

> <Gold.Chemscore.DEInternal>
0.7737

> <Gold.Chemscore.Rot>
2.5212

> <Gold.Chemscore.Internal.Correction>
   9.000000E+99

> <Gold.Chemscore.Hbonds>
donor molecule, donor type, donor heavy atom, donor atom, acceptor molecule, acceptor atom, score
      P1  H  7989  7998       L1    20  0.04
      P1  H  7997  8008       L1    11  0.84
      P1  H  8011  8017       L1     2  0.31

> <Gold.Chemscore.Hbond.Weighted>
-4.6350

> <Gold.Chemscore.Metal.Weighted>
-0.0000

> <Gold.Chemscore.Lipo.Weighted>
-13.2768

> <Gold.Chemscore.Internal_Hbond.Weighted>
0.0000

> <Gold.Chemscore.DEClash.Weighted>
0.6564

> <Gold.Chemscore.DEInternal.Weighted>
0.7737

> <Gold.Chemscore.Rot.Weighted>
6.4543

> <Gold.Chemscore.Internal.Correction.Weighted>
   9.000000E+99

> <Gold.Protein.RotatedTorsions>
[ 6907 6896 6895 6894 ] final   -3.64 input  -60.11 | X-H torsion
[ 7974 7965 7964 7962 ] final  -92.49 input  175.53 | X-H torsion
[ 8008 7997 7996 7995 ] final -100.17 input   59.86 | X-H torsion
[ 10167 10162 10161 10158 ] final  145.78 input  -65.29 | X-H torsion
[ 10718 10713 10712 10709 ] final   13.37 input   66.30 | X-H torsion
[ 10763 10752 10751 10750 ] final -169.27 input  -60.55 | X-H torsion
[ 11005 11000 10999 10996 ] final  155.11 input  -57.11 | X-H torsion

> <Gold.Protein.ActiveResidues>
 VAL166  LYS551  ARG553  GLY616  TRP617  ASP618  TYR619  PRO620  LYS621  CYS622 
 ASP623  PHE694  ASN695  SER759  ASP760  ASP761  ALA762  ILE779  LEU786  VAL792 
 PHE793  MET794  SER795  GLU796  ALA797  LYS798  CYS799  TRP800  GLU811  SER814 

> <Gold.Protein.RotatedAtoms>
  151.5105  135.1065  159.9852 H   0  0  0  0  0  0  0  0  0  0  0  0  # atno 6907 bound_to 6896
  152.4663  133.7927  159.6921 H   0  0  0  0  0  0  0  0  0  0  0  0  # atno 6908 bound_to 6896
  150.8649  133.7525  159.3005 H   0  0  0  0  0  0  0  0  0  0  0  0  # atno 6909 bound_to 6896
  145.3991  140.9535  143.2297 H   0  0  0  0  0  0  0  0  0  0  0  0  # atno 7974 bound_to 7965
  154.8250  140.0442  157.1437 H   0  0  0  0  0  0  0  0  0  0  0  0  # atno 8008 bound_to 7997
  154.9217  140.3028  155.5193 H   0  0  0  0  0  0  0  0  0  0  0  0  # atno 8009 bound_to 7997
  156.2983  140.2339  156.4268 H   0  0  0  0  0  0  0  0  0  0  0  0  # atno 8010 bound_to 7997
  139.4919  144.5877  151.6744 H   0  0  0  0  0  0  0  0  0  0  0  0  # atno 10167 bound_to 10162
  157.0237  130.6165  149.5725 H   0  0  0  0  0  0  0  0  0  0  0  0  # atno 10718 bound_to 10713
  154.6540  135.2915  154.9951 H   0  0  0  0  0  0  0  0  0  0  0  0  # atno 10763 bound_to 10752
  154.1034  135.6573  153.4876 H   0  0  0  0  0  0  0  0  0  0  0  0  # atno 10764 bound_to 10752
  153.0392  135.5248  154.7461 H   0  0  0  0  0  0  0  0  0  0  0  0  # atno 10765 bound_to 10752
  140.1551  134.8648  157.2504 H   0  0  0  0  0  0  0  0  0  0  0  0  # atno 11005 bound_to 11000
  144.8386  139.5509  143.6910 LP  0  0  0  0  0  0  0  0  0  0  0  0  # atno 17320 bound_to 7965
  146.2760  139.6755  142.9262 LP  0  0  0  0  0  0  0  0  0  0  0  0  # atno 17321 bound_to 7965
  140.5497  144.0446  150.6122 LP  0  0  0  0  0  0  0  0  0  0  0  0  # atno 17342 bound_to 10162
  140.3495  143.2971  152.0502 LP  0  0  0  0  0  0  0  0  0  0  0  0  # atno 17343 bound_to 10162
  156.0093  130.5183  150.7937 LP  0  0  0  0  0  0  0  0  0  0  0  0  # atno 17370 bound_to 10713
  157.5230  131.0932  151.0053 LP  0  0  0  0  0  0  0  0  0  0  0  0  # atno 17371 bound_to 10713
  140.2557  134.3630  155.7425 LP  0  0  0  0  0  0  0  0  0  0  0  0  # atno 17394 bound_to 11000
  141.2203  133.7341  156.9004 LP  0  0  0  0  0  0  0  0  0  0  0  0  # atno 17395 bound_to 11000

$$$$
