AV-unprocessed.smi:235|AV-procd|sdf|1801|dock9
  -GOLD-   2262020373D 1   1.00000     0.00000
 Structure written by MMmdl.
 54 58  0  0  0  0  0  0  0  0  1 V2000
  151.0634  140.7720  157.3715 O   0  0  0  0  0  0  0  0  0  0  0  0
  150.4847  141.6551  156.7374 C   0  0  0  0  0  0  0  0  0  0  0  0
  150.3146  142.9035  157.1957 N   0  0  0  0  0  0  0  0  0  0  0  0
  150.7766  143.3977  158.4517 C   0  0  0  0  0  0  0  0  0  0  0  0
  151.7517  144.5550  158.4346 C   0  0  0  0  0  0  0  0  0  0  0  0
  152.2334  143.1775  158.7984 C   0  0  0  0  0  0  0  0  0  0  0  0
  149.8930  141.3636  155.3508 C   0  0  2  0  0  0  0  0  0  0  0  0
  148.8024  142.3711  154.9661 C   0  0  0  0  0  0  0  0  0  0  0  0
  147.9837  141.6065  153.9333 C   0  0  0  0  0  0  0  0  0  0  0  0
  148.0197  140.1704  154.4566 C   0  0  0  0  0  0  0  0  0  0  0  0
  149.2114  140.0684  155.2943 N   0  0  0  0  0  0  0  0  0  0  0  0
  150.0006  138.9974  155.0576 C   0  0  0  0  0  0  0  0  0  0  0  0
  151.2733  139.2401  154.6602 N   0  0  0  0  0  0  0  0  0  0  0  0
  152.0995  138.2201  154.4085 C   0  0  0  0  0  0  0  0  0  0  0  0
  151.8584  136.9092  154.4901 N   0  0  0  0  0  0  0  0  0  0  0  0
  150.5777  136.6653  154.8910 C   0  0  0  0  0  0  0  0  0  0  0  0
  149.5893  137.6419  155.1956 C   0  0  0  0  0  0  0  0  0  0  0  0
  148.4048  137.0191  155.5719 N   0  0  0  0  0  0  0  0  0  0  0  0
  148.6771  135.7451  155.4903 C   0  0  0  0  0  0  0  0  0  0  0  0
  149.9603  135.4446  155.0916 N   0  0  0  0  0  0  0  0  0  0  0  0
  150.5337  134.1219  154.9242 C   0  0  0  0  0  0  0  0  0  0  0  0
  150.4455  133.2709  156.2068 C   0  0  2  0  0  0  0  0  0  0  0  0
  151.5977  133.4992  156.9932 O   0  0  0  0  0  0  0  0  0  0  0  0
  150.2508  131.7578  155.9590 C   0  0  2  0  0  0  0  0  0  0  0  0
  151.4751  130.9974  155.4201 C   0  0  0  0  0  0  0  0  0  0  0  0
  150.9779  130.3917  154.1195 C   0  0  0  0  0  0  0  0  0  0  0  0
  149.4712  130.3290  154.3329 C   0  0  0  0  0  0  0  0  0  0  0  0
  149.1985  131.5358  155.0245 O   0  0  0  0  0  0  0  0  0  0  0  0
  149.8201  143.5572  156.6060 H   0  0  0  0  0  0  0  0  0  0  0  0
  150.0775  143.3743  159.2868 H   0  0  0  0  0  0  0  0  0  0  0  0
  152.0538  144.9528  157.4676 H   0  0  0  0  0  0  0  0  0  0  0  0
  151.6746  145.2877  159.2354 H   0  0  0  0  0  0  0  0  0  0  0  0
  152.4766  142.9894  159.8422 H   0  0  0  0  0  0  0  0  0  0  0  0
  152.8559  142.6550  158.0743 H   0  0  0  0  0  0  0  0  0  0  0  0
  150.6888  141.4015  154.6045 H   0  0  0  0  0  0  0  0  0  0  0  0
  148.1739  142.6180  155.8240 H   0  0  0  0  0  0  0  0  0  0  0  0
  149.2104  143.3008  154.5684 H   0  0  0  0  0  0  0  0  0  0  0  0
  146.9705  141.9925  153.8178 H   0  0  0  0  0  0  0  0  0  0  0  0
  148.4784  141.6579  152.9624 H   0  0  0  0  0  0  0  0  0  0  0  0
  147.1517  139.9787  155.0880 H   0  0  0  0  0  0  0  0  0  0  0  0
  147.9926  139.4479  153.6391 H   0  0  0  0  0  0  0  0  0  0  0  0
  153.0968  138.4934  154.0966 H   0  0  0  0  0  0  0  0  0  0  0  0
  147.9475  134.9844  155.7277 H   0  0  0  0  0  0  0  0  0  0  0  0
  150.0174  133.6253  154.1014 H   0  0  0  0  0  0  0  0  0  0  0  0
  151.5737  134.2352  154.6150 H   0  0  0  0  0  0  0  0  0  0  0  0
  149.5978  133.6239  156.7952 H   0  0  0  0  0  0  0  0  0  0  0  0
  152.3546  133.4659  156.4284 H   0  0  0  0  0  0  0  0  0  0  0  0
  149.9496  131.2808  156.8931 H   0  0  0  0  0  0  0  0  0  0  0  0
  152.3523  131.6261  155.2664 H   0  0  0  0  0  0  0  0  0  0  0  0
  151.7580  130.2097  156.1195 H   0  0  0  0  0  0  0  0  0  0  0  0
  151.2042  131.0611  153.2885 H   0  0  0  0  0  0  0  0  0  0  0  0
  151.4194  129.4187  153.9030 H   0  0  0  0  0  0  0  0  0  0  0  0
  148.9134  130.2653  153.3984 H   0  0  0  0  0  0  0  0  0  0  0  0
  149.1997  129.4779  154.9592 H   0  0  0  0  0  0  0  0  0  0  0  0
  1  2  2  0  0  0  0
  2  3  1  0  0  0  0
  2  7  1  0  0  0  0
  3  4  1  0  0  0  0
  3 29  1  0  0  0  0
  4  6  1  0  0  0  0
  4  5  1  0  0  0  0
  4 30  1  0  0  0  0
  5  6  1  0  0  0  0
  5 31  1  0  0  0  0
  5 32  1  0  0  0  0
  6 33  1  0  0  0  0
  6 34  1  0  0  0  0
  7 11  1  0  0  0  0
  7  8  1  0  0  0  0
  7 35  1  0  0  0  0
  8  9  1  0  0  0  0
  8 36  1  0  0  0  0
  8 37  1  0  0  0  0
  9 10  1  0  0  0  0
  9 38  1  0  0  0  0
  9 39  1  0  0  0  0
 10 11  1  0  0  0  0
 10 40  1  0  0  0  0
 10 41  1  0  0  0  0
 11 12  1  0  0  0  0
 12 17  1  0  0  0  0
 12 13  2  0  0  0  0
 13 14  1  0  0  0  0
 14 15  2  0  0  0  0
 14 42  1  0  0  0  0
 15 16  1  0  0  0  0
 16 20  1  0  0  0  0
 16 17  2  0  0  0  0
 17 18  1  0  0  0  0
 18 19  2  0  0  0  0
 19 20  1  0  0  0  0
 19 43  1  0  0  0  0
 20 21  1  0  0  0  0
 21 22  1  0  0  0  0
 21 44  1  0  0  0  0
 21 45  1  0  0  0  0
 22 23  1  0  0  0  0
 22 24  1  0  0  0  0
 22 46  1  0  0  0  0
 23 47  1  0  0  0  0
 24 28  1  0  0  0  0
 24 25  1  0  0  0  0
 24 48  1  0  0  0  0
 25 26  1  0  0  0  0
 25 49  1  0  0  0  0
 25 50  1  0  0  0  0
 26 27  1  0  0  0  0
 26 51  1  0  0  0  0
 26 52  1  0  0  0  0
 27 28  1  0  0  0  0
 27 53  1  0  0  0  0
 27 54  1  0  0  0  0
M  END
> <s_m_source_file>
AV-unprocessed.smi

> <i_m_source_file_index>
235

> <i_lp_mmshare_version>
43012

> <i_f3d_flags>
0

> <s_epik_input>
W0NIMl0xW0NIMl1bQ0hdMVtOSF1DKD1PKVtDQEBIXTJbQ0gyXVtDSDJdW0NIMl1OMmMobltjSF1uMyljKGMzNCluW2NIXW40W0NIMl1bQ0BIXShbT0hdKVtDQEBIXTVbQ0gyXVtDSDJdW0NIMl1PNQ==

> <s_epik_cmdline>
J2VwaWtfcHl0aG9uJywgJy1waCcsICc3LjAnLCAnLXRuJywgJzgnLCAnLW1hJywgJzIwMCcsICctbWV0YWxfYmluZGluZycsICctaW1hZScsICc8aW5maWxlLm1hZT4nLCAnLW9tYWUnLCAnPG91dGZpbGUubWFlPic=

> <r_lp_tautomer_probability>
1

> <r_epik_Ionization_Penalty>
0.000526714

> <r_epik_Ionization_Penalty_Charging>
0

> <r_epik_Ionization_Penalty_Neutral>
0.000526714

> <r_epik_State_Penalty>
0.000272704

> <r_epik_Charging_Adjusted_Penalty>
0.000272704

> <i_epik_Tot_Q>
0

> <i_epik_Tot_abs_Q>
0

> <r_epik_Metal_State_Penalty>
-0

> <b_epik_Metal_Only>
0

> <s_lp_Force_Field>
OPLS_2005

> <r_lp_Energy>
63.4887

> <b_lp_Chiralities_Consistent>
1

> <s_lp_Variant>
AV-unprocessed.smi:235-1

> <Gold.Version>
5.8.1

> <Gold.Id.Protein>
6NUR|6NUR_protein|mol2

> <Gold.PLP.Fitness>
52.4546

> <Gold.PLP.PLP>
-44.1797

> <Gold.PLP.part.hbond>
-4.0000

> <Gold.PLP.part.metal>
0.0000

> <Gold.PLP.part.buried>
-2.0964

> <Gold.PLP.part.nonpolar>
-37.7868

> <Gold.PLP.part.repulsive>
0.3773

> <Gold.PLP.ligand.clash>
0.1426

> <Gold.PLP.ligand.torsion>
1.2063

> <Gold.PLP.Chemscore.Hbond>
3.5272

> <Gold.PLP.Chemscore.CHOScore>
0.0000

> <Gold.PLP.Chemscore.Metal>
0.0000

> <Gold.Chemscore.Hbonds>
donor molecule, donor type, donor heavy atom, donor atom, acceptor molecule, acceptor atom, score
      L1  H     3    29       P1  8028  1.00
      P1  H  6896  6907       L1    23  0.31
      P1  H  7989  7998       L1    13  1.00
      P1  H 10752 10763       L1    15  1.00

> <Gold.PLP.Chemscore.Internal.Correction>
0.2484

> <Gold.Rescore>
     Score         DG    S(hbond)    S(metal)    S(lipo)     H(rot)  DE(clash)    DE(int)     intcor
     16.78     -20.56       3.36        0.00      98.51       3.00       1.83       1.95       ----

> <Gold.Chemscore.Fitness>
16.7767

> <Gold.Chemscore.DG>
-20.5559

> <Gold.Chemscore.ZeroCoef>
-5.4800

> <Gold.Chemscore.Hbond>
3.3616

> <Gold.Chemscore.Metal>
0.0000

> <Gold.Chemscore.Lipo>
98.5080

> <Gold.Chemscore.Internal_Hbond>
0.0000

> <Gold.Chemscore.DEClash>
1.8261

> <Gold.Chemscore.DEInternal>
1.9532

> <Gold.Chemscore.Rot>
2.9989

> <Gold.Chemscore.Internal.Correction>
   9.000000E+99

> <Gold.Chemscore.Hbonds>
donor molecule, donor type, donor heavy atom, donor atom, acceptor molecule, acceptor atom, score
      L1  H     3    29       P1  8028  1.00
      P1  H  6896  6907       L1    23  0.29
      P1  H  7989  7998       L1    13  0.74
      P1  H 10752 10763       L1    15  0.95

> <Gold.Chemscore.Hbond.Weighted>
-11.2277

> <Gold.Chemscore.Metal.Weighted>
-0.0000

> <Gold.Chemscore.Lipo.Weighted>
-11.5254

> <Gold.Chemscore.Internal_Hbond.Weighted>
0.0000

> <Gold.Chemscore.DEClash.Weighted>
1.8261

> <Gold.Chemscore.DEInternal.Weighted>
1.9532

> <Gold.Chemscore.Rot.Weighted>
7.6772

> <Gold.Chemscore.Internal.Correction.Weighted>
   9.000000E+99

> <Gold.Protein.RotatedTorsions>
[ 6907 6896 6895 6894 ] final -162.09 input  -60.11 | X-H torsion
[ 7974 7965 7964 7962 ] final -104.61 input  175.53 | X-H torsion
[ 8008 7997 7996 7995 ] final -107.12 input   59.86 | X-H torsion
[ 10167 10162 10161 10158 ] final   49.63 input  -65.29 | X-H torsion
[ 10718 10713 10712 10709 ] final   15.48 input   66.30 | X-H torsion
[ 10763 10752 10751 10750 ] final   48.08 input  -60.55 | X-H torsion
[ 11005 11000 10999 10996 ] final  177.21 input  -57.11 | X-H torsion

> <Gold.Protein.ActiveResidues>
 VAL166  LYS551  ARG553  GLY616  TRP617  ASP618  TYR619  PRO620  LYS621  CYS622 
 ASP623  PHE694  ASN695  SER759  ASP760  ASP761  ALA762  ILE779  LEU786  VAL792 
 PHE793  MET794  SER795  GLU796  ALA797  LYS798  CYS799  TRP800  GLU811  SER814 

> <Gold.Protein.RotatedAtoms>
  151.3748  133.3842  159.2703 H   0  0  0  0  0  0  0  0  0  0  0  0  # atno 6907 bound_to 6896
  150.9623  134.9010  159.7748 H   0  0  0  0  0  0  0  0  0  0  0  0  # atno 6908 bound_to 6896
  152.5154  134.3708  159.9369 H   0  0  0  0  0  0  0  0  0  0  0  0  # atno 6909 bound_to 6896
  145.2409  140.9205  143.3150 H   0  0  0  0  0  0  0  0  0  0  0  0  # atno 7974 bound_to 7965
  154.9246  140.0406  157.2016 H   0  0  0  0  0  0  0  0  0  0  0  0  # atno 8008 bound_to 7997
  154.8220  140.2885  155.5758 H   0  0  0  0  0  0  0  0  0  0  0  0  # atno 8009 bound_to 7997
  156.2980  140.2517  156.3129 H   0  0  0  0  0  0  0  0  0  0  0  0  # atno 8010 bound_to 7997
  140.2809  144.3157  150.6264 H   0  0  0  0  0  0  0  0  0  0  0  0  # atno 10167 bound_to 10162
  157.0541  130.6282  149.5773 H   0  0  0  0  0  0  0  0  0  0  0  0  # atno 10718 bound_to 10713
  152.9794  135.5956  154.3867 H   0  0  0  0  0  0  0  0  0  0  0  0  # atno 10763 bound_to 10752
  154.3526  135.2767  155.2365 H   0  0  0  0  0  0  0  0  0  0  0  0  # atno 10764 bound_to 10752
  154.4398  135.6016  153.6177 H   0  0  0  0  0  0  0  0  0  0  0  0  # atno 10765 bound_to 10752
  140.3816  134.6941  157.4454 H   0  0  0  0  0  0  0  0  0  0  0  0  # atno 11005 bound_to 11000
  144.9590  139.4001  143.6365 LP  0  0  0  0  0  0  0  0  0  0  0  0  # atno 17320 bound_to 7965
  146.3328  139.8633  142.8852 LP  0  0  0  0  0  0  0  0  0  0  0  0  # atno 17321 bound_to 7965
  140.5812  143.2172  151.7424 LP  0  0  0  0  0  0  0  0  0  0  0  0  # atno 17342 bound_to 10162
  139.4963  144.4077  152.0114 LP  0  0  0  0  0  0  0  0  0  0  0  0  # atno 17343 bound_to 10162
  155.9998  130.5075  150.7621 LP  0  0  0  0  0  0  0  0  0  0  0  0  # atno 17370 bound_to 10713
  157.5007  131.0918  151.0318 LP  0  0  0  0  0  0  0  0  0  0  0  0  # atno 17371 bound_to 10713
  140.0474  134.6180  155.8904 LP  0  0  0  0  0  0  0  0  0  0  0  0  # atno 17394 bound_to 11000
  141.1921  133.6574  156.5488 LP  0  0  0  0  0  0  0  0  0  0  0  0  # atno 17395 bound_to 11000

$$$$
