AV-unprocessed.smi:2521|AV-procd|sdf|9917|dock9
  -GOLD-   2272013553D 1   1.00000     0.00000
 Structure written by MMmdl.
 35 36  0  0  0  0  0  0  0  0  2 V2000
  152.0331  145.1212  159.0383 C   0  0  0  0  0  0  0  0  0  0  0  0
  151.7946  143.9192  159.9640 C   0  0  0  0  0  0  0  0  0  0  0  0
  152.4000  144.1058  161.3628 C   0  0  0  0  0  0  0  0  0  0  0  0
  152.2161  142.6282  159.3342 C   0  0  0  0  0  0  0  0  0  0  0  0
  152.9767  141.7252  159.9570 N   0  0  0  0  0  0  0  0  0  0  0  0
  153.2230  140.6145  159.1655 N   0  0  0  0  0  0  0  0  0  0  0  0
  152.6511  140.6809  157.9488 C   0  0  0  0  0  0  0  0  0  0  0  0
  152.7207  139.7430  156.9773 N   0  5  0  0  0  0  0  0  0  0  0  0
  151.9299  139.6909  155.8748 C   0  0  0  0  0  0  0  0  0  0  0  0
  152.1125  140.2508  154.7920 O   0  0  0  0  0  0  0  0  0  0  0  0
  150.8409  138.9286  156.0426 N   0  0  0  0  0  0  0  0  0  0  0  0
  149.8175  138.6896  155.0323 C   0  0  0  0  0  0  0  0  0  0  0  0
  148.8381  139.8716  154.9503 C   0  0  2  0  0  0  0  0  0  0  0  0
  147.8242  139.7778  153.8270 C   0  0  0  0  0  0  0  0  0  0  0  0
  147.3633  141.2265  153.6964 C   0  0  0  0  0  0  0  0  0  0  0  0
  148.4776  142.0288  154.0784 O   0  0  0  0  0  0  0  0  0  0  0  0
  149.5035  141.2097  154.6316 C   0  0  0  0  0  0  0  0  0  0  0  0
  151.7453  142.1741  157.7055 S   0  0  0  0  0  0  0  0  0  0  0  0
  151.5167  144.9908  158.0869 H   0  0  0  0  0  0  0  0  0  0  0  0
  153.0945  145.2545  158.8262 H   0  0  0  0  0  0  0  0  0  0  0  0
  151.6665  146.0432  159.4899 H   0  0  0  0  0  0  0  0  0  0  0  0
  150.7152  143.8523  160.1051 H   0  0  0  0  0  0  0  0  0  0  0  0
  152.1380  143.2734  162.0166 H   0  0  0  0  0  0  0  0  0  0  0  0
  152.0348  145.0208  161.8300 H   0  0  0  0  0  0  0  0  0  0  0  0
  153.4879  144.1663  161.3198 H   0  0  0  0  0  0  0  0  0  0  0  0
  150.7160  138.4819  156.9392 H   0  0  0  0  0  0  0  0  0  0  0  0
  150.2981  138.5392  154.0645 H   0  0  0  0  0  0  0  0  0  0  0  0
  149.2813  137.7696  155.2710 H   0  0  0  0  0  0  0  0  0  0  0  0
  148.3036  139.9675  155.8972 H   0  0  0  0  0  0  0  0  0  0  0  0
  148.3076  139.4544  152.9039 H   0  0  0  0  0  0  0  0  0  0  0  0
  147.0053  139.0907  154.0421 H   0  0  0  0  0  0  0  0  0  0  0  0
  147.0272  141.4655  152.6872 H   0  0  0  0  0  0  0  0  0  0  0  0
  146.5407  141.4275  154.3837 H   0  0  0  0  0  0  0  0  0  0  0  0
  149.9517  141.6727  155.5109 H   0  0  0  0  0  0  0  0  0  0  0  0
  150.2849  141.0850  153.8807 H   0  0  0  0  0  0  0  0  0  0  0  0
  1  2  1  0  0  0  0
  1 19  1  0  0  0  0
  1 20  1  0  0  0  0
  1 21  1  0  0  0  0
  2  3  1  0  0  0  0
  2  4  1  0  0  0  0
  2 22  1  0  0  0  0
  3 23  1  0  0  0  0
  3 24  1  0  0  0  0
  3 25  1  0  0  0  0
  4 18  1  0  0  0  0
  4  5  2  0  0  0  0
  5  6  1  0  0  0  0
  6  7  2  0  0  0  0
  7  8  1  0  0  0  0
  7 18  1  0  0  0  0
  8  9  1  0  0  0  0
  9 10  2  0  0  0  0
  9 11  1  0  0  0  0
 11 12  1  0  0  0  0
 11 26  1  0  0  0  0
 12 13  1  0  0  0  0
 12 27  1  0  0  0  0
 12 28  1  0  0  0  0
 13 17  1  0  0  0  0
 13 14  1  0  0  0  0
 13 29  1  0  0  0  0
 14 15  1  0  0  0  0
 14 30  1  0  0  0  0
 14 31  1  0  0  0  0
 15 16  1  0  0  0  0
 15 32  1  0  0  0  0
 15 33  1  0  0  0  0
 16 17  1  0  0  0  0
 17 34  1  0  0  0  0
 17 35  1  0  0  0  0
M  CHG  1   8  -1
M  END
> <s_m_source_file>
AV-unprocessed.smi

> <i_m_source_file_index>
2521

> <i_lp_mmshare_version>
43012

> <i_f3d_flags>
0

> <s_epik_input>
W0NIM11bQ0hdKFtDSDNdKWMxbm5jKHMxKVtOSF1DKD1PKVtOSF1bQ0gyXVtDQEBIXTJbQ0gyXVtDSDJdT1tDSDJdMg==

> <s_epik_cmdline>
J2VwaWtfcHl0aG9uJywgJy1waCcsICc3LjAnLCAnLXRuJywgJzgnLCAnLW1hJywgJzIwMCcsICctbWV0YWxfYmluZGluZycsICctaW1hZScsICc8aW5maWxlLm1hZT4nLCAnLW9tYWUnLCAnPG91dGZpbGUubWFlPic=

> <r_lp_tautomer_probability>
1

> <r_epik_Ionization_Penalty>
4.4451

> <r_epik_Ionization_Penalty_Charging>
4.28522

> <r_epik_Ionization_Penalty_Neutral>
0.159875

> <r_epik_State_Penalty>
4.28479

> <r_epik_Charging_Adjusted_Penalty>
8.57002

> <i_epik_Tot_Q>
-1

> <i_epik_Tot_abs_Q>
1

> <r_epik_Metal_State_Penalty>
0.721771

> <b_epik_Metal_Only>
1

> <s_lp_Force_Field>
OPLS_2005

> <r_lp_Energy>
14.6033

> <b_lp_Chiralities_Consistent>
1

> <s_lp_Variant>
AV-unprocessed.smi:2521-3

> <Gold.Version>
5.8.1

> <Gold.Id.Protein>
6NUR|6NUR_protein|mol2

> <Gold.PLP.Fitness>
42.2170

> <Gold.PLP.PLP>
-35.6617

> <Gold.PLP.part.hbond>
-2.8040

> <Gold.PLP.part.metal>
0.0000

> <Gold.PLP.part.buried>
-4.2298

> <Gold.PLP.part.nonpolar>
-28.1359

> <Gold.PLP.part.repulsive>
0.3408

> <Gold.PLP.ligand.clash>
0.0000

> <Gold.PLP.ligand.torsion>
1.0795

> <Gold.PLP.Chemscore.Hbond>
2.8756

> <Gold.PLP.Chemscore.CHOScore>
0.0000

> <Gold.PLP.Chemscore.Metal>
0.0000

> <Gold.Chemscore.Hbonds>
donor molecule, donor type, donor heavy atom, donor atom, acceptor molecule, acceptor atom, score
      P1  H  7989  7998       L1    10  0.63
      P1  H  7997  8008       L1     8  1.90
      P1  H  8011  8017       L1    16  0.10

> <Gold.PLP.Chemscore.Internal.Correction>
0.0875

> <Gold.Rescore>
     Score         DG    S(hbond)    S(metal)    S(lipo)     H(rot)  DE(clash)    DE(int)     intcor
     12.51     -15.00       0.85        0.00      88.16       1.42       0.11       2.39       ----

> <Gold.Chemscore.Fitness>
12.5056

> <Gold.Chemscore.DG>
-15.0038

> <Gold.Chemscore.ZeroCoef>
-5.4800

> <Gold.Chemscore.Hbond>
0.8512

> <Gold.Chemscore.Metal>
0.0000

> <Gold.Chemscore.Lipo>
88.1553

> <Gold.Chemscore.Internal_Hbond>
0.0000

> <Gold.Chemscore.DEClash>
0.1067

> <Gold.Chemscore.DEInternal>
2.3915

> <Gold.Chemscore.Rot>
1.4193

> <Gold.Chemscore.Internal.Correction>
   9.000000E+99

> <Gold.Chemscore.Hbonds>
donor molecule, donor type, donor heavy atom, donor atom, acceptor molecule, acceptor atom, score
      P1  H  7989  7998       L1    10  0.61
      P1  H  7997  8008       L1     8  0.09

> <Gold.Chemscore.Hbond.Weighted>
-2.8430

> <Gold.Chemscore.Metal.Weighted>
-0.0000

> <Gold.Chemscore.Lipo.Weighted>
-10.3142

> <Gold.Chemscore.Internal_Hbond.Weighted>
0.0000

> <Gold.Chemscore.DEClash.Weighted>
0.1067

> <Gold.Chemscore.DEInternal.Weighted>
2.3915

> <Gold.Chemscore.Rot.Weighted>
3.6333

> <Gold.Chemscore.Internal.Correction.Weighted>
   9.000000E+99

> <Gold.Protein.RotatedTorsions>
[ 6907 6896 6895 6894 ] final -120.72 input  -60.11 | X-H torsion
[ 7974 7965 7964 7962 ] final  -18.19 input  175.53 | X-H torsion
[ 8008 7997 7996 7995 ] final  -41.37 input   59.86 | X-H torsion
[ 10167 10162 10161 10158 ] final  -93.87 input  -65.29 | X-H torsion
[ 10718 10713 10712 10709 ] final  -88.52 input   66.30 | X-H torsion
[ 10763 10752 10751 10750 ] final   -9.57 input  -60.55 | X-H torsion
[ 11005 11000 10999 10996 ] final  -48.02 input  -57.11 | X-H torsion

> <Gold.Protein.ActiveResidues>
 VAL166  LYS551  ARG553  GLY616  TRP617  ASP618  TYR619  PRO620  LYS621  CYS622 
 ASP623  PHE694  ASN695  SER759  ASP760  ASP761  ALA762  ILE779  LEU786  VAL792 
 PHE793  MET794  SER795  GLU796  ALA797  LYS798  CYS799  TRP800  GLU811  SER814 

> <Gold.Protein.RotatedAtoms>
  150.8418  133.7923  159.3057 H   0  0  0  0  0  0  0  0  0  0  0  0  # atno 6907 bound_to 6896
  151.5622  135.1063  159.9985 H   0  0  0  0  0  0  0  0  0  0  0  0  # atno 6908 bound_to 6896
  152.4480  133.7532  159.6762 H   0  0  0  0  0  0  0  0  0  0  0  0  # atno 6909 bound_to 6896
  146.1904  140.3886  142.8460 H   0  0  0  0  0  0  0  0  0  0  0  0  # atno 7974 bound_to 7965
  154.4004  140.1501  156.3180 H   0  0  0  0  0  0  0  0  0  0  0  0  # atno 8008 bound_to 7997
  155.8556  140.3456  155.5700 H   0  0  0  0  0  0  0  0  0  0  0  0  # atno 8009 bound_to 7997
  155.7937  140.0860  157.1986 H   0  0  0  0  0  0  0  0  0  0  0  0  # atno 8010 bound_to 7997
  140.3202  143.3053  152.0054 H   0  0  0  0  0  0  0  0  0  0  0  0  # atno 10167 bound_to 10162
  155.9983  130.4839  150.5032 H   0  0  0  0  0  0  0  0  0  0  0  0  # atno 10718 bound_to 10713
  153.4566  135.7015  153.6076 H   0  0  0  0  0  0  0  0  0  0  0  0  # atno 10763 bound_to 10752
  153.4388  135.3785  155.2215 H   0  0  0  0  0  0  0  0  0  0  0  0  # atno 10764 bound_to 10752
  154.8728  135.3969  154.3986 H   0  0  0  0  0  0  0  0  0  0  0  0  # atno 10765 bound_to 10752
  141.0676  133.6689  156.3381 H   0  0  0  0  0  0  0  0  0  0  0  0  # atno 11005 bound_to 11000
  144.8476  140.6953  143.6189 LP  0  0  0  0  0  0  0  0  0  0  0  0  # atno 17320 bound_to 7965
  145.3810  139.1637  143.4281 LP  0  0  0  0  0  0  0  0  0  0  0  0  # atno 17321 bound_to 7965
  139.4876  144.6317  151.7057 LP  0  0  0  0  0  0  0  0  0  0  0  0  # atno 17342 bound_to 10162
  140.5490  144.0456  150.6119 LP  0  0  0  0  0  0  0  0  0  0  0  0  # atno 17343 bound_to 10162
  157.3014  131.0646  151.2066 LP  0  0  0  0  0  0  0  0  0  0  0  0  # atno 17370 bound_to 10713
  157.3044  130.6858  149.6181 LP  0  0  0  0  0  0  0  0  0  0  0  0  # atno 17371 bound_to 10713
  140.5741  134.5810  157.5464 LP  0  0  0  0  0  0  0  0  0  0  0  0  # atno 17394 bound_to 11000
  139.9491  134.7649  156.0491 LP  0  0  0  0  0  0  0  0  0  0  0  0  # atno 17395 bound_to 11000

$$$$
