AV-unprocessed.smi:1940|AV-procd|sdf|7838|dock3
  -GOLD-   22720 9583D 1   1.00000     0.00000
 Structure written by MMmdl.
 49 51  0  0  0  0  0  0  0  0  1 V2000
  150.0698  132.4939  154.6683 C   0  0  0  0  0  0  0  0  0  0  0  0
  148.8167  133.2720  154.2408 C   0  0  1  0  0  0  0  0  0  0  0  0
  149.1554  134.6900  154.1243 N   0  0  0  0  0  0  0  0  0  0  0  0
  149.6694  135.4584  155.0958 C   0  0  0  0  0  0  0  0  0  0  0  0
  149.9194  135.0483  156.2287 O   0  0  0  0  0  0  0  0  0  0  0  0
  149.8802  136.7118  154.6583 N   0  0  0  0  0  0  0  0  0  0  0  0
  150.4357  137.8166  155.3600 C   0  0  0  0  0  0  0  0  0  0  0  0
  150.6660  139.0925  154.7917 C   0  0  0  0  0  0  0  0  0  0  0  0
  151.2316  140.1026  155.5933 C   0  0  0  0  0  0  0  0  0  0  0  0
  151.5585  139.8066  156.9323 C   0  0  0  0  0  0  0  0  0  0  0  0
  152.1192  140.8107  157.7344 N   0  0  0  0  0  0  0  0  0  0  0  0
  151.3133  142.0284  157.7808 C   0  0  0  0  0  0  0  0  0  0  0  0
  152.0746  143.1611  158.4914 C   0  0  0  0  0  0  0  0  0  0  0  0
  152.5484  142.7164  159.8847 C   0  0  0  0  0  0  0  0  0  0  0  0
  153.3609  141.4156  159.7808 C   0  0  0  0  0  0  0  0  0  0  0  0
  152.5636  140.3282  159.0398 C   0  0  0  0  0  0  0  0  0  0  0  0
  151.3554  138.5845  157.4787 N   0  0  0  0  0  0  0  0  0  0  0  0
  150.8121  137.6211  156.7051 C   0  0  0  0  0  0  0  0  0  0  0  0
  148.2384  132.7485  152.9107 C   0  0  2  0  0  0  0  0  0  0  0  0
  147.0509  133.5481  152.3674 C   0  0  0  0  0  0  0  0  0  0  0  0
  146.3388  132.5130  151.5281 C   0  0  0  0  0  0  0  0  0  0  0  0
  146.5041  131.2612  152.3823 C   0  0  0  0  0  0  0  0  0  0  0  0
  147.7416  131.4205  153.0708 O   0  0  0  0  0  0  0  0  0  0  0  0
  149.8494  131.4342  154.8001 H   0  0  0  0  0  0  0  0  0  0  0  0
  150.4583  132.8674  155.6163 H   0  0  0  0  0  0  0  0  0  0  0  0
  150.8640  132.5784  153.9258 H   0  0  0  0  0  0  0  0  0  0  0  0
  148.0609  133.1293  155.0152 H   0  0  0  0  0  0  0  0  0  0  0  0
  148.9888  135.1178  153.2252 H   0  0  0  0  0  0  0  0  0  0  0  0
  149.6813  136.8778  153.6825 H   0  0  0  0  0  0  0  0  0  0  0  0
  150.4345  139.3159  153.7623 H   0  0  0  0  0  0  0  0  0  0  0  0
  151.4138  141.0856  155.1840 H   0  0  0  0  0  0  0  0  0  0  0  0
  151.0518  142.3358  156.7674 H   0  0  0  0  0  0  0  0  0  0  0  0
  150.3783  141.8259  158.3052 H   0  0  0  0  0  0  0  0  0  0  0  0
  152.9360  143.4547  157.8896 H   0  0  0  0  0  0  0  0  0  0  0  0
  151.4395  144.0433  158.5750 H   0  0  0  0  0  0  0  0  0  0  0  0
  153.1475  143.5004  160.3485 H   0  0  0  0  0  0  0  0  0  0  0  0
  151.6850  142.5581  160.5319 H   0  0  0  0  0  0  0  0  0  0  0  0
  154.2938  141.6092  159.2496 H   0  0  0  0  0  0  0  0  0  0  0  0
  153.6368  141.0646  160.7753 H   0  0  0  0  0  0  0  0  0  0  0  0
  151.6966  140.0364  159.6345 H   0  0  0  0  0  0  0  0  0  0  0  0
  153.1795  139.4368  158.9129 H   0  0  0  0  0  0  0  0  0  0  0  0
  150.6681  136.6616  157.1803 H   0  0  0  0  0  0  0  0  0  0  0  0
  149.0189  132.7165  152.1484 H   0  0  0  0  0  0  0  0  0  0  0  0
  146.4024  133.8766  153.1812 H   0  0  0  0  0  0  0  0  0  0  0  0
  147.3538  134.4259  151.7957 H   0  0  0  0  0  0  0  0  0  0  0  0
  145.2957  132.7614  151.3312 H   0  0  0  0  0  0  0  0  0  0  0  0
  146.8491  132.3882  150.5720 H   0  0  0  0  0  0  0  0  0  0  0  0
  145.7042  131.1966  153.1207 H   0  0  0  0  0  0  0  0  0  0  0  0
  146.4919  130.3467  151.7889 H   0  0  0  0  0  0  0  0  0  0  0  0
  1  2  1  0  0  0  0
  1 24  1  0  0  0  0
  1 25  1  0  0  0  0
  1 26  1  0  0  0  0
  2  3  1  0  0  0  0
  2 19  1  0  0  0  0
  2 27  1  0  0  0  0
  3  4  1  0  0  0  0
  3 28  1  0  0  0  0
  4  5  2  0  0  0  0
  4  6  1  0  0  0  0
  6  7  1  0  0  0  0
  6 29  1  0  0  0  0
  7 18  1  0  0  0  0
  7  8  2  0  0  0  0
  8  9  1  0  0  0  0
  8 30  1  0  0  0  0
  9 10  2  0  0  0  0
  9 31  1  0  0  0  0
 10 11  1  0  0  0  0
 10 17  1  0  0  0  0
 11 16  1  0  0  0  0
 11 12  1  0  0  0  0
 12 13  1  0  0  0  0
 12 32  1  0  0  0  0
 12 33  1  0  0  0  0
 13 14  1  0  0  0  0
 13 34  1  0  0  0  0
 13 35  1  0  0  0  0
 14 15  1  0  0  0  0
 14 36  1  0  0  0  0
 14 37  1  0  0  0  0
 15 16  1  0  0  0  0
 15 38  1  0  0  0  0
 15 39  1  0  0  0  0
 16 40  1  0  0  0  0
 16 41  1  0  0  0  0
 17 18  2  0  0  0  0
 18 42  1  0  0  0  0
 19 23  1  0  0  0  0
 19 20  1  0  0  0  0
 19 43  1  0  0  0  0
 20 21  1  0  0  0  0
 20 44  1  0  0  0  0
 20 45  1  0  0  0  0
 21 22  1  0  0  0  0
 21 46  1  0  0  0  0
 21 47  1  0  0  0  0
 22 23  1  0  0  0  0
 22 48  1  0  0  0  0
 22 49  1  0  0  0  0
M  END
> <s_m_source_file>
AV-unprocessed.smi

> <i_m_source_file_index>
1940

> <i_lp_mmshare_version>
43012

> <i_f3d_flags>
0

> <s_epik_input>
TzFbQ0gyXVtDSDJdW0NIMl1bQ0BIXTFbQ0BIXShbQ0gzXSlbTkhdQyg9TylbTkhdYzJbY0hdW2NIXWMobltjSF0yKU4zW0NIMl1bQ0gyXVtDSDJdW0NIMl1bQ0gyXTM=

> <s_epik_cmdline>
J2VwaWtfcHl0aG9uJywgJy1waCcsICc3LjAnLCAnLXRuJywgJzgnLCAnLW1hJywgJzIwMCcsICctbWV0YWxfYmluZGluZycsICctaW1hZScsICc8aW5maWxlLm1hZT4nLCAnLW9tYWUnLCAnPG91dGZpbGUubWFlPic=

> <r_lp_tautomer_probability>
1

> <r_epik_Ionization_Penalty>
0.105688

> <r_epik_Ionization_Penalty_Charging>
0

> <r_epik_Ionization_Penalty_Neutral>
0.105688

> <r_epik_State_Penalty>
0.0895745

> <r_epik_Charging_Adjusted_Penalty>
0.0895745

> <i_epik_Tot_Q>
0

> <i_epik_Tot_abs_Q>
0

> <r_epik_Metal_State_Penalty>
0.0765749

> <b_epik_Metal_Only>
0

> <s_lp_Force_Field>
OPLS_2005

> <r_lp_Energy>
35.482

> <b_lp_Chiralities_Consistent>
1

> <s_lp_Variant>
AV-unprocessed.smi:1940-2

> <Gold.Version>
5.8.1

> <Gold.Id.Protein>
6NUR|6NUR_protein|mol2

> <Gold.PLP.Fitness>
47.4998

> <Gold.PLP.PLP>
-41.5809

> <Gold.PLP.part.hbond>
-2.0000

> <Gold.PLP.part.metal>
0.0000

> <Gold.PLP.part.buried>
-3.8329

> <Gold.PLP.part.nonpolar>
-35.8573

> <Gold.PLP.part.repulsive>
0.1689

> <Gold.PLP.ligand.clash>
0.0000

> <Gold.PLP.ligand.torsion>
0.1242

> <Gold.PLP.Chemscore.Hbond>
2.0000

> <Gold.PLP.Chemscore.CHOScore>
0.0000

> <Gold.PLP.Chemscore.Metal>
0.0000

> <Gold.Chemscore.Hbonds>
donor molecule, donor type, donor heavy atom, donor atom, acceptor molecule, acceptor atom, score
      L1  H     3    28       P1  7948  1.00
      L1  H     6    29       P1  7948  0.99

> <Gold.PLP.Chemscore.Internal.Correction>
0.1673

> <Gold.Rescore>
     Score         DG    S(hbond)    S(metal)    S(lipo)     H(rot)  DE(clash)    DE(int)     intcor
     17.85     -19.47       1.70        0.00     100.29       1.34       0.01       1.61       ----

> <Gold.Chemscore.Fitness>
17.8460

> <Gold.Chemscore.DG>
-19.4658

> <Gold.Chemscore.ZeroCoef>
-5.4800

> <Gold.Chemscore.Hbond>
1.6983

> <Gold.Chemscore.Metal>
0.0000

> <Gold.Chemscore.Lipo>
100.2851

> <Gold.Chemscore.Internal_Hbond>
0.0000

> <Gold.Chemscore.DEClash>
0.0122

> <Gold.Chemscore.DEInternal>
1.6076

> <Gold.Chemscore.Rot>
1.3359

> <Gold.Chemscore.Internal.Correction>
   9.000000E+99

> <Gold.Chemscore.Hbonds>
donor molecule, donor type, donor heavy atom, donor atom, acceptor molecule, acceptor atom, score
      L1  H     3    28       P1  7948  0.30
      L1  H     6    29       P1  7948  0.62

> <Gold.Chemscore.Hbond.Weighted>
-5.6723

> <Gold.Chemscore.Metal.Weighted>
-0.0000

> <Gold.Chemscore.Lipo.Weighted>
-11.7334

> <Gold.Chemscore.Internal_Hbond.Weighted>
0.0000

> <Gold.Chemscore.DEClash.Weighted>
0.0122

> <Gold.Chemscore.DEInternal.Weighted>
1.6076

> <Gold.Chemscore.Rot.Weighted>
3.4199

> <Gold.Chemscore.Internal.Correction.Weighted>
   9.000000E+99

> <Gold.Protein.RotatedTorsions>
[ 6907 6896 6895 6894 ] final  152.98 input  -60.11 | X-H torsion
[ 7974 7965 7964 7962 ] final  130.35 input  175.53 | X-H torsion
[ 8008 7997 7996 7995 ] final  -27.92 input   59.86 | X-H torsion
[ 10167 10162 10161 10158 ] final  -49.18 input  -65.29 | X-H torsion
[ 10718 10713 10712 10709 ] final -128.34 input   66.30 | X-H torsion
[ 10763 10752 10751 10750 ] final  152.37 input  -60.55 | X-H torsion
[ 11005 11000 10999 10996 ] final  -76.58 input  -57.11 | X-H torsion

> <Gold.Protein.ActiveResidues>
 VAL166  LYS551  ARG553  GLY616  TRP617  ASP618  TYR619  PRO620  LYS621  CYS622 
 ASP623  PHE694  ASN695  SER759  ASP760  ASP761  ALA762  ILE779  LEU786  VAL792 
 PHE793  MET794  SER795  GLU796  ALA797  LYS798  CYS799  TRP800  GLU811  SER814 

> <Gold.Protein.RotatedAtoms>
  152.0791  133.4144  159.4492 H   0  0  0  0  0  0  0  0  0  0  0  0  # atno 6907 bound_to 6896
  150.6862  134.3003  159.4712 H   0  0  0  0  0  0  0  0  0  0  0  0  # atno 6908 bound_to 6896
  152.0843  134.9450  160.0623 H   0  0  0  0  0  0  0  0  0  0  0  0  # atno 6909 bound_to 6896
  145.0189  139.4151  143.5207 H   0  0  0  0  0  0  0  0  0  0  0  0  # atno 7974 bound_to 7965
  154.4355  140.1859  156.1008 H   0  0  0  0  0  0  0  0  0  0  0  0  # atno 8008 bound_to 7997
  156.0293  140.3332  155.7097 H   0  0  0  0  0  0  0  0  0  0  0  0  # atno 8009 bound_to 7997
  155.5862  140.0626  157.2761 H   0  0  0  0  0  0  0  0  0  0  0  0  # atno 8010 bound_to 7997
  140.6697  143.2708  151.4178 H   0  0  0  0  0  0  0  0  0  0  0  0  # atno 10167 bound_to 10162
  156.1941  130.6815  151.0460 H   0  0  0  0  0  0  0  0  0  0  0  0  # atno 10718 bound_to 10713
  154.1189  135.2834  155.3213 H   0  0  0  0  0  0  0  0  0  0  0  0  # atno 10763 bound_to 10752
  154.6437  135.5393  153.7822 H   0  0  0  0  0  0  0  0  0  0  0  0  # atno 10764 bound_to 10752
  153.0319  135.6492  154.1344 H   0  0  0  0  0  0  0  0  0  0  0  0  # atno 10765 bound_to 10752
  141.1655  133.6989  156.7691 H   0  0  0  0  0  0  0  0  0  0  0  0  # atno 11005 bound_to 11000
  146.3482  139.9675  142.8710 LP  0  0  0  0  0  0  0  0  0  0  0  0  # atno 17320 bound_to 7965
  145.1923  140.9817  143.4204 LP  0  0  0  0  0  0  0  0  0  0  0  0  # atno 17321 bound_to 7965
  139.5960  144.1397  152.2144 LP  0  0  0  0  0  0  0  0  0  0  0  0  # atno 17342 bound_to 10162
  140.0766  144.5735  150.7152 LP  0  0  0  0  0  0  0  0  0  0  0  0  # atno 17343 bound_to 10162
  157.6947  131.0798  150.7004 LP  0  0  0  0  0  0  0  0  0  0  0  0  # atno 17370 bound_to 10713
  156.7061  130.4638  149.5560 LP  0  0  0  0  0  0  0  0  0  0  0  0  # atno 17371 bound_to 10713
  140.2477  134.8564  157.3637 LP  0  0  0  0  0  0  0  0  0  0  0  0  # atno 17394 bound_to 11000
  140.1733  134.4581  155.7818 LP  0  0  0  0  0  0  0  0  0  0  0  0  # atno 17395 bound_to 11000

$$$$
