AV-unprocessed.smi:1269|AV-procd|sdf|5327|dock5
  -GOLD-   22720 4453D 1   1.00000     0.00000
 Structure written by MMmdl.
 43 44  0  0  0  0  0  0  0  0  1 V2000
  154.4933  140.6534  161.4008 C   0  0  0  0  0  0  0  0  0  0  0  0
  154.1375  141.9842  161.0428 O   0  0  0  0  0  0  0  0  0  0  0  0
  153.1754  142.1662  160.0705 C   0  0  0  0  0  0  0  0  0  0  0  0
  152.8681  143.4792  159.6632 C   0  0  0  0  0  0  0  0  0  0  0  0
  151.8907  143.6746  158.6684 C   0  0  0  0  0  0  0  0  0  0  0  0
  151.2464  142.5441  158.1095 C   0  0  0  0  0  0  0  0  0  0  0  0
  150.2461  142.5876  157.0984 N   0  0  0  0  0  0  0  0  0  0  0  0
  149.5788  141.5818  156.5063 C   0  0  0  0  0  0  0  0  0  0  0  0
  149.7475  140.3829  156.7243 O   0  0  0  0  0  0  0  0  0  0  0  0
  148.6805  142.0564  155.6304 N   0  0  0  0  0  0  0  0  0  0  0  0
  147.7471  141.2553  154.8399 C   0  0  2  0  0  0  0  0  0  0  0  0
  148.5260  140.1388  154.1313 C   0  0  0  0  0  0  0  0  0  0  0  0
  147.0073  142.1483  153.8199 C   0  0  0  0  0  0  0  0  0  0  0  0
  146.0821  143.1298  154.3881 N   0  0  0  0  0  0  0  0  0  0  0  0
  145.0204  142.5123  155.1806 C   0  0  0  0  0  0  0  0  0  0  0  0
  144.0537  143.5611  155.7569 C   0  0  0  0  0  0  0  0  0  0  0  0
  143.5077  144.3411  154.6982 O   0  0  0  0  0  0  0  0  0  0  0  0
  144.5091  144.9949  153.9252 C   0  0  0  0  0  0  0  0  0  0  0  0
  145.4766  143.9491  153.3444 C   0  0  0  0  0  0  0  0  0  0  0  0
  151.6258  141.2735  158.5901 C   0  0  0  0  0  0  0  0  0  0  0  0
  152.5623  141.0789  159.5421 N   0  0  0  0  0  0  0  0  0  0  0  0
  155.2587  140.6810  162.1761 H   0  0  0  0  0  0  0  0  0  0  0  0
  154.9042  140.1077  160.5500 H   0  0  0  0  0  0  0  0  0  0  0  0
  153.6389  140.1045  161.7995 H   0  0  0  0  0  0  0  0  0  0  0  0
  153.3749  144.3242  160.1053 H   0  0  0  0  0  0  0  0  0  0  0  0
  151.6659  144.6841  158.3654 H   0  0  0  0  0  0  0  0  0  0  0  0
  149.9864  143.5162  156.7996 H   0  0  0  0  0  0  0  0  0  0  0  0
  148.6174  143.0575  155.5186 H   0  0  0  0  0  0  0  0  0  0  0  0
  147.0252  140.7644  155.4933 H   0  0  0  0  0  0  0  0  0  0  0  0
  147.8579  139.5069  153.5452 H   0  0  0  0  0  0  0  0  0  0  0  0
  149.0362  139.4977  154.8511 H   0  0  0  0  0  0  0  0  0  0  0  0
  149.2783  140.5450  153.4542 H   0  0  0  0  0  0  0  0  0  0  0  0
  147.7623  142.6741  153.2333 H   0  0  0  0  0  0  0  0  0  0  0  0
  146.4703  141.5175  153.1097 H   0  0  0  0  0  0  0  0  0  0  0  0
  144.4612  141.8064  154.5644 H   0  0  0  0  0  0  0  0  0  0  0  0
  145.4422  141.9399  156.0054 H   0  0  0  0  0  0  0  0  0  0  0  0
  143.2412  143.0731  156.2957 H   0  0  0  0  0  0  0  0  0  0  0  0
  144.5677  144.2089  156.4689 H   0  0  0  0  0  0  0  0  0  0  0  0
  144.0307  145.5562  153.1226 H   0  0  0  0  0  0  0  0  0  0  0  0
  145.0451  145.7147  154.5460 H   0  0  0  0  0  0  0  0  0  0  0  0
  146.2549  144.4590  152.7755 H   0  0  0  0  0  0  0  0  0  0  0  0
  144.9401  143.3130  152.6384 H   0  0  0  0  0  0  0  0  0  0  0  0
  151.1634  140.3794  158.1976 H   0  0  0  0  0  0  0  0  0  0  0  0
  1  2  1  0  0  0  0
  1 22  1  0  0  0  0
  1 23  1  0  0  0  0
  1 24  1  0  0  0  0
  2  3  1  0  0  0  0
  3 21  1  0  0  0  0
  3  4  2  0  0  0  0
  4  5  1  0  0  0  0
  4 25  1  0  0  0  0
  5  6  2  0  0  0  0
  5 26  1  0  0  0  0
  6  7  1  0  0  0  0
  6 20  1  0  0  0  0
  7  8  1  0  0  0  0
  7 27  1  0  0  0  0
  8  9  2  0  0  0  0
  8 10  1  0  0  0  0
 10 11  1  0  0  0  0
 10 28  1  0  0  0  0
 11 12  1  0  0  0  0
 11 13  1  0  0  0  0
 11 29  1  0  0  0  0
 12 30  1  0  0  0  0
 12 31  1  0  0  0  0
 12 32  1  0  0  0  0
 13 14  1  0  0  0  0
 13 33  1  0  0  0  0
 13 34  1  0  0  0  0
 14 19  1  0  0  0  0
 14 15  1  0  0  0  0
 15 16  1  0  0  0  0
 15 35  1  0  0  0  0
 15 36  1  0  0  0  0
 16 17  1  0  0  0  0
 16 37  1  0  0  0  0
 16 38  1  0  0  0  0
 17 18  1  0  0  0  0
 18 19  1  0  0  0  0
 18 39  1  0  0  0  0
 18 40  1  0  0  0  0
 19 41  1  0  0  0  0
 19 42  1  0  0  0  0
 20 21  2  0  0  0  0
 20 43  1  0  0  0  0
M  END
> <s_m_source_file>
AV-unprocessed.smi

> <i_m_source_file_index>
1269

> <i_lp_mmshare_version>
43012

> <i_f3d_flags>
0

> <s_epik_input>
W0NIM11PYzFbY0hdW2NIXWMoW2NIXW4xKVtOSF1DKD1PKVtOSF1bQ0BIXShbQ0gzXSlbQ0gyXU4yW0NIMl1bQ0gyXU9bQ0gyXVtDSDJdMg==

> <s_epik_cmdline>
J2VwaWtfcHl0aG9uJywgJy1waCcsICc3LjAnLCAnLXRuJywgJzgnLCAnLW1hJywgJzIwMCcsICctbWV0YWxfYmluZGluZycsICctaW1hZScsICc8aW5maWxlLm1hZT4nLCAnLW9tYWUnLCAnPG91dGZpbGUubWFlPic=

> <r_lp_tautomer_probability>
1

> <r_epik_Ionization_Penalty>
0.266086

> <r_epik_Ionization_Penalty_Charging>
0

> <r_epik_Ionization_Penalty_Neutral>
0.266086

> <r_epik_State_Penalty>
0.257924

> <r_epik_Charging_Adjusted_Penalty>
0.257924

> <i_epik_Tot_Q>
0

> <i_epik_Tot_abs_Q>
0

> <r_epik_Metal_State_Penalty>
0.25792

> <b_epik_Metal_Only>
0

> <s_lp_Force_Field>
OPLS_2005

> <r_lp_Energy>
28.3998

> <b_lp_Chiralities_Consistent>
1

> <s_lp_Variant>
AV-unprocessed.smi:1269-1

> <Gold.Version>
5.8.1

> <Gold.Id.Protein>
6NUR|6NUR_protein|mol2

> <Gold.PLP.Fitness>
46.2001

> <Gold.PLP.PLP>
-40.3806

> <Gold.PLP.part.hbond>
-2.7286

> <Gold.PLP.part.metal>
0.0000

> <Gold.PLP.part.buried>
-6.2798

> <Gold.PLP.part.nonpolar>
-31.2498

> <Gold.PLP.part.repulsive>
0.4879

> <Gold.PLP.ligand.clash>
0.0000

> <Gold.PLP.ligand.torsion>
0.1119

> <Gold.PLP.Chemscore.Hbond>
2.0000

> <Gold.PLP.Chemscore.CHOScore>
0.0000

> <Gold.PLP.Chemscore.Metal>
0.0000

> <Gold.Chemscore.Hbonds>
donor molecule, donor type, donor heavy atom, donor atom, acceptor molecule, acceptor atom, score
      L1  H     7    27       P1  8028  1.00
      L1  H    10    28       P1  8028  1.00

> <Gold.PLP.Chemscore.Internal.Correction>
0.0434

> <Gold.Rescore>
     Score         DG    S(hbond)    S(metal)    S(lipo)     H(rot)  DE(clash)    DE(int)     intcor
     15.43     -18.17       1.95        0.00      90.31       1.72       0.01       2.74       ----

> <Gold.Chemscore.Fitness>
15.4311

> <Gold.Chemscore.DG>
-18.1733

> <Gold.Chemscore.ZeroCoef>
-5.4800

> <Gold.Chemscore.Hbond>
1.9542

> <Gold.Chemscore.Metal>
0.0000

> <Gold.Chemscore.Lipo>
90.3139

> <Gold.Chemscore.Internal_Hbond>
0.0000

> <Gold.Chemscore.DEClash>
0.0069

> <Gold.Chemscore.DEInternal>
2.7352

> <Gold.Chemscore.Rot>
1.7189

> <Gold.Chemscore.Internal.Correction>
   9.000000E+99

> <Gold.Chemscore.Hbonds>
donor molecule, donor type, donor heavy atom, donor atom, acceptor molecule, acceptor atom, score
      L1  H     7    27       P1  8028  0.93
      L1  H    10    28       P1  8028  1.00

> <Gold.Chemscore.Hbond.Weighted>
-6.5270

> <Gold.Chemscore.Metal.Weighted>
-0.0000

> <Gold.Chemscore.Lipo.Weighted>
-10.5667

> <Gold.Chemscore.Internal_Hbond.Weighted>
0.0000

> <Gold.Chemscore.DEClash.Weighted>
0.0069

> <Gold.Chemscore.DEInternal.Weighted>
2.7352

> <Gold.Chemscore.Rot.Weighted>
4.4004

> <Gold.Chemscore.Internal.Correction.Weighted>
   9.000000E+99

> <Gold.Protein.RotatedTorsions>
[ 6907 6896 6895 6894 ] final  -52.86 input  -60.11 | X-H torsion
[ 7974 7965 7964 7962 ] final  179.62 input  175.53 | X-H torsion
[ 8008 7997 7996 7995 ] final -128.31 input   59.86 | X-H torsion
[ 10167 10162 10161 10158 ] final  -32.02 input  -65.29 | X-H torsion
[ 10718 10713 10712 10709 ] final -151.71 input   66.30 | X-H torsion
[ 10763 10752 10751 10750 ] final   57.83 input  -60.55 | X-H torsion
[ 11005 11000 10999 10996 ] final  -45.65 input  -57.11 | X-H torsion

> <Gold.Protein.ActiveResidues>
 VAL166  LYS551  ARG553  GLY616  TRP617  ASP618  TYR619  PRO620  LYS621  CYS622 
 ASP623  PHE694  ASN695  SER759  ASP760  ASP761  ALA762  ILE779  LEU786  VAL792 
 PHE793  MET794  SER795  GLU796  ALA797  LYS798  CYS799  TRP800  GLU811  SER814 

> <Gold.Protein.RotatedAtoms>
  150.8480  134.7795  159.6985 H   0  0  0  0  0  0  0  0  0  0  0  0  # atno 6907 bound_to 6896
  152.4552  134.5305  159.9819 H   0  0  0  0  0  0  0  0  0  0  0  0  # atno 6908 bound_to 6896
  151.5431  133.3391  159.2975 H   0  0  0  0  0  0  0  0  0  0  0  0  # atno 6909 bound_to 6896
  144.7144  140.0575  143.6433 H   0  0  0  0  0  0  0  0  0  0  0  0  # atno 7974 bound_to 7965
  155.2605  140.0436  157.2997 H   0  0  0  0  0  0  0  0  0  0  0  0  # atno 8008 bound_to 7997
  154.5713  140.2374  155.8156 H   0  0  0  0  0  0  0  0  0  0  0  0  # atno 8009 bound_to 7997
  156.2125  140.2994  155.9772 H   0  0  0  0  0  0  0  0  0  0  0  0  # atno 8010 bound_to 7997
  140.7228  143.3726  151.1749 H   0  0  0  0  0  0  0  0  0  0  0  0  # atno 10167 bound_to 10162
  156.4628  130.8221  151.2452 H   0  0  0  0  0  0  0  0  0  0  0  0  # atno 10718 bound_to 10713
  152.9858  135.5628  154.5454 H   0  0  0  0  0  0  0  0  0  0  0  0  # atno 10763 bound_to 10752
  154.4900  135.2792  155.1506 H   0  0  0  0  0  0  0  0  0  0  0  0  # atno 10764 bound_to 10752
  154.2979  135.6313  153.5465 H   0  0  0  0  0  0  0  0  0  0  0  0  # atno 10765 bound_to 10752
  141.0529  133.6736  156.3044 H   0  0  0  0  0  0  0  0  0  0  0  0  # atno 11005 bound_to 11000
  145.9892  139.3001  143.0995 LP  0  0  0  0  0  0  0  0  0  0  0  0  # atno 17320 bound_to 7965
  145.8922  140.9296  143.0546 LP  0  0  0  0  0  0  0  0  0  0  0  0  # atno 17321 bound_to 7965
  139.7301  143.9087  152.3016 LP  0  0  0  0  0  0  0  0  0  0  0  0  # atno 17342 bound_to 10162
  139.8873  144.6985  150.8810 LP  0  0  0  0  0  0  0  0  0  0  0  0  # atno 17343 bound_to 10162
  157.7496  131.0101  150.3295 LP  0  0  0  0  0  0  0  0  0  0  0  0  # atno 17370 bound_to 10713
  156.3698  130.3861  149.7184 LP  0  0  0  0  0  0  0  0  0  0  0  0  # atno 17371 bound_to 10713
  140.6020  134.5545  157.5519 LP  0  0  0  0  0  0  0  0  0  0  0  0  # atno 17394 bound_to 11000
  139.9365  134.7865  156.0788 LP  0  0  0  0  0  0  0  0  0  0  0  0  # atno 17395 bound_to 11000

$$$$
