AV-unprocessed.smi:48|AV-procd|sdf|452|dock4
  -GOLD-   2262016323D 1   1.00000     0.00000
 Structure written by MMmdl.
 30 32  0  0  0  0  0  0  0  0  1 V2000
  148.1342  142.8806  154.0981 O   0  0  0  0  0  0  0  0  0  0  0  0
  148.3384  141.4839  154.0826 C   0  0  0  0  0  0  0  0  0  0  0  0
  149.1420  141.0531  155.3220 C   0  0  2  0  0  0  0  0  0  0  0  0
  150.1903  141.9800  155.5979 O   0  0  0  0  0  0  0  0  0  0  0  0
  151.2645  141.3399  156.2199 C   0  0  1  0  0  0  0  0  0  0  0  0
  151.4767  141.9358  157.5802 N   0  0  0  0  0  0  0  0  0  0  0  0
  150.8144  142.9833  158.1117 C   0  0  0  0  0  0  0  0  0  0  0  0
  151.1485  143.3633  159.3437 N   0  0  0  0  0  0  0  0  0  0  0  0
  152.1439  142.4515  159.6525 C   0  0  0  0  0  0  0  0  0  0  0  0
  152.9468  142.2646  160.8038 C   0  0  0  0  0  0  0  0  0  0  0  0
  152.7753  143.2885  162.1824 Cl  0  0  0  0  0  0  0  0  0  0  0  0
  153.8568  141.2619  160.8002 N   0  0  0  0  0  0  0  0  0  0  0  0
  153.9684  140.4829  159.7173 C   0  0  0  0  0  0  0  0  0  0  0  0
  153.2849  140.5382  158.5689 N   0  0  0  0  0  0  0  0  0  0  0  0
  152.3671  141.5498  158.5722 C   0  0  0  0  0  0  0  0  0  0  0  0
  150.9672  139.8265  156.2482 C   0  0  1  0  0  0  0  0  0  0  0  0
  150.5291  139.3464  157.5070 O   0  0  0  0  0  0  0  0  0  0  0  0
  149.8625  139.7019  155.2106 C   0  0  2  0  0  0  0  0  0  0  0  0
  150.4186  139.5183  153.9209 O   0  0  0  0  0  0  0  0  0  0  0  0
  148.4810  141.0021  156.1879 H   0  0  0  0  0  0  0  0  0  0  0  0
  152.1756  141.5769  155.6690 H   0  0  0  0  0  0  0  0  0  0  0  0
  151.8637  139.2702  155.9707 H   0  0  0  0  0  0  0  0  0  0  0  0
  149.1922  138.8649  155.4109 H   0  0  0  0  0  0  0  0  0  0  0  0
  148.5601  143.2389  154.8619 H   0  0  0  0  0  0  0  0  0  0  0  0
  147.3556  141.0122  154.0894 H   0  0  0  0  0  0  0  0  0  0  0  0
  148.8381  141.1858  153.1604 H   0  0  0  0  0  0  0  0  0  0  0  0
  150.0411  143.4983  157.5605 H   0  0  0  0  0  0  0  0  0  0  0  0
  154.7131  139.7030  159.7788 H   0  0  0  0  0  0  0  0  0  0  0  0
  150.2080  140.0783  158.0111 H   0  0  0  0  0  0  0  0  0  0  0  0
  150.1835  138.6567  153.6124 H   0  0  0  0  0  0  0  0  0  0  0  0
  1  2  1  0  0  0  0
  1 24  1  0  0  0  0
  2  3  1  0  0  0  0
  2 25  1  0  0  0  0
  2 26  1  0  0  0  0
  3 20  1  0  0  0  0
  3 18  1  0  0  0  0
  3  4  1  0  0  0  0
  4  5  1  0  0  0  0
  5 21  1  0  0  0  0
  5  6  1  0  0  0  0
  5 16  1  0  0  0  0
  6 15  1  0  0  0  0
  6  7  1  0  0  0  0
  7  8  2  0  0  0  0
  7 27  1  0  0  0  0
  8  9  1  0  0  0  0
  9 15  2  0  0  0  0
  9 10  1  0  0  0  0
 10 11  1  0  0  0  0
 10 12  2  0  0  0  0
 12 13  1  0  0  0  0
 13 14  2  0  0  0  0
 13 28  1  0  0  0  0
 14 15  1  0  0  0  0
 16 22  1  0  0  0  0
 16 17  1  0  0  0  0
 16 18  1  0  0  0  0
 17 29  1  0  0  0  0
 18 23  1  0  0  0  0
 18 19  1  0  0  0  0
 19 30  1  0  0  0  0
M  END
> <s_m_source_file>
AV-unprocessed.smi

> <i_m_source_file_index>
48

> <i_lp_mmshare_version>
43012

> <i_f3d_flags>
0

> <s_epik_input>
W09IXVtDSDJdW0NASF0xT1tDQEhdKFtDQEhdKFtPSF0pW0NAQEhdMVtPSF0pbihbY0hdbjIpYyhjMjMpbltjSF1uYzNDbA==

> <s_epik_cmdline>
J2VwaWtfcHl0aG9uJywgJy1waCcsICc3LjAnLCAnLXRuJywgJzgnLCAnLW1hJywgJzIwMCcsICctbWV0YWxfYmluZGluZycsICctaW1hZScsICc8aW5maWxlLm1hZT4nLCAnLW9tYWUnLCAnPG91dGZpbGUubWFlPic=

> <r_lp_tautomer_probability>
1

> <r_epik_Ionization_Penalty>
3.45505e-06

> <r_epik_Ionization_Penalty_Charging>
0

> <r_epik_Ionization_Penalty_Neutral>
3.45505e-06

> <r_epik_State_Penalty>
-0

> <r_epik_Charging_Adjusted_Penalty>
0

> <i_epik_Tot_Q>
0

> <i_epik_Tot_abs_Q>
0

> <r_epik_Metal_State_Penalty>
-0

> <b_epik_Metal_Only>
0

> <s_epik_Chemistry_Notes>
This compound contains an acetal/aminal-like group ( X-CH(R)-Y where X, Y are N, S, or O) that may be acid/base labile, releasing an aldehyde.

> <s_lp_Force_Field>
OPLS_2005

> <r_lp_Energy>
39.5324

> <b_lp_Chiralities_Consistent>
1

> <s_lp_Variant>
AV-unprocessed.smi:48-6

> <Gold.Version>
5.8.1

> <Gold.Id.Protein>
6NUR|6NUR_protein|mol2

> <Gold.PLP.Fitness>
46.3061

> <Gold.PLP.PLP>
-36.5508

> <Gold.PLP.part.hbond>
-5.8906

> <Gold.PLP.part.metal>
0.0000

> <Gold.PLP.part.buried>
-1.0932

> <Gold.PLP.part.nonpolar>
-26.1882

> <Gold.PLP.part.repulsive>
0.7813

> <Gold.PLP.ligand.clash>
0.0000

> <Gold.PLP.ligand.torsion>
0.2361

> <Gold.PLP.Chemscore.Hbond>
2.4085

> <Gold.PLP.Chemscore.CHOScore>
1.0000

> <Gold.PLP.Chemscore.Metal>
0.0000

> <Gold.Chemscore.Hbonds>
donor molecule, donor type, donor heavy atom, donor atom, acceptor molecule, acceptor atom, score
      L1  H     1    24       P1  8028  0.80
      P1  H  7989  7998       L1    19  1.00
      P1  H  7997  8010       L1    14  0.56
      L1  C     7    27       P1  8028  1.00

> <Gold.PLP.Chemscore.Internal.Correction>
0.0019

> <Gold.Rescore>
     Score         DG    S(hbond)    S(metal)    S(lipo)     H(rot)  DE(clash)    DE(int)     intcor
      9.03      -9.28       2.03        0.00      57.81       3.80       0.08       0.17       ----

> <Gold.Chemscore.Fitness>
9.0300

> <Gold.Chemscore.DG>
-9.2768

> <Gold.Chemscore.ZeroCoef>
-5.4800

> <Gold.Chemscore.Hbond>
2.0255

> <Gold.Chemscore.Metal>
0.0000

> <Gold.Chemscore.Lipo>
57.8121

> <Gold.Chemscore.Internal_Hbond>
0.0000

> <Gold.Chemscore.DEClash>
0.0764

> <Gold.Chemscore.DEInternal>
0.1705

> <Gold.Chemscore.Rot>
3.8017

> <Gold.Chemscore.Internal.Correction>
   9.000000E+99

> <Gold.Chemscore.Hbonds>
donor molecule, donor type, donor heavy atom, donor atom, acceptor molecule, acceptor atom, score
      L1  H     1    24       P1  8028  0.80
      P1  H  7989  7998       L1    19  0.83
      P1  H  7997  8010       L1    14  0.14

> <Gold.Chemscore.Hbond.Weighted>
-6.7652

> <Gold.Chemscore.Metal.Weighted>
-0.0000

> <Gold.Chemscore.Lipo.Weighted>
-6.7640

> <Gold.Chemscore.Internal_Hbond.Weighted>
0.0000

> <Gold.Chemscore.DEClash.Weighted>
0.0764

> <Gold.Chemscore.DEInternal.Weighted>
0.1705

> <Gold.Chemscore.Rot.Weighted>
9.7324

> <Gold.Chemscore.Internal.Correction.Weighted>
   9.000000E+99

> <Gold.Protein.RotatedTorsions>
[ 6907 6896 6895 6894 ] final  -20.56 input  -60.11 | X-H torsion
[ 7974 7965 7964 7962 ] final    5.06 input  175.53 | X-H torsion
[ 8008 7997 7996 7995 ] final   16.71 input   59.86 | X-H torsion
[ 10167 10162 10161 10158 ] final  100.54 input  -65.29 | X-H torsion
[ 10718 10713 10712 10709 ] final  134.33 input   66.30 | X-H torsion
[ 10763 10752 10751 10750 ] final   35.37 input  -60.55 | X-H torsion
[ 11005 11000 10999 10996 ] final   46.14 input  -57.11 | X-H torsion

> <Gold.Protein.ActiveResidues>
 VAL166  LYS551  ARG553  GLY616  TRP617  ASP618  TYR619  PRO620  LYS621  CYS622 
 ASP623  PHE694  ASN695  SER759  ASP760  ASP761  ALA762  ILE779  LEU786  VAL792 
 PHE793  MET794  SER795  GLU796  ALA797  LYS798  CYS799  TRP800  GLU811  SER814 

> <Gold.Protein.RotatedAtoms>
  151.2463  135.0607  159.9044 H   0  0  0  0  0  0  0  0  0  0  0  0  # atno 6907 bound_to 6896
  152.5386  134.0380  159.8065 H   0  0  0  0  0  0  0  0  0  0  0  0  # atno 6908 bound_to 6896
  151.0581  133.5518  159.2668 H   0  0  0  0  0  0  0  0  0  0  0  0  # atno 6909 bound_to 6896
  146.2442  140.0441  142.8380 H   0  0  0  0  0  0  0  0  0  0  0  0  # atno 7974 bound_to 7965
  154.8809  140.2973  155.5426 H   0  0  0  0  0  0  0  0  0  0  0  0  # atno 8008 bound_to 7997
  156.3022  140.2442  156.3745 H   0  0  0  0  0  0  0  0  0  0  0  0  # atno 8009 bound_to 7997
  154.8718  140.0401  157.1718 H   0  0  0  0  0  0  0  0  0  0  0  0  # atno 8010 bound_to 7997
  139.7518  144.6981  151.0421 H   0  0  0  0  0  0  0  0  0  0  0  0  # atno 10167 bound_to 10162
  157.4684  131.1078  150.9834 H   0  0  0  0  0  0  0  0  0  0  0  0  # atno 10718 bound_to 10713
  153.0122  135.6335  154.1816 H   0  0  0  0  0  0  0  0  0  0  0  0  # atno 10763 bound_to 10752
  154.1557  135.2826  155.3124 H   0  0  0  0  0  0  0  0  0  0  0  0  # atno 10764 bound_to 10752
  154.6019  135.5584  153.7444 H   0  0  0  0  0  0  0  0  0  0  0  0  # atno 10765 bound_to 10752
  140.1395  134.4601  155.8460 H   0  0  0  0  0  0  0  0  0  0  0  0  # atno 11005 bound_to 11000
  145.1043  140.9365  143.4694 LP  0  0  0  0  0  0  0  0  0  0  0  0  # atno 17320 bound_to 7965
  145.0640  139.3083  143.5865 LP  0  0  0  0  0  0  0  0  0  0  0  0  # atno 17321 bound_to 7965
  140.7798  143.4800  151.0031 LP  0  0  0  0  0  0  0  0  0  0  0  0  # atno 17342 bound_to 10162
  139.8487  143.7467  152.3178 LP  0  0  0  0  0  0  0  0  0  0  0  0  # atno 17343 bound_to 10162
  157.0607  130.5824  149.5385 LP  0  0  0  0  0  0  0  0  0  0  0  0  # atno 17370 bound_to 10713
  156.0061  130.5148  150.7835 LP  0  0  0  0  0  0  0  0  0  0  0  0  # atno 17371 bound_to 10713
  141.2184  133.6827  156.7221 LP  0  0  0  0  0  0  0  0  0  0  0  0  # atno 17394 bound_to 11000
  140.2740  134.8370  157.3873 LP  0  0  0  0  0  0  0  0  0  0  0  0  # atno 17395 bound_to 11000

$$$$
