AV-unprocessed.smi:1423|AV-procd|sdf|5794|dock9
  -GOLD-   22720 5443D 1   1.00000     0.00000
 Structure written by MMmdl.
 43 44  0  0  0  0  0  0  0  0  1 V2000
  150.5666  140.9243  156.5947 C   0  0  0  0  0  0  0  0  0  0  0  0
  150.7067  142.0911  157.3982 O   0  0  0  0  0  0  0  0  0  0  0  0
  151.5220  142.0268  158.5096 C   0  0  0  0  0  0  0  0  0  0  0  0
  152.4175  140.9458  158.6287 C   0  0  0  0  0  0  0  0  0  0  0  0
  153.2538  140.8728  159.7596 C   0  0  0  0  0  0  0  0  0  0  0  0
  153.1698  141.8912  160.7404 C   0  0  0  0  0  0  0  0  0  0  0  0
  153.9512  141.9522  161.9279 N   0  0  0  0  0  0  0  0  0  0  0  0
  153.7081  142.5937  163.0842 C   0  0  0  0  0  0  0  0  0  0  0  0
  152.7394  143.3160  163.3157 O   0  0  0  0  0  0  0  0  0  0  0  0
  154.6738  142.3469  163.9807 N   0  0  0  0  0  0  0  0  0  0  0  0
  154.7113  142.8675  165.3439 C   0  0  0  0  0  0  0  0  0  0  0  0
  154.7614  144.4034  165.3471 C   0  0  0  0  0  0  0  0  0  0  0  0
  154.9301  144.9458  166.7771 C   0  0  0  0  0  0  0  0  0  0  0  0
  156.1465  144.4110  167.3987 N   0  0  0  0  0  0  0  0  0  0  0  0
  156.3326  145.0471  168.7234 C   0  0  0  0  0  0  0  0  0  0  0  0
  157.7880  145.3812  169.0749 C   0  0  0  0  0  0  0  0  0  0  0  0
  158.2681  144.8856  170.2179 N   0  0  0  0  0  0  0  0  0  0  0  0
  158.4693  146.0743  168.3224 O   0  0  0  0  0  0  0  0  0  0  0  0
  156.0750  142.9446  167.4814 C   0  0  0  0  0  0  0  0  0  0  0  0
  155.9479  142.3294  166.0763 C   0  0  0  0  0  0  0  0  0  0  0  0
  152.2376  142.9277  160.5259 C   0  0  0  0  0  0  0  0  0  0  0  0
  151.4327  143.0031  159.4456 N   0  0  0  0  0  0  0  0  0  0  0  0
  149.8950  141.1368  155.7633 H   0  0  0  0  0  0  0  0  0  0  0  0
  150.1379  140.0969  157.1621 H   0  0  0  0  0  0  0  0  0  0  0  0
  151.5243  140.6126  156.1752 H   0  0  0  0  0  0  0  0  0  0  0  0
  152.4620  140.1834  157.8650 H   0  0  0  0  0  0  0  0  0  0  0  0
  153.9321  140.0392  159.8403 H   0  0  0  0  0  0  0  0  0  0  0  0
  154.7999  141.4059  161.9047 H   0  0  0  0  0  0  0  0  0  0  0  0
  155.4356  141.7447  163.7051 H   0  0  0  0  0  0  0  0  0  0  0  0
  153.8217  142.5365  165.8835 H   0  0  0  0  0  0  0  0  0  0  0  0
  155.5879  144.7527  164.7262 H   0  0  0  0  0  0  0  0  0  0  0  0
  153.8505  144.8103  164.9065 H   0  0  0  0  0  0  0  0  0  0  0  0
  154.9853  146.0343  166.7350 H   0  0  0  0  0  0  0  0  0  0  0  0
  154.0545  144.6962  167.3794 H   0  0  0  0  0  0  0  0  0  0  0  0
  155.7768  145.9853  168.7543 H   0  0  0  0  0  0  0  0  0  0  0  0
  155.9041  144.4090  169.4991 H   0  0  0  0  0  0  0  0  0  0  0  0
  159.2209  145.0773  170.4909 H   0  0  0  0  0  0  0  0  0  0  0  0
  157.6746  144.3181  170.8056 H   0  0  0  0  0  0  0  0  0  0  0  0
  156.9720  142.5360  167.9465 H   0  0  0  0  0  0  0  0  0  0  0  0
  155.2310  142.6436  168.1046 H   0  0  0  0  0  0  0  0  0  0  0  0
  155.8913  141.2430  166.1543 H   0  0  0  0  0  0  0  0  0  0  0  0
  156.8494  142.5515  165.5026 H   0  0  0  0  0  0  0  0  0  0  0  0
  152.1338  143.7277  161.2447 H   0  0  0  0  0  0  0  0  0  0  0  0
  1  2  1  0  0  0  0
  1 23  1  0  0  0  0
  1 24  1  0  0  0  0
  1 25  1  0  0  0  0
  2  3  1  0  0  0  0
  3 22  1  0  0  0  0
  3  4  2  0  0  0  0
  4  5  1  0  0  0  0
  4 26  1  0  0  0  0
  5  6  2  0  0  0  0
  5 27  1  0  0  0  0
  6  7  1  0  0  0  0
  6 21  1  0  0  0  0
  7  8  1  0  0  0  0
  7 28  1  0  0  0  0
  8  9  2  0  0  0  0
  8 10  1  0  0  0  0
 10 11  1  0  0  0  0
 10 29  1  0  0  0  0
 11 20  1  0  0  0  0
 11 12  1  0  0  0  0
 11 30  1  0  0  0  0
 12 13  1  0  0  0  0
 12 31  1  0  0  0  0
 12 32  1  0  0  0  0
 13 14  1  0  0  0  0
 13 33  1  0  0  0  0
 13 34  1  0  0  0  0
 14 15  1  0  0  0  0
 14 19  1  0  0  0  0
 15 16  1  0  0  0  0
 15 35  1  0  0  0  0
 15 36  1  0  0  0  0
 16 17  1  0  0  0  0
 16 18  2  0  0  0  0
 17 37  1  0  0  0  0
 17 38  1  0  0  0  0
 19 20  1  0  0  0  0
 19 39  1  0  0  0  0
 19 40  1  0  0  0  0
 20 41  1  0  0  0  0
 20 42  1  0  0  0  0
 21 22  2  0  0  0  0
 21 43  1  0  0  0  0
M  END
> <s_m_source_file>
AV-unprocessed.smi

> <i_m_source_file_index>
1423

> <i_lp_mmshare_version>
43012

> <i_f3d_flags>
0

> <s_epik_input>
W0NIM11PYzFbY0hdW2NIXWMoW2NIXW4xKVtOSF1DKD1PKVtOSF1bQ0hdMltDSDJdW0NIMl1OKFtDSDJdW0NIMl0yKVtDSDJdQyg9TylbTkgyXQ==

> <s_epik_cmdline>
J2VwaWtfcHl0aG9uJywgJy1waCcsICc3LjAnLCAnLXRuJywgJzgnLCAnLW1hJywgJzIwMCcsICctbWV0YWxfYmluZGluZycsICctaW1hZScsICc8aW5maWxlLm1hZT4nLCAnLW9tYWUnLCAnPG91dGZpbGUubWFlPic=

> <r_lp_tautomer_probability>
1

> <r_epik_Ionization_Penalty>
0.16483

> <r_epik_Ionization_Penalty_Charging>
0

> <r_epik_Ionization_Penalty_Neutral>
0.16483

> <r_epik_State_Penalty>
0.154069

> <r_epik_Charging_Adjusted_Penalty>
0.154069

> <i_epik_Tot_Q>
0

> <i_epik_Tot_abs_Q>
0

> <r_epik_Metal_State_Penalty>
0.171364

> <b_epik_Metal_Only>
0

> <s_lp_Force_Field>
OPLS_2005

> <r_lp_Energy>
14.563

> <b_lp_Chiralities_Consistent>
1

> <s_lp_Variant>
AV-unprocessed.smi:1423-1

> <Gold.Version>
5.8.1

> <Gold.Id.Protein>
6NUR|6NUR_protein|mol2

> <Gold.PLP.Fitness>
42.4689

> <Gold.PLP.PLP>
-44.1480

> <Gold.PLP.part.hbond>
-4.9693

> <Gold.PLP.part.metal>
0.0000

> <Gold.PLP.part.buried>
-5.0353

> <Gold.PLP.part.nonpolar>
-34.2752

> <Gold.PLP.part.repulsive>
1.0485

> <Gold.PLP.ligand.clash>
0.0000

> <Gold.PLP.ligand.torsion>
0.8435

> <Gold.PLP.Chemscore.Hbond>
0.0000

> <Gold.PLP.Chemscore.CHOScore>
0.0000

> <Gold.PLP.Chemscore.Metal>
0.0000

> <Gold.PLP.Chemscore.Internal.Correction>
0.0079

> <Gold.Rescore>
     Score         DG    S(hbond)    S(metal)    S(lipo)     H(rot)  DE(clash)    DE(int)     intcor
      6.69     -10.63       0.00        0.00      94.21       2.29       1.66       2.28       ----

> <Gold.Chemscore.Fitness>
6.6856

> <Gold.Chemscore.DG>
-10.6280

> <Gold.Chemscore.ZeroCoef>
-5.4800

> <Gold.Chemscore.Hbond>
0.0000

> <Gold.Chemscore.Metal>
0.0000

> <Gold.Chemscore.Lipo>
94.2136

> <Gold.Chemscore.Internal_Hbond>
0.0000

> <Gold.Chemscore.DEClash>
1.6584

> <Gold.Chemscore.DEInternal>
2.2839

> <Gold.Chemscore.Rot>
2.2949

> <Gold.Chemscore.Internal.Correction>
   9.000000E+99

> <Gold.Chemscore.Hbond.Weighted>
-0.0000

> <Gold.Chemscore.Metal.Weighted>
-0.0000

> <Gold.Chemscore.Lipo.Weighted>
-11.0230

> <Gold.Chemscore.Internal_Hbond.Weighted>
0.0000

> <Gold.Chemscore.DEClash.Weighted>
1.6584

> <Gold.Chemscore.DEInternal.Weighted>
2.2839

> <Gold.Chemscore.Rot.Weighted>
5.8750

> <Gold.Chemscore.Internal.Correction.Weighted>
   9.000000E+99

> <Gold.Protein.RotatedTorsions>
[ 6907 6896 6895 6894 ] final   23.21 input  -60.11 | X-H torsion
[ 7974 7965 7964 7962 ] final   11.55 input  175.53 | X-H torsion
[ 8008 7997 7996 7995 ] final -112.10 input   59.86 | X-H torsion
[ 10167 10162 10161 10158 ] final  112.04 input  -65.29 | X-H torsion
[ 10718 10713 10712 10709 ] final -132.30 input   66.30 | X-H torsion
[ 10763 10752 10751 10750 ] final  105.28 input  -60.55 | X-H torsion
[ 11005 11000 10999 10996 ] final   68.05 input  -57.11 | X-H torsion

> <Gold.Protein.ActiveResidues>
 VAL166  LYS551  ARG553  GLY616  TRP617  ASP618  TYR619  PRO620  LYS621  CYS622 
 ASP623  PHE694  ASN695  SER759  ASP760  ASP761  ALA762  ILE779  LEU786  VAL792 
 PHE793  MET794  SER795  GLU796  ALA797  LYS798  CYS799  TRP800  GLU811  SER814 

> <Gold.Protein.RotatedAtoms>
  151.9390  135.0222  160.0534 H   0  0  0  0  0  0  0  0  0  0  0  0  # atno 6907 bound_to 6896
  152.2053  133.4866  159.5089 H   0  0  0  0  0  0  0  0  0  0  0  0  # atno 6908 bound_to 6896
  150.6963  134.1454  159.4163 H   0  0  0  0  0  0  0  0  0  0  0  0  # atno 6909 bound_to 6896
  146.2369  139.9469  142.8475 H   0  0  0  0  0  0  0  0  0  0  0  0  # atno 7974 bound_to 7965
  155.0001  140.0394  157.2356 H   0  0  0  0  0  0  0  0  0  0  0  0  # atno 8008 bound_to 7997
  154.7552  140.2774  155.6237 H   0  0  0  0  0  0  0  0  0  0  0  0  # atno 8009 bound_to 7997
  156.2893  140.2639  156.2316 H   0  0  0  0  0  0  0  0  0  0  0  0  # atno 8010 bound_to 7997
  139.6565  144.7129  151.1947 H   0  0  0  0  0  0  0  0  0  0  0  0  # atno 10167 bound_to 10162
  156.2332  130.7050  151.0880 H   0  0  0  0  0  0  0  0  0  0  0  0  # atno 10718 bound_to 10713
  153.3772  135.3915  155.1831 H   0  0  0  0  0  0  0  0  0  0  0  0  # atno 10763 bound_to 10752
  154.8702  135.3717  154.4903 H   0  0  0  0  0  0  0  0  0  0  0  0  # atno 10764 bound_to 10752
  153.5376  135.7085  153.5713 H   0  0  0  0  0  0  0  0  0  0  0  0  # atno 10765 bound_to 10752
  139.9734  134.6862  156.0401 H   0  0  0  0  0  0  0  0  0  0  0  0  # atno 11005 bound_to 11000
  145.1899  140.9806  143.4217 LP  0  0  0  0  0  0  0  0  0  0  0  0  # atno 17320 bound_to 7965
  144.9867  139.3730  143.6235 LP  0  0  0  0  0  0  0  0  0  0  0  0  # atno 17321 bound_to 7965
  140.7561  143.6063  150.8649 LP  0  0  0  0  0  0  0  0  0  0  0  0  # atno 17342 bound_to 10162
  139.9717  143.6049  152.2971 LP  0  0  0  0  0  0  0  0  0  0  0  0  # atno 17343 bound_to 10162
  157.7142  131.0718  150.6388 LP  0  0  0  0  0  0  0  0  0  0  0  0  # atno 17370 bound_to 10713
  156.6457  130.4471  149.5737 LP  0  0  0  0  0  0  0  0  0  0  0  0  # atno 17371 bound_to 10713
  141.1413  133.6564  156.3737 LP  0  0  0  0  0  0  0  0  0  0  0  0  # atno 17394 bound_to 11000
  140.5245  134.6272  157.5329 LP  0  0  0  0  0  0  0  0  0  0  0  0  # atno 17395 bound_to 11000

$$$$
