AV-unprocessed.smi:634|AV-procd|sdf|3133|dock2
  -GOLD-   22720 0 53D 1   1.00000     0.00000
 Structure written by MMmdl.
 33 34  0  0  0  0  0  0  0  0  1 V2000
  143.6692  134.0635  151.8703 C   0  0  0  0  0  0  0  0  0  0  0  0
  144.4557  135.2383  152.3419 C   0  0  0  0  0  0  0  0  0  0  0  0
  144.2471  136.5869  152.2699 C   0  0  0  0  0  0  0  0  0  0  0  0
  145.3892  137.1223  152.9227 C   0  0  0  0  0  0  0  0  0  0  0  0
  145.5539  138.5235  153.0672 N   0  0  0  0  0  0  0  0  0  0  0  0
  146.4841  139.1690  153.7907 C   0  0  0  0  0  0  0  0  0  0  0  0
  147.3711  138.6240  154.4478 O   0  0  0  0  0  0  0  0  0  0  0  0
  146.3196  140.5000  153.7092 N   0  0  0  0  0  0  0  0  0  0  0  0
  147.1023  141.5566  154.3656 C   0  0  1  0  0  0  0  0  0  0  0  0
  148.6064  141.3788  154.0678 C   0  0  0  0  0  0  0  0  0  0  0  0
  146.6090  142.9099  153.7990 C   0  0  0  0  0  0  0  0  0  0  0  0
  145.2514  143.2672  154.4173 C   0  0  0  0  0  0  0  0  0  0  0  0
  145.2789  142.5708  156.1090 S   0  0  0  0  0  0  0  0  0  0  0  0
  145.5239  143.6455  157.0826 O   0  0  0  0  0  0  0  0  0  0  0  0
  144.1397  141.6535  156.2630 O   0  0  0  0  0  0  0  0  0  0  0  0
  146.8187  141.6005  155.8857 C   0  0  0  0  0  0  0  0  0  0  0  0
  146.2221  136.1857  153.3501 N   0  0  0  0  0  0  0  0  0  0  0  0
  145.6282  134.9735  152.9795 O   0  0  0  0  0  0  0  0  0  0  0  0
  142.6628  134.3614  151.5754 H   0  0  0  0  0  0  0  0  0  0  0  0
  143.5813  133.3149  152.6577 H   0  0  0  0  0  0  0  0  0  0  0  0
  144.1504  133.5973  151.0107 H   0  0  0  0  0  0  0  0  0  0  0  0
  143.4100  137.1033  151.8244 H   0  0  0  0  0  0  0  0  0  0  0  0
  144.8819  139.0952  152.5776 H   0  0  0  0  0  0  0  0  0  0  0  0
  145.5543  140.8248  153.1365 H   0  0  0  0  0  0  0  0  0  0  0  0
  149.1889  142.2106  154.4652 H   0  0  0  0  0  0  0  0  0  0  0  0
  148.7943  141.3312  152.9947 H   0  0  0  0  0  0  0  0  0  0  0  0
  149.0072  140.4693  154.5149 H   0  0  0  0  0  0  0  0  0  0  0  0
  147.3191  143.6906  154.0750 H   0  0  0  0  0  0  0  0  0  0  0  0
  146.5623  142.9087  152.7091 H   0  0  0  0  0  0  0  0  0  0  0  0
  145.0691  144.3412  154.4540 H   0  0  0  0  0  0  0  0  0  0  0  0
  144.4363  142.7929  153.8704 H   0  0  0  0  0  0  0  0  0  0  0  0
  146.7173  140.6253  156.3608 H   0  0  0  0  0  0  0  0  0  0  0  0
  147.6129  142.1366  156.4060 H   0  0  0  0  0  0  0  0  0  0  0  0
  1  2  1  0  0  0  0
  1 19  1  0  0  0  0
  1 20  1  0  0  0  0
  1 21  1  0  0  0  0
  2 18  1  0  0  0  0
  2  3  2  0  0  0  0
  3  4  1  0  0  0  0
  3 22  1  0  0  0  0
  4  5  1  0  0  0  0
  4 17  2  0  0  0  0
  5  6  1  0  0  0  0
  5 23  1  0  0  0  0
  6  7  2  0  0  0  0
  6  8  1  0  0  0  0
  8  9  1  0  0  0  0
  8 24  1  0  0  0  0
  9 16  1  0  0  0  0
  9 10  1  0  0  0  0
  9 11  1  0  0  0  0
 10 25  1  0  0  0  0
 10 26  1  0  0  0  0
 10 27  1  0  0  0  0
 11 12  1  0  0  0  0
 11 28  1  0  0  0  0
 11 29  1  0  0  0  0
 12 13  1  0  0  0  0
 12 30  1  0  0  0  0
 12 31  1  0  0  0  0
 13 14  2  0  0  0  0
 13 15  2  0  0  0  0
 13 16  1  0  0  0  0
 16 32  1  0  0  0  0
 16 33  1  0  0  0  0
 17 18  1  0  0  0  0
M  END
> <s_m_source_file>
AV-unprocessed.smi

> <i_m_source_file_index>
634

> <i_lp_mmshare_version>
43012

> <i_f3d_flags>
0

> <s_epik_input>
W0NIM11jMVtjSF1jKG5vMSlbTkhdQyg9TylbTkhdW0NAQF0yKFtDSDNdKVtDSDJdW0NIMl1TKD1PKSg9TylbQ0gyXTI=

> <s_epik_cmdline>
J2VwaWtfcHl0aG9uJywgJy1waCcsICc3LjAnLCAnLXRuJywgJzgnLCAnLW1hJywgJzIwMCcsICctbWV0YWxfYmluZGluZycsICctaW1hZScsICc8aW5maWxlLm1hZT4nLCAnLW9tYWUnLCAnPG91dGZpbGUubWFlPic=

> <r_lp_tautomer_probability>
1

> <r_epik_Ionization_Penalty>
3.87281e-05

> <r_epik_Ionization_Penalty_Charging>
0

> <r_epik_Ionization_Penalty_Neutral>
3.87281e-05

> <r_epik_State_Penalty>
-0

> <r_epik_Charging_Adjusted_Penalty>
0

> <i_epik_Tot_Q>
0

> <i_epik_Tot_abs_Q>
0

> <r_epik_Metal_State_Penalty>
0.0249287

> <b_epik_Metal_Only>
0

> <s_lp_Force_Field>
OPLS_2005

> <r_lp_Energy>
3.17223

> <b_lp_Chiralities_Consistent>
1

> <s_lp_Variant>
AV-unprocessed.smi:634-1

> <Gold.Version>
5.8.1

> <Gold.Id.Protein>
6NUR|6NUR_protein|mol2

> <Gold.PLP.Fitness>
29.9815

> <Gold.PLP.PLP>
-24.3292

> <Gold.PLP.part.hbond>
-2.0000

> <Gold.PLP.part.metal>
0.0000

> <Gold.PLP.part.buried>
-3.7457

> <Gold.PLP.part.nonpolar>
-18.5192

> <Gold.PLP.part.repulsive>
0.5355

> <Gold.PLP.ligand.clash>
0.0000

> <Gold.PLP.ligand.torsion>
0.1218

> <Gold.PLP.Chemscore.Hbond>
1.9600

> <Gold.PLP.Chemscore.CHOScore>
0.0000

> <Gold.PLP.Chemscore.Metal>
0.0000

> <Gold.Chemscore.Hbonds>
donor molecule, donor type, donor heavy atom, donor atom, acceptor molecule, acceptor atom, score
      L1  H     5    23       P1 10175  1.00
      L1  H     8    24       P1 10175  0.94

> <Gold.PLP.Chemscore.Internal.Correction>
0.0159

> <Gold.Rescore>
     Score         DG    S(hbond)    S(metal)    S(lipo)     H(rot)  DE(clash)    DE(int)     intcor
     12.92     -14.19       1.96        0.00      40.50       1.00       0.00       1.27       ----

> <Gold.Chemscore.Fitness>
12.9159

> <Gold.Chemscore.DG>
-14.1908

> <Gold.Chemscore.ZeroCoef>
-5.4800

> <Gold.Chemscore.Hbond>
1.9559

> <Gold.Chemscore.Metal>
0.0000

> <Gold.Chemscore.Lipo>
40.4973

> <Gold.Chemscore.Internal_Hbond>
0.0000

> <Gold.Chemscore.DEClash>
0.0004

> <Gold.Chemscore.DEInternal>
1.2745

> <Gold.Chemscore.Rot>
1.0000

> <Gold.Chemscore.Internal.Correction>
   9.000000E+99

> <Gold.Chemscore.Hbonds>
donor molecule, donor type, donor heavy atom, donor atom, acceptor molecule, acceptor atom, score
      L1  H     5    23       P1 10175  0.98
      L1  H     8    24       P1 10175  0.53

> <Gold.Chemscore.Hbond.Weighted>
-6.5326

> <Gold.Chemscore.Metal.Weighted>
-0.0000

> <Gold.Chemscore.Lipo.Weighted>
-4.7382

> <Gold.Chemscore.Internal_Hbond.Weighted>
0.0000

> <Gold.Chemscore.DEClash.Weighted>
0.0004

> <Gold.Chemscore.DEInternal.Weighted>
1.2745

> <Gold.Chemscore.Rot.Weighted>
2.5600

> <Gold.Chemscore.Internal.Correction.Weighted>
   9.000000E+99

> <Gold.Protein.RotatedTorsions>
[ 6907 6896 6895 6894 ] final  114.46 input  -60.11 | X-H torsion
[ 7974 7965 7964 7962 ] final -137.00 input  175.53 | X-H torsion
[ 8008 7997 7996 7995 ] final  103.00 input   59.86 | X-H torsion
[ 10167 10162 10161 10158 ] final -176.43 input  -65.29 | X-H torsion
[ 10718 10713 10712 10709 ] final   75.45 input   66.30 | X-H torsion
[ 10763 10752 10751 10750 ] final  -76.51 input  -60.55 | X-H torsion
[ 11005 11000 10999 10996 ] final -179.49 input  -57.11 | X-H torsion

> <Gold.Protein.ActiveResidues>
 VAL166  LYS551  ARG553  GLY616  TRP617  ASP618  TYR619  PRO620  LYS621  CYS622 
 ASP623  PHE694  ASN695  SER759  ASP760  ASP761  ALA762  ILE779  LEU786  VAL792 
 PHE793  MET794  SER795  GLU796  ALA797  LYS798  CYS799  TRP800  GLU811  SER814 

> <Gold.Protein.RotatedAtoms>
  152.4801  133.8234  159.7064 H   0  0  0  0  0  0  0  0  0  0  0  0  # atno 6907 bound_to 6896
  150.8845  133.7317  159.2929 H   0  0  0  0  0  0  0  0  0  0  0  0  # atno 6908 bound_to 6896
  151.4810  135.1056  159.9830 H   0  0  0  0  0  0  0  0  0  0  0  0  # atno 6909 bound_to 6896
  144.8879  140.6601  143.5164 H   0  0  0  0  0  0  0  0  0  0  0  0  # atno 7974 bound_to 7965
  156.1444  140.3172  155.8546 H   0  0  0  0  0  0  0  0  0  0  0  0  # atno 8008 bound_to 7997
  155.4093  140.0505  157.3049 H   0  0  0  0  0  0  0  0  0  0  0  0  # atno 8009 bound_to 7997
  154.5003  140.2127  155.9372 H   0  0  0  0  0  0  0  0  0  0  0  0  # atno 8010 bound_to 7997
  139.5530  144.2060  152.1111 H   0  0  0  0  0  0  0  0  0  0  0  0  # atno 10167 bound_to 10162
  157.6634  130.9727  150.1355 H   0  0  0  0  0  0  0  0  0  0  0  0  # atno 10718 bound_to 10713
  154.5008  135.5795  153.6530 H   0  0  0  0  0  0  0  0  0  0  0  0  # atno 10763 bound_to 10752
  152.9878  135.6135  154.3004 H   0  0  0  0  0  0  0  0  0  0  0  0  # atno 10764 bound_to 10752
  154.2912  135.2848  155.2633 H   0  0  0  0  0  0  0  0  0  0  0  0  # atno 10765 bound_to 10752
  140.4180  134.6631  157.4649 H   0  0  0  0  0  0  0  0  0  0  0  0  # atno 11005 bound_to 11000
  145.3836  139.1631  143.4267 LP  0  0  0  0  0  0  0  0  0  0  0  0  # atno 17320 bound_to 7965
  146.3036  140.3919  142.8695 LP  0  0  0  0  0  0  0  0  0  0  0  0  # atno 17321 bound_to 7965
  140.1559  144.5071  150.6660 LP  0  0  0  0  0  0  0  0  0  0  0  0  # atno 17342 bound_to 10162
  140.6797  143.2321  151.5416 LP  0  0  0  0  0  0  0  0  0  0  0  0  # atno 17343 bound_to 10162
  156.2191  130.3672  149.8577 LP  0  0  0  0  0  0  0  0  0  0  0  0  # atno 17370 bound_to 10713
  156.6435  130.8714  151.3518 LP  0  0  0  0  0  0  0  0  0  0  0  0  # atno 17371 bound_to 10713
  140.0220  134.6533  155.9226 LP  0  0  0  0  0  0  0  0  0  0  0  0  # atno 17394 bound_to 11000
  141.1795  133.6544  156.4962 LP  0  0  0  0  0  0  0  0  0  0  0  0  # atno 17395 bound_to 11000

$$$$
