AV-unprocessed.smi:2106|AV-procd|sdf|8598|dock6
  -GOLD-   2272011333D 1   1.00000     0.00000
 Structure written by MMmdl.
 48 49  0  0  0  0  0  0  0  0  2 V2000
  144.8958  132.7223  150.1160 C   0  0  0  0  0  0  0  0  0  0  0  0
  144.1192  133.5725  151.0775 C   0  0  0  0  0  0  0  0  0  0  0  0
  142.9041  133.2588  151.7476 C   0  0  0  0  0  0  0  0  0  0  0  0
  142.6348  134.3690  152.4971 C   0  0  0  0  0  0  0  0  0  0  0  0
  141.4960  134.6537  153.4202 C   0  0  0  0  0  0  0  0  0  0  0  0
  143.6569  135.2711  152.2589 N   0  0  0  0  0  0  0  0  0  0  0  0
  143.8556  136.6006  152.8133 C   0  0  0  0  0  0  0  0  0  0  0  0
  145.3298  137.0046  152.7582 C   0  0  0  0  0  0  0  0  0  0  0  0
  146.1992  136.2205  153.1384 O   0  0  0  0  0  0  0  0  0  0  0  0
  145.5980  138.2301  152.2811 N   0  0  0  0  0  0  0  0  0  0  0  0
  146.9330  138.7936  152.1183 C   0  0  0  0  0  0  0  0  0  0  0  0
  147.5121  139.2890  153.4585 C   0  0  0  0  0  0  0  0  0  0  0  0
  148.6087  138.4247  153.9624 N   0  3  1  0  0  0  0  0  0  0  0  0
  149.9064  139.1380  154.0111 C   0  0  0  0  0  0  0  0  0  0  0  0
  151.0357  138.1834  154.4397 C   0  0  1  0  0  0  0  0  0  0  0  0
  152.3746  138.9124  154.5981 C   0  0  0  0  0  0  0  0  0  0  0  0
  150.7097  137.5945  155.6958 O   0  0  0  0  0  0  0  0  0  0  0  0
  149.4745  136.8801  155.7208 C   0  0  2  0  0  0  0  0  0  0  0  0
  149.5482  135.5592  154.9336 C   0  0  0  0  0  0  0  0  0  0  0  0
  148.3189  137.7981  155.2760 C   0  0  0  0  0  0  0  0  0  0  0  0
  144.5655  134.7786  151.3881 N   0  0  0  0  0  0  0  0  0  0  0  0
  144.3906  131.7738  149.9333 H   0  0  0  0  0  0  0  0  0  0  0  0
  145.8899  132.4992  150.5037 H   0  0  0  0  0  0  0  0  0  0  0  0
  145.0156  133.2240  149.1554 H   0  0  0  0  0  0  0  0  0  0  0  0
  142.3181  132.3536  151.6879 H   0  0  0  0  0  0  0  0  0  0  0  0
  140.8246  133.7975  153.4849 H   0  0  0  0  0  0  0  0  0  0  0  0
  140.9163  135.5080  153.0704 H   0  0  0  0  0  0  0  0  0  0  0  0
  141.8543  134.8739  154.4258 H   0  0  0  0  0  0  0  0  0  0  0  0
  143.2448  137.3180  152.2624 H   0  0  0  0  0  0  0  0  0  0  0  0
  143.5043  136.6159  153.8455 H   0  0  0  0  0  0  0  0  0  0  0  0
  144.8195  138.8018  151.9852 H   0  0  0  0  0  0  0  0  0  0  0  0
  147.5749  138.0430  151.6568 H   0  0  0  0  0  0  0  0  0  0  0  0
  146.8657  139.6225  151.4131 H   0  0  0  0  0  0  0  0  0  0  0  0
  147.8965  140.2990  153.3083 H   0  0  0  0  0  0  0  0  0  0  0  0
  146.7337  139.3656  154.2193 H   0  0  0  0  0  0  0  0  0  0  0  0
  150.1353  139.5541  153.0291 H   0  0  0  0  0  0  0  0  0  0  0  0
  149.8341  139.9772  154.7054 H   0  0  0  0  0  0  0  0  0  0  0  0
  151.1626  137.4040  153.6881 H   0  0  0  0  0  0  0  0  0  0  0  0
  152.6823  139.3787  153.6618 H   0  0  0  0  0  0  0  0  0  0  0  0
  153.1617  138.2207  154.8991 H   0  0  0  0  0  0  0  0  0  0  0  0
  152.3116  139.6935  155.3564 H   0  0  0  0  0  0  0  0  0  0  0  0
  149.3031  136.6140  156.7644 H   0  0  0  0  0  0  0  0  0  0  0  0
  148.6418  134.9713  155.0805 H   0  0  0  0  0  0  0  0  0  0  0  0
  150.3901  134.9536  155.2696 H   0  0  0  0  0  0  0  0  0  0  0  0
  149.6583  135.7194  153.8613 H   0  0  0  0  0  0  0  0  0  0  0  0
  148.1696  138.5833  156.0189 H   0  0  0  0  0  0  0  0  0  0  0  0
  147.3951  137.2219  155.2397 H   0  0  0  0  0  0  0  0  0  0  0  0
  148.7189  137.6760  153.2935 H   0  0  0  0  0  0  0  0  0  0  0  0
  1  2  1  0  0  0  0
  1 22  1  0  0  0  0
  1 23  1  0  0  0  0
  1 24  1  0  0  0  0
  2 21  2  0  0  0  0
  2  3  1  0  0  0  0
  3  4  2  0  0  0  0
  3 25  1  0  0  0  0
  4  5  1  0  0  0  0
  4  6  1  0  0  0  0
  5 26  1  0  0  0  0
  5 27  1  0  0  0  0
  5 28  1  0  0  0  0
  6  7  1  0  0  0  0
  6 21  1  0  0  0  0
  7  8  1  0  0  0  0
  7 29  1  0  0  0  0
  7 30  1  0  0  0  0
  8  9  2  0  0  0  0
  8 10  1  0  0  0  0
 10 11  1  0  0  0  0
 10 31  1  0  0  0  0
 11 12  1  0  0  0  0
 11 32  1  0  0  0  0
 11 33  1  0  0  0  0
 12 13  1  0  0  0  0
 12 34  1  0  0  0  0
 12 35  1  0  0  0  0
 13 20  1  0  0  0  0
 13 14  1  0  0  0  0
 13 48  1  0  0  0  0
 14 15  1  0  0  0  0
 14 36  1  0  0  0  0
 14 37  1  0  0  0  0
 15 16  1  0  0  0  0
 15 17  1  0  0  0  0
 15 38  1  0  0  0  0
 16 39  1  0  0  0  0
 16 40  1  0  0  0  0
 16 41  1  0  0  0  0
 17 18  1  0  0  0  0
 18 19  1  0  0  0  0
 18 20  1  0  0  0  0
 18 42  1  0  0  0  0
 19 43  1  0  0  0  0
 19 44  1  0  0  0  0
 19 45  1  0  0  0  0
 20 46  1  0  0  0  0
 20 47  1  0  0  0  0
M  CHG  1  13   1
M  END
> <s_m_source_file>
AV-unprocessed.smi

> <i_m_source_file_index>
2106

> <i_lp_mmshare_version>
43012

> <i_f3d_flags>
0

> <s_epik_input>
W0NIM11jMVtjSF1jKFtDSDNdKW4objEpW0NIMl1DKD1PKVtOSF1bQ0gyXVtDSDJdTjJbQ0gyXVtDQEBIXShbQ0gzXSlPW0NAQEhdKFtDSDNdKVtDSDJdMg==

> <s_epik_cmdline>
J2VwaWtfcHl0aG9uJywgJy1waCcsICc3LjAnLCAnLXRuJywgJzgnLCAnLW1hJywgJzIwMCcsICctbWV0YWxfYmluZGluZycsICctaW1hZScsICc8aW5maWxlLm1hZT4nLCAnLW9tYWUnLCAnPG91dGZpbGUubWFlPic=

> <r_lp_tautomer_probability>
1

> <r_epik_Ionization_Penalty>
0.748586

> <r_epik_Ionization_Penalty_Charging>
0.748396

> <r_epik_Ionization_Penalty_Neutral>
0.000189656

> <r_epik_State_Penalty>
0.775162

> <r_epik_Charging_Adjusted_Penalty>
1.52356

> <i_epik_Tot_Q>
1

> <i_epik_Tot_abs_Q>
1

> <r_epik_Metal_State_Penalty>
0.775295

> <b_epik_Metal_Only>
0

> <s_lp_Force_Field>
OPLS_2005

> <r_lp_Energy>
15.4858

> <b_lp_Chiralities_Consistent>
1

> <s_lp_Variant>
AV-unprocessed.smi:2106-6

> <Gold.Version>
5.8.1

> <Gold.Id.Protein>
6NUR|6NUR_protein|mol2

> <Gold.PLP.Fitness>
41.1004

> <Gold.PLP.PLP>
-35.8072

> <Gold.PLP.part.hbond>
-2.9853

> <Gold.PLP.part.metal>
0.0000

> <Gold.PLP.part.buried>
-1.3207

> <Gold.PLP.part.nonpolar>
-32.7719

> <Gold.PLP.part.repulsive>
0.6025

> <Gold.PLP.ligand.clash>
0.0000

> <Gold.PLP.ligand.torsion>
1.6861

> <Gold.PLP.Chemscore.Hbond>
2.8744

> <Gold.PLP.Chemscore.CHOScore>
0.0000

> <Gold.PLP.Chemscore.Metal>
0.0000

> <Gold.Chemscore.Hbonds>
donor molecule, donor type, donor heavy atom, donor atom, acceptor molecule, acceptor atom, score
      L1  H    10    31       P1 10175  0.84
      L1  H    13    48       P1  7948  1.98

> <Gold.PLP.Chemscore.Internal.Correction>
0.0423

> <Gold.Rescore>
     Score         DG    S(hbond)    S(metal)    S(lipo)     H(rot)  DE(clash)    DE(int)     intcor
     14.38     -17.64       1.86        0.00      88.67       1.73       0.21       3.06       ----

> <Gold.Chemscore.Fitness>
14.3777

> <Gold.Chemscore.DG>
-17.6448

> <Gold.Chemscore.ZeroCoef>
-5.4800

> <Gold.Chemscore.Hbond>
1.8633

> <Gold.Chemscore.Metal>
0.0000

> <Gold.Chemscore.Lipo>
88.6713

> <Gold.Chemscore.Internal_Hbond>
0.0000

> <Gold.Chemscore.DEClash>
0.2062

> <Gold.Chemscore.DEInternal>
3.0609

> <Gold.Chemscore.Rot>
1.7316

> <Gold.Chemscore.Internal.Correction>
   9.000000E+99

> <Gold.Chemscore.Hbonds>
donor molecule, donor type, donor heavy atom, donor atom, acceptor molecule, acceptor atom, score
      L1  H    10    31       P1 10175  0.78
      L1  H    13    48       P1  7948  0.93

> <Gold.Chemscore.Hbond.Weighted>
-6.2233

> <Gold.Chemscore.Metal.Weighted>
-0.0000

> <Gold.Chemscore.Lipo.Weighted>
-10.3745

> <Gold.Chemscore.Internal_Hbond.Weighted>
0.0000

> <Gold.Chemscore.DEClash.Weighted>
0.2062

> <Gold.Chemscore.DEInternal.Weighted>
3.0609

> <Gold.Chemscore.Rot.Weighted>
4.4330

> <Gold.Chemscore.Internal.Correction.Weighted>
   9.000000E+99

> <Gold.Protein.RotatedTorsions>
[ 6907 6896 6895 6894 ] final  -78.66 input  -60.11 | X-H torsion
[ 7974 7965 7964 7962 ] final   64.18 input  175.53 | X-H torsion
[ 8008 7997 7996 7995 ] final  115.80 input   59.86 | X-H torsion
[ 10167 10162 10161 10158 ] final  161.78 input  -65.29 | X-H torsion
[ 10718 10713 10712 10709 ] final -111.11 input   66.30 | X-H torsion
[ 10763 10752 10751 10750 ] final   68.05 input  -60.55 | X-H torsion
[ 11005 11000 10999 10996 ] final   92.98 input  -57.11 | X-H torsion

> <Gold.Protein.ActiveResidues>
 VAL166  LYS551  ARG553  GLY616  TRP617  ASP618  TYR619  PRO620  LYS621  CYS622 
 ASP623  PHE694  ASN695  SER759  ASP760  ASP761  ALA762  ILE779  LEU786  VAL792 
 PHE793  MET794  SER795  GLU796  ALA797  LYS798  CYS799  TRP800  GLU811  SER814 

> <Gold.Protein.RotatedAtoms>
  150.6967  134.4238  159.5216 H   0  0  0  0  0  0  0  0  0  0  0  0  # atno 6907 bound_to 6896
  152.1977  134.8613  160.0520 H   0  0  0  0  0  0  0  0  0  0  0  0  # atno 6908 bound_to 6896
  151.9545  133.3641  159.4049 H   0  0  0  0  0  0  0  0  0  0  0  0  # atno 6909 bound_to 6896
  145.8532  139.3267  143.0863 H   0  0  0  0  0  0  0  0  0  0  0  0  # atno 7974 bound_to 7965
  156.2402  140.2931  156.0424 H   0  0  0  0  0  0  0  0  0  0  0  0  # atno 8008 bound_to 7997
  155.1972  140.0408  157.2928 H   0  0  0  0  0  0  0  0  0  0  0  0  # atno 8009 bound_to 7997
  154.6154  140.2462  155.7623 H   0  0  0  0  0  0  0  0  0  0  0  0  # atno 8010 bound_to 7997
  139.4853  144.4502  151.8839 H   0  0  0  0  0  0  0  0  0  0  0  0  # atno 10167 bound_to 10162
  156.0628  130.5850  150.8329 H   0  0  0  0  0  0  0  0  0  0  0  0  # atno 10718 bound_to 10713
  153.0216  135.5261  154.7074 H   0  0  0  0  0  0  0  0  0  0  0  0  # atno 10763 bound_to 10752
  154.6166  135.2884  155.0375 H   0  0  0  0  0  0  0  0  0  0  0  0  # atno 10764 bound_to 10752
  154.1377  135.6583  153.4988 H   0  0  0  0  0  0  0  0  0  0  0  0  # atno 10765 bound_to 10752
  139.8816  134.8764  156.3651 H   0  0  0  0  0  0  0  0  0  0  0  0  # atno 11005 bound_to 11000
  145.9334  140.9032  143.0345 LP  0  0  0  0  0  0  0  0  0  0  0  0  # atno 17320 bound_to 7965
  144.6728  140.1449  143.7434 LP  0  0  0  0  0  0  0  0  0  0  0  0  # atno 17321 bound_to 7965
  140.3958  144.2556  150.5896 LP  0  0  0  0  0  0  0  0  0  0  0  0  # atno 17342 bound_to 10162
  140.5103  143.2292  151.8545 LP  0  0  0  0  0  0  0  0  0  0  0  0  # atno 17343 bound_to 10162
  157.5649  131.0946  150.9504 LP  0  0  0  0  0  0  0  0  0  0  0  0  # atno 17370 bound_to 10713
  156.9733  130.5499  149.5292 LP  0  0  0  0  0  0  0  0  0  0  0  0  # atno 17371 bound_to 10713
  140.9503  133.7455  156.0263 LP  0  0  0  0  0  0  0  0  0  0  0  0  # atno 17394 bound_to 11000
  140.8114  134.3395  157.5410 LP  0  0  0  0  0  0  0  0  0  0  0  0  # atno 17395 bound_to 11000

$$$$
