AV-unprocessed.smi:862|AV-procd|sdf|3978|dock10
  -GOLD-   22720 1453D 1   1.00000     0.00000
 Structure written by MMmdl.
 44 46  0  0  0  0  0  0  0  0  2 V2000
  149.3047  136.9779  154.2587 N   0  0  0  0  0  0  0  0  0  0  0  0
  150.5859  137.2695  154.5023 C   0  0  0  0  0  0  0  0  0  0  0  0
  151.4059  136.3802  154.7228 O   0  0  0  0  0  0  0  0  0  0  0  0
  150.9013  138.5880  154.4457 N   0  0  0  0  0  0  0  0  0  0  0  0
  149.9490  139.7040  154.3223 C   0  0  0  0  0  0  0  0  0  0  0  0
  149.8210  140.4021  155.6889 C   0  0  0  0  0  0  0  0  0  0  0  0
  151.1987  140.8793  156.2057 C   0  0  0  0  0  0  0  0  0  0  0  0
  151.1119  141.4023  157.5872 N   0  3  0  0  0  0  0  0  0  0  0  0
  152.3831  141.4585  158.3483 C   0  0  2  0  0  0  0  0  0  0  0  0
  152.4296  140.4945  159.5395 C   0  0  0  0  0  0  0  0  0  0  0  0
  153.4859  141.0788  160.4872 C   0  0  0  0  0  0  0  0  0  0  0  0
  153.7076  142.5395  160.0564 C   0  0  0  0  0  0  0  0  0  0  0  0
  152.6695  142.8416  158.9623 C   0  0  2  0  0  0  0  0  0  0  0  0
  151.4771  143.5009  159.4927 N   0  0  0  0  0  0  0  0  0  0  0  0
  150.4077  144.0572  158.7961 C   0  0  0  0  0  0  0  0  0  0  0  0
  149.5554  144.5906  159.7358 C   0  0  0  0  0  0  0  0  0  0  0  0
  150.0794  144.3902  161.0092 N   0  0  0  0  0  0  0  0  0  0  0  0
  151.2133  143.7403  160.7858 C   0  0  0  0  0  0  0  0  0  0  0  0
  152.2329  139.7357  156.1453 C   0  0  0  0  0  0  0  0  0  0  0  0
  152.2508  139.0747  154.7555 C   0  0  0  0  0  0  0  0  0  0  0  0
  149.0013  136.0148  154.2715 H   0  0  0  0  0  0  0  0  0  0  0  0
  148.6483  137.7157  154.0510 H   0  0  0  0  0  0  0  0  0  0  0  0
  150.3200  140.4094  153.5774 H   0  0  0  0  0  0  0  0  0  0  0  0
  148.9624  139.4047  153.9686 H   0  0  0  0  0  0  0  0  0  0  0  0
  149.1320  141.2416  155.5981 H   0  0  0  0  0  0  0  0  0  0  0  0
  149.3748  139.7110  156.4059 H   0  0  0  0  0  0  0  0  0  0  0  0
  151.5589  141.6743  155.5519 H   0  0  0  0  0  0  0  0  0  0  0  0
  150.7184  142.3315  157.5434 H   0  0  0  0  0  0  0  0  0  0  0  0
  153.2120  141.2230  157.6802 H   0  0  0  0  0  0  0  0  0  0  0  0
  151.4618  140.4672  160.0418 H   0  0  0  0  0  0  0  0  0  0  0  0
  152.6701  139.4737  159.2410 H   0  0  0  0  0  0  0  0  0  0  0  0
  153.1536  141.0140  161.5238 H   0  0  0  0  0  0  0  0  0  0  0  0
  154.4206  140.5217  160.4130 H   0  0  0  0  0  0  0  0  0  0  0  0
  153.6537  143.2336  160.8960 H   0  0  0  0  0  0  0  0  0  0  0  0
  154.7096  142.6356  159.6363 H   0  0  0  0  0  0  0  0  0  0  0  0
  153.1024  143.5052  158.2118 H   0  0  0  0  0  0  0  0  0  0  0  0
  150.3344  144.0293  157.7193 H   0  0  0  0  0  0  0  0  0  0  0  0
  148.6160  145.1044  159.5938 H   0  0  0  0  0  0  0  0  0  0  0  0
  151.8743  143.4381  161.5850 H   0  0  0  0  0  0  0  0  0  0  0  0
  153.2262  140.1164  156.3863 H   0  0  0  0  0  0  0  0  0  0  0  0
  151.9996  138.9813  156.8985 H   0  0  0  0  0  0  0  0  0  0  0  0
  152.9995  138.2816  154.7272 H   0  0  0  0  0  0  0  0  0  0  0  0
  152.5589  139.7973  153.9984 H   0  0  0  0  0  0  0  0  0  0  0  0
  150.4758  140.8149  158.1078 H   0  0  0  0  0  0  0  0  0  0  0  0
  1  2  1  0  0  0  0
  1 21  1  0  0  0  0
  1 22  1  0  0  0  0
  2  3  2  0  0  0  0
  2  4  1  0  0  0  0
  4 20  1  0  0  0  0
  4  5  1  0  0  0  0
  5  6  1  0  0  0  0
  5 23  1  0  0  0  0
  5 24  1  0  0  0  0
  6  7  1  0  0  0  0
  6 25  1  0  0  0  0
  6 26  1  0  0  0  0
  7  8  1  0  0  0  0
  7 19  1  0  0  0  0
  7 27  1  0  0  0  0
  8  9  1  0  0  0  0
  8 28  1  0  0  0  0
  8 44  1  0  0  0  0
  9 13  1  0  0  0  0
  9 10  1  0  0  0  0
  9 29  1  0  0  0  0
 10 11  1  0  0  0  0
 10 30  1  0  0  0  0
 10 31  1  0  0  0  0
 11 12  1  0  0  0  0
 11 32  1  0  0  0  0
 11 33  1  0  0  0  0
 12 13  1  0  0  0  0
 12 34  1  0  0  0  0
 12 35  1  0  0  0  0
 13 14  1  0  0  0  0
 13 36  1  0  0  0  0
 14 18  1  0  0  0  0
 14 15  1  0  0  0  0
 15 16  2  0  0  0  0
 15 37  1  0  0  0  0
 16 17  1  0  0  0  0
 16 38  1  0  0  0  0
 17 18  2  0  0  0  0
 18 39  1  0  0  0  0
 19 20  1  0  0  0  0
 19 40  1  0  0  0  0
 19 41  1  0  0  0  0
 20 42  1  0  0  0  0
 20 43  1  0  0  0  0
M  CHG  1   8   1
M  END
> <s_m_source_file>
AV-unprocessed.smi

> <i_m_source_file_index>
862

> <i_lp_mmshare_version>
43012

> <i_f3d_flags>
0

> <s_epik_input>
W05IMl1DKD1PKU4xW0NIMl1bQ0gyXVtDSF0oW0NIMl1bQ0gyXTEpW05IXVtDQEBIXTJbQ0gyXVtDSDJdW0NIMl1bQ0BIXTJuM1tjSF1bY0hdbltjSF0z

> <s_epik_cmdline>
J2VwaWtfcHl0aG9uJywgJy1waCcsICc3LjAnLCAnLXRuJywgJzgnLCAnLW1hJywgJzIwMCcsICctbWV0YWxfYmluZGluZycsICctaW1hZScsICc8aW5maWxlLm1hZT4nLCAnLW9tYWUnLCAnPG91dGZpbGUubWFlPic=

> <r_lp_tautomer_probability>
1

> <r_epik_Ionization_Penalty>
0.0731506

> <r_epik_Ionization_Penalty_Charging>
0.0731

> <r_epik_Ionization_Penalty_Neutral>
5.05966e-05

> <r_epik_State_Penalty>
0.128895

> <r_epik_Charging_Adjusted_Penalty>
0.201995

> <i_epik_Tot_Q>
1

> <i_epik_Tot_abs_Q>
1

> <r_epik_Metal_State_Penalty>
0.113934

> <b_epik_Metal_Only>
0

> <s_lp_Force_Field>
OPLS_2005

> <r_lp_Energy>
57.2527

> <b_lp_Chiralities_Consistent>
1

> <s_lp_Variant>
AV-unprocessed.smi:862-3

> <Gold.Version>
5.8.1

> <Gold.Id.Protein>
6NUR|6NUR_protein|mol2

> <Gold.PLP.Fitness>
48.2104

> <Gold.PLP.PLP>
-41.5770

> <Gold.PLP.part.hbond>
-2.1727

> <Gold.PLP.part.metal>
0.0000

> <Gold.PLP.part.buried>
-4.1000

> <Gold.PLP.part.nonpolar>
-36.2578

> <Gold.PLP.part.repulsive>
0.4175

> <Gold.PLP.ligand.clash>
0.0000

> <Gold.PLP.ligand.torsion>
1.0931

> <Gold.PLP.Chemscore.Hbond>
1.0000

> <Gold.PLP.Chemscore.CHOScore>
1.9192

> <Gold.PLP.Chemscore.Metal>
0.0000

> <Gold.Chemscore.Hbonds>
donor molecule, donor type, donor heavy atom, donor atom, acceptor molecule, acceptor atom, score
      P1  H 10752 10763       L1     3  1.00
      L1  C    15    37       P1  8028  0.86
      L1  C    16    38       P1  8029  0.75

> <Gold.PLP.Chemscore.Internal.Correction>
0.0620

> <Gold.Rescore>
     Score         DG    S(hbond)    S(metal)    S(lipo)     H(rot)  DE(clash)    DE(int)     intcor
     13.99     -16.14       1.00        0.00      98.51       1.64       0.06       2.09       ----

> <Gold.Chemscore.Fitness>
13.9925

> <Gold.Chemscore.DG>
-16.1442

> <Gold.Chemscore.ZeroCoef>
-5.4800

> <Gold.Chemscore.Hbond>
0.9998

> <Gold.Chemscore.Metal>
0.0000

> <Gold.Chemscore.Lipo>
98.5137

> <Gold.Chemscore.Internal_Hbond>
0.0000

> <Gold.Chemscore.DEClash>
0.0646

> <Gold.Chemscore.DEInternal>
2.0871

> <Gold.Chemscore.Rot>
1.6411

> <Gold.Chemscore.Internal.Correction>
   9.000000E+99

> <Gold.Chemscore.Hbonds>
donor molecule, donor type, donor heavy atom, donor atom, acceptor molecule, acceptor atom, score
      P1  H 10752 10763       L1     3  1.00

> <Gold.Chemscore.Hbond.Weighted>
-3.3394

> <Gold.Chemscore.Metal.Weighted>
-0.0000

> <Gold.Chemscore.Lipo.Weighted>
-11.5261

> <Gold.Chemscore.Internal_Hbond.Weighted>
0.0000

> <Gold.Chemscore.DEClash.Weighted>
0.0646

> <Gold.Chemscore.DEInternal.Weighted>
2.0871

> <Gold.Chemscore.Rot.Weighted>
4.2013

> <Gold.Chemscore.Internal.Correction.Weighted>
   9.000000E+99

> <Gold.Protein.RotatedTorsions>
[ 6907 6896 6895 6894 ] final   98.09 input  -60.11 | X-H torsion
[ 7974 7965 7964 7962 ] final  173.80 input  175.53 | X-H torsion
[ 8008 7997 7996 7995 ] final  174.10 input   59.86 | X-H torsion
[ 10167 10162 10161 10158 ] final  109.78 input  -65.29 | X-H torsion
[ 10718 10713 10712 10709 ] final   80.49 input   66.30 | X-H torsion
[ 10763 10752 10751 10750 ] final   45.40 input  -60.55 | X-H torsion
[ 11005 11000 10999 10996 ] final -121.35 input  -57.11 | X-H torsion

> <Gold.Protein.ActiveResidues>
 VAL166  LYS551  ARG553  GLY616  TRP617  ASP618  TYR619  PRO620  LYS621  CYS622 
 ASP623  PHE694  ASN695  SER759  ASP760  ASP761  ALA762  ILE779  LEU786  VAL792 
 PHE793  MET794  SER795  GLU796  ALA797  LYS798  CYS799  TRP800  GLU811  SER814 

> <Gold.Protein.RotatedAtoms>
  152.5414  134.0634  159.8161 H   0  0  0  0  0  0  0  0  0  0  0  0  # atno 6907 bound_to 6896
  151.0758  133.5422  159.2631 H   0  0  0  0  0  0  0  0  0  0  0  0  # atno 6908 bound_to 6896
  151.2267  135.0547  159.9025 H   0  0  0  0  0  0  0  0  0  0  0  0  # atno 6909 bound_to 6896
  144.7235  139.9702  143.6437 H   0  0  0  0  0  0  0  0  0  0  0  0  # atno 7974 bound_to 7965
  156.1009  140.1443  156.9469 H   0  0  0  0  0  0  0  0  0  0  0  0  # atno 8008 bound_to 7997
  154.4702  140.0912  156.7169 H   0  0  0  0  0  0  0  0  0  0  0  0  # atno 8009 bound_to 7997
  155.4762  140.3443  155.4335 H   0  0  0  0  0  0  0  0  0  0  0  0  # atno 8010 bound_to 7997
  139.6739  144.7123  151.1637 H   0  0  0  0  0  0  0  0  0  0  0  0  # atno 10167 bound_to 10162
  157.6807  130.9961  150.2086 H   0  0  0  0  0  0  0  0  0  0  0  0  # atno 10718 bound_to 10713
  152.9825  135.6041  154.3431 H   0  0  0  0  0  0  0  0  0  0  0  0  # atno 10763 bound_to 10752
  154.3126  135.2771  155.2560 H   0  0  0  0  0  0  0  0  0  0  0  0  # atno 10764 bound_to 10752
  154.4763  135.5929  153.6413 H   0  0  0  0  0  0  0  0  0  0  0  0  # atno 10765 bound_to 10752
  141.0077  134.0311  157.3456 H   0  0  0  0  0  0  0  0  0  0  0  0  # atno 11005 bound_to 11000
  146.0568  139.3565  143.0605 LP  0  0  0  0  0  0  0  0  0  0  0  0  # atno 17320 bound_to 7965
  145.8144  140.9710  143.0932 LP  0  0  0  0  0  0  0  0  0  0  0  0  # atno 17321 bound_to 7965
  140.7628  143.5801  150.8904 LP  0  0  0  0  0  0  0  0  0  0  0  0  # atno 17342 bound_to 10162
  139.9468  143.6318  152.3039 LP  0  0  0  0  0  0  0  0  0  0  0  0  # atno 17343 bound_to 10162
  156.2762  130.3728  149.7981 LP  0  0  0  0  0  0  0  0  0  0  0  0  # atno 17370 bound_to 10713
  156.5683  130.8414  151.3349 LP  0  0  0  0  0  0  0  0  0  0  0  0  # atno 17371 bound_to 10713
  139.9072  135.0182  156.7538 LP  0  0  0  0  0  0  0  0  0  0  0  0  # atno 17394 bound_to 11000
  140.6786  133.9495  155.7897 LP  0  0  0  0  0  0  0  0  0  0  0  0  # atno 17395 bound_to 11000

$$$$
