AV-unprocessed.smi:116|AV-procd|sdf|1127|dock4
  -GOLD-   2262018253D 1   1.00000     0.00000
 Structure written by MMmdl.
 38 41  0  0  0  0  0  0  0  0  1 V2000
  151.2369  137.2067  159.7927 O   0  0  0  0  0  0  0  0  0  0  0  0
  151.0367  137.6027  158.6432 C   0  0  0  0  0  0  0  0  0  0  0  0
  149.8991  137.1725  157.8372 C   0  0  0  0  0  0  0  0  0  0  0  0
  149.0205  136.2916  158.3453 F   0  0  0  0  0  0  0  0  0  0  0  0
  149.7058  137.6515  156.5895 C   0  0  0  0  0  0  0  0  0  0  0  0
  150.5579  138.5642  155.9900 N   0  0  0  0  0  0  0  0  0  0  0  0
  150.2928  139.1041  154.6010 C   0  0  2  0  0  0  0  0  0  0  0  0
  150.0253  140.6121  154.6626 C   0  0  0  0  0  0  0  0  0  0  0  0
  148.5205  140.6509  154.8134 C   0  0  0  0  0  0  0  0  0  0  0  0
  148.0952  139.4629  153.9571 C   0  0  0  0  0  0  0  0  0  0  0  0
  149.1417  138.5012  154.0824 O   0  0  0  0  0  0  0  0  0  0  0  0
  151.6871  139.0339  156.6948 C   0  0  0  0  0  0  0  0  0  0  0  0
  152.4481  139.8619  156.1880 O   0  0  0  0  0  0  0  0  0  0  0  0
  151.8939  138.5317  158.0015 N   0  0  0  0  0  0  0  0  0  0  0  0
  153.0201  139.0642  158.7530 C   0  0  0  0  0  0  0  0  0  0  0  0
  152.7757  140.4931  159.1355 C   0  0  0  0  0  0  0  0  0  0  0  0
  152.3817  141.4168  158.2483 N   0  0  0  0  0  0  0  0  0  0  0  0
  152.2624  142.6573  158.8679 C   0  0  0  0  0  0  0  0  0  0  0  0
  151.8853  143.8780  158.2610 C   0  0  0  0  0  0  0  0  0  0  0  0
  151.8075  145.0700  159.0086 C   0  0  0  0  0  0  0  0  0  0  0  0
  152.1049  145.0643  160.3845 C   0  0  0  0  0  0  0  0  0  0  0  0
  152.4814  143.8642  161.0149 C   0  0  0  0  0  0  0  0  0  0  0  0
  152.5593  142.6775  160.2627 C   0  0  0  0  0  0  0  0  0  0  0  0
  153.0038  141.0599  160.7954 S   0  0  0  0  0  0  0  0  0  0  0  0
  148.8386  137.3007  156.0507 H   0  0  0  0  0  0  0  0  0  0  0  0
  151.1609  138.8277  154.0003 H   0  0  0  0  0  0  0  0  0  0  0  0
  150.5674  141.1021  155.4723 H   0  0  0  0  0  0  0  0  0  0  0  0
  150.3267  141.0580  153.7140 H   0  0  0  0  0  0  0  0  0  0  0  0
  148.2415  140.4873  155.8551 H   0  0  0  0  0  0  0  0  0  0  0  0
  148.0800  141.5929  154.4859 H   0  0  0  0  0  0  0  0  0  0  0  0
  147.1338  139.0497  154.2626 H   0  0  0  0  0  0  0  0  0  0  0  0
  148.0199  139.7591  152.9103 H   0  0  0  0  0  0  0  0  0  0  0  0
  153.1950  138.4488  159.6360 H   0  0  0  0  0  0  0  0  0  0  0  0
  153.9118  138.9675  158.1310 H   0  0  0  0  0  0  0  0  0  0  0  0
  151.6547  143.8967  157.2060 H   0  0  0  0  0  0  0  0  0  0  0  0
  151.5188  145.9913  158.5243 H   0  0  0  0  0  0  0  0  0  0  0  0
  152.0446  145.9797  160.9550 H   0  0  0  0  0  0  0  0  0  0  0  0
  152.7108  143.8536  162.0703 H   0  0  0  0  0  0  0  0  0  0  0  0
  1  2  2  0  0  0  0
  2 14  1  0  0  0  0
  2  3  1  0  0  0  0
  3  4  1  0  0  0  0
  3  5  2  0  0  0  0
  5  6  1  0  0  0  0
  5 25  1  0  0  0  0
  6  7  1  0  0  0  0
  6 12  1  0  0  0  0
  7 11  1  0  0  0  0
  7  8  1  0  0  0  0
  7 26  1  0  0  0  0
  8  9  1  0  0  0  0
  8 27  1  0  0  0  0
  8 28  1  0  0  0  0
  9 10  1  0  0  0  0
  9 29  1  0  0  0  0
  9 30  1  0  0  0  0
 10 11  1  0  0  0  0
 10 31  1  0  0  0  0
 10 32  1  0  0  0  0
 12 13  2  0  0  0  0
 12 14  1  0  0  0  0
 14 15  1  0  0  0  0
 15 16  1  0  0  0  0
 15 33  1  0  0  0  0
 15 34  1  0  0  0  0
 16 24  1  0  0  0  0
 16 17  2  0  0  0  0
 17 18  1  0  0  0  0
 18 23  2  0  0  0  0
 18 19  1  0  0  0  0
 19 20  2  0  0  0  0
 19 35  1  0  0  0  0
 20 21  1  0  0  0  0
 20 36  1  0  0  0  0
 21 22  2  0  0  0  0
 21 37  1  0  0  0  0
 22 23  1  0  0  0  0
 22 38  1  0  0  0  0
 23 24  1  0  0  0  0
M  END
> <s_m_source_file>
AV-unprocessed.smi

> <i_m_source_file_index>
116

> <i_lp_mmshare_version>
43012

> <i_f3d_flags>
0

> <s_epik_input>
TzFbQ0gyXVtDSDJdW0NIMl1bQ0BIXTFuKFtjSF1jKEYpYzI9TyljKD1PKW4yW0NIMl1jKG4zKXNjKGMzNClbY0hdW2NIXVtjSF1bY0hdNA==

> <s_epik_cmdline>
J2VwaWtfcHl0aG9uJywgJy1waCcsICc3LjAnLCAnLXRuJywgJzgnLCAnLW1hJywgJzIwMCcsICctbWV0YWxfYmluZGluZycsICctaW1hZScsICc8aW5maWxlLm1hZT4nLCAnLW9tYWUnLCAnPG91dGZpbGUubWFlPic=

> <r_lp_tautomer_probability>
1

> <r_epik_Ionization_Penalty>
4.2492e-05

> <r_epik_Ionization_Penalty_Charging>
2.84664e-09

> <r_epik_Ionization_Penalty_Neutral>
4.24891e-05

> <r_epik_State_Penalty>
-0

> <r_epik_Charging_Adjusted_Penalty>
2.84664e-09

> <i_epik_Tot_Q>
0

> <i_epik_Tot_abs_Q>
0

> <r_epik_Metal_State_Penalty>
-0

> <b_epik_Metal_Only>
0

> <s_epik_Chemistry_Notes>
This compound contains an acetal/aminal-like group ( X-CH(R)-Y where X, Y are N, S, or O) that may be acid/base labile, releasing an aldehyde.

> <s_lp_Force_Field>
OPLS_2005

> <r_lp_Energy>
31.0424

> <b_lp_Chiralities_Consistent>
1

> <s_lp_Variant>
AV-unprocessed.smi:116-1

> <Gold.Version>
5.8.1

> <Gold.Id.Protein>
6NUR|6NUR_protein|mol2

> <Gold.PLP.Fitness>
49.2632

> <Gold.PLP.PLP>
-43.7082

> <Gold.PLP.part.hbond>
-1.9844

> <Gold.PLP.part.metal>
0.0000

> <Gold.PLP.part.buried>
-2.7185

> <Gold.PLP.part.nonpolar>
-38.8032

> <Gold.PLP.part.repulsive>
0.2320

> <Gold.PLP.ligand.clash>
0.0000

> <Gold.PLP.ligand.torsion>
0.2299

> <Gold.PLP.Chemscore.Hbond>
2.0000

> <Gold.PLP.Chemscore.CHOScore>
0.0000

> <Gold.PLP.Chemscore.Metal>
0.0000

> <Gold.Chemscore.Hbonds>
donor molecule, donor type, donor heavy atom, donor atom, acceptor molecule, acceptor atom, score
      P1  H  6896  6908       L1     1  0.94
      P1  H  7997  8008       L1    13  1.00

> <Gold.PLP.Chemscore.Internal.Correction>
0.0148

> <Gold.Rescore>
     Score         DG    S(hbond)    S(metal)    S(lipo)     H(rot)  DE(clash)    DE(int)     intcor
     16.95     -21.17       1.94        0.00     112.02       1.52       0.17       4.05       ----

> <Gold.Chemscore.Fitness>
16.9468

> <Gold.Chemscore.DG>
-21.1702

> <Gold.Chemscore.ZeroCoef>
-5.4800

> <Gold.Chemscore.Hbond>
1.9365

> <Gold.Chemscore.Metal>
0.0000

> <Gold.Chemscore.Lipo>
112.0201

> <Gold.Chemscore.Internal_Hbond>
0.0000

> <Gold.Chemscore.DEClash>
0.1688

> <Gold.Chemscore.DEInternal>
4.0546

> <Gold.Chemscore.Rot>
1.5172

> <Gold.Chemscore.Internal.Correction>
   9.000000E+99

> <Gold.Chemscore.Hbonds>
donor molecule, donor type, donor heavy atom, donor atom, acceptor molecule, acceptor atom, score
      P1  H  6896  6908       L1     1  0.79
      P1  H  7997  8008       L1    13  0.98

> <Gold.Chemscore.Hbond.Weighted>
-6.4680

> <Gold.Chemscore.Metal.Weighted>
-0.0000

> <Gold.Chemscore.Lipo.Weighted>
-13.1064

> <Gold.Chemscore.Internal_Hbond.Weighted>
0.0000

> <Gold.Chemscore.DEClash.Weighted>
0.1688

> <Gold.Chemscore.DEInternal.Weighted>
4.0546

> <Gold.Chemscore.Rot.Weighted>
3.8841

> <Gold.Chemscore.Internal.Correction.Weighted>
   9.000000E+99

> <Gold.Protein.RotatedTorsions>
[ 6907 6896 6895 6894 ] final -127.41 input  -60.11 | X-H torsion
[ 7974 7965 7964 7962 ] final  -63.87 input  175.53 | X-H torsion
[ 8008 7997 7996 7995 ] final  -54.27 input   59.86 | X-H torsion
[ 10167 10162 10161 10158 ] final  -89.04 input  -65.29 | X-H torsion
[ 10718 10713 10712 10709 ] final  -54.48 input   66.30 | X-H torsion
[ 10763 10752 10751 10750 ] final   52.83 input  -60.55 | X-H torsion
[ 11005 11000 10999 10996 ] final  -73.60 input  -57.11 | X-H torsion

> <Gold.Protein.ActiveResidues>
 VAL166  LYS551  ARG553  GLY616  TRP617  ASP618  TYR619  PRO620  LYS621  CYS622 
 ASP623  PHE694  ASN695  SER759  ASP760  ASP761  ALA762  ILE779  LEU786  VAL792 
 PHE793  MET794  SER795  GLU796  ALA797  LYS798  CYS799  TRP800  GLU811  SER814 

> <Gold.Protein.RotatedAtoms>
  150.9070  133.7046  159.2864 H   0  0  0  0  0  0  0  0  0  0  0  0  # atno 6907 bound_to 6896
  151.4545  135.1031  159.9717 H   0  0  0  0  0  0  0  0  0  0  0  0  # atno 6908 bound_to 6896
  152.4909  133.8447  159.7226 H   0  0  0  0  0  0  0  0  0  0  0  0  # atno 6909 bound_to 6896
  145.7738  140.8799  143.0366 H   0  0  0  0  0  0  0  0  0  0  0  0  # atno 7974 bound_to 7965
  154.4157  140.1180  156.5288 H   0  0  0  0  0  0  0  0  0  0  0  0  # atno 8008 bound_to 7997
  155.6627  140.3496  155.4769 H   0  0  0  0  0  0  0  0  0  0  0  0  # atno 8009 bound_to 7997
  155.9699  140.1139  157.0811 H   0  0  0  0  0  0  0  0  0  0  0  0  # atno 8010 bound_to 7997
  140.3688  143.2805  151.9526 H   0  0  0  0  0  0  0  0  0  0  0  0  # atno 10167 bound_to 10162
  156.1447  130.4153  150.0044 H   0  0  0  0  0  0  0  0  0  0  0  0  # atno 10718 bound_to 10713
  152.9791  135.5799  154.4643 H   0  0  0  0  0  0  0  0  0  0  0  0  # atno 10763 bound_to 10752
  154.4214  135.2771  155.1975 H   0  0  0  0  0  0  0  0  0  0  0  0  # atno 10764 bound_to 10752
  154.3722  135.6165  153.5800 H   0  0  0  0  0  0  0  0  0  0  0  0  # atno 10765 bound_to 10752
  141.1625  133.6883  156.7237 H   0  0  0  0  0  0  0  0  0  0  0  0  # atno 11005 bound_to 11000
  144.6808  139.9892  143.7484 LP  0  0  0  0  0  0  0  0  0  0  0  0  # atno 17320 bound_to 7965
  146.0143  139.3196  143.0851 LP  0  0  0  0  0  0  0  0  0  0  0  0  # atno 17321 bound_to 7965
  139.4806  144.5926  151.7746 LP  0  0  0  0  0  0  0  0  0  0  0  0  # atno 17342 bound_to 10162
  140.5054  144.1106  150.5981 LP  0  0  0  0  0  0  0  0  0  0  0  0  # atno 17343 bound_to 10162
  156.7919  130.9259  151.3646 LP  0  0  0  0  0  0  0  0  0  0  0  0  # atno 17370 bound_to 10713
  157.6606  130.8963  149.9822 LP  0  0  0  0  0  0  0  0  0  0  0  0  # atno 17371 bound_to 10713
  140.2797  134.8327  157.3922 LP  0  0  0  0  0  0  0  0  0  0  0  0  # atno 17394 bound_to 11000
  140.1445  134.4929  155.8007 LP  0  0  0  0  0  0  0  0  0  0  0  0  # atno 17395 bound_to 11000

$$$$
