AV-unprocessed.smi:670|AV-procd|sdf|3268|dock2
  -GOLD-   22720 0223D 1   1.00000     0.00000
 Structure written by MMmdl.
 44 45  0  0  0  0  0  0  0  0  2 V2000
  153.0156  141.9545  160.9967 C   0  0  0  0  0  0  0  0  0  0  0  0
  152.0227  142.8820  160.2779 C   0  0  1  0  0  0  0  0  0  0  0  0
  152.3560  144.3617  160.5585 C   0  0  0  0  0  0  0  0  0  0  0  0
  151.3798  145.3115  159.8474 C   0  0  0  0  0  0  0  0  0  0  0  0
  151.3547  145.0432  158.3367 C   0  0  0  0  0  0  0  0  0  0  0  0
  151.0125  143.5754  158.0493 C   0  0  0  0  0  0  0  0  0  0  0  0
  151.9855  142.6103  158.7572 C   0  0  2  0  0  0  0  0  0  0  0  0
  151.5248  141.2818  158.5541 O   0  0  0  0  0  0  0  0  0  0  0  0
  151.3244  140.9315  157.1922 C   0  0  0  0  0  0  0  0  0  0  0  0
  152.0391  139.6048  156.9198 C   0  0  0  0  0  0  0  0  0  0  0  0
  152.2006  138.8750  158.1707 N   0  0  0  0  0  0  0  0  0  0  0  0
  153.1261  139.1045  159.1157 C   0  0  0  0  0  0  0  0  0  0  0  0
  153.9436  140.0223  159.0468 O   0  0  0  0  0  0  0  0  0  0  0  0
  153.1615  138.1536  160.3250 C   0  0  0  0  0  0  0  0  0  0  0  0
  154.2735  137.1876  160.3163 N   0  0  0  0  0  0  0  0  0  0  0  0
  153.8472  135.7909  160.3178 N   0  5  0  0  0  0  0  0  0  0  0  0
  154.7887  134.8105  160.2925 C   0  0  0  0  0  0  0  0  0  0  0  0
  154.5057  133.6152  160.2713 O   0  0  0  0  0  0  0  0  0  0  0  0
  156.1876  135.2049  160.2921 C   0  0  0  0  0  0  0  0  0  0  0  0
  156.5526  136.5020  160.2961 C   0  0  0  0  0  0  0  0  0  0  0  0
  155.5778  137.5859  160.2949 C   0  0  0  0  0  0  0  0  0  0  0  0
  155.9049  138.7722  160.2707 O   0  0  0  0  0  0  0  0  0  0  0  0
  154.0308  142.0962  160.6247 H   0  0  0  0  0  0  0  0  0  0  0  0
  152.7527  140.9059  160.8547 H   0  0  0  0  0  0  0  0  0  0  0  0
  153.0242  142.1462  162.0699 H   0  0  0  0  0  0  0  0  0  0  0  0
  151.0291  142.6815  160.6822 H   0  0  0  0  0  0  0  0  0  0  0  0
  152.3308  144.5527  161.6320 H   0  0  0  0  0  0  0  0  0  0  0  0
  153.3737  144.5785  160.2311 H   0  0  0  0  0  0  0  0  0  0  0  0
  150.3777  145.1829  160.2586 H   0  0  0  0  0  0  0  0  0  0  0  0
  151.6620  146.3475  160.0367 H   0  0  0  0  0  0  0  0  0  0  0  0
  150.6261  145.6952  157.8540 H   0  0  0  0  0  0  0  0  0  0  0  0
  152.3255  145.2854  157.9027 H   0  0  0  0  0  0  0  0  0  0  0  0
  149.9980  143.3693  158.3911 H   0  0  0  0  0  0  0  0  0  0  0  0
  151.0122  143.4078  156.9725 H   0  0  0  0  0  0  0  0  0  0  0  0
  152.9933  142.7307  158.3539 H   0  0  0  0  0  0  0  0  0  0  0  0
  150.2658  140.8302  156.9490 H   0  0  0  0  0  0  0  0  0  0  0  0
  151.7257  141.7223  156.5578 H   0  0  0  0  0  0  0  0  0  0  0  0
  151.4643  139.0257  156.1956 H   0  0  0  0  0  0  0  0  0  0  0  0
  153.0205  139.7826  156.4792 H   0  0  0  0  0  0  0  0  0  0  0  0
  151.5639  138.1062  158.3292 H   0  0  0  0  0  0  0  0  0  0  0  0
  153.1921  138.7488  161.2391 H   0  0  0  0  0  0  0  0  0  0  0  0
  152.2088  137.6228  160.3600 H   0  0  0  0  0  0  0  0  0  0  0  0
  156.9510  134.4410  160.2868 H   0  0  0  0  0  0  0  0  0  0  0  0
  157.6037  136.7488  160.2918 H   0  0  0  0  0  0  0  0  0  0  0  0
  1  2  1  0  0  0  0
  1 23  1  0  0  0  0
  1 24  1  0  0  0  0
  1 25  1  0  0  0  0
  2  7  1  0  0  0  0
  2  3  1  0  0  0  0
  2 26  1  0  0  0  0
  3  4  1  0  0  0  0
  3 27  1  0  0  0  0
  3 28  1  0  0  0  0
  4  5  1  0  0  0  0
  4 29  1  0  0  0  0
  4 30  1  0  0  0  0
  5  6  1  0  0  0  0
  5 31  1  0  0  0  0
  5 32  1  0  0  0  0
  6  7  1  0  0  0  0
  6 33  1  0  0  0  0
  6 34  1  0  0  0  0
  7  8  1  0  0  0  0
  7 35  1  0  0  0  0
  8  9  1  0  0  0  0
  9 10  1  0  0  0  0
  9 36  1  0  0  0  0
  9 37  1  0  0  0  0
 10 11  1  0  0  0  0
 10 38  1  0  0  0  0
 10 39  1  0  0  0  0
 11 12  1  0  0  0  0
 11 40  1  0  0  0  0
 12 13  2  0  0  0  0
 12 14  1  0  0  0  0
 14 41  1  0  0  0  0
 14 42  1  0  0  0  0
 14 15  1  0  0  0  0
 15 16  1  0  0  0  0
 15 21  1  0  0  0  0
 16 17  1  0  0  0  0
 17 18  2  0  0  0  0
 17 19  1  0  0  0  0
 19 43  1  0  0  0  0
 19 20  2  0  0  0  0
 20 44  1  0  0  0  0
 20 21  1  0  0  0  0
 21 22  2  0  0  0  0
M  CHG  1  16  -1
M  END
> <s_m_source_file>
AV-unprocessed.smi

> <i_m_source_file_index>
670

> <i_lp_mmshare_version>
43012

> <i_f3d_flags>
0

> <s_epik_input>
W0NIM11bQ0BASF0xW0NIMl1bQ0gyXVtDSDJdW0NIMl1bQ0BIXTFPW0NIMl1bQ0gyXVtOSF1DKD1PKVtDSDJdbjJbbkhdYyg9TylbY0hdW2NIXWMyPU8=

> <s_epik_cmdline>
J2VwaWtfcHl0aG9uJywgJy1waCcsICc3LjAnLCAnLXRuJywgJzgnLCAnLW1hJywgJzIwMCcsICctbWV0YWxfYmluZGluZycsICctaW1hZScsICc8aW5maWxlLm1hZT4nLCAnLW9tYWUnLCAnPG91dGZpbGUubWFlPic=

> <r_lp_tautomer_probability>
1

> <r_epik_Ionization_Penalty>
0.0975638

> <r_epik_Ionization_Penalty_Charging>
0.0975637

> <r_epik_Ionization_Penalty_Neutral>
2.78599e-08

> <r_epik_State_Penalty>
0.0343507

> <r_epik_Charging_Adjusted_Penalty>
0.131914

> <i_epik_Tot_Q>
-1

> <i_epik_Tot_abs_Q>
1

> <r_epik_Metal_State_Penalty>
0.0343507

> <b_epik_Metal_Only>
0

> <s_lp_Force_Field>
OPLS_2005

> <r_lp_Energy>
24.2447

> <b_lp_Chiralities_Consistent>
1

> <s_lp_Variant>
AV-unprocessed.smi:670-4

> <Gold.Version>
5.8.1

> <Gold.Id.Protein>
6NUR|6NUR_protein|mol2

> <Gold.PLP.Fitness>
41.7971

> <Gold.PLP.PLP>
-34.5786

> <Gold.PLP.part.hbond>
-2.3397

> <Gold.PLP.part.metal>
0.0000

> <Gold.PLP.part.buried>
-4.3880

> <Gold.PLP.part.nonpolar>
-26.7231

> <Gold.PLP.part.repulsive>
0.0748

> <Gold.PLP.ligand.clash>
0.0000

> <Gold.PLP.ligand.torsion>
0.9242

> <Gold.PLP.Chemscore.Hbond>
3.0000

> <Gold.PLP.Chemscore.CHOScore>
0.0000

> <Gold.PLP.Chemscore.Metal>
0.0000

> <Gold.Chemscore.Hbonds>
donor molecule, donor type, donor heavy atom, donor atom, acceptor molecule, acceptor atom, score
      P1  H  6896  6909       L1    16  1.70
      P1  H  7997  8008       L1    13  1.00

> <Gold.PLP.Chemscore.Internal.Correction>
0.0669

> <Gold.Rescore>
     Score         DG    S(hbond)    S(metal)    S(lipo)     H(rot)  DE(clash)    DE(int)     intcor
     12.91     -16.64       1.95        0.00      93.26       2.45       0.04       3.70       ----

> <Gold.Chemscore.Fitness>
12.9076

> <Gold.Chemscore.DG>
-16.6442

> <Gold.Chemscore.ZeroCoef>
-5.4800

> <Gold.Chemscore.Hbond>
1.9527

> <Gold.Chemscore.Metal>
0.0000

> <Gold.Chemscore.Lipo>
93.2610

> <Gold.Chemscore.Internal_Hbond>
0.0000

> <Gold.Chemscore.DEClash>
0.0383

> <Gold.Chemscore.DEInternal>
3.6982

> <Gold.Chemscore.Rot>
2.4490

> <Gold.Chemscore.Internal.Correction>
   9.000000E+99

> <Gold.Chemscore.Hbonds>
donor molecule, donor type, donor heavy atom, donor atom, acceptor molecule, acceptor atom, score
      P1  H  6896  6909       L1    16  0.15
      P1  H  7997  8008       L1    13  0.71

> <Gold.Chemscore.Hbond.Weighted>
-6.5220

> <Gold.Chemscore.Metal.Weighted>
-0.0000

> <Gold.Chemscore.Lipo.Weighted>
-10.9115

> <Gold.Chemscore.Internal_Hbond.Weighted>
0.0000

> <Gold.Chemscore.DEClash.Weighted>
0.0383

> <Gold.Chemscore.DEInternal.Weighted>
3.6982

> <Gold.Chemscore.Rot.Weighted>
6.2694

> <Gold.Chemscore.Internal.Correction.Weighted>
   9.000000E+99

> <Gold.Protein.RotatedTorsions>
[ 6907 6896 6895 6894 ] final  175.88 input  -60.11 | X-H torsion
[ 7974 7965 7964 7962 ] final  122.31 input  175.53 | X-H torsion
[ 8008 7997 7996 7995 ] final -105.38 input   59.86 | X-H torsion
[ 10167 10162 10161 10158 ] final  -43.23 input  -65.29 | X-H torsion
[ 10718 10713 10712 10709 ] final  -72.81 input   66.30 | X-H torsion
[ 10763 10752 10751 10750 ] final  -53.81 input  -60.55 | X-H torsion
[ 11005 11000 10999 10996 ] final   65.03 input  -57.11 | X-H torsion

> <Gold.Protein.ActiveResidues>
 VAL166  LYS551  ARG553  GLY616  TRP617  ASP618  TYR619  PRO620  LYS621  CYS622 
 ASP623  PHE694  ASN695  SER759  ASP760  ASP761  ALA762  ILE779  LEU786  VAL792 
 PHE793  MET794  SER795  GLU796  ALA797  LYS798  CYS799  TRP800  GLU811  SER814 

> <Gold.Protein.RotatedAtoms>
  151.7291  133.3317  159.3335 H   0  0  0  0  0  0  0  0  0  0  0  0  # atno 6907 bound_to 6896
  150.7620  134.6379  159.6231 H   0  0  0  0  0  0  0  0  0  0  0  0  # atno 6908 bound_to 6896
  152.3603  134.6884  160.0261 H   0  0  0  0  0  0  0  0  0  0  0  0  # atno 6909 bound_to 6896
  145.1091  139.3465  143.4772 H   0  0  0  0  0  0  0  0  0  0  0  0  # atno 7974 bound_to 7965
  154.8990  140.0413  157.1882 H   0  0  0  0  0  0  0  0  0  0  0  0  # atno 8008 bound_to 7997
  154.8463  140.2922  155.5605 H   0  0  0  0  0  0  0  0  0  0  0  0  # atno 8009 bound_to 7997
  156.2994  140.2473  156.3415 H   0  0  0  0  0  0  0  0  0  0  0  0  # atno 8010 bound_to 7997
  140.6941  143.2994  151.3322 H   0  0  0  0  0  0  0  0  0  0  0  0  # atno 10167 bound_to 10162
  156.0305  130.4380  150.2649 H   0  0  0  0  0  0  0  0  0  0  0  0  # atno 10718 bound_to 10713
  154.1648  135.6469  153.4994 H   0  0  0  0  0  0  0  0  0  0  0  0  # atno 10763 bound_to 10752
  153.0100  135.5369  154.6674 H   0  0  0  0  0  0  0  0  0  0  0  0  # atno 10764 bound_to 10752
  154.5997  135.2942  155.0520 H   0  0  0  0  0  0  0  0  0  0  0  0  # atno 10765 bound_to 10752
  139.9920  134.6576  156.0074 H   0  0  0  0  0  0  0  0  0  0  0  0  # atno 11005 bound_to 11000
  146.3527  140.1001  142.8608 LP  0  0  0  0  0  0  0  0  0  0  0  0  # atno 17320 bound_to 7965
  145.0868  140.9258  143.4793 LP  0  0  0  0  0  0  0  0  0  0  0  0  # atno 17321 bound_to 7965
  139.6376  144.0601  152.2528 LP  0  0  0  0  0  0  0  0  0  0  0  0  # atno 17342 bound_to 10162
  140.0096  144.6234  150.7659 LP  0  0  0  0  0  0  0  0  0  0  0  0  # atno 17343 bound_to 10162
  157.0751  131.0128  151.3176 LP  0  0  0  0  0  0  0  0  0  0  0  0  # atno 17370 bound_to 10713
  157.4970  130.7856  149.7565 LP  0  0  0  0  0  0  0  0  0  0  0  0  # atno 17371 bound_to 10713
  141.1574  133.6541  156.4205 LP  0  0  0  0  0  0  0  0  0  0  0  0  # atno 17394 bound_to 11000
  140.4890  134.6594  157.5202 LP  0  0  0  0  0  0  0  0  0  0  0  0  # atno 17395 bound_to 11000

$$$$
