AV-unprocessed.smi:1361|AV-procd|sdf|5556|dock8
  -GOLD-   22720 5143D 1   1.00000     0.00000
 Structure written by MMmdl.
 46 47  0  0  0  0  0  0  0  0  1 V2000
  150.3942  134.4390  154.6359 C   0  0  0  0  0  0  0  0  0  0  0  0
  150.4780  135.8533  155.1677 C   0  0  0  0  0  0  0  0  0  0  0  0
  150.0096  136.8097  154.2821 N   0  0  0  0  0  0  0  0  0  0  0  0
  150.0344  138.1332  154.6854 C   0  0  0  0  0  0  0  0  0  0  0  0
  149.4913  139.1142  153.6607 C   0  0  0  0  0  0  0  0  0  0  0  0
  150.5108  138.4865  155.9063 C   0  0  0  0  0  0  0  0  0  0  0  0
  150.5459  139.9335  156.3928 C   0  0  0  0  0  0  0  0  0  0  0  0
  151.8506  140.3682  157.0622 C   0  0  0  0  0  0  0  0  0  0  0  0
  152.9225  139.8961  156.6847 O   0  0  0  0  0  0  0  0  0  0  0  0
  151.7437  141.2685  158.0517 N   0  0  0  0  0  0  0  0  0  0  0  0
  152.8513  141.8166  158.8314 C   0  0  0  0  0  0  0  0  0  0  0  0
  152.7295  141.3542  160.3007 C   0  0  0  0  0  0  0  0  0  0  0  0
  153.6846  142.0606  161.2807 C   0  0  0  0  0  0  0  0  0  0  0  0
  152.9865  142.9482  162.3279 C   0  0  0  0  0  0  0  0  0  0  0  0
  151.8476  143.8623  161.8291 C   0  0  0  0  0  0  0  0  0  0  0  0
  152.1794  144.7795  160.6387 C   0  0  0  0  0  0  0  0  0  0  0  0
  151.8361  144.2060  159.2466 C   0  0  0  0  0  0  0  0  0  0  0  0
  152.9380  143.3440  158.6015 C   0  0  0  0  0  0  0  0  0  0  0  0
  151.0148  137.4196  156.8034 C   0  0  0  0  0  0  0  0  0  0  0  0
  151.4782  137.6764  157.9137 O   0  0  0  0  0  0  0  0  0  0  0  0
  150.9549  136.0914  156.3513 N   0  0  0  0  0  0  0  0  0  0  0  0
  149.6454  136.5900  153.3661 H   0  0  0  0  0  0  0  0  0  0  0  0
  150.6335  133.7147  155.4156 H   0  0  0  0  0  0  0  0  0  0  0  0
  151.0980  134.3017  153.8146 H   0  0  0  0  0  0  0  0  0  0  0  0
  149.3887  134.2262  154.2715 H   0  0  0  0  0  0  0  0  0  0  0  0
  148.6397  139.6602  154.0667 H   0  0  0  0  0  0  0  0  0  0  0  0
  149.1597  138.6058  152.7545 H   0  0  0  0  0  0  0  0  0  0  0  0
  150.2600  139.8329  153.3766 H   0  0  0  0  0  0  0  0  0  0  0  0
  149.7280  140.1279  157.0871 H   0  0  0  0  0  0  0  0  0  0  0  0
  150.3419  140.5872  155.5440 H   0  0  0  0  0  0  0  0  0  0  0  0
  150.8194  141.5988  158.2884 H   0  0  0  0  0  0  0  0  0  0  0  0
  153.7808  141.4039  158.4343 H   0  0  0  0  0  0  0  0  0  0  0  0
  151.6973  141.4365  160.6390 H   0  0  0  0  0  0  0  0  0  0  0  0
  152.9373  140.2838  160.3346 H   0  0  0  0  0  0  0  0  0  0  0  0
  154.2593  141.3033  161.8151 H   0  0  0  0  0  0  0  0  0  0  0  0
  154.4360  142.6403  160.7473 H   0  0  0  0  0  0  0  0  0  0  0  0
  152.5786  142.3057  163.1091 H   0  0  0  0  0  0  0  0  0  0  0  0
  153.7445  143.5586  162.8200 H   0  0  0  0  0  0  0  0  0  0  0  0
  150.9492  143.2837  161.6147 H   0  0  0  0  0  0  0  0  0  0  0  0
  151.5664  144.4972  162.6702 H   0  0  0  0  0  0  0  0  0  0  0  0
  151.5775  145.6810  160.7608 H   0  0  0  0  0  0  0  0  0  0  0  0
  153.2141  145.1208  160.6843 H   0  0  0  0  0  0  0  0  0  0  0  0
  150.8798  143.6823  159.2592 H   0  0  0  0  0  0  0  0  0  0  0  0
  151.6818  145.0612  158.5874 H   0  0  0  0  0  0  0  0  0  0  0  0
  153.9174  143.7219  158.8941 H   0  0  0  0  0  0  0  0  0  0  0  0
  152.9046  143.5108  157.5237 H   0  0  0  0  0  0  0  0  0  0  0  0
  1 23  1  0  0  0  0
  1 24  1  0  0  0  0
  1 25  1  0  0  0  0
  1  2  1  0  0  0  0
  2  3  1  0  0  0  0
  2 21  2  0  0  0  0
  3  4  1  0  0  0  0
  3 22  1  0  0  0  0
  4  6  2  0  0  0  0
  4  5  1  0  0  0  0
  5 26  1  0  0  0  0
  5 27  1  0  0  0  0
  5 28  1  0  0  0  0
  6 19  1  0  0  0  0
  6  7  1  0  0  0  0
  7  8  1  0  0  0  0
  7 29  1  0  0  0  0
  7 30  1  0  0  0  0
  8  9  2  0  0  0  0
  8 10  1  0  0  0  0
 10 11  1  0  0  0  0
 10 31  1  0  0  0  0
 11 18  1  0  0  0  0
 11 12  1  0  0  0  0
 11 32  1  0  0  0  0
 12 13  1  0  0  0  0
 12 33  1  0  0  0  0
 12 34  1  0  0  0  0
 13 14  1  0  0  0  0
 13 35  1  0  0  0  0
 13 36  1  0  0  0  0
 14 15  1  0  0  0  0
 14 37  1  0  0  0  0
 14 38  1  0  0  0  0
 15 16  1  0  0  0  0
 15 39  1  0  0  0  0
 15 40  1  0  0  0  0
 16 17  1  0  0  0  0
 16 41  1  0  0  0  0
 16 42  1  0  0  0  0
 17 18  1  0  0  0  0
 17 43  1  0  0  0  0
 17 44  1  0  0  0  0
 18 45  1  0  0  0  0
 18 46  1  0  0  0  0
 19 20  2  0  0  0  0
 19 21  1  0  0  0  0
M  END
> <s_m_source_file>
AV-unprocessed.smi

> <i_m_source_file_index>
1361

> <i_lp_mmshare_version>
43012

> <i_f3d_flags>
0

> <s_epik_input>
W0NIM11jMW5jKFtDSDNdKWMoYyg9TylbbkhdMSlbQ0gyXUMoPU8pW05IXVtDSF0yW0NIMl1bQ0gyXVtDSDJdW0NIMl1bQ0gyXVtDSDJdW0NIMl0y

> <s_epik_cmdline>
J2VwaWtfcHl0aG9uJywgJy1waCcsICc3LjAnLCAnLXRuJywgJzgnLCAnLW1hJywgJzIwMCcsICctbWV0YWxfYmluZGluZycsICctaW1hZScsICc8aW5maWxlLm1hZT4nLCAnLW9tYWUnLCAnPG91dGZpbGUubWFlPic=

> <r_lp_tautomer_probability>
0.156392

> <r_epik_Ionization_Penalty>
0.0140222

> <r_epik_Ionization_Penalty_Charging>
0.0138986

> <r_epik_Ionization_Penalty_Neutral>
0.000123575

> <r_epik_State_Penalty>
1.53084

> <r_epik_Charging_Adjusted_Penalty>
1.54474

> <i_epik_Tot_Q>
0

> <i_epik_Tot_abs_Q>
0

> <r_epik_Metal_State_Penalty>
1.70646

> <b_epik_Metal_Only>
0

> <s_lp_Force_Field>
OPLS_2005

> <r_lp_Energy>
27.031

> <b_lp_Chiralities_Consistent>
1

> <s_lp_Variant>
AV-unprocessed.smi:1361-2

> <Gold.Version>
5.8.1

> <Gold.Id.Protein>
6NUR|6NUR_protein|mol2

> <Gold.PLP.Fitness>
42.7891

> <Gold.PLP.PLP>
-37.8846

> <Gold.PLP.part.hbond>
-2.0000

> <Gold.PLP.part.metal>
0.0000

> <Gold.PLP.part.buried>
-2.8676

> <Gold.PLP.part.nonpolar>
-32.9115

> <Gold.PLP.part.repulsive>
0.1058

> <Gold.PLP.ligand.clash>
0.0000

> <Gold.PLP.ligand.torsion>
0.5662

> <Gold.PLP.Chemscore.Hbond>
2.0000

> <Gold.PLP.Chemscore.CHOScore>
0.0000

> <Gold.PLP.Chemscore.Metal>
0.0000

> <Gold.Chemscore.Hbonds>
donor molecule, donor type, donor heavy atom, donor atom, acceptor molecule, acceptor atom, score
      L1  H     3    22       P1  7948  1.00
      P1  H  7997  8009       L1     9  0.80

> <Gold.PLP.Chemscore.Internal.Correction>
0.0369

> <Gold.Rescore>
     Score         DG    S(hbond)    S(metal)    S(lipo)     H(rot)  DE(clash)    DE(int)     intcor
     19.92     -21.42       1.98        0.00     111.99       1.47       0.26       1.24       ----

> <Gold.Chemscore.Fitness>
19.9182

> <Gold.Chemscore.DG>
-21.4187

> <Gold.Chemscore.ZeroCoef>
-5.4800

> <Gold.Chemscore.Hbond>
1.9750

> <Gold.Chemscore.Metal>
0.0000

> <Gold.Chemscore.Lipo>
111.9893

> <Gold.Chemscore.Internal_Hbond>
0.0000

> <Gold.Chemscore.DEClash>
0.2616

> <Gold.Chemscore.DEInternal>
1.2389

> <Gold.Chemscore.Rot>
1.4690

> <Gold.Chemscore.Internal.Correction>
   9.000000E+99

> <Gold.Chemscore.Hbonds>
donor molecule, donor type, donor heavy atom, donor atom, acceptor molecule, acceptor atom, score
      L1  H     3    22       P1  7948  0.50
      P1  H  7997  8009       L1     9  0.79

> <Gold.Chemscore.Hbond.Weighted>
-6.5966

> <Gold.Chemscore.Metal.Weighted>
-0.0000

> <Gold.Chemscore.Lipo.Weighted>
-13.1027

> <Gold.Chemscore.Internal_Hbond.Weighted>
0.0000

> <Gold.Chemscore.DEClash.Weighted>
0.2616

> <Gold.Chemscore.DEInternal.Weighted>
1.2389

> <Gold.Chemscore.Rot.Weighted>
3.7607

> <Gold.Chemscore.Internal.Correction.Weighted>
   9.000000E+99

> <Gold.Protein.RotatedTorsions>
[ 6907 6896 6895 6894 ] final   25.43 input  -60.11 | X-H torsion
[ 7974 7965 7964 7962 ] final -150.23 input  175.53 | X-H torsion
[ 8008 7997 7996 7995 ] final -173.51 input   59.86 | X-H torsion
[ 10167 10162 10161 10158 ] final   77.98 input  -65.29 | X-H torsion
[ 10718 10713 10712 10709 ] final -113.30 input   66.30 | X-H torsion
[ 10763 10752 10751 10750 ] final -109.22 input  -60.55 | X-H torsion
[ 11005 11000 10999 10996 ] final -100.20 input  -57.11 | X-H torsion

> <Gold.Protein.ActiveResidues>
 VAL166  LYS551  ARG553  GLY616  TRP617  ASP618  TYR619  PRO620  LYS621  CYS622 
 ASP623  PHE694  ASN695  SER759  ASP760  ASP761  ALA762  ILE779  LEU786  VAL792 
 PHE793  MET794  SER795  GLU796  ALA797  LYS798  CYS799  TRP800  GLU811  SER814 

> <Gold.Protein.RotatedAtoms>
  151.9723  135.0070  160.0553 H   0  0  0  0  0  0  0  0  0  0  0  0  # atno 6907 bound_to 6896
  152.1771  133.4678  159.4947 H   0  0  0  0  0  0  0  0  0  0  0  0  # atno 6908 bound_to 6896
  150.6911  134.1797  159.4287 H   0  0  0  0  0  0  0  0  0  0  0  0  # atno 6909 bound_to 6896
  144.7920  140.4960  143.5766 H   0  0  0  0  0  0  0  0  0  0  0  0  # atno 7974 bound_to 7965
  155.9584  140.1139  157.0917 H   0  0  0  0  0  0  0  0  0  0  0  0  # atno 8008 bound_to 7997
  154.4126  140.1187  156.5212 H   0  0  0  0  0  0  0  0  0  0  0  0  # atno 8009 bound_to 7997
  155.6752  140.3473  155.4836 H   0  0  0  0  0  0  0  0  0  0  0  0  # atno 8010 bound_to 7997
  139.9758  144.5862  150.7944 H   0  0  0  0  0  0  0  0  0  0  0  0  # atno 10167 bound_to 10162
  156.0758  130.5966  150.8624 H   0  0  0  0  0  0  0  0  0  0  0  0  # atno 10718 bound_to 10713
  154.8181  135.4609  154.0700 H   0  0  0  0  0  0  0  0  0  0  0  0  # atno 10763 bound_to 10752
  153.2076  135.6877  153.8160 H   0  0  0  0  0  0  0  0  0  0  0  0  # atno 10764 bound_to 10752
  153.7623  135.3282  155.3316 H   0  0  0  0  0  0  0  0  0  0  0  0  # atno 10765 bound_to 10752
  141.1279  133.8381  157.1072 H   0  0  0  0  0  0  0  0  0  0  0  0  # atno 11005 bound_to 11000
  145.5770  139.1486  143.3257 LP  0  0  0  0  0  0  0  0  0  0  0  0  # atno 17320 bound_to 7965
  146.2175  140.5901  142.9032 LP  0  0  0  0  0  0  0  0  0  0  0  0  # atno 17321 bound_to 7965
  140.7506  143.2958  151.3208 LP  0  0  0  0  0  0  0  0  0  0  0  0  # atno 17342 bound_to 10162
  139.6446  144.0474  152.2581 LP  0  0  0  0  0  0  0  0  0  0  0  0  # atno 17343 bound_to 10162
  157.5853  131.0945  150.9206 LP  0  0  0  0  0  0  0  0  0  0  0  0  # atno 17370 bound_to 10713
  156.9393  130.5379  149.5280 LP  0  0  0  0  0  0  0  0  0  0  0  0  # atno 17371 bound_to 10713
  140.0297  134.9907  157.0756 LP  0  0  0  0  0  0  0  0  0  0  0  0  # atno 17394 bound_to 11000
  140.4305  134.1786  155.7168 LP  0  0  0  0  0  0  0  0  0  0  0  0  # atno 17395 bound_to 11000

$$$$
