AV-unprocessed.smi:653|AV-procd|sdf|3206|dock8
  -GOLD-   22720 0143D 1   1.00000     0.00000
 Structure written by MMmdl.
 44 45  0  0  0  0  0  0  0  0  1 V2000
  153.2910  142.9875  163.1162 C   0  0  0  0  0  0  0  0  0  0  0  0
  152.8318  143.1308  161.6799 C   0  0  0  0  0  0  0  0  0  0  0  0
  152.2404  144.3304  161.2321 C   0  0  0  0  0  0  0  0  0  0  0  0
  151.8281  144.4143  159.8885 C   0  0  0  0  0  0  0  0  0  0  0  0
  152.0195  143.2990  159.0469 C   0  0  0  0  0  0  0  0  0  0  0  0
  151.5922  143.3381  157.5901 C   0  0  0  0  0  0  0  0  0  0  0  0
  150.5938  142.2188  157.2836 C   0  0  0  0  0  0  0  0  0  0  0  0
  150.9289  141.0395  157.3977 O   0  0  0  0  0  0  0  0  0  0  0  0
  149.3693  142.6024  156.8915 N   0  0  0  0  0  0  0  0  0  0  0  0
  148.2746  141.6984  156.5549 C   0  0  0  0  0  0  0  0  0  0  0  0
  148.7021  140.5982  155.5506 C   0  0  2  0  0  0  0  0  0  0  0  0
  148.9726  141.1524  154.1581 C   0  0  0  0  0  0  0  0  0  0  0  0
  147.5981  141.1171  153.4845 C   0  0  0  0  0  0  0  0  0  0  0  0
  146.7795  140.2846  154.3013 O   0  0  0  0  0  0  0  0  0  0  0  0
  147.6015  139.5759  155.2191 C   0  0  2  0  0  0  0  0  0  0  0  0
  146.7803  139.0048  156.3979 C   0  0  0  0  0  0  0  0  0  0  0  0
  147.6700  138.2455  157.3978 C   0  0  0  0  0  0  0  0  0  0  0  0
  145.6580  138.0838  155.8927 C   0  0  0  0  0  0  0  0  0  0  0  0
  152.6192  142.1450  159.5951 C   0  0  0  0  0  0  0  0  0  0  0  0
  153.0181  142.0558  160.8821 N   0  0  0  0  0  0  0  0  0  0  0  0
  153.5980  143.9516  163.5226 H   0  0  0  0  0  0  0  0  0  0  0  0
  154.1386  142.3053  163.1911 H   0  0  0  0  0  0  0  0  0  0  0  0
  152.4807  142.5980  163.7327 H   0  0  0  0  0  0  0  0  0  0  0  0
  152.1056  145.1678  161.9008 H   0  0  0  0  0  0  0  0  0  0  0  0
  151.3745  145.3195  159.5122 H   0  0  0  0  0  0  0  0  0  0  0  0
  151.1564  144.3136  157.3686 H   0  0  0  0  0  0  0  0  0  0  0  0
  152.4619  143.2261  156.9417 H   0  0  0  0  0  0  0  0  0  0  0  0
  149.1803  143.5919  156.8243 H   0  0  0  0  0  0  0  0  0  0  0  0
  147.8929  141.2603  157.4773 H   0  0  0  0  0  0  0  0  0  0  0  0
  147.4602  142.2936  156.1410 H   0  0  0  0  0  0  0  0  0  0  0  0
  149.5855  140.0861  155.9338 H   0  0  0  0  0  0  0  0  0  0  0  0
  149.4214  142.1458  154.1513 H   0  0  0  0  0  0  0  0  0  0  0  0
  149.6542  140.4856  153.6282 H   0  0  0  0  0  0  0  0  0  0  0  0
  147.1538  142.1113  153.4318 H   0  0  0  0  0  0  0  0  0  0  0  0
  147.6629  140.7198  152.4712 H   0  0  0  0  0  0  0  0  0  0  0  0
  148.0538  138.7445  154.6742 H   0  0  0  0  0  0  0  0  0  0  0  0
  146.3014  139.8289  156.9267 H   0  0  0  0  0  0  0  0  0  0  0  0
  148.1657  137.3993  156.9211 H   0  0  0  0  0  0  0  0  0  0  0  0
  147.0818  137.8589  158.2306 H   0  0  0  0  0  0  0  0  0  0  0  0
  148.4436  138.8863  157.8206 H   0  0  0  0  0  0  0  0  0  0  0  0
  146.0601  137.2341  155.3400 H   0  0  0  0  0  0  0  0  0  0  0  0
  144.9743  138.6169  155.2315 H   0  0  0  0  0  0  0  0  0  0  0  0
  145.0683  137.6915  156.7217 H   0  0  0  0  0  0  0  0  0  0  0  0
  152.7846  141.2696  158.9840 H   0  0  0  0  0  0  0  0  0  0  0  0
  1  2  1  0  0  0  0
  1 21  1  0  0  0  0
  1 22  1  0  0  0  0
  1 23  1  0  0  0  0
  2 20  1  0  0  0  0
  2  3  2  0  0  0  0
  3  4  1  0  0  0  0
  3 24  1  0  0  0  0
  4  5  2  0  0  0  0
  4 25  1  0  0  0  0
  5  6  1  0  0  0  0
  5 19  1  0  0  0  0
  6  7  1  0  0  0  0
  6 26  1  0  0  0  0
  6 27  1  0  0  0  0
  7  8  2  0  0  0  0
  7  9  1  0  0  0  0
  9 10  1  0  0  0  0
  9 28  1  0  0  0  0
 10 11  1  0  0  0  0
 10 29  1  0  0  0  0
 10 30  1  0  0  0  0
 11 15  1  0  0  0  0
 11 12  1  0  0  0  0
 11 31  1  0  0  0  0
 12 13  1  0  0  0  0
 12 32  1  0  0  0  0
 12 33  1  0  0  0  0
 13 14  1  0  0  0  0
 13 34  1  0  0  0  0
 13 35  1  0  0  0  0
 14 15  1  0  0  0  0
 15 16  1  0  0  0  0
 15 36  1  0  0  0  0
 16 17  1  0  0  0  0
 16 18  1  0  0  0  0
 16 37  1  0  0  0  0
 17 38  1  0  0  0  0
 17 39  1  0  0  0  0
 17 40  1  0  0  0  0
 18 41  1  0  0  0  0
 18 42  1  0  0  0  0
 18 43  1  0  0  0  0
 19 20  2  0  0  0  0
 19 44  1  0  0  0  0
M  END
> <s_m_source_file>
AV-unprocessed.smi

> <i_m_source_file_index>
653

> <i_lp_mmshare_version>
43012

> <i_f3d_flags>
0

> <s_epik_input>
W0NIM11jMVtjSF1bY0hdYyhbY0hdbjEpW0NIMl1DKD1PKVtOSF1bQ0gyXVtDQEBIXTJbQ0gyXVtDSDJdT1tDQEhdMltDSF0oW0NIM10pW0NIM10=

> <s_epik_cmdline>
J2VwaWtfcHl0aG9uJywgJy1waCcsICc3LjAnLCAnLXRuJywgJzgnLCAnLW1hJywgJzIwMCcsICctbWV0YWxfYmluZGluZycsICctaW1hZScsICc8aW5maWxlLm1hZT4nLCAnLW9tYWUnLCAnPG91dGZpbGUubWFlPic=

> <r_epik_Ionization_Penalty>
0.0166429

> <r_epik_Ionization_Penalty_Charging>
0

> <r_epik_Ionization_Penalty_Neutral>
0.0166429

> <r_epik_State_Penalty>
0.0131478

> <r_epik_Charging_Adjusted_Penalty>
0.0131478

> <i_epik_Tot_Q>
0

> <i_epik_Tot_abs_Q>
0

> <r_epik_Metal_State_Penalty>
0.012786

> <b_epik_Metal_Only>
0

> <s_lp_Force_Field>
OPLS_2005

> <r_lp_Energy>
20.8525

> <b_lp_Chiralities_Consistent>
1

> <s_lp_Variant>
AV-unprocessed.smi:653-3

> <Gold.Version>
5.8.1

> <Gold.Id.Protein>
6NUR|6NUR_protein|mol2

> <Gold.PLP.Fitness>
40.8708

> <Gold.PLP.PLP>
-38.6525

> <Gold.PLP.part.hbond>
-0.9123

> <Gold.PLP.part.metal>
0.0000

> <Gold.PLP.part.buried>
-4.8837

> <Gold.PLP.part.nonpolar>
-31.4721

> <Gold.PLP.part.repulsive>
0.1465

> <Gold.PLP.ligand.clash>
0.0000

> <Gold.PLP.ligand.torsion>
0.0922

> <Gold.PLP.Chemscore.Hbond>
0.7840

> <Gold.PLP.Chemscore.CHOScore>
0.0000

> <Gold.PLP.Chemscore.Metal>
0.0000

> <Gold.Chemscore.Hbonds>
donor molecule, donor type, donor heavy atom, donor atom, acceptor molecule, acceptor atom, score
      L1  H     9    28       P1  8028  0.80

> <Gold.PLP.Chemscore.Internal.Correction>
0.0508

> <Gold.Rescore>
     Score         DG    S(hbond)    S(metal)    S(lipo)     H(rot)  DE(clash)    DE(int)     intcor
     15.14     -17.14       0.91        0.00     106.12       1.48       0.15       1.85       ----

> <Gold.Chemscore.Fitness>
15.1435

> <Gold.Chemscore.DG>
-17.1417

> <Gold.Chemscore.ZeroCoef>
-5.4800

> <Gold.Chemscore.Hbond>
0.9122

> <Gold.Chemscore.Metal>
0.0000

> <Gold.Chemscore.Lipo>
106.1228

> <Gold.Chemscore.Internal_Hbond>
0.0000

> <Gold.Chemscore.DEClash>
0.1494

> <Gold.Chemscore.DEInternal>
1.8489

> <Gold.Chemscore.Rot>
1.4850

> <Gold.Chemscore.Internal.Correction>
   9.000000E+99

> <Gold.Chemscore.Hbonds>
donor molecule, donor type, donor heavy atom, donor atom, acceptor molecule, acceptor atom, score
      L1  H     9    28       P1  8028  0.68

> <Gold.Chemscore.Hbond.Weighted>
-3.0469

> <Gold.Chemscore.Metal.Weighted>
-0.0000

> <Gold.Chemscore.Lipo.Weighted>
-12.4164

> <Gold.Chemscore.Internal_Hbond.Weighted>
0.0000

> <Gold.Chemscore.DEClash.Weighted>
0.1494

> <Gold.Chemscore.DEInternal.Weighted>
1.8489

> <Gold.Chemscore.Rot.Weighted>
3.8015

> <Gold.Chemscore.Internal.Correction.Weighted>
   9.000000E+99

> <Gold.Protein.RotatedTorsions>
[ 6907 6896 6895 6894 ] final  -33.82 input  -60.11 | X-H torsion
[ 7974 7965 7964 7962 ] final  100.11 input  175.53 | X-H torsion
[ 8008 7997 7996 7995 ] final -172.48 input   59.86 | X-H torsion
[ 10167 10162 10161 10158 ] final  122.01 input  -65.29 | X-H torsion
[ 10718 10713 10712 10709 ] final   58.71 input   66.30 | X-H torsion
[ 10763 10752 10751 10750 ] final -101.90 input  -60.55 | X-H torsion
[ 11005 11000 10999 10996 ] final  -45.13 input  -57.11 | X-H torsion

> <Gold.Protein.ActiveResidues>
 VAL166  LYS551  ARG553  GLY616  TRP617  ASP618  TYR619  PRO620  LYS621  CYS622 
 ASP623  PHE694  ASN695  SER759  ASP760  ASP761  ALA762  ILE779  LEU786  VAL792 
 PHE793  MET794  SER795  GLU796  ALA797  LYS798  CYS799  TRP800  GLU811  SER814 

> <Gold.Protein.RotatedAtoms>
  151.0606  134.9734  159.8258 H   0  0  0  0  0  0  0  0  0  0  0  0  # atno 6907 bound_to 6896
  152.5395  134.2422  159.8876 H   0  0  0  0  0  0  0  0  0  0  0  0  # atno 6908 bound_to 6896
  151.2442  133.4340  159.2642 H   0  0  0  0  0  0  0  0  0  0  0  0  # atno 6909 bound_to 6896
  145.3899  139.2365  143.3357 H   0  0  0  0  0  0  0  0  0  0  0  0  # atno 7974 bound_to 7965
  155.9451  140.1116  157.1023 H   0  0  0  0  0  0  0  0  0  0  0  0  # atno 8008 bound_to 7997
  154.4097  140.1211  156.5044 H   0  0  0  0  0  0  0  0  0  0  0  0  # atno 8009 bound_to 7997
  155.6913  140.3472  155.4897 H   0  0  0  0  0  0  0  0  0  0  0  0  # atno 8010 bound_to 7997
  139.5885  144.7016  151.3350 H   0  0  0  0  0  0  0  0  0  0  0  0  # atno 10167 bound_to 10162
  157.5618  130.8841  149.9123 H   0  0  0  0  0  0  0  0  0  0  0  0  # atno 10718 bound_to 10713
  154.7693  135.4880  153.9617 H   0  0  0  0  0  0  0  0  0  0  0  0  # atno 10763 bound_to 10752
  153.1347  135.6760  153.9129 H   0  0  0  0  0  0  0  0  0  0  0  0  # atno 10764 bound_to 10752
  153.8821  135.3131  155.3424 H   0  0  0  0  0  0  0  0  0  0  0  0  # atno 10765 bound_to 10752
  141.0495  133.6748  156.2969 H   0  0  0  0  0  0  0  0  0  0  0  0  # atno 11005 bound_to 11000
  146.2802  140.4581  142.8779 LP  0  0  0  0  0  0  0  0  0  0  0  0  # atno 17320 bound_to 7965
  144.8447  140.6911  143.6206 LP  0  0  0  0  0  0  0  0  0  0  0  0  # atno 17321 bound_to 7965
  140.7152  143.7285  150.7642 LP  0  0  0  0  0  0  0  0  0  0  0  0  # atno 17342 bound_to 10162
  140.0835  143.4946  152.2517 LP  0  0  0  0  0  0  0  0  0  0  0  0  # atno 17343 bound_to 10162
  156.0670  130.3691  150.0858 LP  0  0  0  0  0  0  0  0  0  0  0  0  # atno 17370 bound_to 10713
  156.9021  130.9624  151.3575 LP  0  0  0  0  0  0  0  0  0  0  0  0  # atno 17371 bound_to 10713
  140.6082  134.5485  157.5529 LP  0  0  0  0  0  0  0  0  0  0  0  0  # atno 17394 bound_to 11000
  139.9339  134.7912  156.0856 LP  0  0  0  0  0  0  0  0  0  0  0  0  # atno 17395 bound_to 11000

$$$$
