AV-unprocessed.smi:1056|AV-procd|sdf|4633|dock8
  -GOLD-   22720 3133D 1   1.00000     0.00000
 Structure written by MMmdl.
 45 47  0  0  0  0  0  0  0  0  2 V2000
  152.8904  143.1350  161.7282 C   0  0  0  0  0  0  0  0  0  0  0  0
  152.6540  142.3774  160.4336 C   0  0  0  0  0  0  0  0  0  0  0  0
  152.9957  141.0077  160.3674 C   0  0  0  0  0  0  0  0  0  0  0  0
  152.7933  140.2673  159.1823 C   0  0  0  0  0  0  0  0  0  0  0  0
  153.0511  138.9375  158.8963 N   0  0  0  0  0  0  0  0  0  0  0  0
  152.6473  138.8508  157.6323 C   0  0  0  0  0  0  0  0  0  0  0  0
  152.1624  139.9713  157.0630 N   0  0  0  0  0  0  0  0  0  0  0  0
  151.6639  140.1257  155.7092 C   0  0  0  0  0  0  0  0  0  0  0  0
  150.1314  140.2952  155.6656 C   0  0  1  0  0  0  0  0  0  0  0  0
  149.5318  139.3177  156.4916 O   0  0  0  0  0  0  0  0  0  0  0  0
  149.6684  141.6821  156.1545 C   0  0  0  0  0  0  0  0  0  0  0  0
  148.2993  142.0270  155.6948 N   0  3  1  0  0  0  0  0  0  0  0  0
  148.0281  141.6559  154.2850 C   0  0  0  0  0  0  0  0  0  0  0  0
  146.6793  142.2432  153.8335 C   0  0  0  0  0  0  0  0  0  0  0  0
  145.6256  142.0908  154.8341 N   0  0  0  0  0  0  0  0  0  0  0  0
  145.8174  141.7671  156.1234 C   0  0  0  0  0  0  0  0  0  0  0  0
  144.8810  141.6689  156.9117 O   0  0  0  0  0  0  0  0  0  0  0  0
  147.2511  141.5117  156.6125 C   0  0  0  0  0  0  0  0  0  0  0  0
  152.2352  140.9406  158.0569 C   0  0  0  0  0  0  0  0  0  0  0  0
  151.8898  142.3027  158.1100 C   0  0  0  0  0  0  0  0  0  0  0  0
  152.1006  143.0278  159.3013 C   0  0  0  0  0  0  0  0  0  0  0  0
  151.7294  144.4994  159.3484 C   0  0  0  0  0  0  0  0  0  0  0  0
  153.2488  142.4728  162.5172 H   0  0  0  0  0  0  0  0  0  0  0  0
  151.9673  143.5984  162.0771 H   0  0  0  0  0  0  0  0  0  0  0  0
  153.6366  143.9159  161.5806 H   0  0  0  0  0  0  0  0  0  0  0  0
  153.4183  140.5126  161.2296 H   0  0  0  0  0  0  0  0  0  0  0  0
  152.7108  137.9202  157.0873 H   0  0  0  0  0  0  0  0  0  0  0  0
  152.1587  140.9808  155.2462 H   0  0  0  0  0  0  0  0  0  0  0  0
  151.9685  139.2451  155.1428 H   0  0  0  0  0  0  0  0  0  0  0  0
  149.7701  140.1136  154.6540 H   0  0  0  0  0  0  0  0  0  0  0  0
  149.9010  138.4739  156.2780 H   0  0  0  0  0  0  0  0  0  0  0  0
  149.7055  141.7401  157.2437 H   0  0  0  0  0  0  0  0  0  0  0  0
  150.3722  142.4301  155.7852 H   0  0  0  0  0  0  0  0  0  0  0  0
  148.8127  142.0142  153.6200 H   0  0  0  0  0  0  0  0  0  0  0  0
  148.0127  140.5681  154.1984 H   0  0  0  0  0  0  0  0  0  0  0  0
  146.7935  143.3098  153.6367 H   0  0  0  0  0  0  0  0  0  0  0  0
  146.3594  141.7847  152.8975 H   0  0  0  0  0  0  0  0  0  0  0  0
  144.6766  142.2500  154.5256 H   0  0  0  0  0  0  0  0  0  0  0  0
  147.3780  140.4356  156.7411 H   0  0  0  0  0  0  0  0  0  0  0  0
  147.3739  141.9690  157.5953 H   0  0  0  0  0  0  0  0  0  0  0  0
  151.4682  142.7856  157.2413 H   0  0  0  0  0  0  0  0  0  0  0  0
  151.3600  144.8480  158.3834 H   0  0  0  0  0  0  0  0  0  0  0  0
  152.5972  145.1045  159.6119 H   0  0  0  0  0  0  0  0  0  0  0  0
  150.9483  144.6725  160.0887 H   0  0  0  0  0  0  0  0  0  0  0  0
  148.2302  143.0335  155.7416 H   0  0  0  0  0  0  0  0  0  0  0  0
  1  2  1  0  0  0  0
  1 23  1  0  0  0  0
  1 24  1  0  0  0  0
  1 25  1  0  0  0  0
  2 21  1  0  0  0  0
  2  3  2  0  0  0  0
  3  4  1  0  0  0  0
  3 26  1  0  0  0  0
  4 19  2  0  0  0  0
  4  5  1  0  0  0  0
  5  6  2  0  0  0  0
  6  7  1  0  0  0  0
  6 27  1  0  0  0  0
  7  8  1  0  0  0  0
  7 19  1  0  0  0  0
  8  9  1  0  0  0  0
  8 28  1  0  0  0  0
  8 29  1  0  0  0  0
  9 10  1  0  0  0  0
  9 11  1  0  0  0  0
  9 30  1  0  0  0  0
 10 31  1  0  0  0  0
 11 12  1  0  0  0  0
 11 32  1  0  0  0  0
 11 33  1  0  0  0  0
 12 18  1  0  0  0  0
 12 13  1  0  0  0  0
 12 45  1  0  0  0  0
 13 14  1  0  0  0  0
 13 34  1  0  0  0  0
 13 35  1  0  0  0  0
 14 15  1  0  0  0  0
 14 36  1  0  0  0  0
 14 37  1  0  0  0  0
 15 16  1  0  0  0  0
 15 38  1  0  0  0  0
 16 17  2  0  0  0  0
 16 18  1  0  0  0  0
 18 39  1  0  0  0  0
 18 40  1  0  0  0  0
 19 20  1  0  0  0  0
 20 21  2  0  0  0  0
 20 41  1  0  0  0  0
 21 22  1  0  0  0  0
 22 42  1  0  0  0  0
 22 43  1  0  0  0  0
 22 44  1  0  0  0  0
M  CHG  1  12   1
M  END
> <s_m_source_file>
AV-unprocessed.smi

> <i_m_source_file_index>
1056

> <i_lp_mmshare_version>
43012

> <i_f3d_flags>
0

> <s_epik_input>
W0NIM11jKFtjSF0xKWMoW0NIM10pW2NIXWMoYzEyKW4oW2NIXW4yKVtDSDJdW0NASF0oW09IXSlbQ0gyXU4zW0NIMl1bQ0gyXVtOSF1DKD1PKVtDSDJdMw==

> <s_epik_cmdline>
J2VwaWtfcHl0aG9uJywgJy1waCcsICc3LjAnLCAnLXRuJywgJzgnLCAnLW1hJywgJzIwMCcsICctbWV0YWxfYmluZGluZycsICctaW1hZScsICc8aW5maWxlLm1hZT4nLCAnLW9tYWUnLCAnPG91dGZpbGUubWFlPic=

> <r_epik_Ionization_Penalty>
0.153633

> <r_epik_Ionization_Penalty_Charging>
0.0674887

> <r_epik_Ionization_Penalty_Neutral>
0.0861443

> <r_epik_State_Penalty>
0.135155

> <r_epik_Charging_Adjusted_Penalty>
0.202644

> <i_epik_Tot_Q>
1

> <i_epik_Tot_abs_Q>
1

> <r_epik_Metal_State_Penalty>
0.190685

> <b_epik_Metal_Only>
0

> <s_lp_Force_Field>
OPLS_2005

> <r_lp_Energy>
24.5126

> <b_lp_Chiralities_Consistent>
1

> <s_lp_Variant>
AV-unprocessed.smi:1056-4

> <Gold.Version>
5.8.1

> <Gold.Id.Protein>
6NUR|6NUR_protein|mol2

> <Gold.PLP.Fitness>
46.8317

> <Gold.PLP.PLP>
-42.0286

> <Gold.PLP.part.hbond>
-1.0000

> <Gold.PLP.part.metal>
0.0000

> <Gold.PLP.part.buried>
-4.0797

> <Gold.PLP.part.nonpolar>
-35.8846

> <Gold.PLP.part.repulsive>
0.1065

> <Gold.PLP.ligand.clash>
0.0000

> <Gold.PLP.ligand.torsion>
0.6131

> <Gold.PLP.Chemscore.Hbond>
2.0000

> <Gold.PLP.Chemscore.CHOScore>
0.0000

> <Gold.PLP.Chemscore.Metal>
0.0000

> <Gold.Chemscore.Hbonds>
donor molecule, donor type, donor heavy atom, donor atom, acceptor molecule, acceptor atom, score
      L1  H    12    45       P1  8028  2.00

> <Gold.PLP.Chemscore.Internal.Correction>
0.0293

> <Gold.Rescore>
     Score         DG    S(hbond)    S(metal)    S(lipo)     H(rot)  DE(clash)    DE(int)     intcor
     15.44     -16.37       0.98        0.00     117.28       2.38       0.15       0.78       ----

> <Gold.Chemscore.Fitness>
15.4407

> <Gold.Chemscore.DG>
-16.3721

> <Gold.Chemscore.ZeroCoef>
-5.4800

> <Gold.Chemscore.Hbond>
0.9757

> <Gold.Chemscore.Metal>
0.0000

> <Gold.Chemscore.Lipo>
117.2786

> <Gold.Chemscore.Internal_Hbond>
0.0000

> <Gold.Chemscore.DEClash>
0.1506

> <Gold.Chemscore.DEInternal>
0.7807

> <Gold.Chemscore.Rot>
2.3783

> <Gold.Chemscore.Internal.Correction>
   9.000000E+99

> <Gold.Chemscore.Hbonds>
donor molecule, donor type, donor heavy atom, donor atom, acceptor molecule, acceptor atom, score
      L1  H    12    45       P1  8028  0.89

> <Gold.Chemscore.Hbond.Weighted>
-3.2588

> <Gold.Chemscore.Metal.Weighted>
-0.0000

> <Gold.Chemscore.Lipo.Weighted>
-13.7216

> <Gold.Chemscore.Internal_Hbond.Weighted>
0.0000

> <Gold.Chemscore.DEClash.Weighted>
0.1506

> <Gold.Chemscore.DEInternal.Weighted>
0.7807

> <Gold.Chemscore.Rot.Weighted>
6.0884

> <Gold.Chemscore.Internal.Correction.Weighted>
   9.000000E+99

> <Gold.Protein.RotatedTorsions>
[ 6907 6896 6895 6894 ] final  -49.11 input  -60.11 | X-H torsion
[ 7974 7965 7964 7962 ] final  173.43 input  175.53 | X-H torsion
[ 8008 7997 7996 7995 ] final  157.42 input   59.86 | X-H torsion
[ 10167 10162 10161 10158 ] final   92.32 input  -65.29 | X-H torsion
[ 10718 10713 10712 10709 ] final  112.70 input   66.30 | X-H torsion
[ 10763 10752 10751 10750 ] final  151.81 input  -60.55 | X-H torsion
[ 11005 11000 10999 10996 ] final  -19.16 input  -57.11 | X-H torsion

> <Gold.Protein.ActiveResidues>
 VAL166  LYS551  ARG553  GLY616  TRP617  ASP618  TYR619  PRO620  LYS621  CYS622 
 ASP623  PHE694  ASN695  SER759  ASP760  ASP761  ALA762  ILE779  LEU786  VAL792 
 PHE793  MET794  SER795  GLU796  ALA797  LYS798  CYS799  TRP800  GLU811  SER814 

> <Gold.Protein.RotatedAtoms>
  150.8838  134.8233  159.7243 H   0  0  0  0  0  0  0  0  0  0  0  0  # atno 6907 bound_to 6896
  152.4795  134.4755  159.9659 H   0  0  0  0  0  0  0  0  0  0  0  0  # atno 6908 bound_to 6896
  151.4826  133.3504  159.2876 H   0  0  0  0  0  0  0  0  0  0  0  0  # atno 6909 bound_to 6896
  144.7244  139.9647  143.6435 H   0  0  0  0  0  0  0  0  0  0  0  0  # atno 7974 bound_to 7965
  156.2365  140.1886  156.7106 H   0  0  0  0  0  0  0  0  0  0  0  0  # atno 8008 bound_to 7997
  154.6116  140.0621  156.9528 H   0  0  0  0  0  0  0  0  0  0  0  0  # atno 8009 bound_to 7997
  155.2007  140.3292  155.4346 H   0  0  0  0  0  0  0  0  0  0  0  0  # atno 8010 bound_to 7997
  139.8288  144.6697  150.9426 H   0  0  0  0  0  0  0  0  0  0  0  0  # atno 10167 bound_to 10162
  157.6378  131.0972  150.6934 H   0  0  0  0  0  0  0  0  0  0  0  0  # atno 10718 bound_to 10713
  154.1099  135.2840  155.3233 H   0  0  0  0  0  0  0  0  0  0  0  0  # atno 10763 bound_to 10752
  154.6497  135.5373  153.7890 H   0  0  0  0  0  0  0  0  0  0  0  0  # atno 10764 bound_to 10752
  153.0349  135.6507  154.1258 H   0  0  0  0  0  0  0  0  0  0  0  0  # atno 10765 bound_to 10752
  140.8340  133.7976  155.9788 H   0  0  0  0  0  0  0  0  0  0  0  0  # atno 11005 bound_to 11000
  146.0610  139.3604  143.0581 LP  0  0  0  0  0  0  0  0  0  0  0  0  # atno 17320 bound_to 7965
  145.8092  140.9734  143.0957 LP  0  0  0  0  0  0  0  0  0  0  0  0  # atno 17321 bound_to 7965
  140.7808  143.4021  151.1132 LP  0  0  0  0  0  0  0  0  0  0  0  0  # atno 17342 bound_to 10162
  139.7676  143.8542  152.3114 LP  0  0  0  0  0  0  0  0  0  0  0  0  # atno 17343 bound_to 10162
  156.7262  130.4696  149.5510 LP  0  0  0  0  0  0  0  0  0  0  0  0  # atno 17370 bound_to 10713
  156.1632  130.6388  151.0745 LP  0  0  0  0  0  0  0  0  0  0  0  0  # atno 17371 bound_to 10713
  140.8968  134.2428  157.5064 LP  0  0  0  0  0  0  0  0  0  0  0  0  # atno 17394 bound_to 11000
  139.8704  134.9687  156.4642 LP  0  0  0  0  0  0  0  0  0  0  0  0  # atno 17395 bound_to 11000

$$$$
