AV-unprocessed.smi:897|AV-procd|sdf|4081|dock1
  -GOLD-   22720 1573D 1   1.00000     0.00000
 Structure written by MMmdl.
 35 37  0  0  0  0  0  0  0  0  1 V2000
  150.7542  145.3098  159.8515 C   0  0  0  0  0  0  0  0  0  0  0  0
  151.5641  144.0707  160.1701 C   0  0  0  0  0  0  0  0  0  0  0  0
  152.2214  143.9328  161.4067 C   0  0  0  0  0  0  0  0  0  0  0  0
  152.9624  142.7591  161.6516 C   0  0  0  0  0  0  0  0  0  0  0  0
  153.6746  142.5983  162.9864 C   0  0  0  0  0  0  0  0  0  0  0  0
  153.0183  141.7646  160.6402 C   0  0  0  0  0  0  0  0  0  0  0  0
  153.7805  140.5352  160.8505 C   0  0  0  0  0  0  0  0  0  0  0  0
  154.3843  139.5623  161.0169 N   0  0  0  0  0  0  0  0  0  0  0  0
  152.3211  141.9993  159.4227 C   0  0  0  0  0  0  0  0  0  0  0  0
  152.3427  141.0417  158.3915 N   0  0  0  0  0  0  0  0  0  0  0  0
  151.7358  141.3130  157.0916 C   0  0  2  0  0  0  0  0  0  0  0  0
  150.2231  141.5310  157.1729 C   0  0  0  0  0  0  0  0  0  0  0  0
  149.7017  140.5173  156.1444 C   0  0  2  0  0  0  0  0  0  0  0  0
  149.7792  139.0815  156.6789 C   0  0  0  0  0  0  0  0  0  0  0  0
  151.2823  138.8141  156.6324 C   0  0  0  0  0  0  0  0  0  0  0  0
  151.8260  140.1460  156.0872 C   0  0  1  0  0  0  0  0  0  0  0  0
  150.7696  140.5033  155.2118 O   0  0  0  0  0  0  0  0  0  0  0  0
  151.6105  143.1313  159.2046 N   0  0  0  0  0  0  0  0  0  0  0  0
  150.6525  145.9511  160.7274 H   0  0  0  0  0  0  0  0  0  0  0  0
  149.7543  145.0354  159.5144 H   0  0  0  0  0  0  0  0  0  0  0  0
  151.2383  145.8842  159.0616 H   0  0  0  0  0  0  0  0  0  0  0  0
  152.1571  144.7120  162.1522 H   0  0  0  0  0  0  0  0  0  0  0  0
  154.7485  142.4830  162.8368 H   0  0  0  0  0  0  0  0  0  0  0  0
  153.3018  141.7206  163.5156 H   0  0  0  0  0  0  0  0  0  0  0  0
  153.5186  143.4666  163.6274 H   0  0  0  0  0  0  0  0  0  0  0  0
  153.0190  140.2937  158.4460 H   0  0  0  0  0  0  0  0  0  0  0  0
  152.1902  142.2054  156.6583 H   0  0  0  0  0  0  0  0  0  0  0  0
  149.8049  141.3558  158.1654 H   0  0  0  0  0  0  0  0  0  0  0  0
  149.9731  142.5503  156.8769 H   0  0  0  0  0  0  0  0  0  0  0  0
  148.7330  140.7782  155.7173 H   0  0  0  0  0  0  0  0  0  0  0  0
  149.3623  138.9879  157.6822 H   0  0  0  0  0  0  0  0  0  0  0  0
  149.2479  138.3925  156.0214 H   0  0  0  0  0  0  0  0  0  0  0  0
  151.6981  138.5457  157.6037 H   0  0  0  0  0  0  0  0  0  0  0  0
  151.5005  138.0008  155.9395 H   0  0  0  0  0  0  0  0  0  0  0  0
  152.7958  140.0572  155.5970 H   0  0  0  0  0  0  0  0  0  0  0  0
  1  2  1  0  0  0  0
  1 19  1  0  0  0  0
  1 20  1  0  0  0  0
  1 21  1  0  0  0  0
  2 18  1  0  0  0  0
  2  3  2  0  0  0  0
  3  4  1  0  0  0  0
  3 22  1  0  0  0  0
  4  5  1  0  0  0  0
  4  6  2  0  0  0  0
  5 23  1  0  0  0  0
  5 24  1  0  0  0  0
  5 25  1  0  0  0  0
  6  7  1  0  0  0  0
  6  9  1  0  0  0  0
  7  8  3  0  0  0  0
  9 10  1  0  0  0  0
  9 18  2  0  0  0  0
 10 11  1  0  0  0  0
 10 26  1  0  0  0  0
 11 16  1  0  0  0  0
 11 12  1  0  0  0  0
 11 27  1  0  0  0  0
 12 13  1  0  0  0  0
 12 28  1  0  0  0  0
 12 29  1  0  0  0  0
 13 17  1  0  0  0  0
 13 14  1  0  0  0  0
 13 30  1  0  0  0  0
 14 15  1  0  0  0  0
 14 31  1  0  0  0  0
 14 32  1  0  0  0  0
 15 16  1  0  0  0  0
 15 33  1  0  0  0  0
 15 34  1  0  0  0  0
 16 17  1  0  0  0  0
 16 35  1  0  0  0  0
M  END
> <s_m_source_file>
AV-unprocessed.smi

> <i_m_source_file_index>
897

> <i_lp_mmshare_version>
43012

> <i_f3d_flags>
0

> <s_epik_input>
W0NIM11jMVtjSF1jKFtDSDNdKWMoQyNOKWMobjEpW05IXVtDQEhdKFtDSDJdW0NAQEhdMjMpW0NAQEhdKE8zKVtDSDJdW0NIMl0y

> <s_epik_cmdline>
J2VwaWtfcHl0aG9uJywgJy1waCcsICc3LjAnLCAnLXRuJywgJzgnLCAnLW1hJywgJzIwMCcsICctbWV0YWxfYmluZGluZycsICctaW1hZScsICc8aW5maWxlLm1hZT4nLCAnLW9tYWUnLCAnPG91dGZpbGUubWFlPic=

> <r_lp_tautomer_probability>
1

> <r_epik_Ionization_Penalty>
0.000502654

> <r_epik_Ionization_Penalty_Charging>
0

> <r_epik_Ionization_Penalty_Neutral>
0.000502654

> <r_epik_State_Penalty>
-0

> <r_epik_Charging_Adjusted_Penalty>
0

> <i_epik_Tot_Q>
0

> <i_epik_Tot_abs_Q>
0

> <r_epik_Metal_State_Penalty>
-0

> <b_epik_Metal_Only>
0

> <s_lp_Force_Field>
OPLS_2005

> <r_lp_Energy>
43.9229

> <b_lp_Chiralities_Consistent>
1

> <s_lp_Variant>
AV-unprocessed.smi:897-3

> <Gold.Version>
5.8.1

> <Gold.Id.Protein>
6NUR|6NUR_protein|mol2

> <Gold.PLP.Fitness>
40.8777

> <Gold.PLP.PLP>
-37.8949

> <Gold.PLP.part.hbond>
-1.0000

> <Gold.PLP.part.metal>
0.0000

> <Gold.PLP.part.buried>
-6.5388

> <Gold.PLP.part.nonpolar>
-30.0866

> <Gold.PLP.part.repulsive>
0.1574

> <Gold.PLP.ligand.clash>
0.0000

> <Gold.PLP.ligand.torsion>
0.0141

> <Gold.PLP.Chemscore.Hbond>
1.0000

> <Gold.PLP.Chemscore.CHOScore>
0.0000

> <Gold.PLP.Chemscore.Metal>
0.0000

> <Gold.Chemscore.Hbonds>
donor molecule, donor type, donor heavy atom, donor atom, acceptor molecule, acceptor atom, score
      P1  H  7989  7998       L1    17  0.99

> <Gold.PLP.Chemscore.Internal.Correction>
0.0109

> <Gold.Rescore>
     Score         DG    S(hbond)    S(metal)    S(lipo)     H(rot)  DE(clash)    DE(int)     intcor
     17.73     -17.94       0.99        0.00     100.12       1.00       0.06       0.15       ----

> <Gold.Chemscore.Fitness>
17.7324

> <Gold.Chemscore.DG>
-17.9358

> <Gold.Chemscore.ZeroCoef>
-5.4800

> <Gold.Chemscore.Hbond>
0.9885

> <Gold.Chemscore.Metal>
0.0000

> <Gold.Chemscore.Lipo>
100.1209

> <Gold.Chemscore.Internal_Hbond>
0.0000

> <Gold.Chemscore.DEClash>
0.0563

> <Gold.Chemscore.DEInternal>
0.1471

> <Gold.Chemscore.Rot>
1.0000

> <Gold.Chemscore.Internal.Correction>
   9.000000E+99

> <Gold.Chemscore.Hbonds>
donor molecule, donor type, donor heavy atom, donor atom, acceptor molecule, acceptor atom, score
      P1  H  7989  7998       L1    17  0.47

> <Gold.Chemscore.Hbond.Weighted>
-3.3017

> <Gold.Chemscore.Metal.Weighted>
-0.0000

> <Gold.Chemscore.Lipo.Weighted>
-11.7142

> <Gold.Chemscore.Internal_Hbond.Weighted>
0.0000

> <Gold.Chemscore.DEClash.Weighted>
0.0563

> <Gold.Chemscore.DEInternal.Weighted>
0.1471

> <Gold.Chemscore.Rot.Weighted>
2.5600

> <Gold.Chemscore.Internal.Correction.Weighted>
   9.000000E+99

> <Gold.Protein.RotatedTorsions>
[ 6907 6896 6895 6894 ] final  149.13 input  -60.11 | X-H torsion
[ 7974 7965 7964 7962 ] final -171.24 input  175.53 | X-H torsion
[ 8008 7997 7996 7995 ] final  -79.71 input   59.86 | X-H torsion
[ 10167 10162 10161 10158 ] final -132.79 input  -65.29 | X-H torsion
[ 10718 10713 10712 10709 ] final   98.41 input   66.30 | X-H torsion
[ 10763 10752 10751 10750 ] final  164.81 input  -60.55 | X-H torsion
[ 11005 11000 10999 10996 ] final  -29.49 input  -57.11 | X-H torsion

> <Gold.Protein.ActiveResidues>
 VAL166  LYS551  ARG553  GLY616  TRP617  ASP618  TYR619  PRO620  LYS621  CYS622 
 ASP623  PHE694  ASN695  SER759  ASP760  ASP761  ALA762  ILE779  LEU786  VAL792 
 PHE793  MET794  SER795  GLU796  ALA797  LYS798  CYS799  TRP800  GLU811  SER814 

> <Gold.Protein.RotatedAtoms>
  152.1321  133.4414  159.4725 H   0  0  0  0  0  0  0  0  0  0  0  0  # atno 6907 bound_to 6896
  150.6879  134.2408  159.4481 H   0  0  0  0  0  0  0  0  0  0  0  0  # atno 6908 bound_to 6896
  152.0292  134.9777  160.0623 H   0  0  0  0  0  0  0  0  0  0  0  0  # atno 6909 bound_to 6896
  144.7159  140.1951  143.6344 H   0  0  0  0  0  0  0  0  0  0  0  0  # atno 7974 bound_to 7965
  154.5812  140.0674  156.9106 H   0  0  0  0  0  0  0  0  0  0  0  0  # atno 8008 bound_to 7997
  155.2460  140.3348  155.4269 H   0  0  0  0  0  0  0  0  0  0  0  0  # atno 8009 bound_to 7997
  156.2190  140.1791  156.7506 H   0  0  0  0  0  0  0  0  0  0  0  0  # atno 8010 bound_to 7997
  139.9049  143.6563  152.2587 H   0  0  0  0  0  0  0  0  0  0  0  0  # atno 10167 bound_to 10162
  157.6896  131.0639  150.4792 H   0  0  0  0  0  0  0  0  0  0  0  0  # atno 10718 bound_to 10713
  154.3145  135.2757  155.2550 H   0  0  0  0  0  0  0  0  0  0  0  0  # atno 10763 bound_to 10752
  154.4930  135.5828  153.6477 H   0  0  0  0  0  0  0  0  0  0  0  0  # atno 10764 bound_to 10752
  152.9884  135.6139  154.3325 H   0  0  0  0  0  0  0  0  0  0  0  0  # atno 10765 bound_to 10752
  140.9301  133.7344  156.0923 H   0  0  0  0  0  0  0  0  0  0  0  0  # atno 11005 bound_to 11000
  145.8732  139.2283  143.1649 LP  0  0  0  0  0  0  0  0  0  0  0  0  # atno 17320 bound_to 7965
  146.0065  140.8474  142.9992 LP  0  0  0  0  0  0  0  0  0  0  0  0  # atno 17321 bound_to 7965
  139.6993  144.7637  151.1301 LP  0  0  0  0  0  0  0  0  0  0  0  0  # atno 17342 bound_to 10162
  140.7698  143.5480  150.9237 LP  0  0  0  0  0  0  0  0  0  0  0  0  # atno 17343 bound_to 10162
  156.5125  130.4143  149.6293 LP  0  0  0  0  0  0  0  0  0  0  0  0  # atno 17370 bound_to 10713
  156.3227  130.7289  151.2204 LP  0  0  0  0  0  0  0  0  0  0  0  0  # atno 17371 bound_to 10713
  140.7874  134.3656  157.5473 LP  0  0  0  0  0  0  0  0  0  0  0  0  # atno 17394 bound_to 11000
  139.8794  134.9119  156.3048 LP  0  0  0  0  0  0  0  0  0  0  0  0  # atno 17395 bound_to 11000

$$$$
