AV-unprocessed.smi:1388|AV-procd|sdf|5645|dock6
  -GOLD-   22720 5263D 1   1.00000     0.00000
 Structure written by MMmdl.
 45 46  0  0  0  0  0  0  0  0  3 V2000
  150.5487  133.4131  156.6748 C   0  0  0  0  0  0  0  0  0  0  0  0
  149.7790  134.3206  157.5178 N   0  5  0  0  0  0  0  0  0  0  0  0
  149.1318  135.4202  157.0419 C   0  0  0  0  0  0  0  0  0  0  0  0
  148.7104  136.4230  157.6267 O   0  0  0  0  0  0  0  0  0  0  0  0
  148.9286  135.3267  155.5246 C   0  0  0  0  0  0  0  0  0  0  0  0
  149.4927  136.5177  154.8388 N   0  3  2  0  0  0  0  0  0  0  0  0
  150.9617  136.6314  155.0204 C   0  0  0  0  0  0  0  0  0  0  0  0
  151.5418  137.7840  154.1804 C   0  0  0  0  0  0  0  0  0  0  0  0
  150.8488  139.1239  154.4816 C   0  0  2  0  0  0  0  0  0  0  0  0
  151.2281  139.6068  155.8090 N   0  0  0  0  0  0  0  0  0  0  0  0
  151.2372  140.8909  156.1958 C   0  0  0  0  0  0  0  0  0  0  0  0
  150.9084  141.8223  155.4610 O   0  0  0  0  0  0  0  0  0  0  0  0
  151.6450  141.0092  157.4719 N   0  0  0  0  0  0  0  0  0  0  0  0
  151.8064  142.1936  158.2449 C   0  0  0  0  0  0  0  0  0  0  0  0
  151.2302  143.3737  157.9047 N   0  0  0  0  0  0  0  0  0  0  0  0
  151.4279  144.4589  158.6807 C   0  0  0  0  0  0  0  0  0  0  0  0
  152.2125  144.4361  159.8464 C   0  0  0  0  0  0  0  0  0  0  0  0
  152.8154  143.2212  160.2142 C   0  0  0  0  0  0  0  0  0  0  0  0
  152.6142  142.0805  159.4081 C   0  0  0  0  0  0  0  0  0  0  0  0
  153.2658  140.7656  159.8046 C   0  0  0  0  0  0  0  0  0  0  0  0
  149.3223  138.9595  154.3466 C   0  0  0  0  0  0  0  0  0  0  0  0
  148.7921  137.7832  155.1854 C   0  0  0  0  0  0  0  0  0  0  0  0
  151.0395  132.6359  157.2601 H   0  0  0  0  0  0  0  0  0  0  0  0
  151.3366  133.9260  156.1222 H   0  0  0  0  0  0  0  0  0  0  0  0
  149.9277  132.9015  155.9390 H   0  0  0  0  0  0  0  0  0  0  0  0
  149.3767  134.4134  155.1297 H   0  0  0  0  0  0  0  0  0  0  0  0
  147.8560  135.2524  155.3371 H   0  0  0  0  0  0  0  0  0  0  0  0
  151.1878  136.7776  156.0776 H   0  0  0  0  0  0  0  0  0  0  0  0
  151.4408  135.6984  154.7210 H   0  0  0  0  0  0  0  0  0  0  0  0
  152.6163  137.8671  154.3484 H   0  0  0  0  0  0  0  0  0  0  0  0
  151.4186  137.5484  153.1223 H   0  0  0  0  0  0  0  0  0  0  0  0
  151.1910  139.8539  153.7457 H   0  0  0  0  0  0  0  0  0  0  0  0
  151.5178  138.9100  156.4795 H   0  0  0  0  0  0  0  0  0  0  0  0
  151.8748  140.1503  157.9488 H   0  0  0  0  0  0  0  0  0  0  0  0
  150.9464  145.3715  158.3620 H   0  0  0  0  0  0  0  0  0  0  0  0
  152.3477  145.3267  160.4422 H   0  0  0  0  0  0  0  0  0  0  0  0
  153.4241  143.1689  161.1047 H   0  0  0  0  0  0  0  0  0  0  0  0
  153.8423  140.8698  160.7243 H   0  0  0  0  0  0  0  0  0  0  0  0
  153.9431  140.4233  159.0216 H   0  0  0  0  0  0  0  0  0  0  0  0
  152.5086  139.9987  159.9693 H   0  0  0  0  0  0  0  0  0  0  0  0
  148.8096  139.8807  154.6264 H   0  0  0  0  0  0  0  0  0  0  0  0
  149.0738  138.7853  153.2987 H   0  0  0  0  0  0  0  0  0  0  0  0
  147.7212  137.6789  155.0090 H   0  0  0  0  0  0  0  0  0  0  0  0
  148.9153  137.9908  156.2494 H   0  0  0  0  0  0  0  0  0  0  0  0
  149.3371  136.3542  153.8533 H   0  0  0  0  0  0  0  0  0  0  0  0
  1  2  1  0  0  0  0
  1 23  1  0  0  0  0
  1 24  1  0  0  0  0
  1 25  1  0  0  0  0
  2  3  1  0  0  0  0
  3  4  2  0  0  0  0
  3  5  1  0  0  0  0
  5  6  1  0  0  0  0
  5 26  1  0  0  0  0
  5 27  1  0  0  0  0
  6 22  1  0  0  0  0
  6  7  1  0  0  0  0
  6 45  1  0  0  0  0
  7  8  1  0  0  0  0
  7 28  1  0  0  0  0
  7 29  1  0  0  0  0
  8  9  1  0  0  0  0
  8 30  1  0  0  0  0
  8 31  1  0  0  0  0
  9 10  1  0  0  0  0
  9 21  1  0  0  0  0
  9 32  1  0  0  0  0
 10 11  1  0  0  0  0
 10 33  1  0  0  0  0
 11 12  2  0  0  0  0
 11 13  1  0  0  0  0
 13 14  1  0  0  0  0
 13 34  1  0  0  0  0
 14 19  1  0  0  0  0
 14 15  2  0  0  0  0
 15 16  1  0  0  0  0
 16 17  2  0  0  0  0
 16 35  1  0  0  0  0
 17 18  1  0  0  0  0
 17 36  1  0  0  0  0
 18 19  2  0  0  0  0
 18 37  1  0  0  0  0
 19 20  1  0  0  0  0
 20 38  1  0  0  0  0
 20 39  1  0  0  0  0
 20 40  1  0  0  0  0
 21 22  1  0  0  0  0
 21 41  1  0  0  0  0
 21 42  1  0  0  0  0
 22 43  1  0  0  0  0
 22 44  1  0  0  0  0
M  CHG  1   2  -1
M  CHG  1   6   1
M  END
> <s_m_source_file>
AV-unprocessed.smi

> <i_m_source_file_index>
1388

> <i_lp_mmshare_version>
43012

> <i_f3d_flags>
0

> <s_epik_input>
W0NIM11bTkhdQyg9TylbQ0gyXU4xW0NIMl1bQ0gyXVtDSF0oW0NIMl1bQ0gyXTEpW05IXUMoPU8pW05IXWMybltjSF1bY0hdW2NIXWMyW0NIM10=

> <s_epik_cmdline>
J2VwaWtfcHl0aG9uJywgJy1waCcsICc3LjAnLCAnLXRuJywgJzgnLCAnLW1hJywgJzIwMCcsICctbWV0YWxfYmluZGluZycsICctaW1hZScsICc8aW5maWxlLm1hZT4nLCAnLW9tYWUnLCAnPG91dGZpbGUubWFlPic=

> <r_epik_Ionization_Penalty>
6.13951

> <r_epik_Ionization_Penalty_Charging>
6.13946

> <r_epik_Ionization_Penalty_Neutral>
4.54304e-05

> <r_epik_State_Penalty>
6.9595

> <r_epik_Charging_Adjusted_Penalty>
13.099

> <i_epik_Tot_Q>
0

> <i_epik_Tot_abs_Q>
2

> <r_epik_Metal_State_Penalty>
2.89141

> <b_epik_Metal_Only>
1

> <s_lp_Force_Field>
OPLS_2005

> <r_lp_Energy>
12.9207

> <b_lp_Chiralities_Consistent>
1

> <s_lp_Variant>
AV-unprocessed.smi:1388-5

> <Gold.Version>
5.8.1

> <Gold.Id.Protein>
6NUR|6NUR_protein|mol2

> <Gold.PLP.Fitness>
48.1736

> <Gold.PLP.PLP>
-36.8546

> <Gold.PLP.part.hbond>
-3.0000

> <Gold.PLP.part.metal>
0.0000

> <Gold.PLP.part.buried>
-1.8218

> <Gold.PLP.part.nonpolar>
-32.6851

> <Gold.PLP.part.repulsive>
0.4391

> <Gold.PLP.ligand.clash>
0.0000

> <Gold.PLP.ligand.torsion>
0.5305

> <Gold.PLP.Chemscore.Hbond>
4.0966

> <Gold.PLP.Chemscore.CHOScore>
0.0000

> <Gold.PLP.Chemscore.Metal>
0.0000

> <Gold.Chemscore.Hbonds>
donor molecule, donor type, donor heavy atom, donor atom, acceptor molecule, acceptor atom, score
      L1  H     6    45       P1  7948  2.00
      P1  H  6896  6908       L1     2  1.98
      P1  H  7989  7998       L1    12  0.11

> <Gold.PLP.Chemscore.Internal.Correction>
0.0902

> <Gold.Rescore>
     Score         DG    S(hbond)    S(metal)    S(lipo)     H(rot)  DE(clash)    DE(int)     intcor
     14.00     -17.24       1.55        0.00      91.87       1.63       0.13       3.11       ----

> <Gold.Chemscore.Fitness>
13.9973

> <Gold.Chemscore.DG>
-17.2434

> <Gold.Chemscore.ZeroCoef>
-5.4800

> <Gold.Chemscore.Hbond>
1.5533

> <Gold.Chemscore.Metal>
0.0000

> <Gold.Chemscore.Lipo>
91.8693

> <Gold.Chemscore.Internal_Hbond>
0.0000

> <Gold.Chemscore.DEClash>
0.1334

> <Gold.Chemscore.DEInternal>
3.1127

> <Gold.Chemscore.Rot>
1.6303

> <Gold.Chemscore.Internal.Correction>
   9.000000E+99

> <Gold.Chemscore.Hbonds>
donor molecule, donor type, donor heavy atom, donor atom, acceptor molecule, acceptor atom, score
      L1  H     6    45       P1  7948  0.84
      P1  H  6896  6908       L1     2  0.23
      P1  H  7989  7998       L1    12  0.02

> <Gold.Chemscore.Hbond.Weighted>
-5.1882

> <Gold.Chemscore.Metal.Weighted>
-0.0000

> <Gold.Chemscore.Lipo.Weighted>
-10.7487

> <Gold.Chemscore.Internal_Hbond.Weighted>
0.0000

> <Gold.Chemscore.DEClash.Weighted>
0.1334

> <Gold.Chemscore.DEInternal.Weighted>
3.1127

> <Gold.Chemscore.Rot.Weighted>
4.1735

> <Gold.Chemscore.Internal.Correction.Weighted>
   9.000000E+99

> <Gold.Protein.RotatedTorsions>
[ 6907 6896 6895 6894 ] final  134.63 input  -60.11 | X-H torsion
[ 7974 7965 7964 7962 ] final  -66.94 input  175.53 | X-H torsion
[ 8008 7997 7996 7995 ] final  174.60 input   59.86 | X-H torsion
[ 10167 10162 10161 10158 ] final   93.31 input  -65.29 | X-H torsion
[ 10718 10713 10712 10709 ] final  124.71 input   66.30 | X-H torsion
[ 10763 10752 10751 10750 ] final -169.92 input  -60.55 | X-H torsion
[ 11005 11000 10999 10996 ] final   49.62 input  -57.11 | X-H torsion

> <Gold.Protein.ActiveResidues>
 VAL166  LYS551  ARG553  GLY616  TRP617  ASP618  TYR619  PRO620  LYS621  CYS622 
 ASP623  PHE694  ASN695  SER759  ASP760  ASP761  ALA762  ILE779  LEU786  VAL792 
 PHE793  MET794  SER795  GLU796  ALA797  LYS798  CYS799  TRP800  GLU811  SER814 

> <Gold.Protein.RotatedAtoms>
  152.3092  133.5735  159.5669 H   0  0  0  0  0  0  0  0  0  0  0  0  # atno 6907 bound_to 6896
  150.7315  134.0177  159.3699 H   0  0  0  0  0  0  0  0  0  0  0  0  # atno 6908 bound_to 6896
  151.8071  135.0692  160.0459 H   0  0  0  0  0  0  0  0  0  0  0  0  # atno 6909 bound_to 6896
  145.7355  140.8977  143.0557 H   0  0  0  0  0  0  0  0  0  0  0  0  # atno 7974 bound_to 7965
  156.0957  140.1430  156.9533 H   0  0  0  0  0  0  0  0  0  0  0  0  # atno 8008 bound_to 7997
  154.4670  140.0923  156.7092 H   0  0  0  0  0  0  0  0  0  0  0  0  # atno 8009 bound_to 7997
  155.4844  140.3446  155.4347 H   0  0  0  0  0  0  0  0  0  0  0  0  # atno 8010 bound_to 7997
  139.8192  144.6739  150.9540 H   0  0  0  0  0  0  0  0  0  0  0  0  # atno 10167 bound_to 10162
  157.5563  131.1092  150.8616 H   0  0  0  0  0  0  0  0  0  0  0  0  # atno 10718 bound_to 10713
  154.6471  135.2906  155.0033 H   0  0  0  0  0  0  0  0  0  0  0  0  # atno 10763 bound_to 10752
  154.1139  135.6558  153.4894 H   0  0  0  0  0  0  0  0  0  0  0  0  # atno 10764 bound_to 10752
  153.0356  135.5271  154.7362 H   0  0  0  0  0  0  0  0  0  0  0  0  # atno 10765 bound_to 10752
  140.1088  134.4983  155.8696 H   0  0  0  0  0  0  0  0  0  0  0  0  # atno 11005 bound_to 11000
  144.6883  139.9389  143.7474 LP  0  0  0  0  0  0  0  0  0  0  0  0  # atno 17320 bound_to 7965
  146.0497  139.3499  143.0647 LP  0  0  0  0  0  0  0  0  0  0  0  0  # atno 17321 bound_to 7965
  140.7814  143.4108  151.0996 LP  0  0  0  0  0  0  0  0  0  0  0  0  # atno 17342 bound_to 10162
  139.7770  143.8411  152.3131 LP  0  0  0  0  0  0  0  0  0  0  0  0  # atno 17343 bound_to 10162
  156.9126  130.5286  149.5280 LP  0  0  0  0  0  0  0  0  0  0  0  0  # atno 17370 bound_to 10713
  156.0622  130.5672  150.9215 LP  0  0  0  0  0  0  0  0  0  0  0  0  # atno 17371 bound_to 10713
  141.2125  133.6720  156.6663 LP  0  0  0  0  0  0  0  0  0  0  0  0  # atno 17394 bound_to 11000
  140.3120  134.8078  157.4184 LP  0  0  0  0  0  0  0  0  0  0  0  0  # atno 17395 bound_to 11000

$$$$
