AV-unprocessed.smi:2473|AV-procd|sdf|9745|dock7
  -GOLD-   2272013383D 1   1.00000     0.00000
 Structure written by MMmdl.
 48 49  0  0  0  0  0  0  0  0  2 V2000
  153.7321  141.4124  161.4388 C   0  0  0  0  0  0  0  0  0  0  0  0
  152.6912  141.8576  160.4013 C   0  0  2  0  0  0  0  0  0  0  0  0
  152.7707  140.9977  159.1272 C   0  0  0  0  0  0  0  0  0  0  0  0
  151.7237  141.4387  158.0858 C   0  0  2  0  0  0  0  0  0  0  0  0
  151.8080  140.5912  156.8098 C   0  0  0  0  0  0  0  0  0  0  0  0
  152.7199  139.7778  156.6583 O   0  0  0  0  0  0  0  0  0  0  0  0
  150.8631  140.8139  155.8843 N   0  0  0  0  0  0  0  0  0  0  0  0
  150.8121  140.1868  154.5671 C   0  0  0  0  0  0  0  0  0  0  0  0
  149.6864  139.1392  154.4458 C   0  0  0  0  0  0  0  0  0  0  0  0
  148.5073  139.6009  153.6385 C   0  0  0  0  0  0  0  0  0  0  0  0
  147.9563  138.9215  152.6254 N   0  3  0  0  0  0  0  0  0  0  0  0
  146.8918  139.6092  152.1105 C   0  0  0  0  0  0  0  0  0  0  0  0
  146.7890  140.7644  152.8396 C   0  0  0  0  0  0  0  0  0  0  0  0
  147.7961  140.7347  153.7700 N   0  0  0  0  0  0  0  0  0  0  0  0
  148.0830  141.7679  154.7675 C   0  0  0  0  0  0  0  0  0  0  0  0
  151.9023  142.9349  157.7469 C   0  0  0  0  0  0  0  0  0  0  0  0
  151.8491  143.8601  158.9869 C   0  0  0  0  0  0  0  0  0  0  0  0
  152.2561  145.2838  158.5595 C   0  0  0  0  0  0  0  0  0  0  0  0
  150.4168  143.9330  159.5607 C   0  0  0  0  0  0  0  0  0  0  0  0
  152.8515  143.3529  160.0540 C   0  0  0  0  0  0  0  0  0  0  0  0
  154.7471  141.5240  161.0561 H   0  0  0  0  0  0  0  0  0  0  0  0
  153.5925  140.3660  161.7114 H   0  0  0  0  0  0  0  0  0  0  0  0
  153.6541  142.0030  162.3520 H   0  0  0  0  0  0  0  0  0  0  0  0
  151.7096  141.7082  160.8509 H   0  0  0  0  0  0  0  0  0  0  0  0
  153.7750  141.0708  158.7059 H   0  0  0  0  0  0  0  0  0  0  0  0
  152.6195  139.9479  159.3829 H   0  0  0  0  0  0  0  0  0  0  0  0
  150.7335  141.2885  158.5181 H   0  0  0  0  0  0  0  0  0  0  0  0
  150.1442  141.4905  156.0972 H   0  0  0  0  0  0  0  0  0  0  0  0
  150.7145  140.9450  153.7888 H   0  0  0  0  0  0  0  0  0  0  0  0
  151.7752  139.7019  154.4054 H   0  0  0  0  0  0  0  0  0  0  0  0
  150.0670  138.2220  153.9975 H   0  0  0  0  0  0  0  0  0  0  0  0
  149.3077  138.8714  155.4324 H   0  0  0  0  0  0  0  0  0  0  0  0
  146.3038  139.2351  151.2850 H   0  0  0  0  0  0  0  0  0  0  0  0
  146.0916  141.5865  152.7648 H   0  0  0  0  0  0  0  0  0  0  0  0
  147.3297  142.5538  154.7069 H   0  0  0  0  0  0  0  0  0  0  0  0
  149.0672  142.1945  154.5722 H   0  0  0  0  0  0  0  0  0  0  0  0
  148.0619  141.3298  155.7648 H   0  0  0  0  0  0  0  0  0  0  0  0
  152.8621  143.0702  157.2449 H   0  0  0  0  0  0  0  0  0  0  0  0
  151.1436  143.2448  157.0262 H   0  0  0  0  0  0  0  0  0  0  0  0
  152.2399  145.9725  159.4048 H   0  0  0  0  0  0  0  0  0  0  0  0
  151.5806  145.6794  157.8001 H   0  0  0  0  0  0  0  0  0  0  0  0
  153.2636  145.3043  158.1423 H   0  0  0  0  0  0  0  0  0  0  0  0
  150.3704  144.6036  160.4194 H   0  0  0  0  0  0  0  0  0  0  0  0
  150.0455  142.9644  159.8916 H   0  0  0  0  0  0  0  0  0  0  0  0
  149.7138  144.3093  158.8168 H   0  0  0  0  0  0  0  0  0  0  0  0
  152.7593  143.9524  160.9607 H   0  0  0  0  0  0  0  0  0  0  0  0
  153.8687  143.5150  159.6934 H   0  0  0  0  0  0  0  0  0  0  0  0
  148.2831  138.0240  152.2901 H   0  0  0  0  0  0  0  0  0  0  0  0
  1  2  1  0  0  0  0
  1 21  1  0  0  0  0
  1 22  1  0  0  0  0
  1 23  1  0  0  0  0
  2 20  1  0  0  0  0
  2  3  1  0  0  0  0
  2 24  1  0  0  0  0
  3  4  1  0  0  0  0
  3 25  1  0  0  0  0
  3 26  1  0  0  0  0
  4  5  1  0  0  0  0
  4 16  1  0  0  0  0
  4 27  1  0  0  0  0
  5  6  2  0  0  0  0
  5  7  1  0  0  0  0
  7  8  1  0  0  0  0
  7 28  1  0  0  0  0
  8  9  1  0  0  0  0
  8 29  1  0  0  0  0
  8 30  1  0  0  0  0
  9 10  1  0  0  0  0
  9 31  1  0  0  0  0
  9 32  1  0  0  0  0
 10 14  1  0  0  0  0
 10 11  2  0  0  0  0
 11 12  1  0  0  0  0
 11 48  1  0  0  0  0
 12 13  2  0  0  0  0
 12 33  1  0  0  0  0
 13 14  1  0  0  0  0
 13 34  1  0  0  0  0
 14 15  1  0  0  0  0
 15 35  1  0  0  0  0
 15 36  1  0  0  0  0
 15 37  1  0  0  0  0
 16 17  1  0  0  0  0
 16 38  1  0  0  0  0
 16 39  1  0  0  0  0
 17 18  1  0  0  0  0
 17 19  1  0  0  0  0
 17 20  1  0  0  0  0
 18 40  1  0  0  0  0
 18 41  1  0  0  0  0
 18 42  1  0  0  0  0
 19 43  1  0  0  0  0
 19 44  1  0  0  0  0
 19 45  1  0  0  0  0
 20 46  1  0  0  0  0
 20 47  1  0  0  0  0
M  CHG  1  11   1
M  END
> <s_m_source_file>
AV-unprocessed.smi

> <i_m_source_file_index>
2473

> <i_lp_mmshare_version>
43012

> <i_f3d_flags>
0

> <s_epik_input>
W0NIM11bQ0BASF0oW0NIMl0xKVtDSDJdW0NASF0oW0NIMl1DMShbQ0gzXSlbQ0gzXSlDKD1PKVtOSF1bQ0gyXVtDSDJdYzJuW2NIXVtjSF1uMltDSDNd

> <s_epik_cmdline>
J2VwaWtfcHl0aG9uJywgJy1waCcsICc3LjAnLCAnLXRuJywgJzgnLCAnLW1hJywgJzIwMCcsICctbWV0YWxfYmluZGluZycsICctaW1hZScsICc8aW5maWxlLm1hZT4nLCAnLW9tYWUnLCAnPG91dGZpbGUubWFlPic=

> <r_lp_tautomer_probability>
1

> <r_epik_Ionization_Penalty>
0.0796112

> <r_epik_Ionization_Penalty_Charging>
0

> <r_epik_Ionization_Penalty_Neutral>
0.0796112

> <r_epik_State_Penalty>
0.0704541

> <r_epik_Charging_Adjusted_Penalty>
0.0704541

> <i_epik_Tot_Q>
1

> <i_epik_Tot_abs_Q>
1

> <r_epik_Metal_State_Penalty>
0.409899

> <b_epik_Metal_Only>
0

> <s_lp_Force_Field>
OPLS_2005

> <r_lp_Energy>
16.1806

> <b_lp_Chiralities_Consistent>
1

> <s_lp_Variant>
AV-unprocessed.smi:2473-3

> <Gold.Version>
5.8.1

> <Gold.Id.Protein>
6NUR|6NUR_protein|mol2

> <Gold.PLP.Fitness>
54.8416

> <Gold.PLP.PLP>
-44.4142

> <Gold.PLP.part.hbond>
-3.0000

> <Gold.PLP.part.metal>
0.0000

> <Gold.PLP.part.buried>
-0.7606

> <Gold.PLP.part.nonpolar>
-41.1829

> <Gold.PLP.part.repulsive>
0.1659

> <Gold.PLP.ligand.clash>
0.0000

> <Gold.PLP.ligand.torsion>
0.5174

> <Gold.PLP.Chemscore.Hbond>
3.0000

> <Gold.PLP.Chemscore.CHOScore>
0.8131

> <Gold.PLP.Chemscore.Metal>
0.0000

> <Gold.Chemscore.Hbonds>
donor molecule, donor type, donor heavy atom, donor atom, acceptor molecule, acceptor atom, score
      L1  H    11    48       P1  7948  2.00
      P1  H  7997  8010       L1     6  1.00
      L1  C    13    34       P1 10175  0.17

> <Gold.PLP.Chemscore.Internal.Correction>
0.0228

> <Gold.Rescore>
     Score         DG    S(hbond)    S(metal)    S(lipo)     H(rot)  DE(clash)    DE(int)     intcor
     21.45     -22.34       1.87        0.00     125.40       1.58       0.47       0.42       ----

> <Gold.Chemscore.Fitness>
21.4543

> <Gold.Chemscore.DG>
-22.3393

> <Gold.Chemscore.ZeroCoef>
-5.4800

> <Gold.Chemscore.Hbond>
1.8674

> <Gold.Chemscore.Metal>
0.0000

> <Gold.Chemscore.Lipo>
125.3983

> <Gold.Chemscore.Internal_Hbond>
0.0000

> <Gold.Chemscore.DEClash>
0.4676

> <Gold.Chemscore.DEInternal>
0.4174

> <Gold.Chemscore.Rot>
1.5818

> <Gold.Chemscore.Internal.Correction>
   9.000000E+99

> <Gold.Chemscore.Hbonds>
donor molecule, donor type, donor heavy atom, donor atom, acceptor molecule, acceptor atom, score
      L1  H    11    48       P1  7948  0.99
      P1  H  7997  8010       L1     6  1.00

> <Gold.Chemscore.Hbond.Weighted>
-6.2372

> <Gold.Chemscore.Metal.Weighted>
-0.0000

> <Gold.Chemscore.Lipo.Weighted>
-14.6716

> <Gold.Chemscore.Internal_Hbond.Weighted>
0.0000

> <Gold.Chemscore.DEClash.Weighted>
0.4676

> <Gold.Chemscore.DEInternal.Weighted>
0.4174

> <Gold.Chemscore.Rot.Weighted>
4.0495

> <Gold.Chemscore.Internal.Correction.Weighted>
   9.000000E+99

> <Gold.Protein.RotatedTorsions>
[ 6907 6896 6895 6894 ] final  -57.46 input  -60.11 | X-H torsion
[ 7974 7965 7964 7962 ] final  -53.00 input  175.53 | X-H torsion
[ 8008 7997 7996 7995 ] final   74.39 input   59.86 | X-H torsion
[ 10167 10162 10161 10158 ] final  -18.66 input  -65.29 | X-H torsion
[ 10718 10713 10712 10709 ] final   96.58 input   66.30 | X-H torsion
[ 10763 10752 10751 10750 ] final    3.24 input  -60.55 | X-H torsion
[ 11005 11000 10999 10996 ] final   13.57 input  -57.11 | X-H torsion

> <Gold.Protein.ActiveResidues>
 VAL166  LYS551  ARG553  GLY616  TRP617  ASP618  TYR619  PRO620  LYS621  CYS622 
 ASP623  PHE694  ASN695  SER759  ASP760  ASP761  ALA762  ILE779  LEU786  VAL792 
 PHE793  MET794  SER795  GLU796  ALA797  LYS798  CYS799  TRP800  GLU811  SER814 

> <Gold.Protein.RotatedAtoms>
  150.8084  134.7224  159.6665 H   0  0  0  0  0  0  0  0  0  0  0  0  # atno 6907 bound_to 6896
  152.4204  134.5962  159.9997 H   0  0  0  0  0  0  0  0  0  0  0  0  # atno 6908 bound_to 6896
  151.6179  133.3304  159.3117 H   0  0  0  0  0  0  0  0  0  0  0  0  # atno 6909 bound_to 6896
  145.9018  140.7988  142.9739 H   0  0  0  0  0  0  0  0  0  0  0  0  # atno 7974 bound_to 7965
  155.7977  140.3477  155.5385 H   0  0  0  0  0  0  0  0  0  0  0  0  # atno 8008 bound_to 7997
  155.8570  140.0965  157.1659 H   0  0  0  0  0  0  0  0  0  0  0  0  # atno 8009 bound_to 7997
  154.4010  140.1366  156.3901 H   0  0  0  0  0  0  0  0  0  0  0  0  # atno 8010 bound_to 7997
  140.7261  143.4895  151.0011 H   0  0  0  0  0  0  0  0  0  0  0  0  # atno 10167 bound_to 10162
  157.6925  131.0582  150.4512 H   0  0  0  0  0  0  0  0  0  0  0  0  # atno 10718 bound_to 10713
  153.2857  135.6944  153.7342 H   0  0  0  0  0  0  0  0  0  0  0  0  # atno 10763 bound_to 10752
  153.6312  135.3410  155.3043 H   0  0  0  0  0  0  0  0  0  0  0  0  # atno 10764 bound_to 10752
  154.8509  135.4409  154.1924 H   0  0  0  0  0  0  0  0  0  0  0  0  # atno 10765 bound_to 10752
  140.4792  134.0952  155.7747 H   0  0  0  0  0  0  0  0  0  0  0  0  # atno 11005 bound_to 11000
  144.6736  140.1688  143.7416 LP  0  0  0  0  0  0  0  0  0  0  0  0  # atno 17320 bound_to 7965
  145.8782  139.2308  143.1621 LP  0  0  0  0  0  0  0  0  0  0  0  0  # atno 17321 bound_to 7965
  139.8598  143.7329  152.3174 LP  0  0  0  0  0  0  0  0  0  0  0  0  # atno 17342 bound_to 10162
  139.7540  144.7526  151.0463 LP  0  0  0  0  0  0  0  0  0  0  0  0  # atno 17343 bound_to 10162
  156.4863  130.4085  149.6432 LP  0  0  0  0  0  0  0  0  0  0  0  0  # atno 17370 bound_to 10713
  156.3459  130.7406  151.2359 LP  0  0  0  0  0  0  0  0  0  0  0  0  # atno 17371 bound_to 10713
  141.1539  133.8918  157.2027 LP  0  0  0  0  0  0  0  0  0  0  0  0  # atno 17394 bound_to 11000
  139.9837  135.0089  156.9810 LP  0  0  0  0  0  0  0  0  0  0  0  0  # atno 17395 bound_to 11000

$$$$
