AV-unprocessed.smi:1815|AV-procd|sdf|7352|dock1
  -GOLD-   22720 9 13D 1   1.00000     0.00000
 Structure written by MMmdl.
 39 40  0  0  0  0  0  0  0  0  1 V2000
  150.8278  137.5951  155.6395 C   0  0  0  0  0  0  0  0  0  0  0  0
  150.9929  138.6600  154.5417 C   0  0  1  0  0  0  0  0  0  0  0  0
  149.7532  138.7980  153.6356 C   0  0  0  0  0  0  0  0  0  0  0  0
  148.6441  139.4791  154.2991 N   0  0  0  0  0  0  0  0  0  0  0  0
  147.4759  139.6298  153.4308 C   0  0  0  0  0  0  0  0  0  0  0  0
  146.3719  138.5705  153.6197 C   0  0  0  0  0  0  0  0  0  0  0  0
  146.6136  137.3803  152.8105 N   0  0  0  0  0  0  0  0  0  0  0  0
  145.6765  136.4924  152.4493 C   0  0  0  0  0  0  0  0  0  0  0  0
  144.4875  136.5997  152.7518 O   0  0  0  0  0  0  0  0  0  0  0  0
  146.2084  135.4888  151.7297 N   0  0  0  0  0  0  0  0  0  0  0  0
  145.5457  134.3691  151.1614 C   0  0  0  0  0  0  0  0  0  0  0  0
  144.2162  134.2418  151.0762 N   0  0  0  0  0  0  0  0  0  0  0  0
  143.8419  133.0409  150.4680 C   0  0  0  0  0  0  0  0  0  0  0  0
  144.9070  132.2597  150.0939 C   0  0  0  0  0  0  0  0  0  0  0  0
  146.4315  133.0068  150.4913 S   0  0  0  0  0  0  0  0  0  0  0  0
  149.1043  140.7724  154.7867 C   0  0  0  0  0  0  0  0  0  0  0  0
  150.3022  140.6333  155.7432 C   0  0  2  0  0  0  0  0  0  0  0  0
  150.8461  141.9949  156.1880 C   0  0  0  0  0  0  0  0  0  0  0  0
  151.3549  139.9304  155.0853 O   0  0  0  0  0  0  0  0  0  0  0  0
  150.6652  136.6101  155.2017 H   0  0  0  0  0  0  0  0  0  0  0  0
  149.9797  137.8052  156.2910 H   0  0  0  0  0  0  0  0  0  0  0  0
  151.7211  137.5366  156.2613 H   0  0  0  0  0  0  0  0  0  0  0  0
  151.8297  138.3453  153.9175 H   0  0  0  0  0  0  0  0  0  0  0  0
  150.0326  139.3522  152.7383 H   0  0  0  0  0  0  0  0  0  0  0  0
  149.4488  137.8065  153.3024 H   0  0  0  0  0  0  0  0  0  0  0  0
  147.0297  140.6098  153.6061 H   0  0  0  0  0  0  0  0  0  0  0  0
  147.7934  139.6345  152.3871 H   0  0  0  0  0  0  0  0  0  0  0  0
  146.3040  138.2929  154.6727 H   0  0  0  0  0  0  0  0  0  0  0  0
  145.3947  138.9753  153.3580 H   0  0  0  0  0  0  0  0  0  0  0  0
  147.5666  137.2124  152.5238 H   0  0  0  0  0  0  0  0  0  0  0  0
  147.2037  135.5311  151.5676 H   0  0  0  0  0  0  0  0  0  0  0  0
  142.7920  132.8217  150.3415 H   0  0  0  0  0  0  0  0  0  0  0  0
  144.8865  131.2944  149.6102 H   0  0  0  0  0  0  0  0  0  0  0  0
  149.3812  141.4072  153.9433 H   0  0  0  0  0  0  0  0  0  0  0  0
  148.2904  141.2810  155.3050 H   0  0  0  0  0  0  0  0  0  0  0  0
  149.9965  140.0794  156.6313 H   0  0  0  0  0  0  0  0  0  0  0  0
  150.0820  142.5721  156.7092 H   0  0  0  0  0  0  0  0  0  0  0  0
  151.1852  142.5821  155.3341 H   0  0  0  0  0  0  0  0  0  0  0  0
  151.6914  141.8738  156.8657 H   0  0  0  0  0  0  0  0  0  0  0  0
  1  2  1  0  0  0  0
  1 20  1  0  0  0  0
  1 21  1  0  0  0  0
  1 22  1  0  0  0  0
  2 19  1  0  0  0  0
  2  3  1  0  0  0  0
  2 23  1  0  0  0  0
  3  4  1  0  0  0  0
  3 24  1  0  0  0  0
  3 25  1  0  0  0  0
  4  5  1  0  0  0  0
  4 16  1  0  0  0  0
  5  6  1  0  0  0  0
  5 26  1  0  0  0  0
  5 27  1  0  0  0  0
  6  7  1  0  0  0  0
  6 28  1  0  0  0  0
  6 29  1  0  0  0  0
  7  8  1  0  0  0  0
  7 30  1  0  0  0  0
  8  9  2  0  0  0  0
  8 10  1  0  0  0  0
 10 11  1  0  0  0  0
 10 31  1  0  0  0  0
 11 15  1  0  0  0  0
 11 12  2  0  0  0  0
 12 13  1  0  0  0  0
 13 14  2  0  0  0  0
 13 32  1  0  0  0  0
 14 15  1  0  0  0  0
 14 33  1  0  0  0  0
 16 17  1  0  0  0  0
 16 34  1  0  0  0  0
 16 35  1  0  0  0  0
 17 18  1  0  0  0  0
 17 19  1  0  0  0  0
 17 36  1  0  0  0  0
 18 37  1  0  0  0  0
 18 38  1  0  0  0  0
 18 39  1  0  0  0  0
M  END
> <s_m_source_file>
AV-unprocessed.smi

> <i_m_source_file_index>
1815

> <i_lp_mmshare_version>
43012

> <i_f3d_flags>
0

> <s_epik_input>
W0NIM11bQ0BASF0xW0NIMl1OKFtDSDJdW0NASF0oTzEpW0NIM10pW0NIMl1bQ0gyXVtOSF1DKD1PKVtOSF1jMm5bY0hdW2NIXXMy

> <s_epik_cmdline>
J2VwaWtfcHl0aG9uJywgJy1waCcsICc3LjAnLCAnLXRuJywgJzgnLCAnLW1hJywgJzIwMCcsICctbWV0YWxfYmluZGluZycsICctaW1hZScsICc8aW5maWxlLm1hZT4nLCAnLW9tYWUnLCAnPG91dGZpbGUubWFlPic=

> <r_lp_tautomer_probability>
0.999

> <r_epik_Ionization_Penalty>
0.219201

> <r_epik_Ionization_Penalty_Charging>
0

> <r_epik_Ionization_Penalty_Neutral>
0.219201

> <r_epik_State_Penalty>
0.209349

> <r_epik_Charging_Adjusted_Penalty>
0.209349

> <i_epik_Tot_Q>
0

> <i_epik_Tot_abs_Q>
0

> <r_epik_Metal_State_Penalty>
0.247737

> <b_epik_Metal_Only>
0

> <s_lp_Force_Field>
OPLS_2005

> <r_lp_Energy>
25.7567

> <b_lp_Chiralities_Consistent>
1

> <s_lp_Variant>
AV-unprocessed.smi:1815-3

> <Gold.Version>
5.8.1

> <Gold.Id.Protein>
6NUR|6NUR_protein|mol2

> <Gold.PLP.Fitness>
41.0433

> <Gold.PLP.PLP>
-30.9284

> <Gold.PLP.part.hbond>
-3.0000

> <Gold.PLP.part.metal>
0.0000

> <Gold.PLP.part.buried>
-2.7943

> <Gold.PLP.part.nonpolar>
-26.5031

> <Gold.PLP.part.repulsive>
0.5777

> <Gold.PLP.ligand.clash>
0.0000

> <Gold.PLP.ligand.torsion>
0.8808

> <Gold.PLP.Chemscore.Hbond>
3.0000

> <Gold.PLP.Chemscore.CHOScore>
0.9462

> <Gold.PLP.Chemscore.Metal>
0.0000

> <Gold.Chemscore.Hbonds>
donor molecule, donor type, donor heavy atom, donor atom, acceptor molecule, acceptor atom, score
      L1  H     7    30       P1  7948  1.00
      L1  H    10    31       P1  7948  1.00
      P1  H  7989  7998       L1    19  1.00
      L1  C    13    32       P1 10186  0.94

> <Gold.PLP.Chemscore.Internal.Correction>
0.0380

> <Gold.Rescore>
     Score         DG    S(hbond)    S(metal)    S(lipo)     H(rot)  DE(clash)    DE(int)     intcor
     14.64     -17.63       2.14        0.00      77.84       1.60       0.88       2.11       ----

> <Gold.Chemscore.Fitness>
14.6414

> <Gold.Chemscore.DG>
-17.6297

> <Gold.Chemscore.ZeroCoef>
-5.4800

> <Gold.Chemscore.Hbond>
2.1372

> <Gold.Chemscore.Metal>
0.0000

> <Gold.Chemscore.Lipo>
77.8448

> <Gold.Chemscore.Internal_Hbond>
0.0000

> <Gold.Chemscore.DEClash>
0.8807

> <Gold.Chemscore.DEInternal>
2.1075

> <Gold.Chemscore.Rot>
1.6001

> <Gold.Chemscore.Internal.Correction>
   9.000000E+99

> <Gold.Chemscore.Hbonds>
donor molecule, donor type, donor heavy atom, donor atom, acceptor molecule, acceptor atom, score
      L1  H     7    30       P1  7948  0.99
      L1  H    10    31       P1  7948  0.97
      P1  H  7989  7998       L1    19  0.13

> <Gold.Chemscore.Hbond.Weighted>
-7.1381

> <Gold.Chemscore.Metal.Weighted>
-0.0000

> <Gold.Chemscore.Lipo.Weighted>
-9.1078

> <Gold.Chemscore.Internal_Hbond.Weighted>
0.0000

> <Gold.Chemscore.DEClash.Weighted>
0.8807

> <Gold.Chemscore.DEInternal.Weighted>
2.1075

> <Gold.Chemscore.Rot.Weighted>
4.0963

> <Gold.Chemscore.Internal.Correction.Weighted>
   9.000000E+99

> <Gold.Protein.RotatedTorsions>
[ 6907 6896 6895 6894 ] final -137.28 input  -60.11 | X-H torsion
[ 7974 7965 7964 7962 ] final  -51.78 input  175.53 | X-H torsion
[ 8008 7997 7996 7995 ] final   18.09 input   59.86 | X-H torsion
[ 10167 10162 10161 10158 ] final   54.44 input  -65.29 | X-H torsion
[ 10718 10713 10712 10709 ] final  163.48 input   66.30 | X-H torsion
[ 10763 10752 10751 10750 ] final  150.18 input  -60.55 | X-H torsion
[ 11005 11000 10999 10996 ] final   -3.74 input  -57.11 | X-H torsion

> <Gold.Protein.ActiveResidues>
 VAL166  LYS551  ARG553  GLY616  TRP617  ASP618  TYR619  PRO620  LYS621  CYS622 
 ASP623  PHE694  ASN695  SER759  ASP760  ASP761  ALA762  ILE779  LEU786  VAL792 
 PHE793  MET794  SER795  GLU796  ALA797  LYS798  CYS799  TRP800  GLU811  SER814 

> <Gold.Protein.RotatedAtoms>
  151.0205  133.5881  159.2671 H   0  0  0  0  0  0  0  0  0  0  0  0  # atno 6907 bound_to 6896
  151.2999  135.0765  159.9244 H   0  0  0  0  0  0  0  0  0  0  0  0  # atno 6908 bound_to 6896
  152.5322  133.9889  159.7895 H   0  0  0  0  0  0  0  0  0  0  0  0  # atno 6909 bound_to 6896
  145.9152  140.7881  142.9675 H   0  0  0  0  0  0  0  0  0  0  0  0  # atno 7974 bound_to 7965
  154.9009  140.3000  155.5318 H   0  0  0  0  0  0  0  0  0  0  0  0  # atno 8008 bound_to 7997
  156.3018  140.2407  156.3972 H   0  0  0  0  0  0  0  0  0  0  0  0  # atno 8009 bound_to 7997
  154.8522  140.0409  157.1600 H   0  0  0  0  0  0  0  0  0  0  0  0  # atno 8010 bound_to 7997
  140.2301  144.3696  150.6418 H   0  0  0  0  0  0  0  0  0  0  0  0  # atno 10167 bound_to 10162
  157.1079  131.0460  151.2470 H   0  0  0  0  0  0  0  0  0  0  0  0  # atno 10718 bound_to 10713
  154.0833  135.2858  155.3286 H   0  0  0  0  0  0  0  0  0  0  0  0  # atno 10763 bound_to 10752
  154.6669  135.5314  153.8092 H   0  0  0  0  0  0  0  0  0  0  0  0  # atno 10764 bound_to 10752
  153.0441  135.6548  154.1006 H   0  0  0  0  0  0  0  0  0  0  0  0  # atno 10765 bound_to 10752
  140.6726  133.9223  155.8504 H   0  0  0  0  0  0  0  0  0  0  0  0  # atno 11005 bound_to 11000
  144.6747  140.1888  143.7398 LP  0  0  0  0  0  0  0  0  0  0  0  0  # atno 17320 bound_to 7965
  145.8621  139.2228  143.1710 LP  0  0  0  0  0  0  0  0  0  0  0  0  # atno 17321 bound_to 7965
  140.6191  143.2175  151.6730 LP  0  0  0  0  0  0  0  0  0  0  0  0  # atno 17342 bound_to 10162
  139.5113  144.3513  152.0649 LP  0  0  0  0  0  0  0  0  0  0  0  0  # atno 17343 bound_to 10162
  157.4584  130.7639  149.7214 LP  0  0  0  0  0  0  0  0  0  0  0  0  # atno 17370 bound_to 10713
  155.9857  130.3980  150.3247 LP  0  0  0  0  0  0  0  0  0  0  0  0  # atno 17371 bound_to 10713
  141.0380  134.0662  157.3936 LP  0  0  0  0  0  0  0  0  0  0  0  0  # atno 17394 bound_to 11000
  139.8977  135.0151  156.7112 LP  0  0  0  0  0  0  0  0  0  0  0  0  # atno 17395 bound_to 11000

$$$$
