AV-unprocessed.smi:3278|AV-procd|sdf|12540|dock4
  -GOLD-   2272018453D 1   1.00000     0.00000
 Structure written by MMmdl.
 39 40  0  0  0  0  0  0  0  0  2 V2000
  140.8947  137.8427  153.8003 C   0  0  0  0  0  0  0  0  0  0  0  0
  141.8426  136.8372  153.3706 N   0  0  0  0  0  0  0  0  0  0  0  0
  142.9656  136.9916  152.5874 C   0  0  0  0  0  0  0  0  0  0  0  0
  143.5488  135.7614  152.4512 C   0  0  0  0  0  0  0  0  0  0  0  0
  144.8058  135.3752  151.7009 C   0  0  1  0  0  0  0  0  0  0  0  0
  144.4483  134.4489  150.5263 C   0  0  0  0  0  0  0  0  0  0  0  0
  145.4467  136.5011  151.1290 O   0  0  0  0  0  0  0  0  0  0  0  0
  145.8273  134.6936  152.6376 C   0  0  0  0  0  0  0  0  0  0  0  0
  147.0600  134.3064  151.9141 N   0  3  0  0  0  0  0  0  0  0  0  0
  147.6728  133.0277  152.3355 C   0  0  2  0  0  0  0  0  0  0  0  0
  146.5591  131.9960  152.6019 C   0  0  0  0  0  0  0  0  0  0  0  0
  147.1054  130.6053  152.9649 C   0  0  0  0  0  0  0  0  0  0  0  0
  147.9539  130.6254  154.2433 C   0  0  0  0  0  0  0  0  0  0  0  0
  149.4088  131.6872  154.0430 S   0  0  0  0  0  0  0  0  0  0  0  0
  148.5633  133.2234  153.5800 C   0  0  0  0  0  0  0  0  0  0  0  0
  142.6806  134.9091  153.1952 C   0  0  0  0  0  0  0  0  0  0  0  0
  141.6684  135.5551  153.7484 N   0  0  0  0  0  0  0  0  0  0  0  0
  141.1818  138.8194  153.4094 H   0  0  0  0  0  0  0  0  0  0  0  0
  140.8734  137.8890  154.8895 H   0  0  0  0  0  0  0  0  0  0  0  0
  139.8990  137.5931  153.4322 H   0  0  0  0  0  0  0  0  0  0  0  0
  143.2561  137.9561  152.1968 H   0  0  0  0  0  0  0  0  0  0  0  0
  143.9725  133.5312  150.8744 H   0  0  0  0  0  0  0  0  0  0  0  0
  145.3342  134.1618  149.9582 H   0  0  0  0  0  0  0  0  0  0  0  0
  143.7571  134.9337  149.8353 H   0  0  0  0  0  0  0  0  0  0  0  0
  144.7894  137.1410  150.9002 H   0  0  0  0  0  0  0  0  0  0  0  0
  146.0982  135.3776  153.4435 H   0  0  0  0  0  0  0  0  0  0  0  0
  145.3793  133.8183  153.1085 H   0  0  0  0  0  0  0  0  0  0  0  0
  146.8665  134.2720  150.9233 H   0  0  0  0  0  0  0  0  0  0  0  0
  148.2843  132.6581  151.5106 H   0  0  0  0  0  0  0  0  0  0  0  0
  145.9067  132.3502  153.4016 H   0  0  0  0  0  0  0  0  0  0  0  0
  145.9299  131.9039  151.7155 H   0  0  0  0  0  0  0  0  0  0  0  0
  146.2715  129.9157  153.0990 H   0  0  0  0  0  0  0  0  0  0  0  0
  147.6960  130.2112  152.1366 H   0  0  0  0  0  0  0  0  0  0  0  0
  147.3640  130.9845  155.0874 H   0  0  0  0  0  0  0  0  0  0  0  0
  148.2875  129.6177  154.4918 H   0  0  0  0  0  0  0  0  0  0  0  0
  149.3297  133.9773  153.4022 H   0  0  0  0  0  0  0  0  0  0  0  0
  147.9686  133.5678  154.4271 H   0  0  0  0  0  0  0  0  0  0  0  0
  142.7616  133.8438  153.3540 H   0  0  0  0  0  0  0  0  0  0  0  0
  147.7371  135.0379  152.0783 H   0  0  0  0  0  0  0  0  0  0  0  0
  1  2  1  0  0  0  0
  1 18  1  0  0  0  0
  1 19  1  0  0  0  0
  1 20  1  0  0  0  0
  2 17  1  0  0  0  0
  2  3  1  0  0  0  0
  3  4  2  0  0  0  0
  3 21  1  0  0  0  0
  4  5  1  0  0  0  0
  4 16  1  0  0  0  0
  5  6  1  0  0  0  0
  5  7  1  0  0  0  0
  5  8  1  0  0  0  0
  6 22  1  0  0  0  0
  6 23  1  0  0  0  0
  6 24  1  0  0  0  0
  7 25  1  0  0  0  0
  8  9  1  0  0  0  0
  8 26  1  0  0  0  0
  8 27  1  0  0  0  0
  9 10  1  0  0  0  0
  9 28  1  0  0  0  0
  9 39  1  0  0  0  0
 10 15  1  0  0  0  0
 10 11  1  0  0  0  0
 10 29  1  0  0  0  0
 11 12  1  0  0  0  0
 11 30  1  0  0  0  0
 11 31  1  0  0  0  0
 12 13  1  0  0  0  0
 12 32  1  0  0  0  0
 12 33  1  0  0  0  0
 13 14  1  0  0  0  0
 13 34  1  0  0  0  0
 13 35  1  0  0  0  0
 14 15  1  0  0  0  0
 15 36  1  0  0  0  0
 15 37  1  0  0  0  0
 16 17  2  0  0  0  0
 16 38  1  0  0  0  0
M  CHG  1   9   1
M  END
> <s_m_source_file>
AV-unprocessed.smi

> <i_m_source_file_index>
3278

> <i_lp_mmshare_version>
43012

> <i_f3d_flags>
0

> <s_epik_input>
W0NIM11uMVtjSF1jKFtjSF1uMSlbQ0BAXShbQ0gzXSkoW09IXSlbQ0gyXVtOSF1bQ0BASF0yW0NIMl1bQ0gyXVtDSDJdU1tDSDJdMg==

> <s_epik_cmdline>
J2VwaWtfcHl0aG9uJywgJy1waCcsICc3LjAnLCAnLXRuJywgJzgnLCAnLW1hJywgJzIwMCcsICctbWV0YWxfYmluZGluZycsICctaW1hZScsICc8aW5maWxlLm1hZT4nLCAnLW9tYWUnLCAnPG91dGZpbGUubWFlPic=

> <r_lp_tautomer_probability>
1

> <r_epik_Ionization_Penalty>
0.0185703

> <r_epik_Ionization_Penalty_Charging>
0.0185619

> <r_epik_Ionization_Penalty_Neutral>
8.47286e-06

> <r_epik_State_Penalty>
0.0147768

> <r_epik_Charging_Adjusted_Penalty>
0.0333386

> <i_epik_Tot_Q>
1

> <i_epik_Tot_abs_Q>
1

> <r_epik_Metal_State_Penalty>
0.0147782

> <b_epik_Metal_Only>
0

> <s_lp_Force_Field>
OPLS_2005

> <r_lp_Energy>
8.27039

> <b_lp_Chiralities_Consistent>
1

> <s_lp_Variant>
AV-unprocessed.smi:3278-1

> <Gold.Version>
5.8.1

> <Gold.Id.Protein>
6NUR|6NUR_protein|mol2

> <Gold.PLP.Fitness>
47.6015

> <Gold.PLP.PLP>
-30.6945

> <Gold.PLP.part.hbond>
-2.0000

> <Gold.PLP.part.metal>
0.0000

> <Gold.PLP.part.buried>
-4.6766

> <Gold.PLP.part.nonpolar>
-24.3588

> <Gold.PLP.part.repulsive>
0.1846

> <Gold.PLP.ligand.clash>
0.0000

> <Gold.PLP.ligand.torsion>
0.5169

> <Gold.PLP.Chemscore.Hbond>
3.0000

> <Gold.PLP.Chemscore.CHOScore>
2.9692

> <Gold.PLP.Chemscore.Metal>
0.0000

> <Gold.Chemscore.Hbonds>
donor molecule, donor type, donor heavy atom, donor atom, acceptor molecule, acceptor atom, score
      L1  H     7    25       P1 10171  1.00
      L1  H     9    39       P1  7948  2.00
      L1  C     3    21       P1 10171  0.98
      L1  C     3    21       P1 10175  1.00
      L1  C    16    38       P1 10957  1.00

> <Gold.PLP.Chemscore.Internal.Correction>
0.0334

> <Gold.Rescore>
     Score         DG    S(hbond)    S(metal)    S(lipo)     H(rot)  DE(clash)    DE(int)     intcor
     14.28     -14.75       1.95        0.00      67.28       2.00       0.03       0.44       ----

> <Gold.Chemscore.Fitness>
14.2833

> <Gold.Chemscore.DG>
-14.7518

> <Gold.Chemscore.ZeroCoef>
-5.4800

> <Gold.Chemscore.Hbond>
1.9548

> <Gold.Chemscore.Metal>
0.0000

> <Gold.Chemscore.Lipo>
67.2842

> <Gold.Chemscore.Internal_Hbond>
0.0000

> <Gold.Chemscore.DEClash>
0.0294

> <Gold.Chemscore.DEInternal>
0.4390

> <Gold.Chemscore.Rot>
2.0038

> <Gold.Chemscore.Internal.Correction>
   9.000000E+99

> <Gold.Chemscore.Hbonds>
donor molecule, donor type, donor heavy atom, donor atom, acceptor molecule, acceptor atom, score
      L1  H     7    25       P1 10171  0.93
      L1  H     9    39       P1  7948  0.85

> <Gold.Chemscore.Hbond.Weighted>
-6.5292

> <Gold.Chemscore.Metal.Weighted>
-0.0000

> <Gold.Chemscore.Lipo.Weighted>
-7.8723

> <Gold.Chemscore.Internal_Hbond.Weighted>
0.0000

> <Gold.Chemscore.DEClash.Weighted>
0.0294

> <Gold.Chemscore.DEInternal.Weighted>
0.4390

> <Gold.Chemscore.Rot.Weighted>
5.1296

> <Gold.Chemscore.Internal.Correction.Weighted>
   9.000000E+99

> <Gold.Protein.RotatedTorsions>
[ 6907 6896 6895 6894 ] final  105.85 input  -60.11 | X-H torsion
[ 7974 7965 7964 7962 ] final  -63.56 input  175.53 | X-H torsion
[ 8008 7997 7996 7995 ] final  164.13 input   59.86 | X-H torsion
[ 10167 10162 10161 10158 ] final -148.88 input  -65.29 | X-H torsion
[ 10718 10713 10712 10709 ] final  172.88 input   66.30 | X-H torsion
[ 10763 10752 10751 10750 ] final   26.58 input  -60.55 | X-H torsion
[ 11005 11000 10999 10996 ] final    4.20 input  -57.11 | X-H torsion

> <Gold.Protein.ActiveResidues>
 VAL166  LYS551  ARG553  GLY616  TRP617  ASP618  TYR619  PRO620  LYS621  CYS622 
 ASP623  PHE694  ASN695  SER759  ASP760  ASP761  ALA762  ILE779  LEU786  VAL792 
 PHE793  MET794  SER795  GLU796  ALA797  LYS798  CYS799  TRP800  GLU811  SER814 

> <Gold.Protein.RotatedAtoms>
  152.5215  133.9468  159.7652 H   0  0  0  0  0  0  0  0  0  0  0  0  # atno 6907 bound_to 6896
  150.9786  133.6260  159.2733 H   0  0  0  0  0  0  0  0  0  0  0  0  # atno 6908 bound_to 6896
  151.3446  135.0877  159.9435 H   0  0  0  0  0  0  0  0  0  0  0  0  # atno 6909 bound_to 6896
  145.7776  140.8779  143.0347 H   0  0  0  0  0  0  0  0  0  0  0  0  # atno 7974 bound_to 7965
  156.1904  140.1705  156.8103 H   0  0  0  0  0  0  0  0  0  0  0  0  # atno 8008 bound_to 7997
  154.5464  140.0726  156.8628 H   0  0  0  0  0  0  0  0  0  0  0  0  # atno 8009 bound_to 7997
  155.3113  140.3367  155.4246 H   0  0  0  0  0  0  0  0  0  0  0  0  # atno 8010 bound_to 7997
  139.7492  143.8544  152.2582 H   0  0  0  0  0  0  0  0  0  0  0  0  # atno 10167 bound_to 10162
  156.9725  131.0094  151.2901 H   0  0  0  0  0  0  0  0  0  0  0  0  # atno 10718 bound_to 10713
  153.0613  135.6557  154.0457 H   0  0  0  0  0  0  0  0  0  0  0  0  # atno 10763 bound_to 10752
  154.0124  135.2927  155.3392 H   0  0  0  0  0  0  0  0  0  0  0  0  # atno 10764 bound_to 10752
  154.6952  135.5267  153.8516 H   0  0  0  0  0  0  0  0  0  0  0  0  # atno 10765 bound_to 10752
  140.5846  133.9981  155.8062 H   0  0  0  0  0  0  0  0  0  0  0  0  # atno 11005 bound_to 11000
  144.6802  139.9943  143.7484 LP  0  0  0  0  0  0  0  0  0  0  0  0  # atno 17320 bound_to 7965
  146.0107  139.3167  143.0872 LP  0  0  0  0  0  0  0  0  0  0  0  0  # atno 17321 bound_to 7965
  139.8517  144.7161  150.9206 LP  0  0  0  0  0  0  0  0  0  0  0  0  # atno 17342 bound_to 10162
  140.7796  143.3893  151.1337 LP  0  0  0  0  0  0  0  0  0  0  0  0  # atno 17343 bound_to 10162
  157.5583  130.8228  149.8232 LP  0  0  0  0  0  0  0  0  0  0  0  0  # atno 17370 bound_to 10713
  156.0277  130.3774  150.1776 LP  0  0  0  0  0  0  0  0  0  0  0  0  # atno 17371 bound_to 10713
  141.0974  133.9822  157.3137 LP  0  0  0  0  0  0  0  0  0  0  0  0  # atno 17394 bound_to 11000
  139.9301  135.0200  156.8372 LP  0  0  0  0  0  0  0  0  0  0  0  0  # atno 17395 bound_to 11000

$$$$
