AV-unprocessed.smi:850|AV-procd|sdf|3947|dock7
  -GOLD-   22720 1413D 1   1.00000     0.00000
 Structure written by MMmdl.
 40 42  0  0  0  0  0  0  0  0  1 V2000
  153.5984  140.8036  160.5560 C   0  0  0  0  0  0  0  0  0  0  0  0
  152.8522  141.4727  159.4972 N   0  0  0  0  0  0  0  0  0  0  0  0
  152.5140  140.9640  158.2894 C   0  0  0  0  0  0  0  0  0  0  0  0
  152.7835  139.8364  157.8758 O   0  0  0  0  0  0  0  0  0  0  0  0
  151.8294  141.9154  157.6106 N   0  0  0  0  0  0  0  0  0  0  0  0
  151.2714  141.7911  156.2653 C   0  0  0  0  0  0  0  0  0  0  0  0
  150.5974  140.4211  156.0493 C   0  0  2  0  0  0  0  0  0  0  0  0
  150.9124  139.9627  154.7499 O   0  0  0  0  0  0  0  0  0  0  0  0
  149.0668  140.5092  156.1435 C   0  0  0  0  0  0  0  0  0  0  0  0
  148.5716  141.1315  154.9650 O   0  0  0  0  0  0  0  0  0  0  0  0
  147.3790  141.8177  155.0390 C   0  0  0  0  0  0  0  0  0  0  0  0
  146.9156  142.4233  153.8526 C   0  0  0  0  0  0  0  0  0  0  0  0
  145.7049  143.1421  153.8353 C   0  0  0  0  0  0  0  0  0  0  0  0
  144.9422  143.2631  155.0112 C   0  0  0  0  0  0  0  0  0  0  0  0
  145.3929  142.6650  156.2026 C   0  0  0  0  0  0  0  0  0  0  0  0
  146.6044  141.9465  156.2200 C   0  0  0  0  0  0  0  0  0  0  0  0
  151.7333  143.0672  158.4049 C   0  0  0  0  0  0  0  0  0  0  0  0
  151.1382  144.3173  158.1592 C   0  0  0  0  0  0  0  0  0  0  0  0
  151.2192  145.2849  159.1881 C   0  0  0  0  0  0  0  0  0  0  0  0
  151.8769  144.9932  160.4115 C   0  0  0  0  0  0  0  0  0  0  0  0
  152.4697  143.7277  160.6314 C   0  0  0  0  0  0  0  0  0  0  0  0
  152.3752  142.7860  159.5925 C   0  0  0  0  0  0  0  0  0  0  0  0
  153.8977  139.7934  160.2732 H   0  0  0  0  0  0  0  0  0  0  0  0
  152.9905  140.7344  161.4584 H   0  0  0  0  0  0  0  0  0  0  0  0
  154.5005  141.3674  160.7940 H   0  0  0  0  0  0  0  0  0  0  0  0
  150.5340  142.5863  156.1429 H   0  0  0  0  0  0  0  0  0  0  0  0
  152.0295  141.9822  155.5049 H   0  0  0  0  0  0  0  0  0  0  0  0
  150.9552  139.6889  156.7746 H   0  0  0  0  0  0  0  0  0  0  0  0
  150.3958  139.1918  154.5714 H   0  0  0  0  0  0  0  0  0  0  0  0
  148.6419  139.5112  156.2659 H   0  0  0  0  0  0  0  0  0  0  0  0
  148.7830  141.1081  157.0108 H   0  0  0  0  0  0  0  0  0  0  0  0
  147.4948  142.3344  152.9452 H   0  0  0  0  0  0  0  0  0  0  0  0
  145.3619  143.6003  152.9193 H   0  0  0  0  0  0  0  0  0  0  0  0
  144.0132  143.8141  154.9994 H   0  0  0  0  0  0  0  0  0  0  0  0
  144.8087  142.7575  157.1062 H   0  0  0  0  0  0  0  0  0  0  0  0
  146.9177  141.5032  157.1530 H   0  0  0  0  0  0  0  0  0  0  0  0
  150.6404  144.5360  157.2263 H   0  0  0  0  0  0  0  0  0  0  0  0
  150.7747  146.2582  159.0405 H   0  0  0  0  0  0  0  0  0  0  0  0
  151.9261  145.7469  161.1837 H   0  0  0  0  0  0  0  0  0  0  0  0
  152.9734  143.4978  161.5587 H   0  0  0  0  0  0  0  0  0  0  0  0
  1  2  1  0  0  0  0
  1 23  1  0  0  0  0
  1 24  1  0  0  0  0
  1 25  1  0  0  0  0
  2 22  1  0  0  0  0
  2  3  1  0  0  0  0
  3  4  2  0  0  0  0
  3  5  1  0  0  0  0
  5  6  1  0  0  0  0
  5 17  1  0  0  0  0
  6  7  1  0  0  0  0
  6 26  1  0  0  0  0
  6 27  1  0  0  0  0
  7  8  1  0  0  0  0
  7  9  1  0  0  0  0
  7 28  1  0  0  0  0
  8 29  1  0  0  0  0
  9 10  1  0  0  0  0
  9 30  1  0  0  0  0
  9 31  1  0  0  0  0
 10 11  1  0  0  0  0
 11 16  1  0  0  0  0
 11 12  2  0  0  0  0
 12 13  1  0  0  0  0
 12 32  1  0  0  0  0
 13 14  2  0  0  0  0
 13 33  1  0  0  0  0
 14 15  1  0  0  0  0
 14 34  1  0  0  0  0
 15 16  2  0  0  0  0
 15 35  1  0  0  0  0
 16 36  1  0  0  0  0
 17 22  2  0  0  0  0
 17 18  1  0  0  0  0
 18 19  2  0  0  0  0
 18 37  1  0  0  0  0
 19 20  1  0  0  0  0
 19 38  1  0  0  0  0
 20 21  2  0  0  0  0
 20 39  1  0  0  0  0
 21 22  1  0  0  0  0
 21 40  1  0  0  0  0
M  END
> <s_m_source_file>
AV-unprocessed.smi

> <i_m_source_file_index>
850

> <i_lp_mmshare_version>
43012

> <i_f3d_flags>
0

> <s_epik_input>
W2NIXTFbY0hdW2NIXVtjSF1jKGMxMiluKFtDSDNdKWMoPU8pbjJbQ0gyXVtDQEhdKFtPSF0pW0NIMl1PYzNbY0hdW2NIXVtjSF1bY0hdW2NIXTM=

> <s_epik_cmdline>
J2VwaWtfcHl0aG9uJywgJy1waCcsICc3LjAnLCAnLXRuJywgJzgnLCAnLW1hJywgJzIwMCcsICctbWV0YWxfYmluZGluZycsICctaW1hZScsICc8aW5maWxlLm1hZT4nLCAnLW9tYWUnLCAnPG91dGZpbGUubWFlPic=

> <r_lp_tautomer_probability>
1

> <r_epik_Ionization_Penalty>
2.40205e-06

> <r_epik_Ionization_Penalty_Charging>
2.75209e-09

> <r_epik_Ionization_Penalty_Neutral>
2.3993e-06

> <r_epik_State_Penalty>
-0

> <r_epik_Charging_Adjusted_Penalty>
2.75209e-09

> <i_epik_Tot_Q>
0

> <i_epik_Tot_abs_Q>
0

> <r_epik_Metal_State_Penalty>
-0

> <b_epik_Metal_Only>
0

> <s_lp_Force_Field>
OPLS_2005

> <r_lp_Energy>
46.059

> <b_lp_Chiralities_Consistent>
1

> <s_lp_Variant>
AV-unprocessed.smi:850-1

> <Gold.Version>
5.8.1

> <Gold.Id.Protein>
6NUR|6NUR_protein|mol2

> <Gold.PLP.Fitness>
54.0551

> <Gold.PLP.PLP>
-50.1669

> <Gold.PLP.part.hbond>
-2.0000

> <Gold.PLP.part.metal>
0.0000

> <Gold.PLP.part.buried>
-8.6204

> <Gold.PLP.part.nonpolar>
-38.7868

> <Gold.PLP.part.repulsive>
0.1198

> <Gold.PLP.ligand.clash>
0.0000

> <Gold.PLP.ligand.torsion>
1.0855

> <Gold.PLP.Chemscore.Hbond>
2.0000

> <Gold.PLP.Chemscore.CHOScore>
0.0000

> <Gold.PLP.Chemscore.Metal>
0.0000

> <Gold.Chemscore.Hbonds>
donor molecule, donor type, donor heavy atom, donor atom, acceptor molecule, acceptor atom, score
      P1  H  7989  7998       L1     8  1.00
      P1  H  7997  8008       L1     4  1.00

> <Gold.PLP.Chemscore.Internal.Correction>
0.0591

> <Gold.Rescore>
     Score         DG    S(hbond)    S(metal)    S(lipo)     H(rot)  DE(clash)    DE(int)     intcor
     17.73     -20.06       1.80        0.00     119.48       2.12       0.05       2.29       ----

> <Gold.Chemscore.Fitness>
17.7251

> <Gold.Chemscore.DG>
-20.0607

> <Gold.Chemscore.ZeroCoef>
-5.4800

> <Gold.Chemscore.Hbond>
1.8036

> <Gold.Chemscore.Metal>
0.0000

> <Gold.Chemscore.Lipo>
119.4848

> <Gold.Chemscore.Internal_Hbond>
0.0000

> <Gold.Chemscore.DEClash>
0.0477

> <Gold.Chemscore.DEInternal>
2.2879

> <Gold.Chemscore.Rot>
2.1184

> <Gold.Chemscore.Internal.Correction>
   9.000000E+99

> <Gold.Chemscore.Hbonds>
donor molecule, donor type, donor heavy atom, donor atom, acceptor molecule, acceptor atom, score
      P1  H  7989  7998       L1     8  0.99
      P1  H  7997  8008       L1     4  0.44

> <Gold.Chemscore.Hbond.Weighted>
-6.0241

> <Gold.Chemscore.Metal.Weighted>
-0.0000

> <Gold.Chemscore.Lipo.Weighted>
-13.9797

> <Gold.Chemscore.Internal_Hbond.Weighted>
0.0000

> <Gold.Chemscore.DEClash.Weighted>
0.0477

> <Gold.Chemscore.DEInternal.Weighted>
2.2879

> <Gold.Chemscore.Rot.Weighted>
5.4231

> <Gold.Chemscore.Internal.Correction.Weighted>
   9.000000E+99

> <Gold.Protein.RotatedTorsions>
[ 6907 6896 6895 6894 ] final -178.78 input  -60.11 | X-H torsion
[ 7974 7965 7964 7962 ] final   99.71 input  175.53 | X-H torsion
[ 8008 7997 7996 7995 ] final  -75.55 input   59.86 | X-H torsion
[ 10167 10162 10161 10158 ] final   17.76 input  -65.29 | X-H torsion
[ 10718 10713 10712 10709 ] final  134.69 input   66.30 | X-H torsion
[ 10763 10752 10751 10750 ] final    1.02 input  -60.55 | X-H torsion
[ 11005 11000 10999 10996 ] final   60.11 input  -57.11 | X-H torsion

> <Gold.Protein.ActiveResidues>
 VAL166  LYS551  ARG553  GLY616  TRP617  ASP618  TYR619  PRO620  LYS621  CYS622 
 ASP623  PHE694  ASN695  SER759  ASP760  ASP761  ALA762  ILE779  LEU786  VAL792 
 PHE793  MET794  SER795  GLU796  ALA797  LYS798  CYS799  TRP800  GLU811  SER814 

> <Gold.Protein.RotatedAtoms>
  151.6428  133.3325  159.3133 H   0  0  0  0  0  0  0  0  0  0  0  0  # atno 6907 bound_to 6896
  150.7999  134.7090  159.6602 H   0  0  0  0  0  0  0  0  0  0  0  0  # atno 6908 bound_to 6896
  152.4090  134.6161  160.0090 H   0  0  0  0  0  0  0  0  0  0  0  0  # atno 6909 bound_to 6896
  145.3953  139.2356  143.3329 H   0  0  0  0  0  0  0  0  0  0  0  0  # atno 7974 bound_to 7965
  154.5426  140.0742  156.8536 H   0  0  0  0  0  0  0  0  0  0  0  0  # atno 8008 bound_to 7997
  155.3150  140.3392  155.4224 H   0  0  0  0  0  0  0  0  0  0  0  0  # atno 8009 bound_to 7997
  156.1889  140.1679  156.8118 H   0  0  0  0  0  0  0  0  0  0  0  0  # atno 8010 bound_to 7997
  140.5702  143.9175  150.6707 H   0  0  0  0  0  0  0  0  0  0  0  0  # atno 10167 bound_to 10162
  157.4647  131.1076  150.9877 H   0  0  0  0  0  0  0  0  0  0  0  0  # atno 10718 bound_to 10713
  153.3132  135.6964  153.7096 H   0  0  0  0  0  0  0  0  0  0  0  0  # atno 10763 bound_to 10752
  153.5965  135.3470  155.2930 H   0  0  0  0  0  0  0  0  0  0  0  0  # atno 10764 bound_to 10752
  154.8580  135.4330  154.2276 H   0  0  0  0  0  0  0  0  0  0  0  0  # atno 10765 bound_to 10752
  140.0256  134.6088  155.9578 H   0  0  0  0  0  0  0  0  0  0  0  0  # atno 11005 bound_to 11000
  146.2778  140.4642  142.8788 LP  0  0  0  0  0  0  0  0  0  0  0  0  # atno 17320 bound_to 7965
  144.8411  140.6859  143.6228 LP  0  0  0  0  0  0  0  0  0  0  0  0  # atno 17321 bound_to 7965
  140.2648  143.3498  152.1290 LP  0  0  0  0  0  0  0  0  0  0  0  0  # atno 17342 bound_to 10162
  139.5113  144.6899  151.5787 LP  0  0  0  0  0  0  0  0  0  0  0  0  # atno 17343 bound_to 10162
  157.0663  130.5846  149.5394 LP  0  0  0  0  0  0  0  0  0  0  0  0  # atno 17370 bound_to 10713
  156.0044  130.5129  150.7780 LP  0  0  0  0  0  0  0  0  0  0  0  0  # atno 17371 bound_to 10713
  141.1800  133.6545  156.4982 LP  0  0  0  0  0  0  0  0  0  0  0  0  # atno 17394 bound_to 11000
  140.4313  134.7099  157.4943 LP  0  0  0  0  0  0  0  0  0  0  0  0  # atno 17395 bound_to 11000

$$$$
