AV-unprocessed.smi:2227|AV-procd|sdf|9022|dock4
  -GOLD-   2272012223D 1   1.00000     0.00000
 Structure written by MMmdl.
 42 44  0  0  0  0  0  0  0  0  1 V2000
  152.4494  139.3547  155.0211 C   0  0  0  0  0  0  0  0  0  0  0  0
  151.1270  138.8878  155.6457 C   0  0  0  0  0  0  0  0  0  0  0  0
  150.8569  137.4000  155.3773 C   0  0  0  0  0  0  0  0  0  0  0  0
  149.9768  139.7521  155.2041 C   0  0  0  0  0  0  0  0  0  0  0  0
  148.8967  139.2682  154.5949 N   0  0  0  0  0  0  0  0  0  0  0  0
  148.1003  140.3764  154.3343 C   0  0  0  0  0  0  0  0  0  0  0  0
  148.7324  141.5058  154.7916 C   0  0  0  0  0  0  0  0  0  0  0  0
  149.9408  141.0964  155.3429 N   0  0  0  0  0  0  0  0  0  0  0  0
  150.9313  141.9842  155.9352 C   0  0  0  0  0  0  0  0  0  0  0  0
  150.8670  141.9587  157.4647 C   0  0  0  0  0  0  0  0  0  0  0  0
  149.9227  141.4112  158.0336 O   0  0  0  0  0  0  0  0  0  0  0  0
  151.8744  142.5637  158.1129 N   0  0  0  0  0  0  0  0  0  0  0  0
  152.0036  142.6916  159.5602 C   0  0  0  0  0  0  0  0  0  0  0  0
  151.7221  144.1118  160.0159 C   0  0  0  0  0  0  0  0  0  0  0  0
  150.6862  144.9711  159.3300 C   0  0  0  0  0  0  0  0  0  0  0  0
  152.1556  145.2980  159.1887 C   0  0  0  0  0  0  0  0  0  0  0  0
  153.3618  142.2355  160.0688 C   0  0  0  0  0  0  0  0  0  0  0  0
  153.6176  140.7992  160.4622 C   0  0  0  0  0  0  0  0  0  0  0  0
  153.5775  141.8767  161.5206 C   0  0  0  0  0  0  0  0  0  0  0  0
  152.6554  140.3947  155.2765 H   0  0  0  0  0  0  0  0  0  0  0  0
  152.4249  139.2779  153.9336 H   0  0  0  0  0  0  0  0  0  0  0  0
  153.2867  138.7547  155.3782 H   0  0  0  0  0  0  0  0  0  0  0  0
  151.2421  138.9818  156.7235 H   0  0  0  0  0  0  0  0  0  0  0  0
  149.9460  137.0712  155.8783 H   0  0  0  0  0  0  0  0  0  0  0  0
  151.6761  136.7801  155.7428 H   0  0  0  0  0  0  0  0  0  0  0  0
  150.7419  137.2015  154.3112 H   0  0  0  0  0  0  0  0  0  0  0  0
  147.1449  140.2765  153.8408 H   0  0  0  0  0  0  0  0  0  0  0  0
  148.4326  142.5432  154.7653 H   0  0  0  0  0  0  0  0  0  0  0  0
  151.9254  141.6646  155.6207 H   0  0  0  0  0  0  0  0  0  0  0  0
  150.7903  142.9925  155.5440 H   0  0  0  0  0  0  0  0  0  0  0  0
  152.6052  142.9838  157.5574 H   0  0  0  0  0  0  0  0  0  0  0  0
  151.2468  142.0551  160.0239 H   0  0  0  0  0  0  0  0  0  0  0  0
  151.7951  144.2409  161.0945 H   0  0  0  0  0  0  0  0  0  0  0  0
  150.1818  144.5661  158.4551 H   0  0  0  0  0  0  0  0  0  0  0  0
  150.0825  145.6253  159.9556 H   0  0  0  0  0  0  0  0  0  0  0  0
  152.5330  146.1693  159.7199 H   0  0  0  0  0  0  0  0  0  0  0  0
  152.6179  145.1036  158.2233 H   0  0  0  0  0  0  0  0  0  0  0  0
  154.1943  142.7469  159.5890 H   0  0  0  0  0  0  0  0  0  0  0  0
  152.7821  140.1031  160.4293 H   0  0  0  0  0  0  0  0  0  0  0  0
  154.5874  140.3752  160.2102 H   0  0  0  0  0  0  0  0  0  0  0  0
  154.5206  142.1724  161.9753 H   0  0  0  0  0  0  0  0  0  0  0  0
  152.7158  141.8869  162.1846 H   0  0  0  0  0  0  0  0  0  0  0  0
  1  2  1  0  0  0  0
  1 20  1  0  0  0  0
  1 21  1  0  0  0  0
  1 22  1  0  0  0  0
  2  3  1  0  0  0  0
  2  4  1  0  0  0  0
  2 23  1  0  0  0  0
  3 24  1  0  0  0  0
  3 25  1  0  0  0  0
  3 26  1  0  0  0  0
  4  8  1  0  0  0  0
  4  5  2  0  0  0  0
  5  6  1  0  0  0  0
  6  7  2  0  0  0  0
  6 27  1  0  0  0  0
  7  8  1  0  0  0  0
  7 28  1  0  0  0  0
  8  9  1  0  0  0  0
  9 10  1  0  0  0  0
  9 29  1  0  0  0  0
  9 30  1  0  0  0  0
 10 11  2  0  0  0  0
 10 12  1  0  0  0  0
 12 13  1  0  0  0  0
 12 31  1  0  0  0  0
 13 14  1  0  0  0  0
 13 17  1  0  0  0  0
 13 32  1  0  0  0  0
 14 16  1  0  0  0  0
 14 15  1  0  0  0  0
 14 33  1  0  0  0  0
 15 16  1  0  0  0  0
 15 34  1  0  0  0  0
 15 35  1  0  0  0  0
 16 36  1  0  0  0  0
 16 37  1  0  0  0  0
 17 19  1  0  0  0  0
 17 18  1  0  0  0  0
 17 38  1  0  0  0  0
 18 19  1  0  0  0  0
 18 39  1  0  0  0  0
 18 40  1  0  0  0  0
 19 41  1  0  0  0  0
 19 42  1  0  0  0  0
M  END
> <s_m_source_file>
AV-unprocessed.smi

> <i_m_source_file_index>
2227

> <i_lp_mmshare_version>
43012

> <i_f3d_flags>
0

> <s_epik_input>
W0NIM11bQ0hdKFtDSDNdKWMxbltjSF1bY0hdbjFbQ0gyXUMoPU8pW05IXVtDSF0oW0NIXTJbQ0gyXVtDSDJdMilbQ0hdM1tDSDJdW0NIMl0z

> <s_epik_cmdline>
J2VwaWtfcHl0aG9uJywgJy1waCcsICc3LjAnLCAnLXRuJywgJzgnLCAnLW1hJywgJzIwMCcsICctbWV0YWxfYmluZGluZycsICctaW1hZScsICc8aW5maWxlLm1hZT4nLCAnLW9tYWUnLCAnPG91dGZpbGUubWFlPic=

> <r_lp_tautomer_probability>
1

> <r_epik_Ionization_Penalty>
0.615412

> <r_epik_Ionization_Penalty_Charging>
0.615412

> <r_epik_Ionization_Penalty_Neutral>
4.7269e-08

> <r_epik_State_Penalty>
0.630977

> <r_epik_Charging_Adjusted_Penalty>
1.24639

> <i_epik_Tot_Q>
0

> <i_epik_Tot_abs_Q>
0

> <r_epik_Metal_State_Penalty>
0.305199

> <b_epik_Metal_Only>
0

> <s_lp_Force_Field>
OPLS_2005

> <r_lp_Energy>
23.5493

> <b_lp_Chiralities_Consistent>
1

> <s_lp_Variant>
AV-unprocessed.smi:2227-2

> <Gold.Version>
5.8.1

> <Gold.Id.Protein>
6NUR|6NUR_protein|mol2

> <Gold.PLP.Fitness>
46.6515

> <Gold.PLP.PLP>
-44.6003

> <Gold.PLP.part.hbond>
0.0000

> <Gold.PLP.part.metal>
0.0000

> <Gold.PLP.part.buried>
-3.7213

> <Gold.PLP.part.nonpolar>
-39.8511

> <Gold.PLP.part.repulsive>
0.2203

> <Gold.PLP.ligand.clash>
0.0000

> <Gold.PLP.ligand.torsion>
1.5697

> <Gold.PLP.Chemscore.Hbond>
0.0000

> <Gold.PLP.Chemscore.CHOScore>
1.0000

> <Gold.PLP.Chemscore.Metal>
0.0000

> <Gold.Chemscore.Hbonds>
donor molecule, donor type, donor heavy atom, donor atom, acceptor molecule, acceptor atom, score
      L1  C     7    28       P1  8028  1.00

> <Gold.PLP.Chemscore.Internal.Correction>
2.1906

> <Gold.Rescore>
     Score         DG    S(hbond)    S(metal)    S(lipo)     H(rot)  DE(clash)    DE(int)     intcor
     13.26     -14.92       0.00        0.00     117.07       1.66       0.13       1.53       ----

> <Gold.Chemscore.Fitness>
13.2594

> <Gold.Chemscore.DG>
-14.9211

> <Gold.Chemscore.ZeroCoef>
-5.4800

> <Gold.Chemscore.Hbond>
0.0000

> <Gold.Chemscore.Metal>
0.0000

> <Gold.Chemscore.Lipo>
117.0738

> <Gold.Chemscore.Internal_Hbond>
0.0000

> <Gold.Chemscore.DEClash>
0.1276

> <Gold.Chemscore.DEInternal>
1.5341

> <Gold.Chemscore.Rot>
1.6627

> <Gold.Chemscore.Internal.Correction>
   9.000000E+99

> <Gold.Chemscore.Hbond.Weighted>
-0.0000

> <Gold.Chemscore.Metal.Weighted>
-0.0000

> <Gold.Chemscore.Lipo.Weighted>
-13.6976

> <Gold.Chemscore.Internal_Hbond.Weighted>
0.0000

> <Gold.Chemscore.DEClash.Weighted>
0.1276

> <Gold.Chemscore.DEInternal.Weighted>
1.5341

> <Gold.Chemscore.Rot.Weighted>
4.2565

> <Gold.Chemscore.Internal.Correction.Weighted>
   9.000000E+99

> <Gold.Protein.RotatedTorsions>
[ 6907 6896 6895 6894 ] final  -17.34 input  -60.11 | X-H torsion
[ 7974 7965 7964 7962 ] final   76.53 input  175.53 | X-H torsion
[ 8008 7997 7996 7995 ] final   -4.85 input   59.86 | X-H torsion
[ 10167 10162 10161 10158 ] final -165.96 input  -65.29 | X-H torsion
[ 10718 10713 10712 10709 ] final   85.03 input   66.30 | X-H torsion
[ 10763 10752 10751 10750 ] final  -71.67 input  -60.55 | X-H torsion
[ 11005 11000 10999 10996 ] final -158.76 input  -57.11 | X-H torsion

> <Gold.Protein.ActiveResidues>
 VAL166  LYS551  ARG553  GLY616  TRP617  ASP618  TYR619  PRO620  LYS621  CYS622 
 ASP623  PHE694  ASN695  SER759  ASP760  ASP761  ALA762  ILE779  LEU786  VAL792 
 PHE793  MET794  SER795  GLU796  ALA797  LYS798  CYS799  TRP800  GLU811  SER814 

> <Gold.Protein.RotatedAtoms>
  151.2948  135.0752  159.9216 H   0  0  0  0  0  0  0  0  0  0  0  0  # atno 6907 bound_to 6896
  152.5309  133.9894  159.7854 H   0  0  0  0  0  0  0  0  0  0  0  0  # atno 6908 bound_to 6896
  151.0171  133.5860  159.2706 H   0  0  0  0  0  0  0  0  0  0  0  0  # atno 6909 bound_to 6896
  145.7017  139.2585  143.1701 H   0  0  0  0  0  0  0  0  0  0  0  0  # atno 7974 bound_to 7965
  154.6100  140.2473  155.7681 H   0  0  0  0  0  0  0  0  0  0  0  0  # atno 8008 bound_to 7997
  156.2365  140.2948  156.0276 H   0  0  0  0  0  0  0  0  0  0  0  0  # atno 8009 bound_to 7997
  155.2068  140.0396  157.2917 H   0  0  0  0  0  0  0  0  0  0  0  0  # atno 8010 bound_to 7997
  139.6147  144.0744  152.1876 H   0  0  0  0  0  0  0  0  0  0  0  0  # atno 10167 bound_to 10162
  157.6908  131.0158  150.2761 H   0  0  0  0  0  0  0  0  0  0  0  0  # atno 10718 bound_to 10713
  154.4350  135.5954  153.6093 H   0  0  0  0  0  0  0  0  0  0  0  0  # atno 10763 bound_to 10752
  152.9801  135.5984  154.3792 H   0  0  0  0  0  0  0  0  0  0  0  0  # atno 10764 bound_to 10752
  154.3635  135.2841  155.2285 H   0  0  0  0  0  0  0  0  0  0  0  0  # atno 10765 bound_to 10752
  140.6501  134.4459  157.5235 H   0  0  0  0  0  0  0  0  0  0  0  0  # atno 11005 bound_to 11000
  146.0792  140.7783  142.9650 LP  0  0  0  0  0  0  0  0  0  0  0  0  # atno 17320 bound_to 7965
  144.6967  140.3462  143.7190 LP  0  0  0  0  0  0  0  0  0  0  0  0  # atno 17321 bound_to 7965
  140.0372  144.6036  150.7440 LP  0  0  0  0  0  0  0  0  0  0  0  0  # atno 17342 bound_to 10162
  140.7343  143.2727  151.3839 LP  0  0  0  0  0  0  0  0  0  0  0  0  # atno 17343 bound_to 10162
  156.3316  130.3801  149.7486 LP  0  0  0  0  0  0  0  0  0  0  0  0  # atno 17370 bound_to 10713
  156.5024  130.8135  151.3137 LP  0  0  0  0  0  0  0  0  0  0  0  0  # atno 17371 bound_to 10713
  139.9049  134.8472  156.1747 LP  0  0  0  0  0  0  0  0  0  0  0  0  # atno 17394 bound_to 11000
  141.0543  133.6873  156.1830 LP  0  0  0  0  0  0  0  0  0  0  0  0  # atno 17395 bound_to 11000

$$$$
