AV-unprocessed.smi:1809|AV-procd|sdf|7318|dock9
  -GOLD-   22720 8573D 1   1.00000     0.00000
 Structure written by MMmdl.
 39 41  0  0  0  0  0  0  0  0  1 V2000
  142.4300  144.8752  161.4989 C   0  0  0  0  0  0  0  0  0  0  0  0
  143.5643  144.9028  160.5323 C   0  0  0  0  0  0  0  0  0  0  0  0
  143.6526  145.7996  159.5422 N   0  0  0  0  0  0  0  0  0  0  0  0
  144.7988  145.6291  158.7785 N   0  0  0  0  0  0  0  0  0  0  0  0
  145.5444  144.6058  159.2176 C   0  0  0  0  0  0  0  0  0  0  0  0
  146.7709  144.2096  158.6215 N   0  0  0  0  0  0  0  0  0  0  0  0
  147.5596  143.1708  158.9488 C   0  0  0  0  0  0  0  0  0  0  0  0
  147.3366  142.3663  159.8536 O   0  0  0  0  0  0  0  0  0  0  0  0
  148.6368  143.1132  158.1529 N   0  0  0  0  0  0  0  0  0  0  0  0
  149.6740  142.0879  158.2057 C   0  0  0  0  0  0  0  0  0  0  0  0
  151.0726  142.6912  157.9582 C   0  0  1  0  0  0  0  0  0  0  0  0
  151.4067  143.8541  158.9232 C   0  0  0  0  0  0  0  0  0  0  0  0
  151.7424  143.3506  160.2416 N   0  0  0  0  0  0  0  0  0  0  0  0
  152.1688  144.3242  161.2201 C   0  0  0  0  0  0  0  0  0  0  0  0
  152.8291  143.4853  162.3274 C   0  0  0  0  0  0  0  0  0  0  0  0
  153.1884  142.1513  161.6366 C   0  0  0  0  0  0  0  0  0  0  0  0
  152.8353  142.4196  160.1722 C   0  0  1  0  0  0  0  0  0  0  0  0
  152.4617  141.2123  159.3029 C   0  0  0  0  0  0  0  0  0  0  0  0
  152.1004  141.6878  158.0019 O   0  0  0  0  0  0  0  0  0  0  0  0
  144.8970  143.7567  160.6109 S   0  0  0  0  0  0  0  0  0  0  0  0
  141.6245  145.5308  161.1665 H   0  0  0  0  0  0  0  0  0  0  0  0
  142.7699  145.2079  162.4797 H   0  0  0  0  0  0  0  0  0  0  0  0
  142.0397  143.8614  161.5881 H   0  0  0  0  0  0  0  0  0  0  0  0
  147.0800  144.7798  157.8484 H   0  0  0  0  0  0  0  0  0  0  0  0
  148.7367  143.8192  157.4385 H   0  0  0  0  0  0  0  0  0  0  0  0
  149.6417  141.6477  159.2025 H   0  0  0  0  0  0  0  0  0  0  0  0
  149.4623  141.2721  157.5132 H   0  0  0  0  0  0  0  0  0  0  0  0
  151.0759  143.0962  156.9455 H   0  0  0  0  0  0  0  0  0  0  0  0
  152.2508  144.4175  158.5229 H   0  0  0  0  0  0  0  0  0  0  0  0
  150.5704  144.5510  158.9876 H   0  0  0  0  0  0  0  0  0  0  0  0
  152.9029  145.0026  160.7818 H   0  0  0  0  0  0  0  0  0  0  0  0
  151.3326  144.9206  161.5862 H   0  0  0  0  0  0  0  0  0  0  0  0
  153.7079  143.9884  162.7316 H   0  0  0  0  0  0  0  0  0  0  0  0
  152.1348  143.3101  163.1500 H   0  0  0  0  0  0  0  0  0  0  0  0
  154.2372  141.8810  161.7632 H   0  0  0  0  0  0  0  0  0  0  0  0
  152.5776  141.3428  162.0408 H   0  0  0  0  0  0  0  0  0  0  0  0
  153.6921  142.9155  159.7107 H   0  0  0  0  0  0  0  0  0  0  0  0
  153.3050  140.5277  159.2116 H   0  0  0  0  0  0  0  0  0  0  0  0
  151.6403  140.6506  159.7474 H   0  0  0  0  0  0  0  0  0  0  0  0
  1  2  1  0  0  0  0
  1 21  1  0  0  0  0
  1 22  1  0  0  0  0
  1 23  1  0  0  0  0
  2 20  1  0  0  0  0
  2  3  2  0  0  0  0
  3  4  1  0  0  0  0
  4  5  2  0  0  0  0
  5  6  1  0  0  0  0
  5 20  1  0  0  0  0
  6  7  1  0  0  0  0
  6 24  1  0  0  0  0
  7  8  2  0  0  0  0
  7  9  1  0  0  0  0
  9 10  1  0  0  0  0
  9 25  1  0  0  0  0
 10 11  1  0  0  0  0
 10 26  1  0  0  0  0
 10 27  1  0  0  0  0
 11 19  1  0  0  0  0
 11 12  1  0  0  0  0
 11 28  1  0  0  0  0
 12 13  1  0  0  0  0
 12 29  1  0  0  0  0
 12 30  1  0  0  0  0
 13 17  1  0  0  0  0
 13 14  1  0  0  0  0
 14 15  1  0  0  0  0
 14 31  1  0  0  0  0
 14 32  1  0  0  0  0
 15 16  1  0  0  0  0
 15 33  1  0  0  0  0
 15 34  1  0  0  0  0
 16 17  1  0  0  0  0
 16 35  1  0  0  0  0
 16 36  1  0  0  0  0
 17 18  1  0  0  0  0
 17 37  1  0  0  0  0
 18 19  1  0  0  0  0
 18 38  1  0  0  0  0
 18 39  1  0  0  0  0
M  END
> <s_m_source_file>
AV-unprocessed.smi

> <i_m_source_file_index>
1809

> <i_lp_mmshare_version>
43012

> <i_f3d_flags>
0

> <s_epik_input>
W0NIM11jMW5uYyhzMSlbTkhdQyg9TylbTkhdW0NIMl1bQ0BIXShbQ0gyXTIpT1tDSDJdW0NAQEhdKE4yMylbQ0gyXVtDSDJdW0NIMl0z

> <s_epik_cmdline>
J2VwaWtfcHl0aG9uJywgJy1waCcsICc3LjAnLCAnLXRuJywgJzgnLCAnLW1hJywgJzIwMCcsICctbWV0YWxfYmluZGluZycsICctaW1hZScsICc8aW5maWxlLm1hZT4nLCAnLW9tYWUnLCAnPG91dGZpbGUubWFlPic=

> <r_lp_tautomer_probability>
1

> <r_epik_Ionization_Penalty>
1.05954

> <r_epik_Ionization_Penalty_Charging>
0

> <r_epik_Ionization_Penalty_Neutral>
1.05954

> <r_epik_State_Penalty>
1.4238

> <r_epik_Charging_Adjusted_Penalty>
1.4238

> <i_epik_Tot_Q>
0

> <i_epik_Tot_abs_Q>
0

> <r_epik_Metal_State_Penalty>
1.7901

> <b_epik_Metal_Only>
0

> <s_lp_Force_Field>
OPLS_2005

> <r_lp_Energy>
48.8115

> <b_lp_Chiralities_Consistent>
1

> <s_lp_Variant>
AV-unprocessed.smi:1809-10

> <Gold.Version>
5.8.1

> <Gold.Id.Protein>
6NUR|6NUR_protein|mol2

> <Gold.PLP.Fitness>
40.0299

> <Gold.PLP.PLP>
-32.0162

> <Gold.PLP.part.hbond>
-4.6243

> <Gold.PLP.part.metal>
0.0000

> <Gold.PLP.part.buried>
-0.8467

> <Gold.PLP.part.nonpolar>
-26.1841

> <Gold.PLP.part.repulsive>
0.3733

> <Gold.PLP.ligand.clash>
0.0000

> <Gold.PLP.ligand.torsion>
0.1630

> <Gold.PLP.Chemscore.Hbond>
2.7773

> <Gold.PLP.Chemscore.CHOScore>
0.0000

> <Gold.PLP.Chemscore.Metal>
0.0000

> <Gold.Chemscore.Hbonds>
donor molecule, donor type, donor heavy atom, donor atom, acceptor molecule, acceptor atom, score
      L1  H     6    24       P1  8029  0.94
      L1  H     9    25       P1  8028  0.55
      P1  H  6933  6944       L1     8  0.54
      P1  H  6934  6946       L1     8  0.66

> <Gold.PLP.Chemscore.Internal.Correction>
0.0079

> <Gold.Rescore>
     Score         DG    S(hbond)    S(metal)    S(lipo)     H(rot)  DE(clash)    DE(int)     intcor
     18.90     -20.81       2.13        0.00      99.25       1.32       0.48       1.43       ----

> <Gold.Chemscore.Fitness>
18.9007

> <Gold.Chemscore.DG>
-20.8121

> <Gold.Chemscore.ZeroCoef>
-5.4800

> <Gold.Chemscore.Hbond>
2.1252

> <Gold.Chemscore.Metal>
0.0000

> <Gold.Chemscore.Lipo>
99.2507

> <Gold.Chemscore.Internal_Hbond>
0.0000

> <Gold.Chemscore.DEClash>
0.4806

> <Gold.Chemscore.DEInternal>
1.4308

> <Gold.Chemscore.Rot>
1.3196

> <Gold.Chemscore.Internal.Correction>
   9.000000E+99

> <Gold.Chemscore.Hbonds>
donor molecule, donor type, donor heavy atom, donor atom, acceptor molecule, acceptor atom, score
      L1  H     6    24       P1  8029  0.44
      L1  H     9    25       P1  8028  0.03
      P1  H  6933  6944       L1     8  0.52
      P1  H  6934  6946       L1     8  0.66

> <Gold.Chemscore.Hbond.Weighted>
-7.0980

> <Gold.Chemscore.Metal.Weighted>
-0.0000

> <Gold.Chemscore.Lipo.Weighted>
-11.6123

> <Gold.Chemscore.Internal_Hbond.Weighted>
0.0000

> <Gold.Chemscore.DEClash.Weighted>
0.4806

> <Gold.Chemscore.DEInternal.Weighted>
1.4308

> <Gold.Chemscore.Rot.Weighted>
3.3783

> <Gold.Chemscore.Internal.Correction.Weighted>
   9.000000E+99

> <Gold.Protein.RotatedTorsions>
[ 6907 6896 6895 6894 ] final -122.02 input  -60.11 | X-H torsion
[ 7974 7965 7964 7962 ] final  -66.51 input  175.53 | X-H torsion
[ 8008 7997 7996 7995 ] final -154.91 input   59.86 | X-H torsion
[ 10167 10162 10161 10158 ] final -106.51 input  -65.29 | X-H torsion
[ 10718 10713 10712 10709 ] final  172.63 input   66.30 | X-H torsion
[ 10763 10752 10751 10750 ] final -103.11 input  -60.55 | X-H torsion
[ 11005 11000 10999 10996 ] final  160.48 input  -57.11 | X-H torsion

> <Gold.Protein.ActiveResidues>
 VAL166  LYS551  ARG553  GLY616  TRP617  ASP618  TYR619  PRO620  LYS621  CYS622 
 ASP623  PHE694  ASN695  SER759  ASP760  ASP761  ALA762  ILE779  LEU786  VAL792 
 PHE793  MET794  SER795  GLU796  ALA797  LYS798  CYS799  TRP800  GLU811  SER814 

> <Gold.Protein.RotatedAtoms>
  150.8537  133.7748  159.3016 H   0  0  0  0  0  0  0  0  0  0  0  0  # atno 6907 bound_to 6896
  151.5412  135.1067  159.9936 H   0  0  0  0  0  0  0  0  0  0  0  0  # atno 6908 bound_to 6896
  152.4573  133.7706  159.6852 H   0  0  0  0  0  0  0  0  0  0  0  0  # atno 6909 bound_to 6896
  145.7409  140.8954  143.0530 H   0  0  0  0  0  0  0  0  0  0  0  0  # atno 7974 bound_to 7965
  155.6937  140.0758  157.2438 H   0  0  0  0  0  0  0  0  0  0  0  0  # atno 8008 bound_to 7997
  154.4084  140.1660  156.2167 H   0  0  0  0  0  0  0  0  0  0  0  0  # atno 8009 bound_to 7997
  155.9429  140.3383  155.6346 H   0  0  0  0  0  0  0  0  0  0  0  0  # atno 8010 bound_to 7997
  140.1870  143.3922  152.1237 H   0  0  0  0  0  0  0  0  0  0  0  0  # atno 10167 bound_to 10162
  156.9762  131.0105  151.2893 H   0  0  0  0  0  0  0  0  0  0  0  0  # atno 10718 bound_to 10713
  154.7783  135.4835  153.9791 H   0  0  0  0  0  0  0  0  0  0  0  0  # atno 10763 bound_to 10752
  153.1459  135.6782  153.8963 H   0  0  0  0  0  0  0  0  0  0  0  0  # atno 10764 bound_to 10752
  153.8622  135.3154  155.3416 H   0  0  0  0  0  0  0  0  0  0  0  0  # atno 10765 bound_to 10752
  140.2063  134.8300  157.3073 H   0  0  0  0  0  0  0  0  0  0  0  0  # atno 11005 bound_to 11000
  144.6871  139.9459  143.7476 LP  0  0  0  0  0  0  0  0  0  0  0  0  # atno 17320 bound_to 7965
  146.0449  139.3456  143.0675 LP  0  0  0  0  0  0  0  0  0  0  0  0  # atno 17321 bound_to 7965
  139.5272  144.7116  151.5187 LP  0  0  0  0  0  0  0  0  0  0  0  0  # atno 17342 bound_to 10162
  140.6481  143.8752  150.6758 LP  0  0  0  0  0  0  0  0  0  0  0  0  # atno 17343 bound_to 10162
  157.5558  130.8213  149.8203 LP  0  0  0  0  0  0  0  0  0  0  0  0  # atno 17370 bound_to 10713
  156.0263  130.3778  150.1815 LP  0  0  0  0  0  0  0  0  0  0  0  0  # atno 17371 bound_to 10713
  140.1999  134.4268  155.7668 LP  0  0  0  0  0  0  0  0  0  0  0  0  # atno 17394 bound_to 11000
  141.2227  133.7067  156.8166 LP  0  0  0  0  0  0  0  0  0  0  0  0  # atno 17395 bound_to 11000

$$$$
