AV-unprocessed.smi:2999|AV-procd|sdf|11427|dock8
  -GOLD-   2272016353D 1   1.00000     0.00000
 Structure written by MMmdl.
 37 39  0  0  0  0  0  0  0  0  3 V2000
  149.2751  136.2077  159.7409 O   0  0  0  0  0  0  0  0  0  0  0  0
  148.1673  136.7489  159.7668 C   0  0  0  0  0  0  0  0  0  0  0  0
  147.4437  136.8491  158.6426 N   0  0  0  0  0  0  0  0  0  0  0  0
  147.8436  136.3909  157.3144 C   0  0  0  0  0  0  0  0  0  0  0  0
  147.9222  137.5389  156.2891 C   0  0  2  0  0  0  0  0  0  0  0  0
  148.1865  137.0767  154.8367 C   0  0  0  0  0  0  0  0  0  0  0  0
  148.3056  138.2280  153.9127 N   0  3  1  0  0  0  0  0  0  0  0  0
  147.0030  138.8356  153.5549 C   0  0  0  0  0  0  0  0  0  0  0  0
  146.6562  138.7053  152.0902 C   0  0  0  0  0  0  0  0  0  0  0  0
  147.1265  140.0327  152.6418 C   0  0  0  0  0  0  0  0  0  0  0  0
  149.2965  139.2088  154.4155 C   0  0  0  0  0  0  0  0  0  0  0  0
  149.0023  139.6054  155.8743 C   0  0  0  0  0  0  0  0  0  0  0  0
  148.9495  138.4412  156.6901 O   0  0  0  0  0  0  0  0  0  0  0  0
  147.5688  137.2979  160.8470 N   0  5  0  0  0  0  0  0  0  0  0  0
  146.5901  136.6336  161.4831 C   0  0  0  0  0  0  0  0  0  0  0  0
  146.7284  135.3777  161.9232 N   0  0  0  0  0  0  0  0  0  0  0  0
  145.5891  134.8854  162.5631 C   0  0  0  0  0  0  0  0  0  0  0  0
  144.5623  135.7903  162.6176 C   0  0  0  0  0  0  0  0  0  0  0  0
  144.9979  137.2965  161.8618 S   0  0  0  0  0  0  0  0  0  0  0  0
  146.5427  137.2989  158.7153 H   0  0  0  0  0  0  0  0  0  0  0  0
  148.7971  135.8624  157.3575 H   0  0  0  0  0  0  0  0  0  0  0  0
  147.1105  135.6561  156.9810 H   0  0  0  0  0  0  0  0  0  0  0  0
  146.9685  138.0673  156.3297 H   0  0  0  0  0  0  0  0  0  0  0  0
  149.1242  136.5239  154.7806 H   0  0  0  0  0  0  0  0  0  0  0  0
  147.4043  136.3971  154.4969 H   0  0  0  0  0  0  0  0  0  0  0  0
  146.2183  138.7994  154.3079 H   0  0  0  0  0  0  0  0  0  0  0  0
  147.3410  138.1575  151.4453 H   0  0  0  0  0  0  0  0  0  0  0  0
  145.6032  138.6181  151.8301 H   0  0  0  0  0  0  0  0  0  0  0  0
  146.3837  140.8210  152.7443 H   0  0  0  0  0  0  0  0  0  0  0  0
  148.1240  140.3672  152.3618 H   0  0  0  0  0  0  0  0  0  0  0  0
  150.2872  138.7562  154.3578 H   0  0  0  0  0  0  0  0  0  0  0  0
  149.3186  140.0888  153.7717 H   0  0  0  0  0  0  0  0  0  0  0  0
  149.7903  140.2591  156.2484 H   0  0  0  0  0  0  0  0  0  0  0  0
  148.0684  140.1635  155.9530 H   0  0  0  0  0  0  0  0  0  0  0  0
  145.5981  133.8781  162.9520 H   0  0  0  0  0  0  0  0  0  0  0  0
  143.5827  135.6651  163.0537 H   0  0  0  0  0  0  0  0  0  0  0  0
  148.6786  137.8604  153.0488 H   0  0  0  0  0  0  0  0  0  0  0  0
  1  2  2  0  0  0  0
  2  3  1  0  0  0  0
  2 14  1  0  0  0  0
  3  4  1  0  0  0  0
  3 20  1  0  0  0  0
  4  5  1  0  0  0  0
  4 21  1  0  0  0  0
  4 22  1  0  0  0  0
  5 13  1  0  0  0  0
  5  6  1  0  0  0  0
  5 23  1  0  0  0  0
  6  7  1  0  0  0  0
  6 24  1  0  0  0  0
  6 25  1  0  0  0  0
  7  8  1  0  0  0  0
  7 11  1  0  0  0  0
  7 37  1  0  0  0  0
  8 10  1  0  0  0  0
  8  9  1  0  0  0  0
  8 26  1  0  0  0  0
  9 10  1  0  0  0  0
  9 27  1  0  0  0  0
  9 28  1  0  0  0  0
 10 29  1  0  0  0  0
 10 30  1  0  0  0  0
 11 12  1  0  0  0  0
 11 31  1  0  0  0  0
 11 32  1  0  0  0  0
 12 13  1  0  0  0  0
 12 33  1  0  0  0  0
 12 34  1  0  0  0  0
 14 15  1  0  0  0  0
 15 19  1  0  0  0  0
 15 16  2  0  0  0  0
 16 17  1  0  0  0  0
 17 18  2  0  0  0  0
 17 35  1  0  0  0  0
 18 19  1  0  0  0  0
 18 36  1  0  0  0  0
M  CHG  1   7   1
M  CHG  1  14  -1
M  END
> <s_m_source_file>
AV-unprocessed.smi

> <i_m_source_file_index>
2999

> <i_lp_mmshare_version>
43012

> <i_f3d_flags>
0

> <s_epik_input>
czFbY0hdW2NIXW5jMVtOSF1DKD1PKVtOSF1bQ0gyXVtDQEBIXTJbQ0gyXU4oW0NIMl1bQ0gyXU8yKVtDSF0zW0NIMl1bQ0gyXTM=

> <s_epik_cmdline>
J2VwaWtfcHl0aG9uJywgJy1waCcsICc3LjAnLCAnLXRuJywgJzgnLCAnLW1hJywgJzIwMCcsICctbWV0YWxfYmluZGluZycsICctaW1hZScsICc8aW5maWxlLm1hZT4nLCAnLW9tYWUnLCAnPG91dGZpbGUubWFlPic=

> <r_lp_tautomer_probability>
0.999

> <r_epik_Ionization_Penalty>
7.79196

> <r_epik_Ionization_Penalty_Charging>
6.93299

> <r_epik_Ionization_Penalty_Neutral>
0.858963

> <r_epik_State_Penalty>
7.05108

> <r_epik_Charging_Adjusted_Penalty>
13.9841

> <i_epik_Tot_Q>
0

> <i_epik_Tot_abs_Q>
2

> <r_epik_Metal_State_Penalty>
3.05936

> <b_epik_Metal_Only>
1

> <s_lp_Force_Field>
OPLS_2005

> <r_lp_Energy>
16.1762

> <b_lp_Chiralities_Consistent>
1

> <s_lp_Variant>
AV-unprocessed.smi:2999-11

> <Gold.Version>
5.8.1

> <Gold.Id.Protein>
6NUR|6NUR_protein|mol2

> <Gold.PLP.Fitness>
41.1227

> <Gold.PLP.PLP>
-24.0847

> <Gold.PLP.part.hbond>
-4.0000

> <Gold.PLP.part.metal>
0.0000

> <Gold.PLP.part.buried>
-1.8895

> <Gold.PLP.part.nonpolar>
-19.2890

> <Gold.PLP.part.repulsive>
0.0771

> <Gold.PLP.ligand.clash>
0.0000

> <Gold.PLP.ligand.torsion>
1.9704

> <Gold.PLP.Chemscore.Hbond>
6.5520

> <Gold.PLP.Chemscore.CHOScore>
0.0000

> <Gold.PLP.Chemscore.Metal>
0.0000

> <Gold.Chemscore.Hbonds>
donor molecule, donor type, donor heavy atom, donor atom, acceptor molecule, acceptor atom, score
      L1  H     7    37       P1  7948  1.95
      P1  H  6896  6908       L1     1  0.72
      P1  H  6931  6943       L1    14  1.53
      P1  H  6934  6947       L1    14  1.95

> <Gold.PLP.Chemscore.Internal.Correction>
1.3229

> <Gold.Rescore>
     Score         DG    S(hbond)    S(metal)    S(lipo)     H(rot)  DE(clash)    DE(int)     intcor
     15.53     -17.87       3.05        0.00      52.85       1.55       0.32       2.02       ----

> <Gold.Chemscore.Fitness>
15.5314

> <Gold.Chemscore.DG>
-17.8748

> <Gold.Chemscore.ZeroCoef>
-5.4800

> <Gold.Chemscore.Hbond>
3.0481

> <Gold.Chemscore.Metal>
0.0000

> <Gold.Chemscore.Lipo>
52.8478

> <Gold.Chemscore.Internal_Hbond>
0.0000

> <Gold.Chemscore.DEClash>
0.3223

> <Gold.Chemscore.DEInternal>
2.0211

> <Gold.Chemscore.Rot>
1.5504

> <Gold.Chemscore.Internal.Correction>
   9.000000E+99

> <Gold.Chemscore.Hbonds>
donor molecule, donor type, donor heavy atom, donor atom, acceptor molecule, acceptor atom, score
      L1  H     7    37       P1  7948  0.88
      P1  H  6896  6908       L1     1  0.69
      P1  H  6931  6943       L1    14  0.43
      P1  H  6934  6947       L1    14  0.60

> <Gold.Chemscore.Hbond.Weighted>
-10.1806

> <Gold.Chemscore.Metal.Weighted>
-0.0000

> <Gold.Chemscore.Lipo.Weighted>
-6.1832

> <Gold.Chemscore.Internal_Hbond.Weighted>
0.0000

> <Gold.Chemscore.DEClash.Weighted>
0.3223

> <Gold.Chemscore.DEInternal.Weighted>
2.0211

> <Gold.Chemscore.Rot.Weighted>
3.9690

> <Gold.Chemscore.Internal.Correction.Weighted>
   9.000000E+99

> <Gold.Protein.RotatedTorsions>
[ 6907 6896 6895 6894 ] final  170.61 input  -60.11 | X-H torsion
[ 7974 7965 7964 7962 ] final  163.30 input  175.53 | X-H torsion
[ 8008 7997 7996 7995 ] final   31.67 input   59.86 | X-H torsion
[ 10167 10162 10161 10158 ] final  -53.15 input  -65.29 | X-H torsion
[ 10718 10713 10712 10709 ] final -104.55 input   66.30 | X-H torsion
[ 10763 10752 10751 10750 ] final   77.54 input  -60.55 | X-H torsion
[ 11005 11000 10999 10996 ] final -117.83 input  -57.11 | X-H torsion

> <Gold.Protein.ActiveResidues>
 VAL166  LYS551  ARG553  GLY616  TRP617  ASP618  TYR619  PRO620  LYS621  CYS622 
 ASP623  PHE694  ASN695  SER759  ASP760  ASP761  ALA762  ILE779  LEU786  VAL792 
 PHE793  MET794  SER795  GLU796  ALA797  LYS798  CYS799  TRP800  GLU811  SER814 

> <Gold.Protein.RotatedAtoms>
  151.8134  133.3384  159.3561 H   0  0  0  0  0  0  0  0  0  0  0  0  # atno 6907 bound_to 6896
  150.7318  134.5643  159.5867 H   0  0  0  0  0  0  0  0  0  0  0  0  # atno 6908 bound_to 6896
  152.3059  134.7557  160.0399 H   0  0  0  0  0  0  0  0  0  0  0  0  # atno 6909 bound_to 6896
  144.7596  139.8162  143.6337 H   0  0  0  0  0  0  0  0  0  0  0  0  # atno 7974 bound_to 7965
  155.1101  140.3238  155.4524 H   0  0  0  0  0  0  0  0  0  0  0  0  # atno 8008 bound_to 7997
  156.2693  140.2045  156.6173 H   0  0  0  0  0  0  0  0  0  0  0  0  # atno 8009 bound_to 7997
  154.6763  140.0531  157.0206 H   0  0  0  0  0  0  0  0  0  0  0  0  # atno 8010 bound_to 7997
  140.6500  143.2560  151.4750 H   0  0  0  0  0  0  0  0  0  0  0  0  # atno 10167 bound_to 10162
  156.0309  130.5521  150.7413 H   0  0  0  0  0  0  0  0  0  0  0  0  # atno 10718 bound_to 10713
  153.0806  135.4910  154.8495 H   0  0  0  0  0  0  0  0  0  0  0  0  # atno 10763 bound_to 10752
  154.7146  135.3027  154.9146 H   0  0  0  0  0  0  0  0  0  0  0  0  # atno 10764 bound_to 10752
  153.9829  135.6787  153.4804 H   0  0  0  0  0  0  0  0  0  0  0  0  # atno 10765 bound_to 10752
  141.0328  133.9955  157.3117 H   0  0  0  0  0  0  0  0  0  0  0  0  # atno 11005 bound_to 11000
  146.1645  139.4771  142.9967 LP  0  0  0  0  0  0  0  0  0  0  0  0  # atno 17320 bound_to 7965
  145.6663  141.0228  143.1682 LP  0  0  0  0  0  0  0  0  0  0  0  0  # atno 17321 bound_to 7965
  139.5714  144.1920  152.1842 LP  0  0  0  0  0  0  0  0  0  0  0  0  # atno 17342 bound_to 10162
  140.1217  144.5367  150.6858 LP  0  0  0  0  0  0  0  0  0  0  0  0  # atno 17343 bound_to 10162
  157.4981  131.0916  151.0347 LP  0  0  0  0  0  0  0  0  0  0  0  0  # atno 17370 bound_to 10713
  157.0736  130.5874  149.5407 LP  0  0  0  0  0  0  0  0  0  0  0  0  # atno 17371 bound_to 10713
  139.9219  135.0200  156.8097 LP  0  0  0  0  0  0  0  0  0  0  0  0  # atno 17394 bound_to 11000
  140.6376  133.9848  155.7692 LP  0  0  0  0  0  0  0  0  0  0  0  0  # atno 17395 bound_to 11000

$$$$
