AV-unprocessed.smi:52|AV-procd|sdf|509|dock5
  -GOLD-   2262016383D 1   1.00000     0.00000
 Structure written by MMmdl.
 27 28  0  0  0  0  0  0  0  0  3 V2000
  150.1531  136.3127  157.0719 O   0  0  0  0  0  0  0  0  0  0  0  0
  150.6155  136.5819  155.9412 C   0  0  0  0  0  0  0  0  0  0  0  0
  151.1230  135.7050  155.2080 O   0  5  0  0  0  0  0  0  0  0  0  0
  150.5636  137.9853  155.4569 C   0  0  0  0  0  0  0  0  0  0  0  0
  150.4909  138.4027  154.1519 C   0  0  0  0  0  0  0  0  0  0  0  0
  150.4526  139.7705  154.1183 O   0  0  0  0  0  0  0  0  0  0  0  0
  150.5068  140.1383  155.4270 C   0  0  0  0  0  0  0  0  0  0  0  0
  150.4611  141.5894  155.7748 C   0  0  0  0  0  0  0  0  0  0  0  0
  149.0390  141.9630  155.5899 N   0  3  2  0  0  0  0  0  0  0  0  0
  148.1280  141.3668  156.5885 C   0  0  0  0  0  0  0  0  0  0  0  0
  146.7578  141.3598  155.9192 C   0  0  0  0  0  0  0  0  0  0  0  0
  147.1035  141.0266  154.4711 C   0  0  1  0  0  0  0  0  0  0  0  0
  146.1195  141.4993  153.5757 O   0  0  0  0  0  0  0  0  0  0  0  0
  148.4710  141.6882  154.2448 C   0  0  0  0  0  0  0  0  0  0  0  0
  150.5759  139.1115  156.2701 N   0  0  0  0  0  0  0  0  0  0  0  0
  147.1999  139.9453  154.3627 H   0  0  0  0  0  0  0  0  0  0  0  0
  150.4572  137.8880  153.2027 H   0  0  0  0  0  0  0  0  0  0  0  0
  150.8022  141.7608  156.7968 H   0  0  0  0  0  0  0  0  0  0  0  0
  151.1036  142.1441  155.0899 H   0  0  0  0  0  0  0  0  0  0  0  0
  148.4358  140.3418  156.8025 H   0  0  0  0  0  0  0  0  0  0  0  0
  148.1362  141.9256  157.5248 H   0  0  0  0  0  0  0  0  0  0  0  0
  146.0667  140.6454  156.3679 H   0  0  0  0  0  0  0  0  0  0  0  0
  146.3110  142.3534  155.9883 H   0  0  0  0  0  0  0  0  0  0  0  0
  145.4524  140.8362  153.4795 H   0  0  0  0  0  0  0  0  0  0  0  0
  148.3768  142.6391  153.7183 H   0  0  0  0  0  0  0  0  0  0  0  0
  149.1129  141.0425  153.6430 H   0  0  0  0  0  0  0  0  0  0  0  0
  148.9789  142.9630  155.7197 H   0  0  0  0  0  0  0  0  0  0  0  0
  1  2  2  0  0  0  0
  2  3  1  0  0  0  0
  2  4  1  0  0  0  0
  4 15  1  0  0  0  0
  4  5  2  0  0  0  0
  5  6  1  0  0  0  0
  5 17  1  0  0  0  0
  6  7  1  0  0  0  0
  7  8  1  0  0  0  0
  7 15  2  0  0  0  0
  8  9  1  0  0  0  0
  8 18  1  0  0  0  0
  8 19  1  0  0  0  0
  9 14  1  0  0  0  0
  9 10  1  0  0  0  0
  9 27  1  0  0  0  0
 10 11  1  0  0  0  0
 10 20  1  0  0  0  0
 10 21  1  0  0  0  0
 11 12  1  0  0  0  0
 11 22  1  0  0  0  0
 11 23  1  0  0  0  0
 12 16  1  0  0  0  0
 12 13  1  0  0  0  0
 12 14  1  0  0  0  0
 13 24  1  0  0  0  0
 14 25  1  0  0  0  0
 14 26  1  0  0  0  0
M  CHG  1   3  -1
M  CHG  1   9   1
M  END
> <s_m_source_file>
AV-unprocessed.smi

> <i_m_source_file_index>
52

> <i_lp_mmshare_version>
43012

> <i_f3d_flags>
0

> <s_epik_input>
Tz1DKFtPSF0pYzFbY0hdb2MobjEpW0NIMl1OMltDSDJdW0NIMl1bQ0BIXShbT0hdKVtDSDJdMg==

> <s_epik_cmdline>
J2VwaWtfcHl0aG9uJywgJy1waCcsICc3LjAnLCAnLXRuJywgJzgnLCAnLW1hJywgJzIwMCcsICctbWV0YWxfYmluZGluZycsICctaW1hZScsICc8aW5maWxlLm1hZT4nLCAnLW9tYWUnLCAnPG91dGZpbGUubWFlPic=

> <r_epik_Ionization_Penalty>
0.0376014

> <r_epik_Ionization_Penalty_Charging>
0.0376013

> <r_epik_Ionization_Penalty_Neutral>
1.78687e-08

> <r_epik_State_Penalty>
0.0314164

> <r_epik_Charging_Adjusted_Penalty>
0.0690177

> <i_epik_Tot_Q>
0

> <i_epik_Tot_abs_Q>
2

> <r_epik_Metal_State_Penalty>
0.0314164

> <b_epik_Metal_Only>
0

> <s_lp_Force_Field>
OPLS_2005

> <r_lp_Energy>
21.0877

> <b_lp_Chiralities_Consistent>
1

> <s_lp_Variant>
AV-unprocessed.smi:52-3

> <Gold.Version>
5.8.1

> <Gold.Id.Protein>
6NUR|6NUR_protein|mol2

> <Gold.PLP.Fitness>
41.2613

> <Gold.PLP.PLP>
-21.4987

> <Gold.PLP.part.hbond>
-4.0000

> <Gold.PLP.part.metal>
0.0000

> <Gold.PLP.part.buried>
-3.5034

> <Gold.PLP.part.nonpolar>
-15.0538

> <Gold.PLP.part.repulsive>
0.9081

> <Gold.PLP.ligand.clash>
0.0000

> <Gold.PLP.ligand.torsion>
0.5790

> <Gold.PLP.Chemscore.Hbond>
5.9120

> <Gold.PLP.Chemscore.CHOScore>
1.0578

> <Gold.PLP.Chemscore.Metal>
0.0000

> <Gold.Chemscore.Hbonds>
donor molecule, donor type, donor heavy atom, donor atom, acceptor molecule, acceptor atom, score
      L1  H     9    27       P1  8028  2.00
      L1  H    13    24       P1 10175  0.74
      P1  H  7989  7998       L1     6  0.95
      P1  H 10752 10763       L1     3  2.00
      L1  C     5    17       P1  7948  0.68
      L1  C     5    17       P1  7949  0.35

> <Gold.PLP.Chemscore.Internal.Correction>
0.0112

> <Gold.Rescore>
     Score         DG    S(hbond)    S(metal)    S(lipo)     H(rot)  DE(clash)    DE(int)     intcor
     14.69     -16.81       3.55        0.00      39.08       1.99       0.02       2.11       ----

> <Gold.Chemscore.Fitness>
14.6903

> <Gold.Chemscore.DG>
-16.8120

> <Gold.Chemscore.ZeroCoef>
-5.4800

> <Gold.Chemscore.Hbond>
3.5505

> <Gold.Chemscore.Metal>
0.0000

> <Gold.Chemscore.Lipo>
39.0818

> <Gold.Chemscore.Internal_Hbond>
0.0000

> <Gold.Chemscore.DEClash>
0.0166

> <Gold.Chemscore.DEInternal>
2.1051

> <Gold.Chemscore.Rot>
1.9919

> <Gold.Chemscore.Internal.Correction>
   9.000000E+99

> <Gold.Chemscore.Hbonds>
donor molecule, donor type, donor heavy atom, donor atom, acceptor molecule, acceptor atom, score
      L1  H     9    27       P1  8028  1.00
      L1  H    13    24       P1 10175  0.55
      P1  H  7989  7998       L1     6  0.21
      P1  H 10752 10763       L1     3  0.99

> <Gold.Chemscore.Hbond.Weighted>
-11.8586

> <Gold.Chemscore.Metal.Weighted>
-0.0000

> <Gold.Chemscore.Lipo.Weighted>
-4.5726

> <Gold.Chemscore.Internal_Hbond.Weighted>
0.0000

> <Gold.Chemscore.DEClash.Weighted>
0.0166

> <Gold.Chemscore.DEInternal.Weighted>
2.1051

> <Gold.Chemscore.Rot.Weighted>
5.0991

> <Gold.Chemscore.Internal.Correction.Weighted>
   9.000000E+99

> <Gold.Protein.RotatedTorsions>
[ 6907 6896 6895 6894 ] final -178.35 input  -60.11 | X-H torsion
[ 7974 7965 7964 7962 ] final  -74.54 input  175.53 | X-H torsion
[ 8008 7997 7996 7995 ] final   21.47 input   59.86 | X-H torsion
[ 10167 10162 10161 10158 ] final  -91.73 input  -65.29 | X-H torsion
[ 10718 10713 10712 10709 ] final   20.95 input   66.30 | X-H torsion
[ 10763 10752 10751 10750 ] final   59.27 input  -60.55 | X-H torsion
[ 11005 11000 10999 10996 ] final  -61.42 input  -57.11 | X-H torsion

> <Gold.Protein.ActiveResidues>
 VAL166  LYS551  ARG553  GLY616  TRP617  ASP618  TYR619  PRO620  LYS621  CYS622 
 ASP623  PHE694  ASN695  SER759  ASP760  ASP761  ALA762  ILE779  LEU786  VAL792 
 PHE793  MET794  SER795  GLU796  ALA797  LYS798  CYS799  TRP800  GLU811  SER814 

> <Gold.Protein.RotatedAtoms>
  151.6357  133.3329  159.3118 H   0  0  0  0  0  0  0  0  0  0  0  0  # atno 6907 bound_to 6896
  150.8033  134.7146  159.6632 H   0  0  0  0  0  0  0  0  0  0  0  0  # atno 6908 bound_to 6896
  152.4127  134.6100  160.0074 H   0  0  0  0  0  0  0  0  0  0  0  0  # atno 6909 bound_to 6896
  145.6378  140.9319  143.1052 H   0  0  0  0  0  0  0  0  0  0  0  0  # atno 7974 bound_to 7965
  154.9511  140.3066  155.5075 H   0  0  0  0  0  0  0  0  0  0  0  0  # atno 8008 bound_to 7997
  156.2987  140.2318  156.4526 H   0  0  0  0  0  0  0  0  0  0  0  0  # atno 8009 bound_to 7997
  154.8054  140.0431  157.1292 H   0  0  0  0  0  0  0  0  0  0  0  0  # atno 8010 bound_to 7997
  140.3420  143.2937  151.9825 H   0  0  0  0  0  0  0  0  0  0  0  0  # atno 10167 bound_to 10162
  157.1316  130.6593  149.5953 H   0  0  0  0  0  0  0  0  0  0  0  0  # atno 10718 bound_to 10713
  152.9890  135.5577  154.5687 H   0  0  0  0  0  0  0  0  0  0  0  0  # atno 10763 bound_to 10752
  154.5091  135.2801  155.1359 H   0  0  0  0  0  0  0  0  0  0  0  0  # atno 10764 bound_to 10752
  154.2758  135.6354  153.5380 H   0  0  0  0  0  0  0  0  0  0  0  0  # atno 10765 bound_to 10752
  141.1324  133.6630  156.5373 H   0  0  0  0  0  0  0  0  0  0  0  0  # atno 11005 bound_to 11000
  144.7169  139.8166  143.7395 LP  0  0  0  0  0  0  0  0  0  0  0  0  # atno 17320 bound_to 7965
  146.1305  139.4340  143.0171 LP  0  0  0  0  0  0  0  0  0  0  0  0  # atno 17321 bound_to 7965
  139.4839  144.6149  151.7365 LP  0  0  0  0  0  0  0  0  0  0  0  0  # atno 17342 bound_to 10162
  140.5300  144.0745  150.6050 LP  0  0  0  0  0  0  0  0  0  0  0  0  # atno 17343 bound_to 10162
  155.9807  130.4809  150.6785 LP  0  0  0  0  0  0  0  0  0  0  0  0  # atno 17370 bound_to 10713
  157.4387  131.0858  151.0965 LP  0  0  0  0  0  0  0  0  0  0  0  0  # atno 17371 bound_to 10713
  140.4168  134.7223  157.4867 LP  0  0  0  0  0  0  0  0  0  0  0  0  # atno 17394 bound_to 11000
  140.0388  134.6298  155.9008 LP  0  0  0  0  0  0  0  0  0  0  0  0  # atno 17395 bound_to 11000

$$$$
