AV-unprocessed.smi:1586|AV-procd|sdf|6383|dock5
  -GOLD-   22720 7 13D 1   1.00000     0.00000
 Structure written by MMmdl.
 46 47  0  0  0  0  0  0  0  0  3 V2000
  144.3163  131.4378  150.6897 C   0  0  0  0  0  0  0  0  0  0  0  0
  144.0363  132.9463  150.7567 C   0  0  0  0  0  0  0  0  0  0  0  0
  145.1707  133.7363  150.2720 N   0  0  0  0  0  0  0  0  0  0  0  0
  145.0140  135.1878  150.3957 C   0  0  0  0  0  0  0  0  0  0  0  0
  145.0562  135.6640  151.8631 C   0  0  0  0  0  0  0  0  0  0  0  0
  146.3287  135.2566  152.5205 N   0  3  0  0  0  0  0  0  0  0  0  0
  146.5220  135.7281  153.9306 C   0  0  2  0  0  0  0  0  0  0  0  0
  145.5132  135.1158  154.9337 C   0  0  0  0  0  0  0  0  0  0  0  0
  146.4560  137.2733  153.9810 C   0  0  0  0  0  0  0  0  0  0  0  0
  147.7660  137.8844  153.7855 N   0  0  0  0  0  0  0  0  0  0  0  0
  148.3549  138.7438  154.6277 C   0  0  0  0  0  0  0  0  0  0  0  0
  147.7690  139.0959  155.6539 O   0  0  0  0  0  0  0  0  0  0  0  0
  149.5857  139.1376  154.2285 N   0  5  0  0  0  0  0  0  0  0  0  0
  150.5394  139.3967  155.1366 C   0  0  0  0  0  0  0  0  0  0  0  0
  150.3508  139.5086  156.5414 C   0  0  0  0  0  0  0  0  0  0  0  0
  151.6064  139.7836  157.0041 C   0  0  0  0  0  0  0  0  0  0  0  0
  152.1532  140.0151  158.3713 C   0  0  0  0  0  0  0  0  0  0  0  0
  152.4872  139.8472  155.9694 O   0  0  0  0  0  0  0  0  0  0  0  0
  151.7949  139.6051  154.7770 N   0  0  0  0  0  0  0  0  0  0  0  0
  146.4992  133.7845  152.3827 C   0  0  0  0  0  0  0  0  0  0  0  0
  146.4342  133.3523  150.9028 C   0  0  0  0  0  0  0  0  0  0  0  0
  143.5166  130.8804  151.1776 H   0  0  0  0  0  0  0  0  0  0  0  0
  145.2487  131.1845  151.1951 H   0  0  0  0  0  0  0  0  0  0  0  0
  144.3772  131.0775  149.6634 H   0  0  0  0  0  0  0  0  0  0  0  0
  143.1197  133.1829  150.2177 H   0  0  0  0  0  0  0  0  0  0  0  0
  143.8571  133.2079  151.8004 H   0  0  0  0  0  0  0  0  0  0  0  0
  145.8207  135.6672  149.8395 H   0  0  0  0  0  0  0  0  0  0  0  0
  144.0917  135.5149  149.9176 H   0  0  0  0  0  0  0  0  0  0  0  0
  144.9717  136.7499  151.8414 H   0  0  0  0  0  0  0  0  0  0  0  0
  144.2015  135.2890  152.4271 H   0  0  0  0  0  0  0  0  0  0  0  0
  147.5152  135.4117  154.2543 H   0  0  0  0  0  0  0  0  0  0  0  0
  145.6698  135.4910  155.9452 H   0  0  0  0  0  0  0  0  0  0  0  0
  145.6126  134.0327  155.0053 H   0  0  0  0  0  0  0  0  0  0  0  0
  144.4845  135.3492  154.6573 H   0  0  0  0  0  0  0  0  0  0  0  0
  145.7968  137.6747  153.2127 H   0  0  0  0  0  0  0  0  0  0  0  0
  146.0432  137.5846  154.9425 H   0  0  0  0  0  0  0  0  0  0  0  0
  148.2779  137.6241  152.9552 H   0  0  0  0  0  0  0  0  0  0  0  0
  149.4430  139.3989  157.1155 H   0  0  0  0  0  0  0  0  0  0  0  0
  152.0550  139.1175  158.9816 H   0  0  0  0  0  0  0  0  0  0  0  0
  151.6176  140.8237  158.8686 H   0  0  0  0  0  0  0  0  0  0  0  0
  153.2093  140.2832  158.3332 H   0  0  0  0  0  0  0  0  0  0  0  0
  147.4618  133.4715  152.7826 H   0  0  0  0  0  0  0  0  0  0  0  0
  145.7427  133.2650  152.9722 H   0  0  0  0  0  0  0  0  0  0  0  0
  146.5747  132.2741  150.8166 H   0  0  0  0  0  0  0  0  0  0  0  0
  147.2555  133.8119  150.3512 H   0  0  0  0  0  0  0  0  0  0  0  0
  147.0641  135.6888  151.9795 H   0  0  0  0  0  0  0  0  0  0  0  0
  1  2  1  0  0  0  0
  1 22  1  0  0  0  0
  1 23  1  0  0  0  0
  1 24  1  0  0  0  0
  2  3  1  0  0  0  0
  2 25  1  0  0  0  0
  2 26  1  0  0  0  0
  3 21  1  0  0  0  0
  3  4  1  0  0  0  0
  4  5  1  0  0  0  0
  4 27  1  0  0  0  0
  4 28  1  0  0  0  0
  5  6  1  0  0  0  0
  5 29  1  0  0  0  0
  5 30  1  0  0  0  0
  6  7  1  0  0  0  0
  6 20  1  0  0  0  0
  6 46  1  0  0  0  0
  7  8  1  0  0  0  0
  7  9  1  0  0  0  0
  7 31  1  0  0  0  0
  8 32  1  0  0  0  0
  8 33  1  0  0  0  0
  8 34  1  0  0  0  0
  9 10  1  0  0  0  0
  9 35  1  0  0  0  0
  9 36  1  0  0  0  0
 10 11  1  0  0  0  0
 10 37  1  0  0  0  0
 11 12  2  0  0  0  0
 11 13  1  0  0  0  0
 13 14  1  0  0  0  0
 14 19  2  0  0  0  0
 14 15  1  0  0  0  0
 15 16  2  0  0  0  0
 15 38  1  0  0  0  0
 16 17  1  0  0  0  0
 16 18  1  0  0  0  0
 17 39  1  0  0  0  0
 17 40  1  0  0  0  0
 17 41  1  0  0  0  0
 18 19  1  0  0  0  0
 20 21  1  0  0  0  0
 20 42  1  0  0  0  0
 20 43  1  0  0  0  0
 21 44  1  0  0  0  0
 21 45  1  0  0  0  0
M  CHG  1   6   1
M  CHG  1  13  -1
M  END
> <s_m_source_file>
AV-unprocessed.smi

> <i_m_source_file_index>
1586

> <i_lp_mmshare_version>
43012

> <i_f3d_flags>
0

> <s_epik_input>
W0NIM11bQ0gyXU4xW0NIMl1bQ0gyXU4oW0NIMl1bQ0gyXTEpW0NASF0oW0NIM10pW0NIMl1bTkhdQyg9TylbTkhdYzJbY0hdYyhbQ0gzXSlvbjI=

> <s_epik_cmdline>
J2VwaWtfcHl0aG9uJywgJy1waCcsICc3LjAnLCAnLXRuJywgJzgnLCAnLW1hJywgJzIwMCcsICctbWV0YWxfYmluZGluZycsICctaW1hZScsICc8aW5maWxlLm1hZT4nLCAnLW9tYWUnLCAnPG91dGZpbGUubWFlPic=

> <r_epik_Ionization_Penalty>
6.35599

> <r_epik_Ionization_Penalty_Charging>
6.35441

> <r_epik_Ionization_Penalty_Neutral>
0.00158318

> <r_epik_State_Penalty>
7.1902

> <r_epik_Charging_Adjusted_Penalty>
13.5446

> <i_epik_Tot_Q>
0

> <i_epik_Tot_abs_Q>
2

> <r_epik_Metal_State_Penalty>
3.12491

> <b_epik_Metal_Only>
1

> <s_lp_Force_Field>
OPLS_2005

> <r_lp_Energy>
12.1212

> <b_lp_Chiralities_Consistent>
1

> <s_lp_Variant>
AV-unprocessed.smi:1586-11

> <Gold.Version>
5.8.1

> <Gold.Id.Protein>
6NUR|6NUR_protein|mol2

> <Gold.PLP.Fitness>
42.7180

> <Gold.PLP.PLP>
-29.0939

> <Gold.PLP.part.hbond>
-4.0000

> <Gold.PLP.part.metal>
0.0000

> <Gold.PLP.part.buried>
-3.8604

> <Gold.PLP.part.nonpolar>
-21.5307

> <Gold.PLP.part.repulsive>
1.2853

> <Gold.PLP.ligand.clash>
0.0000

> <Gold.PLP.ligand.torsion>
0.7281

> <Gold.PLP.Chemscore.Hbond>
4.9920

> <Gold.PLP.Chemscore.CHOScore>
0.0000

> <Gold.PLP.Chemscore.Metal>
0.0000

> <Gold.Chemscore.Hbonds>
donor molecule, donor type, donor heavy atom, donor atom, acceptor molecule, acceptor atom, score
      L1  H     6    46       P1  7948  1.95
      L1  H    10    37       P1  7948  0.98
      P1  H  7989  7998       L1    19  1.00
      P1  H  7997  8008       L1    18  1.00

> <Gold.PLP.Chemscore.Internal.Correction>
0.1043

> <Gold.Rescore>
     Score         DG    S(hbond)    S(metal)    S(lipo)     H(rot)  DE(clash)    DE(int)     intcor
     18.46     -20.55       3.80        0.00      57.98       1.73       0.02       2.06       ----

> <Gold.Chemscore.Fitness>
18.4645

> <Gold.Chemscore.DG>
-20.5455

> <Gold.Chemscore.ZeroCoef>
-5.4800

> <Gold.Chemscore.Hbond>
3.8019

> <Gold.Chemscore.Metal>
0.0000

> <Gold.Chemscore.Lipo>
57.9780

> <Gold.Chemscore.Internal_Hbond>
0.0000

> <Gold.Chemscore.DEClash>
0.0246

> <Gold.Chemscore.DEInternal>
2.0564

> <Gold.Chemscore.Rot>
1.7250

> <Gold.Chemscore.Internal.Correction>
   9.000000E+99

> <Gold.Chemscore.Hbonds>
donor molecule, donor type, donor heavy atom, donor atom, acceptor molecule, acceptor atom, score
      L1  H     6    46       P1  7948  0.93
      L1  H    10    37       P1  7948  0.93
      P1  H  7989  7998       L1    19  0.42
      P1  H  7997  8008       L1    18  0.98

> <Gold.Chemscore.Hbond.Weighted>
-12.6982

> <Gold.Chemscore.Metal.Weighted>
-0.0000

> <Gold.Chemscore.Lipo.Weighted>
-6.7834

> <Gold.Chemscore.Internal_Hbond.Weighted>
0.0000

> <Gold.Chemscore.DEClash.Weighted>
0.0246

> <Gold.Chemscore.DEInternal.Weighted>
2.0564

> <Gold.Chemscore.Rot.Weighted>
4.4161

> <Gold.Chemscore.Internal.Correction.Weighted>
   9.000000E+99

> <Gold.Protein.RotatedTorsions>
[ 6907 6896 6895 6894 ] final   44.19 input  -60.11 | X-H torsion
[ 7974 7965 7964 7962 ] final -126.34 input  175.53 | X-H torsion
[ 8008 7997 7996 7995 ] final  -25.16 input   59.86 | X-H torsion
[ 10167 10162 10161 10158 ] final   89.59 input  -65.29 | X-H torsion
[ 10718 10713 10712 10709 ] final  -49.26 input   66.30 | X-H torsion
[ 10763 10752 10751 10750 ] final   27.26 input  -60.55 | X-H torsion
[ 11005 11000 10999 10996 ] final -132.52 input  -57.11 | X-H torsion

> <Gold.Protein.ActiveResidues>
 VAL166  LYS551  ARG553  GLY616  TRP617  ASP618  TYR619  PRO620  LYS621  CYS622 
 ASP623  PHE694  ASN695  SER759  ASP760  ASP761  ALA762  ILE779  LEU786  VAL792 
 PHE793  MET794  SER795  GLU796  ALA797  LYS798  CYS799  TRP800  GLU811  SER814 

> <Gold.Protein.RotatedAtoms>
  152.2294  134.8336  160.0475 H   0  0  0  0  0  0  0  0  0  0  0  0  # atno 6907 bound_to 6896
  151.9090  133.3551  159.3865 H   0  0  0  0  0  0  0  0  0  0  0  0  # atno 6908 bound_to 6896
  150.7021  134.4676  159.5454 H   0  0  0  0  0  0  0  0  0  0  0  0  # atno 6909 bound_to 6896
  144.9883  140.7707  143.4570 H   0  0  0  0  0  0  0  0  0  0  0  0  # atno 7974 bound_to 7965
  154.4490  140.1934  156.0576 H   0  0  0  0  0  0  0  0  0  0  0  0  # atno 8008 bound_to 7997
  156.0607  140.3297  155.7431 H   0  0  0  0  0  0  0  0  0  0  0  0  # atno 8009 bound_to 7997
  155.5416  140.0587  157.2859 H   0  0  0  0  0  0  0  0  0  0  0  0  # atno 8010 bound_to 7997
  139.8558  144.6570  150.9116 H   0  0  0  0  0  0  0  0  0  0  0  0  # atno 10167 bound_to 10162
  156.1910  130.4153  149.9372 H   0  0  0  0  0  0  0  0  0  0  0  0  # atno 10718 bound_to 10713
  153.0567  135.6541  154.0560 H   0  0  0  0  0  0  0  0  0  0  0  0  # atno 10763 bound_to 10752
  154.0237  135.2917  155.3379 H   0  0  0  0  0  0  0  0  0  0  0  0  # atno 10764 bound_to 10752
  154.6886  135.5292  153.8428 H   0  0  0  0  0  0  0  0  0  0  0  0  # atno 10765 bound_to 10752
  140.9163  134.1503  157.4350 H   0  0  0  0  0  0  0  0  0  0  0  0  # atno 11005 bound_to 11000
  145.2322  139.2110  143.5037 LP  0  0  0  0  0  0  0  0  0  0  0  0  # atno 17320 bound_to 7965
  146.3425  140.2201  142.8591 LP  0  0  0  0  0  0  0  0  0  0  0  0  # atno 17321 bound_to 7965
  140.7782  143.3787  151.1516 LP  0  0  0  0  0  0  0  0  0  0  0  0  # atno 17342 bound_to 10162
  139.7421  143.8908  152.3053 LP  0  0  0  0  0  0  0  0  0  0  0  0  # atno 17343 bound_to 10162
  156.7112  130.8971  151.3609 LP  0  0  0  0  0  0  0  0  0  0  0  0  # atno 17370 bound_to 10713
  157.6929  130.9252  150.0563 LP  0  0  0  0  0  0  0  0  0  0  0  0  # atno 17371 bound_to 10713
  139.8766  134.9955  156.5745 LP  0  0  0  0  0  0  0  0  0  0  0  0  # atno 17394 bound_to 11000
  140.8046  133.8478  155.8756 LP  0  0  0  0  0  0  0  0  0  0  0  0  # atno 17395 bound_to 11000

$$$$
