AV-unprocessed.smi:110|AV-procd|sdf|1067|dock9
  -GOLD-   2262018143D 1   1.00000     0.00000
 Structure written by MMmdl.
 46 50  0  0  0  0  0  0  0  0  1 V2000
  145.3373  143.6341  154.6150 O   0  0  0  0  0  0  0  0  0  0  0  0
  145.4515  142.2379  154.4433 C   0  0  0  0  0  0  0  0  0  0  0  0
  146.7837  141.8993  153.7556 C   0  0  1  0  0  0  0  0  0  0  0  0
  147.8480  142.2851  154.6222 O   0  0  0  0  0  0  0  0  0  0  0  0
  148.8728  141.3550  154.5277 C   0  0  1  0  0  0  0  0  0  0  0  0
  149.7127  141.4292  155.7594 N   0  0  0  0  0  0  0  0  0  0  0  0
  149.5496  142.2143  156.8792 C   0  0  0  0  0  0  0  0  0  0  0  0
  150.4540  142.0508  157.8069 N   0  0  0  0  0  0  0  0  0  0  0  0
  151.3127  141.0889  157.2855 C   0  0  0  0  0  0  0  0  0  0  0  0
  152.4940  140.4411  157.7486 C   0  0  0  0  0  0  0  0  0  0  0  0
  153.0862  140.6788  158.9426 N   0  0  0  0  0  0  0  0  0  0  0  0
  153.8608  139.6128  159.5938 C   0  0  0  0  0  0  0  0  0  0  0  0
  154.0217  139.9964  161.0768 C   0  0  0  0  0  0  0  0  0  0  0  0
  153.4258  141.3673  161.0821 C   0  0  0  0  0  0  0  0  0  0  0  0
  153.3730  142.2683  162.1598 C   0  0  0  0  0  0  0  0  0  0  0  0
  152.7850  143.5325  161.9410 C   0  0  0  0  0  0  0  0  0  0  0  0
  152.2764  143.8730  160.6660 C   0  0  0  0  0  0  0  0  0  0  0  0
  152.3420  142.9519  159.5974 C   0  0  0  0  0  0  0  0  0  0  0  0
  152.9112  141.6825  159.8282 C   0  0  0  0  0  0  0  0  0  0  0  0
  153.0345  139.4801  156.9557 N   0  0  0  0  0  0  0  0  0  0  0  0
  152.4854  139.1969  155.7711 C   0  0  0  0  0  0  0  0  0  0  0  0
  151.4056  139.7354  155.2019 N   0  0  0  0  0  0  0  0  0  0  0  0
  150.8412  140.6818  156.0057 C   0  0  0  0  0  0  0  0  0  0  0  0
  148.1846  140.0003  154.3578 C   0  0  1  0  0  0  0  0  0  0  0  0
  147.7863  139.4247  155.5892 O   0  0  0  0  0  0  0  0  0  0  0  0
  146.9724  140.3837  153.5166 C   0  0  2  0  0  0  0  0  0  0  0  0
  147.2488  140.1561  152.1476 O   0  0  0  0  0  0  0  0  0  0  0  0
  146.8741  142.4464  152.8148 H   0  0  0  0  0  0  0  0  0  0  0  0
  149.5371  141.6102  153.7006 H   0  0  0  0  0  0  0  0  0  0  0  0
  148.8554  139.3029  153.8542 H   0  0  0  0  0  0  0  0  0  0  0  0
  146.0909  139.7986  153.7840 H   0  0  0  0  0  0  0  0  0  0  0  0
  145.6609  143.8593  155.4738 H   0  0  0  0  0  0  0  0  0  0  0  0
  145.3568  141.7259  155.4016 H   0  0  0  0  0  0  0  0  0  0  0  0
  144.6146  141.9204  153.8206 H   0  0  0  0  0  0  0  0  0  0  0  0
  148.7331  142.9130  156.9908 H   0  0  0  0  0  0  0  0  0  0  0  0
  153.3639  138.6474  159.4890 H   0  0  0  0  0  0  0  0  0  0  0  0
  154.8371  139.5399  159.1128 H   0  0  0  0  0  0  0  0  0  0  0  0
  153.4543  139.3354  161.7326 H   0  0  0  0  0  0  0  0  0  0  0  0
  155.0654  140.0131  161.3917 H   0  0  0  0  0  0  0  0  0  0  0  0
  153.7760  142.0033  163.1259 H   0  0  0  0  0  0  0  0  0  0  0  0
  152.7313  144.2467  162.7493 H   0  0  0  0  0  0  0  0  0  0  0  0
  151.8394  144.8476  160.5061 H   0  0  0  0  0  0  0  0  0  0  0  0
  151.9676  143.2267  158.6226 H   0  0  0  0  0  0  0  0  0  0  0  0
  152.9826  138.4288  155.1975 H   0  0  0  0  0  0  0  0  0  0  0  0
  146.9396  139.7735  155.8219 H   0  0  0  0  0  0  0  0  0  0  0  0
  148.1843  140.0811  152.0365 H   0  0  0  0  0  0  0  0  0  0  0  0
  1  2  1  0  0  0  0
  1 32  1  0  0  0  0
  2  3  1  0  0  0  0
  2 33  1  0  0  0  0
  2 34  1  0  0  0  0
  3 28  1  0  0  0  0
  3 26  1  0  0  0  0
  3  4  1  0  0  0  0
  4  5  1  0  0  0  0
  5 29  1  0  0  0  0
  5  6  1  0  0  0  0
  5 24  1  0  0  0  0
  6 23  1  0  0  0  0
  6  7  1  0  0  0  0
  7  8  2  0  0  0  0
  7 35  1  0  0  0  0
  8  9  1  0  0  0  0
  9 23  2  0  0  0  0
  9 10  1  0  0  0  0
 10 11  1  0  0  0  0
 10 20  2  0  0  0  0
 11 19  1  0  0  0  0
 11 12  1  0  0  0  0
 12 13  1  0  0  0  0
 12 36  1  0  0  0  0
 12 37  1  0  0  0  0
 13 14  1  0  0  0  0
 13 38  1  0  0  0  0
 13 39  1  0  0  0  0
 14 19  2  0  0  0  0
 14 15  1  0  0  0  0
 15 16  2  0  0  0  0
 15 40  1  0  0  0  0
 16 17  1  0  0  0  0
 16 41  1  0  0  0  0
 17 18  2  0  0  0  0
 17 42  1  0  0  0  0
 18 19  1  0  0  0  0
 18 43  1  0  0  0  0
 20 21  1  0  0  0  0
 21 22  2  0  0  0  0
 21 44  1  0  0  0  0
 22 23  1  0  0  0  0
 24 30  1  0  0  0  0
 24 25  1  0  0  0  0
 24 26  1  0  0  0  0
 25 45  1  0  0  0  0
 26 31  1  0  0  0  0
 26 27  1  0  0  0  0
 27 46  1  0  0  0  0
M  END
> <s_m_source_file>
AV-unprocessed.smi

> <i_m_source_file_index>
110

> <i_lp_mmshare_version>
43012

> <i_f3d_flags>
0

> <s_epik_input>
W09IXVtDSDJdW0NASF0xT1tDQEhdKFtDQEhdKFtPSF0pW0NAQEhdMVtPSF0pbihbY0hdbjIpYyhjMjMpbltjSF1uYzNOKFtDSDJdW0NIMl00KWMoYzQ1KVtjSF1bY0hdW2NIXVtjSF01

> <s_epik_cmdline>
J2VwaWtfcHl0aG9uJywgJy1waCcsICc3LjAnLCAnLXRuJywgJzgnLCAnLW1hJywgJzIwMCcsICctbWV0YWxfYmluZGluZycsICctaW1hZScsICc8aW5maWxlLm1hZT4nLCAnLW9tYWUnLCAnPG91dGZpbGUubWFlPic=

> <r_lp_tautomer_probability>
1

> <r_epik_Ionization_Penalty>
0.00068475

> <r_epik_Ionization_Penalty_Charging>
0

> <r_epik_Ionization_Penalty_Neutral>
0.00068475

> <r_epik_State_Penalty>
0.000417442

> <r_epik_Charging_Adjusted_Penalty>
0.000417442

> <i_epik_Tot_Q>
0

> <i_epik_Tot_abs_Q>
0

> <r_epik_Metal_State_Penalty>
-0

> <b_epik_Metal_Only>
0

> <s_epik_Chemistry_Notes>
This compound contains an acetal/aminal-like group ( X-CH(R)-Y where X, Y are N, S, or O) that may be acid/base labile, releasing an aldehyde.

> <s_lp_Force_Field>
OPLS_2005

> <r_lp_Energy>
58.5768

> <b_lp_Chiralities_Consistent>
1

> <s_lp_Variant>
AV-unprocessed.smi:110-5

> <Gold.Version>
5.8.1

> <Gold.Id.Protein>
6NUR|6NUR_protein|mol2

> <Gold.PLP.Fitness>
61.0542

> <Gold.PLP.PLP>
-50.5886

> <Gold.PLP.part.hbond>
-2.8958

> <Gold.PLP.part.metal>
0.0000

> <Gold.PLP.part.buried>
-2.7860

> <Gold.PLP.part.nonpolar>
-45.9970

> <Gold.PLP.part.repulsive>
2.2166

> <Gold.PLP.ligand.clash>
0.0000

> <Gold.PLP.ligand.torsion>
0.2301

> <Gold.PLP.Chemscore.Hbond>
2.9417

> <Gold.PLP.Chemscore.CHOScore>
0.6798

> <Gold.PLP.Chemscore.Metal>
0.0000

> <Gold.Chemscore.Hbonds>
donor molecule, donor type, donor heavy atom, donor atom, acceptor molecule, acceptor atom, score
      L1  H    27    46       P1  7957  1.00
      P1  H  7989  7998       L1    22  0.90
      P1  H  7997  8010       L1    20  0.90
      L1  C     7    35       P1  8028  0.70

> <Gold.PLP.Chemscore.Internal.Correction>
0.0613

> <Gold.Rescore>
     Score         DG    S(hbond)    S(metal)    S(lipo)     H(rot)  DE(clash)    DE(int)     intcor
     11.42     -15.90       1.76        0.00     112.70       3.38       2.73       1.74       ----

> <Gold.Chemscore.Fitness>
11.4226

> <Gold.Chemscore.DG>
-15.8973

> <Gold.Chemscore.ZeroCoef>
-5.4800

> <Gold.Chemscore.Hbond>
1.7647

> <Gold.Chemscore.Metal>
0.0000

> <Gold.Chemscore.Lipo>
112.6953

> <Gold.Chemscore.Internal_Hbond>
0.0000

> <Gold.Chemscore.DEClash>
2.7347

> <Gold.Chemscore.DEInternal>
1.7400

> <Gold.Chemscore.Rot>
3.3837

> <Gold.Chemscore.Internal.Correction>
   9.000000E+99

> <Gold.Chemscore.Hbonds>
donor molecule, donor type, donor heavy atom, donor atom, acceptor molecule, acceptor atom, score
      L1  H    27    46       P1  7957  0.97
      P1  H  7989  7998       L1    22  0.18
      P1  H  7997  8010       L1    20  0.08

> <Gold.Chemscore.Hbond.Weighted>
-5.8941

> <Gold.Chemscore.Metal.Weighted>
-0.0000

> <Gold.Chemscore.Lipo.Weighted>
-13.1854

> <Gold.Chemscore.Internal_Hbond.Weighted>
0.0000

> <Gold.Chemscore.DEClash.Weighted>
2.7347

> <Gold.Chemscore.DEInternal.Weighted>
1.7400

> <Gold.Chemscore.Rot.Weighted>
8.6622

> <Gold.Chemscore.Internal.Correction.Weighted>
   9.000000E+99

> <Gold.Protein.RotatedTorsions>
[ 6907 6896 6895 6894 ] final   40.41 input  -60.11 | X-H torsion
[ 7974 7965 7964 7962 ] final   33.58 input  175.53 | X-H torsion
[ 8008 7997 7996 7995 ] final   72.88 input   59.86 | X-H torsion
[ 10167 10162 10161 10158 ] final   88.45 input  -65.29 | X-H torsion
[ 10718 10713 10712 10709 ] final  177.68 input   66.30 | X-H torsion
[ 10763 10752 10751 10750 ] final   70.71 input  -60.55 | X-H torsion
[ 11005 11000 10999 10996 ] final -153.62 input  -57.11 | X-H torsion

> <Gold.Protein.ActiveResidues>
 VAL166  LYS551  ARG553  GLY616  TRP617  ASP618  TYR619  PRO620  LYS621  CYS622 
 ASP623  PHE694  ASN695  SER759  ASP760  ASP761  ALA762  ILE779  LEU786  VAL792 
 PHE793  MET794  SER795  GLU796  ALA797  LYS798  CYS799  TRP800  GLU811  SER814 

> <Gold.Protein.RotatedAtoms>
  152.1821  134.8745  160.0525 H   0  0  0  0  0  0  0  0  0  0  0  0  # atno 6907 bound_to 6896
  151.9665  133.3707  159.4063 H   0  0  0  0  0  0  0  0  0  0  0  0  # atno 6908 bound_to 6896
  150.6919  134.4109  159.5205 H   0  0  0  0  0  0  0  0  0  0  0  0  # atno 6909 bound_to 6896
  146.1411  139.6379  142.9162 H   0  0  0  0  0  0  0  0  0  0  0  0  # atno 7974 bound_to 7965
  155.7754  140.3483  155.5269 H   0  0  0  0  0  0  0  0  0  0  0  0  # atno 8008 bound_to 7997
  155.8780  140.0997  157.1525 H   0  0  0  0  0  0  0  0  0  0  0  0  # atno 8009 bound_to 7997
  154.4022  140.1328  156.4148 H   0  0  0  0  0  0  0  0  0  0  0  0  # atno 8010 bound_to 7997
  139.8672  144.6512  150.8991 H   0  0  0  0  0  0  0  0  0  0  0  0  # atno 10167 bound_to 10162
  156.9018  130.9881  151.3034 H   0  0  0  0  0  0  0  0  0  0  0  0  # atno 10718 bound_to 10713
  153.0357  135.5164  154.7482 H   0  0  0  0  0  0  0  0  0  0  0  0  # atno 10763 bound_to 10752
  154.6461  135.2919  155.0047 H   0  0  0  0  0  0  0  0  0  0  0  0  # atno 10764 bound_to 10752
  154.0947  135.6645  153.4911 H   0  0  0  0  0  0  0  0  0  0  0  0  # atno 10765 bound_to 10752
  140.7061  134.3883  157.5204 H   0  0  0  0  0  0  0  0  0  0  0  0  # atno 11005 bound_to 11000
  145.5044  141.0437  143.2522 LP  0  0  0  0  0  0  0  0  0  0  0  0  # atno 17320 bound_to 7965
  144.7794  139.6560  143.7161 LP  0  0  0  0  0  0  0  0  0  0  0  0  # atno 17321 bound_to 7965
  140.7766  143.3694  151.1677 LP  0  0  0  0  0  0  0  0  0  0  0  0  # atno 17342 bound_to 10162
  139.7318  143.9061  152.3022 LP  0  0  0  0  0  0  0  0  0  0  0  0  # atno 17343 bound_to 10162
  157.6021  130.8520  149.8819 LP  0  0  0  0  0  0  0  0  0  0  0  0  # atno 17370 bound_to 10713
  156.0578  130.3705  150.1050 LP  0  0  0  0  0  0  0  0  0  0  0  0  # atno 17371 bound_to 10713
  139.8884  134.8858  156.2478 LP  0  0  0  0  0  0  0  0  0  0  0  0  # atno 17394 bound_to 11000
  141.0123  133.7088  156.1132 LP  0  0  0  0  0  0  0  0  0  0  0  0  # atno 17395 bound_to 11000

$$$$
