AV-unprocessed.smi:662|AV-procd|sdf|3244|dock8
  -GOLD-   22720 0193D 1   1.00000     0.00000
 Structure written by MMmdl.
 34 35  0  0  0  0  0  0  0  0  2 V2000
  150.6011  140.2794  154.4416 O   0  0  0  0  0  0  0  0  0  0  0  0
  150.3690  139.0826  154.6175 C   0  0  0  0  0  0  0  0  0  0  0  0
  151.3079  138.1979  154.9872 N   0  0  0  0  0  0  0  0  0  0  0  0
  152.7097  138.5219  155.2265 C   0  0  0  0  0  0  0  0  0  0  0  0
  153.3600  137.5284  156.2026 C   0  0  0  0  0  0  0  0  0  0  0  0
  153.3027  138.0008  157.6163 C   0  0  0  0  0  0  0  0  0  0  0  0
  153.9129  139.1083  158.0451 N   0  0  0  0  0  0  0  0  0  0  0  0
  153.7413  139.3256  159.4166 C   0  0  0  0  0  0  0  0  0  0  0  0
  154.3525  140.5359  160.0618 C   0  0  0  0  0  0  0  0  0  0  0  0
  155.6667  140.5964  159.8459 F   0  0  0  0  0  0  0  0  0  0  0  0
  153.8155  141.6581  159.5838 F   0  0  0  0  0  0  0  0  0  0  0  0
  154.1631  140.5243  161.3809 F   0  0  0  0  0  0  0  0  0  0  0  0
  152.9960  138.3450  160.0256 C   0  0  0  0  0  0  0  0  0  0  0  0
  152.4853  137.1178  158.8992 S   0  0  0  0  0  0  0  0  0  0  0  0
  148.9500  138.5326  154.4338 C   0  0  1  0  0  0  0  0  0  0  0  0
  147.9278  139.3617  155.2229 C   0  0  0  0  0  0  0  0  0  0  0  0
  146.6360  139.1542  154.4466 C   0  0  0  0  0  0  0  0  0  0  0  0
  147.1000  139.0405  152.9934 C   0  0  0  0  0  0  0  0  0  0  0  0
  148.5120  138.6046  153.0225 N   0  3  0  0  0  0  0  0  0  0  0  0
  151.0349  137.2339  155.1159 H   0  0  0  0  0  0  0  0  0  0  0  0
  153.2332  138.4996  154.2702 H   0  0  0  0  0  0  0  0  0  0  0  0
  152.7982  139.5425  155.6036 H   0  0  0  0  0  0  0  0  0  0  0  0
  152.8666  136.5572  156.1426 H   0  0  0  0  0  0  0  0  0  0  0  0
  154.4038  137.3642  155.9330 H   0  0  0  0  0  0  0  0  0  0  0  0
  152.7197  138.2701  161.0669 H   0  0  0  0  0  0  0  0  0  0  0  0
  148.9055  137.4878  154.7454 H   0  0  0  0  0  0  0  0  0  0  0  0
  147.8432  139.0465  156.2635 H   0  0  0  0  0  0  0  0  0  0  0  0
  148.1886  140.4219  155.2149 H   0  0  0  0  0  0  0  0  0  0  0  0
  146.1704  138.2179  154.7578 H   0  0  0  0  0  0  0  0  0  0  0  0
  145.9121  139.9549  154.6005 H   0  0  0  0  0  0  0  0  0  0  0  0
  146.4845  138.3450  152.4222 H   0  0  0  0  0  0  0  0  0  0  0  0
  147.0523  140.0124  152.5010 H   0  0  0  0  0  0  0  0  0  0  0  0
  149.0754  139.2948  152.5455 H   0  0  0  0  0  0  0  0  0  0  0  0
  148.6240  137.7040  152.5797 H   0  0  0  0  0  0  0  0  0  0  0  0
  1  2  2  0  0  0  0
  2  3  1  0  0  0  0
  2 15  1  0  0  0  0
  3  4  1  0  0  0  0
  3 20  1  0  0  0  0
  4  5  1  0  0  0  0
  4 21  1  0  0  0  0
  4 22  1  0  0  0  0
  5  6  1  0  0  0  0
  5 23  1  0  0  0  0
  5 24  1  0  0  0  0
  6 14  1  0  0  0  0
  6  7  2  0  0  0  0
  7  8  1  0  0  0  0
  8  9  1  0  0  0  0
  8 13  2  0  0  0  0
  9 10  1  0  0  0  0
  9 11  1  0  0  0  0
  9 12  1  0  0  0  0
 13 14  1  0  0  0  0
 13 25  1  0  0  0  0
 15 19  1  0  0  0  0
 15 16  1  0  0  0  0
 15 26  1  0  0  0  0
 16 17  1  0  0  0  0
 16 27  1  0  0  0  0
 16 28  1  0  0  0  0
 17 18  1  0  0  0  0
 17 29  1  0  0  0  0
 17 30  1  0  0  0  0
 18 19  1  0  0  0  0
 18 31  1  0  0  0  0
 18 32  1  0  0  0  0
 19 33  1  0  0  0  0
 19 34  1  0  0  0  0
M  CHG  1  19   1
M  END
> <s_m_source_file>
AV-unprocessed.smi

> <i_m_source_file_index>
662

> <i_lp_mmshare_version>
43012

> <i_f3d_flags>
0

> <s_epik_input>
W05IXTFbQ0gyXVtDSDJdW0NIMl1bQ0BIXTFDKD1PKVtOSF1bQ0gyXVtDSDJdYzJuYyhDKEYpKEYpRilbY0hdczI=

> <s_epik_cmdline>
J2VwaWtfcHl0aG9uJywgJy1waCcsICc3LjAnLCAnLXRuJywgJzgnLCAnLW1hJywgJzIwMCcsICctbWV0YWxfYmluZGluZycsICctaW1hZScsICc8aW5maWxlLm1hZT4nLCAnLW9tYWUnLCAnPG91dGZpbGUubWFlPic=

> <r_epik_Ionization_Penalty>
0.0382401

> <r_epik_Ionization_Penalty_Charging>
0.0382382

> <r_epik_Ionization_Penalty_Neutral>
1.85239e-06

> <r_epik_State_Penalty>
0.0320549

> <r_epik_Charging_Adjusted_Penalty>
0.0702931

> <i_epik_Tot_Q>
1

> <i_epik_Tot_abs_Q>
1

> <r_epik_Metal_State_Penalty>
0.0320549

> <b_epik_Metal_Only>
0

> <s_lp_Force_Field>
OPLS_2005

> <r_lp_Energy>
5.09297

> <b_lp_Chiralities_Consistent>
1

> <s_lp_Variant>
AV-unprocessed.smi:662-2

> <Gold.Version>
5.8.1

> <Gold.Id.Protein>
6NUR|6NUR_protein|mol2

> <Gold.PLP.Fitness>
46.1081

> <Gold.PLP.PLP>
-32.4700

> <Gold.PLP.part.hbond>
-3.4611

> <Gold.PLP.part.metal>
0.0000

> <Gold.PLP.part.buried>
-2.8940

> <Gold.PLP.part.nonpolar>
-25.0995

> <Gold.PLP.part.repulsive>
0.3065

> <Gold.PLP.ligand.clash>
0.0000

> <Gold.PLP.ligand.torsion>
0.5742

> <Gold.PLP.Chemscore.Hbond>
4.9200

> <Gold.PLP.Chemscore.CHOScore>
0.0000

> <Gold.PLP.Chemscore.Metal>
0.0000

> <Gold.Chemscore.Hbonds>
donor molecule, donor type, donor heavy atom, donor atom, acceptor molecule, acceptor atom, score
      L1  H    19    33       P1  7957  1.00
      L1  H    19    34       P1  7948  2.00
      P1  H  7989  7998       L1     1  0.96
      P1  H  7997  8008       L1     7  1.00

> <Gold.PLP.Chemscore.Internal.Correction>
0.0266

> <Gold.Rescore>
     Score         DG    S(hbond)    S(metal)    S(lipo)     H(rot)  DE(clash)    DE(int)     intcor
     20.06     -20.46       3.89        0.00      60.09       1.97       0.00       0.40       ----

> <Gold.Chemscore.Fitness>
20.0580

> <Gold.Chemscore.DG>
-20.4581

> <Gold.Chemscore.ZeroCoef>
-5.4800

> <Gold.Chemscore.Hbond>
3.8891

> <Gold.Chemscore.Metal>
0.0000

> <Gold.Chemscore.Lipo>
60.0927

> <Gold.Chemscore.Internal_Hbond>
0.0000

> <Gold.Chemscore.DEClash>
0.0013

> <Gold.Chemscore.DEInternal>
0.3988

> <Gold.Chemscore.Rot>
1.9697

> <Gold.Chemscore.Internal.Correction>
   9.000000E+99

> <Gold.Chemscore.Hbonds>
donor molecule, donor type, donor heavy atom, donor atom, acceptor molecule, acceptor atom, score
      L1  H    19    33       P1  7957  0.95
      L1  H    19    34       P1  7948  1.00
      P1  H  7989  7998       L1     1  0.91
      P1  H  7997  8008       L1     7  0.92

> <Gold.Chemscore.Hbond.Weighted>
-12.9897

> <Gold.Chemscore.Metal.Weighted>
-0.0000

> <Gold.Chemscore.Lipo.Weighted>
-7.0308

> <Gold.Chemscore.Internal_Hbond.Weighted>
0.0000

> <Gold.Chemscore.DEClash.Weighted>
0.0013

> <Gold.Chemscore.DEInternal.Weighted>
0.3988

> <Gold.Chemscore.Rot.Weighted>
5.0424

> <Gold.Chemscore.Internal.Correction.Weighted>
   9.000000E+99

> <Gold.Protein.RotatedTorsions>
[ 6907 6896 6895 6894 ] final  152.74 input  -60.11 | X-H torsion
[ 7974 7965 7964 7962 ] final  -30.13 input  175.53 | X-H torsion
[ 8008 7997 7996 7995 ] final -110.59 input   59.86 | X-H torsion
[ 10167 10162 10161 10158 ] final -123.25 input  -65.29 | X-H torsion
[ 10718 10713 10712 10709 ] final -128.74 input   66.30 | X-H torsion
[ 10763 10752 10751 10750 ] final   -2.53 input  -60.55 | X-H torsion
[ 11005 11000 10999 10996 ] final  146.68 input  -57.11 | X-H torsion

> <Gold.Protein.ActiveResidues>
 VAL166  LYS551  ARG553  GLY616  TRP617  ASP618  TYR619  PRO620  LYS621  CYS622 
 ASP623  PHE694  ASN695  SER759  ASP760  ASP761  ALA762  ILE779  LEU786  VAL792 
 PHE793  MET794  SER795  GLU796  ALA797  LYS798  CYS799  TRP800  GLU811  SER814 

> <Gold.Protein.RotatedAtoms>
  152.0825  133.4160  159.4507 H   0  0  0  0  0  0  0  0  0  0  0  0  # atno 6907 bound_to 6896
  150.6862  134.2965  159.4698 H   0  0  0  0  0  0  0  0  0  0  0  0  # atno 6908 bound_to 6896
  152.0808  134.9471  160.0624 H   0  0  0  0  0  0  0  0  0  0  0  0  # atno 6909 bound_to 6896
  146.1166  140.5501  142.8754 H   0  0  0  0  0  0  0  0  0  0  0  0  # atno 7974 bound_to 7965
  154.9769  140.0397  157.2260 H   0  0  0  0  0  0  0  0  0  0  0  0  # atno 8008 bound_to 7997
  154.7750  140.2808  155.6086 H   0  0  0  0  0  0  0  0  0  0  0  0  # atno 8009 bound_to 7997
  156.2927  140.2602  156.2561 H   0  0  0  0  0  0  0  0  0  0  0  0  # atno 8010 bound_to 7997
  140.0055  143.5496  152.2285 H   0  0  0  0  0  0  0  0  0  0  0  0  # atno 10167 bound_to 10162
  156.1980  130.6839  151.0505 H   0  0  0  0  0  0  0  0  0  0  0  0  # atno 10718 bound_to 10713
  153.3593  135.6989  153.6725 H   0  0  0  0  0  0  0  0  0  0  0  0  # atno 10763 bound_to 10752
  153.5420  135.3571  155.2723 H   0  0  0  0  0  0  0  0  0  0  0  0  # atno 10764 bound_to 10752
  154.8665  135.4206  154.2846 H   0  0  0  0  0  0  0  0  0  0  0  0  # atno 10765 bound_to 10752
  140.0813  134.9095  157.1505 H   0  0  0  0  0  0  0  0  0  0  0  0  # atno 11005 bound_to 11000
  144.7558  140.5304  143.6770 LP  0  0  0  0  0  0  0  0  0  0  0  0  # atno 17320 bound_to 7965
  145.5555  139.1478  143.3370 LP  0  0  0  0  0  0  0  0  0  0  0  0  # atno 17321 bound_to 7965
  139.6241  144.7634  151.2676 LP  0  0  0  0  0  0  0  0  0  0  0  0  # atno 17342 bound_to 10162
  140.7402  143.6595  150.8177 LP  0  0  0  0  0  0  0  0  0  0  0  0  # atno 17343 bound_to 10162
  157.6969  131.0790  150.6941 LP  0  0  0  0  0  0  0  0  0  0  0  0  # atno 17370 bound_to 10713
  156.6998  130.4620  149.5576 LP  0  0  0  0  0  0  0  0  0  0  0  0  # atno 17371 bound_to 10713
  140.3483  134.2627  155.7202 LP  0  0  0  0  0  0  0  0  0  0  0  0  # atno 17394 bound_to 11000
  141.2048  133.7878  157.0269 LP  0  0  0  0  0  0  0  0  0  0  0  0  # atno 17395 bound_to 11000

$$$$
