AV-unprocessed.smi:1126|AV-procd|sdf|4839|dock3
  -GOLD-   22720 3403D 1   1.00000     0.00000
 Structure written by MMmdl.
 47 48  0  0  0  0  0  0  0  0  1 V2000
  154.0761  132.1359  156.5841 C   0  0  0  0  0  0  0  0  0  0  0  0
  152.9551  131.5779  157.2465 O   0  0  0  0  0  0  0  0  0  0  0  0
  152.3359  130.5476  156.4936 C   0  0  0  0  0  0  0  0  0  0  0  0
  151.7739  131.1107  155.1772 C   0  0  0  0  0  0  0  0  0  0  0  0
  150.6471  132.0368  155.3100 N   0  0  0  0  0  0  0  0  0  0  0  0
  150.0230  132.3553  154.0230 C   0  0  0  0  0  0  0  0  0  0  0  0
  148.8176  133.3015  154.1631 C   0  0  0  0  0  0  0  0  0  0  0  0
  149.2178  134.6071  154.8808 C   0  0  0  0  0  0  0  0  0  0  0  0
  148.0250  135.5520  155.1156 C   0  0  0  0  0  0  0  0  0  0  0  0
  147.3856  135.9261  153.8613 N   0  0  0  0  0  0  0  0  0  0  0  0
  146.0819  136.2075  153.7255 C   0  0  0  0  0  0  0  0  0  0  0  0
  145.2847  136.1989  154.6631 O   0  0  0  0  0  0  0  0  0  0  0  0
  145.6023  136.5512  152.3148 C   0  0  0  0  0  0  0  0  0  0  0  0
  145.2351  135.3533  151.5809 N   0  0  0  0  0  0  0  0  0  0  0  0
  146.0575  134.3487  151.1158 C   0  0  0  0  0  0  0  0  0  0  0  0
  145.2689  133.4338  150.4773 C   0  0  0  0  0  0  0  0  0  0  0  0
  145.6728  132.1573  149.7977 C   0  0  0  0  0  0  0  0  0  0  0  0
  143.9596  133.9778  150.6073 C   0  0  0  0  0  0  0  0  0  0  0  0
  143.9414  135.1245  151.2672 N   0  0  0  0  0  0  0  0  0  0  0  0
  149.9190  134.2531  156.2045 C   0  0  0  0  0  0  0  0  0  0  0  0
  151.0778  133.2715  155.9659 C   0  0  0  0  0  0  0  0  0  0  0  0
  154.5063  132.9280  157.1967 H   0  0  0  0  0  0  0  0  0  0  0  0
  153.7913  132.5694  155.6246 H   0  0  0  0  0  0  0  0  0  0  0  0
  154.8481  131.3842  156.4138 H   0  0  0  0  0  0  0  0  0  0  0  0
  153.0357  129.7344  156.2934 H   0  0  0  0  0  0  0  0  0  0  0  0
  151.5165  130.1306  157.0812 H   0  0  0  0  0  0  0  0  0  0  0  0
  152.5921  131.6444  154.6925 H   0  0  0  0  0  0  0  0  0  0  0  0
  151.5160  130.2921  154.5037 H   0  0  0  0  0  0  0  0  0  0  0  0
  150.7609  132.7989  153.3527 H   0  0  0  0  0  0  0  0  0  0  0  0
  149.6731  131.4438  153.5409 H   0  0  0  0  0  0  0  0  0  0  0  0
  148.4116  133.5161  153.1742 H   0  0  0  0  0  0  0  0  0  0  0  0
  148.0255  132.8000  154.7208 H   0  0  0  0  0  0  0  0  0  0  0  0
  149.9409  135.1287  154.2514 H   0  0  0  0  0  0  0  0  0  0  0  0
  147.2889  135.0754  155.7649 H   0  0  0  0  0  0  0  0  0  0  0  0
  148.3630  136.4553  155.6261 H   0  0  0  0  0  0  0  0  0  0  0  0
  147.9684  135.9521  153.0367 H   0  0  0  0  0  0  0  0  0  0  0  0
  144.7345  137.2101  152.3655 H   0  0  0  0  0  0  0  0  0  0  0  0
  146.3823  137.0890  151.7730 H   0  0  0  0  0  0  0  0  0  0  0  0
  147.1257  134.3699  151.2751 H   0  0  0  0  0  0  0  0  0  0  0  0
  145.1281  132.0073  148.8654 H   0  0  0  0  0  0  0  0  0  0  0  0
  145.4780  131.2893  150.4275 H   0  0  0  0  0  0  0  0  0  0  0  0
  146.7354  132.1457  149.5538 H   0  0  0  0  0  0  0  0  0  0  0  0
  143.0260  133.5749  150.2431 H   0  0  0  0  0  0  0  0  0  0  0  0
  150.2963  135.1571  156.6836 H   0  0  0  0  0  0  0  0  0  0  0  0
  149.2038  133.8090  156.8984 H   0  0  0  0  0  0  0  0  0  0  0  0
  151.5367  133.0355  156.9268 H   0  0  0  0  0  0  0  0  0  0  0  0
  151.8500  133.7586  155.3681 H   0  0  0  0  0  0  0  0  0  0  0  0
  1  2  1  0  0  0  0
  1 22  1  0  0  0  0
  1 23  1  0  0  0  0
  1 24  1  0  0  0  0
  2  3  1  0  0  0  0
  3  4  1  0  0  0  0
  3 25  1  0  0  0  0
  3 26  1  0  0  0  0
  4  5  1  0  0  0  0
  4 27  1  0  0  0  0
  4 28  1  0  0  0  0
  5 21  1  0  0  0  0
  5  6  1  0  0  0  0
  6  7  1  0  0  0  0
  6 29  1  0  0  0  0
  6 30  1  0  0  0  0
  7  8  1  0  0  0  0
  7 31  1  0  0  0  0
  7 32  1  0  0  0  0
  8  9  1  0  0  0  0
  8 20  1  0  0  0  0
  8 33  1  0  0  0  0
  9 10  1  0  0  0  0
  9 34  1  0  0  0  0
  9 35  1  0  0  0  0
 10 11  1  0  0  0  0
 10 36  1  0  0  0  0
 11 12  2  0  0  0  0
 11 13  1  0  0  0  0
 13 14  1  0  0  0  0
 13 37  1  0  0  0  0
 13 38  1  0  0  0  0
 14 19  1  0  0  0  0
 14 15  1  0  0  0  0
 15 16  2  0  0  0  0
 15 39  1  0  0  0  0
 16 17  1  0  0  0  0
 16 18  1  0  0  0  0
 17 40  1  0  0  0  0
 17 41  1  0  0  0  0
 17 42  1  0  0  0  0
 18 19  2  0  0  0  0
 18 43  1  0  0  0  0
 20 21  1  0  0  0  0
 20 44  1  0  0  0  0
 20 45  1  0  0  0  0
 21 46  1  0  0  0  0
 21 47  1  0  0  0  0
M  END
> <s_m_source_file>
AV-unprocessed.smi

> <i_m_source_file_index>
1126

> <i_lp_mmshare_version>
43012

> <i_f3d_flags>
0

> <s_epik_input>
W0NIM11PW0NIMl1bQ0gyXU4xW0NIMl1bQ0gyXVtDSF0oW0NIMl1bQ0gyXTEpW0NIMl1bTkhdQyg9TylbQ0gyXW4yW2NIXWMoW0NIM10pW2NIXW4y

> <s_epik_cmdline>
J2VwaWtfcHl0aG9uJywgJy1waCcsICc3LjAnLCAnLXRuJywgJzgnLCAnLW1hJywgJzIwMCcsICctbWV0YWxfYmluZGluZycsICctaW1hZScsICc8aW5maWxlLm1hZT4nLCAnLW9tYWUnLCAnPG91dGZpbGUubWFlPic=

> <r_lp_tautomer_probability>
1

> <r_epik_Ionization_Penalty>
2.42913

> <r_epik_Ionization_Penalty_Charging>
0

> <r_epik_Ionization_Penalty_Neutral>
2.42913

> <r_epik_State_Penalty>
2.58903

> <r_epik_Charging_Adjusted_Penalty>
2.58903

> <i_epik_Tot_Q>
0

> <i_epik_Tot_abs_Q>
0

> <r_epik_Metal_State_Penalty>
2.58902

> <b_epik_Metal_Only>
0

> <s_lp_Force_Field>
OPLS_2005

> <r_lp_Energy>
26.3674

> <b_lp_Chiralities_Consistent>
1

> <s_lp_Variant>
AV-unprocessed.smi:1126-3

> <Gold.Version>
5.8.1

> <Gold.Id.Protein>
6NUR|6NUR_protein|mol2

> <Gold.PLP.Fitness>
41.3100

> <Gold.PLP.PLP>
-30.5376

> <Gold.PLP.part.hbond>
-2.0000

> <Gold.PLP.part.metal>
0.0000

> <Gold.PLP.part.buried>
-5.0553

> <Gold.PLP.part.nonpolar>
-24.6078

> <Gold.PLP.part.repulsive>
0.2568

> <Gold.PLP.ligand.clash>
0.0000

> <Gold.PLP.ligand.torsion>
0.6828

> <Gold.PLP.Chemscore.Hbond>
2.0000

> <Gold.PLP.Chemscore.CHOScore>
2.0000

> <Gold.PLP.Chemscore.Metal>
0.0000

> <Gold.Chemscore.Hbonds>
donor molecule, donor type, donor heavy atom, donor atom, acceptor molecule, acceptor atom, score
      L1  H    10    36       P1  7948  1.00
      L1  C    15    39       P1  7948  0.80
      L1  C    18    43       P1 10186  1.00

> <Gold.PLP.Chemscore.Internal.Correction>
0.1380

> <Gold.Rescore>
     Score         DG    S(hbond)    S(metal)    S(lipo)     H(rot)  DE(clash)    DE(int)     intcor
     14.76     -15.80       1.95        0.00      76.77       2.03       0.01       1.03       ----

> <Gold.Chemscore.Fitness>
14.7615

> <Gold.Chemscore.DG>
-15.7982

> <Gold.Chemscore.ZeroCoef>
-5.4800

> <Gold.Chemscore.Hbond>
1.9531

> <Gold.Chemscore.Metal>
0.0000

> <Gold.Chemscore.Lipo>
76.7709

> <Gold.Chemscore.Internal_Hbond>
0.0000

> <Gold.Chemscore.DEClash>
0.0091

> <Gold.Chemscore.DEInternal>
1.0276

> <Gold.Chemscore.Rot>
2.0263

> <Gold.Chemscore.Internal.Correction>
   9.000000E+99

> <Gold.Chemscore.Hbonds>
donor molecule, donor type, donor heavy atom, donor atom, acceptor molecule, acceptor atom, score
      L1  H    10    36       P1  7948  0.95

> <Gold.Chemscore.Hbond.Weighted>
-6.5233

> <Gold.Chemscore.Metal.Weighted>
-0.0000

> <Gold.Chemscore.Lipo.Weighted>
-8.9822

> <Gold.Chemscore.Internal_Hbond.Weighted>
0.0000

> <Gold.Chemscore.DEClash.Weighted>
0.0091

> <Gold.Chemscore.DEInternal.Weighted>
1.0276

> <Gold.Chemscore.Rot.Weighted>
5.1872

> <Gold.Chemscore.Internal.Correction.Weighted>
   9.000000E+99

> <Gold.Protein.RotatedTorsions>
[ 6907 6896 6895 6894 ] final  -63.06 input  -60.11 | X-H torsion
[ 7974 7965 7964 7962 ] final  137.26 input  175.53 | X-H torsion
[ 8008 7997 7996 7995 ] final  -68.12 input   59.86 | X-H torsion
[ 10167 10162 10161 10158 ] final  -46.86 input  -65.29 | X-H torsion
[ 10718 10713 10712 10709 ] final   48.27 input   66.30 | X-H torsion
[ 10763 10752 10751 10750 ] final -100.07 input  -60.55 | X-H torsion
[ 11005 11000 10999 10996 ] final   80.76 input  -57.11 | X-H torsion

> <Gold.Protein.ActiveResidues>
 VAL166  LYS551  ARG553  GLY616  TRP617  ASP618  TYR619  PRO620  LYS621  CYS622 
 ASP623  PHE694  ASN695  SER759  ASP760  ASP761  ALA762  ILE779  LEU786  VAL792 
 PHE793  MET794  SER795  GLU796  ALA797  LYS798  CYS799  TRP800  GLU811  SER814 

> <Gold.Protein.RotatedAtoms>
  150.7674  134.6487  159.6275 H   0  0  0  0  0  0  0  0  0  0  0  0  # atno 6907 bound_to 6896
  152.3712  134.6728  160.0184 H   0  0  0  0  0  0  0  0  0  0  0  0  # atno 6908 bound_to 6896
  151.7087  133.3275  159.3321 H   0  0  0  0  0  0  0  0  0  0  0  0  # atno 6909 bound_to 6896
  144.9485  139.4846  143.5537 H   0  0  0  0  0  0  0  0  0  0  0  0  # atno 7974 bound_to 7965
  154.4846  140.0879  156.7457 H   0  0  0  0  0  0  0  0  0  0  0  0  # atno 8008 bound_to 7997
  155.4382  140.3452  155.4269 H   0  0  0  0  0  0  0  0  0  0  0  0  # atno 8009 bound_to 7997
  156.1242  140.1483  156.9148 H   0  0  0  0  0  0  0  0  0  0  0  0  # atno 8010 bound_to 7997
  140.6800  143.2811  151.3843 H   0  0  0  0  0  0  0  0  0  0  0  0  # atno 10167 bound_to 10162
  157.4669  130.8231  149.7946 H   0  0  0  0  0  0  0  0  0  0  0  0  # atno 10718 bound_to 10713
  154.7550  135.4948  153.9357 H   0  0  0  0  0  0  0  0  0  0  0  0  # atno 10763 bound_to 10752
  153.1185  135.6726  153.9384 H   0  0  0  0  0  0  0  0  0  0  0  0  # atno 10764 bound_to 10752
  153.9122  135.3097  155.3427 H   0  0  0  0  0  0  0  0  0  0  0  0  # atno 10765 bound_to 10752
  139.9122  134.7945  156.1952 H   0  0  0  0  0  0  0  0  0  0  0  0  # atno 11005 bound_to 11000
  146.3312  139.8554  142.8865 LP  0  0  0  0  0  0  0  0  0  0  0  0  # atno 17320 bound_to 7965
  145.2881  141.0159  143.3679 LP  0  0  0  0  0  0  0  0  0  0  0  0  # atno 17321 bound_to 7965
  139.6116  144.1088  152.2304 LP  0  0  0  0  0  0  0  0  0  0  0  0  # atno 17342 bound_to 10162
  140.0503  144.5937  150.7341 LP  0  0  0  0  0  0  0  0  0  0  0  0  # atno 17343 bound_to 10162
  156.0055  130.3858  150.2448 LP  0  0  0  0  0  0  0  0  0  0  0  0  # atno 17370 bound_to 10713
  157.0629  131.0095  151.3216 LP  0  0  0  0  0  0  0  0  0  0  0  0  # atno 17371 bound_to 10713
  141.0559  133.6865  156.1859 LP  0  0  0  0  0  0  0  0  0  0  0  0  # atno 17394 bound_to 11000
  140.6738  134.4840  157.5588 LP  0  0  0  0  0  0  0  0  0  0  0  0  # atno 17395 bound_to 11000

$$$$
