AV-unprocessed.smi:2124|AV-procd|sdf|8671|dock9
  -GOLD-   2272011423D 1   1.00000     0.00000
 Structure written by MMmdl.
 46 48  0  0  0  0  0  0  0  0  2 V2000
  149.6834  134.3280  155.2195 C   0  0  0  0  0  0  0  0  0  0  0  0
  150.2069  135.3390  156.2170 C   0  0  0  0  0  0  0  0  0  0  0  0
  149.4271  135.7770  157.1309 N   0  0  0  0  0  0  0  0  0  0  0  0
  149.9107  136.7105  158.0636 C   0  0  0  0  0  0  0  0  0  0  0  0
  148.9184  137.1729  159.1166 C   0  0  0  0  0  0  0  0  0  0  0  0
  151.1979  137.1583  158.0108 C   0  0  0  0  0  0  0  0  0  0  0  0
  151.7760  138.1654  159.0051 C   0  0  0  0  0  0  0  0  0  0  0  0
  152.2757  139.4891  158.4213 C   0  0  0  0  0  0  0  0  0  0  0  0
  153.4799  139.7411  158.3760 O   0  0  0  0  0  0  0  0  0  0  0  0
  151.3222  140.3204  157.9678 N   0  0  0  0  0  0  0  0  0  0  0  0
  151.5064  141.6269  157.3297 C   0  0  1  0  0  0  0  0  0  0  0  0
  150.6705  141.7265  156.0383 C   0  0  0  0  0  0  0  0  0  0  0  0
  151.2543  142.8073  158.3071 C   0  0  2  0  0  0  0  0  0  0  0  0
  151.4455  144.1995  157.6573 C   0  0  0  0  0  0  0  0  0  0  0  0
  152.4404  144.8977  158.6012 C   0  0  1  0  0  0  0  0  0  0  0  0
  151.7527  145.1991  159.9454 C   0  0  0  0  0  0  0  0  0  0  0  0
  151.6373  143.8034  160.5859 C   0  0  0  0  0  0  0  0  0  0  0  0
  152.2366  142.8835  159.5053 C   0  0  2  0  0  0  0  0  0  0  0  0
  153.3708  143.7496  158.9672 C   0  0  0  0  0  0  0  0  0  0  0  0
  152.0607  136.6369  156.9360 C   0  0  0  0  0  0  0  0  0  0  0  0
  153.2243  137.0234  156.8314 O   0  0  0  0  0  0  0  0  0  0  0  0
  151.5202  135.7274  156.0759 N   0  5  0  0  0  0  0  0  0  0  0  0
  148.5941  134.2770  155.2475 H   0  0  0  0  0  0  0  0  0  0  0  0
  150.0799  133.3380  155.4461 H   0  0  0  0  0  0  0  0  0  0  0  0
  149.9847  134.5976  154.2066 H   0  0  0  0  0  0  0  0  0  0  0  0
  149.2311  136.8406  160.1064 H   0  0  0  0  0  0  0  0  0  0  0  0
  147.9237  136.7685  158.9257 H   0  0  0  0  0  0  0  0  0  0  0  0
  148.8404  138.2601  159.1229 H   0  0  0  0  0  0  0  0  0  0  0  0
  151.0081  138.3976  159.7433 H   0  0  0  0  0  0  0  0  0  0  0  0
  152.5839  137.7124  159.5807 H   0  0  0  0  0  0  0  0  0  0  0  0
  150.3665  140.0090  158.0626 H   0  0  0  0  0  0  0  0  0  0  0  0
  152.5559  141.6497  157.0358 H   0  0  0  0  0  0  0  0  0  0  0  0
  150.9146  142.6258  155.4734 H   0  0  0  0  0  0  0  0  0  0  0  0
  149.6012  141.7559  156.2484 H   0  0  0  0  0  0  0  0  0  0  0  0
  150.8570  140.8742  155.3843 H   0  0  0  0  0  0  0  0  0  0  0  0
  150.2337  142.7289  158.6837 H   0  0  0  0  0  0  0  0  0  0  0  0
  151.8791  144.1209  156.6597 H   0  0  0  0  0  0  0  0  0  0  0  0
  150.5064  144.7462  157.5652 H   0  0  0  0  0  0  0  0  0  0  0  0
  152.9304  145.7639  158.1556 H   0  0  0  0  0  0  0  0  0  0  0  0
  152.3695  145.8542  160.5616 H   0  0  0  0  0  0  0  0  0  0  0  0
  150.7819  145.6781  159.8130 H   0  0  0  0  0  0  0  0  0  0  0  0
  152.2256  143.7540  161.5031 H   0  0  0  0  0  0  0  0  0  0  0  0
  150.6090  143.5405  160.8368 H   0  0  0  0  0  0  0  0  0  0  0  0
  152.5487  141.9179  159.9034 H   0  0  0  0  0  0  0  0  0  0  0  0
  153.8829  143.3147  158.1077 H   0  0  0  0  0  0  0  0  0  0  0  0
  154.1094  144.0165  159.7255 H   0  0  0  0  0  0  0  0  0  0  0  0
  1  2  1  0  0  0  0
  1 23  1  0  0  0  0
  1 24  1  0  0  0  0
  1 25  1  0  0  0  0
  2 22  1  0  0  0  0
  2  3  2  0  0  0  0
  3  4  1  0  0  0  0
  4  5  1  0  0  0  0
  4  6  2  0  0  0  0
  5 26  1  0  0  0  0
  5 27  1  0  0  0  0
  5 28  1  0  0  0  0
  6  7  1  0  0  0  0
  6 20  1  0  0  0  0
  7  8  1  0  0  0  0
  7 29  1  0  0  0  0
  7 30  1  0  0  0  0
  8  9  2  0  0  0  0
  8 10  1  0  0  0  0
 10 11  1  0  0  0  0
 10 31  1  0  0  0  0
 11 12  1  0  0  0  0
 11 13  1  0  0  0  0
 11 32  1  0  0  0  0
 12 33  1  0  0  0  0
 12 34  1  0  0  0  0
 12 35  1  0  0  0  0
 13 18  1  0  0  0  0
 13 14  1  0  0  0  0
 13 36  1  0  0  0  0
 14 15  1  0  0  0  0
 14 37  1  0  0  0  0
 14 38  1  0  0  0  0
 15 19  1  0  0  0  0
 15 16  1  0  0  0  0
 15 39  1  0  0  0  0
 16 17  1  0  0  0  0
 16 40  1  0  0  0  0
 16 41  1  0  0  0  0
 17 18  1  0  0  0  0
 17 42  1  0  0  0  0
 17 43  1  0  0  0  0
 18 19  1  0  0  0  0
 18 44  1  0  0  0  0
 19 45  1  0  0  0  0
 19 46  1  0  0  0  0
 20 21  2  0  0  0  0
 20 22  1  0  0  0  0
M  CHG  1  22  -1
M  END
> <s_m_source_file>
AV-unprocessed.smi

> <i_m_source_file_index>
2124

> <i_lp_mmshare_version>
43012

> <i_f3d_flags>
0

> <s_epik_input>
W0NIM11jMW5jKFtDSDNdKWMoYyg9TylbbkhdMSlbQ0gyXUMoPU8pW05IXVtDQEhdKFtDSDNdKVtDQEhdKFtDSDJdW0NASF0yMylbQ0BIXShbQ0gyXTMpW0NIMl1bQ0gyXTI=

> <s_epik_cmdline>
J2VwaWtfcHl0aG9uJywgJy1waCcsICc3LjAnLCAnLXRuJywgJzgnLCAnLW1hJywgJzIwMCcsICctbWV0YWxfYmluZGluZycsICctaW1hZScsICc8aW5maWxlLm1hZT4nLCAnLW9tYWUnLCAnPG91dGZpbGUubWFlPic=

> <r_lp_tautomer_probability>
0.839158

> <r_epik_Ionization_Penalty>
6.63797

> <r_epik_Ionization_Penalty_Charging>
7.48558e-08

> <r_epik_Ionization_Penalty_Neutral>
6.63797

> <r_epik_State_Penalty>
4.49496

> <r_epik_Charging_Adjusted_Penalty>
4.49496

> <i_epik_Tot_Q>
-1

> <i_epik_Tot_abs_Q>
1

> <r_epik_Metal_State_Penalty>
0.841241

> <b_epik_Metal_Only>
1

> <s_lp_Force_Field>
OPLS_2005

> <r_lp_Energy>
55.5878

> <b_lp_Chiralities_Consistent>
1

> <s_lp_Variant>
AV-unprocessed.smi:2124-22

> <Gold.Version>
5.8.1

> <Gold.Id.Protein>
6NUR|6NUR_protein|mol2

> <Gold.PLP.Fitness>
51.8559

> <Gold.PLP.PLP>
-43.4498

> <Gold.PLP.part.hbond>
-2.7264

> <Gold.PLP.part.metal>
0.0000

> <Gold.PLP.part.buried>
-5.6331

> <Gold.PLP.part.nonpolar>
-33.9894

> <Gold.PLP.part.repulsive>
0.1054

> <Gold.PLP.ligand.clash>
0.0000

> <Gold.PLP.ligand.torsion>
0.3313

> <Gold.PLP.Chemscore.Hbond>
3.0000

> <Gold.PLP.Chemscore.CHOScore>
0.0000

> <Gold.PLP.Chemscore.Metal>
0.0000

> <Gold.Chemscore.Hbonds>
donor molecule, donor type, donor heavy atom, donor atom, acceptor molecule, acceptor atom, score
      P1  H  7997  8008       L1     9  1.00
      P1  H 10752 10763       L1    22  2.00

> <Gold.PLP.Chemscore.Internal.Correction>
0.0686

> <Gold.Rescore>
     Score         DG    S(hbond)    S(metal)    S(lipo)     H(rot)  DE(clash)    DE(int)     intcor
     21.05     -21.40       1.85        0.00     118.46       1.61       0.00       0.35       ----

> <Gold.Chemscore.Fitness>
21.0521

> <Gold.Chemscore.DG>
-21.4048

> <Gold.Chemscore.ZeroCoef>
-5.4800

> <Gold.Chemscore.Hbond>
1.8484

> <Gold.Chemscore.Metal>
0.0000

> <Gold.Chemscore.Lipo>
118.4622

> <Gold.Chemscore.Internal_Hbond>
0.0000

> <Gold.Chemscore.DEClash>
0.0042

> <Gold.Chemscore.DEInternal>
0.3486

> <Gold.Chemscore.Rot>
1.6051

> <Gold.Chemscore.Internal.Correction>
   9.000000E+99

> <Gold.Chemscore.Hbonds>
donor molecule, donor type, donor heavy atom, donor atom, acceptor molecule, acceptor atom, score
      P1  H  7997  8008       L1     9  0.97
      P1  H 10752 10763       L1    22  0.33

> <Gold.Chemscore.Hbond.Weighted>
-6.1738

> <Gold.Chemscore.Metal.Weighted>
-0.0000

> <Gold.Chemscore.Lipo.Weighted>
-13.8601

> <Gold.Chemscore.Internal_Hbond.Weighted>
0.0000

> <Gold.Chemscore.DEClash.Weighted>
0.0042

> <Gold.Chemscore.DEInternal.Weighted>
0.3486

> <Gold.Chemscore.Rot.Weighted>
4.1090

> <Gold.Chemscore.Internal.Correction.Weighted>
   9.000000E+99

> <Gold.Protein.RotatedTorsions>
[ 6907 6896 6895 6894 ] final  179.51 input  -60.11 | X-H torsion
[ 7974 7965 7964 7962 ] final -100.09 input  175.53 | X-H torsion
[ 8008 7997 7996 7995 ] final -105.25 input   59.86 | X-H torsion
[ 10167 10162 10161 10158 ] final  -19.26 input  -65.29 | X-H torsion
[ 10718 10713 10712 10709 ] final   40.34 input   66.30 | X-H torsion
[ 10763 10752 10751 10750 ] final   66.15 input  -60.55 | X-H torsion
[ 11005 11000 10999 10996 ] final  -52.04 input  -57.11 | X-H torsion

> <Gold.Protein.ActiveResidues>
 VAL166  LYS551  ARG553  GLY616  TRP617  ASP618  TYR619  PRO620  LYS621  CYS622 
 ASP623  PHE694  ASN695  SER759  ASP760  ASP761  ALA762  ILE779  LEU786  VAL792 
 PHE793  MET794  SER795  GLU796  ALA797  LYS798  CYS799  TRP800  GLU811  SER814 

> <Gold.Protein.RotatedAtoms>
  151.6705  133.3314  159.3195 H   0  0  0  0  0  0  0  0  0  0  0  0  # atno 6907 bound_to 6896
  150.7870  134.6866  159.6483 H   0  0  0  0  0  0  0  0  0  0  0  0  # atno 6908 bound_to 6896
  152.3942  134.6396  160.0148 H   0  0  0  0  0  0  0  0  0  0  0  0  # atno 6909 bound_to 6896
  145.2991  140.9373  143.2834 H   0  0  0  0  0  0  0  0  0  0  0  0  # atno 7974 bound_to 7965
  154.8971  140.0414  157.1872 H   0  0  0  0  0  0  0  0  0  0  0  0  # atno 8008 bound_to 7997
  154.8481  140.2925  155.5595 H   0  0  0  0  0  0  0  0  0  0  0  0  # atno 8009 bound_to 7997
  156.2995  140.2470  156.3435 H   0  0  0  0  0  0  0  0  0  0  0  0  # atno 8010 bound_to 7997
  140.7267  143.4836  151.0085 H   0  0  0  0  0  0  0  0  0  0  0  0  # atno 10167 bound_to 10162
  157.3810  130.7754  149.7193 H   0  0  0  0  0  0  0  0  0  0  0  0  # atno 10718 bound_to 10713
  153.0127  135.5331  154.6779 H   0  0  0  0  0  0  0  0  0  0  0  0  # atno 10763 bound_to 10752
  154.5946  135.2862  155.0601 H   0  0  0  0  0  0  0  0  0  0  0  0  # atno 10764 bound_to 10752
  154.1681  135.6536  153.5055 H   0  0  0  0  0  0  0  0  0  0  0  0  # atno 10765 bound_to 10752
  141.0903  133.6634  156.3966 H   0  0  0  0  0  0  0  0  0  0  0  0  # atno 11005 bound_to 11000
  144.9108  139.4531  143.6588 LP  0  0  0  0  0  0  0  0  0  0  0  0  # atno 17320 bound_to 7965
  146.3158  139.7915  142.8984 LP  0  0  0  0  0  0  0  0  0  0  0  0  # atno 17321 bound_to 7965
  139.8536  143.7406  152.3177 LP  0  0  0  0  0  0  0  0  0  0  0  0  # atno 17342 bound_to 10162
  139.7597  144.7510  151.0382 LP  0  0  0  0  0  0  0  0  0  0  0  0  # atno 17343 bound_to 10162
  155.9776  130.4061  150.3703 LP  0  0  0  0  0  0  0  0  0  0  0  0  # atno 17370 bound_to 10713
  157.1807  131.0391  151.2750 LP  0  0  0  0  0  0  0  0  0  0  0  0  # atno 17371 bound_to 10713
  140.5267  134.6252  157.5336 LP  0  0  0  0  0  0  0  0  0  0  0  0  # atno 17394 bound_to 11000
  139.9728  134.7265  156.0008 LP  0  0  0  0  0  0  0  0  0  0  0  0  # atno 17395 bound_to 11000

$$$$
