AV-unprocessed.smi:2120|AV-procd|sdf|8639|dock1
  -GOLD-   2272011383D 1   1.00000     0.00000
 Structure written by MMmdl.
 46 49  0  0  0  0  0  0  0  0  2 V2000
  150.1086  140.2940  157.4159 O   0  0  0  0  0  0  0  0  0  0  0  0
  150.0140  141.4970  157.1683 C   0  0  0  0  0  0  0  0  0  0  0  0
  149.2611  141.9590  156.1555 N   0  0  0  0  0  0  0  0  0  0  0  0
  148.4878  141.1300  155.2389 C   0  0  0  0  0  0  0  0  0  0  0  0
  147.7850  141.9739  154.1612 C   0  0  0  0  0  0  0  0  0  0  0  0
  146.5291  142.6439  154.6839 C   0  0  0  0  0  0  0  0  0  0  0  0
  145.7876  143.5160  153.8562 C   0  0  0  0  0  0  0  0  0  0  0  0
  144.6225  144.1278  154.3636 C   0  0  0  0  0  0  0  0  0  0  0  0
  144.2232  143.8514  155.6872 C   0  0  0  0  0  0  0  0  0  0  0  0
  144.9570  143.0105  156.4491 N   0  3  0  0  0  0  0  0  0  0  0  0
  146.0796  142.4064  156.0011 C   0  0  0  0  0  0  0  0  0  0  0  0
  150.7740  142.5204  158.0451 C   0  0  0  0  0  0  0  0  0  0  0  0
  151.6936  141.7569  159.0368 C   0  0  0  0  0  0  0  0  0  0  0  0
  152.5065  142.7532  159.8919 C   0  0  1  0  0  0  0  0  0  0  0  0
  153.3857  143.6252  158.9714 C   0  0  0  0  0  0  0  0  0  0  0  0
  152.4809  144.4066  157.9958 C   0  0  2  0  0  0  0  0  0  0  0  0
  151.5196  145.3121  158.7929 C   0  0  0  0  0  0  0  0  0  0  0  0
  150.6457  144.4374  159.7153 C   0  0  2  0  0  0  0  0  0  0  0  0
  151.5448  143.6540  160.6944 C   0  0  0  0  0  0  0  0  0  0  0  0
  149.8245  143.4461  158.8635 C   0  0  0  0  0  0  0  0  0  0  0  0
  151.6669  143.4135  157.1388 C   0  0  0  0  0  0  0  0  0  0  0  0
  149.2297  142.9577  156.0083 H   0  0  0  0  0  0  0  0  0  0  0  0
  149.1676  140.4187  154.7690 H   0  0  0  0  0  0  0  0  0  0  0  0
  147.7620  140.5410  155.8021 H   0  0  0  0  0  0  0  0  0  0  0  0
  148.4545  142.7496  153.7876 H   0  0  0  0  0  0  0  0  0  0  0  0
  147.5329  141.3482  153.3038 H   0  0  0  0  0  0  0  0  0  0  0  0
  146.1088  143.7158  152.8440 H   0  0  0  0  0  0  0  0  0  0  0  0
  144.0437  144.7991  153.7459 H   0  0  0  0  0  0  0  0  0  0  0  0
  143.3462  144.2742  156.1554 H   0  0  0  0  0  0  0  0  0  0  0  0
  146.5787  141.7564  156.7052 H   0  0  0  0  0  0  0  0  0  0  0  0
  151.0985  141.1142  159.6877 H   0  0  0  0  0  0  0  0  0  0  0  0
  152.3773  141.0965  158.5005 H   0  0  0  0  0  0  0  0  0  0  0  0
  153.1441  142.2001  160.5823 H   0  0  0  0  0  0  0  0  0  0  0  0
  153.9872  144.3149  159.5647 H   0  0  0  0  0  0  0  0  0  0  0  0
  154.0883  143.0013  158.4177 H   0  0  0  0  0  0  0  0  0  0  0  0
  153.1004  145.0227  157.3433 H   0  0  0  0  0  0  0  0  0  0  0  0
  152.0839  146.0365  159.3816 H   0  0  0  0  0  0  0  0  0  0  0  0
  150.8922  145.8889  158.1122 H   0  0  0  0  0  0  0  0  0  0  0  0
  149.9669  145.0764  160.2809 H   0  0  0  0  0  0  0  0  0  0  0  0
  150.9353  143.0511  161.3688 H   0  0  0  0  0  0  0  0  0  0  0  0
  152.1092  144.3434  161.3236 H   0  0  0  0  0  0  0  0  0  0  0  0
  149.1621  144.0021  158.1978 H   0  0  0  0  0  0  0  0  0  0  0  0
  149.1822  142.8576  159.5207 H   0  0  0  0  0  0  0  0  0  0  0  0
  152.3523  142.8045  156.5469 H   0  0  0  0  0  0  0  0  0  0  0  0
  151.0522  143.9618  156.4233 H   0  0  0  0  0  0  0  0  0  0  0  0
  144.6495  142.8230  157.4039 H   0  0  0  0  0  0  0  0  0  0  0  0
  1  2  2  0  0  0  0
  2  3  1  0  0  0  0
  2 12  1  0  0  0  0
  3  4  1  0  0  0  0
  3 22  1  0  0  0  0
  4  5  1  0  0  0  0
  4 23  1  0  0  0  0
  4 24  1  0  0  0  0
  5  6  1  0  0  0  0
  5 25  1  0  0  0  0
  5 26  1  0  0  0  0
  6 11  1  0  0  0  0
  6  7  2  0  0  0  0
  7  8  1  0  0  0  0
  7 27  1  0  0  0  0
  8  9  2  0  0  0  0
  8 28  1  0  0  0  0
  9 10  1  0  0  0  0
  9 29  1  0  0  0  0
 10 11  2  0  0  0  0
 10 46  1  0  0  0  0
 11 30  1  0  0  0  0
 12 20  1  0  0  0  0
 12 21  1  0  0  0  0
 12 13  1  0  0  0  0
 13 14  1  0  0  0  0
 13 31  1  0  0  0  0
 13 32  1  0  0  0  0
 14 19  1  0  0  0  0
 14 15  1  0  0  0  0
 14 33  1  0  0  0  0
 15 16  1  0  0  0  0
 15 34  1  0  0  0  0
 15 35  1  0  0  0  0
 16 17  1  0  0  0  0
 16 21  1  0  0  0  0
 16 36  1  0  0  0  0
 17 18  1  0  0  0  0
 17 37  1  0  0  0  0
 17 38  1  0  0  0  0
 18 19  1  0  0  0  0
 18 20  1  0  0  0  0
 18 39  1  0  0  0  0
 19 40  1  0  0  0  0
 19 41  1  0  0  0  0
 20 42  1  0  0  0  0
 20 43  1  0  0  0  0
 21 44  1  0  0  0  0
 21 45  1  0  0  0  0
M  CHG  1  10   1
M  END
> <s_m_source_file>
AV-unprocessed.smi

> <i_m_source_file_index>
2120

> <i_lp_mmshare_version>
43012

> <i_f3d_flags>
0

> <s_epik_input>
W0NIMl0xW0NASF0oW0NIMl0yKVtDSDJdW0NASF0oW0NIMl0zKVtDSDJdW0NAQEhdMVtDSDJdQzIzQyg9TylbTkhdW0NIMl1bQ0gyXWM0W2NIXVtjSF1bY0hdbltjSF00

> <s_epik_cmdline>
J2VwaWtfcHl0aG9uJywgJy1waCcsICc3LjAnLCAnLXRuJywgJzgnLCAnLW1hJywgJzIwMCcsICctbWV0YWxfYmluZGluZycsICctaW1hZScsICc8aW5maWxlLm1hZT4nLCAnLW9tYWUnLCAnPG91dGZpbGUubWFlPic=

> <r_epik_Ionization_Penalty>
2.23732

> <r_epik_Ionization_Penalty_Charging>
2.23732

> <r_epik_Ionization_Penalty_Neutral>
2.68417e-08

> <r_epik_State_Penalty>
2.38345

> <r_epik_Charging_Adjusted_Penalty>
4.62076

> <i_epik_Tot_Q>
1

> <i_epik_Tot_abs_Q>
1

> <r_epik_Metal_State_Penalty>
2.39692

> <b_epik_Metal_Only>
0

> <s_lp_Force_Field>
OPLS_2005

> <r_lp_Energy>
42.1143

> <b_lp_Chiralities_Consistent>
1

> <s_lp_Variant>
AV-unprocessed.smi:2120-2

> <Gold.Version>
5.8.1

> <Gold.Id.Protein>
6NUR|6NUR_protein|mol2

> <Gold.PLP.Fitness>
50.1138

> <Gold.PLP.PLP>
-47.4855

> <Gold.PLP.part.hbond>
-1.0000

> <Gold.PLP.part.metal>
0.0000

> <Gold.PLP.part.buried>
-6.6186

> <Gold.PLP.part.nonpolar>
-39.8750

> <Gold.PLP.part.repulsive>
0.0769

> <Gold.PLP.ligand.clash>
0.0000

> <Gold.PLP.ligand.torsion>
0.1969

> <Gold.PLP.Chemscore.Hbond>
1.0000

> <Gold.PLP.Chemscore.CHOScore>
0.0000

> <Gold.PLP.Chemscore.Metal>
0.0000

> <Gold.Chemscore.Hbonds>
donor molecule, donor type, donor heavy atom, donor atom, acceptor molecule, acceptor atom, score
      L1  H     3    22       P1  8028  1.00

> <Gold.PLP.Chemscore.Internal.Correction>
0.0221

> <Gold.Rescore>
     Score         DG    S(hbond)    S(metal)    S(lipo)     H(rot)  DE(clash)    DE(int)     intcor
     21.03     -21.54       1.00        0.00     139.76       1.41       0.42       0.09       ----

> <Gold.Chemscore.Fitness>
21.0277

> <Gold.Chemscore.DG>
-21.5423

> <Gold.Chemscore.ZeroCoef>
-5.4800

> <Gold.Chemscore.Hbond>
0.9974

> <Gold.Chemscore.Metal>
0.0000

> <Gold.Chemscore.Lipo>
139.7620

> <Gold.Chemscore.Internal_Hbond>
0.0000

> <Gold.Chemscore.DEClash>
0.4229

> <Gold.Chemscore.DEInternal>
0.0916

> <Gold.Chemscore.Rot>
1.4145

> <Gold.Chemscore.Internal.Correction>
   9.000000E+99

> <Gold.Chemscore.Hbonds>
donor molecule, donor type, donor heavy atom, donor atom, acceptor molecule, acceptor atom, score
      L1  H     3    22       P1  8028  1.00

> <Gold.Chemscore.Hbond.Weighted>
-3.3312

> <Gold.Chemscore.Metal.Weighted>
-0.0000

> <Gold.Chemscore.Lipo.Weighted>
-16.3522

> <Gold.Chemscore.Internal_Hbond.Weighted>
0.0000

> <Gold.Chemscore.DEClash.Weighted>
0.4229

> <Gold.Chemscore.DEInternal.Weighted>
0.0916

> <Gold.Chemscore.Rot.Weighted>
3.6210

> <Gold.Chemscore.Internal.Correction.Weighted>
   9.000000E+99

> <Gold.Protein.RotatedTorsions>
[ 6907 6896 6895 6894 ] final  -53.97 input  -60.11 | X-H torsion
[ 7974 7965 7964 7962 ] final -116.95 input  175.53 | X-H torsion
[ 8008 7997 7996 7995 ] final    6.64 input   59.86 | X-H torsion
[ 10167 10162 10161 10158 ] final  -10.09 input  -65.29 | X-H torsion
[ 10718 10713 10712 10709 ] final   25.06 input   66.30 | X-H torsion
[ 10763 10752 10751 10750 ] final   51.46 input  -60.55 | X-H torsion
[ 11005 11000 10999 10996 ] final    6.05 input  -57.11 | X-H torsion

> <Gold.Protein.ActiveResidues>
 VAL166  LYS551  ARG553  GLY616  TRP617  ASP618  TYR619  PRO620  LYS621  CYS622 
 ASP623  PHE694  ASN695  SER759  ASP760  ASP761  ALA762  ILE779  LEU786  VAL792 
 PHE793  MET794  SER795  GLU796  ALA797  LYS798  CYS799  TRP800  GLU811  SER814 

> <Gold.Protein.RotatedAtoms>
  150.8379  134.7660  159.6908 H   0  0  0  0  0  0  0  0  0  0  0  0  # atno 6907 bound_to 6896
  152.4472  134.5466  159.9864 H   0  0  0  0  0  0  0  0  0  0  0  0  # atno 6908 bound_to 6896
  151.5612  133.3365  159.3007 H   0  0  0  0  0  0  0  0  0  0  0  0  # atno 6909 bound_to 6896
  145.0908  140.8488  143.3984 H   0  0  0  0  0  0  0  0  0  0  0  0  # atno 7974 bound_to 7965
  154.7436  140.2753  155.6352 H   0  0  0  0  0  0  0  0  0  0  0  0  # atno 8008 bound_to 7997
  156.2879  140.2692  156.2096 H   0  0  0  0  0  0  0  0  0  0  0  0  # atno 8009 bound_to 7997
  155.0227  140.0371  157.2433 H   0  0  0  0  0  0  0  0  0  0  0  0  # atno 8010 bound_to 7997
  140.7105  143.5786  150.9016 H   0  0  0  0  0  0  0  0  0  0  0  0  # atno 10167 bound_to 10162
  157.1883  130.6834  149.6140 H   0  0  0  0  0  0  0  0  0  0  0  0  # atno 10718 bound_to 10713
  152.9785  135.5845  154.4420 H   0  0  0  0  0  0  0  0  0  0  0  0  # atno 10763 bound_to 10752
  154.4020  135.2769  155.2093 H   0  0  0  0  0  0  0  0  0  0  0  0  # atno 10764 bound_to 10752
  154.3920  135.6123  153.5902 H   0  0  0  0  0  0  0  0  0  0  0  0  # atno 10765 bound_to 10752
  140.5638  134.0167  155.7982 H   0  0  0  0  0  0  0  0  0  0  0  0  # atno 11005 bound_to 11000
  145.1068  139.2784  143.5658 LP  0  0  0  0  0  0  0  0  0  0  0  0  # atno 17320 bound_to 7965
  146.3531  140.0652  142.8627 LP  0  0  0  0  0  0  0  0  0  0  0  0  # atno 17321 bound_to 7965
  139.9512  143.6270  152.3028 LP  0  0  0  0  0  0  0  0  0  0  0  0  # atno 17342 bound_to 10162
  139.6789  144.7657  151.1644 LP  0  0  0  0  0  0  0  0  0  0  0  0  # atno 17343 bound_to 10162
  155.9715  130.4623  150.6142 LP  0  0  0  0  0  0  0  0  0  0  0  0  # atno 17370 bound_to 10713
  157.3886  131.0792  151.1414 LP  0  0  0  0  0  0  0  0  0  0  0  0  # atno 17371 bound_to 10713
  141.1098  133.9635  157.2931 LP  0  0  0  0  0  0  0  0  0  0  0  0  # atno 17394 bound_to 11000
  139.9394  135.0193  156.8662 LP  0  0  0  0  0  0  0  0  0  0  0  0  # atno 17395 bound_to 11000

$$$$
