AV-unprocessed.smi:2143|AV-procd|sdf|8726|dock4
  -GOLD-   2272011493D 1   1.00000     0.00000
 Structure written by MMmdl.
 44 45  0  0  0  0  0  0  0  0  1 V2000
  143.8004  132.9764  148.9233 C   0  0  0  0  0  0  0  0  0  0  0  0
  144.0503  132.2577  150.2654 C   0  0  2  0  0  0  0  0  0  0  0  0
  143.0706  132.7361  151.3563 C   0  0  0  0  0  0  0  0  0  0  0  0
  143.3996  134.1536  151.8502 C   0  0  0  0  0  0  0  0  0  0  0  0
  144.8473  134.2423  152.3521 C   0  0  0  0  0  0  0  0  0  0  0  0
  145.8575  133.7734  151.2869 C   0  0  1  0  0  0  0  0  0  0  0  0
  147.1983  133.8035  151.8703 N   0  0  0  0  0  0  0  0  0  0  0  0
  147.7584  132.8368  152.6137 C   0  0  0  0  0  0  0  0  0  0  0  0
  147.1812  131.7918  152.9175 O   0  0  0  0  0  0  0  0  0  0  0  0
  149.1862  133.1147  153.1035 C   0  0  0  0  0  0  0  0  0  0  0  0
  149.2371  133.6109  154.4850 N   0  0  0  0  0  0  0  0  0  0  0  0
  149.3103  134.9714  154.7217 C   0  0  0  0  0  0  0  0  0  0  0  0
  149.3404  135.5115  155.9596 C   0  0  0  0  0  0  0  0  0  0  0  0
  149.2995  134.6660  157.1465 C   0  0  0  0  0  0  0  0  0  0  0  0
  149.3009  135.1164  158.2930 O   0  0  0  0  0  0  0  0  0  0  0  0
  149.2432  133.2777  156.8765 N   0  0  0  0  0  0  0  0  0  0  0  0
  149.1792  132.3656  157.9999 C   0  0  0  0  0  0  0  0  0  0  0  0
  149.1930  132.7197  155.5791 C   0  0  0  0  0  0  0  0  0  0  0  0
  149.1058  131.5034  155.3929 O   0  0  0  0  0  0  0  0  0  0  0  0
  145.5144  132.3501  150.7732 C   0  0  2  0  0  0  0  0  0  0  0  0
  146.5282  131.8218  149.7388 C   0  0  0  0  0  0  0  0  0  0  0  0
  144.0464  134.0366  148.9703 H   0  0  0  0  0  0  0  0  0  0  0  0
  142.7534  132.8968  148.6299 H   0  0  0  0  0  0  0  0  0  0  0  0
  144.3875  132.5364  148.1178 H   0  0  0  0  0  0  0  0  0  0  0  0
  143.8333  131.2031  150.0898 H   0  0  0  0  0  0  0  0  0  0  0  0
  142.0451  132.6982  150.9873 H   0  0  0  0  0  0  0  0  0  0  0  0
  143.1112  132.0476  152.2015 H   0  0  0  0  0  0  0  0  0  0  0  0
  143.2426  134.8763  151.0489 H   0  0  0  0  0  0  0  0  0  0  0  0
  142.7144  134.4336  152.6509 H   0  0  0  0  0  0  0  0  0  0  0  0
  145.0686  135.2681  152.6494 H   0  0  0  0  0  0  0  0  0  0  0  0
  144.9505  133.6332  153.2514 H   0  0  0  0  0  0  0  0  0  0  0  0
  145.8029  134.4653  150.4455 H   0  0  0  0  0  0  0  0  0  0  0  0
  147.7501  134.6283  151.6842 H   0  0  0  0  0  0  0  0  0  0  0  0
  149.7911  132.2106  153.0101 H   0  0  0  0  0  0  0  0  0  0  0  0
  149.6397  133.8431  152.4298 H   0  0  0  0  0  0  0  0  0  0  0  0
  149.3376  135.6410  153.8743 H   0  0  0  0  0  0  0  0  0  0  0  0
  149.3910  136.5844  156.0737 H   0  0  0  0  0  0  0  0  0  0  0  0
  149.7223  131.4526  157.7510 H   0  0  0  0  0  0  0  0  0  0  0  0
  148.1229  132.1652  158.1846 H   0  0  0  0  0  0  0  0  0  0  0  0
  149.6577  132.8132  158.8718 H   0  0  0  0  0  0  0  0  0  0  0  0
  145.5819  131.6786  151.6311 H   0  0  0  0  0  0  0  0  0  0  0  0
  146.6290  132.5015  148.8923 H   0  0  0  0  0  0  0  0  0  0  0  0
  146.2250  130.8480  149.3538 H   0  0  0  0  0  0  0  0  0  0  0  0
  147.5187  131.6990  150.1771 H   0  0  0  0  0  0  0  0  0  0  0  0
  1  2  1  0  0  0  0
  1 22  1  0  0  0  0
  1 23  1  0  0  0  0
  1 24  1  0  0  0  0
  2 20  1  0  0  0  0
  2  3  1  0  0  0  0
  2 25  1  0  0  0  0
  3  4  1  0  0  0  0
  3 26  1  0  0  0  0
  3 27  1  0  0  0  0
  4  5  1  0  0  0  0
  4 28  1  0  0  0  0
  4 29  1  0  0  0  0
  5  6  1  0  0  0  0
  5 30  1  0  0  0  0
  5 31  1  0  0  0  0
  6  7  1  0  0  0  0
  6 20  1  0  0  0  0
  6 32  1  0  0  0  0
  7  8  1  0  0  0  0
  7 33  1  0  0  0  0
  8  9  2  0  0  0  0
  8 10  1  0  0  0  0
 10 11  1  0  0  0  0
 10 34  1  0  0  0  0
 10 35  1  0  0  0  0
 11 18  1  0  0  0  0
 11 12  1  0  0  0  0
 12 13  2  0  0  0  0
 12 36  1  0  0  0  0
 13 14  1  0  0  0  0
 13 37  1  0  0  0  0
 14 15  2  0  0  0  0
 14 16  1  0  0  0  0
 16 17  1  0  0  0  0
 16 18  1  0  0  0  0
 17 38  1  0  0  0  0
 17 39  1  0  0  0  0
 17 40  1  0  0  0  0
 18 19  2  0  0  0  0
 20 21  1  0  0  0  0
 20 41  1  0  0  0  0
 21 42  1  0  0  0  0
 21 43  1  0  0  0  0
 21 44  1  0  0  0  0
M  END
> <s_m_source_file>
AV-unprocessed.smi

> <i_m_source_file_index>
2143

> <i_lp_mmshare_version>
43012

> <i_f3d_flags>
0

> <s_epik_input>
W0NIM11bQ0BASF0xW0NIMl1bQ0gyXVtDSDJdW0NASF0oW0NASF0xW0NIM10pW05IXUMoPU8pW0NIMl1uMltjSF1bY0hdYyg9TyluKFtDSDNdKWMyPU8=

> <s_epik_cmdline>
J2VwaWtfcHl0aG9uJywgJy1waCcsICc3LjAnLCAnLXRuJywgJzgnLCAnLW1hJywgJzIwMCcsICctbWV0YWxfYmluZGluZycsICctaW1hZScsICc8aW5maWxlLm1hZT4nLCAnLW9tYWUnLCAnPG91dGZpbGUubWFlPic=

> <r_lp_tautomer_probability>
1

> <r_epik_Ionization_Penalty>
3.18445e-08

> <r_epik_Ionization_Penalty_Charging>
1.27977e-08

> <r_epik_Ionization_Penalty_Neutral>
1.90469e-08

> <r_epik_State_Penalty>
-0

> <r_epik_Charging_Adjusted_Penalty>
1.27977e-08

> <i_epik_Tot_Q>
0

> <i_epik_Tot_abs_Q>
0

> <r_epik_Metal_State_Penalty>
-0

> <b_epik_Metal_Only>
0

> <s_lp_Force_Field>
OPLS_2005

> <r_lp_Energy>
21.4841

> <b_lp_Chiralities_Consistent>
1

> <s_lp_Variant>
AV-unprocessed.smi:2143-5

> <Gold.Version>
5.8.1

> <Gold.Id.Protein>
6NUR|6NUR_protein|mol2

> <Gold.PLP.Fitness>
39.6043

> <Gold.PLP.PLP>
-32.5038

> <Gold.PLP.part.hbond>
-2.0000

> <Gold.PLP.part.metal>
0.0000

> <Gold.PLP.part.buried>
0.3997

> <Gold.PLP.part.nonpolar>
-31.6726

> <Gold.PLP.part.repulsive>
0.1422

> <Gold.PLP.ligand.clash>
0.0000

> <Gold.PLP.ligand.torsion>
0.9533

> <Gold.PLP.Chemscore.Hbond>
2.0000

> <Gold.PLP.Chemscore.CHOScore>
1.0000

> <Gold.PLP.Chemscore.Metal>
0.0000

> <Gold.Chemscore.Hbonds>
donor molecule, donor type, donor heavy atom, donor atom, acceptor molecule, acceptor atom, score
      L1  H     7    33       P1  7948  0.95
      P1  H  6896  6909       L1    15  1.00
      L1  C    12    36       P1  7948  1.00

> <Gold.PLP.Chemscore.Internal.Correction>
0.0071

> <Gold.Rescore>
     Score         DG    S(hbond)    S(metal)    S(lipo)     H(rot)  DE(clash)    DE(int)     intcor
     12.96     -16.70       1.62        0.00      82.69       1.51       1.47       2.27       ----

> <Gold.Chemscore.Fitness>
12.9554

> <Gold.Chemscore.DG>
-16.7005

> <Gold.Chemscore.ZeroCoef>
-5.4800

> <Gold.Chemscore.Hbond>
1.6226

> <Gold.Chemscore.Metal>
0.0000

> <Gold.Chemscore.Lipo>
82.6870

> <Gold.Chemscore.Internal_Hbond>
0.0000

> <Gold.Chemscore.DEClash>
1.4746

> <Gold.Chemscore.DEInternal>
2.2705

> <Gold.Chemscore.Rot>
1.5131

> <Gold.Chemscore.Internal.Correction>
   9.000000E+99

> <Gold.Chemscore.Hbonds>
donor molecule, donor type, donor heavy atom, donor atom, acceptor molecule, acceptor atom, score
      L1  H     7    33       P1  7948  0.21
      P1  H  6896  6909       L1    15  0.77

> <Gold.Chemscore.Hbond.Weighted>
-5.4195

> <Gold.Chemscore.Metal.Weighted>
-0.0000

> <Gold.Chemscore.Lipo.Weighted>
-9.6744

> <Gold.Chemscore.Internal_Hbond.Weighted>
0.0000

> <Gold.Chemscore.DEClash.Weighted>
1.4746

> <Gold.Chemscore.DEInternal.Weighted>
2.2705

> <Gold.Chemscore.Rot.Weighted>
3.8734

> <Gold.Chemscore.Internal.Correction.Weighted>
   9.000000E+99

> <Gold.Protein.RotatedTorsions>
[ 6907 6896 6895 6894 ] final   26.63 input  -60.11 | X-H torsion
[ 7974 7965 7964 7962 ] final  -88.29 input  175.53 | X-H torsion
[ 8008 7997 7996 7995 ] final    4.83 input   59.86 | X-H torsion
[ 10167 10162 10161 10158 ] final  -33.47 input  -65.29 | X-H torsion
[ 10718 10713 10712 10709 ] final  141.36 input   66.30 | X-H torsion
[ 10763 10752 10751 10750 ] final -131.43 input  -60.55 | X-H torsion
[ 11005 11000 10999 10996 ] final  -36.17 input  -57.11 | X-H torsion

> <Gold.Protein.ActiveResidues>
 VAL166  LYS551  ARG553  GLY616  TRP617  ASP618  TYR619  PRO620  LYS621  CYS622 
 ASP623  PHE694  ASN695  SER759  ASP760  ASP761  ALA762  ILE779  LEU786  VAL792 
 PHE793  MET794  SER795  GLU796  ALA797  LYS798  CYS799  TRP800  GLU811  SER814 

> <Gold.Protein.RotatedAtoms>
  151.9903  134.9982  160.0560 H   0  0  0  0  0  0  0  0  0  0  0  0  # atno 6907 bound_to 6896
  152.1614  133.4579  159.4871 H   0  0  0  0  0  0  0  0  0  0  0  0  # atno 6908 bound_to 6896
  150.6888  134.1984  159.4355 H   0  0  0  0  0  0  0  0  0  0  0  0  # atno 6909 bound_to 6896
  145.4551  140.9561  143.2001 H   0  0  0  0  0  0  0  0  0  0  0  0  # atno 7974 bound_to 7965
  154.7208  140.2711  155.6543 H   0  0  0  0  0  0  0  0  0  0  0  0  # atno 8008 bound_to 7997
  156.2823  140.2735  156.1803 H   0  0  0  0  0  0  0  0  0  0  0  0  # atno 8009 bound_to 7997
  155.0510  140.0371  157.2533 H   0  0  0  0  0  0  0  0  0  0  0  0  # atno 8010 bound_to 7997
  140.7204  143.3618  151.1948 H   0  0  0  0  0  0  0  0  0  0  0  0  # atno 10167 bound_to 10162
  157.3928  131.1007  151.0629 H   0  0  0  0  0  0  0  0  0  0  0  0  # atno 10718 bound_to 10713
  154.8751  135.3830  154.4245 H   0  0  0  0  0  0  0  0  0  0  0  0  # atno 10763 bound_to 10752
  153.4945  135.7030  153.5871 H   0  0  0  0  0  0  0  0  0  0  0  0  # atno 10764 bound_to 10752
  153.4230  135.3897  155.2090 H   0  0  0  0  0  0  0  0  0  0  0  0  # atno 10765 bound_to 10752
  140.9854  133.7034  156.1756 H   0  0  0  0  0  0  0  0  0  0  0  0  # atno 11005 bound_to 11000
  144.8037  139.6091  143.7060 LP  0  0  0  0  0  0  0  0  0  0  0  0  # atno 17320 bound_to 7965
  146.2483  139.6144  142.9445 LP  0  0  0  0  0  0  0  0  0  0  0  0  # atno 17321 bound_to 7965
  139.7172  143.9282  152.2971 LP  0  0  0  0  0  0  0  0  0  0  0  0  # atno 17342 bound_to 10162
  139.9027  144.6903  150.8648 LP  0  0  0  0  0  0  0  0  0  0  0  0  # atno 17343 bound_to 10162
  157.1657  130.6245  149.5624 LP  0  0  0  0  0  0  0  0  0  0  0  0  # atno 17370 bound_to 10713
  155.9803  130.4802  150.6763 LP  0  0  0  0  0  0  0  0  0  0  0  0  # atno 17371 bound_to 10713
  140.7123  134.4448  157.5581 LP  0  0  0  0  0  0  0  0  0  0  0  0  # atno 17394 bound_to 11000
  139.8968  134.8651  156.2071 LP  0  0  0  0  0  0  0  0  0  0  0  0  # atno 17395 bound_to 11000

$$$$
