AV-unprocessed.smi:697|AV-procd|sdf|3396|dock5
  -GOLD-   22720 0373D 1   1.00000     0.00000
 Structure written by MMmdl.
 43 44  0  0  0  0  0  0  0  0  2 V2000
  149.0579  141.6976  154.4017 C   0  0  0  0  0  0  0  0  0  0  0  0
  148.9624  140.2791  154.3969 O   0  0  0  0  0  0  0  0  0  0  0  0
  149.7851  139.5857  155.3367 C   0  0  2  0  0  0  0  0  0  0  0  0
  151.2667  139.7607  154.9684 C   0  0  0  0  0  0  0  0  0  0  0  0
  149.2747  138.1597  155.6122 C   0  0  0  0  0  0  0  0  0  0  0  0
  149.5393  138.4439  157.0889 C   0  0  2  0  0  0  0  0  0  0  0  0
  148.5398  137.8422  157.9649 N   0  0  0  0  0  0  0  0  0  0  0  0
  148.7779  136.8179  158.7947 C   0  0  0  0  0  0  0  0  0  0  0  0
  149.8726  136.2613  158.8766 O   0  0  0  0  0  0  0  0  0  0  0  0
  147.6725  136.5051  159.4948 N   0  0  0  0  0  0  0  0  0  0  0  0
  147.4858  135.5375  160.4975 C   0  0  0  0  0  0  0  0  0  0  0  0
  147.3384  134.2011  160.2782 C   0  0  0  0  0  0  0  0  0  0  0  0
  147.1628  133.2464  161.3651 C   0  0  0  0  0  0  0  0  0  0  0  0
  146.9021  131.7659  161.1508 C   0  0  0  0  0  0  0  0  0  0  0  0
  145.7360  131.4010  161.6842 F   0  0  0  0  0  0  0  0  0  0  0  0
  146.8823  131.4676  159.8517 F   0  0  0  0  0  0  0  0  0  0  0  0
  147.8652  131.0484  161.7270 F   0  0  0  0  0  0  0  0  0  0  0  0
  147.1534  133.8578  162.6037 C   0  0  0  0  0  0  0  0  0  0  0  0
  147.3169  135.1635  162.9089 N   0  5  0  0  0  0  0  0  0  0  0  0
  147.4841  136.0471  161.8848 C   0  0  0  0  0  0  0  0  0  0  0  0
  147.6341  137.2518  162.0927 O   0  0  0  0  0  0  0  0  0  0  0  0
  149.3179  139.9479  156.7841 C   0  0  0  0  0  0  0  0  0  0  0  0
  150.1989  140.9241  157.5707 C   0  0  0  0  0  0  0  0  0  0  0  0
  147.8766  140.4804  156.9188 C   0  0  0  0  0  0  0  0  0  0  0  0
  148.4699  142.0967  153.5753 H   0  0  0  0  0  0  0  0  0  0  0  0
  150.0847  142.0392  154.2699 H   0  0  0  0  0  0  0  0  0  0  0  0
  148.6591  142.1285  155.3195 H   0  0  0  0  0  0  0  0  0  0  0  0
  151.9266  139.3666  155.7408 H   0  0  0  0  0  0  0  0  0  0  0  0
  151.5189  140.8121  154.8287 H   0  0  0  0  0  0  0  0  0  0  0  0
  151.5219  139.2331  154.0498 H   0  0  0  0  0  0  0  0  0  0  0  0
  148.2187  138.0176  155.3745 H   0  0  0  0  0  0  0  0  0  0  0  0
  149.8890  137.3645  155.1890 H   0  0  0  0  0  0  0  0  0  0  0  0
  150.5692  138.2106  157.3679 H   0  0  0  0  0  0  0  0  0  0  0  0
  147.6134  138.2429  157.9504 H   0  0  0  0  0  0  0  0  0  0  0  0
  146.8388  137.0279  159.2690 H   0  0  0  0  0  0  0  0  0  0  0  0
  147.3645  133.7937  159.2817 H   0  0  0  0  0  0  0  0  0  0  0  0
  146.9866  133.1986  163.4821 H   0  0  0  0  0  0  0  0  0  0  0  0
  149.8288  141.0696  158.5862 H   0  0  0  0  0  0  0  0  0  0  0  0
  150.2369  141.9023  157.0907 H   0  0  0  0  0  0  0  0  0  0  0  0
  151.2239  140.5660  157.6624 H   0  0  0  0  0  0  0  0  0  0  0  0
  147.5594  140.5258  157.9611 H   0  0  0  0  0  0  0  0  0  0  0  0
  147.1536  139.8568  156.3931 H   0  0  0  0  0  0  0  0  0  0  0  0
  147.7849  141.4877  156.5114 H   0  0  0  0  0  0  0  0  0  0  0  0
  1  2  1  0  0  0  0
  1 25  1  0  0  0  0
  1 26  1  0  0  0  0
  1 27  1  0  0  0  0
  2  3  1  0  0  0  0
  3 22  1  0  0  0  0
  3  4  1  0  0  0  0
  3  5  1  0  0  0  0
  4 28  1  0  0  0  0
  4 29  1  0  0  0  0
  4 30  1  0  0  0  0
  5  6  1  0  0  0  0
  5 31  1  0  0  0  0
  5 32  1  0  0  0  0
  6  7  1  0  0  0  0
  6 22  1  0  0  0  0
  6 33  1  0  0  0  0
  7  8  1  0  0  0  0
  7 34  1  0  0  0  0
  8  9  2  0  0  0  0
  8 10  1  0  0  0  0
 10 11  1  0  0  0  0
 10 35  1  0  0  0  0
 11 20  1  0  0  0  0
 11 12  2  0  0  0  0
 12 13  1  0  0  0  0
 12 36  1  0  0  0  0
 13 14  1  0  0  0  0
 13 18  2  0  0  0  0
 14 15  1  0  0  0  0
 14 16  1  0  0  0  0
 14 17  1  0  0  0  0
 18 19  1  0  0  0  0
 18 37  1  0  0  0  0
 19 20  1  0  0  0  0
 20 21  2  0  0  0  0
 22 23  1  0  0  0  0
 22 24  1  0  0  0  0
 23 38  1  0  0  0  0
 23 39  1  0  0  0  0
 23 40  1  0  0  0  0
 24 41  1  0  0  0  0
 24 42  1  0  0  0  0
 24 43  1  0  0  0  0
M  CHG  1  19  -1
M  END
> <s_m_source_file>
AV-unprocessed.smi

> <i_m_source_file_index>
697

> <i_lp_mmshare_version>
43012

> <i_f3d_flags>
0

> <s_epik_input>
W0NIM11PW0NAQF0xKFtDSDNdKVtDSDJdW0NASF0oQzEoW0NIM10pW0NIM10pW05IXUMoPU8pW05IXWMyW2NIXWMoQyhGKShGKUYpW2NIXVtuSF1jMj1P

> <s_epik_cmdline>
J2VwaWtfcHl0aG9uJywgJy1waCcsICc3LjAnLCAnLXRuJywgJzgnLCAnLW1hJywgJzIwMCcsICctbWV0YWxfYmluZGluZycsICctaW1hZScsICc8aW5maWxlLm1hZT4nLCAnLW9tYWUnLCAnPG91dGZpbGUubWFlPic=

> <r_lp_tautomer_probability>
1

> <r_epik_Ionization_Penalty>
3.20094

> <r_epik_Ionization_Penalty_Charging>
0.180017

> <r_epik_Ionization_Penalty_Neutral>
3.02092

> <r_epik_State_Penalty>
3.01726

> <r_epik_Charging_Adjusted_Penalty>
3.19727

> <i_epik_Tot_Q>
-1

> <i_epik_Tot_abs_Q>
1

> <r_epik_Metal_State_Penalty>
0.455096

> <b_epik_Metal_Only>
1

> <s_lp_Force_Field>
OPLS_2005

> <r_lp_Energy>
36.1222

> <b_lp_Chiralities_Consistent>
1

> <s_lp_Variant>
AV-unprocessed.smi:697-8

> <Gold.Version>
5.8.1

> <Gold.Id.Protein>
6NUR|6NUR_protein|mol2

> <Gold.PLP.Fitness>
39.7663

> <Gold.PLP.PLP>
-34.0481

> <Gold.PLP.part.hbond>
-3.0000

> <Gold.PLP.part.metal>
0.0000

> <Gold.PLP.part.buried>
-1.3980

> <Gold.PLP.part.nonpolar>
-28.8207

> <Gold.PLP.part.repulsive>
0.3606

> <Gold.PLP.ligand.clash>
0.0000

> <Gold.PLP.ligand.torsion>
1.0970

> <Gold.PLP.Chemscore.Hbond>
2.4978

> <Gold.PLP.Chemscore.CHOScore>
0.0000

> <Gold.PLP.Chemscore.Metal>
0.0000

> <Gold.Chemscore.Hbonds>
donor molecule, donor type, donor heavy atom, donor atom, acceptor molecule, acceptor atom, score
      P1  H  6896  6908       L1     9  1.00
      P1  H  6931  6943       L1    21  0.93
      P1  H  6934  6947       L1    21  0.41

> <Gold.PLP.Chemscore.Internal.Correction>
0.4188

> <Gold.Rescore>
     Score         DG    S(hbond)    S(metal)    S(lipo)     H(rot)  DE(clash)    DE(int)     intcor
     16.07     -17.52       2.27        0.00      66.37       1.30       0.39       1.06       ----

> <Gold.Chemscore.Fitness>
16.0697

> <Gold.Chemscore.DG>
-17.5177

> <Gold.Chemscore.ZeroCoef>
-5.4800

> <Gold.Chemscore.Hbond>
2.2734

> <Gold.Chemscore.Metal>
0.0000

> <Gold.Chemscore.Lipo>
66.3718

> <Gold.Chemscore.Internal_Hbond>
0.0000

> <Gold.Chemscore.DEClash>
0.3896

> <Gold.Chemscore.DEInternal>
1.0584

> <Gold.Chemscore.Rot>
1.2973

> <Gold.Chemscore.Internal.Correction>
   9.000000E+99

> <Gold.Chemscore.Hbonds>
donor molecule, donor type, donor heavy atom, donor atom, acceptor molecule, acceptor atom, score
      P1  H  6896  6908       L1     9  0.98
      P1  H  6931  6943       L1    21  0.91
      P1  H  6934  6947       L1    21  0.41

> <Gold.Chemscore.Hbond.Weighted>
-7.5932

> <Gold.Chemscore.Metal.Weighted>
-0.0000

> <Gold.Chemscore.Lipo.Weighted>
-7.7655

> <Gold.Chemscore.Internal_Hbond.Weighted>
0.0000

> <Gold.Chemscore.DEClash.Weighted>
0.3896

> <Gold.Chemscore.DEInternal.Weighted>
1.0584

> <Gold.Chemscore.Rot.Weighted>
3.3210

> <Gold.Chemscore.Internal.Correction.Weighted>
   9.000000E+99

> <Gold.Protein.RotatedTorsions>
[ 6907 6896 6895 6894 ] final -153.79 input  -60.11 | X-H torsion
[ 7974 7965 7964 7962 ] final -118.22 input  175.53 | X-H torsion
[ 8008 7997 7996 7995 ] final  -57.30 input   59.86 | X-H torsion
[ 10167 10162 10161 10158 ] final -114.28 input  -65.29 | X-H torsion
[ 10718 10713 10712 10709 ] final   -3.24 input   66.30 | X-H torsion
[ 10763 10752 10751 10750 ] final  -39.55 input  -60.55 | X-H torsion
[ 11005 11000 10999 10996 ] final   44.85 input  -57.11 | X-H torsion

> <Gold.Protein.ActiveResidues>
 VAL166  LYS551  ARG553  GLY616  TRP617  ASP618  TYR619  PRO620  LYS621  CYS622 
 ASP623  PHE694  ASN695  SER759  ASP760  ASP761  ALA762  ILE779  LEU786  VAL792 
 PHE793  MET794  SER795  GLU796  ALA797  LYS798  CYS799  TRP800  GLU811  SER814 

> <Gold.Protein.RotatedAtoms>
  151.2478  133.4365  159.2609 H   0  0  0  0  0  0  0  0  0  0  0  0  # atno 6907 bound_to 6896
  151.0645  134.9758  159.8287 H   0  0  0  0  0  0  0  0  0  0  0  0  # atno 6908 bound_to 6896
  152.5403  134.2427  159.8921 H   0  0  0  0  0  0  0  0  0  0  0  0  # atno 6909 bound_to 6896
  145.0763  140.8394  143.4066 H   0  0  0  0  0  0  0  0  0  0  0  0  # atno 7974 bound_to 7965
  154.4263  140.1110  156.5776 H   0  0  0  0  0  0  0  0  0  0  0  0  # atno 8008 bound_to 7997
  155.6146  140.3494  155.4614 H   0  0  0  0  0  0  0  0  0  0  0  0  # atno 8009 bound_to 7997
  156.0072  140.1211  157.0479 H   0  0  0  0  0  0  0  0  0  0  0  0  # atno 8010 bound_to 7997
  140.1027  143.4598  152.1802 H   0  0  0  0  0  0  0  0  0  0  0  0  # atno 10167 bound_to 10162
  156.7789  130.5324  149.5754 H   0  0  0  0  0  0  0  0  0  0  0  0  # atno 10718 bound_to 10713
  153.9313  135.6771  153.4745 H   0  0  0  0  0  0  0  0  0  0  0  0  # atno 10763 bound_to 10752
  153.0978  135.4842  154.8809 H   0  0  0  0  0  0  0  0  0  0  0  0  # atno 10764 bound_to 10752
  154.7427  135.3164  154.8658 H   0  0  0  0  0  0  0  0  0  0  0  0  # atno 10765 bound_to 10752
  140.1514  134.4457  155.8379 H   0  0  0  0  0  0  0  0  0  0  0  0  # atno 11005 bound_to 11000
  145.1232  139.2680  143.5577 LP  0  0  0  0  0  0  0  0  0  0  0  0  # atno 17320 bound_to 7965
  146.3530  140.0862  142.8615 LP  0  0  0  0  0  0  0  0  0  0  0  0  # atno 17321 bound_to 7965
  139.5662  144.7436  151.4015 LP  0  0  0  0  0  0  0  0  0  0  0  0  # atno 17342 bound_to 10162
  140.6969  143.7727  150.7341 LP  0  0  0  0  0  0  0  0  0  0  0  0  # atno 17343 bound_to 10162
  156.1230  130.6124  151.0222 LP  0  0  0  0  0  0  0  0  0  0  0  0  # atno 17370 bound_to 10713
  157.6655  131.0872  150.7737 LP  0  0  0  0  0  0  0  0  0  0  0  0  # atno 17371 bound_to 10713
  141.2199  133.6874  156.7428 LP  0  0  0  0  0  0  0  0  0  0  0  0  # atno 17394 bound_to 11000
  140.2600  134.8474  157.3749 LP  0  0  0  0  0  0  0  0  0  0  0  0  # atno 17395 bound_to 11000

$$$$
