AV-unprocessed.smi:237|AV-procd|sdf|1818|dock4
  -GOLD-   2262020413D 1   1.00000     0.00000
 Structure written by MMmdl.
 53 56  0  0  0  0  0  0  0  0  1 V2000
  156.2420  139.7561  159.5018 C   0  0  0  0  0  0  0  0  0  0  0  0
  154.8016  139.7956  160.0162 C   0  0  0  0  0  0  0  0  0  0  0  0
  153.9362  139.9734  158.9062 O   0  0  0  0  0  0  0  0  0  0  0  0
  152.5563  140.0924  159.2326 C   0  0  0  0  0  0  0  0  0  0  0  0
  152.0687  141.5498  159.4569 C   0  0  1  0  0  0  0  0  0  0  0  0
  153.1556  142.3140  160.2474 C   0  0  0  0  0  0  0  0  0  0  0  0
  152.7914  143.7898  160.4557 C   0  0  0  0  0  0  0  0  0  0  0  0
  152.5089  144.4494  159.1021 C   0  0  0  0  0  0  0  0  0  0  0  0
  151.4133  143.6766  158.3573 C   0  0  0  0  0  0  0  0  0  0  0  0
  151.7671  142.2637  158.2034 N   0  0  0  0  0  0  0  0  0  0  0  0
  150.8918  141.6285  157.3903 C   0  0  0  0  0  0  0  0  0  0  0  0
  151.3498  140.8418  156.3801 N   0  0  0  0  0  0  0  0  0  0  0  0
  150.4838  140.2394  155.5600 C   0  0  0  0  0  0  0  0  0  0  0  0
  149.1499  140.2892  155.5711 N   0  0  0  0  0  0  0  0  0  0  0  0
  148.6905  141.0749  156.5877 C   0  0  0  0  0  0  0  0  0  0  0  0
  149.4877  141.7774  157.5330 C   0  0  0  0  0  0  0  0  0  0  0  0
  148.6782  142.4891  158.4077 N   0  0  0  0  0  0  0  0  0  0  0  0
  147.4669  142.2207  158.0023 C   0  0  0  0  0  0  0  0  0  0  0  0
  147.3797  141.3648  156.9258 N   0  0  0  0  0  0  0  0  0  0  0  0
  146.1650  140.9013  156.2693 C   0  0  0  0  0  0  0  0  0  0  0  0
  145.2456  142.0241  155.7293 C   0  0  0  0  0  0  0  0  0  0  0  0
  145.8932  142.6012  154.4631 C   0  0  0  0  0  0  0  0  0  0  0  0
  146.2409  141.5790  153.5512 O   0  0  0  0  0  0  0  0  0  0  0  0
  143.7356  141.7383  155.6487 C   0  0  0  0  0  0  0  0  0  0  0  0
  143.4773  142.4684  156.8665 O   0  0  0  0  0  0  0  0  0  0  0  0
  144.7842  143.0702  156.7586 C   0  0  0  0  0  0  0  0  0  0  0  0
  156.9457  139.6113  160.3216 H   0  0  0  0  0  0  0  0  0  0  0  0
  156.5021  140.6868  158.9970 H   0  0  0  0  0  0  0  0  0  0  0  0
  156.3817  138.9401  158.7925 H   0  0  0  0  0  0  0  0  0  0  0  0
  154.5780  138.8672  160.5406 H   0  0  0  0  0  0  0  0  0  0  0  0
  154.6824  140.6157  160.7254 H   0  0  0  0  0  0  0  0  0  0  0  0
  151.9734  139.6119  158.4453 H   0  0  0  0  0  0  0  0  0  0  0  0
  152.3736  139.5086  160.1354 H   0  0  0  0  0  0  0  0  0  0  0  0
  151.1671  141.5471  160.0690 H   0  0  0  0  0  0  0  0  0  0  0  0
  153.3157  141.8404  161.2166 H   0  0  0  0  0  0  0  0  0  0  0  0
  154.1061  142.2533  159.7149 H   0  0  0  0  0  0  0  0  0  0  0  0
  151.9125  143.8679  161.0968 H   0  0  0  0  0  0  0  0  0  0  0  0
  153.6014  144.3101  160.9674 H   0  0  0  0  0  0  0  0  0  0  0  0
  152.2053  145.4868  159.2441 H   0  0  0  0  0  0  0  0  0  0  0  0
  153.4193  144.4684  158.5014 H   0  0  0  0  0  0  0  0  0  0  0  0
  150.4737  143.7640  158.9055 H   0  0  0  0  0  0  0  0  0  0  0  0
  151.2527  144.1256  157.3758 H   0  0  0  0  0  0  0  0  0  0  0  0
  150.9227  139.6347  154.7803 H   0  0  0  0  0  0  0  0  0  0  0  0
  146.5978  142.6446  158.4834 H   0  0  0  0  0  0  0  0  0  0  0  0
  146.4627  140.2369  155.4573 H   0  0  0  0  0  0  0  0  0  0  0  0
  145.6317  140.2720  156.9825 H   0  0  0  0  0  0  0  0  0  0  0  0
  145.2125  143.2839  153.9531 H   0  0  0  0  0  0  0  0  0  0  0  0
  146.7858  143.1782  154.7063 H   0  0  0  0  0  0  0  0  0  0  0  0
  145.4560  141.1125  153.3076 H   0  0  0  0  0  0  0  0  0  0  0  0
  143.2460  142.2029  154.7913 H   0  0  0  0  0  0  0  0  0  0  0  0
  143.4611  140.6872  155.7174 H   0  0  0  0  0  0  0  0  0  0  0  0
  145.3359  143.0613  157.6975 H   0  0  0  0  0  0  0  0  0  0  0  0
  144.7252  144.0859  156.3640 H   0  0  0  0  0  0  0  0  0  0  0  0
  1  2  1  0  0  0  0
  1 27  1  0  0  0  0
  1 28  1  0  0  0  0
  1 29  1  0  0  0  0
  2  3  1  0  0  0  0
  2 30  1  0  0  0  0
  2 31  1  0  0  0  0
  3  4  1  0  0  0  0
  4  5  1  0  0  0  0
  4 32  1  0  0  0  0
  4 33  1  0  0  0  0
  5 10  1  0  0  0  0
  5  6  1  0  0  0  0
  5 34  1  0  0  0  0
  6  7  1  0  0  0  0
  6 35  1  0  0  0  0
  6 36  1  0  0  0  0
  7  8  1  0  0  0  0
  7 37  1  0  0  0  0
  7 38  1  0  0  0  0
  8  9  1  0  0  0  0
  8 39  1  0  0  0  0
  8 40  1  0  0  0  0
  9 10  1  0  0  0  0
  9 41  1  0  0  0  0
  9 42  1  0  0  0  0
 10 11  1  0  0  0  0
 11 16  1  0  0  0  0
 11 12  2  0  0  0  0
 12 13  1  0  0  0  0
 13 14  2  0  0  0  0
 13 43  1  0  0  0  0
 14 15  1  0  0  0  0
 15 19  1  0  0  0  0
 15 16  2  0  0  0  0
 16 17  1  0  0  0  0
 17 18  2  0  0  0  0
 18 19  1  0  0  0  0
 18 44  1  0  0  0  0
 19 20  1  0  0  0  0
 20 21  1  0  0  0  0
 20 45  1  0  0  0  0
 20 46  1  0  0  0  0
 21 26  1  0  0  0  0
 21 22  1  0  0  0  0
 21 24  1  0  0  0  0
 22 23  1  0  0  0  0
 22 47  1  0  0  0  0
 22 48  1  0  0  0  0
 23 49  1  0  0  0  0
 24 25  1  0  0  0  0
 24 50  1  0  0  0  0
 24 51  1  0  0  0  0
 25 26  1  0  0  0  0
 26 52  1  0  0  0  0
 26 53  1  0  0  0  0
M  END
> <s_m_source_file>
AV-unprocessed.smi

> <i_m_source_file_index>
237

> <i_lp_mmshare_version>
43012

> <i_f3d_flags>
0

> <s_epik_input>
W0NIM11bQ0gyXU9bQ0gyXVtDQEBIXTFbQ0gyXVtDSDJdW0NIMl1bQ0gyXU4xYyhuW2NIXW4yKWMoYzIzKW5bY0hdbjNbQ0gyXUM0KFtDSDJdW09IXSlbQ0gyXU9bQ0gyXTQ=

> <s_epik_cmdline>
J2VwaWtfcHl0aG9uJywgJy1waCcsICc3LjAnLCAnLXRuJywgJzgnLCAnLW1hJywgJzIwMCcsICctbWV0YWxfYmluZGluZycsICctaW1hZScsICc8aW5maWxlLm1hZT4nLCAnLW9tYWUnLCAnPG91dGZpbGUubWFlPic=

> <r_lp_tautomer_probability>
1

> <r_epik_Ionization_Penalty>
0.00358373

> <r_epik_Ionization_Penalty_Charging>
0

> <r_epik_Ionization_Penalty_Neutral>
0.00358373

> <r_epik_State_Penalty>
0.00240903

> <r_epik_Charging_Adjusted_Penalty>
0.00240903

> <i_epik_Tot_Q>
0

> <i_epik_Tot_abs_Q>
0

> <r_epik_Metal_State_Penalty>
-0

> <b_epik_Metal_Only>
0

> <s_lp_Force_Field>
OPLS_2005

> <r_lp_Energy>
39.3208

> <b_lp_Chiralities_Consistent>
1

> <s_lp_Variant>
AV-unprocessed.smi:237-2

> <Gold.Version>
5.8.1

> <Gold.Id.Protein>
6NUR|6NUR_protein|mol2

> <Gold.PLP.Fitness>
44.2375

> <Gold.PLP.PLP>
-40.1669

> <Gold.PLP.part.hbond>
-2.0000

> <Gold.PLP.part.metal>
0.0000

> <Gold.PLP.part.buried>
-7.1772

> <Gold.PLP.part.nonpolar>
-31.7196

> <Gold.PLP.part.repulsive>
0.2715

> <Gold.PLP.ligand.clash>
0.0000

> <Gold.PLP.ligand.torsion>
1.2774

> <Gold.PLP.Chemscore.Hbond>
2.0000

> <Gold.PLP.Chemscore.CHOScore>
0.0000

> <Gold.PLP.Chemscore.Metal>
0.0000

> <Gold.Chemscore.Hbonds>
donor molecule, donor type, donor heavy atom, donor atom, acceptor molecule, acceptor atom, score
      L1  H    23    49       P1 10175  0.96
      P1  H  7997  8009       L1     3  1.00

> <Gold.PLP.Chemscore.Internal.Correction>
0.6253

> <Gold.Rescore>
     Score         DG    S(hbond)    S(metal)    S(lipo)     H(rot)  DE(clash)    DE(int)     intcor
     12.24     -14.56       1.71        0.00      95.70       3.06       0.00       2.32       ----

> <Gold.Chemscore.Fitness>
12.2368

> <Gold.Chemscore.DG>
-14.5616

> <Gold.Chemscore.ZeroCoef>
-5.4800

> <Gold.Chemscore.Hbond>
1.7136

> <Gold.Chemscore.Metal>
0.0000

> <Gold.Chemscore.Lipo>
95.6999

> <Gold.Chemscore.Internal_Hbond>
0.0000

> <Gold.Chemscore.DEClash>
0.0009

> <Gold.Chemscore.DEInternal>
2.3239

> <Gold.Chemscore.Rot>
3.0620

> <Gold.Chemscore.Internal.Correction>
   9.000000E+99

> <Gold.Chemscore.Hbonds>
donor molecule, donor type, donor heavy atom, donor atom, acceptor molecule, acceptor atom, score
      L1  H    23    49       P1 10175  0.36
      P1  H  7997  8009       L1     3  0.88

> <Gold.Chemscore.Hbond.Weighted>
-5.7235

> <Gold.Chemscore.Metal.Weighted>
-0.0000

> <Gold.Chemscore.Lipo.Weighted>
-11.1969

> <Gold.Chemscore.Internal_Hbond.Weighted>
0.0000

> <Gold.Chemscore.DEClash.Weighted>
0.0009

> <Gold.Chemscore.DEInternal.Weighted>
2.3239

> <Gold.Chemscore.Rot.Weighted>
7.8388

> <Gold.Chemscore.Internal.Correction.Weighted>
   9.000000E+99

> <Gold.Protein.RotatedTorsions>
[ 6907 6896 6895 6894 ] final  105.10 input  -60.11 | X-H torsion
[ 7974 7965 7964 7962 ] final  -44.92 input  175.53 | X-H torsion
[ 8008 7997 7996 7995 ] final  139.64 input   59.86 | X-H torsion
[ 10167 10162 10161 10158 ] final  -97.80 input  -65.29 | X-H torsion
[ 10718 10713 10712 10709 ] final  -30.86 input   66.30 | X-H torsion
[ 10763 10752 10751 10750 ] final   -4.56 input  -60.55 | X-H torsion
[ 11005 11000 10999 10996 ] final   17.67 input  -57.11 | X-H torsion

> <Gold.Protein.ActiveResidues>
 VAL166  LYS551  ARG553  GLY616  TRP617  ASP618  TYR619  PRO620  LYS621  CYS622 
 ASP623  PHE694  ASN695  SER759  ASP760  ASP761  ALA762  ILE779  LEU786  VAL792 
 PHE793  MET794  SER795  GLU796  ALA797  LYS798  CYS799  TRP800  GLU811  SER814 

> <Gold.Protein.RotatedAtoms>
  152.5242  133.9579  159.7702 H   0  0  0  0  0  0  0  0  0  0  0  0  # atno 6907 bound_to 6896
  150.9876  133.6174  159.2720 H   0  0  0  0  0  0  0  0  0  0  0  0  # atno 6908 bound_to 6896
  151.3329  135.0852  159.9398 H   0  0  0  0  0  0  0  0  0  0  0  0  # atno 6909 bound_to 6896
  145.9872  140.7220  142.9334 H   0  0  0  0  0  0  0  0  0  0  0  0  # atno 7974 bound_to 7965
  156.2987  140.2362  156.4271 H   0  0  0  0  0  0  0  0  0  0  0  0  # atno 8008 bound_to 7997
  154.8304  140.0433  157.1493 H   0  0  0  0  0  0  0  0  0  0  0  0  # atno 8009 bound_to 7997
  154.9215  140.3004  155.5218 H   0  0  0  0  0  0  0  0  0  0  0  0  # atno 8010 bound_to 7997
  140.2797  143.3290  152.0454 H   0  0  0  0  0  0  0  0  0  0  0  0  # atno 10167 bound_to 10162
  156.3945  130.4379  149.7369 H   0  0  0  0  0  0  0  0  0  0  0  0  # atno 10718 bound_to 10713
  153.3865  135.7000  153.6527 H   0  0  0  0  0  0  0  0  0  0  0  0  # atno 10763 bound_to 10752
  153.5117  135.3630  155.2590 H   0  0  0  0  0  0  0  0  0  0  0  0  # atno 10764 bound_to 10752
  154.8698  135.4136  154.3173 H   0  0  0  0  0  0  0  0  0  0  0  0  # atno 10765 bound_to 10752
  140.4334  134.1396  155.7683 H   0  0  0  0  0  0  0  0  0  0  0  0  # atno 11005 bound_to 11000
  144.6878  140.3008  143.7263 LP  0  0  0  0  0  0  0  0  0  0  0  0  # atno 17320 bound_to 7965
  145.7683  139.1848  143.2227 LP  0  0  0  0  0  0  0  0  0  0  0  0  # atno 17321 bound_to 7965
  139.4966  144.6600  151.6485 LP  0  0  0  0  0  0  0  0  0  0  0  0  # atno 17342 bound_to 10162
  140.5822  143.9926  150.6275 LP  0  0  0  0  0  0  0  0  0  0  0  0  # atno 17343 bound_to 10162
  156.4410  130.7861  151.2882 LP  0  0  0  0  0  0  0  0  0  0  0  0  # atno 17370 bound_to 10713
  157.7501  131.0125  150.3387 LP  0  0  0  0  0  0  0  0  0  0  0  0  # atno 17371 bound_to 10713
  141.1736  133.8559  157.1493 LP  0  0  0  0  0  0  0  0  0  0  0  0  # atno 17394 bound_to 11000
  140.0119  134.9984  157.0412 LP  0  0  0  0  0  0  0  0  0  0  0  0  # atno 17395 bound_to 11000

$$$$
