AV-unprocessed.smi:1849|AV-procd|sdf|7520|dock6
  -GOLD-   22720 9223D 1   1.00000     0.00000
 Structure written by MMmdl.
 41 42  0  0  0  0  0  0  0  0  2 V2000
  146.8218  133.0254  151.4411 C   0  0  0  0  0  0  0  0  0  0  0  0
  145.4684  132.9175  150.8917 N   0  0  0  0  0  0  0  0  0  0  0  0
  144.8007  131.7595  150.5851 C   0  0  0  0  0  0  0  0  0  0  0  0
  143.5735  132.1300  150.0999 C   0  0  0  0  0  0  0  0  0  0  0  0
  143.5425  133.4978  150.1310 N   0  3  0  0  0  0  0  0  0  0  0  0
  144.6929  133.9792  150.6163 C   0  0  0  0  0  0  0  0  0  0  0  0
  145.0271  135.4279  150.7853 C   0  0  0  0  0  0  0  0  0  0  0  0
  144.2247  136.0948  151.9149 C   0  0  0  0  0  0  0  0  0  0  0  0
  144.6925  137.4505  152.1762 N   0  0  0  0  0  0  0  0  0  0  0  0
  145.6260  137.7739  153.0821 C   0  0  0  0  0  0  0  0  0  0  0  0
  146.1975  136.9552  153.8027 O   0  0  0  0  0  0  0  0  0  0  0  0
  145.8540  139.0944  153.1129 N   0  0  0  0  0  0  0  0  0  0  0  0
  146.7991  139.7654  154.0001 C   0  0  0  0  0  0  0  0  0  0  0  0
  146.8364  141.2803  153.7078 C   0  0  0  0  0  0  0  0  0  0  0  0
  147.8874  141.9952  154.5721 C   0  0  0  0  0  0  0  0  0  0  0  0
  149.2780  141.3656  154.3954 C   0  0  0  0  0  0  0  0  0  0  0  0
  149.2452  139.8593  154.6964 C   0  0  0  0  0  0  0  0  0  0  0  0
  148.1974  139.1408  153.8308 C   0  0  0  0  0  0  0  0  0  0  0  0
  147.2706  132.0336  151.5036 H   0  0  0  0  0  0  0  0  0  0  0  0
  146.7721  133.4627  152.4388 H   0  0  0  0  0  0  0  0  0  0  0  0
  147.4307  133.6546  150.7914 H   0  0  0  0  0  0  0  0  0  0  0  0
  145.2374  130.7819  150.7299 H   0  0  0  0  0  0  0  0  0  0  0  0
  142.7426  131.5385  149.7436 H   0  0  0  0  0  0  0  0  0  0  0  0
  146.0979  135.4874  150.9843 H   0  0  0  0  0  0  0  0  0  0  0  0
  144.8511  135.9155  149.8261 H   0  0  0  0  0  0  0  0  0  0  0  0
  143.1607  136.1140  151.6741 H   0  0  0  0  0  0  0  0  0  0  0  0
  144.3240  135.5164  152.8338 H   0  0  0  0  0  0  0  0  0  0  0  0
  144.2797  138.1924  151.6296 H   0  0  0  0  0  0  0  0  0  0  0  0
  145.3319  139.6825  152.4797 H   0  0  0  0  0  0  0  0  0  0  0  0
  146.4843  139.6138  155.0347 H   0  0  0  0  0  0  0  0  0  0  0  0
  147.0620  141.4476  152.6536 H   0  0  0  0  0  0  0  0  0  0  0  0
  145.8561  141.7237  153.8870 H   0  0  0  0  0  0  0  0  0  0  0  0
  147.9231  143.0540  154.3139 H   0  0  0  0  0  0  0  0  0  0  0  0
  147.5935  141.9426  155.6212 H   0  0  0  0  0  0  0  0  0  0  0  0
  149.6260  141.5274  153.3744 H   0  0  0  0  0  0  0  0  0  0  0  0
  149.9961  141.8606  155.0496 H   0  0  0  0  0  0  0  0  0  0  0  0
  150.2303  139.4245  154.5243 H   0  0  0  0  0  0  0  0  0  0  0  0
  149.0179  139.7026  155.7516 H   0  0  0  0  0  0  0  0  0  0  0  0
  148.1691  138.0827  154.0939 H   0  0  0  0  0  0  0  0  0  0  0  0
  148.5012  139.1909  152.7840 H   0  0  0  0  0  0  0  0  0  0  0  0
  142.7611  134.0674  149.8315 H   0  0  0  0  0  0  0  0  0  0  0  0
  1  2  1  0  0  0  0
  1 19  1  0  0  0  0
  1 20  1  0  0  0  0
  1 21  1  0  0  0  0
  2  6  1  0  0  0  0
  2  3  1  0  0  0  0
  3  4  2  0  0  0  0
  3 22  1  0  0  0  0
  4  5  1  0  0  0  0
  4 23  1  0  0  0  0
  5  6  2  0  0  0  0
  5 41  1  0  0  0  0
  6  7  1  0  0  0  0
  7  8  1  0  0  0  0
  7 24  1  0  0  0  0
  7 25  1  0  0  0  0
  8  9  1  0  0  0  0
  8 26  1  0  0  0  0
  8 27  1  0  0  0  0
  9 10  1  0  0  0  0
  9 28  1  0  0  0  0
 10 11  2  0  0  0  0
 10 12  1  0  0  0  0
 12 13  1  0  0  0  0
 12 29  1  0  0  0  0
 13 18  1  0  0  0  0
 13 14  1  0  0  0  0
 13 30  1  0  0  0  0
 14 15  1  0  0  0  0
 14 31  1  0  0  0  0
 14 32  1  0  0  0  0
 15 16  1  0  0  0  0
 15 33  1  0  0  0  0
 15 34  1  0  0  0  0
 16 17  1  0  0  0  0
 16 35  1  0  0  0  0
 16 36  1  0  0  0  0
 17 18  1  0  0  0  0
 17 37  1  0  0  0  0
 17 38  1  0  0  0  0
 18 39  1  0  0  0  0
 18 40  1  0  0  0  0
M  CHG  1   5   1
M  END
> <s_m_source_file>
AV-unprocessed.smi

> <i_m_source_file_index>
1849

> <i_lp_mmshare_version>
43012

> <i_f3d_flags>
0

> <s_epik_input>
W0NIM11uMVtjSF1bY0hdbmMxW0NIMl1bQ0gyXVtOSF1DKD1PKVtOSF1bQ0hdMltDSDJdW0NIMl1bQ0gyXVtDSDJdW0NIMl0y

> <s_epik_cmdline>
J2VwaWtfcHl0aG9uJywgJy1waCcsICc3LjAnLCAnLXRuJywgJzgnLCAnLW1hJywgJzIwMCcsICctbWV0YWxfYmluZGluZycsICctaW1hZScsICc8aW5maWxlLm1hZT4nLCAnLW9tYWUnLCAnPG91dGZpbGUubWFlPic=

> <r_lp_tautomer_probability>
1

> <r_epik_Ionization_Penalty>
0.0507041

> <r_epik_Ionization_Penalty_Charging>
0

> <r_epik_Ionization_Penalty_Neutral>
0.0507041

> <r_epik_State_Penalty>
0.0433397

> <r_epik_Charging_Adjusted_Penalty>
0.0433397

> <i_epik_Tot_Q>
1

> <i_epik_Tot_abs_Q>
1

> <r_epik_Metal_State_Penalty>
0.385258

> <b_epik_Metal_Only>
0

> <s_lp_Force_Field>
OPLS_2005

> <r_lp_Energy>
7.33452

> <b_lp_Chiralities_Consistent>
1

> <s_lp_Variant>
AV-unprocessed.smi:1849-1

> <Gold.Version>
5.8.1

> <Gold.Id.Protein>
6NUR|6NUR_protein|mol2

> <Gold.PLP.Fitness>
47.0654

> <Gold.PLP.PLP>
-36.9630

> <Gold.PLP.part.hbond>
-3.5006

> <Gold.PLP.part.metal>
0.0000

> <Gold.PLP.part.buried>
-2.7324

> <Gold.PLP.part.nonpolar>
-31.2602

> <Gold.PLP.part.repulsive>
0.1570

> <Gold.PLP.ligand.clash>
0.0000

> <Gold.PLP.ligand.torsion>
0.3083

> <Gold.PLP.Chemscore.Hbond>
3.5680

> <Gold.PLP.Chemscore.CHOScore>
0.0000

> <Gold.PLP.Chemscore.Metal>
0.0000

> <Gold.Chemscore.Hbonds>
donor molecule, donor type, donor heavy atom, donor atom, acceptor molecule, acceptor atom, score
      L1  H     5    41       P1 10186  2.00
      L1  H     9    28       P1 10171  0.80
      L1  H    12    29       P1 10175  0.74

> <Gold.PLP.Chemscore.Internal.Correction>
0.0149

> <Gold.Rescore>
     Score         DG    S(hbond)    S(metal)    S(lipo)     H(rot)  DE(clash)    DE(int)     intcor
     18.57     -19.05       2.65        0.00      78.09       1.73       0.22       0.26       ----

> <Gold.Chemscore.Fitness>
18.5698

> <Gold.Chemscore.DG>
-19.0540

> <Gold.Chemscore.ZeroCoef>
-5.4800

> <Gold.Chemscore.Hbond>
2.6521

> <Gold.Chemscore.Metal>
0.0000

> <Gold.Chemscore.Lipo>
78.0861

> <Gold.Chemscore.Internal_Hbond>
0.0000

> <Gold.Chemscore.DEClash>
0.2213

> <Gold.Chemscore.DEInternal>
0.2629

> <Gold.Chemscore.Rot>
1.7265

> <Gold.Chemscore.Internal.Correction>
   9.000000E+99

> <Gold.Chemscore.Hbonds>
donor molecule, donor type, donor heavy atom, donor atom, acceptor molecule, acceptor atom, score
      L1  H     5    41       P1 10186  0.98
      L1  H     9    28       P1 10171  0.79
      L1  H    12    29       P1 10175  0.74

> <Gold.Chemscore.Hbond.Weighted>
-8.8579

> <Gold.Chemscore.Metal.Weighted>
-0.0000

> <Gold.Chemscore.Lipo.Weighted>
-9.1361

> <Gold.Chemscore.Internal_Hbond.Weighted>
0.0000

> <Gold.Chemscore.DEClash.Weighted>
0.2213

> <Gold.Chemscore.DEInternal.Weighted>
0.2629

> <Gold.Chemscore.Rot.Weighted>
4.4199

> <Gold.Chemscore.Internal.Correction.Weighted>
   9.000000E+99

> <Gold.Protein.RotatedTorsions>
[ 6907 6896 6895 6894 ] final   65.12 input  -60.11 | X-H torsion
[ 7974 7965 7964 7962 ] final -138.47 input  175.53 | X-H torsion
[ 8008 7997 7996 7995 ] final  136.53 input   59.86 | X-H torsion
[ 10167 10162 10161 10158 ] final  100.16 input  -65.29 | X-H torsion
[ 10718 10713 10712 10709 ] final -101.70 input   66.30 | X-H torsion
[ 10763 10752 10751 10750 ] final   45.19 input  -60.55 | X-H torsion
[ 11005 11000 10999 10996 ] final   46.09 input  -57.11 | X-H torsion

> <Gold.Protein.ActiveResidues>
 VAL166  LYS551  ARG553  GLY616  TRP617  ASP618  TYR619  PRO620  LYS621  CYS622 
 ASP623  PHE694  ASN695  SER759  ASP760  ASP761  ALA762  ILE779  LEU786  VAL792 
 PHE793  MET794  SER795  GLU796  ALA797  LYS798  CYS799  TRP800  GLU811  SER814 

> <Gold.Protein.RotatedAtoms>
  152.4383  134.5641  159.9902 H   0  0  0  0  0  0  0  0  0  0  0  0  # atno 6907 bound_to 6896
  151.5746  133.3380  159.3004 H   0  0  0  0  0  0  0  0  0  0  0  0  # atno 6908 bound_to 6896
  150.8285  134.7562  159.6898 H   0  0  0  0  0  0  0  0  0  0  0  0  # atno 6909 bound_to 6896
  144.8755  140.6431  143.5239 H   0  0  0  0  0  0  0  0  0  0  0  0  # atno 7974 bound_to 7965
  156.3004  140.2442  156.3761 H   0  0  0  0  0  0  0  0  0  0  0  0  # atno 8008 bound_to 7997
  154.8744  140.0415  157.1764 H   0  0  0  0  0  0  0  0  0  0  0  0  # atno 8009 bound_to 7997
  154.8761  140.2942  155.5456 H   0  0  0  0  0  0  0  0  0  0  0  0  # atno 8010 bound_to 7997
  139.7552  144.6972  151.0373 H   0  0  0  0  0  0  0  0  0  0  0  0  # atno 10167 bound_to 10162
  156.0203  130.5386  150.7001 H   0  0  0  0  0  0  0  0  0  0  0  0  # atno 10718 bound_to 10713
  152.9828  135.6047  154.3396 H   0  0  0  0  0  0  0  0  0  0  0  0  # atno 10763 bound_to 10752
  154.3093  135.2771  155.2575 H   0  0  0  0  0  0  0  0  0  0  0  0  # atno 10764 bound_to 10752
  154.4792  135.5921  153.6433 H   0  0  0  0  0  0  0  0  0  0  0  0  # atno 10765 bound_to 10752
  140.1400  134.4595  155.8457 H   0  0  0  0  0  0  0  0  0  0  0  0  # atno 11005 bound_to 11000
  145.4050  139.1590  143.4157 LP  0  0  0  0  0  0  0  0  0  0  0  0  # atno 17320 bound_to 7965
  146.2960  140.4150  142.8721 LP  0  0  0  0  0  0  0  0  0  0  0  0  # atno 17321 bound_to 7965
  140.7802  143.4762  151.0079 LP  0  0  0  0  0  0  0  0  0  0  0  0  # atno 17342 bound_to 10162
  139.8449  143.7515  152.3179 LP  0  0  0  0  0  0  0  0  0  0  0  0  # atno 17343 bound_to 10162
  157.4663  131.0888  151.0691 LP  0  0  0  0  0  0  0  0  0  0  0  0  # atno 17370 bound_to 10713
  157.1164  130.6043  149.5494 LP  0  0  0  0  0  0  0  0  0  0  0  0  # atno 17371 bound_to 10713
  141.2184  133.6829  156.7229 LP  0  0  0  0  0  0  0  0  0  0  0  0  # atno 17394 bound_to 11000
  140.2734  134.8374  157.3868 LP  0  0  0  0  0  0  0  0  0  0  0  0  # atno 17395 bound_to 11000

$$$$
