AV-unprocessed.smi:2295|AV-procd|sdf|9218|dock9
  -GOLD-   2272012433D 1   1.00000     0.00000
 Structure written by MMmdl.
 37 38  0  0  0  0  0  0  0  0  1 V2000
  146.3023  142.6419  153.8744 C   0  0  0  0  0  0  0  0  0  0  0  0
  147.2821  141.4961  154.0168 C   0  0  0  0  0  0  0  0  0  0  0  0
  148.5092  141.6724  154.6843 C   0  0  0  0  0  0  0  0  0  0  0  0
  149.3767  140.5669  154.7836 C   0  0  0  0  0  0  0  0  0  0  0  0
  150.7147  140.6855  155.4824 C   0  0  0  0  0  0  0  0  0  0  0  0
  149.0842  139.3528  154.2708 N   0  0  0  0  0  0  0  0  0  0  0  0
  147.9052  139.1709  153.6258 C   0  0  0  0  0  0  0  0  0  0  0  0
  147.5060  137.9362  153.0485 N   0  0  0  0  0  0  0  0  0  0  0  0
  146.2638  137.4320  152.9432 C   0  0  0  0  0  0  0  0  0  0  0  0
  145.2337  137.9921  153.3195 O   0  0  0  0  0  0  0  0  0  0  0  0
  146.2802  136.2231  152.3622 N   0  0  0  0  0  0  0  0  0  0  0  0
  145.1076  135.3977  152.0869 C   0  0  0  0  0  0  0  0  0  0  0  0
  145.3324  134.4558  150.8891 C   0  0  2  0  0  0  0  0  0  0  0  0
  144.1328  133.5315  150.6372 C   0  0  0  0  0  0  0  0  0  0  0  0
  144.6483  132.3293  149.8455 C   0  0  0  0  0  0  0  0  0  0  0  0
  145.9395  131.8860  150.5327 C   0  0  0  0  0  0  0  0  0  0  0  0
  146.7869  133.3835  151.0953 S   0  0  0  0  0  0  0  0  0  0  0  0
  146.9794  140.2286  153.4796 C   0  0  0  0  0  0  0  0  0  0  0  0
  146.6594  143.5352  154.3877 H   0  0  0  0  0  0  0  0  0  0  0  0
  145.3364  142.3688  154.2996 H   0  0  0  0  0  0  0  0  0  0  0  0
  146.1588  142.8868  152.8218 H   0  0  0  0  0  0  0  0  0  0  0  0
  148.7789  142.6286  155.1085 H   0  0  0  0  0  0  0  0  0  0  0  0
  150.8361  141.6666  155.9421 H   0  0  0  0  0  0  0  0  0  0  0  0
  151.5267  140.5401  154.7694 H   0  0  0  0  0  0  0  0  0  0  0  0
  150.8043  139.9304  156.2638 H   0  0  0  0  0  0  0  0  0  0  0  0
  148.2531  137.3701  152.6750 H   0  0  0  0  0  0  0  0  0  0  0  0
  147.1740  135.8425  152.0884 H   0  0  0  0  0  0  0  0  0  0  0  0
  144.8024  134.8298  152.9676 H   0  0  0  0  0  0  0  0  0  0  0  0
  144.2825  136.0749  151.8645 H   0  0  0  0  0  0  0  0  0  0  0  0
  145.5009  135.0462  149.9874 H   0  0  0  0  0  0  0  0  0  0  0  0
  143.7235  133.1835  151.5868 H   0  0  0  0  0  0  0  0  0  0  0  0
  143.3301  134.0485  150.1105 H   0  0  0  0  0  0  0  0  0  0  0  0
  143.9147  131.5236  149.8027 H   0  0  0  0  0  0  0  0  0  0  0  0
  144.8623  132.6308  148.8193 H   0  0  0  0  0  0  0  0  0  0  0  0
  145.7079  131.2778  151.4075 H   0  0  0  0  0  0  0  0  0  0  0  0
  146.5775  131.2960  149.8745 H   0  0  0  0  0  0  0  0  0  0  0  0
  146.0439  140.0714  152.9622 H   0  0  0  0  0  0  0  0  0  0  0  0
  1  2  1  0  0  0  0
  1 19  1  0  0  0  0
  1 20  1  0  0  0  0
  1 21  1  0  0  0  0
  2 18  1  0  0  0  0
  2  3  2  0  0  0  0
  3  4  1  0  0  0  0
  3 22  1  0  0  0  0
  4  5  1  0  0  0  0
  4  6  2  0  0  0  0
  5 23  1  0  0  0  0
  5 24  1  0  0  0  0
  5 25  1  0  0  0  0
  6  7  1  0  0  0  0
  7  8  1  0  0  0  0
  7 18  2  0  0  0  0
  8  9  1  0  0  0  0
  8 26  1  0  0  0  0
  9 10  2  0  0  0  0
  9 11  1  0  0  0  0
 11 12  1  0  0  0  0
 11 27  1  0  0  0  0
 12 13  1  0  0  0  0
 12 28  1  0  0  0  0
 12 29  1  0  0  0  0
 13 17  1  0  0  0  0
 13 14  1  0  0  0  0
 13 30  1  0  0  0  0
 14 15  1  0  0  0  0
 14 31  1  0  0  0  0
 14 32  1  0  0  0  0
 15 16  1  0  0  0  0
 15 33  1  0  0  0  0
 15 34  1  0  0  0  0
 16 17  1  0  0  0  0
 16 35  1  0  0  0  0
 16 36  1  0  0  0  0
 18 37  1  0  0  0  0
M  END
> <s_m_source_file>
AV-unprocessed.smi

> <i_m_source_file_index>
2295

> <i_lp_mmshare_version>
43012

> <i_f3d_flags>
0

> <s_epik_input>
W0NIM11jMVtjSF1jKFtDSDNdKW5jKFtjSF0xKVtOSF1DKD1PKVtOSF1bQ0gyXVtDQEBIXTJbQ0gyXVtDSDJdW0NIMl1TMg==

> <s_epik_cmdline>
J2VwaWtfcHl0aG9uJywgJy1waCcsICc3LjAnLCAnLXRuJywgJzgnLCAnLW1hJywgJzIwMCcsICctbWV0YWxfYmluZGluZycsICctaW1hZScsICc8aW5maWxlLm1hZT4nLCAnLW9tYWUnLCAnPG91dGZpbGUubWFlPic=

> <r_lp_tautomer_probability>
1

> <r_epik_Ionization_Penalty>
0.000247769

> <r_epik_Ionization_Penalty_Charging>
0

> <r_epik_Ionization_Penalty_Neutral>
0.000247769

> <r_epik_State_Penalty>
-0

> <r_epik_Charging_Adjusted_Penalty>
0

> <i_epik_Tot_Q>
0

> <i_epik_Tot_abs_Q>
0

> <r_epik_Metal_State_Penalty>
-0

> <b_epik_Metal_Only>
0

> <s_lp_Force_Field>
OPLS_2005

> <r_lp_Energy>
13.4664

> <b_lp_Chiralities_Consistent>
1

> <s_lp_Variant>
AV-unprocessed.smi:2295-1

> <Gold.Version>
5.8.1

> <Gold.Id.Protein>
6NUR|6NUR_protein|mol2

> <Gold.PLP.Fitness>
41.2817

> <Gold.PLP.PLP>
-36.3733

> <Gold.PLP.part.hbond>
-1.9697

> <Gold.PLP.part.metal>
0.0000

> <Gold.PLP.part.buried>
-2.9963

> <Gold.PLP.part.nonpolar>
-32.0243

> <Gold.PLP.part.repulsive>
1.4660

> <Gold.PLP.ligand.clash>
0.0000

> <Gold.PLP.ligand.torsion>
0.4141

> <Gold.PLP.Chemscore.Hbond>
1.9120

> <Gold.PLP.Chemscore.CHOScore>
0.0000

> <Gold.PLP.Chemscore.Metal>
0.0000

> <Gold.Chemscore.Hbonds>
donor molecule, donor type, donor heavy atom, donor atom, acceptor molecule, acceptor atom, score
      L1  H     8    26       P1  7948  1.00
      L1  H    11    27       P1  7948  0.91

> <Gold.PLP.Chemscore.Internal.Correction>
0.0006

> <Gold.Rescore>
     Score         DG    S(hbond)    S(metal)    S(lipo)     H(rot)  DE(clash)    DE(int)     intcor
     16.66     -18.95       1.91        0.00      86.34       1.17       0.55       1.74       ----

> <Gold.Chemscore.Fitness>
16.6612

> <Gold.Chemscore.DG>
-18.9487

> <Gold.Chemscore.ZeroCoef>
-5.4800

> <Gold.Chemscore.Hbond>
1.9054

> <Gold.Chemscore.Metal>
0.0000

> <Gold.Chemscore.Lipo>
86.3432

> <Gold.Chemscore.Internal_Hbond>
0.0000

> <Gold.Chemscore.DEClash>
0.5512

> <Gold.Chemscore.DEInternal>
1.7363

> <Gold.Chemscore.Rot>
1.1709

> <Gold.Chemscore.Internal.Correction>
   9.000000E+99

> <Gold.Chemscore.Hbonds>
donor molecule, donor type, donor heavy atom, donor atom, acceptor molecule, acceptor atom, score
      L1  H     8    26       P1  7948  0.95
      L1  H    11    27       P1  7948  0.88

> <Gold.Chemscore.Hbond.Weighted>
-6.3641

> <Gold.Chemscore.Metal.Weighted>
-0.0000

> <Gold.Chemscore.Lipo.Weighted>
-10.1022

> <Gold.Chemscore.Internal_Hbond.Weighted>
0.0000

> <Gold.Chemscore.DEClash.Weighted>
0.5512

> <Gold.Chemscore.DEInternal.Weighted>
1.7363

> <Gold.Chemscore.Rot.Weighted>
2.9975

> <Gold.Chemscore.Internal.Correction.Weighted>
   9.000000E+99

> <Gold.Protein.RotatedTorsions>
[ 6907 6896 6895 6894 ] final  -54.04 input  -60.11 | X-H torsion
[ 7974 7965 7964 7962 ] final  163.47 input  175.53 | X-H torsion
[ 8008 7997 7996 7995 ] final  175.09 input   59.86 | X-H torsion
[ 10167 10162 10161 10158 ] final  113.91 input  -65.29 | X-H torsion
[ 10718 10713 10712 10709 ] final -109.10 input   66.30 | X-H torsion
[ 10763 10752 10751 10750 ] final   12.08 input  -60.55 | X-H torsion
[ 11005 11000 10999 10996 ] final  -17.56 input  -57.11 | X-H torsion

> <Gold.Protein.ActiveResidues>
 VAL166  LYS551  ARG553  GLY616  TRP617  ASP618  TYR619  PRO620  LYS621  CYS622 
 ASP623  PHE694  ASN695  SER759  ASP760  ASP761  ALA762  ILE779  LEU786  VAL792 
 PHE793  MET794  SER795  GLU796  ALA797  LYS798  CYS799  TRP800  GLU811  SER814 

> <Gold.Protein.RotatedAtoms>
  150.8373  134.7651  159.6902 H   0  0  0  0  0  0  0  0  0  0  0  0  # atno 6907 bound_to 6896
  152.4467  134.5476  159.9867 H   0  0  0  0  0  0  0  0  0  0  0  0  # atno 6908 bound_to 6896
  151.5624  133.3363  159.3009 H   0  0  0  0  0  0  0  0  0  0  0  0  # atno 6909 bound_to 6896
  144.7588  139.8187  143.6340 H   0  0  0  0  0  0  0  0  0  0  0  0  # atno 7974 bound_to 7965
  156.0906  140.1417  156.9597 H   0  0  0  0  0  0  0  0  0  0  0  0  # atno 8008 bound_to 7997
  154.4640  140.0933  156.7016 H   0  0  0  0  0  0  0  0  0  0  0  0  # atno 8009 bound_to 7997
  155.4925  140.3448  155.4359 H   0  0  0  0  0  0  0  0  0  0  0  0  # atno 8010 bound_to 7997
  139.6427  144.7125  151.2204 H   0  0  0  0  0  0  0  0  0  0  0  0  # atno 10167 bound_to 10162
  156.0519  130.5747  150.8053 H   0  0  0  0  0  0  0  0  0  0  0  0  # atno 10718 bound_to 10713
  153.1859  135.6835  153.8416 H   0  0  0  0  0  0  0  0  0  0  0  0  # atno 10763 bound_to 10752
  153.7732  135.3193  155.3356 H   0  0  0  0  0  0  0  0  0  0  0  0  # atno 10764 bound_to 10752
  154.8088  135.4731  154.0559 H   0  0  0  0  0  0  0  0  0  0  0  0  # atno 10765 bound_to 10752
  140.8181  133.8089  155.9631 H   0  0  0  0  0  0  0  0  0  0  0  0  # atno 11005 bound_to 11000
  146.1629  139.4750  142.9977 LP  0  0  0  0  0  0  0  0  0  0  0  0  # atno 17320 bound_to 7965
  145.6688  141.0222  143.1669 LP  0  0  0  0  0  0  0  0  0  0  0  0  # atno 17321 bound_to 7965
  140.7499  143.6284  150.8446 LP  0  0  0  0  0  0  0  0  0  0  0  0  # atno 17342 bound_to 10162
  139.9923  143.5833  152.2906 LP  0  0  0  0  0  0  0  0  0  0  0  0  # atno 17343 bound_to 10162
  157.5454  131.0942  150.9770 LP  0  0  0  0  0  0  0  0  0  0  0  0  # atno 17370 bound_to 10713
  157.0042  130.5611  149.5314 LP  0  0  0  0  0  0  0  0  0  0  0  0  # atno 17371 bound_to 10713
  140.9128  134.2239  157.4975 LP  0  0  0  0  0  0  0  0  0  0  0  0  # atno 17394 bound_to 11000
  139.8710  134.9757  156.4895 LP  0  0  0  0  0  0  0  0  0  0  0  0  # atno 17395 bound_to 11000

$$$$
