AV-unprocessed.smi:481|AV-procd|sdf|2681|dock10
  -GOLD-   2262023103D 1   1.00000     0.00000
 Structure written by MMmdl.
 43 45  0  0  0  0  0  0  0  0  1 V2000
  148.9046  131.3676  154.2689 C   0  0  0  0  0  0  0  0  0  0  0  0
  148.8049  132.5624  153.5099 O   0  0  0  0  0  0  0  0  0  0  0  0
  149.4721  133.6745  154.0899 C   0  0  0  0  0  0  0  0  0  0  0  0
  148.6338  134.3289  155.2009 C   0  0  0  0  0  0  0  0  0  0  0  0
  148.4496  135.7553  154.9582 N   0  0  0  0  0  0  0  0  0  0  0  0
  147.3053  136.3992  154.6143 C   0  0  0  0  0  0  0  0  0  0  0  0
  146.1224  135.6635  154.4562 N   0  0  0  0  0  0  0  0  0  0  0  0
  144.9602  136.2249  154.1199 N   0  0  0  0  0  0  0  0  0  0  0  0
  144.3159  135.8833  153.0508 C   0  0  0  0  0  0  0  0  0  0  0  0
  144.6385  134.7818  152.1178 C   0  0  0  0  0  0  0  0  0  0  0  0
  143.6727  133.8434  151.6813 C   0  0  0  0  0  0  0  0  0  0  0  0
  144.0302  132.8110  150.7928 C   0  0  0  0  0  0  0  0  0  0  0  0
  145.3526  132.7129  150.3214 C   0  0  0  0  0  0  0  0  0  0  0  0
  146.3153  133.6529  150.7346 C   0  0  0  0  0  0  0  0  0  0  0  0
  145.9578  134.6848  151.6243 C   0  0  0  0  0  0  0  0  0  0  0  0
  147.4419  137.7219  154.4560 N   0  0  0  0  0  0  0  0  0  0  0  0
  148.7866  137.9336  154.7202 C   0  0  0  0  0  0  0  0  0  0  0  0
  149.4064  136.7669  155.0298 C   0  0  0  0  0  0  0  0  0  0  0  0
  150.8333  136.6959  155.3670 C   0  0  0  0  0  0  0  0  0  0  0  0
  151.4079  135.6509  155.6642 O   0  0  0  0  0  0  0  0  0  0  0  0
  151.4498  137.9021  155.3198 N   0  0  0  0  0  0  0  0  0  0  0  0
  150.8886  139.1114  155.0113 C   0  0  0  0  0  0  0  0  0  0  0  0
  151.5814  140.1288  155.0101 O   0  0  0  0  0  0  0  0  0  0  0  0
  149.5501  139.1354  154.7119 N   0  0  0  0  0  0  0  0  0  0  0  0
  148.8968  140.4025  154.3785 C   0  0  0  0  0  0  0  0  0  0  0  0
  152.4350  137.9101  155.5402 H   0  0  0  0  0  0  0  0  0  0  0  0
  148.4160  130.5555  153.7306 H   0  0  0  0  0  0  0  0  0  0  0  0
  148.4172  131.4598  155.2392 H   0  0  0  0  0  0  0  0  0  0  0  0
  149.9462  131.0845  154.4253 H   0  0  0  0  0  0  0  0  0  0  0  0
  150.4590  133.3874  154.4563 H   0  0  0  0  0  0  0  0  0  0  0  0
  149.6393  134.4011  153.2942 H   0  0  0  0  0  0  0  0  0  0  0  0
  147.6575  133.8514  155.2749 H   0  0  0  0  0  0  0  0  0  0  0  0
  149.0990  134.1914  156.1761 H   0  0  0  0  0  0  0  0  0  0  0  0
  146.1111  134.7858  154.9555 H   0  0  0  0  0  0  0  0  0  0  0  0
  143.4385  136.4786  152.7975 H   0  0  0  0  0  0  0  0  0  0  0  0
  142.6494  133.9077  152.0206 H   0  0  0  0  0  0  0  0  0  0  0  0
  143.2879  132.0956  150.4707 H   0  0  0  0  0  0  0  0  0  0  0  0
  145.6268  131.9214  149.6397 H   0  0  0  0  0  0  0  0  0  0  0  0
  147.3293  133.5827  150.3695 H   0  0  0  0  0  0  0  0  0  0  0  0
  146.7098  135.3967  151.9339 H   0  0  0  0  0  0  0  0  0  0  0  0
  148.9749  141.1031  155.2111 H   0  0  0  0  0  0  0  0  0  0  0  0
  147.8373  140.2822  154.1527 H   0  0  0  0  0  0  0  0  0  0  0  0
  149.3660  140.8573  153.5051 H   0  0  0  0  0  0  0  0  0  0  0  0
  1  2  1  0  0  0  0
  1 27  1  0  0  0  0
  1 28  1  0  0  0  0
  1 29  1  0  0  0  0
  2  3  1  0  0  0  0
  3  4  1  0  0  0  0
  3 30  1  0  0  0  0
  3 31  1  0  0  0  0
  4  5  1  0  0  0  0
  4 32  1  0  0  0  0
  4 33  1  0  0  0  0
  5 18  1  0  0  0  0
  5  6  1  0  0  0  0
  6  7  1  0  0  0  0
  6 16  2  0  0  0  0
  7  8  1  0  0  0  0
  7 34  1  0  0  0  0
  8  9  2  0  0  0  0
  9 10  1  0  0  0  0
  9 35  1  0  0  0  0
 10 15  1  0  0  0  0
 10 11  2  0  0  0  0
 11 12  1  0  0  0  0
 11 36  1  0  0  0  0
 12 13  2  0  0  0  0
 12 37  1  0  0  0  0
 13 14  1  0  0  0  0
 13 38  1  0  0  0  0
 14 15  2  0  0  0  0
 14 39  1  0  0  0  0
 15 40  1  0  0  0  0
 16 17  1  0  0  0  0
 17 24  1  0  0  0  0
 17 18  2  0  0  0  0
 18 19  1  0  0  0  0
 19 20  2  0  0  0  0
 19 21  1  0  0  0  0
 21 26  1  0  0  0  0
 21 22  1  0  0  0  0
 22 23  2  0  0  0  0
 22 24  1  0  0  0  0
 24 25  1  0  0  0  0
 25 41  1  0  0  0  0
 25 42  1  0  0  0  0
 25 43  1  0  0  0  0
M  END
> <s_m_source_file>
AV-unprocessed.smi

> <i_m_source_file_index>
481

> <i_lp_mmshare_version>
43012

> <i_f3d_flags>
0

> <s_epik_input>
W0NIM11uMWMoPU8pW25IXWMoPU8pYyhjMTIpbihbQ0gyXVtDSDJdT1tDSDNdKWMobjIpW05IXS9OPVtDSF0vYzNbY0hdW2NIXVtjSF1bY0hdW2NIXTM=

> <s_epik_cmdline>
J2VwaWtfcHl0aG9uJywgJy1waCcsICc3LjAnLCAnLXRuJywgJzgnLCAnLW1hJywgJzIwMCcsICctbWV0YWxfYmluZGluZycsICctaW1hZScsICc8aW5maWxlLm1hZT4nLCAnLW9tYWUnLCAnPG91dGZpbGUubWFlPic=

> <r_epik_Ionization_Penalty>
0.000595515

> <r_epik_Ionization_Penalty_Charging>
0.000305988

> <r_epik_Ionization_Penalty_Neutral>
0.000289528

> <r_epik_State_Penalty>
0.000184189

> <r_epik_Charging_Adjusted_Penalty>
0.000490177

> <i_epik_Tot_Q>
0

> <i_epik_Tot_abs_Q>
0

> <r_epik_Metal_State_Penalty>
0.173754

> <b_epik_Metal_Only>
0

> <s_epik_Chemistry_Notes>
This compound has an imine and may undergo hydrolysis.

> <s_lp_Force_Field>
OPLS_2005

> <r_lp_Energy>
46.456

> <b_lp_Chiralities_Consistent>
1

> <s_lp_Variant>
AV-unprocessed.smi:481-2

> <Gold.Version>
5.8.1

> <Gold.Id.Protein>
6NUR|6NUR_protein|mol2

> <Gold.PLP.Fitness>
38.9541

> <Gold.PLP.PLP>
-34.9274

> <Gold.PLP.part.hbond>
-2.0000

> <Gold.PLP.part.metal>
0.0000

> <Gold.PLP.part.buried>
-6.1712

> <Gold.PLP.part.nonpolar>
-27.8180

> <Gold.PLP.part.repulsive>
0.4869

> <Gold.PLP.ligand.clash>
0.0000

> <Gold.PLP.ligand.torsion>
1.2638

> <Gold.PLP.Chemscore.Hbond>
2.0000

> <Gold.PLP.Chemscore.CHOScore>
0.0000

> <Gold.PLP.Chemscore.Metal>
0.0000

> <Gold.Chemscore.Hbonds>
donor molecule, donor type, donor heavy atom, donor atom, acceptor molecule, acceptor atom, score
      P1  H  7989  7998       L1    23  1.00
      P1  H 10752 10763       L1    20  1.00

> <Gold.PLP.Chemscore.Internal.Correction>
0.5544

> <Gold.Rescore>
     Score         DG    S(hbond)    S(metal)    S(lipo)     H(rot)  DE(clash)    DE(int)     intcor
     14.73     -16.22       1.96        0.00      69.49       1.54       0.05       1.44       ----

> <Gold.Chemscore.Fitness>
14.7329

> <Gold.Chemscore.DG>
-16.2173

> <Gold.Chemscore.ZeroCoef>
-5.4800

> <Gold.Chemscore.Hbond>
1.9613

> <Gold.Chemscore.Metal>
0.0000

> <Gold.Chemscore.Lipo>
69.4928

> <Gold.Chemscore.Internal_Hbond>
0.0000

> <Gold.Chemscore.DEClash>
0.0487

> <Gold.Chemscore.DEInternal>
1.4356

> <Gold.Chemscore.Rot>
1.5406

> <Gold.Chemscore.Internal.Correction>
   9.000000E+99

> <Gold.Chemscore.Hbonds>
donor molecule, donor type, donor heavy atom, donor atom, acceptor molecule, acceptor atom, score
      P1  H  7989  7998       L1    23  0.81
      P1  H 10752 10763       L1    20  0.91

> <Gold.Chemscore.Hbond.Weighted>
-6.5506

> <Gold.Chemscore.Metal.Weighted>
-0.0000

> <Gold.Chemscore.Lipo.Weighted>
-8.1307

> <Gold.Chemscore.Internal_Hbond.Weighted>
0.0000

> <Gold.Chemscore.DEClash.Weighted>
0.0487

> <Gold.Chemscore.DEInternal.Weighted>
1.4356

> <Gold.Chemscore.Rot.Weighted>
3.9440

> <Gold.Chemscore.Internal.Correction.Weighted>
   9.000000E+99

> <Gold.Protein.RotatedTorsions>
[ 6907 6896 6895 6894 ] final   79.26 input  -60.11 | X-H torsion
[ 7974 7965 7964 7962 ] final   11.09 input  175.53 | X-H torsion
[ 8008 7997 7996 7995 ] final   19.93 input   59.86 | X-H torsion
[ 10167 10162 10161 10158 ] final   46.13 input  -65.29 | X-H torsion
[ 10718 10713 10712 10709 ] final  -88.38 input   66.30 | X-H torsion
[ 10763 10752 10751 10750 ] final   89.00 input  -60.55 | X-H torsion
[ 11005 11000 10999 10996 ] final  -43.34 input  -57.11 | X-H torsion

> <Gold.Protein.ActiveResidues>
 VAL166  LYS551  ARG553  GLY616  TRP617  ASP618  TYR619  PRO620  LYS621  CYS622 
 ASP623  PHE694  ASN695  SER759  ASP760  ASP761  ALA762  ILE779  LEU786  VAL792 
 PHE793  MET794  SER795  GLU796  ALA797  LYS798  CYS799  TRP800  GLU811  SER814 

> <Gold.Protein.RotatedAtoms>
  152.5192  134.3538  159.9260 H   0  0  0  0  0  0  0  0  0  0  0  0  # atno 6907 bound_to 6896
  151.3489  133.3927  159.2686 H   0  0  0  0  0  0  0  0  0  0  0  0  # atno 6908 bound_to 6896
  150.9743  134.9129  159.7864 H   0  0  0  0  0  0  0  0  0  0  0  0  # atno 6909 bound_to 6896
  146.2377  139.9537  142.8467 H   0  0  0  0  0  0  0  0  0  0  0  0  # atno 7974 bound_to 7965
  154.9280  140.3036  155.5182 H   0  0  0  0  0  0  0  0  0  0  0  0  # atno 8008 bound_to 7997
  156.3005  140.2359  156.4274 H   0  0  0  0  0  0  0  0  0  0  0  0  # atno 8009 bound_to 7997
  154.8265  140.0420  157.1436 H   0  0  0  0  0  0  0  0  0  0  0  0  # atno 8010 bound_to 7997
  140.3170  144.2751  150.6189 H   0  0  0  0  0  0  0  0  0  0  0  0  # atno 10167 bound_to 10162
  155.9984  130.4833  150.5010 H   0  0  0  0  0  0  0  0  0  0  0  0  # atno 10718 bound_to 10713
  153.1826  135.4486  155.0047 H   0  0  0  0  0  0  0  0  0  0  0  0  # atno 10763 bound_to 10752
  154.8040  135.3267  154.7482 H   0  0  0  0  0  0  0  0  0  0  0  0  # atno 10764 bound_to 10752
  153.7944  135.6967  153.4921 H   0  0  0  0  0  0  0  0  0  0  0  0  # atno 10765 bound_to 10752
  141.0377  133.6793  156.2719 H   0  0  0  0  0  0  0  0  0  0  0  0  # atno 11005 bound_to 11000
  145.1837  140.9779  143.4251 LP  0  0  0  0  0  0  0  0  0  0  0  0  # atno 17320 bound_to 7965
  144.9919  139.3681  143.6210 LP  0  0  0  0  0  0  0  0  0  0  0  0  # atno 17321 bound_to 7965
  140.5517  143.2205  151.7915 LP  0  0  0  0  0  0  0  0  0  0  0  0  # atno 17342 bound_to 10162
  139.4882  144.4467  151.9701 LP  0  0  0  0  0  0  0  0  0  0  0  0  # atno 17343 bound_to 10162
  157.2994  131.0642  151.2079 LP  0  0  0  0  0  0  0  0  0  0  0  0  # atno 17370 bound_to 10713
  157.3063  130.6868  149.6191 LP  0  0  0  0  0  0  0  0  0  0  0  0  # atno 17371 bound_to 10713
  140.6292  134.5282  157.5557 LP  0  0  0  0  0  0  0  0  0  0  0  0  # atno 17394 bound_to 11000
  139.9253  134.8069  156.1088 LP  0  0  0  0  0  0  0  0  0  0  0  0  # atno 17395 bound_to 11000

$$$$
