AV-unprocessed.smi:2215|AV-procd|sdf|8961|dock3
  -GOLD-   2272012183D 1   1.00000     0.00000
 Structure written by MMmdl.
 40 41  0  0  0  0  0  0  0  0  1 V2000
  151.6365  141.8376  156.8225 C   0  0  0  0  0  0  0  0  0  0  0  0
  150.7392  140.9180  156.0206 C   0  0  0  0  0  0  0  0  0  0  0  0
  151.2294  139.7136  155.4819 C   0  0  0  0  0  0  0  0  0  0  0  0
  150.3518  138.8907  154.7501 C   0  0  0  0  0  0  0  0  0  0  0  0
  149.0073  139.2888  154.5747 C   0  0  0  0  0  0  0  0  0  0  0  0
  148.2047  138.3826  153.8312 N   0  0  0  0  0  0  0  0  0  0  0  0
  146.8633  138.3325  153.7496 C   0  0  0  0  0  0  0  0  0  0  0  0
  146.0857  139.1244  154.2833 O   0  0  0  0  0  0  0  0  0  0  0  0
  146.4624  137.2963  152.9989 N   0  0  0  0  0  0  0  0  0  0  0  0
  145.0725  136.9470  152.7218 C   0  0  0  0  0  0  0  0  0  0  0  0
  144.8951  135.4599  152.3389 C   0  0  1  0  0  0  0  0  0  0  0  0
  143.4365  134.9679  152.4843 C   0  0  0  0  0  0  0  0  0  0  0  0
  143.3024  133.4777  152.1311 C   0  0  0  0  0  0  0  0  0  0  0  0
  143.8339  133.1853  150.7202 C   0  0  0  0  0  0  0  0  0  0  0  0
  145.2864  133.6660  150.5606 C   0  0  0  0  0  0  0  0  0  0  0  0
  145.4474  135.1548  150.9243 C   0  0  1  0  0  0  0  0  0  0  0  0
  144.8036  135.9439  149.9408 O   0  0  0  0  0  0  0  0  0  0  0  0
  148.5445  140.4521  155.0971 N   0  0  0  0  0  0  0  0  0  0  0  0
  149.3864  141.2405  155.7982 C   0  0  0  0  0  0  0  0  0  0  0  0
  152.6847  141.6831  156.5647 H   0  0  0  0  0  0  0  0  0  0  0  0
  151.5130  141.6470  157.8887 H   0  0  0  0  0  0  0  0  0  0  0  0
  151.3904  142.8821  156.6284 H   0  0  0  0  0  0  0  0  0  0  0  0
  152.2591  139.4216  155.6263 H   0  0  0  0  0  0  0  0  0  0  0  0
  150.7116  137.9621  154.3310 H   0  0  0  0  0  0  0  0  0  0  0  0
  148.7112  137.6751  153.3197 H   0  0  0  0  0  0  0  0  0  0  0  0
  147.1689  136.6983  152.5955 H   0  0  0  0  0  0  0  0  0  0  0  0
  144.4920  137.1777  153.6153 H   0  0  0  0  0  0  0  0  0  0  0  0
  144.6833  137.5905  151.9310 H   0  0  0  0  0  0  0  0  0  0  0  0
  145.4978  134.8768  153.0374 H   0  0  0  0  0  0  0  0  0  0  0  0
  143.0844  135.1205  153.5047 H   0  0  0  0  0  0  0  0  0  0  0  0
  142.7802  135.5571  151.8425 H   0  0  0  0  0  0  0  0  0  0  0  0
  143.8519  132.8797  152.8592 H   0  0  0  0  0  0  0  0  0  0  0  0
  142.2586  133.1711  152.2050 H   0  0  0  0  0  0  0  0  0  0  0  0
  143.7731  132.1163  150.5148 H   0  0  0  0  0  0  0  0  0  0  0  0
  143.1987  133.6764  149.9819 H   0  0  0  0  0  0  0  0  0  0  0  0
  145.9305  133.0698  151.2079 H   0  0  0  0  0  0  0  0  0  0  0  0
  145.6308  133.4856  149.5415 H   0  0  0  0  0  0  0  0  0  0  0  0
  146.5077  135.4083  150.8921 H   0  0  0  0  0  0  0  0  0  0  0  0
  145.2356  135.8026  149.1125 H   0  0  0  0  0  0  0  0  0  0  0  0
  148.9657  142.1529  156.1949 H   0  0  0  0  0  0  0  0  0  0  0  0
  1  2  1  0  0  0  0
  1 20  1  0  0  0  0
  1 21  1  0  0  0  0
  1 22  1  0  0  0  0
  2 19  1  0  0  0  0
  2  3  2  0  0  0  0
  3  4  1  0  0  0  0
  3 23  1  0  0  0  0
  4  5  2  0  0  0  0
  4 24  1  0  0  0  0
  5  6  1  0  0  0  0
  5 18  1  0  0  0  0
  6  7  1  0  0  0  0
  6 25  1  0  0  0  0
  7  8  2  0  0  0  0
  7  9  1  0  0  0  0
  9 10  1  0  0  0  0
  9 26  1  0  0  0  0
 10 11  1  0  0  0  0
 10 27  1  0  0  0  0
 10 28  1  0  0  0  0
 11 16  1  0  0  0  0
 11 12  1  0  0  0  0
 11 29  1  0  0  0  0
 12 13  1  0  0  0  0
 12 30  1  0  0  0  0
 12 31  1  0  0  0  0
 13 14  1  0  0  0  0
 13 32  1  0  0  0  0
 13 33  1  0  0  0  0
 14 15  1  0  0  0  0
 14 34  1  0  0  0  0
 14 35  1  0  0  0  0
 15 16  1  0  0  0  0
 15 36  1  0  0  0  0
 15 37  1  0  0  0  0
 16 17  1  0  0  0  0
 16 38  1  0  0  0  0
 17 39  1  0  0  0  0
 18 19  2  0  0  0  0
 19 40  1  0  0  0  0
M  END
> <s_m_source_file>
AV-unprocessed.smi

> <i_m_source_file_index>
2215

> <i_lp_mmshare_version>
43012

> <i_f3d_flags>
0

> <s_epik_input>
W0NIM11jMVtjSF1bY0hdYyhuW2NIXTEpW05IXUMoPU8pW05IXVtDSDJdW0NAQEhdMltDSDJdW0NIMl1bQ0gyXVtDSDJdW0NASF0yW09IXQ==

> <s_epik_cmdline>
J2VwaWtfcHl0aG9uJywgJy1waCcsICc3LjAnLCAnLXRuJywgJzgnLCAnLW1hJywgJzIwMCcsICctbWV0YWxfYmluZGluZycsICctaW1hZScsICc8aW5maWxlLm1hZT4nLCAnLW9tYWUnLCAnPG91dGZpbGUubWFlPic=

> <r_lp_tautomer_probability>
1

> <r_epik_Ionization_Penalty>
6.08491e-05

> <r_epik_Ionization_Penalty_Charging>
0

> <r_epik_Ionization_Penalty_Neutral>
6.08491e-05

> <r_epik_State_Penalty>
-0

> <r_epik_Charging_Adjusted_Penalty>
0

> <i_epik_Tot_Q>
0

> <i_epik_Tot_abs_Q>
0

> <r_epik_Metal_State_Penalty>
-0

> <b_epik_Metal_Only>
0

> <s_lp_Force_Field>
OPLS_2005

> <r_lp_Energy>
16.7167

> <b_lp_Chiralities_Consistent>
1

> <s_lp_Variant>
AV-unprocessed.smi:2215-2

> <Gold.Version>
5.8.1

> <Gold.Id.Protein>
6NUR|6NUR_protein|mol2

> <Gold.PLP.Fitness>
44.3714

> <Gold.PLP.PLP>
-33.0308

> <Gold.PLP.part.hbond>
-4.2584

> <Gold.PLP.part.metal>
0.0000

> <Gold.PLP.part.buried>
-5.1552

> <Gold.PLP.part.nonpolar>
-25.1775

> <Gold.PLP.part.repulsive>
0.5645

> <Gold.PLP.ligand.clash>
0.0000

> <Gold.PLP.ligand.torsion>
0.3366

> <Gold.PLP.Chemscore.Hbond>
3.0000

> <Gold.PLP.Chemscore.CHOScore>
1.0000

> <Gold.PLP.Chemscore.Metal>
0.0000

> <Gold.Chemscore.Hbonds>
donor molecule, donor type, donor heavy atom, donor atom, acceptor molecule, acceptor atom, score
      L1  H     6    25       P1  7948  0.96
      L1  H     9    26       P1  7948  1.00
      L1  H    17    39       P1  7921  1.00
      L1  C    19    40       P1  8028  0.77

> <Gold.PLP.Chemscore.Internal.Correction>
0.0137

> <Gold.Rescore>
     Score         DG    S(hbond)    S(metal)    S(lipo)     H(rot)  DE(clash)    DE(int)     intcor
     17.55     -19.70       2.94        0.00      75.49       1.73       0.39       1.76       ----

> <Gold.Chemscore.Fitness>
17.5500

> <Gold.Chemscore.DG>
-19.7012

> <Gold.Chemscore.ZeroCoef>
-5.4800

> <Gold.Chemscore.Hbond>
2.9423

> <Gold.Chemscore.Metal>
0.0000

> <Gold.Chemscore.Lipo>
75.4925

> <Gold.Chemscore.Internal_Hbond>
0.0000

> <Gold.Chemscore.DEClash>
0.3886

> <Gold.Chemscore.DEInternal>
1.7626

> <Gold.Chemscore.Rot>
1.7339

> <Gold.Chemscore.Internal.Correction>
   9.000000E+99

> <Gold.Chemscore.Hbonds>
donor molecule, donor type, donor heavy atom, donor atom, acceptor molecule, acceptor atom, score
      L1  H     6    25       P1  7948  0.89
      L1  H     9    26       P1  7948  0.97
      L1  H    17    39       P1  7921  0.97

> <Gold.Chemscore.Hbond.Weighted>
-9.8273

> <Gold.Chemscore.Metal.Weighted>
-0.0000

> <Gold.Chemscore.Lipo.Weighted>
-8.8326

> <Gold.Chemscore.Internal_Hbond.Weighted>
0.0000

> <Gold.Chemscore.DEClash.Weighted>
0.3886

> <Gold.Chemscore.DEInternal.Weighted>
1.7626

> <Gold.Chemscore.Rot.Weighted>
4.4387

> <Gold.Chemscore.Internal.Correction.Weighted>
   9.000000E+99

> <Gold.Protein.RotatedTorsions>
[ 6907 6896 6895 6894 ] final   82.27 input  -60.11 | X-H torsion
[ 7974 7965 7964 7962 ] final  -54.37 input  175.53 | X-H torsion
[ 8008 7997 7996 7995 ] final  139.54 input   59.86 | X-H torsion
[ 10167 10162 10161 10158 ] final  -82.69 input  -65.29 | X-H torsion
[ 10718 10713 10712 10709 ] final  -71.96 input   66.30 | X-H torsion
[ 10763 10752 10751 10750 ] final -143.86 input  -60.55 | X-H torsion
[ 11005 11000 10999 10996 ] final -160.62 input  -57.11 | X-H torsion

> <Gold.Protein.ActiveResidues>
 VAL166  LYS551  ARG553  GLY616  TRP617  ASP618  TYR619  PRO620  LYS621  CYS622 
 ASP623  PHE694  ASN695  SER759  ASP760  ASP761  ALA762  ILE779  LEU786  VAL792 
 PHE793  MET794  SER795  GLU796  ALA797  LYS798  CYS799  TRP800  GLU811  SER814 

> <Gold.Protein.RotatedAtoms>
  152.5294  134.3075  159.9100 H   0  0  0  0  0  0  0  0  0  0  0  0  # atno 6907 bound_to 6896
  151.3025  133.4109  159.2648 H   0  0  0  0  0  0  0  0  0  0  0  0  # atno 6908 bound_to 6896
  151.0107  134.9411  159.8062 H   0  0  0  0  0  0  0  0  0  0  0  0  # atno 6909 bound_to 6896
  145.8863  140.8105  142.9814 H   0  0  0  0  0  0  0  0  0  0  0  0  # atno 7974 bound_to 7965
  156.2988  140.2365  156.4253 H   0  0  0  0  0  0  0  0  0  0  0  0  # atno 8008 bound_to 7997
  154.8318  140.0432  157.1502 H   0  0  0  0  0  0  0  0  0  0  0  0  # atno 8009 bound_to 7997
  154.9199  140.3002  155.5225 H   0  0  0  0  0  0  0  0  0  0  0  0  # atno 8010 bound_to 7997
  140.4296  143.2553  151.8777 H   0  0  0  0  0  0  0  0  0  0  0  0  # atno 10167 bound_to 10162
  156.0340  130.4362  150.2522 H   0  0  0  0  0  0  0  0  0  0  0  0  # atno 10718 bound_to 10713
  154.8452  135.3456  154.6255 H   0  0  0  0  0  0  0  0  0  0  0  0  # atno 10763 bound_to 10752
  153.6864  135.6977  153.5107 H   0  0  0  0  0  0  0  0  0  0  0  0  # atno 10764 bound_to 10752
  153.2629  135.4317  155.0867 H   0  0  0  0  0  0  0  0  0  0  0  0  # atno 10765 bound_to 10752
  140.6295  134.4666  157.5228 H   0  0  0  0  0  0  0  0  0  0  0  0  # atno 11005 bound_to 11000
  144.6729  140.1461  143.7433 LP  0  0  0  0  0  0  0  0  0  0  0  0  # atno 17320 bound_to 7965
  145.8962  139.2404  143.1520 LP  0  0  0  0  0  0  0  0  0  0  0  0  # atno 17321 bound_to 7965
  139.4784  144.5349  151.8613 LP  0  0  0  0  0  0  0  0  0  0  0  0  # atno 17342 bound_to 10162
  140.4442  144.1945  150.5893 LP  0  0  0  0  0  0  0  0  0  0  0  0  # atno 17343 bound_to 10162
  157.0622  131.0093  151.3218 LP  0  0  0  0  0  0  0  0  0  0  0  0  # atno 17370 bound_to 10713
  157.5062  130.7910  149.7656 LP  0  0  0  0  0  0  0  0  0  0  0  0  # atno 17371 bound_to 10713
  139.9122  134.8322  156.1490 LP  0  0  0  0  0  0  0  0  0  0  0  0  # atno 17394 bound_to 11000
  141.0686  133.6807  156.2094 LP  0  0  0  0  0  0  0  0  0  0  0  0  # atno 17395 bound_to 11000

$$$$
