AV-unprocessed.smi:1782|AV-procd|sdf|7189|dock3
  -GOLD-   22720 8433D 1   1.00000     0.00000
 Structure written by MMmdl.
 42 44  0  0  0  0  0  0  0  0  2 V2000
  151.3992  136.9664  159.2163 O   0  0  0  0  0  0  0  0  0  0  0  0
  152.0027  137.4698  158.2680 C   0  0  0  0  0  0  0  0  0  0  0  0
  153.3083  138.2461  158.4909 C   0  0  0  0  0  0  0  0  0  0  0  0
  153.0973  139.5659  159.1104 N   0  0  0  0  0  0  0  0  0  0  0  0
  153.7156  139.7939  160.3528 C   0  0  0  0  0  0  0  0  0  0  0  0
  153.5854  140.9586  161.0020 C   0  0  0  0  0  0  0  0  0  0  0  0
  152.7858  141.9936  160.3934 C   0  0  0  0  0  0  0  0  0  0  0  0
  152.1756  141.8025  159.2008 C   0  0  0  0  0  0  0  0  0  0  0  0
  151.3243  142.8865  158.5435 C   0  0  0  0  0  0  0  0  0  0  0  0
  151.8125  143.2019  157.3431 F   0  0  0  0  0  0  0  0  0  0  0  0
  150.0692  142.4648  158.3851 F   0  0  0  0  0  0  0  0  0  0  0  0
  151.2905  144.0012  159.2754 F   0  0  0  0  0  0  0  0  0  0  0  0
  152.3238  140.5134  158.4945 C   0  0  0  0  0  0  0  0  0  0  0  0
  151.7849  140.2895  157.4089 O   0  0  0  0  0  0  0  0  0  0  0  0
  151.5858  137.3671  156.9976 N   0  0  0  0  0  0  0  0  0  0  0  0
  150.3681  136.6834  156.5771 C   0  0  1  0  0  0  0  0  0  0  0  0
  149.2660  137.6061  156.0644 C   0  0  0  0  0  0  0  0  0  0  0  0
  148.3927  136.6551  155.2386 C   0  0  0  0  0  0  0  0  0  0  0  0
  149.2825  135.5707  154.7527 N   0  3  2  0  0  0  0  0  0  0  0  0
  148.7316  134.2143  154.9649 C   0  0  0  0  0  0  0  0  0  0  0  0
  149.5992  133.1152  154.3996 C   0  0  0  0  0  0  0  0  0  0  0  0
  148.3270  133.5200  153.6865 C   0  0  0  0  0  0  0  0  0  0  0  0
  150.6103  135.7736  155.3733 C   0  0  0  0  0  0  0  0  0  0  0  0
  153.9656  137.6311  159.1074 H   0  0  0  0  0  0  0  0  0  0  0  0
  153.8348  138.3612  157.5413 H   0  0  0  0  0  0  0  0  0  0  0  0
  154.2906  138.9667  160.7429 H   0  0  0  0  0  0  0  0  0  0  0  0
  154.0630  141.1172  161.9578 H   0  0  0  0  0  0  0  0  0  0  0  0
  152.6817  142.9334  160.9146 H   0  0  0  0  0  0  0  0  0  0  0  0
  152.1435  137.8039  156.2776 H   0  0  0  0  0  0  0  0  0  0  0  0
  149.9827  136.0811  157.4024 H   0  0  0  0  0  0  0  0  0  0  0  0
  148.7132  138.0980  156.8655 H   0  0  0  0  0  0  0  0  0  0  0  0
  149.6876  138.3795  155.4202 H   0  0  0  0  0  0  0  0  0  0  0  0
  147.6069  136.2417  155.8734 H   0  0  0  0  0  0  0  0  0  0  0  0
  147.9070  137.1646  154.4061 H   0  0  0  0  0  0  0  0  0  0  0  0
  148.1678  134.0566  155.8830 H   0  0  0  0  0  0  0  0  0  0  0  0
  150.5448  133.3918  153.9367 H   0  0  0  0  0  0  0  0  0  0  0  0
  149.5974  132.1575  154.9165 H   0  0  0  0  0  0  0  0  0  0  0  0
  147.4880  132.8287  153.7341 H   0  0  0  0  0  0  0  0  0  0  0  0
  148.4284  134.0641  152.7492 H   0  0  0  0  0  0  0  0  0  0  0  0
  151.2476  136.2720  154.6412 H   0  0  0  0  0  0  0  0  0  0  0  0
  151.0980  134.8373  155.6492 H   0  0  0  0  0  0  0  0  0  0  0  0
  149.4008  135.6905  153.7568 H   0  0  0  0  0  0  0  0  0  0  0  0
  1  2  2  0  0  0  0
  2  3  1  0  0  0  0
  2 15  1  0  0  0  0
  3  4  1  0  0  0  0
  3 24  1  0  0  0  0
  3 25  1  0  0  0  0
  4 13  1  0  0  0  0
  4  5  1  0  0  0  0
  5  6  2  0  0  0  0
  5 26  1  0  0  0  0
  6  7  1  0  0  0  0
  6 27  1  0  0  0  0
  7  8  2  0  0  0  0
  7 28  1  0  0  0  0
  8  9  1  0  0  0  0
  8 13  1  0  0  0  0
  9 10  1  0  0  0  0
  9 11  1  0  0  0  0
  9 12  1  0  0  0  0
 13 14  2  0  0  0  0
 15 16  1  0  0  0  0
 15 29  1  0  0  0  0
 16 23  1  0  0  0  0
 16 17  1  0  0  0  0
 16 30  1  0  0  0  0
 17 18  1  0  0  0  0
 17 31  1  0  0  0  0
 17 32  1  0  0  0  0
 18 19  1  0  0  0  0
 18 33  1  0  0  0  0
 18 34  1  0  0  0  0
 19 20  1  0  0  0  0
 19 23  1  0  0  0  0
 19 42  1  0  0  0  0
 20 22  1  0  0  0  0
 20 21  1  0  0  0  0
 20 35  1  0  0  0  0
 21 22  1  0  0  0  0
 21 36  1  0  0  0  0
 21 37  1  0  0  0  0
 22 38  1  0  0  0  0
 22 39  1  0  0  0  0
 23 40  1  0  0  0  0
 23 41  1  0  0  0  0
M  CHG  1  19   1
M  END
> <s_m_source_file>
AV-unprocessed.smi

> <i_m_source_file_index>
1782

> <i_lp_mmshare_version>
43012

> <i_f3d_flags>
0

> <s_epik_input>
W0NIMl0xW0NIMl1bQ0hdMU4oW0NIMl0yKVtDSDJdW0NIMl1bQ0BIXTJbTkhdQyg9TylbQ0gyXW4zW2NIXVtjSF1bY0hdYyhDKEYpKEYpRiljMz1P

> <s_epik_cmdline>
J2VwaWtfcHl0aG9uJywgJy1waCcsICc3LjAnLCAnLXRuJywgJzgnLCAnLW1hJywgJzIwMCcsICctbWV0YWxfYmluZGluZycsICctaW1hZScsICc8aW5maWxlLm1hZT4nLCAnLW9tYWUnLCAnPG91dGZpbGUubWFlPic=

> <r_lp_tautomer_probability>
1

> <r_epik_Ionization_Penalty>
0.00106789

> <r_epik_Ionization_Penalty_Charging>
0.00106781

> <r_epik_Ionization_Penalty_Neutral>
8.2288e-08

> <r_epik_State_Penalty>
0.000699156

> <r_epik_Charging_Adjusted_Penalty>
0.00176697

> <i_epik_Tot_Q>
1

> <i_epik_Tot_abs_Q>
1

> <r_epik_Metal_State_Penalty>
-0

> <b_epik_Metal_Only>
0

> <s_lp_Force_Field>
OPLS_2005

> <r_lp_Energy>
46.9995

> <b_lp_Chiralities_Consistent>
1

> <s_lp_Variant>
AV-unprocessed.smi:1782-2

> <Gold.Version>
5.8.1

> <Gold.Id.Protein>
6NUR|6NUR_protein|mol2

> <Gold.PLP.Fitness>
45.2493

> <Gold.PLP.PLP>
-36.9336

> <Gold.PLP.part.hbond>
-2.0000

> <Gold.PLP.part.metal>
0.0000

> <Gold.PLP.part.buried>
-6.3777

> <Gold.PLP.part.nonpolar>
-29.3877

> <Gold.PLP.part.repulsive>
0.1120

> <Gold.PLP.ligand.clash>
0.3056

> <Gold.PLP.ligand.torsion>
0.9953

> <Gold.PLP.Chemscore.Hbond>
2.9913

> <Gold.PLP.Chemscore.CHOScore>
0.0000

> <Gold.PLP.Chemscore.Metal>
0.0000

> <Gold.Chemscore.Hbonds>
donor molecule, donor type, donor heavy atom, donor atom, acceptor molecule, acceptor atom, score
      L1  H    19    42       P1  7948  2.00
      P1  H  6896  6908       L1     1  1.00

> <Gold.PLP.Chemscore.Internal.Correction>
1.6382

> <Gold.Rescore>
     Score         DG    S(hbond)    S(metal)    S(lipo)     H(rot)  DE(clash)    DE(int)     intcor
     12.86     -15.69       1.92        0.00      71.92       1.81       0.01       2.82       ----

> <Gold.Chemscore.Fitness>
12.8607

> <Gold.Chemscore.DG>
-15.6898

> <Gold.Chemscore.ZeroCoef>
-5.4800

> <Gold.Chemscore.Hbond>
1.9248

> <Gold.Chemscore.Metal>
0.0000

> <Gold.Chemscore.Lipo>
71.9213

> <Gold.Chemscore.Internal_Hbond>
0.0000

> <Gold.Chemscore.DEClash>
0.0089

> <Gold.Chemscore.DEInternal>
2.8202

> <Gold.Chemscore.Rot>
1.8101

> <Gold.Chemscore.Internal.Correction>
   9.000000E+99

> <Gold.Chemscore.Hbonds>
donor molecule, donor type, donor heavy atom, donor atom, acceptor molecule, acceptor atom, score
      L1  H    19    42       P1  7948  0.43
      P1  H  6896  6908       L1     1  0.98

> <Gold.Chemscore.Hbond.Weighted>
-6.4288

> <Gold.Chemscore.Metal.Weighted>
-0.0000

> <Gold.Chemscore.Lipo.Weighted>
-8.4148

> <Gold.Chemscore.Internal_Hbond.Weighted>
0.0000

> <Gold.Chemscore.DEClash.Weighted>
0.0089

> <Gold.Chemscore.DEInternal.Weighted>
2.8202

> <Gold.Chemscore.Rot.Weighted>
4.6338

> <Gold.Chemscore.Internal.Correction.Weighted>
   9.000000E+99

> <Gold.Protein.RotatedTorsions>
[ 6907 6896 6895 6894 ] final -124.35 input  -60.11 | X-H torsion
[ 7974 7965 7964 7962 ] final   13.29 input  175.53 | X-H torsion
[ 8008 7997 7996 7995 ] final  122.34 input   59.86 | X-H torsion
[ 10167 10162 10161 10158 ] final    2.70 input  -65.29 | X-H torsion
[ 10718 10713 10712 10709 ] final  101.09 input   66.30 | X-H torsion
[ 10763 10752 10751 10750 ] final -102.16 input  -60.55 | X-H torsion
[ 11005 11000 10999 10996 ] final   98.93 input  -57.11 | X-H torsion

> <Gold.Protein.ActiveResidues>
 VAL166  LYS551  ARG553  GLY616  TRP617  ASP618  TYR619  PRO620  LYS621  CYS622 
 ASP623  PHE694  ASN695  SER759  ASP760  ASP761  ALA762  ILE779  LEU786  VAL792 
 PHE793  MET794  SER795  GLU796  ALA797  LYS798  CYS799  TRP800  GLU811  SER814 

> <Gold.Protein.RotatedAtoms>
  150.8759  133.7439  159.2946 H   0  0  0  0  0  0  0  0  0  0  0  0  # atno 6907 bound_to 6896
  151.5036  135.1061  159.9845 H   0  0  0  0  0  0  0  0  0  0  0  0  # atno 6908 bound_to 6896
  152.4727  133.8022  159.7014 H   0  0  0  0  0  0  0  0  0  0  0  0  # atno 6909 bound_to 6896
  146.2332  139.9211  142.8510 H   0  0  0  0  0  0  0  0  0  0  0  0  # atno 7974 bound_to 7965
  156.2724  140.2788  156.1452 H   0  0  0  0  0  0  0  0  0  0  0  0  # atno 8008 bound_to 7997
  155.0911  140.0388  157.2686 H   0  0  0  0  0  0  0  0  0  0  0  0  # atno 8009 bound_to 7997
  154.6889  140.2625  155.6839 H   0  0  0  0  0  0  0  0  0  0  0  0  # atno 8010 bound_to 7997
  140.6622  143.7273  150.7760 H   0  0  0  0  0  0  0  0  0  0  0  0  # atno 10167 bound_to 10162
  157.6838  131.0716  150.5200 H   0  0  0  0  0  0  0  0  0  0  0  0  # atno 10718 bound_to 10713
  154.7713  135.4871  153.9654 H   0  0  0  0  0  0  0  0  0  0  0  0  # atno 10763 bound_to 10752
  153.1371  135.6765  153.9093 H   0  0  0  0  0  0  0  0  0  0  0  0  # atno 10764 bound_to 10752
  153.8779  135.3136  155.3423 H   0  0  0  0  0  0  0  0  0  0  0  0  # atno 10765 bound_to 10752
  139.8771  134.9072  156.4529 H   0  0  0  0  0  0  0  0  0  0  0  0  # atno 11005 bound_to 11000
  145.2136  140.9906  143.4086 LP  0  0  0  0  0  0  0  0  0  0  0  0  # atno 17320 bound_to 7965
  144.9670  139.3919  143.6327 LP  0  0  0  0  0  0  0  0  0  0  0  0  # atno 17321 bound_to 7965
  140.0944  143.4847  152.2460 LP  0  0  0  0  0  0  0  0  0  0  0  0  # atno 17342 bound_to 10162
  139.5860  144.7531  151.3520 LP  0  0  0  0  0  0  0  0  0  0  0  0  # atno 17343 bound_to 10162
  156.5513  130.4232  149.6106 LP  0  0  0  0  0  0  0  0  0  0  0  0  # atno 17370 bound_to 10713
  156.2900  130.7119  151.1965 LP  0  0  0  0  0  0  0  0  0  0  0  0  # atno 17371 bound_to 10713
  140.8919  133.7842  155.9581 LP  0  0  0  0  0  0  0  0  0  0  0  0  # atno 17394 bound_to 11000
  140.8744  134.2687  157.5175 LP  0  0  0  0  0  0  0  0  0  0  0  0  # atno 17395 bound_to 11000

$$$$
