AV-unprocessed.smi:3137|AV-procd|sdf|11952|dock3
  -GOLD-   2272017343D 1   1.00000     0.00000
 Structure written by MMmdl.
 40 40  0  0  0  0  0  0  0  0  2 V2000
  146.9078  144.4494  161.4821 C   0  0  0  0  0  0  0  0  0  0  0  0
  146.2293  145.0123  160.2261 C   0  0  0  0  0  0  0  0  0  0  0  0
  146.6383  144.2936  159.0247 N   0  0  0  0  0  0  0  0  0  0  0  0
  146.8252  142.9672  158.9447 C   0  0  0  0  0  0  0  0  0  0  0  0
  146.6772  142.2056  159.9005 O   0  0  0  0  0  0  0  0  0  0  0  0
  147.2464  142.4223  157.5761 C   0  0  0  0  0  0  0  0  0  0  0  0
  148.7046  141.9326  157.5518 C   0  0  0  0  0  0  0  0  0  0  0  0
  149.6426  143.0584  157.7463 N   0  3  0  0  0  0  0  0  0  0  0  0
  151.0505  142.7844  157.3793 C   0  0  2  0  0  0  0  0  0  0  0  0
  151.3972  141.3326  157.7522 C   0  0  0  0  0  0  0  0  0  0  0  0
  152.0077  143.8088  158.0338 C   0  0  0  0  0  0  0  0  0  0  0  0
  152.1041  143.6629  159.4751 N   0  0  0  0  0  0  0  0  0  0  0  0
  152.5876  142.5941  160.1997 C   0  0  0  0  0  0  0  0  0  0  0  0
  152.4643  142.9062  161.5239 C   0  0  0  0  0  0  0  0  0  0  0  0
  152.8479  142.0849  162.7210 C   0  0  0  0  0  0  0  0  0  0  0  0
  151.8799  144.2045  161.5051 C   0  0  0  0  0  0  0  0  0  0  0  0
  151.6610  144.6521  160.2793 N   0  0  0  0  0  0  0  0  0  0  0  0
  146.6199  145.0201  162.3650 H   0  0  0  0  0  0  0  0  0  0  0  0
  147.9940  144.4940  161.3978 H   0  0  0  0  0  0  0  0  0  0  0  0
  146.6271  143.4102  161.6551 H   0  0  0  0  0  0  0  0  0  0  0  0
  145.1439  144.9827  160.3345 H   0  0  0  0  0  0  0  0  0  0  0  0
  146.4997  146.0611  160.1027 H   0  0  0  0  0  0  0  0  0  0  0  0
  146.7827  144.8466  158.1922 H   0  0  0  0  0  0  0  0  0  0  0  0
  146.5818  141.6015  157.3014 H   0  0  0  0  0  0  0  0  0  0  0  0
  147.1018  143.2068  156.8325 H   0  0  0  0  0  0  0  0  0  0  0  0
  148.8675  141.1950  158.3391 H   0  0  0  0  0  0  0  0  0  0  0  0
  148.9106  141.4421  156.6003 H   0  0  0  0  0  0  0  0  0  0  0  0
  149.3182  143.8574  157.2205 H   0  0  0  0  0  0  0  0  0  0  0  0
  151.1327  142.8667  156.2944 H   0  0  0  0  0  0  0  0  0  0  0  0
  152.3922  141.0542  157.4046 H   0  0  0  0  0  0  0  0  0  0  0  0
  150.6938  140.6330  157.2997 H   0  0  0  0  0  0  0  0  0  0  0  0
  151.3678  141.1825  158.8320 H   0  0  0  0  0  0  0  0  0  0  0  0
  153.0147  143.7193  157.6266 H   0  0  0  0  0  0  0  0  0  0  0  0
  151.6737  144.8242  157.8160 H   0  0  0  0  0  0  0  0  0  0  0  0
  152.9769  141.7085  159.7191 H   0  0  0  0  0  0  0  0  0  0  0  0
  152.2481  142.3391  163.5951 H   0  0  0  0  0  0  0  0  0  0  0  0
  153.8928  142.2357  162.9924 H   0  0  0  0  0  0  0  0  0  0  0  0
  152.7131  141.0185  162.5395 H   0  0  0  0  0  0  0  0  0  0  0  0
  151.6075  144.8305  162.3423 H   0  0  0  0  0  0  0  0  0  0  0  0
  149.6254  143.2942  158.7282 H   0  0  0  0  0  0  0  0  0  0  0  0
  1  2  1  0  0  0  0
  1 18  1  0  0  0  0
  1 19  1  0  0  0  0
  1 20  1  0  0  0  0
  2  3  1  0  0  0  0
  2 21  1  0  0  0  0
  2 22  1  0  0  0  0
  3  4  1  0  0  0  0
  3 23  1  0  0  0  0
  4  5  2  0  0  0  0
  4  6  1  0  0  0  0
  6  7  1  0  0  0  0
  6 24  1  0  0  0  0
  6 25  1  0  0  0  0
  7  8  1  0  0  0  0
  7 26  1  0  0  0  0
  7 27  1  0  0  0  0
  8  9  1  0  0  0  0
  8 28  1  0  0  0  0
  8 40  1  0  0  0  0
  9 10  1  0  0  0  0
  9 11  1  0  0  0  0
  9 29  1  0  0  0  0
 10 30  1  0  0  0  0
 10 31  1  0  0  0  0
 10 32  1  0  0  0  0
 11 12  1  0  0  0  0
 11 33  1  0  0  0  0
 11 34  1  0  0  0  0
 12 17  1  0  0  0  0
 12 13  1  0  0  0  0
 13 14  2  0  0  0  0
 13 35  1  0  0  0  0
 14 15  1  0  0  0  0
 14 16  1  0  0  0  0
 15 36  1  0  0  0  0
 15 37  1  0  0  0  0
 15 38  1  0  0  0  0
 16 17  2  0  0  0  0
 16 39  1  0  0  0  0
M  CHG  1   8   1
M  END
> <s_m_source_file>
AV-unprocessed.smi

> <i_m_source_file_index>
3137

> <i_lp_mmshare_version>
43012

> <i_f3d_flags>
0

> <s_epik_input>
W0NIM11bQ0gyXVtOSF1DKD1PKVtDSDJdW0NIMl1bTkhdW0NASF0oW0NIM10pW0NIMl1uMVtjSF1jKFtDSDNdKVtjSF1uMQ==

> <s_epik_cmdline>
J2VwaWtfcHl0aG9uJywgJy1waCcsICc3LjAnLCAnLXRuJywgJzgnLCAnLW1hJywgJzIwMCcsICctbWV0YWxfYmluZGluZycsICctaW1hZScsICc8aW5maWxlLm1hZT4nLCAnLW9tYWUnLCAnPG91dGZpbGUubWFlPic=

> <r_lp_tautomer_probability>
1

> <r_epik_Ionization_Penalty>
0.00598586

> <r_epik_Ionization_Penalty_Charging>
0.00597743

> <r_epik_Ionization_Penalty_Neutral>
8.43172e-06

> <r_epik_State_Penalty>
0.00439883

> <r_epik_Charging_Adjusted_Penalty>
0.0103763

> <i_epik_Tot_Q>
1

> <i_epik_Tot_abs_Q>
1

> <r_epik_Metal_State_Penalty>
-0

> <b_epik_Metal_Only>
0

> <s_lp_Force_Field>
OPLS_2005

> <r_lp_Energy>
5.54244

> <b_lp_Chiralities_Consistent>
1

> <s_lp_Variant>
AV-unprocessed.smi:3137-1

> <Gold.Version>
5.8.1

> <Gold.Id.Protein>
6NUR|6NUR_protein|mol2

> <Gold.PLP.Fitness>
54.3179

> <Gold.PLP.PLP>
-41.6238

> <Gold.PLP.part.hbond>
-3.8638

> <Gold.PLP.part.metal>
0.0000

> <Gold.PLP.part.buried>
-4.7806

> <Gold.PLP.part.nonpolar>
-33.4926

> <Gold.PLP.part.repulsive>
0.2033

> <Gold.PLP.ligand.clash>
0.0066

> <Gold.PLP.ligand.torsion>
0.5704

> <Gold.PLP.Chemscore.Hbond>
4.5508

> <Gold.PLP.Chemscore.CHOScore>
0.0000

> <Gold.PLP.Chemscore.Metal>
0.0000

> <Gold.Chemscore.Hbonds>
donor molecule, donor type, donor heavy atom, donor atom, acceptor molecule, acceptor atom, score
      L1  H     3    23       P1  8029  0.98
      L1  H     8    28       P1  8028  2.00
      P1  H  6933  6944       L1     5  0.08
      P1  H  6934  6946       L1     5  1.00

> <Gold.PLP.Chemscore.Internal.Correction>
0.1893

> <Gold.Rescore>
     Score         DG    S(hbond)    S(metal)    S(lipo)     H(rot)  DE(clash)    DE(int)     intcor
     16.28     -18.71       2.71        0.00      85.95       2.30       0.15       2.28       ----

> <Gold.Chemscore.Fitness>
16.2814

> <Gold.Chemscore.DG>
-18.7139

> <Gold.Chemscore.ZeroCoef>
-5.4800

> <Gold.Chemscore.Hbond>
2.7115

> <Gold.Chemscore.Metal>
0.0000

> <Gold.Chemscore.Lipo>
85.9483

> <Gold.Chemscore.Internal_Hbond>
0.0000

> <Gold.Chemscore.DEClash>
0.1538

> <Gold.Chemscore.DEInternal>
2.2787

> <Gold.Chemscore.Rot>
2.2963

> <Gold.Chemscore.Internal.Correction>
   9.000000E+99

> <Gold.Chemscore.Hbonds>
donor molecule, donor type, donor heavy atom, donor atom, acceptor molecule, acceptor atom, score
      L1  H     3    23       P1  8029  0.85
      L1  H     8    28       P1  8028  0.44
      P1  H  6933  6944       L1     5  0.08
      P1  H  6934  6946       L1     5  0.95

> <Gold.Chemscore.Hbond.Weighted>
-9.0565

> <Gold.Chemscore.Metal.Weighted>
-0.0000

> <Gold.Chemscore.Lipo.Weighted>
-10.0560

> <Gold.Chemscore.Internal_Hbond.Weighted>
0.0000

> <Gold.Chemscore.DEClash.Weighted>
0.1538

> <Gold.Chemscore.DEInternal.Weighted>
2.2787

> <Gold.Chemscore.Rot.Weighted>
5.8786

> <Gold.Chemscore.Internal.Correction.Weighted>
   9.000000E+99

> <Gold.Protein.RotatedTorsions>
[ 6907 6896 6895 6894 ] final   63.32 input  -60.11 | X-H torsion
[ 7974 7965 7964 7962 ] final   18.72 input  175.53 | X-H torsion
[ 8008 7997 7996 7995 ] final  -19.32 input   59.86 | X-H torsion
[ 10167 10162 10161 10158 ] final  106.80 input  -65.29 | X-H torsion
[ 10718 10713 10712 10709 ] final -135.56 input   66.30 | X-H torsion
[ 10763 10752 10751 10750 ] final  -65.52 input  -60.55 | X-H torsion
[ 11005 11000 10999 10996 ] final  -29.48 input  -57.11 | X-H torsion

> <Gold.Protein.ActiveResidues>
 VAL166  LYS551  ARG553  GLY616  TRP617  ASP618  TYR619  PRO620  LYS621  CYS622 
 ASP623  PHE694  ASN695  SER759  ASP760  ASP761  ALA762  ILE779  LEU786  VAL792 
 PHE793  MET794  SER795  GLU796  ALA797  LYS798  CYS799  TRP800  GLU811  SER814 

> <Gold.Protein.RotatedAtoms>
  152.4243  134.5897  159.9970 H   0  0  0  0  0  0  0  0  0  0  0  0  # atno 6907 bound_to 6896
  151.6037  133.3348  159.3061 H   0  0  0  0  0  0  0  0  0  0  0  0  # atno 6908 bound_to 6896
  150.8132  134.7337  159.6772 H   0  0  0  0  0  0  0  0  0  0  0  0  # atno 6909 bound_to 6896
  146.2175  139.8416  142.8640 H   0  0  0  0  0  0  0  0  0  0  0  0  # atno 7974 bound_to 7965
  154.4845  140.2092  155.9688 H   0  0  0  0  0  0  0  0  0  0  0  0  # atno 8008 bound_to 7997
  156.1215  140.3212  155.8184 H   0  0  0  0  0  0  0  0  0  0  0  0  # atno 8009 bound_to 7997
  155.4460  140.0513  157.2996 H   0  0  0  0  0  0  0  0  0  0  0  0  # atno 8010 bound_to 7997
  139.6980  144.7098  151.1234 H   0  0  0  0  0  0  0  0  0  0  0  0  # atno 10167 bound_to 10162
  156.2675  130.7246  151.1201 H   0  0  0  0  0  0  0  0  0  0  0  0  # atno 10718 bound_to 10713
  154.3462  135.6146  153.5620 H   0  0  0  0  0  0  0  0  0  0  0  0  # atno 10763 bound_to 10752
  152.9801  135.5781  154.4795 H   0  0  0  0  0  0  0  0  0  0  0  0  # atno 10764 bound_to 10752
  154.4508  135.2853  155.1759 H   0  0  0  0  0  0  0  0  0  0  0  0  # atno 10765 bound_to 10752
  140.9300  133.7344  156.0923 H   0  0  0  0  0  0  0  0  0  0  0  0  # atno 11005 bound_to 11000
  145.2893  141.0162  143.3672 LP  0  0  0  0  0  0  0  0  0  0  0  0  # atno 17320 bound_to 7965
  144.9090  139.4553  143.6596 LP  0  0  0  0  0  0  0  0  0  0  0  0  # atno 17321 bound_to 7965
  140.7701  143.5465  150.9253 LP  0  0  0  0  0  0  0  0  0  0  0  0  # atno 17342 bound_to 10162
  139.9145  143.6680  152.3109 LP  0  0  0  0  0  0  0  0  0  0  0  0  # atno 17343 bound_to 10162
  157.7272  131.0640  150.5874 LP  0  0  0  0  0  0  0  0  0  0  0  0  # atno 17370 bound_to 10713
  156.5968  130.4344  149.5914 LP  0  0  0  0  0  0  0  0  0  0  0  0  # atno 17371 bound_to 10713
  140.7875  134.3655  157.5473 LP  0  0  0  0  0  0  0  0  0  0  0  0  # atno 17394 bound_to 11000
  139.8794  134.9120  156.3049 LP  0  0  0  0  0  0  0  0  0  0  0  0  # atno 17395 bound_to 11000

$$$$
