AV-unprocessed.smi:2580|AV-procd|sdf|10129|dock3
  -GOLD-   2272014143D 1   1.00000     0.00000
 Structure written by MMmdl.
 29 30  0  0  0  0  0  0  0  0  1 V2000
  148.8503  141.4140  157.3457 C   0  0  0  0  0  0  0  0  0  0  0  0
  149.4901  140.9415  156.0275 C   0  0  2  0  0  0  0  0  0  0  0  0
  149.2445  139.4839  155.6951 C   0  0  0  0  0  0  0  0  0  0  0  0
  150.2804  139.2542  154.6008 C   0  0  0  0  0  0  0  0  0  0  0  0
  151.4005  140.0601  154.9584 O   0  0  0  0  0  0  0  0  0  0  0  0
  151.0240  141.0673  155.8996 C   0  0  2  0  0  0  0  0  0  0  0  0
  151.8185  140.8148  157.1922 C   0  0  0  0  0  0  0  0  0  0  0  0
  152.4787  139.7822  157.3161 O   0  0  0  0  0  0  0  0  0  0  0  0
  151.7415  141.7873  158.1194 N   0  0  0  0  0  0  0  0  0  0  0  0
  152.3443  141.8363  159.4065 C   0  0  0  0  0  0  0  0  0  0  0  0
  152.9564  140.7678  159.9772 N   0  0  0  0  0  0  0  0  0  0  0  0
  153.5042  140.8939  161.2037 C   0  0  0  0  0  0  0  0  0  0  0  0
  153.4758  142.0920  161.9387 C   0  0  0  0  0  0  0  0  0  0  0  0
  152.8445  143.2075  161.3612 C   0  0  0  0  0  0  0  0  0  0  0  0
  152.2704  143.0821  160.0804 C   0  0  0  0  0  0  0  0  0  0  0  0
  151.4916  144.4535  159.3685 Cl  0  0  0  0  0  0  0  0  0  0  0  0
  149.1634  140.8072  158.1956 H   0  0  0  0  0  0  0  0  0  0  0  0
  147.7631  141.3544  157.2890 H   0  0  0  0  0  0  0  0  0  0  0  0
  149.1131  142.4507  157.5575 H   0  0  0  0  0  0  0  0  0  0  0  0
  149.0531  141.5400  155.2262 H   0  0  0  0  0  0  0  0  0  0  0  0
  149.4516  138.8467  156.5557 H   0  0  0  0  0  0  0  0  0  0  0  0
  148.2257  139.2860  155.3609 H   0  0  0  0  0  0  0  0  0  0  0  0
  150.5584  138.2051  154.4998 H   0  0  0  0  0  0  0  0  0  0  0  0
  149.8981  139.5980  153.6390 H   0  0  0  0  0  0  0  0  0  0  0  0
  151.2844  142.0476  155.4966 H   0  0  0  0  0  0  0  0  0  0  0  0
  151.1759  142.5880  157.8778 H   0  0  0  0  0  0  0  0  0  0  0  0
  153.9788  140.0130  161.6102 H   0  0  0  0  0  0  0  0  0  0  0  0
  153.9260  142.1532  162.9185 H   0  0  0  0  0  0  0  0  0  0  0  0
  152.8013  144.1462  161.8936 H   0  0  0  0  0  0  0  0  0  0  0  0
  1  2  1  0  0  0  0
  1 17  1  0  0  0  0
  1 18  1  0  0  0  0
  1 19  1  0  0  0  0
  2  6  1  0  0  0  0
  2  3  1  0  0  0  0
  2 20  1  0  0  0  0
  3  4  1  0  0  0  0
  3 21  1  0  0  0  0
  3 22  1  0  0  0  0
  4  5  1  0  0  0  0
  4 23  1  0  0  0  0
  4 24  1  0  0  0  0
  5  6  1  0  0  0  0
  6  7  1  0  0  0  0
  6 25  1  0  0  0  0
  7  8  2  0  0  0  0
  7  9  1  0  0  0  0
  9 10  1  0  0  0  0
  9 26  1  0  0  0  0
 10 15  1  0  0  0  0
 10 11  2  0  0  0  0
 11 12  1  0  0  0  0
 12 13  2  0  0  0  0
 12 27  1  0  0  0  0
 13 14  1  0  0  0  0
 13 28  1  0  0  0  0
 14 15  2  0  0  0  0
 14 29  1  0  0  0  0
 15 16  1  0  0  0  0
M  END
> <s_m_source_file>
AV-unprocessed.smi

> <i_m_source_file_index>
2580

> <i_lp_mmshare_version>
43012

> <i_f3d_flags>
0

> <s_epik_input>
W0NIM11bQ0BASF0xW0NIMl1bQ0gyXU9bQ0BIXTFDKD1PKVtOSF1jMm5bY0hdW2NIXVtjSF1jMkNs

> <s_epik_cmdline>
J2VwaWtfcHl0aG9uJywgJy1waCcsICc3LjAnLCAnLXRuJywgJzgnLCAnLW1hJywgJzIwMCcsICctbWV0YWxfYmluZGluZycsICctaW1hZScsICc8aW5maWxlLm1hZT4nLCAnLW9tYWUnLCAnPG91dGZpbGUubWFlPic=

> <r_lp_tautomer_probability>
1

> <r_epik_Ionization_Penalty>
4.32497e-05

> <r_epik_Ionization_Penalty_Charging>
0

> <r_epik_Ionization_Penalty_Neutral>
4.32497e-05

> <r_epik_State_Penalty>
-0

> <r_epik_Charging_Adjusted_Penalty>
0

> <i_epik_Tot_Q>
0

> <i_epik_Tot_abs_Q>
0

> <r_epik_Metal_State_Penalty>
-0

> <b_epik_Metal_Only>
0

> <s_lp_Force_Field>
OPLS_2005

> <r_lp_Energy>
21.8439

> <b_lp_Chiralities_Consistent>
1

> <s_lp_Variant>
AV-unprocessed.smi:2580-3

> <Gold.Version>
5.8.1

> <Gold.Id.Protein>
6NUR|6NUR_protein|mol2

> <Gold.PLP.Fitness>
39.4281

> <Gold.PLP.PLP>
-33.9037

> <Gold.PLP.part.hbond>
-2.0000

> <Gold.PLP.part.metal>
0.0000

> <Gold.PLP.part.buried>
-5.6493

> <Gold.PLP.part.nonpolar>
-26.0582

> <Gold.PLP.part.repulsive>
0.1263

> <Gold.PLP.ligand.clash>
0.0000

> <Gold.PLP.ligand.torsion>
0.2435

> <Gold.PLP.Chemscore.Hbond>
2.0000

> <Gold.PLP.Chemscore.CHOScore>
0.0000

> <Gold.PLP.Chemscore.Metal>
0.0000

> <Gold.Chemscore.Hbonds>
donor molecule, donor type, donor heavy atom, donor atom, acceptor molecule, acceptor atom, score
      P1  H  7989  7998       L1     5  1.00
      P1  H  7997  8009       L1     8  0.99

> <Gold.PLP.Chemscore.Internal.Correction>
0.0113

> <Gold.Rescore>
     Score         DG    S(hbond)    S(metal)    S(lipo)     H(rot)  DE(clash)    DE(int)     intcor
     16.76     -18.38       1.89        0.00      78.18       1.00       0.01       1.61       ----

> <Gold.Chemscore.Fitness>
16.7605

> <Gold.Chemscore.DG>
-18.3822

> <Gold.Chemscore.ZeroCoef>
-5.4800

> <Gold.Chemscore.Hbond>
1.8906

> <Gold.Chemscore.Metal>
0.0000

> <Gold.Chemscore.Lipo>
78.1833

> <Gold.Chemscore.Internal_Hbond>
0.0000

> <Gold.Chemscore.DEClash>
0.0089

> <Gold.Chemscore.DEInternal>
1.6128

> <Gold.Chemscore.Rot>
1.0000

> <Gold.Chemscore.Internal.Correction>
   9.000000E+99

> <Gold.Chemscore.Hbonds>
donor molecule, donor type, donor heavy atom, donor atom, acceptor molecule, acceptor atom, score
      P1  H  7989  7998       L1     5  0.14
      P1  H  7997  8009       L1     8  0.69

> <Gold.Chemscore.Hbond.Weighted>
-6.3148

> <Gold.Chemscore.Metal.Weighted>
-0.0000

> <Gold.Chemscore.Lipo.Weighted>
-9.1474

> <Gold.Chemscore.Internal_Hbond.Weighted>
0.0000

> <Gold.Chemscore.DEClash.Weighted>
0.0089

> <Gold.Chemscore.DEInternal.Weighted>
1.6128

> <Gold.Chemscore.Rot.Weighted>
2.5600

> <Gold.Chemscore.Internal.Correction.Weighted>
   9.000000E+99

> <Gold.Protein.RotatedTorsions>
[ 6907 6896 6895 6894 ] final  -47.68 input  -60.11 | X-H torsion
[ 7974 7965 7964 7962 ] final  167.79 input  175.53 | X-H torsion
[ 8008 7997 7996 7995 ] final -178.80 input   59.86 | X-H torsion
[ 10167 10162 10161 10158 ] final  -37.11 input  -65.29 | X-H torsion
[ 10718 10713 10712 10709 ] final  146.98 input   66.30 | X-H torsion
[ 10763 10752 10751 10750 ] final -158.66 input  -60.55 | X-H torsion
[ 11005 11000 10999 10996 ] final  125.67 input  -57.11 | X-H torsion

> <Gold.Protein.ActiveResidues>
 VAL166  LYS551  ARG553  GLY616  TRP617  ASP618  TYR619  PRO620  LYS621  CYS622 
 ASP623  PHE694  ASN695  SER759  ASP760  ASP761  ALA762  ILE779  LEU786  VAL792 
 PHE793  MET794  SER795  GLU796  ALA797  LYS798  CYS799  TRP800  GLU811  SER814 

> <Gold.Protein.RotatedAtoms>
  150.8983  134.8393  159.7341 H   0  0  0  0  0  0  0  0  0  0  0  0  # atno 6907 bound_to 6896
  152.4877  134.4542  159.9594 H   0  0  0  0  0  0  0  0  0  0  0  0  # atno 6908 bound_to 6896
  151.4597  133.3557  159.2842 H   0  0  0  0  0  0  0  0  0  0  0  0  # atno 6909 bound_to 6896
  144.7411  139.8813  143.6396 H   0  0  0  0  0  0  0  0  0  0  0  0  # atno 7974 bound_to 7965
  156.0231  140.1265  157.0337 H   0  0  0  0  0  0  0  0  0  0  0  0  # atno 8008 bound_to 7997
  154.4319  140.1064  156.6062 H   0  0  0  0  0  0  0  0  0  0  0  0  # atno 8009 bound_to 7997
  155.5916  140.3469  155.4570 H   0  0  0  0  0  0  0  0  0  0  0  0  # atno 8010 bound_to 7997
  140.7126  143.3363  151.2455 H   0  0  0  0  0  0  0  0  0  0  0  0  # atno 10167 bound_to 10162
  157.3266  131.0913  151.1197 H   0  0  0  0  0  0  0  0  0  0  0  0  # atno 10718 bound_to 10713
  154.7539  135.3099  154.8507 H   0  0  0  0  0  0  0  0  0  0  0  0  # atno 10763 bound_to 10752
  153.9287  135.6787  153.4750 H   0  0  0  0  0  0  0  0  0  0  0  0  # atno 10764 bound_to 10752
  153.1135  135.4855  154.9005 H   0  0  0  0  0  0  0  0  0  0  0  0  # atno 10765 bound_to 10752
  139.9418  134.9634  156.8592 H   0  0  0  0  0  0  0  0  0  0  0  0  # atno 11005 bound_to 11000
  146.1209  139.4227  143.0229 LP  0  0  0  0  0  0  0  0  0  0  0  0  # atno 17320 bound_to 7965
  145.7306  141.0044  143.1354 LP  0  0  0  0  0  0  0  0  0  0  0  0  # atno 17321 bound_to 7965
  139.6859  143.9774  152.2834 LP  0  0  0  0  0  0  0  0  0  0  0  0  # atno 17342 bound_to 10162
  139.9419  144.6676  150.8257 LP  0  0  0  0  0  0  0  0  0  0  0  0  # atno 17343 bound_to 10162
  157.2462  130.6592  149.5911 LP  0  0  0  0  0  0  0  0  0  0  0  0  # atno 17370 bound_to 10713
  155.9691  130.4553  150.5881 LP  0  0  0  0  0  0  0  0  0  0  0  0  # atno 17371 bound_to 10713
  140.5934  134.0240  155.7508 LP  0  0  0  0  0  0  0  0  0  0  0  0  # atno 17394 bound_to 11000
  141.1055  133.9701  157.3005 LP  0  0  0  0  0  0  0  0  0  0  0  0  # atno 17395 bound_to 11000

$$$$
