AV-unprocessed.smi:1978|AV-procd|sdf|8001|dock9
  -GOLD-   2272010183D 1   1.00000     0.00000
 Structure written by MMmdl.
 44 45  0  0  0  0  0  0  0  0  3 V2000
  152.3590  140.0567  159.2593 C   0  0  0  0  0  0  0  0  0  0  0  0
  152.0405  139.9624  157.8061 C   0  0  0  0  0  0  0  0  0  0  0  0
  151.0138  140.4503  157.0486 C   0  0  0  0  0  0  0  0  0  0  0  0
  151.3248  139.9848  155.7418 C   0  0  0  0  0  0  0  0  0  0  0  0
  150.6103  140.2190  154.6303 N   0  5  0  0  0  0  0  0  0  0  0  0
  149.2706  140.0362  154.6311 C   0  0  0  0  0  0  0  0  0  0  0  0
  148.4913  140.3280  155.5413 O   0  0  0  0  0  0  0  0  0  0  0  0
  148.8016  139.4874  153.5012 N   0  0  0  0  0  0  0  0  0  0  0  0
  147.3991  139.2028  153.2107 C   0  0  0  0  0  0  0  0  0  0  0  0
  146.8975  137.8775  153.8547 C   0  0  1  0  0  0  0  0  0  0  0  0
  145.7140  138.1898  154.8074 C   0  0  0  0  0  0  0  0  0  0  0  0
  146.5481  136.8514  152.8111 N   0  3  1  0  0  0  0  0  0  0  0  0
  146.0796  135.5477  153.3744 C   0  0  0  0  0  0  0  0  0  0  0  0
  145.9726  134.4637  152.2892 C   0  0  0  0  0  0  0  0  0  0  0  0
  145.0540  134.9025  151.1471 C   0  0  0  0  0  0  0  0  0  0  0  0
  145.5267  136.2536  150.5996 C   0  0  0  0  0  0  0  0  0  0  0  0
  145.6462  137.3228  151.7062 C   0  0  1  0  0  0  0  0  0  0  0  0
  144.2605  137.7972  152.2019 C   0  0  0  0  0  0  0  0  0  0  0  0
  152.4498  139.2906  155.7064 N   0  0  0  0  0  0  0  0  0  0  0  0
  152.9123  139.2665  157.0277 O   0  0  0  0  0  0  0  0  0  0  0  0
  152.6691  141.0685  159.5208 H   0  0  0  0  0  0  0  0  0  0  0  0
  153.1655  139.3749  159.5304 H   0  0  0  0  0  0  0  0  0  0  0  0
  151.4868  139.8034  159.8617 H   0  0  0  0  0  0  0  0  0  0  0  0
  150.1729  141.0424  157.3766 H   0  0  0  0  0  0  0  0  0  0  0  0
  149.4747  139.2576  152.7845 H   0  0  0  0  0  0  0  0  0  0  0  0
  146.8046  140.0404  153.5765 H   0  0  0  0  0  0  0  0  0  0  0  0
  147.3027  139.2106  152.1272 H   0  0  0  0  0  0  0  0  0  0  0  0
  147.7056  137.4623  154.4581 H   0  0  0  0  0  0  0  0  0  0  0  0
  145.9642  138.9663  155.5297 H   0  0  0  0  0  0  0  0  0  0  0  0
  145.4187  137.3318  155.4091 H   0  0  0  0  0  0  0  0  0  0  0  0
  144.8398  138.5321  154.2528 H   0  0  0  0  0  0  0  0  0  0  0  0
  146.7649  135.1611  154.1230 H   0  0  0  0  0  0  0  0  0  0  0  0
  145.1232  135.6796  153.8806 H   0  0  0  0  0  0  0  0  0  0  0  0
  146.9661  134.2448  151.8953 H   0  0  0  0  0  0  0  0  0  0  0  0
  145.6035  133.5353  152.7259 H   0  0  0  0  0  0  0  0  0  0  0  0
  145.0563  134.1537  150.3544 H   0  0  0  0  0  0  0  0  0  0  0  0
  144.0253  134.9747  151.5011 H   0  0  0  0  0  0  0  0  0  0  0  0
  146.4989  136.1229  150.1224 H   0  0  0  0  0  0  0  0  0  0  0  0
  144.8502  136.5945  149.8148 H   0  0  0  0  0  0  0  0  0  0  0  0
  146.1212  138.1678  151.2105 H   0  0  0  0  0  0  0  0  0  0  0  0
  143.6607  138.1635  151.3684 H   0  0  0  0  0  0  0  0  0  0  0  0
  144.3368  138.6142  152.9183 H   0  0  0  0  0  0  0  0  0  0  0  0
  143.6924  136.9993  152.6786 H   0  0  0  0  0  0  0  0  0  0  0  0
  147.4251  136.6441  152.3552 H   0  0  0  0  0  0  0  0  0  0  0  0
  1  2  1  0  0  0  0
  1 21  1  0  0  0  0
  1 22  1  0  0  0  0
  1 23  1  0  0  0  0
  2 20  1  0  0  0  0
  2  3  2  0  0  0  0
  3  4  1  0  0  0  0
  3 24  1  0  0  0  0
  4  5  1  0  0  0  0
  4 19  2  0  0  0  0
  5  6  1  0  0  0  0
  6  7  2  0  0  0  0
  6  8  1  0  0  0  0
  8  9  1  0  0  0  0
  8 25  1  0  0  0  0
  9 10  1  0  0  0  0
  9 26  1  0  0  0  0
  9 27  1  0  0  0  0
 10 11  1  0  0  0  0
 10 12  1  0  0  0  0
 10 28  1  0  0  0  0
 11 29  1  0  0  0  0
 11 30  1  0  0  0  0
 11 31  1  0  0  0  0
 12 17  1  0  0  0  0
 12 13  1  0  0  0  0
 12 44  1  0  0  0  0
 13 14  1  0  0  0  0
 13 32  1  0  0  0  0
 13 33  1  0  0  0  0
 14 15  1  0  0  0  0
 14 34  1  0  0  0  0
 14 35  1  0  0  0  0
 15 16  1  0  0  0  0
 15 36  1  0  0  0  0
 15 37  1  0  0  0  0
 16 17  1  0  0  0  0
 16 38  1  0  0  0  0
 16 39  1  0  0  0  0
 17 18  1  0  0  0  0
 17 40  1  0  0  0  0
 18 41  1  0  0  0  0
 18 42  1  0  0  0  0
 18 43  1  0  0  0  0
 19 20  1  0  0  0  0
M  CHG  1   5  -1
M  CHG  1  12   1
M  END
> <s_m_source_file>
AV-unprocessed.smi

> <i_m_source_file_index>
1978

> <i_lp_mmshare_version>
43012

> <i_f3d_flags>
0

> <s_epik_input>
W0NIM11jMVtjSF1jKG5vMSlbTkhdQyg9TylbTkhdW0NIMl1bQ0BIXShbQ0gzXSlOMltDSDJdW0NIMl1bQ0gyXVtDSDJdW0NASF0yW0NIM10=

> <s_epik_cmdline>
J2VwaWtfcHl0aG9uJywgJy1waCcsICc3LjAnLCAnLXRuJywgJzgnLCAnLW1hJywgJzIwMCcsICctbWV0YWxfYmluZGluZycsICctaW1hZScsICc8aW5maWxlLm1hZT4nLCAnLW9tYWUnLCAnPG91dGZpbGUubWFlPic=

> <r_epik_Ionization_Penalty>
6.22372

> <r_epik_Ionization_Penalty_Charging>
6.22362

> <r_epik_Ionization_Penalty_Neutral>
9.65074e-05

> <r_epik_State_Penalty>
6.22363

> <r_epik_Charging_Adjusted_Penalty>
12.4472

> <i_epik_Tot_Q>
0

> <i_epik_Tot_abs_Q>
2

> <r_epik_Metal_State_Penalty>
2.16675

> <b_epik_Metal_Only>
1

> <s_lp_Force_Field>
OPLS_2005

> <r_lp_Energy>
13.574

> <b_lp_Chiralities_Consistent>
1

> <s_lp_Variant>
AV-unprocessed.smi:1978-10

> <Gold.Version>
5.8.1

> <Gold.Id.Protein>
6NUR|6NUR_protein|mol2

> <Gold.PLP.Fitness>
41.0119

> <Gold.PLP.PLP>
-30.2299

> <Gold.PLP.part.hbond>
-4.6663

> <Gold.PLP.part.metal>
0.0000

> <Gold.PLP.part.buried>
-3.8744

> <Gold.PLP.part.nonpolar>
-22.1213

> <Gold.PLP.part.repulsive>
0.2117

> <Gold.PLP.ligand.clash>
0.0000

> <Gold.PLP.ligand.torsion>
1.6674

> <Gold.PLP.Chemscore.Hbond>
4.6680

> <Gold.PLP.Chemscore.CHOScore>
0.0000

> <Gold.PLP.Chemscore.Metal>
0.0000

> <Gold.Chemscore.Hbonds>
donor molecule, donor type, donor heavy atom, donor atom, acceptor molecule, acceptor atom, score
      L1  H     8    25       P1  7957  0.54
      L1  H    12    44       P1  7948  2.00
      P1  H  7989  7998       L1     5  1.00
      P1  H  7997  8008       L1    20  0.50

> <Gold.PLP.Chemscore.Internal.Correction>
0.1128

> <Gold.Rescore>
     Score         DG    S(hbond)    S(metal)    S(lipo)     H(rot)  DE(clash)    DE(int)     intcor
     14.74     -17.66       2.98        0.00      52.35       1.52       0.00       2.92       ----

> <Gold.Chemscore.Fitness>
14.7393

> <Gold.Chemscore.DG>
-17.6619

> <Gold.Chemscore.ZeroCoef>
-5.4800

> <Gold.Chemscore.Hbond>
2.9778

> <Gold.Chemscore.Metal>
0.0000

> <Gold.Chemscore.Lipo>
52.3480

> <Gold.Chemscore.Internal_Hbond>
0.0000

> <Gold.Chemscore.DEClash>
0.0044

> <Gold.Chemscore.DEInternal>
2.9182

> <Gold.Chemscore.Rot>
1.5190

> <Gold.Chemscore.Internal.Correction>
   9.000000E+99

> <Gold.Chemscore.Hbonds>
donor molecule, donor type, donor heavy atom, donor atom, acceptor molecule, acceptor atom, score
      L1  H     8    25       P1  7957  0.54
      L1  H    12    44       P1  7948  1.00
      P1  H  7989  7998       L1     5  0.65
      P1  H  7997  8008       L1    20  0.02

> <Gold.Chemscore.Hbond.Weighted>
-9.9458

> <Gold.Chemscore.Metal.Weighted>
-0.0000

> <Gold.Chemscore.Lipo.Weighted>
-6.1247

> <Gold.Chemscore.Internal_Hbond.Weighted>
0.0000

> <Gold.Chemscore.DEClash.Weighted>
0.0044

> <Gold.Chemscore.DEInternal.Weighted>
2.9182

> <Gold.Chemscore.Rot.Weighted>
3.8886

> <Gold.Chemscore.Internal.Correction.Weighted>
   9.000000E+99

> <Gold.Protein.RotatedTorsions>
[ 6907 6896 6895 6894 ] final   32.90 input  -60.11 | X-H torsion
[ 7974 7965 7964 7962 ] final   73.45 input  175.53 | X-H torsion
[ 8008 7997 7996 7995 ] final  -54.04 input   59.86 | X-H torsion
[ 10167 10162 10161 10158 ] final  -64.77 input  -65.29 | X-H torsion
[ 10718 10713 10712 10709 ] final -157.58 input   66.30 | X-H torsion
[ 10763 10752 10751 10750 ] final -172.76 input  -60.55 | X-H torsion
[ 11005 11000 10999 10996 ] final  137.91 input  -57.11 | X-H torsion

> <Gold.Protein.ActiveResidues>
 VAL166  LYS551  ARG553  GLY616  TRP617  ASP618  TYR619  PRO620  LYS621  CYS622 
 ASP623  PHE694  ASN695  SER759  ASP760  ASP761  ALA762  ILE779  LEU786  VAL792 
 PHE793  MET794  SER795  GLU796  ALA797  LYS798  CYS799  TRP800  GLU811  SER814 

> <Gold.Protein.RotatedAtoms>
  152.0810  134.9471  160.0573 H   0  0  0  0  0  0  0  0  0  0  0  0  # atno 6907 bound_to 6896
  152.0760  133.4124  159.4488 H   0  0  0  0  0  0  0  0  0  0  0  0  # atno 6908 bound_to 6896
  150.6836  134.2957  159.4729 H   0  0  0  0  0  0  0  0  0  0  0  0  # atno 6909 bound_to 6896
  145.7407  139.2720  143.1488 H   0  0  0  0  0  0  0  0  0  0  0  0  # atno 7974 bound_to 7965
  154.4151  140.1185  156.5251 H   0  0  0  0  0  0  0  0  0  0  0  0  # atno 8008 bound_to 7997
  155.6662  140.3496  155.4782 H   0  0  0  0  0  0  0  0  0  0  0  0  # atno 8009 bound_to 7997
  155.9671  140.1134  157.0835 H   0  0  0  0  0  0  0  0  0  0  0  0  # atno 8010 bound_to 7997
  140.5777  143.2324  151.6407 H   0  0  0  0  0  0  0  0  0  0  0  0  # atno 10167 bound_to 10162
  156.5422  130.8568  151.2752 H   0  0  0  0  0  0  0  0  0  0  0  0  # atno 10718 bound_to 10713
  154.6157  135.2869  155.0383 H   0  0  0  0  0  0  0  0  0  0  0  0  # atno 10763 bound_to 10752
  154.1596  135.6490  153.4986 H   0  0  0  0  0  0  0  0  0  0  0  0  # atno 10764 bound_to 10752
  153.0214  135.5375  154.6927 H   0  0  0  0  0  0  0  0  0  0  0  0  # atno 10765 bound_to 10752
  140.0147  134.9424  157.0350 H   0  0  0  0  0  0  0  0  0  0  0  0  # atno 11005 bound_to 11000
  146.0450  140.8127  142.9810 LP  0  0  0  0  0  0  0  0  0  0  0  0  # atno 17320 bound_to 7965
  144.6871  140.2967  143.7269 LP  0  0  0  0  0  0  0  0  0  0  0  0  # atno 17321 bound_to 7965
  139.5152  144.3386  152.0761 LP  0  0  0  0  0  0  0  0  0  0  0  0  # atno 17342 bound_to 10162
  140.2532  144.4147  150.6214 LP  0  0  0  0  0  0  0  0  0  0  0  0  # atno 17343 bound_to 10162
  157.7403  130.9848  150.2369 LP  0  0  0  0  0  0  0  0  0  0  0  0  # atno 17370 bound_to 10713
  156.2961  130.3752  149.7795 LP  0  0  0  0  0  0  0  0  0  0  0  0  # atno 17371 bound_to 10713
  140.4493  134.1599  155.7180 LP  0  0  0  0  0  0  0  0  0  0  0  0  # atno 17394 bound_to 11000
  141.1734  133.8562  157.1498 LP  0  0  0  0  0  0  0  0  0  0  0  0  # atno 17395 bound_to 11000

$$$$
