AV-unprocessed.smi:281|AV-procd|sdf|2109|dock2
  -GOLD-   2262021403D 1   1.00000     0.00000
 Structure written by MMmdl.
 55 59  0  0  0  0  0  0  0  0  1 V2000
  145.3391  139.7538  158.5570 C   0  0  0  0  0  0  0  0  0  0  0  0
  145.3371  139.9081  157.0328 C   0  0  2  0  0  0  0  0  0  0  0  0
  144.8830  138.6204  156.3240 C   0  0  0  0  0  0  0  0  0  0  0  0
  145.0049  138.7756  154.8795 N   0  0  0  0  0  0  0  0  0  0  0  0
  144.3412  137.8507  154.1406 C   0  0  0  0  0  0  0  0  0  0  0  0
  143.1019  137.4386  154.5211 N   0  0  0  0  0  0  0  0  0  0  0  0
  142.4370  136.5360  153.7946 C   0  0  0  0  0  0  0  0  0  0  0  0
  142.8191  135.9225  152.6733 N   0  0  0  0  0  0  0  0  0  0  0  0
  144.0666  136.3200  152.2924 C   0  0  0  0  0  0  0  0  0  0  0  0
  144.8879  137.2725  152.9599 C   0  0  0  0  0  0  0  0  0  0  0  0
  146.0914  137.4161  152.2796 N   0  0  0  0  0  0  0  0  0  0  0  0
  145.9827  136.6053  151.2633 C   0  0  0  0  0  0  0  0  0  0  0  0
  144.8048  135.8949  151.2010 N   0  0  0  0  0  0  0  0  0  0  0  0
  144.4267  134.9209  150.1878 C   0  0  0  0  0  0  0  0  0  0  0  0
  144.2684  133.4684  150.7112 C   0  0  1  0  0  0  0  0  0  0  0  0
  143.0358  133.3985  151.4014 O   0  0  0  0  0  0  0  0  0  0  0  0
  144.3053  132.3981  149.6210 C   0  0  0  0  0  0  0  0  0  0  0  0
  145.7395  131.8556  149.6523 C   0  0  0  0  0  0  0  0  0  0  0  0
  146.3904  132.5088  150.7353 O   0  0  0  0  0  0  0  0  0  0  0  0
  145.4045  133.0034  151.6272 C   0  0  0  0  0  0  0  0  0  0  0  0
  146.3514  139.1551  154.4611 C   0  0  0  0  0  0  0  0  0  0  0  0
  146.8186  140.4294  155.2095 C   0  0  2  0  0  0  0  0  0  0  0  0
  146.1017  141.6907  154.7359 C   0  0  0  0  0  0  0  0  0  0  0  0
  146.9130  142.1106  153.5161 C   0  0  0  0  0  0  0  0  0  0  0  0
  148.2488  141.7097  153.7931 O   0  0  0  0  0  0  0  0  0  0  0  0
  148.2783  140.8345  154.9180 C   0  0  2  0  0  0  0  0  0  0  0  0
  149.2847  139.6965  154.6958 C   0  0  0  0  0  0  0  0  0  0  0  0
  146.6628  140.2403  156.6193 O   0  0  0  0  0  0  0  0  0  0  0  0
  144.3428  139.5122  158.9280 H   0  0  0  0  0  0  0  0  0  0  0  0
  145.6590  140.6768  159.0410 H   0  0  0  0  0  0  0  0  0  0  0  0
  146.0163  138.9597  158.8727 H   0  0  0  0  0  0  0  0  0  0  0  0
  144.6584  140.7223  156.7757 H   0  0  0  0  0  0  0  0  0  0  0  0
  145.5021  137.7795  156.6398 H   0  0  0  0  0  0  0  0  0  0  0  0
  143.8605  138.3854  156.6169 H   0  0  0  0  0  0  0  0  0  0  0  0
  141.4589  136.2668  154.1650 H   0  0  0  0  0  0  0  0  0  0  0  0
  146.7694  136.4962  150.5312 H   0  0  0  0  0  0  0  0  0  0  0  0
  143.4961  135.2554  149.7273 H   0  0  0  0  0  0  0  0  0  0  0  0
  145.1802  134.9506  149.3995 H   0  0  0  0  0  0  0  0  0  0  0  0
  142.3528  133.7079  150.8264 H   0  0  0  0  0  0  0  0  0  0  0  0
  143.6194  131.5820  149.8553 H   0  0  0  0  0  0  0  0  0  0  0  0
  144.0193  132.7798  148.6409 H   0  0  0  0  0  0  0  0  0  0  0  0
  145.7421  130.7773  149.8158 H   0  0  0  0  0  0  0  0  0  0  0  0
  146.2739  132.0586  148.7238 H   0  0  0  0  0  0  0  0  0  0  0  0
  145.7907  133.7911  152.2737 H   0  0  0  0  0  0  0  0  0  0  0  0
  145.0802  132.1789  152.2650 H   0  0  0  0  0  0  0  0  0  0  0  0
  147.0165  138.3202  154.6846 H   0  0  0  0  0  0  0  0  0  0  0  0
  146.3846  139.3140  153.3826 H   0  0  0  0  0  0  0  0  0  0  0  0
  145.0455  141.5433  154.5085 H   0  0  0  0  0  0  0  0  0  0  0  0
  146.1725  142.4666  155.4996 H   0  0  0  0  0  0  0  0  0  0  0  0
  146.5669  141.5856  152.6253 H   0  0  0  0  0  0  0  0  0  0  0  0
  146.8498  143.1816  153.3225 H   0  0  0  0  0  0  0  0  0  0  0  0
  148.6314  141.4417  155.7534 H   0  0  0  0  0  0  0  0  0  0  0  0
  149.2973  139.0125  155.5447 H   0  0  0  0  0  0  0  0  0  0  0  0
  150.2930  140.0930  154.5750 H   0  0  0  0  0  0  0  0  0  0  0  0
  149.0517  139.1222  153.7989 H   0  0  0  0  0  0  0  0  0  0  0  0
  1  2  1  0  0  0  0
  1 29  1  0  0  0  0
  1 30  1  0  0  0  0
  1 31  1  0  0  0  0
  2 28  1  0  0  0  0
  2  3  1  0  0  0  0
  2 32  1  0  0  0  0
  3  4  1  0  0  0  0
  3 33  1  0  0  0  0
  3 34  1  0  0  0  0
  4  5  1  0  0  0  0
  4 21  1  0  0  0  0
  5 10  1  0  0  0  0
  5  6  2  0  0  0  0
  6  7  1  0  0  0  0
  7  8  2  0  0  0  0
  7 35  1  0  0  0  0
  8  9  1  0  0  0  0
  9 13  1  0  0  0  0
  9 10  2  0  0  0  0
 10 11  1  0  0  0  0
 11 12  2  0  0  0  0
 12 13  1  0  0  0  0
 12 36  1  0  0  0  0
 13 14  1  0  0  0  0
 14 15  1  0  0  0  0
 14 37  1  0  0  0  0
 14 38  1  0  0  0  0
 15 20  1  0  0  0  0
 15 16  1  0  0  0  0
 15 17  1  0  0  0  0
 16 39  1  0  0  0  0
 17 18  1  0  0  0  0
 17 40  1  0  0  0  0
 17 41  1  0  0  0  0
 18 19  1  0  0  0  0
 18 42  1  0  0  0  0
 18 43  1  0  0  0  0
 19 20  1  0  0  0  0
 20 44  1  0  0  0  0
 20 45  1  0  0  0  0
 21 22  1  0  0  0  0
 21 46  1  0  0  0  0
 21 47  1  0  0  0  0
 22 26  1  0  0  0  0
 22 23  1  0  0  0  0
 22 28  1  0  0  0  0
 23 24  1  0  0  0  0
 23 48  1  0  0  0  0
 23 49  1  0  0  0  0
 24 25  1  0  0  0  0
 24 50  1  0  0  0  0
 24 51  1  0  0  0  0
 25 26  1  0  0  0  0
 26 27  1  0  0  0  0
 26 52  1  0  0  0  0
 27 53  1  0  0  0  0
 27 54  1  0  0  0  0
 27 55  1  0  0  0  0
M  END
> <s_m_source_file>
AV-unprocessed.smi

> <i_m_source_file_index>
281

> <i_lp_mmshare_version>
43012

> <i_f3d_flags>
0

> <s_epik_input>
W0NIM11bQ0BASF0xT1tDSDJdW0NIMl1bQ0BAXTEyW0NIMl1OKFtDSDJdW0NASF0oTzIpW0NIM10pYyhuW2NIXW4zKWMoYzM0KW5bY0hdbjRbQ0gyXVtDQEBdNShbT0hdKVtDSDJdW0NIMl1PW0NIMl01

> <s_epik_cmdline>
J2VwaWtfcHl0aG9uJywgJy1waCcsICc3LjAnLCAnLXRuJywgJzgnLCAnLW1hJywgJzIwMCcsICctbWV0YWxfYmluZGluZycsICctaW1hZScsICc8aW5maWxlLm1hZT4nLCAnLW9tYWUnLCAnPG91dGZpbGUubWFlPic=

> <r_lp_tautomer_probability>
1

> <r_epik_Ionization_Penalty>
0.00571331

> <r_epik_Ionization_Penalty_Charging>
0

> <r_epik_Ionization_Penalty_Neutral>
0.00571331

> <r_epik_State_Penalty>
0.00399586

> <r_epik_Charging_Adjusted_Penalty>
0.00399586

> <i_epik_Tot_Q>
0

> <i_epik_Tot_abs_Q>
0

> <r_epik_Metal_State_Penalty>
-0

> <b_epik_Metal_Only>
0

> <s_lp_Force_Field>
OPLS_2005

> <r_lp_Energy>
56.9386

> <b_lp_Chiralities_Consistent>
1

> <s_lp_Variant>
AV-unprocessed.smi:281-9

> <Gold.Version>
5.8.1

> <Gold.Id.Protein>
6NUR|6NUR_protein|mol2

> <Gold.PLP.Fitness>
39.3007

> <Gold.PLP.PLP>
-34.3710

> <Gold.PLP.part.hbond>
-2.0000

> <Gold.PLP.part.metal>
0.0000

> <Gold.PLP.part.buried>
-4.1314

> <Gold.PLP.part.nonpolar>
-29.7358

> <Gold.PLP.part.repulsive>
1.2192

> <Gold.PLP.ligand.clash>
0.0000

> <Gold.PLP.ligand.torsion>
0.5014

> <Gold.PLP.Chemscore.Hbond>
1.3271

> <Gold.PLP.Chemscore.CHOScore>
0.5458

> <Gold.PLP.Chemscore.Metal>
0.0000

> <Gold.Chemscore.Hbonds>
donor molecule, donor type, donor heavy atom, donor atom, acceptor molecule, acceptor atom, score
      L1  H    16    39       P1 10186  1.00
      P1  H  8011  8017       L1    25  0.27
      L1  C    12    36       P1  7948  0.55

> <Gold.PLP.Chemscore.Internal.Correction>
0.3139

> <Gold.Rescore>
     Score         DG    S(hbond)    S(metal)    S(lipo)     H(rot)  DE(clash)    DE(int)     intcor
     10.82     -13.38       1.28        0.00      76.78       2.09       0.56       2.00       ----

> <Gold.Chemscore.Fitness>
10.8162

> <Gold.Chemscore.DG>
-13.3786

> <Gold.Chemscore.ZeroCoef>
-5.4800

> <Gold.Chemscore.Hbond>
1.2794

> <Gold.Chemscore.Metal>
0.0000

> <Gold.Chemscore.Lipo>
76.7765

> <Gold.Chemscore.Internal_Hbond>
0.0000

> <Gold.Chemscore.DEClash>
0.5585

> <Gold.Chemscore.DEInternal>
2.0038

> <Gold.Chemscore.Rot>
2.0927

> <Gold.Chemscore.Internal.Correction>
   9.000000E+99

> <Gold.Chemscore.Hbonds>
donor molecule, donor type, donor heavy atom, donor atom, acceptor molecule, acceptor atom, score
      L1  H    16    39       P1 10186  0.77
      P1  H  8011  8017       L1    25  0.24

> <Gold.Chemscore.Hbond.Weighted>
-4.2731

> <Gold.Chemscore.Metal.Weighted>
-0.0000

> <Gold.Chemscore.Lipo.Weighted>
-8.9829

> <Gold.Chemscore.Internal_Hbond.Weighted>
0.0000

> <Gold.Chemscore.DEClash.Weighted>
0.5585

> <Gold.Chemscore.DEInternal.Weighted>
2.0038

> <Gold.Chemscore.Rot.Weighted>
5.3573

> <Gold.Chemscore.Internal.Correction.Weighted>
   9.000000E+99

> <Gold.Protein.RotatedTorsions>
[ 6907 6896 6895 6894 ] final -161.71 input  -60.11 | X-H torsion
[ 7974 7965 7964 7962 ] final  118.35 input  175.53 | X-H torsion
[ 8008 7997 7996 7995 ] final -146.54 input   59.86 | X-H torsion
[ 10167 10162 10161 10158 ] final -163.53 input  -65.29 | X-H torsion
[ 10718 10713 10712 10709 ] final  120.38 input   66.30 | X-H torsion
[ 10763 10752 10751 10750 ] final  -69.60 input  -60.55 | X-H torsion
[ 11005 11000 10999 10996 ] final   30.17 input  -57.11 | X-H torsion

> <Gold.Protein.ActiveResidues>
 VAL166  LYS551  ARG553  GLY616  TRP617  ASP618  TYR619  PRO620  LYS621  CYS622 
 ASP623  PHE694  ASN695  SER759  ASP760  ASP761  ALA762  ILE779  LEU786  VAL792 
 PHE793  MET794  SER795  GLU796  ALA797  LYS798  CYS799  TRP800  GLU811  SER814 

> <Gold.Protein.RotatedAtoms>
  151.3688  133.3862  159.2697 H   0  0  0  0  0  0  0  0  0  0  0  0  # atno 6907 bound_to 6896
  150.9667  134.9048  159.7774 H   0  0  0  0  0  0  0  0  0  0  0  0  # atno 6908 bound_to 6896
  152.5169  134.3649  159.9350 H   0  0  0  0  0  0  0  0  0  0  0  0  # atno 6909 bound_to 6896
  145.1563  139.3181  143.4540 H   0  0  0  0  0  0  0  0  0  0  0  0  # atno 7974 bound_to 7965
  155.5610  140.0625  157.2829 H   0  0  0  0  0  0  0  0  0  0  0  0  # atno 8008 bound_to 7997
  154.4390  140.1885  156.0828 H   0  0  0  0  0  0  0  0  0  0  0  0  # atno 8009 bound_to 7997
  156.0447  140.3291  155.7286 H   0  0  0  0  0  0  0  0  0  0  0  0  # atno 8010 bound_to 7997
  139.6314  144.0432  152.2019 H   0  0  0  0  0  0  0  0  0  0  0  0  # atno 10167 bound_to 10162
  157.5895  131.1066  150.8027 H   0  0  0  0  0  0  0  0  0  0  0  0  # atno 10718 bound_to 10713
  154.4057  135.6020  153.5923 H   0  0  0  0  0  0  0  0  0  0  0  0  # atno 10763 bound_to 10752
  152.9789  135.5917  154.4130 H   0  0  0  0  0  0  0  0  0  0  0  0  # atno 10764 bound_to 10752
  154.3935  135.2842  155.2118 H   0  0  0  0  0  0  0  0  0  0  0  0  # atno 10765 bound_to 10752
  140.2972  134.2798  155.7762 H   0  0  0  0  0  0  0  0  0  0  0  0  # atno 11005 bound_to 11000
  146.3488  140.1656  142.8590 LP  0  0  0  0  0  0  0  0  0  0  0  0  # atno 17320 bound_to 7965
  145.0378  140.8922  143.5071 LP  0  0  0  0  0  0  0  0  0  0  0  0  # atno 17321 bound_to 7965
  140.0098  144.6232  150.7657 LP  0  0  0  0  0  0  0  0  0  0  0  0  # atno 17342 bound_to 10162
  140.7441  143.2856  151.3473 LP  0  0  0  0  0  0  0  0  0  0  0  0  # atno 17343 bound_to 10162
  156.8453  130.5062  149.5317 LP  0  0  0  0  0  0  0  0  0  0  0  0  # atno 17370 bound_to 10713
  156.0948  130.5924  150.9794 LP  0  0  0  0  0  0  0  0  0  0  0  0  # atno 17371 bound_to 10713
  141.2135  133.7622  156.9712 LP  0  0  0  0  0  0  0  0  0  0  0  0  # atno 17394 bound_to 11000
  140.1142  134.9458  157.2110 LP  0  0  0  0  0  0  0  0  0  0  0  0  # atno 17395 bound_to 11000

$$$$
