AV-unprocessed.smi:1552|AV-procd|sdf|6236|dock5
  -GOLD-   22720 6413D 1   1.00000     0.00000
 Structure written by MMmdl.
 49 50  0  0  0  0  0  0  0  0  3 V2000
  145.9272  137.3545  149.8538 C   0  0  0  0  0  0  0  0  0  0  0  0
  146.1373  137.1961  151.3119 N   0  3  0  0  0  0  0  0  0  0  0  0
  146.4350  138.4898  151.9721 C   0  0  0  0  0  0  0  0  0  0  0  0
  145.1103  136.3367  151.9822 C   0  0  2  0  0  0  0  0  0  0  0  0
  145.3122  136.2384  153.5199 C   0  0  0  0  0  0  0  0  0  0  0  0
  146.7062  136.0121  153.8947 N   0  0  0  0  0  0  0  0  0  0  0  0
  147.2497  136.0151  155.1232 C   0  0  0  0  0  0  0  0  0  0  0  0
  146.5543  136.2567  156.1078 O   0  0  0  0  0  0  0  0  0  0  0  0
  148.7541  135.7532  155.3185 C   0  0  0  0  0  0  0  0  0  0  0  0
  149.0711  134.3196  155.2224 N   0  0  0  0  0  0  0  0  0  0  0  0
  148.7508  133.6548  154.0250 C   0  0  0  0  0  0  0  0  0  0  0  0
  149.0164  132.3468  153.8451 C   0  0  0  0  0  0  0  0  0  0  0  0
  149.6548  131.6161  154.9327 C   0  0  0  0  0  0  0  0  0  0  0  0
  149.9045  130.4212  154.7872 O   0  0  0  0  0  0  0  0  0  0  0  0
  149.9481  132.3056  156.0740 N   0  5  0  0  0  0  0  0  0  0  0  0
  149.6720  133.6354  156.2426 C   0  0  0  0  0  0  0  0  0  0  0  0
  149.9475  134.2360  157.2818 O   0  0  0  0  0  0  0  0  0  0  0  0
  144.9371  134.9676  151.2570 C   0  0  0  0  0  0  0  0  0  0  0  0
  143.7579  134.1511  151.8424 C   0  0  0  0  0  0  0  0  0  0  0  0
  143.5830  132.7953  151.1394 C   0  0  0  0  0  0  0  0  0  0  0  0
  144.8724  131.9664  151.2000 C   0  0  0  0  0  0  0  0  0  0  0  0
  146.0514  132.7527  150.6125 C   0  0  0  0  0  0  0  0  0  0  0  0
  146.2245  134.1087  151.3155 C   0  0  0  0  0  0  0  0  0  0  0  0
  145.0469  137.9580  149.6341 H   0  0  0  0  0  0  0  0  0  0  0  0
  145.8105  136.3865  149.3659 H   0  0  0  0  0  0  0  0  0  0  0  0
  146.7880  137.8462  149.3996 H   0  0  0  0  0  0  0  0  0  0  0  0
  145.6124  139.1956  151.8626 H   0  0  0  0  0  0  0  0  0  0  0  0
  147.3181  138.9449  151.5231 H   0  0  0  0  0  0  0  0  0  0  0  0
  146.6421  138.3618  153.0337 H   0  0  0  0  0  0  0  0  0  0  0  0
  144.1617  136.8573  151.8418 H   0  0  0  0  0  0  0  0  0  0  0  0
  144.9109  137.1319  153.9916 H   0  0  0  0  0  0  0  0  0  0  0  0
  144.7265  135.4089  153.9166 H   0  0  0  0  0  0  0  0  0  0  0  0
  147.3465  135.8686  153.1272 H   0  0  0  0  0  0  0  0  0  0  0  0
  149.3854  136.3276  154.6429 H   0  0  0  0  0  0  0  0  0  0  0  0
  149.0207  136.1264  156.3081 H   0  0  0  0  0  0  0  0  0  0  0  0
  148.2870  134.2684  153.2666 H   0  0  0  0  0  0  0  0  0  0  0  0
  148.7666  131.8522  152.9181 H   0  0  0  0  0  0  0  0  0  0  0  0
  144.7181  135.1507  150.2047 H   0  0  0  0  0  0  0  0  0  0  0  0
  143.9167  133.9872  152.9092 H   0  0  0  0  0  0  0  0  0  0  0  0
  142.8234  134.7052  151.7533 H   0  0  0  0  0  0  0  0  0  0  0  0
  142.7645  132.2411  151.5998 H   0  0  0  0  0  0  0  0  0  0  0  0
  143.3001  132.9562  150.0984 H   0  0  0  0  0  0  0  0  0  0  0  0
  145.0888  131.6980  152.2350 H   0  0  0  0  0  0  0  0  0  0  0  0
  144.7402  131.0299  150.6574 H   0  0  0  0  0  0  0  0  0  0  0  0
  146.9676  132.1686  150.7020 H   0  0  0  0  0  0  0  0  0  0  0  0
  145.8901  132.9121  149.5455 H   0  0  0  0  0  0  0  0  0  0  0  0
  147.0585  134.6294  150.8460 H   0  0  0  0  0  0  0  0  0  0  0  0
  146.5110  133.9445  152.3551 H   0  0  0  0  0  0  0  0  0  0  0  0
  146.9918  136.6630  151.3853 H   0  0  0  0  0  0  0  0  0  0  0  0
  1  2  1  0  0  0  0
  1 24  1  0  0  0  0
  1 25  1  0  0  0  0
  1 26  1  0  0  0  0
  2  3  1  0  0  0  0
  2  4  1  0  0  0  0
  2 49  1  0  0  0  0
  3 27  1  0  0  0  0
  3 28  1  0  0  0  0
  3 29  1  0  0  0  0
  4  5  1  0  0  0  0
  4 18  1  0  0  0  0
  4 30  1  0  0  0  0
  5  6  1  0  0  0  0
  5 31  1  0  0  0  0
  5 32  1  0  0  0  0
  6  7  1  0  0  0  0
  6 33  1  0  0  0  0
  7  8  2  0  0  0  0
  7  9  1  0  0  0  0
  9 10  1  0  0  0  0
  9 34  1  0  0  0  0
  9 35  1  0  0  0  0
 10 16  1  0  0  0  0
 10 11  1  0  0  0  0
 11 12  2  0  0  0  0
 11 36  1  0  0  0  0
 12 13  1  0  0  0  0
 12 37  1  0  0  0  0
 13 14  2  0  0  0  0
 13 15  1  0  0  0  0
 15 16  1  0  0  0  0
 16 17  2  0  0  0  0
 18 23  1  0  0  0  0
 18 19  1  0  0  0  0
 18 38  1  0  0  0  0
 19 20  1  0  0  0  0
 19 39  1  0  0  0  0
 19 40  1  0  0  0  0
 20 21  1  0  0  0  0
 20 41  1  0  0  0  0
 20 42  1  0  0  0  0
 21 22  1  0  0  0  0
 21 43  1  0  0  0  0
 21 44  1  0  0  0  0
 22 23  1  0  0  0  0
 22 45  1  0  0  0  0
 22 46  1  0  0  0  0
 23 47  1  0  0  0  0
 23 48  1  0  0  0  0
M  CHG  1   2   1
M  CHG  1  15  -1
M  END
> <s_m_source_file>
AV-unprocessed.smi

> <i_m_source_file_index>
1552

> <i_lp_mmshare_version>
43012

> <i_f3d_flags>
0

> <s_epik_input>
W0NIMl0xW0NIMl1bQ0gyXVtDSDJdW0NIMl1bQ0hdMVtDQEhdKE4oW0NIM10pW0NIM10pW0NIMl1bTkhdQyg9TylbQ0gyXW4yW2NIXVtjSF1jKD1PKVtuSF1jMj1P

> <s_epik_cmdline>
J2VwaWtfcHl0aG9uJywgJy1waCcsICc3LjAnLCAnLXRuJywgJzgnLCAnLW1hJywgJzIwMCcsICctbWV0YWxfYmluZGluZycsICctaW1hZScsICc8aW5maWxlLm1hZT4nLCAnLW9tYWUnLCAnPG91dGZpbGUubWFlPic=

> <r_lp_tautomer_probability>
1

> <r_epik_Ionization_Penalty>
2.93575

> <r_epik_Ionization_Penalty_Charging>
0.00331645

> <r_epik_Ionization_Penalty_Neutral>
2.93244

> <r_epik_State_Penalty>
2.92822

> <r_epik_Charging_Adjusted_Penalty>
2.93154

> <i_epik_Tot_Q>
0

> <i_epik_Tot_abs_Q>
2

> <r_epik_Metal_State_Penalty>
0.448509

> <b_epik_Metal_Only>
1

> <s_lp_Force_Field>
OPLS_2005

> <r_lp_Energy>
39.5493

> <b_lp_Chiralities_Consistent>
1

> <s_lp_Variant>
AV-unprocessed.smi:1552-3

> <Gold.Version>
5.8.1

> <Gold.Id.Protein>
6NUR|6NUR_protein|mol2

> <Gold.PLP.Fitness>
50.1448

> <Gold.PLP.PLP>
-38.0790

> <Gold.PLP.part.hbond>
-3.5052

> <Gold.PLP.part.metal>
0.0000

> <Gold.PLP.part.buried>
-0.3598

> <Gold.PLP.part.nonpolar>
-35.8624

> <Gold.PLP.part.repulsive>
0.1625

> <Gold.PLP.ligand.clash>
0.0000

> <Gold.PLP.ligand.torsion>
0.5672

> <Gold.PLP.Chemscore.Hbond>
3.2930

> <Gold.PLP.Chemscore.CHOScore>
0.9980

> <Gold.PLP.Chemscore.Metal>
0.0000

> <Gold.Chemscore.Hbonds>
donor molecule, donor type, donor heavy atom, donor atom, acceptor molecule, acceptor atom, score
      L1  H     2    49       P1  7948  2.00
      L1  H     6    33       P1  7948  0.89
      P1  H  6896  6908       L1    17  0.38
      L1  C    11    36       P1  7948  1.00

> <Gold.PLP.Chemscore.Internal.Correction>
0.3272

> <Gold.Rescore>
     Score         DG    S(hbond)    S(metal)    S(lipo)     H(rot)  DE(clash)    DE(int)     intcor
     15.09     -18.49       2.85        0.00      83.10       2.43       2.76       0.64       ----

> <Gold.Chemscore.Fitness>
15.0932

> <Gold.Chemscore.DG>
-18.4948

> <Gold.Chemscore.ZeroCoef>
-5.4800

> <Gold.Chemscore.Hbond>
2.8485

> <Gold.Chemscore.Metal>
0.0000

> <Gold.Chemscore.Lipo>
83.0999

> <Gold.Chemscore.Internal_Hbond>
0.0000

> <Gold.Chemscore.DEClash>
2.7621

> <Gold.Chemscore.DEInternal>
0.6394

> <Gold.Chemscore.Rot>
2.4305

> <Gold.Chemscore.Internal.Correction>
   9.000000E+99

> <Gold.Chemscore.Hbonds>
donor molecule, donor type, donor heavy atom, donor atom, acceptor molecule, acceptor atom, score
      L1  H     2    49       P1  7948  0.93
      L1  H     6    33       P1  7948  0.87
      P1  H  6896  6908       L1    17  0.38

> <Gold.Chemscore.Hbond.Weighted>
-9.5141

> <Gold.Chemscore.Metal.Weighted>
-0.0000

> <Gold.Chemscore.Lipo.Weighted>
-9.7227

> <Gold.Chemscore.Internal_Hbond.Weighted>
0.0000

> <Gold.Chemscore.DEClash.Weighted>
2.7621

> <Gold.Chemscore.DEInternal.Weighted>
0.6394

> <Gold.Chemscore.Rot.Weighted>
6.2220

> <Gold.Chemscore.Internal.Correction.Weighted>
   9.000000E+99

> <Gold.Protein.RotatedTorsions>
[ 6907 6896 6895 6894 ] final  109.45 input  -60.11 | X-H torsion
[ 7974 7965 7964 7962 ] final  125.39 input  175.53 | X-H torsion
[ 8008 7997 7996 7995 ] final  -39.63 input   59.86 | X-H torsion
[ 10167 10162 10161 10158 ] final   28.37 input  -65.29 | X-H torsion
[ 10718 10713 10712 10709 ] final  163.55 input   66.30 | X-H torsion
[ 10763 10752 10751 10750 ] final   24.25 input  -60.55 | X-H torsion
[ 11005 11000 10999 10996 ] final   78.02 input  -57.11 | X-H torsion

> <Gold.Protein.ActiveResidues>
 VAL166  LYS551  ARG553  GLY616  TRP617  ASP618  TYR619  PRO620  LYS621  CYS622 
 ASP623  PHE694  ASN695  SER759  ASP760  ASP761  ALA762  ILE779  LEU786  VAL792 
 PHE793  MET794  SER795  GLU796  ALA797  LYS798  CYS799  TRP800  GLU811  SER814 

> <Gold.Protein.RotatedAtoms>
  152.5067  133.8943  159.7409 H   0  0  0  0  0  0  0  0  0  0  0  0  # atno 6907 bound_to 6896
  150.9374  133.6687  159.2804 H   0  0  0  0  0  0  0  0  0  0  0  0  # atno 6908 bound_to 6896
  151.4010  135.0976  159.9608 H   0  0  0  0  0  0  0  0  0  0  0  0  # atno 6909 bound_to 6896
  145.0735  139.3712  143.4945 H   0  0  0  0  0  0  0  0  0  0  0  0  # atno 7974 bound_to 7965
  154.4021  140.1546  156.2895 H   0  0  0  0  0  0  0  0  0  0  0  0  # atno 8008 bound_to 7997
  155.8798  140.3444  155.5857 H   0  0  0  0  0  0  0  0  0  0  0  0  # atno 8009 bound_to 7997
  155.7680  140.0826  157.2112 H   0  0  0  0  0  0  0  0  0  0  0  0  # atno 8010 bound_to 7997
  140.4858  144.0544  150.6280 H   0  0  0  0  0  0  0  0  0  0  0  0  # atno 10167 bound_to 10162
  157.1069  131.0457  151.2474 H   0  0  0  0  0  0  0  0  0  0  0  0  # atno 10718 bound_to 10713
  153.0778  135.6609  154.0109 H   0  0  0  0  0  0  0  0  0  0  0  0  # atno 10763 bound_to 10752
  153.9739  135.2962  155.3427 H   0  0  0  0  0  0  0  0  0  0  0  0  # atno 10764 bound_to 10752
  154.7170  135.5181  153.8824 H   0  0  0  0  0  0  0  0  0  0  0  0  # atno 10765 bound_to 10752
  139.9230  134.7730  156.1597 H   0  0  0  0  0  0  0  0  0  0  0  0  # atno 11005 bound_to 11000
  146.3529  140.0491  142.8637 LP  0  0  0  0  0  0  0  0  0  0  0  0  # atno 17320 bound_to 7965
  145.1264  140.9492  143.4570 LP  0  0  0  0  0  0  0  0  0  0  0  0  # atno 17321 bound_to 7965
  140.3799  143.2808  152.0182 LP  0  0  0  0  0  0  0  0  0  0  0  0  # atno 17342 bound_to 10162
  139.4842  144.6163  151.7340 LP  0  0  0  0  0  0  0  0  0  0  0  0  # atno 17343 bound_to 10162
  157.4593  130.7644  149.7221 LP  0  0  0  0  0  0  0  0  0  0  0  0  # atno 17370 bound_to 10713
  155.9860  130.3978  150.3235 LP  0  0  0  0  0  0  0  0  0  0  0  0  # atno 17371 bound_to 10713
  141.0765  133.6773  156.2248 LP  0  0  0  0  0  0  0  0  0  0  0  0  # atno 17394 bound_to 11000
  140.6419  134.5157  157.5570 LP  0  0  0  0  0  0  0  0  0  0  0  0  # atno 17395 bound_to 11000

$$$$
