AV-unprocessed.smi:3283|AV-procd|sdf|12571|dock5
  -GOLD-   2272018493D 1   1.00000     0.00000
 Structure written by MMmdl.
 44 45  0  0  0  0  0  0  0  0  2 V2000
  151.9956  138.3608  154.4096 C   0  0  0  0  0  0  0  0  0  0  0  0
  151.0157  139.3227  155.0618 C   0  0  0  0  0  0  0  0  0  0  0  0
  151.2314  139.7853  156.3093 C   0  0  0  0  0  0  0  0  0  0  0  0
  150.3504  140.7942  157.0245 C   0  0  0  0  0  0  0  0  0  0  0  0
  149.0579  141.1183  156.2577 C   0  0  0  0  0  0  0  0  0  0  0  0
  149.2978  141.1551  154.7381 C   0  0  2  0  0  0  0  0  0  0  0  0
  148.0805  141.7034  153.9739 C   0  0  0  0  0  0  0  0  0  0  0  0
  149.8155  139.7824  154.2223 C   0  0  2  0  0  0  0  0  0  0  0  0
  148.6990  138.7074  154.1447 C   0  0  0  0  0  0  0  0  0  0  0  0
  148.0854  138.6075  152.8061 N   0  3  0  0  0  0  0  0  0  0  0  0
  146.6261  138.8245  152.7909 C   0  0  0  0  0  0  0  0  0  0  0  0
  145.8844  137.6087  153.3651 C   0  0  0  0  0  0  0  0  0  0  0  0
  145.3792  136.6487  152.3306 C   0  0  0  0  0  0  0  0  0  0  0  0
  146.0449  135.9350  151.3711 C   0  0  0  0  0  0  0  0  0  0  0  0
  145.0229  135.2031  150.7068 C   0  0  0  0  0  0  0  0  0  0  0  0
  143.8242  135.4401  151.2081 N   0  0  0  0  0  0  0  0  0  0  0  0
  144.0380  136.3255  152.2036 N   0  0  0  0  0  0  0  0  0  0  0  0
  142.8954  136.7944  152.9654 C   0  0  0  0  0  0  0  0  0  0  0  0
  152.2598  138.7029  153.4086 H   0  0  0  0  0  0  0  0  0  0  0  0
  151.5844  137.3553  154.3386 H   0  0  0  0  0  0  0  0  0  0  0  0
  152.9177  138.2908  154.9877 H   0  0  0  0  0  0  0  0  0  0  0  0
  152.1040  139.4587  156.8562 H   0  0  0  0  0  0  0  0  0  0  0  0
  150.1134  140.4278  158.0238 H   0  0  0  0  0  0  0  0  0  0  0  0
  150.9371  141.7041  157.1546 H   0  0  0  0  0  0  0  0  0  0  0  0
  148.2960  140.3750  156.4933 H   0  0  0  0  0  0  0  0  0  0  0  0
  148.6624  142.0731  156.6065 H   0  0  0  0  0  0  0  0  0  0  0  0
  150.1003  141.8746  154.5648 H   0  0  0  0  0  0  0  0  0  0  0  0
  147.1723  141.1431  154.1960 H   0  0  0  0  0  0  0  0  0  0  0  0
  148.2441  141.6735  152.8965 H   0  0  0  0  0  0  0  0  0  0  0  0
  147.8903  142.7419  154.2465 H   0  0  0  0  0  0  0  0  0  0  0  0
  150.1825  139.9519  153.2089 H   0  0  0  0  0  0  0  0  0  0  0  0
  149.0929  137.7301  154.4256 H   0  0  0  0  0  0  0  0  0  0  0  0
  147.8957  138.9397  154.8429 H   0  0  0  0  0  0  0  0  0  0  0  0
  148.5189  139.2906  152.2012 H   0  0  0  0  0  0  0  0  0  0  0  0
  146.3900  139.7150  153.3752 H   0  0  0  0  0  0  0  0  0  0  0  0
  146.3056  139.0125  151.7652 H   0  0  0  0  0  0  0  0  0  0  0  0
  146.5468  137.0754  154.0482 H   0  0  0  0  0  0  0  0  0  0  0  0
  145.0433  137.9586  153.9651 H   0  0  0  0  0  0  0  0  0  0  0  0
  147.1060  135.9315  151.1699 H   0  0  0  0  0  0  0  0  0  0  0  0
  145.1158  134.5119  149.8823 H   0  0  0  0  0  0  0  0  0  0  0  0
  143.2020  137.5010  153.7359 H   0  0  0  0  0  0  0  0  0  0  0  0
  142.4006  135.9484  153.4437 H   0  0  0  0  0  0  0  0  0  0  0  0
  142.1879  137.2887  152.2988 H   0  0  0  0  0  0  0  0  0  0  0  0
  148.2755  137.6854  152.4403 H   0  0  0  0  0  0  0  0  0  0  0  0
  1  2  1  0  0  0  0
  1 19  1  0  0  0  0
  1 20  1  0  0  0  0
  1 21  1  0  0  0  0
  2  8  1  0  0  0  0
  2  3  2  0  0  0  0
  3  4  1  0  0  0  0
  3 22  1  0  0  0  0
  4  5  1  0  0  0  0
  4 23  1  0  0  0  0
  4 24  1  0  0  0  0
  5  6  1  0  0  0  0
  5 25  1  0  0  0  0
  5 26  1  0  0  0  0
  6  7  1  0  0  0  0
  6  8  1  0  0  0  0
  6 27  1  0  0  0  0
  7 28  1  0  0  0  0
  7 29  1  0  0  0  0
  7 30  1  0  0  0  0
  8  9  1  0  0  0  0
  8 31  1  0  0  0  0
  9 10  1  0  0  0  0
  9 32  1  0  0  0  0
  9 33  1  0  0  0  0
 10 11  1  0  0  0  0
 10 34  1  0  0  0  0
 10 44  1  0  0  0  0
 11 12  1  0  0  0  0
 11 35  1  0  0  0  0
 11 36  1  0  0  0  0
 12 13  1  0  0  0  0
 12 37  1  0  0  0  0
 12 38  1  0  0  0  0
 13 17  1  0  0  0  0
 13 14  2  0  0  0  0
 14 15  1  0  0  0  0
 14 39  1  0  0  0  0
 15 16  2  0  0  0  0
 15 40  1  0  0  0  0
 16 17  1  0  0  0  0
 17 18  1  0  0  0  0
 18 41  1  0  0  0  0
 18 42  1  0  0  0  0
 18 43  1  0  0  0  0
M  CHG  1  10   1
M  END
> <s_m_source_file>
AV-unprocessed.smi

> <i_m_source_file_index>
3283

> <i_lp_mmshare_version>
43012

> <i_f3d_flags>
0

> <s_epik_input>
W0NIM11DMT1bQ0hdW0NIMl1bQ0gyXVtDQEBIXShbQ0gzXSlbQ0BIXTFbQ0gyXVtOSF1bQ0gyXVtDSDJdYzJbY0hdW2NIXW5uMltDSDNd

> <s_epik_cmdline>
J2VwaWtfcHl0aG9uJywgJy1waCcsICc3LjAnLCAnLXRuJywgJzgnLCAnLW1hJywgJzIwMCcsICctbWV0YWxfYmluZGluZycsICctaW1hZScsICc8aW5maWxlLm1hZT4nLCAnLW9tYWUnLCAnPG91dGZpbGUubWFlPic=

> <r_lp_tautomer_probability>
1

> <r_epik_Ionization_Penalty>
0.000866911

> <r_epik_Ionization_Penalty_Charging>
0.000836385

> <r_epik_Ionization_Penalty_Neutral>
3.05258e-05

> <r_epik_State_Penalty>
-0

> <r_epik_Charging_Adjusted_Penalty>
0.000836385

> <i_epik_Tot_Q>
1

> <i_epik_Tot_abs_Q>
1

> <r_epik_Metal_State_Penalty>
-0

> <b_epik_Metal_Only>
0

> <s_lp_Force_Field>
OPLS_2005

> <r_lp_Energy>
12.7435

> <b_lp_Chiralities_Consistent>
1

> <s_lp_Variant>
AV-unprocessed.smi:3283-4

> <Gold.Version>
5.8.1

> <Gold.Id.Protein>
6NUR|6NUR_protein|mol2

> <Gold.PLP.Fitness>
45.3603

> <Gold.PLP.PLP>
-35.7110

> <Gold.PLP.part.hbond>
-2.0000

> <Gold.PLP.part.metal>
0.0000

> <Gold.PLP.part.buried>
-1.3625

> <Gold.PLP.part.nonpolar>
-32.9382

> <Gold.PLP.part.repulsive>
0.2860

> <Gold.PLP.ligand.clash>
0.0000

> <Gold.PLP.ligand.torsion>
1.1932

> <Gold.PLP.Chemscore.Hbond>
3.0000

> <Gold.PLP.Chemscore.CHOScore>
1.0000

> <Gold.PLP.Chemscore.Metal>
0.0000

> <Gold.Chemscore.Hbonds>
donor molecule, donor type, donor heavy atom, donor atom, acceptor molecule, acceptor atom, score
      L1  H    10    34       P1  7957  1.00
      L1  H    10    44       P1  7948  2.00
      L1  C    15    40       P1  7921  1.00

> <Gold.PLP.Chemscore.Internal.Correction>
0.0358

> <Gold.Rescore>
     Score         DG    S(hbond)    S(metal)    S(lipo)     H(rot)  DE(clash)    DE(int)     intcor
     17.74     -19.27       1.99        0.00      93.58       1.48       0.35       1.18       ----

> <Gold.Chemscore.Fitness>
17.7384

> <Gold.Chemscore.DG>
-19.2709

> <Gold.Chemscore.ZeroCoef>
-5.4800

> <Gold.Chemscore.Hbond>
1.9888

> <Gold.Chemscore.Metal>
0.0000

> <Gold.Chemscore.Lipo>
93.5827

> <Gold.Chemscore.Internal_Hbond>
0.0000

> <Gold.Chemscore.DEClash>
0.3526

> <Gold.Chemscore.DEInternal>
1.1799

> <Gold.Chemscore.Rot>
1.4847

> <Gold.Chemscore.Internal.Correction>
   9.000000E+99

> <Gold.Chemscore.Hbonds>
donor molecule, donor type, donor heavy atom, donor atom, acceptor molecule, acceptor atom, score
      L1  H    10    34       P1  7957  1.00
      L1  H    10    44       P1  7948  1.00

> <Gold.Chemscore.Hbond.Weighted>
-6.6425

> <Gold.Chemscore.Metal.Weighted>
-0.0000

> <Gold.Chemscore.Lipo.Weighted>
-10.9492

> <Gold.Chemscore.Internal_Hbond.Weighted>
0.0000

> <Gold.Chemscore.DEClash.Weighted>
0.3526

> <Gold.Chemscore.DEInternal.Weighted>
1.1799

> <Gold.Chemscore.Rot.Weighted>
3.8008

> <Gold.Chemscore.Internal.Correction.Weighted>
   9.000000E+99

> <Gold.Protein.RotatedTorsions>
[ 6907 6896 6895 6894 ] final  179.52 input  -60.11 | X-H torsion
[ 7974 7965 7964 7962 ] final  -22.30 input  175.53 | X-H torsion
[ 8008 7997 7996 7995 ] final -102.50 input   59.86 | X-H torsion
[ 10167 10162 10161 10158 ] final   -1.28 input  -65.29 | X-H torsion
[ 10718 10713 10712 10709 ] final   58.60 input   66.30 | X-H torsion
[ 10763 10752 10751 10750 ] final   28.56 input  -60.55 | X-H torsion
[ 11005 11000 10999 10996 ] final   60.01 input  -57.11 | X-H torsion

> <Gold.Protein.ActiveResidues>
 VAL166  LYS551  ARG553  GLY616  TRP617  ASP618  TYR619  PRO620  LYS621  CYS622 
 ASP623  PHE694  ASN695  SER759  ASP760  ASP761  ALA762  ILE779  LEU786  VAL792 
 PHE793  MET794  SER795  GLU796  ALA797  LYS798  CYS799  TRP800  GLU811  SER814 

> <Gold.Protein.RotatedAtoms>
  151.6703  133.3314  159.3194 H   0  0  0  0  0  0  0  0  0  0  0  0  # atno 6907 bound_to 6896
  150.7871  134.6868  159.6484 H   0  0  0  0  0  0  0  0  0  0  0  0  # atno 6908 bound_to 6896
  152.3942  134.6395  160.0147 H   0  0  0  0  0  0  0  0  0  0  0  0  # atno 6909 bound_to 6896
  146.1683  140.4460  142.8543 H   0  0  0  0  0  0  0  0  0  0  0  0  # atno 7974 bound_to 7965
  154.8575  140.0428  157.1644 H   0  0  0  0  0  0  0  0  0  0  0  0  # atno 8008 bound_to 7997
  154.8875  140.2981  155.5369 H   0  0  0  0  0  0  0  0  0  0  0  0  # atno 8009 bound_to 7997
  156.2998  140.2399  156.3886 H   0  0  0  0  0  0  0  0  0  0  0  0  # atno 8010 bound_to 7997
  140.6803  143.6794  150.8118 H   0  0  0  0  0  0  0  0  0  0  0  0  # atno 10167 bound_to 10162
  157.5609  130.8835  149.9110 H   0  0  0  0  0  0  0  0  0  0  0  0  # atno 10718 bound_to 10713
  153.0484  135.6510  154.0757 H   0  0  0  0  0  0  0  0  0  0  0  0  # atno 10763 bound_to 10752
  154.0450  135.2900  155.3351 H   0  0  0  0  0  0  0  0  0  0  0  0  # atno 10764 bound_to 10752
  154.6757  135.5339  153.8262 H   0  0  0  0  0  0  0  0  0  0  0  0  # atno 10765 bound_to 10752
  140.0262  134.6079  155.9569 H   0  0  0  0  0  0  0  0  0  0  0  0  # atno 11005 bound_to 11000
  144.8125  140.6411  143.6405 LP  0  0  0  0  0  0  0  0  0  0  0  0  # atno 17320 bound_to 7965
  145.4407  139.1536  143.3972 LP  0  0  0  0  0  0  0  0  0  0  0  0  # atno 17321 bound_to 7965
  140.0493  143.5266  152.2681 LP  0  0  0  0  0  0  0  0  0  0  0  0  # atno 17342 bound_to 10162
  139.6122  144.7611  151.2926 LP  0  0  0  0  0  0  0  0  0  0  0  0  # atno 17343 bound_to 10162
  156.0662  130.3692  150.0874 LP  0  0  0  0  0  0  0  0  0  0  0  0  # atno 17370 bound_to 10713
  156.9038  130.9629  151.3572 LP  0  0  0  0  0  0  0  0  0  0  0  0  # atno 17371 bound_to 10713
  141.1804  133.6546  156.4998 LP  0  0  0  0  0  0  0  0  0  0  0  0  # atno 17394 bound_to 11000
  140.4302  134.7109  157.4937 LP  0  0  0  0  0  0  0  0  0  0  0  0  # atno 17395 bound_to 11000

$$$$
