AV-unprocessed.smi:3166|AV-procd|sdf|12093|dock7
  -GOLD-   2272017523D 1   1.00000     0.00000
 Structure written by MMmdl.
 41 42  0  0  0  0  0  0  0  0  2 V2000
  149.7383  142.3750  158.3082 C   0  0  0  0  0  0  0  0  0  0  0  0
  150.8265  142.4396  157.2273 C   0  0  2  0  0  0  0  0  0  0  0  0
  151.6173  143.7689  157.3055 C   0  0  0  0  0  0  0  0  0  0  0  0
  151.7727  144.2376  158.6705 N   0  0  0  0  0  0  0  0  0  0  0  0
  152.3162  143.5676  159.7465 C   0  0  0  0  0  0  0  0  0  0  0  0
  152.2546  144.4075  160.8213 C   0  0  0  0  0  0  0  0  0  0  0  0
  151.6505  145.5840  160.2968 C   0  0  0  0  0  0  0  0  0  0  0  0
  151.3633  145.4787  159.0094 N   0  0  0  0  0  0  0  0  0  0  0  0
  150.2028  142.2501  155.8985 N   0  3  0  0  0  0  0  0  0  0  0  0
  149.2984  141.0852  155.7796 C   0  0  0  0  0  0  0  0  0  0  0  0
  149.6697  140.1738  154.5851 C   0  0  0  0  0  0  0  0  0  0  0  0
  149.5258  140.9502  153.4108 O   0  0  0  0  0  0  0  0  0  0  0  0
  151.1234  139.6429  154.6433 C   0  0  0  0  0  0  0  0  0  0  0  0
  151.3227  138.6046  155.7614 C   0  0  0  0  0  0  0  0  0  0  0  0
  150.3349  137.4366  155.6163 C   0  0  0  0  0  0  0  0  0  0  0  0
  148.8815  137.9324  155.5620 C   0  0  0  0  0  0  0  0  0  0  0  0
  148.6878  138.9854  154.4551 C   0  0  0  0  0  0  0  0  0  0  0  0
  150.1714  142.4635  159.3052 H   0  0  0  0  0  0  0  0  0  0  0  0
  149.2009  141.4269  158.2690 H   0  0  0  0  0  0  0  0  0  0  0  0
  149.0091  143.1772  158.1886 H   0  0  0  0  0  0  0  0  0  0  0  0
  151.4966  141.5960  157.4031 H   0  0  0  0  0  0  0  0  0  0  0  0
  152.6044  143.6785  156.8489 H   0  0  0  0  0  0  0  0  0  0  0  0
  151.1083  144.5549  156.7457 H   0  0  0  0  0  0  0  0  0  0  0  0
  152.6979  142.5609  159.6588 H   0  0  0  0  0  0  0  0  0  0  0  0
  152.5902  144.2115  161.8290 H   0  0  0  0  0  0  0  0  0  0  0  0
  151.4142  146.5049  160.8094 H   0  0  0  0  0  0  0  0  0  0  0  0
  149.6498  143.0709  155.6959 H   0  0  0  0  0  0  0  0  0  0  0  0
  149.3345  140.5163  156.7057 H   0  0  0  0  0  0  0  0  0  0  0  0
  148.2734  141.4432  155.6723 H   0  0  0  0  0  0  0  0  0  0  0  0
  149.3645  140.3681  152.6831 H   0  0  0  0  0  0  0  0  0  0  0  0
  151.3748  139.1729  153.6911 H   0  0  0  0  0  0  0  0  0  0  0  0
  151.8351  140.4598  154.7652 H   0  0  0  0  0  0  0  0  0  0  0  0
  152.3450  138.2264  155.7342 H   0  0  0  0  0  0  0  0  0  0  0  0
  151.1992  139.0744  156.7375 H   0  0  0  0  0  0  0  0  0  0  0  0
  150.5625  136.8797  154.7065 H   0  0  0  0  0  0  0  0  0  0  0  0
  150.4597  136.7379  156.4442 H   0  0  0  0  0  0  0  0  0  0  0  0
  148.2126  137.0892  155.3870 H   0  0  0  0  0  0  0  0  0  0  0  0
  148.5971  138.3466  156.5295 H   0  0  0  0  0  0  0  0  0  0  0  0
  147.6565  139.3410  154.4605 H   0  0  0  0  0  0  0  0  0  0  0  0
  148.8317  138.4975  153.4896 H   0  0  0  0  0  0  0  0  0  0  0  0
  150.9298  142.1756  155.2017 H   0  0  0  0  0  0  0  0  0  0  0  0
  1  2  1  0  0  0  0
  1 18  1  0  0  0  0
  1 19  1  0  0  0  0
  1 20  1  0  0  0  0
  2  3  1  0  0  0  0
  2  9  1  0  0  0  0
  2 21  1  0  0  0  0
  3  4  1  0  0  0  0
  3 22  1  0  0  0  0
  3 23  1  0  0  0  0
  4  8  1  0  0  0  0
  4  5  1  0  0  0  0
  5  6  2  0  0  0  0
  5 24  1  0  0  0  0
  6  7  1  0  0  0  0
  6 25  1  0  0  0  0
  7  8  2  0  0  0  0
  7 26  1  0  0  0  0
  9 10  1  0  0  0  0
  9 27  1  0  0  0  0
  9 41  1  0  0  0  0
 10 11  1  0  0  0  0
 10 28  1  0  0  0  0
 10 29  1  0  0  0  0
 11 17  1  0  0  0  0
 11 12  1  0  0  0  0
 11 13  1  0  0  0  0
 12 30  1  0  0  0  0
 13 14  1  0  0  0  0
 13 31  1  0  0  0  0
 13 32  1  0  0  0  0
 14 15  1  0  0  0  0
 14 33  1  0  0  0  0
 14 34  1  0  0  0  0
 15 16  1  0  0  0  0
 15 35  1  0  0  0  0
 15 36  1  0  0  0  0
 16 17  1  0  0  0  0
 16 37  1  0  0  0  0
 16 38  1  0  0  0  0
 17 39  1  0  0  0  0
 17 40  1  0  0  0  0
M  CHG  1   9   1
M  END
> <s_m_source_file>
AV-unprocessed.smi

> <i_m_source_file_index>
3166

> <i_lp_mmshare_version>
43012

> <i_f3d_flags>
0

> <s_epik_input>
bjFbY0hdW2NIXVtjSF1uMVtDSDJdW0NAQEhdKFtDSDNdKVtOSF1bQ0gyXUMyKFtPSF0pW0NIMl1bQ0gyXVtDSDJdW0NIMl1bQ0gyXTI=

> <s_epik_cmdline>
J2VwaWtfcHl0aG9uJywgJy1waCcsICc3LjAnLCAnLXRuJywgJzgnLCAnLW1hJywgJzIwMCcsICctbWV0YWxfYmluZGluZycsICctaW1hZScsICc8aW5maWxlLm1hZT4nLCAnLW9tYWUnLCAnPG91dGZpbGUubWFlPic=

> <r_lp_tautomer_probability>
1

> <r_epik_Ionization_Penalty>
0.0111521

> <r_epik_Ionization_Penalty_Charging>
0.0111472

> <r_epik_Ionization_Penalty_Neutral>
4.96355e-06

> <r_epik_State_Penalty>
0.00856328

> <r_epik_Charging_Adjusted_Penalty>
0.0197104

> <i_epik_Tot_Q>
1

> <i_epik_Tot_abs_Q>
1

> <r_epik_Metal_State_Penalty>
0.00856387

> <b_epik_Metal_Only>
0

> <s_lp_Force_Field>
OPLS_2005

> <r_lp_Energy>
18.587

> <b_lp_Chiralities_Consistent>
1

> <s_lp_Variant>
AV-unprocessed.smi:3166-1

> <Gold.Version>
5.8.1

> <Gold.Id.Protein>
6NUR|6NUR_protein|mol2

> <Gold.PLP.Fitness>
47.3426

> <Gold.PLP.PLP>
-37.5757

> <Gold.PLP.part.hbond>
-4.6477

> <Gold.PLP.part.metal>
0.0000

> <Gold.PLP.part.buried>
-2.7649

> <Gold.PLP.part.nonpolar>
-31.0194

> <Gold.PLP.part.repulsive>
0.2847

> <Gold.PLP.ligand.clash>
0.0000

> <Gold.PLP.ligand.torsion>
0.6928

> <Gold.PLP.Chemscore.Hbond>
3.7068

> <Gold.PLP.Chemscore.CHOScore>
0.0000

> <Gold.PLP.Chemscore.Metal>
0.0000

> <Gold.Chemscore.Hbonds>
donor molecule, donor type, donor heavy atom, donor atom, acceptor molecule, acceptor atom, score
      L1  H     9    27       P1  8028  2.00
      L1  H    12    30       P1  7957  0.94
      P1  H  7989  7998       L1    12  0.03
      P1  H  8011  8017       L1    12  0.65

> <Gold.PLP.Chemscore.Internal.Correction>
0.0322

> <Gold.Rescore>
     Score         DG    S(hbond)    S(metal)    S(lipo)     H(rot)  DE(clash)    DE(int)     intcor
     16.17     -17.96       1.98        0.00      98.26       2.20       1.11       0.67       ----

> <Gold.Chemscore.Fitness>
16.1704

> <Gold.Chemscore.DG>
-17.9555

> <Gold.Chemscore.ZeroCoef>
-5.4800

> <Gold.Chemscore.Hbond>
1.9787

> <Gold.Chemscore.Metal>
0.0000

> <Gold.Chemscore.Lipo>
98.2590

> <Gold.Chemscore.Internal_Hbond>
0.0000

> <Gold.Chemscore.DEClash>
1.1129

> <Gold.Chemscore.DEInternal>
0.6722

> <Gold.Chemscore.Rot>
2.1991

> <Gold.Chemscore.Internal.Correction>
   9.000000E+99

> <Gold.Chemscore.Hbonds>
donor molecule, donor type, donor heavy atom, donor atom, acceptor molecule, acceptor atom, score
      L1  H     9    27       P1  8028  1.00
      L1  H    12    30       P1  7957  0.89
      P1  H  8011  8017       L1    12  0.06

> <Gold.Chemscore.Hbond.Weighted>
-6.6090

> <Gold.Chemscore.Metal.Weighted>
-0.0000

> <Gold.Chemscore.Lipo.Weighted>
-11.4963

> <Gold.Chemscore.Internal_Hbond.Weighted>
0.0000

> <Gold.Chemscore.DEClash.Weighted>
1.1129

> <Gold.Chemscore.DEInternal.Weighted>
0.6722

> <Gold.Chemscore.Rot.Weighted>
5.6298

> <Gold.Chemscore.Internal.Correction.Weighted>
   9.000000E+99

> <Gold.Protein.RotatedTorsions>
[ 6907 6896 6895 6894 ] final  -55.07 input  -60.11 | X-H torsion
[ 7974 7965 7964 7962 ] final -163.88 input  175.53 | X-H torsion
[ 8008 7997 7996 7995 ] final  -11.23 input   59.86 | X-H torsion
[ 10167 10162 10161 10158 ] final  121.22 input  -65.29 | X-H torsion
[ 10718 10713 10712 10709 ] final  171.84 input   66.30 | X-H torsion
[ 10763 10752 10751 10750 ] final -151.50 input  -60.55 | X-H torsion
[ 11005 11000 10999 10996 ] final -150.72 input  -57.11 | X-H torsion

> <Gold.Protein.ActiveResidues>
 VAL166  LYS551  ARG553  GLY616  TRP617  ASP618  TYR619  PRO620  LYS621  CYS622 
 ASP623  PHE694  ASN695  SER759  ASP760  ASP761  ALA762  ILE779  LEU786  VAL792 
 PHE793  MET794  SER795  GLU796  ALA797  LYS798  CYS799  TRP800  GLU811  SER814 

> <Gold.Protein.RotatedAtoms>
  150.8283  134.7525  159.6831 H   0  0  0  0  0  0  0  0  0  0  0  0  # atno 6907 bound_to 6896
  152.4391  134.5623  159.9907 H   0  0  0  0  0  0  0  0  0  0  0  0  # atno 6908 bound_to 6896
  151.5790  133.3342  159.3040 H   0  0  0  0  0  0  0  0  0  0  0  0  # atno 6909 bound_to 6896
  144.7313  140.3042  143.6199 H   0  0  0  0  0  0  0  0  0  0  0  0  # atno 7974 bound_to 7965
  154.5483  140.2308  155.8527 H   0  0  0  0  0  0  0  0  0  0  0  0  # atno 8008 bound_to 7997
  156.1923  140.3074  155.9319 H   0  0  0  0  0  0  0  0  0  0  0  0  # atno 8009 bound_to 7997
  155.3121  140.0436  157.3026 H   0  0  0  0  0  0  0  0  0  0  0  0  # atno 8010 bound_to 7997
  139.5933  144.7033  151.3236 H   0  0  0  0  0  0  0  0  0  0  0  0  # atno 10167 bound_to 10162
  156.9877  131.0138  151.2865 H   0  0  0  0  0  0  0  0  0  0  0  0  # atno 10718 bound_to 10713
  154.8054  135.3258  154.7445 H   0  0  0  0  0  0  0  0  0  0  0  0  # atno 10763 bound_to 10752
  153.8105  135.6896  153.4846 H   0  0  0  0  0  0  0  0  0  0  0  0  # atno 10764 bound_to 10752
  153.1795  135.4592  154.9954 H   0  0  0  0  0  0  0  0  0  0  0  0  # atno 10765 bound_to 10752
  140.7372  134.3555  157.5155 H   0  0  0  0  0  0  0  0  0  0  0  0  # atno 11005 bound_to 11000
  145.7730  139.1864  143.2201 LP  0  0  0  0  0  0  0  0  0  0  0  0  # atno 17320 bound_to 7965
  146.0896  140.7671  142.9602 LP  0  0  0  0  0  0  0  0  0  0  0  0  # atno 17321 bound_to 7965
  140.7191  143.7184  150.7715 LP  0  0  0  0  0  0  0  0  0  0  0  0  # atno 17342 bound_to 10162
  140.0745  143.5029  152.2562 LP  0  0  0  0  0  0  0  0  0  0  0  0  # atno 17343 bound_to 10162
  157.5481  130.8164  149.8111 LP  0  0  0  0  0  0  0  0  0  0  0  0  # atno 17370 bound_to 10713
  156.0219  130.3792  150.1935 LP  0  0  0  0  0  0  0  0  0  0  0  0  # atno 17371 bound_to 10713
  139.8813  134.9057  156.2905 LP  0  0  0  0  0  0  0  0  0  0  0  0  # atno 17394 bound_to 11000
  140.9869  133.7232  156.0755 LP  0  0  0  0  0  0  0  0  0  0  0  0  # atno 17395 bound_to 11000

$$$$
