AV-unprocessed.smi:2928|AV-procd|sdf|11237|dock7
  -GOLD-   2272016133D 1   1.00000     0.00000
 Structure written by MMmdl.
 56 59  0  0  0  0  0  0  0  0  3 V2000
  144.2151  135.2931  162.4545 C   0  0  0  0  0  0  0  0  0  0  0  0
  145.3189  135.5110  161.4891 N   0  3  2  0  0  0  0  0  0  0  0  0
  145.7873  134.2881  160.7927 C   0  0  2  0  0  0  0  0  0  0  0  0
  146.5440  133.3432  161.7613 C   0  0  0  0  0  0  0  0  0  0  0  0
  147.6677  134.0300  162.5612 C   0  0  0  0  0  0  0  0  0  0  0  0
  147.2644  135.4296  163.0629 C   0  0  0  0  0  0  0  0  0  0  0  0
  146.4767  136.2678  162.0247 C   0  0  1  0  0  0  0  0  0  0  0  0
  147.3230  136.7941  160.8417 C   0  0  0  0  0  0  0  0  0  0  0  0
  147.7302  135.7106  159.8099 C   0  0  2  0  0  0  0  0  0  0  0  0
  148.1291  136.3363  158.5509 N   0  0  0  0  0  0  0  0  0  0  0  0
  149.3620  136.7800  158.2649 C   0  0  0  0  0  0  0  0  0  0  0  0
  150.3057  136.7259  159.0532 O   0  0  0  0  0  0  0  0  0  0  0  0
  149.4191  137.3022  157.0284 N   0  0  0  0  0  0  0  0  0  0  0  0
  150.5422  137.8934  156.3832 C   0  0  0  0  0  0  0  0  0  0  0  0
  151.8659  137.5854  156.7905 C   0  0  0  0  0  0  0  0  0  0  0  0
  152.9607  138.1232  156.0881 C   0  0  0  0  0  0  0  0  0  0  0  0
  152.7166  138.9487  154.9774 C   0  0  0  0  0  0  0  0  0  0  0  0
  151.4468  139.2139  154.6076 N   0  3  0  0  0  0  0  0  0  0  0  0
  150.3512  138.7396  155.2521 C   0  0  0  0  0  0  0  0  0  0  0  0
  149.0806  139.1149  154.7591 N   0  0  0  0  0  0  0  0  0  0  0  0
  148.5256  138.4658  153.5767 C   0  0  0  0  0  0  0  0  0  0  0  0
  147.3636  139.3559  153.1448 C   0  0  0  0  0  0  0  0  0  0  0  0
  147.8730  140.7516  153.4917 C   0  0  0  0  0  0  0  0  0  0  0  0
  148.7158  140.5284  154.7518 C   0  0  0  0  0  0  0  0  0  0  0  0
  146.5861  134.7055  159.5360 C   0  0  0  0  0  0  0  0  0  0  0  0
  144.5130  134.6603  163.2898 H   0  0  0  0  0  0  0  0  0  0  0  0
  143.3668  134.8198  161.9593 H   0  0  0  0  0  0  0  0  0  0  0  0
  143.8700  136.2451  162.8587 H   0  0  0  0  0  0  0  0  0  0  0  0
  144.9080  133.7497  160.4357 H   0  0  0  0  0  0  0  0  0  0  0  0
  145.8296  132.9198  162.4677 H   0  0  0  0  0  0  0  0  0  0  0  0
  146.9485  132.4904  161.2151 H   0  0  0  0  0  0  0  0  0  0  0  0
  147.9412  133.4047  163.4117 H   0  0  0  0  0  0  0  0  0  0  0  0
  148.5759  134.0883  161.9675 H   0  0  0  0  0  0  0  0  0  0  0  0
  146.6519  135.3114  163.9572 H   0  0  0  0  0  0  0  0  0  0  0  0
  148.1509  135.9737  163.3906 H   0  0  0  0  0  0  0  0  0  0  0  0
  146.0897  137.1461  162.5438 H   0  0  0  0  0  0  0  0  0  0  0  0
  146.7324  137.5556  160.3295 H   0  0  0  0  0  0  0  0  0  0  0  0
  148.2089  137.3102  161.2140 H   0  0  0  0  0  0  0  0  0  0  0  0
  148.5910  135.1598  160.1810 H   0  0  0  0  0  0  0  0  0  0  0  0
  147.4161  136.4252  157.8416 H   0  0  0  0  0  0  0  0  0  0  0  0
  148.5432  137.3732  156.5312 H   0  0  0  0  0  0  0  0  0  0  0  0
  152.0596  136.9228  157.6206 H   0  0  0  0  0  0  0  0  0  0  0  0
  153.9721  137.8939  156.3901 H   0  0  0  0  0  0  0  0  0  0  0  0
  153.4919  139.3990  154.3744 H   0  0  0  0  0  0  0  0  0  0  0  0
  149.2691  138.4235  152.7797 H   0  0  0  0  0  0  0  0  0  0  0  0
  148.1971  137.4495  153.7963 H   0  0  0  0  0  0  0  0  0  0  0  0
  147.1097  139.2425  152.0905 H   0  0  0  0  0  0  0  0  0  0  0  0
  146.4756  139.1260  153.7354 H   0  0  0  0  0  0  0  0  0  0  0  0
  148.5084  141.1203  152.6851 H   0  0  0  0  0  0  0  0  0  0  0  0
  147.0695  141.4732  153.6424 H   0  0  0  0  0  0  0  0  0  0  0  0
  148.1200  140.7411  155.6396 H   0  0  0  0  0  0  0  0  0  0  0  0
  149.5905  141.1805  154.7642 H   0  0  0  0  0  0  0  0  0  0  0  0
  146.9767  133.8238  159.0264 H   0  0  0  0  0  0  0  0  0  0  0  0
  145.8814  135.1617  158.8386 H   0  0  0  0  0  0  0  0  0  0  0  0
  144.9171  136.0974  160.7716 H   0  0  0  0  0  0  0  0  0  0  0  0
  151.3025  139.8161  153.7970 H   0  0  0  0  0  0  0  0  0  0  0  0
  1  2  1  0  0  0  0
  1 26  1  0  0  0  0
  1 27  1  0  0  0  0
  1 28  1  0  0  0  0
  2  7  1  0  0  0  0
  2  3  1  0  0  0  0
  2 55  1  0  0  0  0
  3 25  1  0  0  0  0
  3  4  1  0  0  0  0
  3 29  1  0  0  0  0
  4  5  1  0  0  0  0
  4 30  1  0  0  0  0
  4 31  1  0  0  0  0
  5  6  1  0  0  0  0
  5 32  1  0  0  0  0
  5 33  1  0  0  0  0
  6  7  1  0  0  0  0
  6 34  1  0  0  0  0
  6 35  1  0  0  0  0
  7  8  1  0  0  0  0
  7 36  1  0  0  0  0
  8  9  1  0  0  0  0
  8 37  1  0  0  0  0
  8 38  1  0  0  0  0
  9 10  1  0  0  0  0
  9 25  1  0  0  0  0
  9 39  1  0  0  0  0
 10 11  1  0  0  0  0
 10 40  1  0  0  0  0
 11 12  2  0  0  0  0
 11 13  1  0  0  0  0
 13 14  1  0  0  0  0
 13 41  1  0  0  0  0
 14 19  1  0  0  0  0
 14 15  2  0  0  0  0
 15 16  1  0  0  0  0
 15 42  1  0  0  0  0
 16 17  2  0  0  0  0
 16 43  1  0  0  0  0
 17 18  1  0  0  0  0
 17 44  1  0  0  0  0
 18 19  2  0  0  0  0
 18 56  1  0  0  0  0
 19 20  1  0  0  0  0
 20 24  1  0  0  0  0
 20 21  1  0  0  0  0
 21 22  1  0  0  0  0
 21 45  1  0  0  0  0
 21 46  1  0  0  0  0
 22 23  1  0  0  0  0
 22 47  1  0  0  0  0
 22 48  1  0  0  0  0
 23 24  1  0  0  0  0
 23 49  1  0  0  0  0
 23 50  1  0  0  0  0
 24 51  1  0  0  0  0
 24 52  1  0  0  0  0
 25 53  1  0  0  0  0
 25 54  1  0  0  0  0
M  CHG  1   2   1
M  CHG  1  18   1
M  END
> <s_m_source_file>
AV-unprocessed.smi

> <i_m_source_file_index>
2928

> <i_lp_mmshare_version>
43012

> <i_f3d_flags>
0

> <s_epik_input>
W0NIMl0xW0NIMl1bQ0gyXVtDQEhdKE4oW0NIM10pW0NIXTEyKVtDSDJdW0NASF0oW0NIMl0yKVtOSF1DKD1PKVtOSF1jM1tjSF1bY0hdW2NIXW5jM040W0NIMl1bQ0gyXVtDSDJdW0NIMl00

> <s_epik_cmdline>
J2VwaWtfcHl0aG9uJywgJy1waCcsICc3LjAnLCAnLXRuJywgJzgnLCAnLW1hJywgJzIwMCcsICctbWV0YWxfYmluZGluZycsICctaW1hZScsICc8aW5maWxlLm1hZT4nLCAnLW9tYWUnLCAnPG91dGZpbGUubWFlPic=

> <r_lp_tautomer_probability>
0.999994

> <r_epik_Ionization_Penalty>
1.2404

> <r_epik_Ionization_Penalty_Charging>
1.24038

> <r_epik_Ionization_Penalty_Neutral>
1.86539e-05

> <r_epik_State_Penalty>
1.30821

> <r_epik_Charging_Adjusted_Penalty>
2.54859

> <i_epik_Tot_Q>
2

> <i_epik_Tot_abs_Q>
2

> <r_epik_Metal_State_Penalty>
1.3782

> <b_epik_Metal_Only>
0

> <s_lp_Force_Field>
OPLS_2005

> <r_lp_Energy>
72.5254

> <b_lp_Chiralities_Consistent>
1

> <s_lp_Variant>
AV-unprocessed.smi:2928-7

> <Gold.Version>
5.8.1

> <Gold.Id.Protein>
6NUR|6NUR_protein|mol2

> <Gold.PLP.Fitness>
38.0569

> <Gold.PLP.PLP>
-36.1014

> <Gold.PLP.part.hbond>
-1.0000

> <Gold.PLP.part.metal>
0.0000

> <Gold.PLP.part.buried>
-2.8828

> <Gold.PLP.part.nonpolar>
-32.5662

> <Gold.PLP.part.repulsive>
1.8061

> <Gold.PLP.ligand.clash>
0.0000

> <Gold.PLP.ligand.torsion>
0.7116

> <Gold.PLP.Chemscore.Hbond>
1.0000

> <Gold.PLP.Chemscore.CHOScore>
0.0000

> <Gold.PLP.Chemscore.Metal>
0.0000

> <Gold.Chemscore.Hbonds>
donor molecule, donor type, donor heavy atom, donor atom, acceptor molecule, acceptor atom, score
      P1  H  6896  6907       L1    12  1.00

> <Gold.PLP.Chemscore.Internal.Correction>
0.3787

> <Gold.Rescore>
     Score         DG    S(hbond)    S(metal)    S(lipo)     H(rot)  DE(clash)    DE(int)     intcor
     16.31     -18.37       1.00        0.00     107.65       1.19       0.04       2.03       ----

> <Gold.Chemscore.Fitness>
16.3055

> <Gold.Chemscore.DG>
-18.3731

> <Gold.Chemscore.ZeroCoef>
-5.4800

> <Gold.Chemscore.Hbond>
0.9998

> <Gold.Chemscore.Metal>
0.0000

> <Gold.Chemscore.Lipo>
107.6464

> <Gold.Chemscore.Internal_Hbond>
0.0000

> <Gold.Chemscore.DEClash>
0.0421

> <Gold.Chemscore.DEInternal>
2.0255

> <Gold.Chemscore.Rot>
1.1879

> <Gold.Chemscore.Internal.Correction>
   9.000000E+99

> <Gold.Chemscore.Hbonds>
donor molecule, donor type, donor heavy atom, donor atom, acceptor molecule, acceptor atom, score
      P1  H  6896  6907       L1    12  0.96

> <Gold.Chemscore.Hbond.Weighted>
-3.3395

> <Gold.Chemscore.Metal.Weighted>
-0.0000

> <Gold.Chemscore.Lipo.Weighted>
-12.5946

> <Gold.Chemscore.Internal_Hbond.Weighted>
0.0000

> <Gold.Chemscore.DEClash.Weighted>
0.0421

> <Gold.Chemscore.DEInternal.Weighted>
2.0255

> <Gold.Chemscore.Rot.Weighted>
3.0410

> <Gold.Chemscore.Internal.Correction.Weighted>
   9.000000E+99

> <Gold.Protein.RotatedTorsions>
[ 6907 6896 6895 6894 ] final  -31.89 input  -60.11 | X-H torsion
[ 7974 7965 7964 7962 ] final  -68.55 input  175.53 | X-H torsion
[ 8008 7997 7996 7995 ] final   65.82 input   59.86 | X-H torsion
[ 10167 10162 10161 10158 ] final -105.24 input  -65.29 | X-H torsion
[ 10718 10713 10712 10709 ] final -159.77 input   66.30 | X-H torsion
[ 10763 10752 10751 10750 ] final   70.84 input  -60.55 | X-H torsion
[ 11005 11000 10999 10996 ] final   36.59 input  -57.11 | X-H torsion

> <Gold.Protein.ActiveResidues>
 VAL166  LYS551  ARG553  GLY616  TRP617  ASP618  TYR619  PRO620  LYS621  CYS622 
 ASP623  PHE694  ASN695  SER759  ASP760  ASP761  ALA762  ILE779  LEU786  VAL792 
 PHE793  MET794  SER795  GLU796  ALA797  LYS798  CYS799  TRP800  GLU811  SER814 

> <Gold.Protein.RotatedAtoms>
  151.0860  134.9887  159.8379 H   0  0  0  0  0  0  0  0  0  0  0  0  # atno 6907 bound_to 6896
  152.5424  134.2123  159.8765 H   0  0  0  0  0  0  0  0  0  0  0  0  # atno 6908 bound_to 6896
  151.2156  133.4487  159.2633 H   0  0  0  0  0  0  0  0  0  0  0  0  # atno 6909 bound_to 6896
  145.7151  140.9062  143.0660 H   0  0  0  0  0  0  0  0  0  0  0  0  # atno 7974 bound_to 7965
  155.6677  140.3497  155.4806 H   0  0  0  0  0  0  0  0  0  0  0  0  # atno 8008 bound_to 7997
  155.9715  140.1156  157.0831 H   0  0  0  0  0  0  0  0  0  0  0  0  # atno 8009 bound_to 7997
  154.4167  140.1156  156.5299 H   0  0  0  0  0  0  0  0  0  0  0  0  # atno 8010 bound_to 7997
  140.2007  143.3821  152.1132 H   0  0  0  0  0  0  0  0  0  0  0  0  # atno 10167 bound_to 10162
  156.5727  130.8695  151.2842 H   0  0  0  0  0  0  0  0  0  0  0  0  # atno 10718 bound_to 10713
  153.0365  135.5159  154.7503 H   0  0  0  0  0  0  0  0  0  0  0  0  # atno 10763 bound_to 10752
  154.6475  135.2920  155.0030 H   0  0  0  0  0  0  0  0  0  0  0  0  # atno 10764 bound_to 10752
  154.0925  135.6648  153.4907 H   0  0  0  0  0  0  0  0  0  0  0  0  # atno 10765 bound_to 10752
  140.2310  134.3527  155.7964 H   0  0  0  0  0  0  0  0  0  0  0  0  # atno 11005 bound_to 11000
  144.6931  139.9126  143.7464 LP  0  0  0  0  0  0  0  0  0  0  0  0  # atno 17320 bound_to 7965
  146.0677  139.3667  143.0542 LP  0  0  0  0  0  0  0  0  0  0  0  0  # atno 17321 bound_to 7965
  139.5218  144.7051  151.5378 LP  0  0  0  0  0  0  0  0  0  0  0  0  # atno 17342 bound_to 10162
  140.6392  143.8923  150.6676 LP  0  0  0  0  0  0  0  0  0  0  0  0  # atno 17343 bound_to 10162
  157.7344  130.9746  150.2029 LP  0  0  0  0  0  0  0  0  0  0  0  0  # atno 17370 bound_to 10713
  156.2700  130.3721  149.8041 LP  0  0  0  0  0  0  0  0  0  0  0  0  # atno 17371 bound_to 10713
  141.2217  133.7245  156.8732 LP  0  0  0  0  0  0  0  0  0  0  0  0  # atno 17394 bound_to 11000
  140.1750  134.9073  157.2880 LP  0  0  0  0  0  0  0  0  0  0  0  0  # atno 17395 bound_to 11000

$$$$
