AV-unprocessed.smi:763|AV-procd|sdf|3638|dock9
  -GOLD-   22720 1 33D 1   1.00000     0.00000
 Structure written by MMmdl.
 43 44  0  0  0  0  0  0  0  0  2 V2000
  146.5579  136.8811  162.3119 C   0  0  0  0  0  0  0  0  0  0  0  0
  147.6970  137.3203  161.5935 O   0  0  0  0  0  0  0  0  0  0  0  0
  148.2943  136.2827  160.8334 C   0  0  0  0  0  0  0  0  0  0  0  0
  147.8393  136.4069  159.3707 C   0  0  0  0  0  0  0  0  0  0  0  0
  148.6894  137.2847  158.6322 O   0  0  0  0  0  0  0  0  0  0  0  0
  148.1715  138.4290  158.0485 C   0  0  0  0  0  0  0  0  0  0  0  0
  146.8598  138.7135  158.2524 N   0  0  0  0  0  0  0  0  0  0  0  0
  146.3467  139.8276  157.6967 C   0  0  0  0  0  0  0  0  0  0  0  0
  147.1077  140.7127  156.9162 C   0  0  0  0  0  0  0  0  0  0  0  0
  148.4666  140.4161  156.7088 C   0  0  0  0  0  0  0  0  0  0  0  0
  149.0350  139.2499  157.2786 C   0  0  0  0  0  0  0  0  0  0  0  0
  150.3255  138.9108  157.1161 N   0  5  0  0  0  0  0  0  0  0  0  0
  151.5092  139.8680  156.5659 S   0  0  0  0  0  0  0  0  0  0  0  0
  152.8251  139.2220  156.6872 O   0  0  0  0  0  0  0  0  0  0  0  0
  151.1740  140.4501  155.2567 O   0  0  0  0  0  0  0  0  0  0  0  0
  151.4476  141.2589  157.8021 C   0  0  2  0  0  0  0  0  0  0  0  0
  151.2001  142.5919  157.0600 C   0  0  0  0  0  0  0  0  0  0  0  0
  151.1763  143.7910  158.0175 C   0  0  0  0  0  0  0  0  0  0  0  0
  152.4875  143.8779  158.8082 C   0  0  0  0  0  0  0  0  0  0  0  0
  152.7416  142.5757  159.5785 C   0  0  0  0  0  0  0  0  0  0  0  0
  152.7448  141.3459  158.6484 C   0  0  1  0  0  0  0  0  0  0  0  0
  152.9009  140.2122  159.4777 O   0  0  0  0  0  0  0  0  0  0  0  0
  146.1351  137.7148  162.8724 H   0  0  0  0  0  0  0  0  0  0  0  0
  146.8189  136.0957  163.0223 H   0  0  0  0  0  0  0  0  0  0  0  0
  145.7875  136.5030  161.6385 H   0  0  0  0  0  0  0  0  0  0  0  0
  149.3812  136.3166  160.9162 H   0  0  0  0  0  0  0  0  0  0  0  0
  147.9693  135.3199  161.2304 H   0  0  0  0  0  0  0  0  0  0  0  0
  147.7740  135.4267  158.8965 H   0  0  0  0  0  0  0  0  0  0  0  0
  146.8264  136.8089  159.3403 H   0  0  0  0  0  0  0  0  0  0  0  0
  145.2999  140.0187  157.8804 H   0  0  0  0  0  0  0  0  0  0  0  0
  146.6625  141.5975  156.4865 H   0  0  0  0  0  0  0  0  0  0  0  0
  149.0572  141.0930  156.1096 H   0  0  0  0  0  0  0  0  0  0  0  0
  150.6061  141.0581  158.4660 H   0  0  0  0  0  0  0  0  0  0  0  0
  151.9789  142.7523  156.3135 H   0  0  0  0  0  0  0  0  0  0  0  0
  150.2578  142.5481  156.5137 H   0  0  0  0  0  0  0  0  0  0  0  0
  151.0179  144.7120  157.4559 H   0  0  0  0  0  0  0  0  0  0  0  0
  150.3345  143.6966  158.7049 H   0  0  0  0  0  0  0  0  0  0  0  0
  153.3171  144.0705  158.1269 H   0  0  0  0  0  0  0  0  0  0  0  0
  152.4507  144.7195  159.5003 H   0  0  0  0  0  0  0  0  0  0  0  0
  153.6915  142.6450  160.1103 H   0  0  0  0  0  0  0  0  0  0  0  0
  151.9700  142.4590  160.3414 H   0  0  0  0  0  0  0  0  0  0  0  0
  153.6064  141.4014  157.9818 H   0  0  0  0  0  0  0  0  0  0  0  0
  152.9752  140.5025  160.3736 H   0  0  0  0  0  0  0  0  0  0  0  0
  1  2  1  0  0  0  0
  1 23  1  0  0  0  0
  1 24  1  0  0  0  0
  1 25  1  0  0  0  0
  2  3  1  0  0  0  0
  3  4  1  0  0  0  0
  3 26  1  0  0  0  0
  3 27  1  0  0  0  0
  4  5  1  0  0  0  0
  4 28  1  0  0  0  0
  4 29  1  0  0  0  0
  5  6  1  0  0  0  0
  6 11  1  0  0  0  0
  6  7  2  0  0  0  0
  7  8  1  0  0  0  0
  8  9  2  0  0  0  0
  8 30  1  0  0  0  0
  9 10  1  0  0  0  0
  9 31  1  0  0  0  0
 10 11  2  0  0  0  0
 10 32  1  0  0  0  0
 11 12  1  0  0  0  0
 12 13  1  0  0  0  0
 13 14  2  0  0  0  0
 13 15  2  0  0  0  0
 13 16  1  0  0  0  0
 16 21  1  0  0  0  0
 16 17  1  0  0  0  0
 16 33  1  0  0  0  0
 17 18  1  0  0  0  0
 17 34  1  0  0  0  0
 17 35  1  0  0  0  0
 18 19  1  0  0  0  0
 18 36  1  0  0  0  0
 18 37  1  0  0  0  0
 19 20  1  0  0  0  0
 19 38  1  0  0  0  0
 19 39  1  0  0  0  0
 20 21  1  0  0  0  0
 20 40  1  0  0  0  0
 20 41  1  0  0  0  0
 21 22  1  0  0  0  0
 21 42  1  0  0  0  0
 22 43  1  0  0  0  0
M  CHG  1  12  -1
M  END
> <s_m_source_file>
AV-unprocessed.smi

> <i_m_source_file_index>
763

> <i_lp_mmshare_version>
43012

> <i_f3d_flags>
0

> <s_epik_input>
W0NIM11PW0NIMl1bQ0gyXU9jMW5bY0hdW2NIXVtjSF1jMVtOSF1TKD1PKSg9TylbQ0BASF0yW0NIMl1bQ0gyXVtDSDJdW0NIMl1bQ0BIXTJbT0hd

> <s_epik_cmdline>
J2VwaWtfcHl0aG9uJywgJy1waCcsICc3LjAnLCAnLXRuJywgJzgnLCAnLW1hJywgJzIwMCcsICctbWV0YWxfYmluZGluZycsICctaW1hZScsICc8aW5maWxlLm1hZT4nLCAnLW9tYWUnLCAnPG91dGZpbGUubWFlPic=

> <r_epik_Ionization_Penalty>
0.985866

> <r_epik_Ionization_Penalty_Charging>
0.984689

> <r_epik_Ionization_Penalty_Neutral>
0.00117669

> <r_epik_State_Penalty>
1.03185

> <r_epik_Charging_Adjusted_Penalty>
2.01654

> <i_epik_Tot_Q>
-1

> <i_epik_Tot_abs_Q>
1

> <r_epik_Metal_State_Penalty>
0.379327

> <b_epik_Metal_Only>
0

> <s_lp_Force_Field>
OPLS_2005

> <r_lp_Energy>
11.4471

> <b_lp_Chiralities_Consistent>
1

> <s_lp_Variant>
AV-unprocessed.smi:763-5

> <Gold.Version>
5.8.1

> <Gold.Id.Protein>
6NUR|6NUR_protein|mol2

> <Gold.PLP.Fitness>
44.0890

> <Gold.PLP.PLP>
-34.7312

> <Gold.PLP.part.hbond>
-4.6230

> <Gold.PLP.part.metal>
0.0000

> <Gold.PLP.part.buried>
-5.0643

> <Gold.PLP.part.nonpolar>
-24.1871

> <Gold.PLP.part.repulsive>
0.0336

> <Gold.PLP.ligand.clash>
0.0000

> <Gold.PLP.ligand.torsion>
1.4589

> <Gold.PLP.Chemscore.Hbond>
3.7120

> <Gold.PLP.Chemscore.CHOScore>
0.0000

> <Gold.PLP.Chemscore.Metal>
0.0000

> <Gold.Chemscore.Hbonds>
donor molecule, donor type, donor heavy atom, donor atom, acceptor molecule, acceptor atom, score
      P1  H  6931  6943       L1     2  0.94
      P1  H  6934  6947       L1     2  0.72
      P1  H  7989  7998       L1    15  0.98
      P1  H  7997  8009       L1    14  1.00

> <Gold.PLP.Chemscore.Internal.Correction>
1.1396

> <Gold.Rescore>
     Score         DG    S(hbond)    S(metal)    S(lipo)     H(rot)  DE(clash)    DE(int)     intcor
     17.57     -18.85       2.95        0.00      81.61       2.35       0.00       1.27       ----

> <Gold.Chemscore.Fitness>
17.5748

> <Gold.Chemscore.DG>
-18.8474

> <Gold.Chemscore.ZeroCoef>
-5.4800

> <Gold.Chemscore.Hbond>
2.9454

> <Gold.Chemscore.Metal>
0.0000

> <Gold.Chemscore.Lipo>
81.6075

> <Gold.Chemscore.Internal_Hbond>
0.0000

> <Gold.Chemscore.DEClash>
0.0000

> <Gold.Chemscore.DEInternal>
1.2727

> <Gold.Chemscore.Rot>
2.3509

> <Gold.Chemscore.Internal.Correction>
   9.000000E+99

> <Gold.Chemscore.Hbonds>
donor molecule, donor type, donor heavy atom, donor atom, acceptor molecule, acceptor atom, score
      P1  H  6931  6943       L1     2  0.27
      P1  H  6934  6947       L1     2  0.32
      P1  H  7989  7998       L1    15  0.92
      P1  H  7997  8009       L1    14  0.99

> <Gold.Chemscore.Hbond.Weighted>
-9.8376

> <Gold.Chemscore.Metal.Weighted>
-0.0000

> <Gold.Chemscore.Lipo.Weighted>
-9.5481

> <Gold.Chemscore.Internal_Hbond.Weighted>
0.0000

> <Gold.Chemscore.DEClash.Weighted>
0.0000

> <Gold.Chemscore.DEInternal.Weighted>
1.2727

> <Gold.Chemscore.Rot.Weighted>
6.0182

> <Gold.Chemscore.Internal.Correction.Weighted>
   9.000000E+99

> <Gold.Protein.RotatedTorsions>
[ 6907 6896 6895 6894 ] final  174.37 input  -60.11 | X-H torsion
[ 7974 7965 7964 7962 ] final  108.18 input  175.53 | X-H torsion
[ 8008 7997 7996 7995 ] final -172.59 input   59.86 | X-H torsion
[ 10167 10162 10161 10158 ] final  144.77 input  -65.29 | X-H torsion
[ 10718 10713 10712 10709 ] final  -32.87 input   66.30 | X-H torsion
[ 10763 10752 10751 10750 ] final  -16.51 input  -60.55 | X-H torsion
[ 11005 11000 10999 10996 ] final  -60.90 input  -57.11 | X-H torsion

> <Gold.Protein.ActiveResidues>
 VAL166  LYS551  ARG553  GLY616  TRP617  ASP618  TYR619  PRO620  LYS621  CYS622 
 ASP623  PHE694  ASN695  SER759  ASP760  ASP761  ALA762  ILE779  LEU786  VAL792 
 PHE793  MET794  SER795  GLU796  ALA797  LYS798  CYS799  TRP800  GLU811  SER814 

> <Gold.Protein.RotatedAtoms>
  151.7534  133.3329  159.3397 H   0  0  0  0  0  0  0  0  0  0  0  0  # atno 6907 bound_to 6896
  150.7526  134.6171  159.6126 H   0  0  0  0  0  0  0  0  0  0  0  0  # atno 6908 bound_to 6896
  152.3453  134.7081  160.0303 H   0  0  0  0  0  0  0  0  0  0  0  0  # atno 6909 bound_to 6896
  145.2840  139.2623  143.3900 H   0  0  0  0  0  0  0  0  0  0  0  0  # atno 7974 bound_to 7965
  155.9465  140.1118  157.1012 H   0  0  0  0  0  0  0  0  0  0  0  0  # atno 8008 bound_to 7997
  154.4100  140.1209  156.5062 H   0  0  0  0  0  0  0  0  0  0  0  0  # atno 8009 bound_to 7997
  155.6896  140.3472  155.4890 H   0  0  0  0  0  0  0  0  0  0  0  0  # atno 8010 bound_to 7997
  139.4940  144.5948  151.6605 H   0  0  0  0  0  0  0  0  0  0  0  0  # atno 10167 bound_to 10162
  156.3695  130.4337  149.7557 H   0  0  0  0  0  0  0  0  0  0  0  0  # atno 10718 bound_to 10713
  153.5597  135.7010  153.5553 H   0  0  0  0  0  0  0  0  0  0  0  0  # atno 10763 bound_to 10752
  153.3440  135.4013  155.1594 H   0  0  0  0  0  0  0  0  0  0  0  0  # atno 10764 bound_to 10752
  154.8649  135.3749  154.5113 H   0  0  0  0  0  0  0  0  0  0  0  0  # atno 10765 bound_to 10752
  141.1304  133.6626  156.5294 H   0  0  0  0  0  0  0  0  0  0  0  0  # atno 11005 bound_to 11000
  146.3207  140.3314  142.8640 LP  0  0  0  0  0  0  0  0  0  0  0  0  # atno 17320 bound_to 7965
  144.9229  140.7889  143.5737 LP  0  0  0  0  0  0  0  0  0  0  0  0  # atno 17321 bound_to 7965
  140.5584  144.0310  150.6158 LP  0  0  0  0  0  0  0  0  0  0  0  0  # atno 17342 bound_to 10162
  140.3387  143.3032  152.0611 LP  0  0  0  0  0  0  0  0  0  0  0  0  # atno 17343 bound_to 10162
  156.4689  130.7987  151.3006 LP  0  0  0  0  0  0  0  0  0  0  0  0  # atno 17370 bound_to 10713
  157.7482  131.0042  150.3067 LP  0  0  0  0  0  0  0  0  0  0  0  0  # atno 17371 bound_to 10713
  140.4228  134.7172  157.4899 LP  0  0  0  0  0  0  0  0  0  0  0  0  # atno 17394 bound_to 11000
  140.0348  134.6354  155.9058 LP  0  0  0  0  0  0  0  0  0  0  0  0  # atno 17395 bound_to 11000

$$$$
