AV-unprocessed.smi:2020|AV-procd|sdf|8174|dock1
  -GOLD-   2272010423D 1   1.00000     0.00000
 Structure written by MMmdl.
 40 41  0  0  0  0  0  0  0  0  1 V2000
  145.2514  136.6184  153.5742 C   0  0  0  0  0  0  0  0  0  0  0  0
  145.9854  137.8740  153.2504 C   0  0  0  0  0  0  0  0  0  0  0  0
  146.3634  138.7629  154.1722 N   0  0  0  0  0  0  0  0  0  0  0  0
  147.0424  139.8546  153.6218 C   0  0  0  0  0  0  0  0  0  0  0  0
  147.5447  140.9498  154.5128 C   0  0  0  0  0  0  0  0  0  0  0  0
  149.0661  141.1423  154.3951 C   0  0  0  0  0  0  0  0  0  0  0  0
  149.5462  142.1991  155.2778 N   0  0  0  0  0  0  0  0  0  0  0  0
  150.4613  142.0368  156.2435 C   0  0  0  0  0  0  0  0  0  0  0  0
  151.0097  140.9649  156.5013 O   0  0  0  0  0  0  0  0  0  0  0  0
  150.7030  143.1820  156.8969 N   0  0  0  0  0  0  0  0  0  0  0  0
  151.6434  143.3385  158.0024 C   0  0  2  0  0  0  0  0  0  0  0  0
  151.5958  142.1122  158.9364 C   0  0  0  0  0  0  0  0  0  0  0  0
  152.5352  142.2855  160.1425 C   0  0  0  0  0  0  0  0  0  0  0  0
  152.2555  143.5864  160.9184 C   0  0  2  0  0  0  0  0  0  0  0  0
  151.0177  143.4904  161.5952 O   0  0  0  0  0  0  0  0  0  0  0  0
  152.2527  144.8128  159.9864 C   0  0  0  0  0  0  0  0  0  0  0  0
  151.3164  144.6269  158.7795 C   0  0  0  0  0  0  0  0  0  0  0  0
  147.1731  139.7781  152.2576 C   0  0  0  0  0  0  0  0  0  0  0  0
  146.4495  138.3290  151.6152 S   0  0  0  0  0  0  0  0  0  0  0  0
  144.5390  136.7935  154.3810 H   0  0  0  0  0  0  0  0  0  0  0  0
  145.9550  135.8469  153.8870 H   0  0  0  0  0  0  0  0  0  0  0  0
  144.7066  136.2628  152.6994 H   0  0  0  0  0  0  0  0  0  0  0  0
  147.0416  141.8862  154.2682 H   0  0  0  0  0  0  0  0  0  0  0  0
  147.2796  140.7309  155.5478 H   0  0  0  0  0  0  0  0  0  0  0  0
  149.5895  140.2091  154.6114 H   0  0  0  0  0  0  0  0  0  0  0  0
  149.3269  141.4140  153.3720 H   0  0  0  0  0  0  0  0  0  0  0  0
  149.1530  143.1192  155.1430 H   0  0  0  0  0  0  0  0  0  0  0  0
  150.2000  144.0083  156.6088 H   0  0  0  0  0  0  0  0  0  0  0  0
  152.6522  143.4349  157.5963 H   0  0  0  0  0  0  0  0  0  0  0  0
  150.5752  141.9552  159.2883 H   0  0  0  0  0  0  0  0  0  0  0  0
  151.8727  141.2104  158.3891 H   0  0  0  0  0  0  0  0  0  0  0  0
  152.4570  141.4238  160.8062 H   0  0  0  0  0  0  0  0  0  0  0  0
  153.5659  142.2999  159.7856 H   0  0  0  0  0  0  0  0  0  0  0  0
  153.0245  143.7199  161.6798 H   0  0  0  0  0  0  0  0  0  0  0  0
  150.6772  144.3624  161.7244 H   0  0  0  0  0  0  0  0  0  0  0  0
  151.9751  145.7093  160.5421 H   0  0  0  0  0  0  0  0  0  0  0  0
  153.2666  144.9838  159.6222 H   0  0  0  0  0  0  0  0  0  0  0  0
  151.3973  145.4914  158.1194 H   0  0  0  0  0  0  0  0  0  0  0  0
  150.2814  144.5995  159.1238 H   0  0  0  0  0  0  0  0  0  0  0  0
  147.6511  140.4832  151.5937 H   0  0  0  0  0  0  0  0  0  0  0  0
  1  2  1  0  0  0  0
  1 20  1  0  0  0  0
  1 21  1  0  0  0  0
  1 22  1  0  0  0  0
  2 19  1  0  0  0  0
  2  3  2  0  0  0  0
  3  4  1  0  0  0  0
  4  5  1  0  0  0  0
  4 18  2  0  0  0  0
  5  6  1  0  0  0  0
  5 23  1  0  0  0  0
  5 24  1  0  0  0  0
  6  7  1  0  0  0  0
  6 25  1  0  0  0  0
  6 26  1  0  0  0  0
  7  8  1  0  0  0  0
  7 27  1  0  0  0  0
  8  9  2  0  0  0  0
  8 10  1  0  0  0  0
 10 11  1  0  0  0  0
 10 28  1  0  0  0  0
 11 17  1  0  0  0  0
 11 12  1  0  0  0  0
 11 29  1  0  0  0  0
 12 13  1  0  0  0  0
 12 30  1  0  0  0  0
 12 31  1  0  0  0  0
 13 14  1  0  0  0  0
 13 32  1  0  0  0  0
 13 33  1  0  0  0  0
 14 15  1  0  0  0  0
 14 16  1  0  0  0  0
 14 34  1  0  0  0  0
 15 35  1  0  0  0  0
 16 17  1  0  0  0  0
 16 36  1  0  0  0  0
 16 37  1  0  0  0  0
 17 38  1  0  0  0  0
 17 39  1  0  0  0  0
 18 19  1  0  0  0  0
 18 40  1  0  0  0  0
M  END
> <s_m_source_file>
AV-unprocessed.smi

> <i_m_source_file_index>
2020

> <i_lp_mmshare_version>
43012

> <i_f3d_flags>
0

> <s_epik_input>
W0NIM11jMW5jKFtjSF1zMSlbQ0gyXVtDSDJdW05IXUMoPU8pW05IXVtDQEBIXTJbQ0gyXVtDSDJdW0NAQEhdKFtPSF0pW0NIMl1bQ0gyXTI=

> <s_epik_cmdline>
J2VwaWtfcHl0aG9uJywgJy1waCcsICc3LjAnLCAnLXRuJywgJzgnLCAnLW1hJywgJzIwMCcsICctbWV0YWxfYmluZGluZycsICctaW1hZScsICc8aW5maWxlLm1hZT4nLCAnLW9tYWUnLCAnPG91dGZpbGUubWFlPic=

> <r_epik_Ionization_Penalty>
0.00202099

> <r_epik_Ionization_Penalty_Charging>
0

> <r_epik_Ionization_Penalty_Neutral>
0.00202099

> <r_epik_State_Penalty>
0.00133629

> <r_epik_Charging_Adjusted_Penalty>
0.00133629

> <i_epik_Tot_Q>
0

> <i_epik_Tot_abs_Q>
0

> <r_epik_Metal_State_Penalty>
-0

> <b_epik_Metal_Only>
0

> <s_lp_Force_Field>
OPLS_2005

> <r_lp_Energy>
2.55027

> <b_lp_Chiralities_Consistent>
1

> <s_lp_Variant>
AV-unprocessed.smi:2020-2

> <Gold.Version>
5.8.1

> <Gold.Id.Protein>
6NUR|6NUR_protein|mol2

> <Gold.PLP.Fitness>
49.1398

> <Gold.PLP.PLP>
-40.7261

> <Gold.PLP.part.hbond>
-4.0000

> <Gold.PLP.part.metal>
0.0000

> <Gold.PLP.part.buried>
-2.0993

> <Gold.PLP.part.nonpolar>
-36.1095

> <Gold.PLP.part.repulsive>
0.3900

> <Gold.PLP.ligand.clash>
0.0000

> <Gold.PLP.ligand.torsion>
0.2795

> <Gold.PLP.Chemscore.Hbond>
2.2780

> <Gold.PLP.Chemscore.CHOScore>
0.7016

> <Gold.PLP.Chemscore.Metal>
0.0000

> <Gold.Chemscore.Hbonds>
donor molecule, donor type, donor heavy atom, donor atom, acceptor molecule, acceptor atom, score
      L1  H     7    27       P1  8028  1.00
      L1  H    10    28       P1  8028  0.99
      P1  H  6933  6945       L1    15  0.29
      L1  C    18    40       P1  7957  0.68

> <Gold.PLP.Chemscore.Internal.Correction>
0.0341

> <Gold.Rescore>
     Score         DG    S(hbond)    S(metal)    S(lipo)     H(rot)  DE(clash)    DE(int)     intcor
     17.87     -20.00       2.23        0.00     106.27       2.10       0.26       1.87       ----

> <Gold.Chemscore.Fitness>
17.8685

> <Gold.Chemscore.DG>
-19.9978

> <Gold.Chemscore.ZeroCoef>
-5.4800

> <Gold.Chemscore.Hbond>
2.2334

> <Gold.Chemscore.Metal>
0.0000

> <Gold.Chemscore.Lipo>
106.2680

> <Gold.Chemscore.Internal_Hbond>
0.0000

> <Gold.Chemscore.DEClash>
0.2639

> <Gold.Chemscore.DEInternal>
1.8654

> <Gold.Chemscore.Rot>
2.0997

> <Gold.Chemscore.Internal.Correction>
   9.000000E+99

> <Gold.Chemscore.Hbonds>
donor molecule, donor type, donor heavy atom, donor atom, acceptor molecule, acceptor atom, score
      L1  H     7    27       P1  8028  0.97
      L1  H    10    28       P1  8028  0.94
      P1  H  6933  6945       L1    15  0.28

> <Gold.Chemscore.Hbond.Weighted>
-7.4597

> <Gold.Chemscore.Metal.Weighted>
-0.0000

> <Gold.Chemscore.Lipo.Weighted>
-12.4334

> <Gold.Chemscore.Internal_Hbond.Weighted>
0.0000

> <Gold.Chemscore.DEClash.Weighted>
0.2639

> <Gold.Chemscore.DEInternal.Weighted>
1.8654

> <Gold.Chemscore.Rot.Weighted>
5.3752

> <Gold.Chemscore.Internal.Correction.Weighted>
   9.000000E+99

> <Gold.Protein.RotatedTorsions>
[ 6907 6896 6895 6894 ] final  110.17 input  -60.11 | X-H torsion
[ 7974 7965 7964 7962 ] final -177.45 input  175.53 | X-H torsion
[ 8008 7997 7996 7995 ] final -149.81 input   59.86 | X-H torsion
[ 10167 10162 10161 10158 ] final   37.74 input  -65.29 | X-H torsion
[ 10718 10713 10712 10709 ] final   81.09 input   66.30 | X-H torsion
[ 10763 10752 10751 10750 ] final -145.92 input  -60.55 | X-H torsion
[ 11005 11000 10999 10996 ] final   27.68 input  -57.11 | X-H torsion

> <Gold.Protein.ActiveResidues>
 VAL166  LYS551  ARG553  GLY616  TRP617  ASP618  TYR619  PRO620  LYS621  CYS622 
 ASP623  PHE694  ASN695  SER759  ASP760  ASP761  ALA762  ILE779  LEU786  VAL792 
 PHE793  MET794  SER795  GLU796  ALA797  LYS798  CYS799  TRP800  GLU811  SER814 

> <Gold.Protein.RotatedAtoms>
  152.5032  133.8838  159.7359 H   0  0  0  0  0  0  0  0  0  0  0  0  # atno 6907 bound_to 6896
  150.9294  133.6776  159.2821 H   0  0  0  0  0  0  0  0  0  0  0  0  # atno 6908 bound_to 6896
  151.4126  135.0991  159.9642 H   0  0  0  0  0  0  0  0  0  0  0  0  # atno 6909 bound_to 6896
  144.7128  140.1017  143.6416 H   0  0  0  0  0  0  0  0  0  0  0  0  # atno 7974 bound_to 7965
  155.6136  140.0674  157.2699 H   0  0  0  0  0  0  0  0  0  0  0  0  # atno 8008 bound_to 7997
  154.4247  140.1797  156.1346 H   0  0  0  0  0  0  0  0  0  0  0  0  # atno 8009 bound_to 7997
  156.0065  140.3331  155.6901 H   0  0  0  0  0  0  0  0  0  0  0  0  # atno 8010 bound_to 7997
  140.4003  144.1732  150.6133 H   0  0  0  0  0  0  0  0  0  0  0  0  # atno 10167 bound_to 10162
  157.6824  130.9988  150.2175 H   0  0  0  0  0  0  0  0  0  0  0  0  # atno 10718 bound_to 10713
  154.8361  135.3400  154.6580 H   0  0  0  0  0  0  0  0  0  0  0  0  # atno 10763 bound_to 10752
  153.7195  135.6959  153.5021 H   0  0  0  0  0  0  0  0  0  0  0  0  # atno 10764 bound_to 10752
  153.2392  135.4390  155.0633 H   0  0  0  0  0  0  0  0  0  0  0  0  # atno 10765 bound_to 10752
  140.3237  134.2515  155.7713 H   0  0  0  0  0  0  0  0  0  0  0  0  # atno 11005 bound_to 11000
  145.9532  139.2748  143.1200 LP  0  0  0  0  0  0  0  0  0  0  0  0  # atno 17320 bound_to 7965
  145.9301  140.9055  143.0361 LP  0  0  0  0  0  0  0  0  0  0  0  0  # atno 17321 bound_to 7965
  140.4747  143.2400  151.9040 LP  0  0  0  0  0  0  0  0  0  0  0  0  # atno 17342 bound_to 10162
  139.4785  144.5333  151.8635 LP  0  0  0  0  0  0  0  0  0  0  0  0  # atno 17343 bound_to 10162
  156.2834  130.3736  149.7913 LP  0  0  0  0  0  0  0  0  0  0  0  0  # atno 17370 bound_to 10713
  156.5595  130.8377  151.3324 LP  0  0  0  0  0  0  0  0  0  0  0  0  # atno 17371 bound_to 10713
  141.2080  133.7789  157.0083 LP  0  0  0  0  0  0  0  0  0  0  0  0  # atno 17394 bound_to 11000
  140.0920  134.9587  157.1791 LP  0  0  0  0  0  0  0  0  0  0  0  0  # atno 17395 bound_to 11000

$$$$
