AV-unprocessed.smi:921|AV-procd|sdf|4169|dock1
  -GOLD-   22720 2 73D 1   1.00000     0.00000
 Structure written by MMmdl.
 39 41  0  0  0  0  0  0  0  0  1 V2000
  150.6366  137.0054  157.3886 N   0  0  0  0  0  0  0  0  0  0  0  0
  151.4099  136.6940  156.3447 C   0  0  0  0  0  0  0  0  0  0  0  0
  151.7111  135.5326  156.0776 O   0  0  0  0  0  0  0  0  0  0  0  0
  151.9239  137.8531  155.4821 C   0  0  0  0  0  0  0  0  0  0  0  0
  150.7560  138.6725  154.9888 C   0  0  0  0  0  0  0  0  0  0  0  0
  149.8114  138.1476  154.2013 N   0  0  0  0  0  0  0  0  0  0  0  0
  148.9549  139.2085  153.9903 C   0  0  0  0  0  0  0  0  0  0  0  0
  147.7677  139.2938  153.2285 C   0  0  0  0  0  0  0  0  0  0  0  0
  147.0481  140.5050  153.1620 C   0  0  0  0  0  0  0  0  0  0  0  0
  147.5040  141.6444  153.8562 C   0  0  0  0  0  0  0  0  0  0  0  0
  148.6834  141.5791  154.6226 C   0  0  0  0  0  0  0  0  0  0  0  0
  149.3985  140.3678  154.6842 C   0  0  0  0  0  0  0  0  0  0  0  0
  150.5640  139.9749  155.3354 N   0  0  0  0  0  0  0  0  0  0  0  0
  151.3618  140.8319  156.2049 C   0  0  0  0  0  0  0  0  0  0  0  0
  151.2001  140.4882  157.6987 C   0  0  2  0  0  0  0  0  0  0  0  0
  149.8327  140.3115  158.0105 O   0  0  0  0  0  0  0  0  0  0  0  0
  151.8611  141.5411  158.5775 C   0  0  0  0  0  0  0  0  0  0  0  0
  151.5314  142.9064  158.4229 C   0  0  0  0  0  0  0  0  0  0  0  0
  152.1483  143.8840  159.2271 C   0  0  0  0  0  0  0  0  0  0  0  0
  151.8251  145.1898  159.0732 F   0  0  0  0  0  0  0  0  0  0  0  0
  153.1023  143.5041  160.1896 C   0  0  0  0  0  0  0  0  0  0  0  0
  153.4412  142.1466  160.3444 C   0  0  0  0  0  0  0  0  0  0  0  0
  152.8260  141.1669  159.5405 C   0  0  0  0  0  0  0  0  0  0  0  0
  153.1720  139.8663  159.6975 F   0  0  0  0  0  0  0  0  0  0  0  0
  150.2668  136.2705  157.9737 H   0  0  0  0  0  0  0  0  0  0  0  0
  150.4133  137.9709  157.5821 H   0  0  0  0  0  0  0  0  0  0  0  0
  152.5930  138.4940  156.0575 H   0  0  0  0  0  0  0  0  0  0  0  0
  152.5056  137.4349  154.6639 H   0  0  0  0  0  0  0  0  0  0  0  0
  147.4103  138.4263  152.6937 H   0  0  0  0  0  0  0  0  0  0  0  0
  146.1422  140.5599  152.5763 H   0  0  0  0  0  0  0  0  0  0  0  0
  146.9472  142.5683  153.8007 H   0  0  0  0  0  0  0  0  0  0  0  0
  149.0349  142.4500  155.1557 H   0  0  0  0  0  0  0  0  0  0  0  0
  152.4072  140.7071  155.9197 H   0  0  0  0  0  0  0  0  0  0  0  0
  151.1373  141.8795  156.0098 H   0  0  0  0  0  0  0  0  0  0  0  0
  151.6782  139.5267  157.8889 H   0  0  0  0  0  0  0  0  0  0  0  0
  149.4593  141.1545  158.2175 H   0  0  0  0  0  0  0  0  0  0  0  0
  150.8052  143.2096  157.6828 H   0  0  0  0  0  0  0  0  0  0  0  0
  153.5764  144.2532  160.8063 H   0  0  0  0  0  0  0  0  0  0  0  0
  154.1762  141.8562  161.0803 H   0  0  0  0  0  0  0  0  0  0  0  0
  1  2  1  0  0  0  0
  1 25  1  0  0  0  0
  1 26  1  0  0  0  0
  2  3  2  0  0  0  0
  2  4  1  0  0  0  0
  4  5  1  0  0  0  0
  4 27  1  0  0  0  0
  4 28  1  0  0  0  0
  5 13  1  0  0  0  0
  5  6  2  0  0  0  0
  6  7  1  0  0  0  0
  7 12  2  0  0  0  0
  7  8  1  0  0  0  0
  8  9  2  0  0  0  0
  8 29  1  0  0  0  0
  9 10  1  0  0  0  0
  9 30  1  0  0  0  0
 10 11  2  0  0  0  0
 10 31  1  0  0  0  0
 11 12  1  0  0  0  0
 11 32  1  0  0  0  0
 12 13  1  0  0  0  0
 13 14  1  0  0  0  0
 14 15  1  0  0  0  0
 14 33  1  0  0  0  0
 14 34  1  0  0  0  0
 15 16  1  0  0  0  0
 15 17  1  0  0  0  0
 15 35  1  0  0  0  0
 16 36  1  0  0  0  0
 17 23  1  0  0  0  0
 17 18  2  0  0  0  0
 18 19  1  0  0  0  0
 18 37  1  0  0  0  0
 19 20  1  0  0  0  0
 19 21  2  0  0  0  0
 21 22  1  0  0  0  0
 21 38  1  0  0  0  0
 22 23  2  0  0  0  0
 22 39  1  0  0  0  0
 23 24  1  0  0  0  0
M  END
> <s_m_source_file>
AV-unprocessed.smi

> <i_m_source_file_index>
921

> <i_lp_mmshare_version>
43012

> <i_f3d_flags>
0

> <s_epik_input>
W2NIXTFbY0hdW2NIXVtjSF1jKGMxMiluKGMobjIpW0NIMl1DKD1PKVtOSDJdKVtDSDJdW0NASF0oW09IXSljM1tjSF1jKEYpW2NIXVtjSF1jM0Y=

> <s_epik_cmdline>
J2VwaWtfcHl0aG9uJywgJy1waCcsICc3LjAnLCAnLXRuJywgJzgnLCAnLW1hJywgJzIwMCcsICctbWV0YWxfYmluZGluZycsICctaW1hZScsICc8aW5maWxlLm1hZT4nLCAnLW9tYWUnLCAnPG91dGZpbGUubWFlPic=

> <r_epik_Ionization_Penalty>
0.0366909

> <r_epik_Ionization_Penalty_Charging>
0

> <r_epik_Ionization_Penalty_Neutral>
0.0366909

> <r_epik_State_Penalty>
0.0306642

> <r_epik_Charging_Adjusted_Penalty>
0.0306642

> <i_epik_Tot_Q>
0

> <i_epik_Tot_abs_Q>
0

> <r_epik_Metal_State_Penalty>
0.028853

> <b_epik_Metal_Only>
0

> <s_lp_Force_Field>
OPLS_2005

> <r_lp_Energy>
14.0365

> <b_lp_Chiralities_Consistent>
1

> <s_lp_Variant>
AV-unprocessed.smi:921-1

> <Gold.Version>
5.8.1

> <Gold.Id.Protein>
6NUR|6NUR_protein|mol2

> <Gold.PLP.Fitness>
53.1175

> <Gold.PLP.PLP>
-50.8322

> <Gold.PLP.part.hbond>
-1.0000

> <Gold.PLP.part.metal>
0.0000

> <Gold.PLP.part.buried>
-2.9697

> <Gold.PLP.part.nonpolar>
-47.7894

> <Gold.PLP.part.repulsive>
0.5846

> <Gold.PLP.ligand.clash>
0.0000

> <Gold.PLP.ligand.torsion>
0.3919

> <Gold.PLP.Chemscore.Hbond>
1.0000

> <Gold.PLP.Chemscore.CHOScore>
0.0000

> <Gold.PLP.Chemscore.Metal>
0.0000

> <Gold.Chemscore.Hbonds>
donor molecule, donor type, donor heavy atom, donor atom, acceptor molecule, acceptor atom, score
      P1  H 10752 10764       L1     3  1.00

> <Gold.PLP.Chemscore.Internal.Correction>
0.0691

> <Gold.Rescore>
     Score         DG    S(hbond)    S(metal)    S(lipo)     H(rot)  DE(clash)    DE(int)     intcor
     14.55     -15.13       0.97        0.00     122.87       3.11       0.06       0.52       ----

> <Gold.Chemscore.Fitness>
14.5481

> <Gold.Chemscore.DG>
-15.1265

> <Gold.Chemscore.ZeroCoef>
-5.4800

> <Gold.Chemscore.Hbond>
0.9692

> <Gold.Chemscore.Metal>
0.0000

> <Gold.Chemscore.Lipo>
122.8742

> <Gold.Chemscore.Internal_Hbond>
0.0000

> <Gold.Chemscore.DEClash>
0.0629

> <Gold.Chemscore.DEInternal>
0.5155

> <Gold.Chemscore.Rot>
3.1121

> <Gold.Chemscore.Internal.Correction>
   9.000000E+99

> <Gold.Chemscore.Hbonds>
donor molecule, donor type, donor heavy atom, donor atom, acceptor molecule, acceptor atom, score
      P1  H 10752 10764       L1     3  0.78

> <Gold.Chemscore.Hbond.Weighted>
-3.2373

> <Gold.Chemscore.Metal.Weighted>
-0.0000

> <Gold.Chemscore.Lipo.Weighted>
-14.3763

> <Gold.Chemscore.Internal_Hbond.Weighted>
0.0000

> <Gold.Chemscore.DEClash.Weighted>
0.0629

> <Gold.Chemscore.DEInternal.Weighted>
0.5155

> <Gold.Chemscore.Rot.Weighted>
7.9670

> <Gold.Chemscore.Internal.Correction.Weighted>
   9.000000E+99

> <Gold.Protein.RotatedTorsions>
[ 6907 6896 6895 6894 ] final -165.69 input  -60.11 | X-H torsion
[ 7974 7965 7964 7962 ] final  133.03 input  175.53 | X-H torsion
[ 8008 7997 7996 7995 ] final -102.64 input   59.86 | X-H torsion
[ 10167 10162 10161 10158 ] final   28.80 input  -65.29 | X-H torsion
[ 10718 10713 10712 10709 ] final  -62.41 input   66.30 | X-H torsion
[ 10763 10752 10751 10750 ] final  -35.89 input  -60.55 | X-H torsion
[ 11005 11000 10999 10996 ] final -162.60 input  -57.11 | X-H torsion

> <Gold.Protein.ActiveResidues>
 VAL166  LYS551  ARG553  GLY616  TRP617  ASP618  TYR619  PRO620  LYS621  CYS622 
 ASP623  PHE694  ASN695  SER759  ASP760  ASP761  ALA762  ILE779  LEU786  VAL792 
 PHE793  MET794  SER795  GLU796  ALA797  LYS798  CYS799  TRP800  GLU811  SER814 

> <Gold.Protein.RotatedAtoms>
  151.4317  133.3668  159.2769 H   0  0  0  0  0  0  0  0  0  0  0  0  # atno 6907 bound_to 6896
  150.9220  134.8639  159.7506 H   0  0  0  0  0  0  0  0  0  0  0  0  # atno 6908 bound_to 6896
  152.4986  134.4255  159.9547 H   0  0  0  0  0  0  0  0  0  0  0  0  # atno 6909 bound_to 6896
  144.9907  139.4409  143.5341 H   0  0  0  0  0  0  0  0  0  0  0  0  # atno 7974 bound_to 7965
  154.8596  140.0427  157.1656 H   0  0  0  0  0  0  0  0  0  0  0  0  # atno 8008 bound_to 7997
  154.8854  140.2979  155.5380 H   0  0  0  0  0  0  0  0  0  0  0  0  # atno 8009 bound_to 7997
  156.2998  140.2403  156.3863 H   0  0  0  0  0  0  0  0  0  0  0  0  # atno 8010 bound_to 7997
  140.4821  144.0600  150.6268 H   0  0  0  0  0  0  0  0  0  0  0  0  # atno 10167 bound_to 10162
  156.0857  130.4209  150.1131 H   0  0  0  0  0  0  0  0  0  0  0  0  # atno 10718 bound_to 10713
  153.8706  135.6831  153.4775 H   0  0  0  0  0  0  0  0  0  0  0  0  # atno 10763 bound_to 10752
  153.1289  135.4706  154.9315 H   0  0  0  0  0  0  0  0  0  0  0  0  # atno 10764 bound_to 10752
  154.7716  135.3240  154.8129 H   0  0  0  0  0  0  0  0  0  0  0  0  # atno 10765 bound_to 10752
  140.6075  134.4884  157.5212 H   0  0  0  0  0  0  0  0  0  0  0  0  # atno 11005 bound_to 11000
  146.3430  139.9237  142.8763 LP  0  0  0  0  0  0  0  0  0  0  0  0  # atno 17320 bound_to 7965
  145.2290  140.9965  143.4002 LP  0  0  0  0  0  0  0  0  0  0  0  0  # atno 17321 bound_to 7965
  140.3845  143.2785  152.0132 LP  0  0  0  0  0  0  0  0  0  0  0  0  # atno 17342 bound_to 10162
  139.4835  144.6128  151.7402 LP  0  0  0  0  0  0  0  0  0  0  0  0  # atno 17343 bound_to 10162
  156.9153  130.9665  151.3557 LP  0  0  0  0  0  0  0  0  0  0  0  0  # atno 17370 bound_to 10713
  157.5990  130.8499  149.8773 LP  0  0  0  0  0  0  0  0  0  0  0  0  # atno 17371 bound_to 10713
  139.9206  134.8156  156.1223 LP  0  0  0  0  0  0  0  0  0  0  0  0  # atno 17394 bound_to 11000
  141.0831  133.6746  156.2378 LP  0  0  0  0  0  0  0  0  0  0  0  0  # atno 17395 bound_to 11000

$$$$
