AV-unprocessed.smi:2922|AV-procd|sdf|11201|dock6
  -GOLD-   2272016 93D 1   1.00000     0.00000
 Structure written by MMmdl.
 30 31  0  0  0  0  0  0  0  0  1 V2000
  142.2218  132.2761  148.0444 N   0  0  0  0  0  0  0  0  0  0  0  0
  143.4377  132.6746  148.4302 C   0  0  0  0  0  0  0  0  0  0  0  0
  144.0868  133.4940  147.7831 O   0  0  0  0  0  0  0  0  0  0  0  0
  144.0190  132.0477  149.7102 C   0  0  1  0  0  0  0  0  0  0  0  0
  145.5492  132.1901  149.8383 C   0  0  0  0  0  0  0  0  0  0  0  0
  145.7425  132.9427  151.1441 C   0  0  0  0  0  0  0  0  0  0  0  0
  144.4239  133.6902  151.3008 C   0  0  2  0  0  0  0  0  0  0  0  0
  144.1243  134.1279  152.7429 C   0  0  0  0  0  0  0  0  0  0  0  0
  142.7301  133.9055  153.1020 N   0  0  0  0  0  0  0  0  0  0  0  0
  141.8106  134.9124  153.3348 C   0  0  0  0  0  0  0  0  0  0  0  0
  140.5861  134.5737  153.7575 N   0  0  0  0  0  0  0  0  0  0  0  0
  139.7071  135.5777  153.9672 C   0  0  0  0  0  0  0  0  0  0  0  0
  140.0628  136.9243  153.7545 C   0  0  0  0  0  0  0  0  0  0  0  0
  138.9447  138.2113  154.0177 Cl  0  0  0  0  0  0  0  0  0  0  0  0
  141.3800  137.1641  153.3151 C   0  0  0  0  0  0  0  0  0  0  0  0
  142.2516  136.1525  153.1066 N   0  0  0  0  0  0  0  0  0  0  0  0
  143.4938  132.7114  150.8600 O   0  0  0  0  0  0  0  0  0  0  0  0
  141.8041  132.6663  147.2120 H   0  0  0  0  0  0  0  0  0  0  0  0
  141.7253  131.5875  148.5916 H   0  0  0  0  0  0  0  0  0  0  0  0
  143.7214  130.9994  149.7492 H   0  0  0  0  0  0  0  0  0  0  0  0
  146.0499  131.2216  149.8570 H   0  0  0  0  0  0  0  0  0  0  0  0
  145.9807  132.7645  149.0173 H   0  0  0  0  0  0  0  0  0  0  0  0
  145.8720  132.2335  151.9631 H   0  0  0  0  0  0  0  0  0  0  0  0
  146.6080  133.6056  151.1290 H   0  0  0  0  0  0  0  0  0  0  0  0
  144.4054  134.5478  150.6252 H   0  0  0  0  0  0  0  0  0  0  0  0
  144.7915  133.6318  153.4488 H   0  0  0  0  0  0  0  0  0  0  0  0
  144.3135  135.1970  152.8401 H   0  0  0  0  0  0  0  0  0  0  0  0
  142.4737  132.9803  153.4146 H   0  0  0  0  0  0  0  0  0  0  0  0
  138.7182  135.3039  154.3044 H   0  0  0  0  0  0  0  0  0  0  0  0
  141.7356  138.1666  153.1285 H   0  0  0  0  0  0  0  0  0  0  0  0
  1  2  1  0  0  0  0
  1 18  1  0  0  0  0
  1 19  1  0  0  0  0
  2  3  2  0  0  0  0
  2  4  1  0  0  0  0
  4 17  1  0  0  0  0
  4  5  1  0  0  0  0
  4 20  1  0  0  0  0
  5  6  1  0  0  0  0
  5 21  1  0  0  0  0
  5 22  1  0  0  0  0
  6  7  1  0  0  0  0
  6 23  1  0  0  0  0
  6 24  1  0  0  0  0
  7  8  1  0  0  0  0
  7 17  1  0  0  0  0
  7 25  1  0  0  0  0
  8  9  1  0  0  0  0
  8 26  1  0  0  0  0
  8 27  1  0  0  0  0
  9 10  1  0  0  0  0
  9 28  1  0  0  0  0
 10 16  1  0  0  0  0
 10 11  2  0  0  0  0
 11 12  1  0  0  0  0
 12 13  2  0  0  0  0
 12 29  1  0  0  0  0
 13 14  1  0  0  0  0
 13 15  1  0  0  0  0
 15 16  2  0  0  0  0
 15 30  1  0  0  0  0
M  END
> <s_m_source_file>
AV-unprocessed.smi

> <i_m_source_file_index>
2922

> <i_lp_mmshare_version>
43012

> <i_f3d_flags>
0

> <s_epik_input>
W05IMl1DKD1PKVtDQEBIXTFbQ0gyXVtDSDJdW0NASF0oTzEpW0NIMl1bTkhdYzJuW2NIXWMoQ2wpW2NIXW4y

> <s_epik_cmdline>
J2VwaWtfcHl0aG9uJywgJy1waCcsICc3LjAnLCAnLXRuJywgJzgnLCAnLW1hJywgJzIwMCcsICctbWV0YWxfYmluZGluZycsICctaW1hZScsICc8aW5maWxlLm1hZT4nLCAnLW9tYWUnLCAnPG91dGZpbGUubWFlPic=

> <r_lp_tautomer_probability>
1

> <r_epik_Ionization_Penalty>
6.13883e-06

> <r_epik_Ionization_Penalty_Charging>
0

> <r_epik_Ionization_Penalty_Neutral>
6.13883e-06

> <r_epik_State_Penalty>
-0

> <r_epik_Charging_Adjusted_Penalty>
0

> <i_epik_Tot_Q>
0

> <i_epik_Tot_abs_Q>
0

> <r_epik_Metal_State_Penalty>
-0

> <b_epik_Metal_Only>
0

> <s_lp_Force_Field>
OPLS_2005

> <r_lp_Energy>
9.79995

> <b_lp_Chiralities_Consistent>
1

> <s_lp_Variant>
AV-unprocessed.smi:2922-4

> <Gold.Version>
5.8.1

> <Gold.Id.Protein>
6NUR|6NUR_protein|mol2

> <Gold.PLP.Fitness>
47.7600

> <Gold.PLP.PLP>
-34.2809

> <Gold.PLP.part.hbond>
-6.2568

> <Gold.PLP.part.metal>
0.0000

> <Gold.PLP.part.buried>
-7.6883

> <Gold.PLP.part.nonpolar>
-25.9145

> <Gold.PLP.part.repulsive>
5.4043

> <Gold.PLP.ligand.clash>
0.0000

> <Gold.PLP.ligand.torsion>
1.1319

> <Gold.PLP.Chemscore.Hbond>
4.2383

> <Gold.PLP.Chemscore.CHOScore>
1.0000

> <Gold.PLP.Chemscore.Metal>
0.0000

> <Gold.Chemscore.Hbonds>
donor molecule, donor type, donor heavy atom, donor atom, acceptor molecule, acceptor atom, score
      L1  H     1    18       P1 10195  1.00
      L1  H     1    19       P1 10952  1.00
      L1  H     9    28       P1 10957  0.91
      P1  H  7918  7932       L1     3  0.67
      P1  H 10995 11001       L1    11  0.07
      P1  H 11000 11005       L1    11  0.40

> <Gold.PLP.Chemscore.Internal.Correction>
0.0281

> <Gold.Rescore>
     Score         DG    S(hbond)    S(metal)    S(lipo)     H(rot)  DE(clash)    DE(int)     intcor
     17.18     -20.47       3.62        0.00      66.53       1.91       1.98       1.31       ----

> <Gold.Chemscore.Fitness>
17.1786

> <Gold.Chemscore.DG>
-20.4672

> <Gold.Chemscore.ZeroCoef>
-5.4800

> <Gold.Chemscore.Hbond>
3.6237

> <Gold.Chemscore.Metal>
0.0000

> <Gold.Chemscore.Lipo>
66.5310

> <Gold.Chemscore.Internal_Hbond>
0.0000

> <Gold.Chemscore.DEClash>
1.9778

> <Gold.Chemscore.DEInternal>
1.3107

> <Gold.Chemscore.Rot>
1.9142

> <Gold.Chemscore.Internal.Correction>
   9.000000E+99

> <Gold.Chemscore.Hbonds>
donor molecule, donor type, donor heavy atom, donor atom, acceptor molecule, acceptor atom, score
      L1  H     1    18       P1 10195  0.93
      L1  H     1    19       P1 10952  1.00
      L1  H     9    28       P1 10957  0.72
      P1  H  7918  7932       L1     3  0.64
      P1  H 10995 11001       L1    11  0.01
      P1  H 11000 11005       L1    11  0.01

> <Gold.Chemscore.Hbond.Weighted>
-12.1033

> <Gold.Chemscore.Metal.Weighted>
-0.0000

> <Gold.Chemscore.Lipo.Weighted>
-7.7841

> <Gold.Chemscore.Internal_Hbond.Weighted>
0.0000

> <Gold.Chemscore.DEClash.Weighted>
1.9778

> <Gold.Chemscore.DEInternal.Weighted>
1.3107

> <Gold.Chemscore.Rot.Weighted>
4.9002

> <Gold.Chemscore.Internal.Correction.Weighted>
   9.000000E+99

> <Gold.Protein.RotatedTorsions>
[ 6907 6896 6895 6894 ] final   19.71 input  -60.11 | X-H torsion
[ 7974 7965 7964 7962 ] final -160.80 input  175.53 | X-H torsion
[ 8008 7997 7996 7995 ] final   32.21 input   59.86 | X-H torsion
[ 10167 10162 10161 10158 ] final  -12.12 input  -65.29 | X-H torsion
[ 10718 10713 10712 10709 ] final  -68.91 input   66.30 | X-H torsion
[ 10763 10752 10751 10750 ] final   58.18 input  -60.55 | X-H torsion
[ 11005 11000 10999 10996 ] final   16.09 input  -57.11 | X-H torsion

> <Gold.Protein.ActiveResidues>
 VAL166  LYS551  ARG553  GLY616  TRP617  ASP618  TYR619  PRO620  LYS621  CYS622 
 ASP623  PHE694  ASN695  SER759  ASP760  ASP761  ALA762  ILE779  LEU786  VAL792 
 PHE793  MET794  SER795  GLU796  ALA797  LYS798  CYS799  TRP800  GLU811  SER814 

> <Gold.Protein.RotatedAtoms>
  151.8852  135.0438  160.0492 H   0  0  0  0  0  0  0  0  0  0  0  0  # atno 6907 bound_to 6896
  152.2481  133.5187  159.5317 H   0  0  0  0  0  0  0  0  0  0  0  0  # atno 6908 bound_to 6896
  150.7075  134.0914  159.3975 H   0  0  0  0  0  0  0  0  0  0  0  0  # atno 6909 bound_to 6896
  144.7414  140.3490  143.6119 H   0  0  0  0  0  0  0  0  0  0  0  0  # atno 7974 bound_to 7965
  155.1188  140.3246  155.4502 H   0  0  0  0  0  0  0  0  0  0  0  0  # atno 8008 bound_to 7997
  156.2669  140.2031  156.6259 H   0  0  0  0  0  0  0  0  0  0  0  0  # atno 8009 bound_to 7997
  154.6699  140.0537  157.0141 H   0  0  0  0  0  0  0  0  0  0  0  0  # atno 8010 bound_to 7997
  140.7154  143.5566  150.9242 H   0  0  0  0  0  0  0  0  0  0  0  0  # atno 10167 bound_to 10162
  156.0481  130.4303  150.2070 H   0  0  0  0  0  0  0  0  0  0  0  0  # atno 10718 bound_to 10713
  152.9865  135.5615  154.5511 H   0  0  0  0  0  0  0  0  0  0  0  0  # atno 10763 bound_to 10752
  154.4948  135.2794  155.1470 H   0  0  0  0  0  0  0  0  0  0  0  0  # atno 10764 bound_to 10752
  154.2924  135.6323  153.5444 H   0  0  0  0  0  0  0  0  0  0  0  0  # atno 10765 bound_to 10752
  140.4510  134.1225  155.7702 H   0  0  0  0  0  0  0  0  0  0  0  0  # atno 11005 bound_to 11000
  145.7296  139.1732  143.2438 LP  0  0  0  0  0  0  0  0  0  0  0  0  # atno 17320 bound_to 7965
  146.1216  140.7302  142.9455 LP  0  0  0  0  0  0  0  0  0  0  0  0  # atno 17321 bound_to 7965
  139.9291  143.6515  152.3080 LP  0  0  0  0  0  0  0  0  0  0  0  0  # atno 17342 bound_to 10162
  139.6959  144.7641  151.1357 LP  0  0  0  0  0  0  0  0  0  0  0  0  # atno 17343 bound_to 10162
  157.0157  130.9964  151.3354 LP  0  0  0  0  0  0  0  0  0  0  0  0  # atno 17370 bound_to 10713
  157.5379  130.8101  149.7994 LP  0  0  0  0  0  0  0  0  0  0  0  0  # atno 17371 bound_to 10713
  141.1664  133.8694  157.1701 LP  0  0  0  0  0  0  0  0  0  0  0  0  # atno 17394 bound_to 11000
  140.0007  135.0029  157.0183 LP  0  0  0  0  0  0  0  0  0  0  0  0  # atno 17395 bound_to 11000

$$$$
