AV-unprocessed.smi:648|AV-procd|sdf|3176|dock5
  -GOLD-   22720 0103D 1   1.00000     0.00000
 Structure written by MMmdl.
 45 46  0  0  0  0  0  0  0  0  1 V2000
  148.7426  141.2177  154.1124 C   0  0  0  0  0  0  0  0  0  0  0  0
  149.4877  140.0746  154.8173 C   0  0  2  0  0  0  0  0  0  0  0  0
  148.5168  139.2073  155.6408 C   0  0  0  0  0  0  0  0  0  0  0  0
  149.2003  138.0217  156.3618 C   0  0  0  0  0  0  0  0  0  0  0  0
  148.2065  137.4429  157.3930 C   0  0  0  0  0  0  0  0  0  0  0  0
  149.5066  136.8781  155.3670 C   0  0  0  0  0  0  0  0  0  0  0  0
  150.4603  138.5119  157.1399 C   0  0  0  0  0  0  0  0  0  0  0  0
  151.4325  139.5026  156.4234 C   0  0  2  0  0  0  0  0  0  0  0  0
  152.3383  138.7527  155.4080 C   0  0  0  0  0  0  0  0  0  0  0  0
  153.1947  139.6330  154.7040 O   0  0  0  0  0  0  0  0  0  0  0  0
  152.3716  140.0759  157.4147 N   0  0  0  0  0  0  0  0  0  0  0  0
  151.8800  140.9963  158.4498 C   0  0  0  0  0  0  0  0  0  0  0  0
  153.0424  141.5429  159.2930 C   0  0  0  0  0  0  0  0  0  0  0  0
  152.6314  142.6378  160.1523 N   0  0  0  0  0  0  0  0  0  0  0  0
  152.6641  142.7584  161.4805 C   0  0  0  0  0  0  0  0  0  0  0  0
  152.2053  143.9205  161.9239 N   0  0  0  0  0  0  0  0  0  0  0  0
  151.8833  144.5077  160.7327 C   0  0  0  0  0  0  0  0  0  0  0  0
  152.1179  143.7806  159.6402 N   0  0  0  0  0  0  0  0  0  0  0  0
  150.6021  140.6190  155.7295 C   0  0  0  0  0  0  0  0  0  0  0  0
  148.2640  141.8840  154.8309 H   0  0  0  0  0  0  0  0  0  0  0  0
  147.9677  140.8312  153.4497 H   0  0  0  0  0  0  0  0  0  0  0  0
  149.4241  141.8153  153.5066 H   0  0  0  0  0  0  0  0  0  0  0  0
  149.9355  139.4655  154.0334 H   0  0  0  0  0  0  0  0  0  0  0  0
  148.0313  139.8468  156.3799 H   0  0  0  0  0  0  0  0  0  0  0  0
  147.7158  138.8364  154.9996 H   0  0  0  0  0  0  0  0  0  0  0  0
  148.6407  136.5994  157.9314 H   0  0  0  0  0  0  0  0  0  0  0  0
  147.2918  137.0907  156.9146 H   0  0  0  0  0  0  0  0  0  0  0  0
  147.9126  138.1864  158.1350 H   0  0  0  0  0  0  0  0  0  0  0  0
  150.1512  136.1210  155.8143 H   0  0  0  0  0  0  0  0  0  0  0  0
  149.9722  137.2170  154.4464 H   0  0  0  0  0  0  0  0  0  0  0  0
  148.5899  136.3753  155.0568 H   0  0  0  0  0  0  0  0  0  0  0  0
  150.0764  139.0050  158.0304 H   0  0  0  0  0  0  0  0  0  0  0  0
  151.0194  137.6546  157.5180 H   0  0  0  0  0  0  0  0  0  0  0  0
  152.9498  138.0056  155.9160 H   0  0  0  0  0  0  0  0  0  0  0  0
  151.7699  138.2216  154.6543 H   0  0  0  0  0  0  0  0  0  0  0  0
  153.4608  139.2138  153.9000 H   0  0  0  0  0  0  0  0  0  0  0  0
  153.1448  140.5096  156.9198 H   0  0  0  0  0  0  0  0  0  0  0  0
  151.3518  141.8402  158.0086 H   0  0  0  0  0  0  0  0  0  0  0  0
  151.1806  140.4978  159.1181 H   0  0  0  0  0  0  0  0  0  0  0  0
  153.4503  140.7499  159.9210 H   0  0  0  0  0  0  0  0  0  0  0  0
  153.8559  141.8836  158.6509 H   0  0  0  0  0  0  0  0  0  0  0  0
  153.0347  141.9830  162.1350 H   0  0  0  0  0  0  0  0  0  0  0  0
  151.4625  145.5003  160.6686 H   0  0  0  0  0  0  0  0  0  0  0  0
  151.2549  141.2865  155.1660 H   0  0  0  0  0  0  0  0  0  0  0  0
  150.1144  141.2465  156.4739 H   0  0  0  0  0  0  0  0  0  0  0  0
  1  2  1  0  0  0  0
  1 20  1  0  0  0  0
  1 21  1  0  0  0  0
  1 22  1  0  0  0  0
  2 19  1  0  0  0  0
  2  3  1  0  0  0  0
  2 23  1  0  0  0  0
  3  4  1  0  0  0  0
  3 24  1  0  0  0  0
  3 25  1  0  0  0  0
  4  5  1  0  0  0  0
  4  6  1  0  0  0  0
  4  7  1  0  0  0  0
  5 26  1  0  0  0  0
  5 27  1  0  0  0  0
  5 28  1  0  0  0  0
  6 29  1  0  0  0  0
  6 30  1  0  0  0  0
  6 31  1  0  0  0  0
  7  8  1  0  0  0  0
  7 32  1  0  0  0  0
  7 33  1  0  0  0  0
  8  9  1  0  0  0  0
  8 11  1  0  0  0  0
  8 19  1  0  0  0  0
  9 10  1  0  0  0  0
  9 34  1  0  0  0  0
  9 35  1  0  0  0  0
 10 36  1  0  0  0  0
 11 12  1  0  0  0  0
 11 37  1  0  0  0  0
 12 13  1  0  0  0  0
 12 38  1  0  0  0  0
 12 39  1  0  0  0  0
 13 14  1  0  0  0  0
 13 40  1  0  0  0  0
 13 41  1  0  0  0  0
 14 18  1  0  0  0  0
 14 15  1  0  0  0  0
 15 16  2  0  0  0  0
 15 42  1  0  0  0  0
 16 17  1  0  0  0  0
 17 18  2  0  0  0  0
 17 43  1  0  0  0  0
 19 44  1  0  0  0  0
 19 45  1  0  0  0  0
M  END
> <s_m_source_file>
AV-unprocessed.smi

> <i_m_source_file_index>
648

> <i_lp_mmshare_version>
43012

> <i_f3d_flags>
0

> <s_epik_input>
W0NIM11DMShbQ0gzXSlbQ0gyXVtDQEBIXShbQ0gzXSlbQ0gyXVtDQF0oW0NIMl0xKShbQ0gyXVtPSF0pW05IXVtDSDJdW0NIMl1uMltjSF1uW2NIXW4y

> <s_epik_cmdline>
J2VwaWtfcHl0aG9uJywgJy1waCcsICc3LjAnLCAnLXRuJywgJzgnLCAnLW1hJywgJzIwMCcsICctbWV0YWxfYmluZGluZycsICctaW1hZScsICc8aW5maWxlLm1hZT4nLCAnLW9tYWUnLCAnPG91dGZpbGUubWFlPic=

> <r_lp_tautomer_probability>
1

> <r_epik_Ionization_Penalty>
2.45849

> <r_epik_Ionization_Penalty_Charging>
0

> <r_epik_Ionization_Penalty_Neutral>
2.45849

> <r_epik_State_Penalty>
2.62037

> <r_epik_Charging_Adjusted_Penalty>
2.62037

> <i_epik_Tot_Q>
0

> <i_epik_Tot_abs_Q>
0

> <r_epik_Metal_State_Penalty>
2.62024

> <b_epik_Metal_Only>
0

> <s_lp_Force_Field>
OPLS_2005

> <r_lp_Energy>
36.1132

> <b_lp_Chiralities_Consistent>
1

> <s_lp_Variant>
AV-unprocessed.smi:648-7

> <Gold.Version>
5.8.1

> <Gold.Id.Protein>
6NUR|6NUR_protein|mol2

> <Gold.PLP.Fitness>
38.9737

> <Gold.PLP.PLP>
-35.9902

> <Gold.PLP.part.hbond>
-2.7923

> <Gold.PLP.part.metal>
0.0000

> <Gold.PLP.part.buried>
-5.7498

> <Gold.PLP.part.nonpolar>
-28.3449

> <Gold.PLP.part.repulsive>
0.1841

> <Gold.PLP.ligand.clash>
0.0000

> <Gold.PLP.ligand.torsion>
0.0921

> <Gold.PLP.Chemscore.Hbond>
1.0515

> <Gold.PLP.Chemscore.CHOScore>
0.0000

> <Gold.PLP.Chemscore.Metal>
0.0000

> <Gold.Chemscore.Hbonds>
donor molecule, donor type, donor heavy atom, donor atom, acceptor molecule, acceptor atom, score
      P1  H  7989  7998       L1    10  0.05
      P1  H  7997  8010       L1    10  1.00

> <Gold.PLP.Chemscore.Internal.Correction>
0.0133

> <Gold.Rescore>
     Score         DG    S(hbond)    S(metal)    S(lipo)     H(rot)  DE(clash)    DE(int)     intcor
      7.58      -7.68       0.96        0.00      59.77       3.12       0.01       0.09       ----

> <Gold.Chemscore.Fitness>
7.5782

> <Gold.Chemscore.DG>
-7.6825

> <Gold.Chemscore.ZeroCoef>
-5.4800

> <Gold.Chemscore.Hbond>
0.9558

> <Gold.Chemscore.Metal>
0.0000

> <Gold.Chemscore.Lipo>
59.7705

> <Gold.Chemscore.Internal_Hbond>
0.0000

> <Gold.Chemscore.DEClash>
0.0135

> <Gold.Chemscore.DEInternal>
0.0908

> <Gold.Chemscore.Rot>
3.1183

> <Gold.Chemscore.Internal.Correction>
   9.000000E+99

> <Gold.Chemscore.Hbonds>
donor molecule, donor type, donor heavy atom, donor atom, acceptor molecule, acceptor atom, score
      P1  H  7997  8010       L1    10  0.28

> <Gold.Chemscore.Hbond.Weighted>
-3.1923

> <Gold.Chemscore.Metal.Weighted>
-0.0000

> <Gold.Chemscore.Lipo.Weighted>
-6.9932

> <Gold.Chemscore.Internal_Hbond.Weighted>
0.0000

> <Gold.Chemscore.DEClash.Weighted>
0.0135

> <Gold.Chemscore.DEInternal.Weighted>
0.0908

> <Gold.Chemscore.Rot.Weighted>
7.9829

> <Gold.Chemscore.Internal.Correction.Weighted>
   9.000000E+99

> <Gold.Protein.RotatedTorsions>
[ 6907 6896 6895 6894 ] final   -2.23 input  -60.11 | X-H torsion
[ 7974 7965 7964 7962 ] final   49.96 input  175.53 | X-H torsion
[ 8008 7997 7996 7995 ] final   90.86 input   59.86 | X-H torsion
[ 10167 10162 10161 10158 ] final -177.15 input  -65.29 | X-H torsion
[ 10718 10713 10712 10709 ] final  136.96 input   66.30 | X-H torsion
[ 10763 10752 10751 10750 ] final   21.47 input  -60.55 | X-H torsion
[ 11005 11000 10999 10996 ] final   58.97 input  -57.11 | X-H torsion

> <Gold.Protein.ActiveResidues>
 VAL166  LYS551  ARG553  GLY616  TRP617  ASP618  TYR619  PRO620  LYS621  CYS622 
 ASP623  PHE694  ASN695  SER759  ASP760  ASP761  ALA762  ILE779  LEU786  VAL792 
 PHE793  MET794  SER795  GLU796  ALA797  LYS798  CYS799  TRP800  GLU811  SER814 

> <Gold.Protein.RotatedAtoms>
  151.5333  135.1068  159.9907 H   0  0  0  0  0  0  0  0  0  0  0  0  # atno 6907 bound_to 6896
  152.4568  133.7736  159.6823 H   0  0  0  0  0  0  0  0  0  0  0  0  # atno 6908 bound_to 6896
  150.8515  133.7714  159.3048 H   0  0  0  0  0  0  0  0  0  0  0  0  # atno 6909 bound_to 6896
  146.0058  139.4489  142.9986 H   0  0  0  0  0  0  0  0  0  0  0  0  # atno 7974 bound_to 7965
  156.0169  140.3344  155.6998 H   0  0  0  0  0  0  0  0  0  0  0  0  # atno 8008 bound_to 7997
  155.6078  140.0662  157.2732 H   0  0  0  0  0  0  0  0  0  0  0  0  # atno 8009 bound_to 7997
  154.4301  140.1799  156.1228 H   0  0  0  0  0  0  0  0  0  0  0  0  # atno 8010 bound_to 7997
  139.5494  144.2149  152.1049 H   0  0  0  0  0  0  0  0  0  0  0  0  # atno 10167 bound_to 10162
  157.4412  131.1058  151.0141 H   0  0  0  0  0  0  0  0  0  0  0  0  # atno 10718 bound_to 10713
  153.0992  135.6668  153.9704 H   0  0  0  0  0  0  0  0  0  0  0  0  # atno 10763 bound_to 10752
  153.9280  135.3007  155.3448 H   0  0  0  0  0  0  0  0  0  0  0  0  # atno 10764 bound_to 10752
  154.7412  135.5078  153.9201 H   0  0  0  0  0  0  0  0  0  0  0  0  # atno 10765 bound_to 10752
  140.0338  134.5972  155.9471 H   0  0  0  0  0  0  0  0  0  0  0  0  # atno 11005 bound_to 11000
  145.7418  141.0005  143.1297 LP  0  0  0  0  0  0  0  0  0  0  0  0  # atno 17320 bound_to 7965
  144.6935  139.9108  143.7463 LP  0  0  0  0  0  0  0  0  0  0  0  0  # atno 17321 bound_to 7965
  140.1641  144.4997  150.6616 LP  0  0  0  0  0  0  0  0  0  0  0  0  # atno 17342 bound_to 10162
  140.6752  143.2302  151.5524 LP  0  0  0  0  0  0  0  0  0  0  0  0  # atno 17343 bound_to 10162
  157.1004  130.5979  149.5459 LP  0  0  0  0  0  0  0  0  0  0  0  0  # atno 17370 bound_to 10713
  155.9949  130.5014  150.7439 LP  0  0  0  0  0  0  0  0  0  0  0  0  # atno 17371 bound_to 10713
  141.1846  133.6553  156.5164 LP  0  0  0  0  0  0  0  0  0  0  0  0  # atno 17394 bound_to 11000
  140.4181  134.7212  157.4874 LP  0  0  0  0  0  0  0  0  0  0  0  0  # atno 17395 bound_to 11000

$$$$
