AV-unprocessed.smi:774|AV-procd|sdf|3691|dock9
  -GOLD-   22720 1113D 1   1.00000     0.00000
 Structure written by MMmdl.
 37 38  0  0  0  0  0  0  0  0  1 V2000
  145.8201  128.6234  152.0104 C   0  0  0  0  0  0  0  0  0  0  0  0
  146.3517  129.9318  151.4192 C   0  0  0  0  0  0  0  0  0  0  0  0
  145.5455  131.3722  152.1691 S   0  0  0  0  0  0  0  0  0  0  0  0
  147.0008  132.3276  152.6854 C   0  0  2  0  0  0  0  0  0  0  0  0
  148.0157  131.4766  153.4440 C   0  0  0  0  0  0  0  0  0  0  0  0
  148.8708  132.4940  154.2005 C   0  0  0  0  0  0  0  0  0  0  0  0
  147.9439  133.6882  154.4965 C   0  0  1  0  0  0  0  0  0  0  0  0
  148.5865  134.9499  154.1318 N   0  0  0  0  0  0  0  0  0  0  0  0
  149.0222  135.8833  154.9900 C   0  0  0  0  0  0  0  0  0  0  0  0
  148.9299  135.7807  156.2128 O   0  0  0  0  0  0  0  0  0  0  0  0
  149.5783  136.9180  154.3358 N   0  0  0  0  0  0  0  0  0  0  0  0
  150.1752  138.0925  154.8705 C   0  0  0  0  0  0  0  0  0  0  0  0
  150.9645  137.9591  156.0317 C   0  0  0  0  0  0  0  0  0  0  0  0
  151.5774  139.1007  156.5817 C   0  0  0  0  0  0  0  0  0  0  0  0
  151.3833  140.3391  155.9404 C   0  0  0  0  0  0  0  0  0  0  0  0
  150.6455  140.4835  154.8196 N   0  0  0  0  0  0  0  0  0  0  0  0
  150.0590  139.3842  154.2981 C   0  0  0  0  0  0  0  0  0  0  0  0
  146.6686  133.4599  153.6629 C   0  0  0  0  0  0  0  0  0  0  0  0
  146.3135  127.7635  151.5573 H   0  0  0  0  0  0  0  0  0  0  0  0
  144.7483  128.5213  151.8387 H   0  0  0  0  0  0  0  0  0  0  0  0
  145.9930  128.5786  153.0861 H   0  0  0  0  0  0  0  0  0  0  0  0
  147.4272  130.0037  151.5820 H   0  0  0  0  0  0  0  0  0  0  0  0
  146.1858  129.9489  150.3421 H   0  0  0  0  0  0  0  0  0  0  0  0
  147.4842  132.7428  151.8000 H   0  0  0  0  0  0  0  0  0  0  0  0
  147.5027  130.8305  154.1578 H   0  0  0  0  0  0  0  0  0  0  0  0
  148.6069  130.8407  152.7845 H   0  0  0  0  0  0  0  0  0  0  0  0
  149.2990  132.0701  155.1093 H   0  0  0  0  0  0  0  0  0  0  0  0
  149.7036  132.7999  153.5652 H   0  0  0  0  0  0  0  0  0  0  0  0
  147.6778  133.6765  155.5550 H   0  0  0  0  0  0  0  0  0  0  0  0
  148.7101  135.1230  153.1451 H   0  0  0  0  0  0  0  0  0  0  0  0
  149.6357  136.8252  153.3323 H   0  0  0  0  0  0  0  0  0  0  0  0
  151.0969  136.9950  156.5009 H   0  0  0  0  0  0  0  0  0  0  0  0
  152.1814  139.0289  157.4740 H   0  0  0  0  0  0  0  0  0  0  0  0
  151.8367  141.2363  156.3349 H   0  0  0  0  0  0  0  0  0  0  0  0
  149.5047  139.5630  153.3906 H   0  0  0  0  0  0  0  0  0  0  0  0
  146.3252  134.3582  153.1480 H   0  0  0  0  0  0  0  0  0  0  0  0
  145.8625  133.1472  154.3282 H   0  0  0  0  0  0  0  0  0  0  0  0
  1  2  1  0  0  0  0
  1 19  1  0  0  0  0
  1 20  1  0  0  0  0
  1 21  1  0  0  0  0
  2  3  1  0  0  0  0
  2 22  1  0  0  0  0
  2 23  1  0  0  0  0
  3  4  1  0  0  0  0
  4 18  1  0  0  0  0
  4  5  1  0  0  0  0
  4 24  1  0  0  0  0
  5  6  1  0  0  0  0
  5 25  1  0  0  0  0
  5 26  1  0  0  0  0
  6  7  1  0  0  0  0
  6 27  1  0  0  0  0
  6 28  1  0  0  0  0
  7  8  1  0  0  0  0
  7 18  1  0  0  0  0
  7 29  1  0  0  0  0
  8  9  1  0  0  0  0
  8 30  1  0  0  0  0
  9 10  2  0  0  0  0
  9 11  1  0  0  0  0
 11 12  1  0  0  0  0
 11 31  1  0  0  0  0
 12 17  1  0  0  0  0
 12 13  2  0  0  0  0
 13 14  1  0  0  0  0
 13 32  1  0  0  0  0
 14 15  2  0  0  0  0
 14 33  1  0  0  0  0
 15 16  1  0  0  0  0
 15 34  1  0  0  0  0
 16 17  2  0  0  0  0
 17 35  1  0  0  0  0
 18 36  1  0  0  0  0
 18 37  1  0  0  0  0
M  END
> <s_m_source_file>
AV-unprocessed.smi

> <i_m_source_file_index>
774

> <i_lp_mmshare_version>
43012

> <i_f3d_flags>
0

> <s_epik_input>
W0NIM11bQ0gyXVNbQ0BASF0xW0NIMl1bQ0gyXVtDQEhdKFtDSDJdMSlbTkhdQyg9TylbTkhdYzJbY0hdW2NIXVtjSF1uW2NIXTI=

> <s_epik_cmdline>
J2VwaWtfcHl0aG9uJywgJy1waCcsICc3LjAnLCAnLXRuJywgJzgnLCAnLW1hJywgJzIwMCcsICctbWV0YWxfYmluZGluZycsICctaW1hZScsICc8aW5maWxlLm1hZT4nLCAnLW9tYWUnLCAnPG91dGZpbGUubWFlPic=

> <r_epik_Ionization_Penalty>
0.00485718

> <r_epik_Ionization_Penalty_Charging>
0

> <r_epik_Ionization_Penalty_Neutral>
0.00485718

> <r_epik_State_Penalty>
0.00349461

> <r_epik_Charging_Adjusted_Penalty>
0.00349461

> <i_epik_Tot_Q>
0

> <i_epik_Tot_abs_Q>
0

> <r_epik_Metal_State_Penalty>
-0

> <b_epik_Metal_Only>
0

> <s_lp_Force_Field>
OPLS_2005

> <r_lp_Energy>
20.878

> <b_lp_Chiralities_Consistent>
1

> <s_lp_Variant>
AV-unprocessed.smi:774-1

> <Gold.Version>
5.8.1

> <Gold.Id.Protein>
6NUR|6NUR_protein|mol2

> <Gold.PLP.Fitness>
41.4423

> <Gold.PLP.PLP>
-31.3688

> <Gold.PLP.part.hbond>
-3.4949

> <Gold.PLP.part.metal>
0.0000

> <Gold.PLP.part.buried>
1.3421

> <Gold.PLP.part.nonpolar>
-27.9961

> <Gold.PLP.part.repulsive>
0.1385

> <Gold.PLP.ligand.clash>
0.0000

> <Gold.PLP.ligand.torsion>
0.8471

> <Gold.PLP.Chemscore.Hbond>
3.0000

> <Gold.PLP.Chemscore.CHOScore>
0.9206

> <Gold.PLP.Chemscore.Metal>
0.0000

> <Gold.Chemscore.Hbonds>
donor molecule, donor type, donor heavy atom, donor atom, acceptor molecule, acceptor atom, score
      L1  H     8    30       P1  7948  1.00
      L1  H    11    31       P1  7948  1.00
      P1  H  7989  7998       L1    16  0.90
      L1  C    17    35       P1  7957  1.00

> <Gold.PLP.Chemscore.Internal.Correction>
0.0060

> <Gold.Rescore>
     Score         DG    S(hbond)    S(metal)    S(lipo)     H(rot)  DE(clash)    DE(int)     intcor
     16.19     -18.20       1.82        0.00      85.26       1.30       0.06       1.95       ----

> <Gold.Chemscore.Fitness>
16.1869

> <Gold.Chemscore.DG>
-18.2029

> <Gold.Chemscore.ZeroCoef>
-5.4800

> <Gold.Chemscore.Hbond>
1.8223

> <Gold.Chemscore.Metal>
0.0000

> <Gold.Chemscore.Lipo>
85.2555

> <Gold.Chemscore.Internal_Hbond>
0.0000

> <Gold.Chemscore.DEClash>
0.0615

> <Gold.Chemscore.DEInternal>
1.9545

> <Gold.Chemscore.Rot>
1.3041

> <Gold.Chemscore.Internal.Correction>
   9.000000E+99

> <Gold.Chemscore.Hbonds>
donor molecule, donor type, donor heavy atom, donor atom, acceptor molecule, acceptor atom, score
      L1  H     8    30       P1  7948  0.58
      L1  H    11    31       P1  7948  0.58
      P1  H  7989  7998       L1    16  0.13

> <Gold.Chemscore.Hbond.Weighted>
-6.0864

> <Gold.Chemscore.Metal.Weighted>
-0.0000

> <Gold.Chemscore.Lipo.Weighted>
-9.9749

> <Gold.Chemscore.Internal_Hbond.Weighted>
0.0000

> <Gold.Chemscore.DEClash.Weighted>
0.0615

> <Gold.Chemscore.DEInternal.Weighted>
1.9545

> <Gold.Chemscore.Rot.Weighted>
3.3384

> <Gold.Chemscore.Internal.Correction.Weighted>
   9.000000E+99

> <Gold.Protein.RotatedTorsions>
[ 6907 6896 6895 6894 ] final   96.13 input  -60.11 | X-H torsion
[ 7974 7965 7964 7962 ] final -146.55 input  175.53 | X-H torsion
[ 8008 7997 7996 7995 ] final  -55.31 input   59.86 | X-H torsion
[ 10167 10162 10161 10158 ] final   12.68 input  -65.29 | X-H torsion
[ 10718 10713 10712 10709 ] final  -91.13 input   66.30 | X-H torsion
[ 10763 10752 10751 10750 ] final   16.56 input  -60.55 | X-H torsion
[ 11005 11000 10999 10996 ] final -170.90 input  -57.11 | X-H torsion

> <Gold.Protein.ActiveResidues>
 VAL166  LYS551  ARG553  GLY616  TRP617  ASP618  TYR619  PRO620  LYS621  CYS622 
 ASP623  PHE694  ASN695  SER759  ASP760  ASP761  ALA762  ILE779  LEU786  VAL792 
 PHE793  MET794  SER795  GLU796  ALA797  LYS798  CYS799  TRP800  GLU811  SER814 

> <Gold.Protein.RotatedAtoms>
  152.5438  134.0934  159.8286 H   0  0  0  0  0  0  0  0  0  0  0  0  # atno 6907 bound_to 6896
  151.1021  133.5228  159.2617 H   0  0  0  0  0  0  0  0  0  0  0  0  # atno 6908 bound_to 6896
  151.1979  135.0439  159.8914 H   0  0  0  0  0  0  0  0  0  0  0  0  # atno 6909 bound_to 6896
  144.8152  140.5442  143.5615 H   0  0  0  0  0  0  0  0  0  0  0  0  # atno 7974 bound_to 7965
  154.4191  140.1156  156.5456 H   0  0  0  0  0  0  0  0  0  0  0  0  # atno 8008 bound_to 7997
  155.6463  140.3496  155.4713 H   0  0  0  0  0  0  0  0  0  0  0  0  # atno 8009 bound_to 7997
  155.9830  140.1164  157.0699 H   0  0  0  0  0  0  0  0  0  0  0  0  # atno 8010 bound_to 7997
  140.6052  143.8523  150.7006 H   0  0  0  0  0  0  0  0  0  0  0  0  # atno 10167 bound_to 10162
  155.9992  130.4936  150.5428 H   0  0  0  0  0  0  0  0  0  0  0  0  # atno 10718 bound_to 10713
  153.1419  135.6761  153.9014 H   0  0  0  0  0  0  0  0  0  0  0  0  # atno 10763 bound_to 10752
  153.8468  135.3098  155.3431 H   0  0  0  0  0  0  0  0  0  0  0  0  # atno 10764 bound_to 10752
  154.7794  135.4896  153.9897 H   0  0  0  0  0  0  0  0  0  0  0  0  # atno 10765 bound_to 10752
  140.5143  134.5771  157.5028 H   0  0  0  0  0  0  0  0  0  0  0  0  # atno 11005 bound_to 11000
  145.5231  139.1476  143.3541 LP  0  0  0  0  0  0  0  0  0  0  0  0  # atno 17320 bound_to 7965
  146.2455  140.5371  142.8916 LP  0  0  0  0  0  0  0  0  0  0  0  0  # atno 17321 bound_to 7965
  140.2078  143.3908  152.1742 LP  0  0  0  0  0  0  0  0  0  0  0  0  # atno 17342 bound_to 10162
  139.5320  144.7169  151.5024 LP  0  0  0  0  0  0  0  0  0  0  0  0  # atno 17343 bound_to 10162
  157.3362  131.0708  151.1823 LP  0  0  0  0  0  0  0  0  0  0  0  0  # atno 17370 bound_to 10713
  157.2687  130.6694  149.6009 LP  0  0  0  0  0  0  0  0  0  0  0  0  # atno 17371 bound_to 10713
  139.9641  134.7402  156.0174 LP  0  0  0  0  0  0  0  0  0  0  0  0  # atno 17394 bound_to 11000
  141.1369  133.6573  156.3618 LP  0  0  0  0  0  0  0  0  0  0  0  0  # atno 17395 bound_to 11000

$$$$
