AV-unprocessed.smi:1433|AV-procd|sdf|5841|dock1
  -GOLD-   22720 5503D 1   1.00000     0.00000
 Structure written by MMmdl.
 45 46  0  0  0  0  0  0  0  0  2 V2000
  145.8346  132.6017  150.6723 C   0  0  0  0  0  0  0  0  0  0  0  0
  146.1625  133.8041  151.5644 C   0  0  2  0  0  0  0  0  0  0  0  0
  147.1927  133.4491  152.6525 C   0  0  0  0  0  0  0  0  0  0  0  0
  147.4268  134.6032  153.5612 N   0  3  2  0  0  0  0  0  0  0  0  0
  148.4781  134.4149  154.6140 C   0  0  2  0  0  0  0  0  0  0  0  0
  149.6506  133.5914  154.0370 C   0  0  0  0  0  0  0  0  0  0  0  0
  147.9551  133.7667  155.9273 C   0  0  0  0  0  0  0  0  0  0  0  0
  147.7097  134.7365  156.9907 N   0  0  0  0  0  0  0  0  0  0  0  0
  148.4553  134.8721  158.0988 C   0  0  0  0  0  0  0  0  0  0  0  0
  149.4295  134.1635  158.3516 O   0  0  0  0  0  0  0  0  0  0  0  0
  148.0430  135.9806  159.0676 C   0  0  0  0  0  0  0  0  0  0  0  0
  147.6994  135.4320  160.3667 N   0  0  0  0  0  0  0  0  0  0  0  0
  147.6254  134.1073  160.7446 C   0  0  0  0  0  0  0  0  0  0  0  0
  147.2754  134.0801  162.0642 C   0  0  0  0  0  0  0  0  0  0  0  0
  147.1572  135.4550  162.4110 C   0  0  0  0  0  0  0  0  0  0  0  0
  147.4117  136.2623  161.3935 N   0  0  0  0  0  0  0  0  0  0  0  0
  146.1297  135.0516  154.1352 C   0  0  0  0  0  0  0  0  0  0  0  0
  145.0949  135.3637  153.0378 C   0  0  1  0  0  0  0  0  0  0  0  0
  145.3797  136.6691  152.2738 C   0  0  0  0  0  0  0  0  0  0  0  0
  144.9511  134.2422  152.1695 O   0  0  0  0  0  0  0  0  0  0  0  0
  146.7282  132.2295  150.1704 H   0  0  0  0  0  0  0  0  0  0  0  0
  145.1114  132.8732  149.9028 H   0  0  0  0  0  0  0  0  0  0  0  0
  145.4108  131.7820  151.2532 H   0  0  0  0  0  0  0  0  0  0  0  0
  146.5616  134.5939  150.9276 H   0  0  0  0  0  0  0  0  0  0  0  0
  146.8563  132.5882  153.2331 H   0  0  0  0  0  0  0  0  0  0  0  0
  148.1132  133.1647  152.1438 H   0  0  0  0  0  0  0  0  0  0  0  0
  148.8538  135.4052  154.8757 H   0  0  0  0  0  0  0  0  0  0  0  0
  150.4682  133.4966  154.7516 H   0  0  0  0  0  0  0  0  0  0  0  0
  150.0791  134.0446  153.1447 H   0  0  0  0  0  0  0  0  0  0  0  0
  149.3281  132.5843  153.7710 H   0  0  0  0  0  0  0  0  0  0  0  0
  147.0216  133.2268  155.7609 H   0  0  0  0  0  0  0  0  0  0  0  0
  148.6776  133.0404  156.3013 H   0  0  0  0  0  0  0  0  0  0  0  0
  146.9320  135.3686  156.8641 H   0  0  0  0  0  0  0  0  0  0  0  0
  148.8470  136.7098  159.1809 H   0  0  0  0  0  0  0  0  0  0  0  0
  147.1787  136.5156  158.6716 H   0  0  0  0  0  0  0  0  0  0  0  0
  147.8277  133.3044  160.0508 H   0  0  0  0  0  0  0  0  0  0  0  0
  147.1275  133.2106  162.6874 H   0  0  0  0  0  0  0  0  0  0  0  0
  146.8969  135.8875  163.3658 H   0  0  0  0  0  0  0  0  0  0  0  0
  145.7398  134.2631  154.7814 H   0  0  0  0  0  0  0  0  0  0  0  0
  146.2577  135.9302  154.7657 H   0  0  0  0  0  0  0  0  0  0  0  0
  144.1269  135.4906  153.5238 H   0  0  0  0  0  0  0  0  0  0  0  0
  145.3489  137.5253  152.9482 H   0  0  0  0  0  0  0  0  0  0  0  0
  144.6322  136.8359  151.4979 H   0  0  0  0  0  0  0  0  0  0  0  0
  146.3606  136.6680  151.7994 H   0  0  0  0  0  0  0  0  0  0  0  0
  147.7595  135.3502  152.9682 H   0  0  0  0  0  0  0  0  0  0  0  0
  1  2  1  0  0  0  0
  1 21  1  0  0  0  0
  1 22  1  0  0  0  0
  1 23  1  0  0  0  0
  2 20  1  0  0  0  0
  2  3  1  0  0  0  0
  2 24  1  0  0  0  0
  3  4  1  0  0  0  0
  3 25  1  0  0  0  0
  3 26  1  0  0  0  0
  4  5  1  0  0  0  0
  4 17  1  0  0  0  0
  4 45  1  0  0  0  0
  5  6  1  0  0  0  0
  5  7  1  0  0  0  0
  5 27  1  0  0  0  0
  6 28  1  0  0  0  0
  6 29  1  0  0  0  0
  6 30  1  0  0  0  0
  7  8  1  0  0  0  0
  7 31  1  0  0  0  0
  7 32  1  0  0  0  0
  8  9  1  0  0  0  0
  8 33  1  0  0  0  0
  9 10  2  0  0  0  0
  9 11  1  0  0  0  0
 11 12  1  0  0  0  0
 11 34  1  0  0  0  0
 11 35  1  0  0  0  0
 12 16  1  0  0  0  0
 12 13  1  0  0  0  0
 13 14  2  0  0  0  0
 13 36  1  0  0  0  0
 14 15  1  0  0  0  0
 14 37  1  0  0  0  0
 15 16  2  0  0  0  0
 15 38  1  0  0  0  0
 17 18  1  0  0  0  0
 17 39  1  0  0  0  0
 17 40  1  0  0  0  0
 18 19  1  0  0  0  0
 18 20  1  0  0  0  0
 18 41  1  0  0  0  0
 19 42  1  0  0  0  0
 19 43  1  0  0  0  0
 19 44  1  0  0  0  0
M  CHG  1   4   1
M  END
> <s_m_source_file>
AV-unprocessed.smi

> <i_m_source_file_index>
1433

> <i_lp_mmshare_version>
43012

> <i_f3d_flags>
0

> <s_epik_input>
W0NIM11bQ0BASF0xW0NIMl1OKFtDSDJdW0NASF0oTzEpW0NIM10pW0NASF0oW0NIM10pW0NIMl1bTkhdQyg9TylbQ0gyXW4yW2NIXVtjSF1bY0hdbjI=

> <s_epik_cmdline>
J2VwaWtfcHl0aG9uJywgJy1waCcsICc3LjAnLCAnLXRuJywgJzgnLCAnLW1hJywgJzIwMCcsICctbWV0YWxfYmluZGluZycsICctaW1hZScsICc8aW5maWxlLm1hZT4nLCAnLW9tYWUnLCAnPG91dGZpbGUubWFlPic=

> <r_lp_tautomer_probability>
1

> <r_epik_Ionization_Penalty>
0.748405

> <r_epik_Ionization_Penalty_Charging>
0.748396

> <r_epik_Ionization_Penalty_Neutral>
8.54426e-06

> <r_epik_State_Penalty>
0.775162

> <r_epik_Charging_Adjusted_Penalty>
1.52356

> <i_epik_Tot_Q>
1

> <i_epik_Tot_abs_Q>
1

> <r_epik_Metal_State_Penalty>
0.775167

> <b_epik_Metal_Only>
0

> <s_lp_Force_Field>
OPLS_2005

> <r_lp_Energy>
22.7015

> <b_lp_Chiralities_Consistent>
1

> <s_lp_Variant>
AV-unprocessed.smi:1433-7

> <Gold.Version>
5.8.1

> <Gold.Id.Protein>
6NUR|6NUR_protein|mol2

> <Gold.PLP.Fitness>
43.6177

> <Gold.PLP.PLP>
-31.1040

> <Gold.PLP.part.hbond>
-4.0000

> <Gold.PLP.part.metal>
0.0000

> <Gold.PLP.part.buried>
-5.0465

> <Gold.PLP.part.nonpolar>
-23.0089

> <Gold.PLP.part.repulsive>
0.0899

> <Gold.PLP.ligand.clash>
0.0000

> <Gold.PLP.ligand.torsion>
1.1114

> <Gold.PLP.Chemscore.Hbond>
4.8723

> <Gold.PLP.Chemscore.CHOScore>
0.0000

> <Gold.PLP.Chemscore.Metal>
0.0000

> <Gold.Chemscore.Hbonds>
donor molecule, donor type, donor heavy atom, donor atom, acceptor molecule, acceptor atom, score
      L1  H     4    45       P1  7948  2.00
      P1  H  6896  6907       L1    10  1.00

> <Gold.PLP.Chemscore.Internal.Correction>
0.1195

> <Gold.Rescore>
     Score         DG    S(hbond)    S(metal)    S(lipo)     H(rot)  DE(clash)    DE(int)     intcor
     17.56     -20.09       3.57        0.00      63.79       1.87       0.02       2.51       ----

> <Gold.Chemscore.Fitness>
17.5606

> <Gold.Chemscore.DG>
-20.0949

> <Gold.Chemscore.ZeroCoef>
-5.4800

> <Gold.Chemscore.Hbond>
3.5711

> <Gold.Chemscore.Metal>
0.0000

> <Gold.Chemscore.Lipo>
63.7922

> <Gold.Chemscore.Internal_Hbond>
0.0000

> <Gold.Chemscore.DEClash>
0.0197

> <Gold.Chemscore.DEInternal>
2.5147

> <Gold.Chemscore.Rot>
1.8657

> <Gold.Chemscore.Internal.Correction>
   9.000000E+99

> <Gold.Chemscore.Hbonds>
donor molecule, donor type, donor heavy atom, donor atom, acceptor molecule, acceptor atom, score
      L1  H     4    45       P1  7948  0.98
      P1  H  6896  6907       L1    10  0.99

> <Gold.Chemscore.Hbond.Weighted>
-11.9274

> <Gold.Chemscore.Metal.Weighted>
-0.0000

> <Gold.Chemscore.Lipo.Weighted>
-7.4637

> <Gold.Chemscore.Internal_Hbond.Weighted>
0.0000

> <Gold.Chemscore.DEClash.Weighted>
0.0197

> <Gold.Chemscore.DEInternal.Weighted>
2.5147

> <Gold.Chemscore.Rot.Weighted>
4.7761

> <Gold.Chemscore.Internal.Correction.Weighted>
   9.000000E+99

> <Gold.Protein.RotatedTorsions>
[ 6907 6896 6895 6894 ] final -109.80 input  -60.11 | X-H torsion
[ 7974 7965 7964 7962 ] final   29.30 input  175.53 | X-H torsion
[ 8008 7997 7996 7995 ] final -125.99 input   59.86 | X-H torsion
[ 10167 10162 10161 10158 ] final -171.72 input  -65.29 | X-H torsion
[ 10718 10713 10712 10709 ] final  -43.95 input   66.30 | X-H torsion
[ 10763 10752 10751 10750 ] final  -99.41 input  -60.55 | X-H torsion
[ 11005 11000 10999 10996 ] final  140.31 input  -57.11 | X-H torsion

> <Gold.Protein.ActiveResidues>
 VAL166  LYS551  ARG553  GLY616  TRP617  ASP618  TYR619  PRO620  LYS621  CYS622 
 ASP623  PHE694  ASN695  SER759  ASP760  ASP761  ALA762  ILE779  LEU786  VAL792 
 PHE793  MET794  SER795  GLU796  ALA797  LYS798  CYS799  TRP800  GLU811  SER814 

> <Gold.Protein.RotatedAtoms>
  150.7584  133.9476  159.3475 H   0  0  0  0  0  0  0  0  0  0  0  0  # atno 6907 bound_to 6896
  151.7390  135.0856  160.0322 H   0  0  0  0  0  0  0  0  0  0  0  0  # atno 6908 bound_to 6896
  152.3541  133.6178  159.6002 H   0  0  0  0  0  0  0  0  0  0  0  0  # atno 6909 bound_to 6896
  146.1679  139.6940  142.8988 H   0  0  0  0  0  0  0  0  0  0  0  0  # atno 7974 bound_to 7965
  155.2223  140.0422  157.2950 H   0  0  0  0  0  0  0  0  0  0  0  0  # atno 8008 bound_to 7997
  154.5942  140.2435  155.7851 H   0  0  0  0  0  0  0  0  0  0  0  0  # atno 8009 bound_to 7997
  156.2279  140.2948  156.0122 H   0  0  0  0  0  0  0  0  0  0  0  0  # atno 8010 bound_to 7997
  139.5786  144.1475  152.1484 H   0  0  0  0  0  0  0  0  0  0  0  0  # atno 10167 bound_to 10162
  156.2436  130.4182  149.8731 H   0  0  0  0  0  0  0  0  0  0  0  0  # atno 10718 bound_to 10713
  154.7495  135.4973  153.9264 H   0  0  0  0  0  0  0  0  0  0  0  0  # atno 10763 bound_to 10752
  153.1128  135.6713  153.9478 H   0  0  0  0  0  0  0  0  0  0  0  0  # atno 10764 bound_to 10752
  153.9232  135.3086  155.3426 H   0  0  0  0  0  0  0  0  0  0  0  0  # atno 10765 bound_to 10752
  140.0318  134.9348  157.0676 H   0  0  0  0  0  0  0  0  0  0  0  0  # atno 11005 bound_to 11000
  145.4418  141.0423  143.2853 LP  0  0  0  0  0  0  0  0  0  0  0  0  # atno 17320 bound_to 7965
  144.8120  139.5946  143.7025 LP  0  0  0  0  0  0  0  0  0  0  0  0  # atno 17321 bound_to 7965
  140.1023  144.5528  150.6980 LP  0  0  0  0  0  0  0  0  0  0  0  0  # atno 17342 bound_to 10162
  140.7066  143.2473  151.4706 LP  0  0  0  0  0  0  0  0  0  0  0  0  # atno 17343 bound_to 10162
  156.6305  130.8663  151.3494 LP  0  0  0  0  0  0  0  0  0  0  0  0  # atno 17370 bound_to 10713
  157.7185  130.9528  150.1348 LP  0  0  0  0  0  0  0  0  0  0  0  0  # atno 17371 bound_to 10713
  140.4213  134.1877  155.7164 LP  0  0  0  0  0  0  0  0  0  0  0  0  # atno 17394 bound_to 11000
  141.1835  133.8363  157.1172 LP  0  0  0  0  0  0  0  0  0  0  0  0  # atno 17395 bound_to 11000

$$$$
