AV-unprocessed.smi:2485|AV-procd|sdf|9788|dock6
  -GOLD-   2272013423D 1   1.00000     0.00000
 Structure written by MMmdl.
 39 40  0  0  0  0  0  0  0  0  1 V2000
  145.9044  131.8882  149.3009 C   0  0  0  0  0  0  0  0  0  0  0  0
  145.5512  132.3036  150.7370 C   0  0  0  0  0  0  0  0  0  0  0  0
  145.3134  131.0695  151.6241 C   0  0  0  0  0  0  0  0  0  0  0  0
  146.5937  133.2534  151.3393 C   0  0  0  0  0  0  0  0  0  0  0  0
  145.7585  134.1844  152.1952 C   0  0  1  0  0  0  0  0  0  0  0  0
  146.4327  135.4627  152.4122 N   0  0  0  0  0  0  0  0  0  0  0  0
  145.9182  136.5035  153.0816 C   0  0  0  0  0  0  0  0  0  0  0  0
  144.8110  136.4866  153.6194 O   0  0  0  0  0  0  0  0  0  0  0  0
  146.7652  137.5468  153.0785 N   0  0  0  0  0  0  0  0  0  0  0  0
  146.5747  138.8302  153.6541 C   0  0  0  0  0  0  0  0  0  0  0  0
  147.2789  139.8818  153.0302 C   0  0  0  0  0  0  0  0  0  0  0  0
  147.1346  141.1802  153.5480 C   0  0  0  0  0  0  0  0  0  0  0  0
  146.2900  141.3392  154.6599 C   0  0  0  0  0  0  0  0  0  0  0  0
  145.6338  140.3031  155.2254 N   0  0  0  0  0  0  0  0  0  0  0  0
  145.7768  139.0697  154.7276 N   0  0  0  0  0  0  0  0  0  0  0  0
  144.4488  134.2971  151.3840 C   0  0  0  0  0  0  0  0  0  0  0  0
  143.2154  134.4604  152.2862 C   0  0  0  0  0  0  0  0  0  0  0  0
  144.4707  135.3841  150.2885 C   0  0  0  0  0  0  0  0  0  0  0  0
  144.3330  133.0458  150.7077 O   0  0  0  0  0  0  0  0  0  0  0  0
  146.8408  131.3302  149.2712 H   0  0  0  0  0  0  0  0  0  0  0  0
  146.0140  132.7584  148.6528 H   0  0  0  0  0  0  0  0  0  0  0  0
  145.1262  131.2568  148.8712 H   0  0  0  0  0  0  0  0  0  0  0  0
  146.2152  130.4623  151.7060 H   0  0  0  0  0  0  0  0  0  0  0  0
  144.5253  130.4376  151.2134 H   0  0  0  0  0  0  0  0  0  0  0  0
  145.0117  131.3527  152.6327 H   0  0  0  0  0  0  0  0  0  0  0  0
  147.3691  132.7370  151.9063 H   0  0  0  0  0  0  0  0  0  0  0  0
  147.0904  133.8195  150.5496 H   0  0  0  0  0  0  0  0  0  0  0  0
  145.5693  133.6875  153.1487 H   0  0  0  0  0  0  0  0  0  0  0  0
  147.3499  135.5658  152.0035 H   0  0  0  0  0  0  0  0  0  0  0  0
  147.6440  137.4103  152.6014 H   0  0  0  0  0  0  0  0  0  0  0  0
  147.9154  139.7008  152.1765 H   0  0  0  0  0  0  0  0  0  0  0  0
  147.6514  142.0212  153.1100 H   0  0  0  0  0  0  0  0  0  0  0  0
  146.1375  142.3119  155.1034 H   0  0  0  0  0  0  0  0  0  0  0  0
  143.2449  135.4037  152.8315 H   0  0  0  0  0  0  0  0  0  0  0  0
  143.1513  133.6547  153.0182 H   0  0  0  0  0  0  0  0  0  0  0  0
  142.2953  134.4457  151.7016 H   0  0  0  0  0  0  0  0  0  0  0  0
  144.5102  136.3861  150.7167 H   0  0  0  0  0  0  0  0  0  0  0  0
  143.5736  135.3314  149.6710 H   0  0  0  0  0  0  0  0  0  0  0  0
  145.3285  135.2701  149.6257 H   0  0  0  0  0  0  0  0  0  0  0  0
  1  2  1  0  0  0  0
  1 20  1  0  0  0  0
  1 21  1  0  0  0  0
  1 22  1  0  0  0  0
  2 19  1  0  0  0  0
  2  3  1  0  0  0  0
  2  4  1  0  0  0  0
  3 23  1  0  0  0  0
  3 24  1  0  0  0  0
  3 25  1  0  0  0  0
  4  5  1  0  0  0  0
  4 26  1  0  0  0  0
  4 27  1  0  0  0  0
  5  6  1  0  0  0  0
  5 16  1  0  0  0  0
  5 28  1  0  0  0  0
  6  7  1  0  0  0  0
  6 29  1  0  0  0  0
  7  8  2  0  0  0  0
  7  9  1  0  0  0  0
  9 10  1  0  0  0  0
  9 30  1  0  0  0  0
 10 15  1  0  0  0  0
 10 11  2  0  0  0  0
 11 12  1  0  0  0  0
 11 31  1  0  0  0  0
 12 13  2  0  0  0  0
 12 32  1  0  0  0  0
 13 14  1  0  0  0  0
 13 33  1  0  0  0  0
 14 15  2  0  0  0  0
 16 17  1  0  0  0  0
 16 18  1  0  0  0  0
 16 19  1  0  0  0  0
 17 34  1  0  0  0  0
 17 35  1  0  0  0  0
 17 36  1  0  0  0  0
 18 37  1  0  0  0  0
 18 38  1  0  0  0  0
 18 39  1  0  0  0  0
M  END
> <s_m_source_file>
AV-unprocessed.smi

> <i_m_source_file_index>
2485

> <i_lp_mmshare_version>
43012

> <i_f3d_flags>
0

> <s_epik_input>
W0NIM11DMShbQ0gzXSlbQ0gyXVtDQEhdKEMoTzEpKFtDSDNdKVtDSDNdKVtOSF1DKD1PKVtOSF1jMltjSF1bY0hdW2NIXW5uMg==

> <s_epik_cmdline>
J2VwaWtfcHl0aG9uJywgJy1waCcsICc3LjAnLCAnLXRuJywgJzgnLCAnLW1hJywgJzIwMCcsICctbWV0YWxfYmluZGluZycsICctaW1hZScsICc8aW5maWxlLm1hZT4nLCAnLW9tYWUnLCAnPG91dGZpbGUubWFlPic=

> <r_lp_tautomer_probability>
1

> <r_epik_Ionization_Penalty>
0.00480341

> <r_epik_Ionization_Penalty_Charging>
0

> <r_epik_Ionization_Penalty_Neutral>
0.00480341

> <r_epik_State_Penalty>
-0

> <r_epik_Charging_Adjusted_Penalty>
0

> <i_epik_Tot_Q>
0

> <i_epik_Tot_abs_Q>
0

> <r_epik_Metal_State_Penalty>
-0

> <b_epik_Metal_Only>
0

> <s_lp_Force_Field>
OPLS_2005

> <r_lp_Energy>
24.1228

> <b_lp_Chiralities_Consistent>
1

> <s_lp_Variant>
AV-unprocessed.smi:2485-1

> <Gold.Version>
5.8.1

> <Gold.Id.Protein>
6NUR|6NUR_protein|mol2

> <Gold.PLP.Fitness>
36.8105

> <Gold.PLP.PLP>
-31.1309

> <Gold.PLP.part.hbond>
-2.0000

> <Gold.PLP.part.metal>
0.0000

> <Gold.PLP.part.buried>
-3.6943

> <Gold.PLP.part.nonpolar>
-25.9343

> <Gold.PLP.part.repulsive>
0.4671

> <Gold.PLP.ligand.clash>
0.0000

> <Gold.PLP.ligand.torsion>
0.1657

> <Gold.PLP.Chemscore.Hbond>
2.0000

> <Gold.PLP.Chemscore.CHOScore>
0.0000

> <Gold.PLP.Chemscore.Metal>
0.0000

> <Gold.Chemscore.Hbonds>
donor molecule, donor type, donor heavy atom, donor atom, acceptor molecule, acceptor atom, score
      L1  H     6    29       P1  7948  1.00
      L1  H     9    30       P1  7948  1.00

> <Gold.PLP.Chemscore.Internal.Correction>
0.0111

> <Gold.Rescore>
     Score         DG    S(hbond)    S(metal)    S(lipo)     H(rot)  DE(clash)    DE(int)     intcor
     15.97     -18.57       1.95        0.00      77.96       1.00       0.03       2.57       ----

> <Gold.Chemscore.Fitness>
15.9734

> <Gold.Chemscore.DG>
-18.5663

> <Gold.Chemscore.ZeroCoef>
-5.4800

> <Gold.Chemscore.Hbond>
1.9535

> <Gold.Chemscore.Metal>
0.0000

> <Gold.Chemscore.Lipo>
77.9608

> <Gold.Chemscore.Internal_Hbond>
0.0000

> <Gold.Chemscore.DEClash>
0.0256

> <Gold.Chemscore.DEInternal>
2.5673

> <Gold.Chemscore.Rot>
1.0000

> <Gold.Chemscore.Internal.Correction>
   9.000000E+99

> <Gold.Chemscore.Hbonds>
donor molecule, donor type, donor heavy atom, donor atom, acceptor molecule, acceptor atom, score
      L1  H     6    29       P1  7948  0.99
      L1  H     9    30       P1  7948  0.94

> <Gold.Chemscore.Hbond.Weighted>
-6.5248

> <Gold.Chemscore.Metal.Weighted>
-0.0000

> <Gold.Chemscore.Lipo.Weighted>
-9.1214

> <Gold.Chemscore.Internal_Hbond.Weighted>
0.0000

> <Gold.Chemscore.DEClash.Weighted>
0.0256

> <Gold.Chemscore.DEInternal.Weighted>
2.5673

> <Gold.Chemscore.Rot.Weighted>
2.5600

> <Gold.Chemscore.Internal.Correction.Weighted>
   9.000000E+99

> <Gold.Protein.RotatedTorsions>
[ 6907 6896 6895 6894 ] final   -5.51 input  -60.11 | X-H torsion
[ 7974 7965 7964 7962 ] final -141.10 input  175.53 | X-H torsion
[ 8008 7997 7996 7995 ] final  -39.80 input   59.86 | X-H torsion
[ 10167 10162 10161 10158 ] final  -39.28 input  -65.29 | X-H torsion
[ 10718 10713 10712 10709 ] final   35.06 input   66.30 | X-H torsion
[ 10763 10752 10751 10750 ] final  122.06 input  -60.55 | X-H torsion
[ 11005 11000 10999 10996 ] final   86.84 input  -57.11 | X-H torsion

> <Gold.Protein.ActiveResidues>
 VAL166  LYS551  ARG553  GLY616  TRP617  ASP618  TYR619  PRO620  LYS621  CYS622 
 ASP623  PHE694  ASN695  SER759  ASP760  ASP761  ALA762  ILE779  LEU786  VAL792 
 PHE793  MET794  SER795  GLU796  ALA797  LYS798  CYS799  TRP800  GLU811  SER814 

> <Gold.Protein.RotatedAtoms>
  151.4804  135.1052  159.9775 H   0  0  0  0  0  0  0  0  0  0  0  0  # atno 6907 bound_to 6896
  152.4781  133.8184  159.7051 H   0  0  0  0  0  0  0  0  0  0  0  0  # atno 6908 bound_to 6896
  150.8834  133.7280  159.2952 H   0  0  0  0  0  0  0  0  0  0  0  0  # atno 6909 bound_to 6896
  144.8546  140.6121  143.5368 H   0  0  0  0  0  0  0  0  0  0  0  0  # atno 7974 bound_to 7965
  154.4019  140.1542  156.2922 H   0  0  0  0  0  0  0  0  0  0  0  0  # atno 8008 bound_to 7997
  155.8775  140.3445  155.5842 H   0  0  0  0  0  0  0  0  0  0  0  0  # atno 8009 bound_to 7997
  155.7705  140.0829  157.2101 H   0  0  0  0  0  0  0  0  0  0  0  0  # atno 8010 bound_to 7997
  140.7068  143.3224  151.2760 H   0  0  0  0  0  0  0  0  0  0  0  0  # atno 10167 bound_to 10162
  157.3180  130.7433  149.6767 H   0  0  0  0  0  0  0  0  0  0  0  0  # atno 10718 bound_to 10713
  153.6239  135.3408  155.3020 H   0  0  0  0  0  0  0  0  0  0  0  0  # atno 10763 bound_to 10752
  154.8594  135.4279  154.2178 H   0  0  0  0  0  0  0  0  0  0  0  0  # atno 10764 bound_to 10752
  153.3057  135.7028  153.7234 H   0  0  0  0  0  0  0  0  0  0  0  0  # atno 10765 bound_to 10752
  139.8934  134.8382  156.2777 H   0  0  0  0  0  0  0  0  0  0  0  0  # atno 11005 bound_to 11000
  145.4432  139.1533  143.3959 LP  0  0  0  0  0  0  0  0  0  0  0  0  # atno 17320 bound_to 7965
  146.2812  140.4555  142.8775 LP  0  0  0  0  0  0  0  0  0  0  0  0  # atno 17321 bound_to 7965
  139.6682  144.0067  152.2736 LP  0  0  0  0  0  0  0  0  0  0  0  0  # atno 17342 bound_to 10162
  139.9657  144.6528  150.8037 LP  0  0  0  0  0  0  0  0  0  0  0  0  # atno 17343 bound_to 10162
  155.9683  130.4231  150.4549 LP  0  0  0  0  0  0  0  0  0  0  0  0  # atno 17370 bound_to 10713
  157.2560  131.0556  151.2350 LP  0  0  0  0  0  0  0  0  0  0  0  0  # atno 17371 bound_to 10713
  141.0059  133.7124  156.1034 LP  0  0  0  0  0  0  0  0  0  0  0  0  # atno 17394 bound_to 11000
  140.7434  134.4125  157.5551 LP  0  0  0  0  0  0  0  0  0  0  0  0  # atno 17395 bound_to 11000

$$$$
