AV-unprocessed.smi:3140|AV-procd|sdf|11958|dock1
  -GOLD-   2272017353D 1   1.00000     0.00000
 Structure written by MMmdl.
 38 39  0  0  0  0  0  0  0  0  2 V2000
  146.9452  142.0441  153.8677 C   0  0  0  0  0  0  0  0  0  0  0  0
  147.3580  140.5827  153.6248 C   0  0  2  0  0  0  0  0  0  0  0  0
  148.8902  140.4608  153.5058 C   0  0  0  0  0  0  0  0  0  0  0  0
  149.5652  140.7063  154.7684 N   0  0  0  0  0  0  0  0  0  0  0  0
  149.1398  141.4744  155.8319 C   0  0  0  0  0  0  0  0  0  0  0  0
  150.1025  141.3998  156.7974 C   0  0  0  0  0  0  0  0  0  0  0  0
  151.0924  140.5536  156.2241 C   0  0  0  0  0  0  0  0  0  0  0  0
  150.7667  140.1382  155.0105 N   0  0  0  0  0  0  0  0  0  0  0  0
  146.7065  140.0411  152.4097 N   0  3  0  0  0  0  0  0  0  0  0  0
  146.8603  138.5876  152.1991 C   0  0  0  0  0  0  0  0  0  0  0  0
  145.8648  137.8044  153.0683 C   0  0  0  0  0  0  0  0  0  0  0  0
  145.3245  136.6493  152.3569 N   0  0  0  0  0  0  0  0  0  0  0  0
  145.9629  136.1500  151.1506 C   0  0  0  0  0  0  0  0  0  0  0  0
  145.2319  134.8382  150.8293 C   0  0  0  0  0  0  0  0  0  0  0  0
  143.9580  134.8519  151.6814 C   0  0  0  0  0  0  0  0  0  0  0  0
  144.2128  135.9749  152.6725 C   0  0  0  0  0  0  0  0  0  0  0  0
  143.4730  136.2058  153.6277 O   0  0  0  0  0  0  0  0  0  0  0  0
  147.4504  142.4517  154.7437 H   0  0  0  0  0  0  0  0  0  0  0  0
  145.8741  142.1388  154.0455 H   0  0  0  0  0  0  0  0  0  0  0  0
  147.2001  142.6754  153.0158 H   0  0  0  0  0  0  0  0  0  0  0  0
  147.0407  139.9867  154.4820 H   0  0  0  0  0  0  0  0  0  0  0  0
  149.1742  139.4739  153.1360 H   0  0  0  0  0  0  0  0  0  0  0  0
  149.2685  141.1829  152.7808 H   0  0  0  0  0  0  0  0  0  0  0  0
  148.1980  142.0034  155.8143 H   0  0  0  0  0  0  0  0  0  0  0  0
  150.1013  141.8789  157.7654 H   0  0  0  0  0  0  0  0  0  0  0  0
  152.0303  140.2298  156.6508 H   0  0  0  0  0  0  0  0  0  0  0  0
  145.7239  140.2743  152.4312 H   0  0  0  0  0  0  0  0  0  0  0  0
  146.6918  138.3537  151.1470 H   0  0  0  0  0  0  0  0  0  0  0  0
  147.8817  138.2912  152.4376 H   0  0  0  0  0  0  0  0  0  0  0  0
  146.3487  137.4668  153.9865 H   0  0  0  0  0  0  0  0  0  0  0  0
  145.0445  138.4550  153.3746 H   0  0  0  0  0  0  0  0  0  0  0  0
  145.8340  136.8763  150.3470 H   0  0  0  0  0  0  0  0  0  0  0  0
  147.0315  135.9911  151.3006 H   0  0  0  0  0  0  0  0  0  0  0  0
  145.0115  134.7482  149.7649 H   0  0  0  0  0  0  0  0  0  0  0  0
  145.8528  133.9858  151.1085 H   0  0  0  0  0  0  0  0  0  0  0  0
  143.0795  135.0910  151.0812 H   0  0  0  0  0  0  0  0  0  0  0  0
  143.7894  133.9010  152.1876 H   0  0  0  0  0  0  0  0  0  0  0  0
  147.1246  140.5057  151.6155 H   0  0  0  0  0  0  0  0  0  0  0  0
  1  2  1  0  0  0  0
  1 18  1  0  0  0  0
  1 19  1  0  0  0  0
  1 20  1  0  0  0  0
  2  3  1  0  0  0  0
  2  9  1  0  0  0  0
  2 21  1  0  0  0  0
  3  4  1  0  0  0  0
  3 22  1  0  0  0  0
  3 23  1  0  0  0  0
  4  8  1  0  0  0  0
  4  5  1  0  0  0  0
  5  6  2  0  0  0  0
  5 24  1  0  0  0  0
  6  7  1  0  0  0  0
  6 25  1  0  0  0  0
  7  8  2  0  0  0  0
  7 26  1  0  0  0  0
  9 10  1  0  0  0  0
  9 27  1  0  0  0  0
  9 38  1  0  0  0  0
 10 11  1  0  0  0  0
 10 28  1  0  0  0  0
 10 29  1  0  0  0  0
 11 12  1  0  0  0  0
 11 30  1  0  0  0  0
 11 31  1  0  0  0  0
 12 16  1  0  0  0  0
 12 13  1  0  0  0  0
 13 14  1  0  0  0  0
 13 32  1  0  0  0  0
 13 33  1  0  0  0  0
 14 15  1  0  0  0  0
 14 34  1  0  0  0  0
 14 35  1  0  0  0  0
 15 16  1  0  0  0  0
 15 36  1  0  0  0  0
 15 37  1  0  0  0  0
 16 17  2  0  0  0  0
M  CHG  1   9   1
M  END
> <s_m_source_file>
AV-unprocessed.smi

> <i_m_source_file_index>
3140

> <i_lp_mmshare_version>
43012

> <i_f3d_flags>
0

> <s_epik_input>
bjFbY0hdW2NIXVtjSF1uMVtDSDJdW0NAQEhdKFtDSDNdKVtOSF1bQ0gyXVtDSDJdTjJbQ0gyXVtDSDJdW0NIMl1DMj1P

> <s_epik_cmdline>
J2VwaWtfcHl0aG9uJywgJy1waCcsICc3LjAnLCAnLXRuJywgJzgnLCAnLW1hJywgJzIwMCcsICctbWV0YWxfYmluZGluZycsICctaW1hZScsICc8aW5maWxlLm1hZT4nLCAnLW9tYWUnLCAnPG91dGZpbGUubWFlPic=

> <r_lp_tautomer_probability>
1

> <r_epik_Ionization_Penalty>
0.00826299

> <r_epik_Ionization_Penalty_Charging>
0.00825899

> <r_epik_Ionization_Penalty_Neutral>
3.99893e-06

> <r_epik_State_Penalty>
0.00621436

> <r_epik_Charging_Adjusted_Penalty>
0.0144734

> <i_epik_Tot_Q>
1

> <i_epik_Tot_abs_Q>
1

> <r_epik_Metal_State_Penalty>
0.00621472

> <b_epik_Metal_Only>
0

> <s_lp_Force_Field>
OPLS_2005

> <r_lp_Energy>
18.6849

> <b_lp_Chiralities_Consistent>
1

> <s_lp_Variant>
AV-unprocessed.smi:3140-1

> <Gold.Version>
5.8.1

> <Gold.Id.Protein>
6NUR|6NUR_protein|mol2

> <Gold.PLP.Fitness>
41.5500

> <Gold.PLP.PLP>
-33.3778

> <Gold.PLP.part.hbond>
-2.4817

> <Gold.PLP.part.metal>
0.0000

> <Gold.PLP.part.buried>
2.4055

> <Gold.PLP.part.nonpolar>
-33.5716

> <Gold.PLP.part.repulsive>
0.1835

> <Gold.PLP.ligand.clash>
0.0069

> <Gold.PLP.ligand.torsion>
1.0477

> <Gold.PLP.Chemscore.Hbond>
3.0000

> <Gold.PLP.Chemscore.CHOScore>
0.3431

> <Gold.PLP.Chemscore.Metal>
0.0000

> <Gold.Chemscore.Hbonds>
donor molecule, donor type, donor heavy atom, donor atom, acceptor molecule, acceptor atom, score
      L1  H     9    27       P1 10175  1.95
      P1  H  7989  7998       L1     8  0.80
      L1  C     5    24       P1  8028  0.18

> <Gold.PLP.Chemscore.Internal.Correction>
0.2453

> <Gold.Rescore>
     Score         DG    S(hbond)    S(metal)    S(lipo)     H(rot)  DE(clash)    DE(int)     intcor
     12.38     -14.17       1.83        0.00      67.10       2.06       1.35       0.43       ----

> <Gold.Chemscore.Fitness>
12.3816

> <Gold.Chemscore.DG>
-14.1659

> <Gold.Chemscore.ZeroCoef>
-5.4800

> <Gold.Chemscore.Hbond>
1.8258

> <Gold.Chemscore.Metal>
0.0000

> <Gold.Chemscore.Lipo>
67.0963

> <Gold.Chemscore.Internal_Hbond>
0.0000

> <Gold.Chemscore.DEClash>
1.3545

> <Gold.Chemscore.DEInternal>
0.4298

> <Gold.Chemscore.Rot>
2.0557

> <Gold.Chemscore.Internal.Correction>
   9.000000E+99

> <Gold.Chemscore.Hbonds>
donor molecule, donor type, donor heavy atom, donor atom, acceptor molecule, acceptor atom, score
      L1  H     9    27       P1 10175  0.64
      P1  H  7989  7998       L1     8  0.11

> <Gold.Chemscore.Hbond.Weighted>
-6.0983

> <Gold.Chemscore.Metal.Weighted>
-0.0000

> <Gold.Chemscore.Lipo.Weighted>
-7.8503

> <Gold.Chemscore.Internal_Hbond.Weighted>
0.0000

> <Gold.Chemscore.DEClash.Weighted>
1.3545

> <Gold.Chemscore.DEInternal.Weighted>
0.4298

> <Gold.Chemscore.Rot.Weighted>
5.2627

> <Gold.Chemscore.Internal.Correction.Weighted>
   9.000000E+99

> <Gold.Protein.RotatedTorsions>
[ 6907 6896 6895 6894 ] final   82.61 input  -60.11 | X-H torsion
[ 7974 7965 7964 7962 ] final  -40.76 input  175.53 | X-H torsion
[ 8008 7997 7996 7995 ] final -142.38 input   59.86 | X-H torsion
[ 10167 10162 10161 10158 ] final  -52.12 input  -65.29 | X-H torsion
[ 10718 10713 10712 10709 ] final -137.57 input   66.30 | X-H torsion
[ 10763 10752 10751 10750 ] final  -77.56 input  -60.55 | X-H torsion
[ 11005 11000 10999 10996 ] final   72.67 input  -57.11 | X-H torsion

> <Gold.Protein.ActiveResidues>
 VAL166  LYS551  ARG553  GLY616  TRP617  ASP618  TYR619  PRO620  LYS621  CYS622 
 ASP623  PHE694  ASN695  SER759  ASP760  ASP761  ALA762  ILE779  LEU786  VAL792 
 PHE793  MET794  SER795  GLU796  ALA797  LYS798  CYS799  TRP800  GLU811  SER814 

> <Gold.Protein.RotatedAtoms>
  152.5304  134.3023  159.9082 H   0  0  0  0  0  0  0  0  0  0  0  0  # atno 6907 bound_to 6896
  151.2974  133.4131  159.2645 H   0  0  0  0  0  0  0  0  0  0  0  0  # atno 6908 bound_to 6896
  151.0148  134.9441  159.8084 H   0  0  0  0  0  0  0  0  0  0  0  0  # atno 6909 bound_to 6896
  146.0274  140.6774  142.9149 H   0  0  0  0  0  0  0  0  0  0  0  0  # atno 7974 bound_to 7965
  155.4932  140.0569  157.2950 H   0  0  0  0  0  0  0  0  0  0  0  0  # atno 8008 bound_to 7997
  154.4615  140.1998  156.0183 H   0  0  0  0  0  0  0  0  0  0  0  0  # atno 8009 bound_to 7997
  156.0898  140.3235  155.7806 H   0  0  0  0  0  0  0  0  0  0  0  0  # atno 8010 bound_to 7997
  140.6553  143.2595  151.4602 H   0  0  0  0  0  0  0  0  0  0  0  0  # atno 10167 bound_to 10162
  156.2896  130.7367  151.1389 H   0  0  0  0  0  0  0  0  0  0  0  0  # atno 10718 bound_to 10713
  154.5145  135.5760  153.6631 H   0  0  0  0  0  0  0  0  0  0  0  0  # atno 10763 bound_to 10752
  152.9904  135.6167  154.2835 H   0  0  0  0  0  0  0  0  0  0  0  0  # atno 10764 bound_to 10752
  154.2752  135.2852  155.2701 H   0  0  0  0  0  0  0  0  0  0  0  0  # atno 10765 bound_to 10752
  139.9479  134.7280  156.0934 H   0  0  0  0  0  0  0  0  0  0  0  0  # atno 11005 bound_to 11000
  144.7015  140.3675  143.7152 LP  0  0  0  0  0  0  0  0  0  0  0  0  # atno 17320 bound_to 7965
  145.7095  139.1681  143.2547 LP  0  0  0  0  0  0  0  0  0  0  0  0  # atno 17321 bound_to 7965
  139.5775  144.1785  152.1923 LP  0  0  0  0  0  0  0  0  0  0  0  0  # atno 17342 bound_to 10162
  140.1100  144.5465  150.6931 LP  0  0  0  0  0  0  0  0  0  0  0  0  # atno 17343 bound_to 10162
  157.7338  131.0587  150.5556 LP  0  0  0  0  0  0  0  0  0  0  0  0  # atno 17370 bound_to 10713
  156.5670  130.4270  149.6036 LP  0  0  0  0  0  0  0  0  0  0  0  0  # atno 17371 bound_to 10713
  141.1134  133.6635  156.3034 LP  0  0  0  0  0  0  0  0  0  0  0  0  # atno 17394 bound_to 11000
  140.5790  134.5764  157.5475 LP  0  0  0  0  0  0  0  0  0  0  0  0  # atno 17395 bound_to 11000

$$$$
