AV-unprocessed.smi:1406|AV-procd|sdf|5711|dock9
  -GOLD-   22720 5343D 1   1.00000     0.00000
 Structure written by MMmdl.
 41 43  0  0  0  0  0  0  0  0  2 V2000
  152.5850  138.1273  155.0594 C   0  0  0  0  0  0  0  0  0  0  0  0
  151.3948  138.2861  156.0275 C   0  0  2  0  0  0  0  0  0  0  0  0
  150.7079  139.6553  155.9110 C   0  0  0  0  0  0  0  0  0  0  0  0
  150.1699  140.0073  154.8607 O   0  0  0  0  0  0  0  0  0  0  0  0
  150.7633  140.4381  156.9998 N   0  0  0  0  0  0  0  0  0  0  0  0
  150.2957  141.8196  157.0564 C   0  0  1  0  0  0  0  0  0  0  0  0
  149.1058  142.0184  158.0054 C   0  0  0  0  0  0  0  0  0  0  0  0
  149.2805  143.4367  158.5782 C   0  0  0  0  0  0  0  0  0  0  0  0
  150.5238  143.9725  157.9806 N   0  3  1  0  0  0  0  0  0  0  0  0
  151.2241  145.0340  158.7482 C   0  0  0  0  0  0  0  0  0  0  0  0
  152.0439  144.4751  159.9233 C   0  0  0  0  0  0  0  0  0  0  0  0
  153.0029  143.3814  159.4419 C   0  0  0  0  0  0  0  0  0  0  0  0
  152.2082  142.2680  158.7521 C   0  0  0  0  0  0  0  0  0  0  0  0
  151.3496  142.8120  157.5796 C   0  0  1  0  0  0  0  0  0  0  0  0
  151.7747  138.0435  157.4144 N   0  0  0  0  0  0  0  0  0  0  0  0
  151.3223  137.1343  158.2809 C   0  0  0  0  0  0  0  0  0  0  0  0
  151.8438  137.2399  159.4947 N   0  0  0  0  0  0  0  0  0  0  0  0
  152.6659  138.3126  159.2973 C   0  0  0  0  0  0  0  0  0  0  0  0
  152.6506  138.8420  158.0743 N   0  0  0  0  0  0  0  0  0  0  0  0
  152.2675  138.2514  154.0236 H   0  0  0  0  0  0  0  0  0  0  0  0
  153.0272  137.1346  155.1481 H   0  0  0  0  0  0  0  0  0  0  0  0
  153.3731  138.8566  155.2527 H   0  0  0  0  0  0  0  0  0  0  0  0
  150.6567  137.5281  155.7597 H   0  0  0  0  0  0  0  0  0  0  0  0
  151.2131  140.0714  157.8262 H   0  0  0  0  0  0  0  0  0  0  0  0
  149.9844  142.1339  156.0578 H   0  0  0  0  0  0  0  0  0  0  0  0
  148.1546  141.8995  157.4857 H   0  0  0  0  0  0  0  0  0  0  0  0
  149.1281  141.2909  158.8182 H   0  0  0  0  0  0  0  0  0  0  0  0
  148.4380  144.0838  158.3325 H   0  0  0  0  0  0  0  0  0  0  0  0
  149.3582  143.3905  159.6650 H   0  0  0  0  0  0  0  0  0  0  0  0
  151.8937  145.5540  158.0623 H   0  0  0  0  0  0  0  0  0  0  0  0
  150.5036  145.7746  159.0970 H   0  0  0  0  0  0  0  0  0  0  0  0
  152.6067  145.2799  160.3971 H   0  0  0  0  0  0  0  0  0  0  0  0
  151.3799  144.0735  160.6896 H   0  0  0  0  0  0  0  0  0  0  0  0
  153.7339  143.8017  158.7500 H   0  0  0  0  0  0  0  0  0  0  0  0
  153.5641  142.9753  160.2840 H   0  0  0  0  0  0  0  0  0  0  0  0
  152.8983  141.5046  158.3914 H   0  0  0  0  0  0  0  0  0  0  0  0
  151.5720  141.7790  159.4909 H   0  0  0  0  0  0  0  0  0  0  0  0
  152.0159  143.1186  156.7719 H   0  0  0  0  0  0  0  0  0  0  0  0
  150.5874  136.3867  158.0214 H   0  0  0  0  0  0  0  0  0  0  0  0
  153.2858  138.7229  160.0810 H   0  0  0  0  0  0  0  0  0  0  0  0
  150.2279  144.4011  157.1149 H   0  0  0  0  0  0  0  0  0  0  0  0
  1  2  1  0  0  0  0
  1 20  1  0  0  0  0
  1 21  1  0  0  0  0
  1 22  1  0  0  0  0
  2  3  1  0  0  0  0
  2 15  1  0  0  0  0
  2 23  1  0  0  0  0
  3  4  2  0  0  0  0
  3  5  1  0  0  0  0
  5  6  1  0  0  0  0
  5 24  1  0  0  0  0
  6 14  1  0  0  0  0
  6  7  1  0  0  0  0
  6 25  1  0  0  0  0
  7  8  1  0  0  0  0
  7 26  1  0  0  0  0
  7 27  1  0  0  0  0
  8  9  1  0  0  0  0
  8 28  1  0  0  0  0
  8 29  1  0  0  0  0
  9 14  1  0  0  0  0
  9 10  1  0  0  0  0
  9 41  1  0  0  0  0
 10 11  1  0  0  0  0
 10 30  1  0  0  0  0
 10 31  1  0  0  0  0
 11 12  1  0  0  0  0
 11 32  1  0  0  0  0
 11 33  1  0  0  0  0
 12 13  1  0  0  0  0
 12 34  1  0  0  0  0
 12 35  1  0  0  0  0
 13 14  1  0  0  0  0
 13 36  1  0  0  0  0
 13 37  1  0  0  0  0
 14 38  1  0  0  0  0
 15 19  1  0  0  0  0
 15 16  1  0  0  0  0
 16 17  2  0  0  0  0
 16 39  1  0  0  0  0
 17 18  1  0  0  0  0
 18 19  2  0  0  0  0
 18 40  1  0  0  0  0
M  CHG  1   9   1
M  END
> <s_m_source_file>
AV-unprocessed.smi

> <i_m_source_file_index>
1406

> <i_lp_mmshare_version>
43012

> <i_f3d_flags>
0

> <s_epik_input>
bjFbY0hdbltjSF1uMVtDQEhdKFtDSDNdKUMoPU8pW05IXVtDQEhdKFtDSDJdW0NIMl0yKVtDQEBIXShOMjMpW0NIMl1bQ0gyXVtDSDJdW0NIMl0z

> <s_epik_cmdline>
J2VwaWtfcHl0aG9uJywgJy1waCcsICc3LjAnLCAnLXRuJywgJzgnLCAnLW1hJywgJzIwMCcsICctbWV0YWxfYmluZGluZycsICctaW1hZScsICc8aW5maWxlLm1hZT4nLCAnLW9tYWUnLCAnPG91dGZpbGUubWFlPic=

> <r_lp_tautomer_probability>
1

> <r_epik_Ionization_Penalty>
0.00197066

> <r_epik_Ionization_Penalty_Charging>
0.00196223

> <r_epik_Ionization_Penalty_Neutral>
8.43107e-06

> <r_epik_State_Penalty>
0.00133866

> <r_epik_Charging_Adjusted_Penalty>
0.00330089

> <i_epik_Tot_Q>
1

> <i_epik_Tot_abs_Q>
1

> <r_epik_Metal_State_Penalty>
-0

> <b_epik_Metal_Only>
0

> <s_lp_Force_Field>
OPLS_2005

> <r_lp_Energy>
41.142

> <b_lp_Chiralities_Consistent>
1

> <s_lp_Variant>
AV-unprocessed.smi:1406-3

> <Gold.Version>
5.8.1

> <Gold.Id.Protein>
6NUR|6NUR_protein|mol2

> <Gold.PLP.Fitness>
48.6517

> <Gold.PLP.PLP>
-36.8562

> <Gold.PLP.part.hbond>
-3.0688

> <Gold.PLP.part.metal>
0.0000

> <Gold.PLP.part.buried>
-5.1971

> <Gold.PLP.part.nonpolar>
-28.9934

> <Gold.PLP.part.repulsive>
0.2260

> <Gold.PLP.ligand.clash>
0.0000

> <Gold.PLP.ligand.torsion>
0.1553

> <Gold.PLP.Chemscore.Hbond>
4.0000

> <Gold.PLP.Chemscore.CHOScore>
0.0000

> <Gold.PLP.Chemscore.Metal>
0.0000

> <Gold.Chemscore.Hbonds>
donor molecule, donor type, donor heavy atom, donor atom, acceptor molecule, acceptor atom, score
      L1  H     9    41       P1  8028  2.00
      P1  H  7989  7998       L1     4  0.63

> <Gold.PLP.Chemscore.Internal.Correction>
0.1061

> <Gold.Rescore>
     Score         DG    S(hbond)    S(metal)    S(lipo)     H(rot)  DE(clash)    DE(int)     intcor
     14.12     -17.56       1.97        0.00      88.38       1.89       0.81       2.63       ----

> <Gold.Chemscore.Fitness>
14.1171

> <Gold.Chemscore.DG>
-17.5573

> <Gold.Chemscore.ZeroCoef>
-5.4800

> <Gold.Chemscore.Hbond>
1.9661

> <Gold.Chemscore.Metal>
0.0000

> <Gold.Chemscore.Lipo>
88.3766

> <Gold.Chemscore.Internal_Hbond>
0.0000

> <Gold.Chemscore.DEClash>
0.8064

> <Gold.Chemscore.DEInternal>
2.6338

> <Gold.Chemscore.Rot>
1.8865

> <Gold.Chemscore.Internal.Correction>
   9.000000E+99

> <Gold.Chemscore.Hbonds>
donor molecule, donor type, donor heavy atom, donor atom, acceptor molecule, acceptor atom, score
      L1  H     9    41       P1  8028  0.71
      P1  H  7989  7998       L1     4  0.50

> <Gold.Chemscore.Hbond.Weighted>
-6.5668

> <Gold.Chemscore.Metal.Weighted>
-0.0000

> <Gold.Chemscore.Lipo.Weighted>
-10.3401

> <Gold.Chemscore.Internal_Hbond.Weighted>
0.0000

> <Gold.Chemscore.DEClash.Weighted>
0.8064

> <Gold.Chemscore.DEInternal.Weighted>
2.6338

> <Gold.Chemscore.Rot.Weighted>
4.8295

> <Gold.Chemscore.Internal.Correction.Weighted>
   9.000000E+99

> <Gold.Protein.RotatedTorsions>
[ 6907 6896 6895 6894 ] final  -52.46 input  -60.11 | X-H torsion
[ 7974 7965 7964 7962 ] final   -9.84 input  175.53 | X-H torsion
[ 8008 7997 7996 7995 ] final  143.48 input   59.86 | X-H torsion
[ 10167 10162 10161 10158 ] final   72.87 input  -65.29 | X-H torsion
[ 10718 10713 10712 10709 ] final -121.77 input   66.30 | X-H torsion
[ 10763 10752 10751 10750 ] final -164.45 input  -60.55 | X-H torsion
[ 11005 11000 10999 10996 ] final  -44.69 input  -57.11 | X-H torsion

> <Gold.Protein.ActiveResidues>
 VAL166  LYS551  ARG553  GLY616  TRP617  ASP618  TYR619  PRO620  LYS621  CYS622 
 ASP623  PHE694  ASN695  SER759  ASP760  ASP761  ALA762  ILE779  LEU786  VAL792 
 PHE793  MET794  SER795  GLU796  ALA797  LYS798  CYS799  TRP800  GLU811  SER814 

> <Gold.Protein.RotatedAtoms>
  150.8516  134.7843  159.7012 H   0  0  0  0  0  0  0  0  0  0  0  0  # atno 6907 bound_to 6896
  152.4579  134.5247  159.9803 H   0  0  0  0  0  0  0  0  0  0  0  0  # atno 6908 bound_to 6896
  151.5367  133.3402  159.2963 H   0  0  0  0  0  0  0  0  0  0  0  0  # atno 6909 bound_to 6896
  146.2239  140.2676  142.8355 H   0  0  0  0  0  0  0  0  0  0  0  0  # atno 7974 bound_to 7965
  156.2929  140.2261  156.4897 H   0  0  0  0  0  0  0  0  0  0  0  0  # atno 8008 bound_to 7997
  154.7781  140.0462  157.1127 H   0  0  0  0  0  0  0  0  0  0  0  0  # atno 8009 bound_to 7997
  154.9791  140.3076  155.4957 H   0  0  0  0  0  0  0  0  0  0  0  0  # atno 8010 bound_to 7997
  140.0306  144.5469  150.7510 H   0  0  0  0  0  0  0  0  0  0  0  0  # atno 10167 bound_to 10162
  156.1364  130.6434  150.9703 H   0  0  0  0  0  0  0  0  0  0  0  0  # atno 10718 bound_to 10713
  154.7027  135.2991  154.9317 H   0  0  0  0  0  0  0  0  0  0  0  0  # atno 10763 bound_to 10752
  154.0244  135.6678  153.4779 H   0  0  0  0  0  0  0  0  0  0  0  0  # atno 10764 bound_to 10752
  153.0693  135.5070  154.8180 H   0  0  0  0  0  0  0  0  0  0  0  0  # atno 10765 bound_to 10752
  141.0467  133.6758  156.2907 H   0  0  0  0  0  0  0  0  0  0  0  0  # atno 11005 bound_to 11000
  144.9292  140.7956  143.5699 LP  0  0  0  0  0  0  0  0  0  0  0  0  # atno 17320 bound_to 7965
  145.2618  139.1989  143.4888 LP  0  0  0  0  0  0  0  0  0  0  0  0  # atno 17321 bound_to 7965
  140.7304  143.2682  151.3973 LP  0  0  0  0  0  0  0  0  0  0  0  0  # atno 17342 bound_to 10162
  139.6079  144.1160  152.2268 LP  0  0  0  0  0  0  0  0  0  0  0  0  # atno 17343 bound_to 10162
  157.6536  131.0893  150.7996 LP  0  0  0  0  0  0  0  0  0  0  0  0  # atno 17370 bound_to 10713
  156.8075  130.4941  149.5360 LP  0  0  0  0  0  0  0  0  0  0  0  0  # atno 17371 bound_to 10713
  140.6134  134.5435  157.5537 LP  0  0  0  0  0  0  0  0  0  0  0  0  # atno 17394 bound_to 11000
  139.9317  134.7951  156.0913 LP  0  0  0  0  0  0  0  0  0  0  0  0  # atno 17395 bound_to 11000

$$$$
