AV-unprocessed.smi:3260|AV-procd|sdf|12476|dock9
  -GOLD-   2272018373D 1   1.00000     0.00000
 Structure written by MMmdl.
 38 39  0  0  0  0  0  0  0  0  1 V2000
  145.7269  130.8308  151.4819 C   0  0  0  0  0  0  0  0  0  0  0  0
  145.2526  132.1143  151.0106 N   0  0  0  0  0  0  0  0  0  0  0  0
  145.7623  133.3673  151.2713 C   0  0  0  0  0  0  0  0  0  0  0  0
  144.9748  134.2749  150.6204 C   0  0  0  0  0  0  0  0  0  0  0  0
  145.0947  135.7773  150.6049 C   0  0  0  0  0  0  0  0  0  0  0  0
  145.1672  136.3958  152.0181 C   0  0  0  0  0  0  0  0  0  0  0  0
  146.5175  136.7902  152.4120 N   0  0  0  0  0  0  0  0  0  0  0  0
  146.8173  137.7269  153.3217 C   0  0  0  0  0  0  0  0  0  0  0  0
  145.9816  138.3319  153.9933 O   0  0  0  0  0  0  0  0  0  0  0  0
  148.1355  137.9588  153.3747 N   0  0  0  0  0  0  0  0  0  0  0  0
  148.7606  139.0319  154.1391 C   0  0  0  0  0  0  0  0  0  0  0  0
  150.2936  138.8939  154.1556 C   0  0  2  0  0  0  0  0  0  0  0  0
  150.8142  137.6484  154.8709 C   0  0  0  0  0  0  0  0  0  0  0  0
  152.2362  138.0561  155.1794 C   0  0  0  0  0  0  0  0  0  0  0  0
  152.0812  139.5399  155.5118 C   0  0  0  0  0  0  0  0  0  0  0  0
  150.8891  139.9769  154.8610 O   0  0  0  0  0  0  0  0  0  0  0  0
  144.0014  133.4627  149.9722 C   0  0  0  0  0  0  0  0  0  0  0  0
  144.1682  132.1715  150.2102 N   0  0  0  0  0  0  0  0  0  0  0  0
  146.6920  130.9479  151.9753 H   0  0  0  0  0  0  0  0  0  0  0  0
  145.8395  130.1445  150.6422 H   0  0  0  0  0  0  0  0  0  0  0  0
  145.0131  130.4144  152.1934 H   0  0  0  0  0  0  0  0  0  0  0  0
  146.6273  133.5111  151.9023 H   0  0  0  0  0  0  0  0  0  0  0  0
  145.9823  136.0745  150.0454 H   0  0  0  0  0  0  0  0  0  0  0  0
  144.2578  136.2239  150.0674 H   0  0  0  0  0  0  0  0  0  0  0  0
  144.4866  137.2442  152.1012 H   0  0  0  0  0  0  0  0  0  0  0  0
  144.8310  135.6580  152.7472 H   0  0  0  0  0  0  0  0  0  0  0  0
  147.2792  136.3561  151.9116 H   0  0  0  0  0  0  0  0  0  0  0  0
  148.7416  137.4056  152.7869 H   0  0  0  0  0  0  0  0  0  0  0  0
  148.4709  140.0023  153.7331 H   0  0  0  0  0  0  0  0  0  0  0  0
  148.3728  138.9936  155.1572 H   0  0  0  0  0  0  0  0  0  0  0  0
  150.6842  138.9106  153.1365 H   0  0  0  0  0  0  0  0  0  0  0  0
  150.2637  137.4773  155.7970 H   0  0  0  0  0  0  0  0  0  0  0  0
  150.7493  136.7473  154.2615 H   0  0  0  0  0  0  0  0  0  0  0  0
  152.6821  137.4800  155.9905 H   0  0  0  0  0  0  0  0  0  0  0  0
  152.8577  137.9333  154.2912 H   0  0  0  0  0  0  0  0  0  0  0  0
  151.9612  139.6836  156.5862 H   0  0  0  0  0  0  0  0  0  0  0  0
  152.9437  140.1224  155.1872 H   0  0  0  0  0  0  0  0  0  0  0  0
  143.1781  133.7732  149.3460 H   0  0  0  0  0  0  0  0  0  0  0  0
  1  2  1  0  0  0  0
  1 19  1  0  0  0  0
  1 20  1  0  0  0  0
  1 21  1  0  0  0  0
  2 18  1  0  0  0  0
  2  3  1  0  0  0  0
  3  4  2  0  0  0  0
  3 22  1  0  0  0  0
  4  5  1  0  0  0  0
  4 17  1  0  0  0  0
  5  6  1  0  0  0  0
  5 23  1  0  0  0  0
  5 24  1  0  0  0  0
  6  7  1  0  0  0  0
  6 25  1  0  0  0  0
  6 26  1  0  0  0  0
  7  8  1  0  0  0  0
  7 27  1  0  0  0  0
  8  9  2  0  0  0  0
  8 10  1  0  0  0  0
 10 11  1  0  0  0  0
 10 28  1  0  0  0  0
 11 12  1  0  0  0  0
 11 29  1  0  0  0  0
 11 30  1  0  0  0  0
 12 16  1  0  0  0  0
 12 13  1  0  0  0  0
 12 31  1  0  0  0  0
 13 14  1  0  0  0  0
 13 32  1  0  0  0  0
 13 33  1  0  0  0  0
 14 15  1  0  0  0  0
 14 34  1  0  0  0  0
 14 35  1  0  0  0  0
 15 16  1  0  0  0  0
 15 36  1  0  0  0  0
 15 37  1  0  0  0  0
 17 18  2  0  0  0  0
 17 38  1  0  0  0  0
M  END
> <s_m_source_file>
AV-unprocessed.smi

> <i_m_source_file_index>
3260

> <i_lp_mmshare_version>
43012

> <i_f3d_flags>
0

> <s_epik_input>
W0NIM11uMVtjSF1jKFtjSF1uMSlbQ0gyXVtDSDJdW05IXUMoPU8pW05IXVtDSDJdW0NAQEhdMltDSDJdW0NIMl1bQ0gyXU8y

> <s_epik_cmdline>
J2VwaWtfcHl0aG9uJywgJy1waCcsICc3LjAnLCAnLXRuJywgJzgnLCAnLW1hJywgJzIwMCcsICctbWV0YWxfYmluZGluZycsICctaW1hZScsICc8aW5maWxlLm1hZT4nLCAnLW9tYWUnLCAnPG91dGZpbGUubWFlPic=

> <r_lp_tautomer_probability>
1

> <r_epik_Ionization_Penalty>
0.000550106

> <r_epik_Ionization_Penalty_Charging>
0

> <r_epik_Ionization_Penalty_Neutral>
0.000550106

> <r_epik_State_Penalty>
-0

> <r_epik_Charging_Adjusted_Penalty>
0

> <i_epik_Tot_Q>
0

> <i_epik_Tot_abs_Q>
0

> <r_epik_Metal_State_Penalty>
-0

> <b_epik_Metal_Only>
0

> <s_lp_Force_Field>
OPLS_2005

> <r_lp_Energy>
10.4749

> <b_lp_Chiralities_Consistent>
1

> <s_lp_Variant>
AV-unprocessed.smi:3260-1

> <Gold.Version>
5.8.1

> <Gold.Id.Protein>
6NUR|6NUR_protein|mol2

> <Gold.PLP.Fitness>
44.1139

> <Gold.PLP.PLP>
-33.6593

> <Gold.PLP.part.hbond>
-2.7488

> <Gold.PLP.part.metal>
0.0000

> <Gold.PLP.part.buried>
-3.9863

> <Gold.PLP.part.nonpolar>
-27.7429

> <Gold.PLP.part.repulsive>
0.4273

> <Gold.PLP.ligand.clash>
0.0000

> <Gold.PLP.ligand.torsion>
0.5697

> <Gold.PLP.Chemscore.Hbond>
2.8520

> <Gold.PLP.Chemscore.CHOScore>
1.0000

> <Gold.PLP.Chemscore.Metal>
0.0000

> <Gold.Chemscore.Hbonds>
donor molecule, donor type, donor heavy atom, donor atom, acceptor molecule, acceptor atom, score
      L1  H     7    27       P1  7948  0.90
      L1  H    10    28       P1  7948  0.91
      P1  H  7989  7998       L1    16  0.95
      L1  C    17    38       P1 10186  1.00

> <Gold.PLP.Chemscore.Internal.Correction>
0.0381

> <Gold.Rescore>
     Score         DG    S(hbond)    S(metal)    S(lipo)     H(rot)  DE(clash)    DE(int)     intcor
     15.54     -16.40       1.88        0.00      80.25       1.85       0.30       0.56       ----

> <Gold.Chemscore.Fitness>
15.5369

> <Gold.Chemscore.DG>
-16.4038

> <Gold.Chemscore.ZeroCoef>
-5.4800

> <Gold.Chemscore.Hbond>
1.8796

> <Gold.Chemscore.Metal>
0.0000

> <Gold.Chemscore.Lipo>
80.2505

> <Gold.Chemscore.Internal_Hbond>
0.0000

> <Gold.Chemscore.DEClash>
0.3048

> <Gold.Chemscore.DEInternal>
0.5621

> <Gold.Chemscore.Rot>
1.8528

> <Gold.Chemscore.Internal.Correction>
   9.000000E+99

> <Gold.Chemscore.Hbonds>
donor molecule, donor type, donor heavy atom, donor atom, acceptor molecule, acceptor atom, score
      L1  H     7    27       P1  7948  0.88
      L1  H    10    28       P1  7948  0.84
      P1  H  7989  7998       L1    16  0.06

> <Gold.Chemscore.Hbond.Weighted>
-6.2778

> <Gold.Chemscore.Metal.Weighted>
-0.0000

> <Gold.Chemscore.Lipo.Weighted>
-9.3893

> <Gold.Chemscore.Internal_Hbond.Weighted>
0.0000

> <Gold.Chemscore.DEClash.Weighted>
0.3048

> <Gold.Chemscore.DEInternal.Weighted>
0.5621

> <Gold.Chemscore.Rot.Weighted>
4.7433

> <Gold.Chemscore.Internal.Correction.Weighted>
   9.000000E+99

> <Gold.Protein.RotatedTorsions>
[ 6907 6896 6895 6894 ] final  141.92 input  -60.11 | X-H torsion
[ 7974 7965 7964 7962 ] final  161.07 input  175.53 | X-H torsion
[ 8008 7997 7996 7995 ] final    7.30 input   59.86 | X-H torsion
[ 10167 10162 10161 10158 ] final  -91.54 input  -65.29 | X-H torsion
[ 10718 10713 10712 10709 ] final -149.11 input   66.30 | X-H torsion
[ 10763 10752 10751 10750 ] final  -14.99 input  -60.55 | X-H torsion
[ 11005 11000 10999 10996 ] final   33.01 input  -57.11 | X-H torsion

> <Gold.Protein.ActiveResidues>
 VAL166  LYS551  ARG553  GLY616  TRP617  ASP618  TYR619  PRO620  LYS621  CYS622 
 ASP623  PHE694  ASN695  SER759  ASP760  ASP761  ALA762  ILE779  LEU786  VAL792 
 PHE793  MET794  SER795  GLU796  ALA797  LYS798  CYS799  TRP800  GLU811  SER814 

> <Gold.Protein.RotatedAtoms>
  152.2251  133.5014  159.5184 H   0  0  0  0  0  0  0  0  0  0  0  0  # atno 6907 bound_to 6896
  150.7023  134.1290  159.4072 H   0  0  0  0  0  0  0  0  0  0  0  0  # atno 6908 bound_to 6896
  151.9211  135.0297  160.0573 H   0  0  0  0  0  0  0  0  0  0  0  0  # atno 6909 bound_to 6896
  144.7704  139.7847  143.6299 H   0  0  0  0  0  0  0  0  0  0  0  0  # atno 7974 bound_to 7965
  154.7521  140.2769  155.6284 H   0  0  0  0  0  0  0  0  0  0  0  0  # atno 8008 bound_to 7997
  156.2898  140.2676  156.2204 H   0  0  0  0  0  0  0  0  0  0  0  0  # atno 8009 bound_to 7997
  155.0123  140.0372  157.2394 H   0  0  0  0  0  0  0  0  0  0  0  0  # atno 8010 bound_to 7997
  140.3439  143.2927  151.9804 H   0  0  0  0  0  0  0  0  0  0  0  0  # atno 10167 bound_to 10162
  156.4289  130.8065  151.2291 H   0  0  0  0  0  0  0  0  0  0  0  0  # atno 10718 bound_to 10713
  153.5365  135.7014  153.5657 H   0  0  0  0  0  0  0  0  0  0  0  0  # atno 10763 bound_to 10752
  153.3642  135.3962  155.1740 H   0  0  0  0  0  0  0  0  0  0  0  0  # atno 10764 bound_to 10752
  154.8678  135.3796  154.4866 H   0  0  0  0  0  0  0  0  0  0  0  0  # atno 10765 bound_to 10752
  140.2676  134.3120  155.7838 H   0  0  0  0  0  0  0  0  0  0  0  0  # atno 11005 bound_to 11000
  146.1846  139.5055  142.9844 LP  0  0  0  0  0  0  0  0  0  0  0  0  # atno 17320 bound_to 7965
  145.6341  141.0298  143.1847 LP  0  0  0  0  0  0  0  0  0  0  0  0  # atno 17321 bound_to 7965
  139.4836  144.6134  151.7392 LP  0  0  0  0  0  0  0  0  0  0  0  0  # atno 17342 bound_to 10162
  140.5283  144.0770  150.6045 LP  0  0  0  0  0  0  0  0  0  0  0  0  # atno 17343 bound_to 10162
  157.7508  131.0205  150.3709 LP  0  0  0  0  0  0  0  0  0  0  0  0  # atno 17370 bound_to 10713
  156.4042  130.3921  149.6937 LP  0  0  0  0  0  0  0  0  0  0  0  0  # atno 17371 bound_to 10713
  141.2182  133.7447  156.9284 LP  0  0  0  0  0  0  0  0  0  0  0  0  # atno 17394 bound_to 11000
  140.1404  134.9297  157.2459 LP  0  0  0  0  0  0  0  0  0  0  0  0  # atno 17395 bound_to 11000

$$$$
