AV-unprocessed.smi:1783|AV-procd|sdf|7193|dock7
  -GOLD-   22720 8433D 1   1.00000     0.00000
 Structure written by MMmdl.
 30 31  0  0  0  0  0  0  0  0  1 V2000
  150.1771  143.1422  157.3838 O   0  0  0  0  0  0  0  0  0  0  0  0
  151.3078  142.6587  157.4354 C   0  0  0  0  0  0  0  0  0  0  0  0
  151.7235  141.5929  156.7218 N   0  0  0  0  0  0  0  0  0  0  0  0
  151.0233  140.8167  155.7834 C   0  0  0  0  0  0  0  0  0  0  0  0
  149.9921  141.2634  155.0197 C   0  0  0  0  0  0  0  0  0  0  0  0
  149.3180  140.4079  154.0574 C   0  0  0  0  0  0  0  0  0  0  0  0
  148.1101  140.8929  153.2708 C   0  0  0  0  0  0  0  0  0  0  0  0
  146.9969  140.3683  153.7813 F   0  0  0  0  0  0  0  0  0  0  0  0
  148.0031  142.2217  153.3182 F   0  0  0  0  0  0  0  0  0  0  0  0
  148.1933  140.5254  151.9919 F   0  0  0  0  0  0  0  0  0  0  0  0
  149.7647  139.1419  153.9633 C   0  0  0  0  0  0  0  0  0  0  0  0
  150.8391  138.6819  154.7277 N   0  0  0  0  0  0  0  0  0  0  0  0
  151.5034  139.4329  155.6346 C   0  0  0  0  0  0  0  0  0  0  0  0
  152.4399  138.9527  156.2721 O   0  0  0  0  0  0  0  0  0  0  0  0
  152.3615  143.2808  158.3740 C   0  0  1  0  0  0  0  0  0  0  0  0
  152.6963  144.7449  158.0706 C   0  0  0  0  0  0  0  0  0  0  0  0
  151.5737  145.5138  158.7478 C   0  0  0  0  0  0  0  0  0  0  0  0
  151.0859  144.5628  159.8460 C   0  0  0  0  0  0  0  0  0  0  0  0
  151.8565  143.3704  159.7040 O   0  0  0  0  0  0  0  0  0  0  0  0
  151.1259  137.7239  154.5869 H   0  0  0  0  0  0  0  0  0  0  0  0
  152.6596  141.2685  156.9201 H   0  0  0  0  0  0  0  0  0  0  0  0
  149.6521  142.2837  155.0874 H   0  0  0  0  0  0  0  0  0  0  0  0
  149.3379  138.3930  153.3126 H   0  0  0  0  0  0  0  0  0  0  0  0
  153.2553  142.6567  158.3516 H   0  0  0  0  0  0  0  0  0  0  0  0
  153.6493  144.9998  158.5357 H   0  0  0  0  0  0  0  0  0  0  0  0
  152.7829  144.9733  157.0076 H   0  0  0  0  0  0  0  0  0  0  0  0
  151.9159  146.4700  159.1447 H   0  0  0  0  0  0  0  0  0  0  0  0
  150.7670  145.7132  158.0412 H   0  0  0  0  0  0  0  0  0  0  0  0
  151.2258  144.9807  160.8433 H   0  0  0  0  0  0  0  0  0  0  0  0
  150.0263  144.3366  159.7198 H   0  0  0  0  0  0  0  0  0  0  0  0
  1  2  2  0  0  0  0
  2  3  1  0  0  0  0
  2 15  1  0  0  0  0
  3  4  1  0  0  0  0
  3 21  1  0  0  0  0
  4 13  1  0  0  0  0
  4  5  2  0  0  0  0
  5  6  1  0  0  0  0
  5 22  1  0  0  0  0
  6  7  1  0  0  0  0
  6 11  2  0  0  0  0
  7  8  1  0  0  0  0
  7  9  1  0  0  0  0
  7 10  1  0  0  0  0
 11 12  1  0  0  0  0
 11 23  1  0  0  0  0
 12 20  1  0  0  0  0
 12 13  1  0  0  0  0
 13 14  2  0  0  0  0
 15 19  1  0  0  0  0
 15 16  1  0  0  0  0
 15 24  1  0  0  0  0
 16 17  1  0  0  0  0
 16 25  1  0  0  0  0
 16 26  1  0  0  0  0
 17 18  1  0  0  0  0
 17 27  1  0  0  0  0
 17 28  1  0  0  0  0
 18 19  1  0  0  0  0
 18 29  1  0  0  0  0
 18 30  1  0  0  0  0
M  END
> <s_m_source_file>
AV-unprocessed.smi

> <i_m_source_file_index>
1783

> <i_lp_mmshare_version>
43012

> <i_f3d_flags>
0

> <s_epik_input>
TzFbQ0gyXVtDSDJdW0NIMl1bQ0BIXTFDKD1PKVtOSF1jMltjSF1jKEMoRikoRilGKVtjSF1bbkhdYzI9Tw==

> <s_epik_cmdline>
J2VwaWtfcHl0aG9uJywgJy1waCcsICc3LjAnLCAnLXRuJywgJzgnLCAnLW1hJywgJzIwMCcsICctbWV0YWxfYmluZGluZycsICctaW1hZScsICc8aW5maWxlLm1hZT4nLCAnLW9tYWUnLCAnPG91dGZpbGUubWFlPic=

> <r_lp_tautomer_probability>
0.999

> <r_epik_Ionization_Penalty>
0.00885957

> <r_epik_Ionization_Penalty_Charging>
0.00885947

> <r_epik_Ionization_Penalty_Neutral>
9.33956e-08

> <r_epik_State_Penalty>
0.00669851

> <r_epik_Charging_Adjusted_Penalty>
0.015558

> <i_epik_Tot_Q>
0

> <i_epik_Tot_abs_Q>
0

> <r_epik_Metal_State_Penalty>
0.320804

> <b_epik_Metal_Only>
0

> <s_lp_Force_Field>
OPLS_2005

> <r_lp_Energy>
32.0123

> <b_lp_Chiralities_Consistent>
1

> <s_lp_Variant>
AV-unprocessed.smi:1783-2

> <Gold.Version>
5.8.1

> <Gold.Id.Protein>
6NUR|6NUR_protein|mol2

> <Gold.PLP.Fitness>
42.0943

> <Gold.PLP.PLP>
-37.6936

> <Gold.PLP.part.hbond>
-1.0000

> <Gold.PLP.part.metal>
0.0000

> <Gold.PLP.part.buried>
1.2796

> <Gold.PLP.part.nonpolar>
-38.4471

> <Gold.PLP.part.repulsive>
0.3838

> <Gold.PLP.ligand.clash>
0.0000

> <Gold.PLP.ligand.torsion>
0.7178

> <Gold.PLP.Chemscore.Hbond>
1.0000

> <Gold.PLP.Chemscore.CHOScore>
0.9225

> <Gold.PLP.Chemscore.Metal>
0.0000

> <Gold.Chemscore.Hbonds>
donor molecule, donor type, donor heavy atom, donor atom, acceptor molecule, acceptor atom, score
      P1  H  7997  8008       L1    14  0.49
      L1  C    11    23       P1  7948  0.83
      L1  C    11    23       P1  7957  0.13

> <Gold.PLP.Chemscore.Internal.Correction>
0.0688

> <Gold.Rescore>
     Score         DG    S(hbond)    S(metal)    S(lipo)     H(rot)  DE(clash)    DE(int)     intcor
     12.87     -16.25       1.00        0.00      85.43       1.00       1.41       1.97       ----

> <Gold.Chemscore.Fitness>
12.8730

> <Gold.Chemscore.DG>
-16.2547

> <Gold.Chemscore.ZeroCoef>
-5.4800

> <Gold.Chemscore.Hbond>
1.0000

> <Gold.Chemscore.Metal>
0.0000

> <Gold.Chemscore.Lipo>
85.4251

> <Gold.Chemscore.Internal_Hbond>
0.0000

> <Gold.Chemscore.DEClash>
1.4076

> <Gold.Chemscore.DEInternal>
1.9742

> <Gold.Chemscore.Rot>
1.0000

> <Gold.Chemscore.Internal.Correction>
   9.000000E+99

> <Gold.Chemscore.Hbonds>
donor molecule, donor type, donor heavy atom, donor atom, acceptor molecule, acceptor atom, score
      P1  H  7997  8008       L1    14  0.46

> <Gold.Chemscore.Hbond.Weighted>
-3.3400

> <Gold.Chemscore.Metal.Weighted>
-0.0000

> <Gold.Chemscore.Lipo.Weighted>
-9.9947

> <Gold.Chemscore.Internal_Hbond.Weighted>
0.0000

> <Gold.Chemscore.DEClash.Weighted>
1.4076

> <Gold.Chemscore.DEInternal.Weighted>
1.9742

> <Gold.Chemscore.Rot.Weighted>
2.5600

> <Gold.Chemscore.Internal.Correction.Weighted>
   9.000000E+99

> <Gold.Protein.RotatedTorsions>
[ 6907 6896 6895 6894 ] final   84.70 input  -60.11 | X-H torsion
[ 7974 7965 7964 7962 ] final  103.89 input  175.53 | X-H torsion
[ 8008 7997 7996 7995 ] final  -38.73 input   59.86 | X-H torsion
[ 10167 10162 10161 10158 ] final   50.13 input  -65.29 | X-H torsion
[ 10718 10713 10712 10709 ] final   92.85 input   66.30 | X-H torsion
[ 10763 10752 10751 10750 ] final  114.84 input  -60.55 | X-H torsion
[ 11005 11000 10999 10996 ] final   -3.18 input  -57.11 | X-H torsion

> <Gold.Protein.ActiveResidues>
 VAL166  LYS551  ARG553  GLY616  TRP617  ASP618  TYR619  PRO620  LYS621  CYS622 
 ASP623  PHE694  ASN695  SER759  ASP760  ASP761  ALA762  ILE779  LEU786  VAL792 
 PHE793  MET794  SER795  GLU796  ALA797  LYS798  CYS799  TRP800  GLU811  SER814 

> <Gold.Protein.RotatedAtoms>
  152.5358  134.2700  159.8967 H   0  0  0  0  0  0  0  0  0  0  0  0  # atno 6907 bound_to 6896
  151.2657  133.4273  159.2626 H   0  0  0  0  0  0  0  0  0  0  0  0  # atno 6908 bound_to 6896
  151.0413  134.9623  159.8219 H   0  0  0  0  0  0  0  0  0  0  0  0  # atno 6909 bound_to 6896
  145.3399  139.2465  143.3615 H   0  0  0  0  0  0  0  0  0  0  0  0  # atno 7974 bound_to 7965
  154.4032  140.1570  156.2748 H   0  0  0  0  0  0  0  0  0  0  0  0  # atno 8008 bound_to 7997
  155.8922  140.3438  155.5942 H   0  0  0  0  0  0  0  0  0  0  0  0  # atno 8009 bound_to 7997
  155.7545  140.0809  157.2176 H   0  0  0  0  0  0  0  0  0  0  0  0  # atno 8010 bound_to 7997
  140.2757  144.3214  150.6278 H   0  0  0  0  0  0  0  0  0  0  0  0  # atno 10167 bound_to 10162
  157.6957  131.0458  150.3945 H   0  0  0  0  0  0  0  0  0  0  0  0  # atno 10718 bound_to 10713
  153.5133  135.3613  155.2597 H   0  0  0  0  0  0  0  0  0  0  0  0  # atno 10763 bound_to 10752
  154.8740  135.4028  154.3343 H   0  0  0  0  0  0  0  0  0  0  0  0  # atno 10764 bound_to 10752
  153.4000  135.7074  153.6499 H   0  0  0  0  0  0  0  0  0  0  0  0  # atno 10765 bound_to 10752
  140.6664  133.9274  155.8468 H   0  0  0  0  0  0  0  0  0  0  0  0  # atno 11005 bound_to 11000
  146.3011  140.3994  142.8703 LP  0  0  0  0  0  0  0  0  0  0  0  0  # atno 17320 bound_to 7965
  144.8798  140.7385  143.5994 LP  0  0  0  0  0  0  0  0  0  0  0  0  # atno 17321 bound_to 7965
  140.5853  143.2170  151.7353 LP  0  0  0  0  0  0  0  0  0  0  0  0  # atno 17342 bound_to 10162
  139.4976  144.4020  152.0172 LP  0  0  0  0  0  0  0  0  0  0  0  0  # atno 17343 bound_to 10162
  156.4345  130.3979  149.6738 LP  0  0  0  0  0  0  0  0  0  0  0  0  # atno 17370 bound_to 10713
  156.3943  130.7643  151.2646 LP  0  0  0  0  0  0  0  0  0  0  0  0  # atno 17371 bound_to 10713
  141.0425  134.0600  157.3884 LP  0  0  0  0  0  0  0  0  0  0  0  0  # atno 17394 bound_to 11000
  139.8996  135.0159  156.7201 LP  0  0  0  0  0  0  0  0  0  0  0  0  # atno 17395 bound_to 11000

$$$$
