AV-unprocessed.smi:185|AV-procd|sdf|1465|dock2
  -GOLD-   2262019273D 1   1.00000     0.00000
 Structure written by MMmdl.
 53 56  0  0  0  0  0  0  0  0  1 V2000
  151.5395  140.1795  156.4689 C   0  0  0  0  0  0  0  0  0  0  0  0
  150.3213  140.9255  156.7754 N   0  0  0  0  0  0  0  0  0  0  0  0
  150.4930  142.2223  157.4286 C   0  0  0  0  0  0  0  0  0  0  0  0
  151.8920  142.3936  158.0524 C   0  0  0  0  0  0  0  0  0  0  0  0
  151.8841  143.4097  159.0995 N   0  0  0  0  0  0  0  0  0  0  0  0
  151.5208  144.7850  158.8019 C   0  0  0  0  0  0  0  0  0  0  0  0
  151.8471  145.5702  160.0808 C   0  0  0  0  0  0  0  0  0  0  0  0
  152.0872  144.5178  161.1691 C   0  0  0  0  0  0  0  0  0  0  0  0
  152.2067  143.2221  160.3850 C   0  0  0  0  0  0  0  0  0  0  0  0
  152.5586  142.1607  160.8991 O   0  0  0  0  0  0  0  0  0  0  0  0
  149.1899  140.2192  157.0618 C   0  0  0  0  0  0  0  0  0  0  0  0
  147.9922  140.6780  156.6057 N   0  0  0  0  0  0  0  0  0  0  0  0
  146.8675  139.9927  156.8266 C   0  0  0  0  0  0  0  0  0  0  0  0
  146.7097  138.8362  157.4699 N   0  0  0  0  0  0  0  0  0  0  0  0
  147.8994  138.3709  157.9452 C   0  0  0  0  0  0  0  0  0  0  0  0
  149.1719  138.9971  157.8011 C   0  0  0  0  0  0  0  0  0  0  0  0
  150.1369  138.2346  158.4512 N   0  0  0  0  0  0  0  0  0  0  0  0
  149.4831  137.2095  158.9212 C   0  0  0  0  0  0  0  0  0  0  0  0
  148.1353  137.2027  158.6491 N   0  0  0  0  0  0  0  0  0  0  0  0
  147.1761  136.1790  159.0343 C   0  0  0  0  0  0  0  0  0  0  0  0
  146.7512  136.2479  160.5232 C   0  0  0  0  0  0  0  0  0  0  0  0
  146.2150  137.5377  160.7618 O   0  0  0  0  0  0  0  0  0  0  0  0
  145.6744  135.2008  160.8859 C   0  0  0  0  0  0  0  0  0  0  0  0
  145.4159  135.1354  162.4017 C   0  0  0  0  0  0  0  0  0  0  0  0
  146.6333  134.8955  163.0969 O   0  0  0  0  0  0  0  0  0  0  0  0
  147.5802  135.9426  162.9233 C   0  0  0  0  0  0  0  0  0  0  0  0
  147.9759  136.0545  161.4400 C   0  0  0  0  0  0  0  0  0  0  0  0
  151.3570  139.4401  155.6881 H   0  0  0  0  0  0  0  0  0  0  0  0
  151.9146  139.6666  157.3554 H   0  0  0  0  0  0  0  0  0  0  0  0
  152.3216  140.8493  156.1105 H   0  0  0  0  0  0  0  0  0  0  0  0
  150.3375  143.0090  156.6897 H   0  0  0  0  0  0  0  0  0  0  0  0
  149.7137  142.3838  158.1691 H   0  0  0  0  0  0  0  0  0  0  0  0
  152.2375  141.4554  158.4896 H   0  0  0  0  0  0  0  0  0  0  0  0
  152.6177  142.6560  157.2817 H   0  0  0  0  0  0  0  0  0  0  0  0
  152.0741  145.1672  157.9432 H   0  0  0  0  0  0  0  0  0  0  0  0
  150.4556  144.8338  158.5721 H   0  0  0  0  0  0  0  0  0  0  0  0
  152.7503  146.1644  159.9354 H   0  0  0  0  0  0  0  0  0  0  0  0
  151.0432  146.2570  160.3479 H   0  0  0  0  0  0  0  0  0  0  0  0
  152.9894  144.7195  161.7474 H   0  0  0  0  0  0  0  0  0  0  0  0
  151.2398  144.4507  161.8520 H   0  0  0  0  0  0  0  0  0  0  0  0
  145.9662  140.4301  156.4235 H   0  0  0  0  0  0  0  0  0  0  0  0
  149.9720  136.4196  159.4724 H   0  0  0  0  0  0  0  0  0  0  0  0
  146.3006  136.2851  158.3923 H   0  0  0  0  0  0  0  0  0  0  0  0
  147.6031  135.2017  158.8041 H   0  0  0  0  0  0  0  0  0  0  0  0
  145.5146  137.4607  161.3914 H   0  0  0  0  0  0  0  0  0  0  0  0
  144.7371  135.4083  160.3676 H   0  0  0  0  0  0  0  0  0  0  0  0
  146.0016  134.2170  160.5470 H   0  0  0  0  0  0  0  0  0  0  0  0
  144.9535  136.0559  162.7613 H   0  0  0  0  0  0  0  0  0  0  0  0
  144.7200  134.3267  162.6250 H   0  0  0  0  0  0  0  0  0  0  0  0
  147.1726  136.8839  163.2951 H   0  0  0  0  0  0  0  0  0  0  0  0
  148.4604  135.7212  163.5270 H   0  0  0  0  0  0  0  0  0  0  0  0
  148.4995  135.1410  161.1546 H   0  0  0  0  0  0  0  0  0  0  0  0
  148.6885  136.8693  161.3038 H   0  0  0  0  0  0  0  0  0  0  0  0
  1  2  1  0  0  0  0
  1 28  1  0  0  0  0
  1 29  1  0  0  0  0
  1 30  1  0  0  0  0
  2  3  1  0  0  0  0
  2 11  1  0  0  0  0
  3  4  1  0  0  0  0
  3 31  1  0  0  0  0
  3 32  1  0  0  0  0
  4  5  1  0  0  0  0
  4 33  1  0  0  0  0
  4 34  1  0  0  0  0
  5  9  1  0  0  0  0
  5  6  1  0  0  0  0
  6  7  1  0  0  0  0
  6 35  1  0  0  0  0
  6 36  1  0  0  0  0
  7  8  1  0  0  0  0
  7 37  1  0  0  0  0
  7 38  1  0  0  0  0
  8  9  1  0  0  0  0
  8 39  1  0  0  0  0
  8 40  1  0  0  0  0
  9 10  2  0  0  0  0
 11 16  1  0  0  0  0
 11 12  2  0  0  0  0
 12 13  1  0  0  0  0
 13 14  2  0  0  0  0
 13 41  1  0  0  0  0
 14 15  1  0  0  0  0
 15 19  1  0  0  0  0
 15 16  2  0  0  0  0
 16 17  1  0  0  0  0
 17 18  2  0  0  0  0
 18 19  1  0  0  0  0
 18 42  1  0  0  0  0
 19 20  1  0  0  0  0
 20 21  1  0  0  0  0
 20 43  1  0  0  0  0
 20 44  1  0  0  0  0
 21 27  1  0  0  0  0
 21 22  1  0  0  0  0
 21 23  1  0  0  0  0
 22 45  1  0  0  0  0
 23 24  1  0  0  0  0
 23 46  1  0  0  0  0
 23 47  1  0  0  0  0
 24 25  1  0  0  0  0
 24 48  1  0  0  0  0
 24 49  1  0  0  0  0
 25 26  1  0  0  0  0
 26 27  1  0  0  0  0
 26 50  1  0  0  0  0
 26 51  1  0  0  0  0
 27 52  1  0  0  0  0
 27 53  1  0  0  0  0
M  END
> <s_m_source_file>
AV-unprocessed.smi

> <i_m_source_file_index>
185

> <i_lp_mmshare_version>
43012

> <i_f3d_flags>
0

> <s_epik_input>
Tz1DMVtDSDJdW0NIMl1bQ0gyXU4xW0NIMl1bQ0gyXU4oW0NIM10pYyhuW2NIXW4yKWMoYzIzKW5bY0hdbjNbQ0gyXUM0KFtPSF0pW0NIMl1bQ0gyXU9bQ0gyXVtDSDJdNA==

> <s_epik_cmdline>
J2VwaWtfcHl0aG9uJywgJy1waCcsICc3LjAnLCAnLXRuJywgJzgnLCAnLW1hJywgJzIwMCcsICctbWV0YWxfYmluZGluZycsICctaW1hZScsICc8aW5maWxlLm1hZT4nLCAnLW9tYWUnLCAnPG91dGZpbGUubWFlPic=

> <r_lp_tautomer_probability>
1

> <r_epik_Ionization_Penalty>
0.00150291

> <r_epik_Ionization_Penalty_Charging>
0

> <r_epik_Ionization_Penalty_Neutral>
0.00150291

> <r_epik_State_Penalty>
0.000836254

> <r_epik_Charging_Adjusted_Penalty>
0.000836254

> <i_epik_Tot_Q>
0

> <i_epik_Tot_abs_Q>
0

> <r_epik_Metal_State_Penalty>
-0

> <b_epik_Metal_Only>
0

> <s_lp_Force_Field>
OPLS_2005

> <r_lp_Energy>
31.6945

> <b_lp_Chiralities_Consistent>
1

> <s_lp_Variant>
AV-unprocessed.smi:185-1

> <Gold.Version>
5.8.1

> <Gold.Id.Protein>
6NUR|6NUR_protein|mol2

> <Gold.PLP.Fitness>
47.9634

> <Gold.PLP.PLP>
-47.3815

> <Gold.PLP.part.hbond>
-1.5606

> <Gold.PLP.part.metal>
0.0000

> <Gold.PLP.part.buried>
-9.1207

> <Gold.PLP.part.nonpolar>
-36.3609

> <Gold.PLP.part.repulsive>
0.0607

> <Gold.PLP.ligand.clash>
0.1896

> <Gold.PLP.ligand.torsion>
1.4606

> <Gold.PLP.Chemscore.Hbond>
1.0000

> <Gold.PLP.Chemscore.CHOScore>
0.0000

> <Gold.PLP.Chemscore.Metal>
0.0000

> <Gold.Chemscore.Hbonds>
donor molecule, donor type, donor heavy atom, donor atom, acceptor molecule, acceptor atom, score
      P1  H  6934  6947       L1    22  1.00

> <Gold.PLP.Chemscore.Internal.Correction>
0.6928

> <Gold.Rescore>
     Score         DG    S(hbond)    S(metal)    S(lipo)     H(rot)  DE(clash)    DE(int)     intcor
     11.92     -13.40       0.96        0.00      99.93       2.73       0.02       1.46       ----

> <Gold.Chemscore.Fitness>
11.9209

> <Gold.Chemscore.DG>
-13.3991

> <Gold.Chemscore.ZeroCoef>
-5.4800

> <Gold.Chemscore.Hbond>
0.9642

> <Gold.Chemscore.Metal>
0.0000

> <Gold.Chemscore.Lipo>
99.9322

> <Gold.Chemscore.Internal_Hbond>
0.0000

> <Gold.Chemscore.DEClash>
0.0187

> <Gold.Chemscore.DEInternal>
1.4596

> <Gold.Chemscore.Rot>
2.7318

> <Gold.Chemscore.Internal.Correction>
   9.000000E+99

> <Gold.Chemscore.Hbonds>
donor molecule, donor type, donor heavy atom, donor atom, acceptor molecule, acceptor atom, score
      P1  H  6934  6947       L1    22  0.85

> <Gold.Chemscore.Hbond.Weighted>
-3.2204

> <Gold.Chemscore.Metal.Weighted>
-0.0000

> <Gold.Chemscore.Lipo.Weighted>
-11.6921

> <Gold.Chemscore.Internal_Hbond.Weighted>
0.0000

> <Gold.Chemscore.DEClash.Weighted>
0.0187

> <Gold.Chemscore.DEInternal.Weighted>
1.4596

> <Gold.Chemscore.Rot.Weighted>
6.9933

> <Gold.Chemscore.Internal.Correction.Weighted>
   9.000000E+99

> <Gold.Protein.RotatedTorsions>
[ 6907 6896 6895 6894 ] final -110.25 input  -60.11 | X-H torsion
[ 7974 7965 7964 7962 ] final   60.90 input  175.53 | X-H torsion
[ 8008 7997 7996 7995 ] final -141.94 input   59.86 | X-H torsion
[ 10167 10162 10161 10158 ] final  113.80 input  -65.29 | X-H torsion
[ 10718 10713 10712 10709 ] final -168.45 input   66.30 | X-H torsion
[ 10763 10752 10751 10750 ] final -104.96 input  -60.55 | X-H torsion
[ 11005 11000 10999 10996 ] final  121.74 input  -57.11 | X-H torsion

> <Gold.Protein.ActiveResidues>
 VAL166  LYS551  ARG553  GLY616  TRP617  ASP618  TYR619  PRO620  LYS621  CYS622 
 ASP623  PHE694  ASN695  SER759  ASP760  ASP761  ALA762  ILE779  LEU786  VAL792 
 PHE793  MET794  SER795  GLU796  ALA797  LYS798  CYS799  TRP800  GLU811  SER814 

> <Gold.Protein.RotatedAtoms>
  150.7613  133.9410  159.3455 H   0  0  0  0  0  0  0  0  0  0  0  0  # atno 6907 bound_to 6896
  151.7318  135.0871  160.0311 H   0  0  0  0  0  0  0  0  0  0  0  0  # atno 6908 bound_to 6896
  152.3585  133.6229  159.6033 H   0  0  0  0  0  0  0  0  0  0  0  0  # atno 6909 bound_to 6896
  145.8908  139.3509  143.0650 H   0  0  0  0  0  0  0  0  0  0  0  0  # atno 7974 bound_to 7965
  155.4860  140.0564  157.2960 H   0  0  0  0  0  0  0  0  0  0  0  0  # atno 8008 bound_to 7997
  154.4641  140.2010  156.0116 H   0  0  0  0  0  0  0  0  0  0  0  0  # atno 8009 bound_to 7997
  156.0944  140.3228  155.7862 H   0  0  0  0  0  0  0  0  0  0  0  0  # atno 8010 bound_to 7997
  139.6435  144.7125  151.2189 H   0  0  0  0  0  0  0  0  0  0  0  0  # atno 10167 bound_to 10162
  156.6972  130.9182  151.3076 H   0  0  0  0  0  0  0  0  0  0  0  0  # atno 10718 bound_to 10713
  154.7914  135.4767  154.0061 H   0  0  0  0  0  0  0  0  0  0  0  0  # atno 10763 bound_to 10752
  153.1636  135.6813  153.8713 H   0  0  0  0  0  0  0  0  0  0  0  0  # atno 10764 bound_to 10752
  153.8319  135.3190  155.3397 H   0  0  0  0  0  0  0  0  0  0  0  0  # atno 10765 bound_to 10752
  139.9239  134.9639  156.8004 H   0  0  0  0  0  0  0  0  0  0  0  0  # atno 11005 bound_to 11000
  145.8911  140.9303  143.0552 LP  0  0  0  0  0  0  0  0  0  0  0  0  # atno 17320 bound_to 7965
  144.6730  140.0907  143.7465 LP  0  0  0  0  0  0  0  0  0  0  0  0  # atno 17321 bound_to 7965
  140.7503  143.6271  150.8458 LP  0  0  0  0  0  0  0  0  0  0  0  0  # atno 17342 bound_to 10162
  139.9911  143.5846  152.2910 LP  0  0  0  0  0  0  0  0  0  0  0  0  # atno 17343 bound_to 10162
  157.6987  130.9309  150.0720 LP  0  0  0  0  0  0  0  0  0  0  0  0  # atno 17370 bound_to 10713
  156.1755  130.3648  149.9106 LP  0  0  0  0  0  0  0  0  0  0  0  0  # atno 17371 bound_to 10713
  140.6394  133.9832  155.7700 LP  0  0  0  0  0  0  0  0  0  0  0  0  # atno 17394 bound_to 11000
  141.0781  134.0104  157.3427 LP  0  0  0  0  0  0  0  0  0  0  0  0  # atno 17395 bound_to 11000

$$$$
