AV-unprocessed.smi:2725|AV-procd|sdf|10515|dock5
  -GOLD-   2272014553D 1   1.00000     0.00000
 Structure written by MMmdl.
 44 45  0  0  0  0  0  0  0  0  1 V2000
  152.7023  139.8254  156.5065 O   0  0  0  0  0  0  0  0  0  0  0  0
  151.8032  139.8356  157.3479 C   0  0  0  0  0  0  0  0  0  0  0  0
  151.7364  140.9344  158.4129 C   0  0  0  0  0  0  0  0  0  0  0  0
  153.0381  141.0806  159.2246 C   0  0  0  0  0  0  0  0  0  0  0  0
  153.1013  142.3900  160.0307 C   0  0  0  0  0  0  0  0  0  0  0  0
  152.8160  142.2290  161.5275 C   0  0  0  0  0  0  0  0  0  0  0  0
  152.4120  143.6255  162.0145 C   0  0  0  0  0  0  0  0  0  0  0  0
  151.9669  144.4059  160.7681 C   0  0  0  0  0  0  0  0  0  0  0  0
  152.0645  143.4271  159.5937 C   0  0  0  0  0  0  0  0  0  0  0  0
  150.8355  138.9079  157.4004 N   0  0  0  0  0  0  0  0  0  0  0  0
  150.7026  137.7690  156.4918 C   0  0  2  0  0  0  0  0  0  0  0  0
  151.8258  136.7540  156.7846 C   0  0  0  0  0  0  0  0  0  0  0  0
  151.6049  135.5549  156.0721 O   0  0  0  0  0  0  0  0  0  0  0  0
  150.7141  138.2360  155.0146 C   0  0  0  0  0  0  0  0  0  0  0  0
  149.7827  139.4000  154.7075 C   0  0  0  0  0  0  0  0  0  0  0  0
  148.5186  139.1759  154.1199 C   0  0  0  0  0  0  0  0  0  0  0  0
  147.6898  140.2850  153.8638 C   0  0  0  0  0  0  0  0  0  0  0  0
  148.1552  141.5709  154.1998 C   0  0  0  0  0  0  0  0  0  0  0  0
  149.4342  141.6904  154.7790 C   0  0  0  0  0  0  0  0  0  0  0  0
  150.2358  140.6329  155.0304 N   0  0  0  0  0  0  0  0  0  0  0  0
  151.4952  141.8744  157.9160 H   0  0  0  0  0  0  0  0  0  0  0  0
  150.9096  140.7162  159.0908 H   0  0  0  0  0  0  0  0  0  0  0  0
  153.1257  140.2400  159.9146 H   0  0  0  0  0  0  0  0  0  0  0  0
  153.9014  141.0208  158.5596 H   0  0  0  0  0  0  0  0  0  0  0  0
  154.0911  142.8341  159.9129 H   0  0  0  0  0  0  0  0  0  0  0  0
  151.9824  141.5403  161.6742 H   0  0  0  0  0  0  0  0  0  0  0  0
  153.6704  141.8319  162.0761 H   0  0  0  0  0  0  0  0  0  0  0  0
  151.6201  143.5680  162.7619 H   0  0  0  0  0  0  0  0  0  0  0  0
  153.2629  144.1248  162.4793 H   0  0  0  0  0  0  0  0  0  0  0  0
  150.9583  144.8070  160.8733 H   0  0  0  0  0  0  0  0  0  0  0  0
  152.6379  145.2502  160.6054 H   0  0  0  0  0  0  0  0  0  0  0  0
  152.3352  143.9227  158.6609 H   0  0  0  0  0  0  0  0  0  0  0  0
  151.0973  142.9454  159.4427 H   0  0  0  0  0  0  0  0  0  0  0  0
  150.1350  138.9963  158.1223 H   0  0  0  0  0  0  0  0  0  0  0  0
  149.7459  137.2717  156.6647 H   0  0  0  0  0  0  0  0  0  0  0  0
  152.7875  137.1468  156.4533 H   0  0  0  0  0  0  0  0  0  0  0  0
  151.9186  136.5469  157.8515 H   0  0  0  0  0  0  0  0  0  0  0  0
  150.7483  135.2251  156.2972 H   0  0  0  0  0  0  0  0  0  0  0  0
  151.7285  138.5006  154.7130 H   0  0  0  0  0  0  0  0  0  0  0  0
  150.4335  137.3996  154.3730 H   0  0  0  0  0  0  0  0  0  0  0  0
  148.1884  138.1766  153.8762 H   0  0  0  0  0  0  0  0  0  0  0  0
  146.7152  140.1515  153.4181 H   0  0  0  0  0  0  0  0  0  0  0  0
  147.5474  142.4448  154.0175 H   0  0  0  0  0  0  0  0  0  0  0  0
  149.8240  142.6609  155.0485 H   0  0  0  0  0  0  0  0  0  0  0  0
  1  2  2  0  0  0  0
  2  3  1  0  0  0  0
  2 10  1  0  0  0  0
  3  4  1  0  0  0  0
  3 21  1  0  0  0  0
  3 22  1  0  0  0  0
  4  5  1  0  0  0  0
  4 23  1  0  0  0  0
  4 24  1  0  0  0  0
  5  9  1  0  0  0  0
  5  6  1  0  0  0  0
  5 25  1  0  0  0  0
  6  7  1  0  0  0  0
  6 26  1  0  0  0  0
  6 27  1  0  0  0  0
  7  8  1  0  0  0  0
  7 28  1  0  0  0  0
  7 29  1  0  0  0  0
  8  9  1  0  0  0  0
  8 30  1  0  0  0  0
  8 31  1  0  0  0  0
  9 32  1  0  0  0  0
  9 33  1  0  0  0  0
 10 11  1  0  0  0  0
 10 34  1  0  0  0  0
 11 12  1  0  0  0  0
 11 14  1  0  0  0  0
 11 35  1  0  0  0  0
 12 13  1  0  0  0  0
 12 36  1  0  0  0  0
 12 37  1  0  0  0  0
 13 38  1  0  0  0  0
 14 15  1  0  0  0  0
 14 39  1  0  0  0  0
 14 40  1  0  0  0  0
 15 20  1  0  0  0  0
 15 16  2  0  0  0  0
 16 17  1  0  0  0  0
 16 41  1  0  0  0  0
 17 18  2  0  0  0  0
 17 42  1  0  0  0  0
 18 19  1  0  0  0  0
 18 43  1  0  0  0  0
 19 20  2  0  0  0  0
 19 44  1  0  0  0  0
M  END
> <s_m_source_file>
AV-unprocessed.smi

> <i_m_source_file_index>
2725

> <i_lp_mmshare_version>
43012

> <i_f3d_flags>
0

> <s_epik_input>
W0NIMl0xW0NIMl1bQ0gyXVtDSDJdW0NIXTFbQ0gyXVtDSDJdQyg9TylbTkhdW0NASF0oW0NIMl1bT0hdKVtDSDJdYzJbY0hdW2NIXVtjSF1bY0hdbjI=

> <s_epik_cmdline>
J2VwaWtfcHl0aG9uJywgJy1waCcsICc3LjAnLCAnLXRuJywgJzgnLCAnLW1hJywgJzIwMCcsICctbWV0YWxfYmluZGluZycsICctaW1hZScsICc8aW5maWxlLm1hZT4nLCAnLW9tYWUnLCAnPG91dGZpbGUubWFlPic=

> <r_epik_Ionization_Penalty>
0.0257016

> <r_epik_Ionization_Penalty_Charging>
0

> <r_epik_Ionization_Penalty_Neutral>
0.0257016

> <r_epik_State_Penalty>
0.0209381

> <r_epik_Charging_Adjusted_Penalty>
0.0209381

> <i_epik_Tot_Q>
0

> <i_epik_Tot_abs_Q>
0

> <r_epik_Metal_State_Penalty>
0.0200649

> <b_epik_Metal_Only>
0

> <s_lp_Force_Field>
OPLS_2005

> <r_lp_Energy>
24.7076

> <b_lp_Chiralities_Consistent>
1

> <s_lp_Variant>
AV-unprocessed.smi:2725-1

> <Gold.Version>
5.8.1

> <Gold.Id.Protein>
6NUR|6NUR_protein|mol2

> <Gold.PLP.Fitness>
53.1995

> <Gold.PLP.PLP>
-43.6882

> <Gold.PLP.part.hbond>
-3.0000

> <Gold.PLP.part.metal>
0.0000

> <Gold.PLP.part.buried>
-1.5190

> <Gold.PLP.part.nonpolar>
-36.5676

> <Gold.PLP.part.repulsive>
0.1052

> <Gold.PLP.ligand.clash>
0.0000

> <Gold.PLP.ligand.torsion>
1.1557

> <Gold.PLP.Chemscore.Hbond>
2.8960

> <Gold.PLP.Chemscore.CHOScore>
1.0000

> <Gold.PLP.Chemscore.Metal>
0.0000

> <Gold.Chemscore.Hbonds>
donor molecule, donor type, donor heavy atom, donor atom, acceptor molecule, acceptor atom, score
      P1  H  7989  7998       L1    20  0.71
      P1  H  7997  8010       L1     1  1.00
      P1  H 10752 10763       L1    13  1.00
      L1  C    19    44       P1  8028  1.00

> <Gold.PLP.Chemscore.Internal.Correction>
0.1347

> <Gold.Rescore>
     Score         DG    S(hbond)    S(metal)    S(lipo)     H(rot)  DE(clash)    DE(int)     intcor
     16.60     -19.45       1.68        0.00     124.90       2.44       0.48       2.37       ----

> <Gold.Chemscore.Fitness>
16.5953

> <Gold.Chemscore.DG>
-19.4463

> <Gold.Chemscore.ZeroCoef>
-5.4800

> <Gold.Chemscore.Hbond>
1.6777

> <Gold.Chemscore.Metal>
0.0000

> <Gold.Chemscore.Lipo>
124.8994

> <Gold.Chemscore.Internal_Hbond>
0.0000

> <Gold.Chemscore.DEClash>
0.4850

> <Gold.Chemscore.DEInternal>
2.3660

> <Gold.Chemscore.Rot>
2.4416

> <Gold.Chemscore.Internal.Correction>
   9.000000E+99

> <Gold.Chemscore.Hbonds>
donor molecule, donor type, donor heavy atom, donor atom, acceptor molecule, acceptor atom, score
      P1  H  7989  7998       L1    20  0.03
      P1  H  7997  8010       L1     1  1.00
      P1  H 10752 10763       L1    13  0.43

> <Gold.Chemscore.Hbond.Weighted>
-5.6036

> <Gold.Chemscore.Metal.Weighted>
-0.0000

> <Gold.Chemscore.Lipo.Weighted>
-14.6132

> <Gold.Chemscore.Internal_Hbond.Weighted>
0.0000

> <Gold.Chemscore.DEClash.Weighted>
0.4850

> <Gold.Chemscore.DEInternal.Weighted>
2.3660

> <Gold.Chemscore.Rot.Weighted>
6.2505

> <Gold.Chemscore.Internal.Correction.Weighted>
   9.000000E+99

> <Gold.Protein.RotatedTorsions>
[ 6907 6896 6895 6894 ] final  171.19 input  -60.11 | X-H torsion
[ 7974 7965 7964 7962 ] final    4.24 input  175.53 | X-H torsion
[ 8008 7997 7996 7995 ] final   66.81 input   59.86 | X-H torsion
[ 10167 10162 10161 10158 ] final   78.67 input  -65.29 | X-H torsion
[ 10718 10713 10712 10709 ] final   46.14 input   66.30 | X-H torsion
[ 10763 10752 10751 10750 ] final   68.53 input  -60.55 | X-H torsion
[ 11005 11000 10999 10996 ] final    0.70 input  -57.11 | X-H torsion

> <Gold.Protein.ActiveResidues>
 VAL166  LYS551  ARG553  GLY616  TRP617  ASP618  TYR619  PRO620  LYS621  CYS622 
 ASP623  PHE694  ASN695  SER759  ASP760  ASP761  ALA762  ILE779  LEU786  VAL792 
 PHE793  MET794  SER795  GLU796  ALA797  LYS798  CYS799  TRP800  GLU811  SER814 

> <Gold.Protein.RotatedAtoms>
  151.8041  133.3373  159.3535 H   0  0  0  0  0  0  0  0  0  0  0  0  # atno 6907 bound_to 6896
  150.7348  134.5726  159.5907 H   0  0  0  0  0  0  0  0  0  0  0  0  # atno 6908 bound_to 6896
  152.3122  134.7485  160.0385 H   0  0  0  0  0  0  0  0  0  0  0  0  # atno 6909 bound_to 6896
  146.2444  140.0564  142.8371 H   0  0  0  0  0  0  0  0  0  0  0  0  # atno 7974 bound_to 7965
  155.6832  140.3496  155.4863 H   0  0  0  0  0  0  0  0  0  0  0  0  # atno 8008 bound_to 7997
  155.9589  140.1133  157.0935 H   0  0  0  0  0  0  0  0  0  0  0  0  # atno 8009 bound_to 7997
  154.4138  140.1179  156.5138 H   0  0  0  0  0  0  0  0  0  0  0  0  # atno 8010 bound_to 7997
  139.9685  144.5911  150.8007 H   0  0  0  0  0  0  0  0  0  0  0  0  # atno 10167 bound_to 10162
  157.4450  130.8104  149.7731 H   0  0  0  0  0  0  0  0  0  0  0  0  # atno 10718 bound_to 10713
  153.0240  135.5244  154.7148 H   0  0  0  0  0  0  0  0  0  0  0  0  # atno 10763 bound_to 10752
  154.6220  135.2890  155.0317 H   0  0  0  0  0  0  0  0  0  0  0  0  # atno 10764 bound_to 10752
  154.1300  135.6594  153.4972 H   0  0  0  0  0  0  0  0  0  0  0  0  # atno 10765 bound_to 10752
  140.6237  133.9638  155.8238 H   0  0  0  0  0  0  0  0  0  0  0  0  # atno 11005 bound_to 11000
  145.0939  140.9302  143.4753 LP  0  0  0  0  0  0  0  0  0  0  0  0  # atno 17320 bound_to 7965
  145.0742  139.3008  143.5816 LP  0  0  0  0  0  0  0  0  0  0  0  0  # atno 17321 bound_to 7965
  140.7530  143.3000  151.3104 LP  0  0  0  0  0  0  0  0  0  0  0  0  # atno 17342 bound_to 10162
  139.6499  144.0381  152.2619 LP  0  0  0  0  0  0  0  0  0  0  0  0  # atno 17343 bound_to 10162
  155.9964  130.3906  150.2782 LP  0  0  0  0  0  0  0  0  0  0  0  0  # atno 17370 bound_to 10713
  157.0949  131.0180  151.3107 LP  0  0  0  0  0  0  0  0  0  0  0  0  # atno 17371 bound_to 10713
  141.0725  134.0185  157.3506 LP  0  0  0  0  0  0  0  0  0  0  0  0  # atno 17394 bound_to 11000
  139.9143  135.0195  156.7820 LP  0  0  0  0  0  0  0  0  0  0  0  0  # atno 17395 bound_to 11000

$$$$
