AV-unprocessed.smi:2979|AV-procd|sdf|11370|dock5
  -GOLD-   2272016283D 1   1.00000     0.00000
 Structure written by MMmdl.
 35 36  0  0  0  0  0  0  0  0  1 V2000
  152.5099  137.5783  159.7916 C   0  0  0  0  0  0  0  0  0  0  0  0
  151.7790  137.5136  158.5801 O   0  0  0  0  0  0  0  0  0  0  0  0
  151.2940  138.7819  158.1693 C   0  0  0  0  0  0  0  0  0  0  0  0
  152.4488  139.7931  158.1337 C   0  0  0  0  0  0  0  0  0  0  0  0
  151.9885  141.1748  158.1943 N   0  0  0  0  0  0  0  0  0  0  0  0
  151.3135  141.8884  157.2556 C   0  0  0  0  0  0  0  0  0  0  0  0
  150.8857  141.3104  155.9391 C   0  0  0  0  0  0  0  0  0  0  0  0
  149.3725  141.4373  155.7037 C   0  0  0  0  0  0  0  0  0  0  0  0
  148.8973  140.6147  154.4994 C   0  0  0  0  0  0  0  0  0  0  0  0
  149.5077  141.0937  153.3208 O   0  0  0  0  0  0  0  0  0  0  0  0
  151.0356  143.1522  157.5782 N   0  0  0  0  0  0  0  0  0  0  0  0
  151.5655  143.2676  158.8477 C   0  0  0  0  0  0  0  0  0  0  0  0
  151.5890  144.3672  159.7353 C   0  0  0  0  0  0  0  0  0  0  0  0
  152.1942  144.2482  161.0033 C   0  0  0  0  0  0  0  0  0  0  0  0
  152.7826  143.0304  161.4012 C   0  0  0  0  0  0  0  0  0  0  0  0
  152.7711  141.9232  160.5314 C   0  0  0  0  0  0  0  0  0  0  0  0
  152.1670  142.0470  159.2653 C   0  0  0  0  0  0  0  0  0  0  0  0
  152.8528  136.5806  160.0656 H   0  0  0  0  0  0  0  0  0  0  0  0
  151.8917  137.9584  160.6058 H   0  0  0  0  0  0  0  0  0  0  0  0
  153.3868  138.2188  159.6882 H   0  0  0  0  0  0  0  0  0  0  0  0
  150.8406  138.7050  157.1801 H   0  0  0  0  0  0  0  0  0  0  0  0
  150.5155  139.1243  158.8507 H   0  0  0  0  0  0  0  0  0  0  0  0
  153.1126  139.6123  158.9793 H   0  0  0  0  0  0  0  0  0  0  0  0
  153.0611  139.6539  157.2431 H   0  0  0  0  0  0  0  0  0  0  0  0
  151.4235  141.8318  155.1464 H   0  0  0  0  0  0  0  0  0  0  0  0
  151.1869  140.2670  155.8648 H   0  0  0  0  0  0  0  0  0  0  0  0
  148.8334  141.1170  156.5957 H   0  0  0  0  0  0  0  0  0  0  0  0
  149.1157  142.4868  155.5532 H   0  0  0  0  0  0  0  0  0  0  0  0
  149.1498  139.5619  154.6282 H   0  0  0  0  0  0  0  0  0  0  0  0
  147.8145  140.6819  154.3902 H   0  0  0  0  0  0  0  0  0  0  0  0
  149.4840  140.4091  152.6699 H   0  0  0  0  0  0  0  0  0  0  0  0
  151.1390  145.3035  159.4399 H   0  0  0  0  0  0  0  0  0  0  0  0
  152.2057  145.0946  161.6742 H   0  0  0  0  0  0  0  0  0  0  0  0
  153.2423  142.9465  162.3752 H   0  0  0  0  0  0  0  0  0  0  0  0
  153.2189  140.9893  160.8366 H   0  0  0  0  0  0  0  0  0  0  0  0
  1  2  1  0  0  0  0
  1 18  1  0  0  0  0
  1 19  1  0  0  0  0
  1 20  1  0  0  0  0
  2  3  1  0  0  0  0
  3  4  1  0  0  0  0
  3 21  1  0  0  0  0
  3 22  1  0  0  0  0
  4  5  1  0  0  0  0
  4 23  1  0  0  0  0
  4 24  1  0  0  0  0
  5 17  1  0  0  0  0
  5  6  1  0  0  0  0
  6  7  1  0  0  0  0
  6 11  2  0  0  0  0
  7  8  1  0  0  0  0
  7 25  1  0  0  0  0
  7 26  1  0  0  0  0
  8  9  1  0  0  0  0
  8 27  1  0  0  0  0
  8 28  1  0  0  0  0
  9 10  1  0  0  0  0
  9 29  1  0  0  0  0
  9 30  1  0  0  0  0
 10 31  1  0  0  0  0
 11 12  1  0  0  0  0
 12 17  2  0  0  0  0
 12 13  1  0  0  0  0
 13 14  2  0  0  0  0
 13 32  1  0  0  0  0
 14 15  1  0  0  0  0
 14 33  1  0  0  0  0
 15 16  2  0  0  0  0
 15 34  1  0  0  0  0
 16 17  1  0  0  0  0
 16 35  1  0  0  0  0
M  END
> <s_m_source_file>
AV-unprocessed.smi

> <i_m_source_file_index>
2979

> <i_lp_mmshare_version>
43012

> <i_f3d_flags>
0

> <s_epik_input>
W2NIXTFbY0hdW2NIXVtjSF1jKGMxMiluKFtDSDJdW0NIMl1PW0NIM10pYyhuMilbQ0gyXVtDSDJdW0NIMl1bT0hd

> <s_epik_cmdline>
J2VwaWtfcHl0aG9uJywgJy1waCcsICc3LjAnLCAnLXRuJywgJzgnLCAnLW1hJywgJzIwMCcsICctbWV0YWxfYmluZGluZycsICctaW1hZScsICc8aW5maWxlLm1hZT4nLCAnLW9tYWUnLCAnPG91dGZpbGUubWFlPic=

> <r_epik_Ionization_Penalty>
0.183246

> <r_epik_Ionization_Penalty_Charging>
0

> <r_epik_Ionization_Penalty_Neutral>
0.183246

> <r_epik_State_Penalty>
0.172781

> <r_epik_Charging_Adjusted_Penalty>
0.172781

> <i_epik_Tot_Q>
0

> <i_epik_Tot_abs_Q>
0

> <r_epik_Metal_State_Penalty>
0.000200578

> <b_epik_Metal_Only>
0

> <s_lp_Force_Field>
OPLS_2005

> <r_lp_Energy>
6.05289

> <b_lp_Chiralities_Consistent>
1

> <s_lp_Variant>
AV-unprocessed.smi:2979-1

> <Gold.Version>
5.8.1

> <Gold.Id.Protein>
6NUR|6NUR_protein|mol2

> <Gold.PLP.Fitness>
45.8385

> <Gold.PLP.PLP>
-40.3270

> <Gold.PLP.part.hbond>
-2.5660

> <Gold.PLP.part.metal>
0.0000

> <Gold.PLP.part.buried>
-5.6289

> <Gold.PLP.part.nonpolar>
-31.6902

> <Gold.PLP.part.repulsive>
0.1335

> <Gold.PLP.ligand.clash>
0.0000

> <Gold.PLP.ligand.torsion>
0.2427

> <Gold.PLP.Chemscore.Hbond>
1.9821

> <Gold.PLP.Chemscore.CHOScore>
0.0000

> <Gold.PLP.Chemscore.Metal>
0.0000

> <Gold.Chemscore.Hbonds>
donor molecule, donor type, donor heavy atom, donor atom, acceptor molecule, acceptor atom, score
      L1  H    10    31       P1  7957  0.93
      P1  H  7989  7998       L1    10  0.07
      P1  H  8011  8017       L1    10  0.95

> <Gold.PLP.Chemscore.Internal.Correction>
0.0507

> <Gold.Rescore>
     Score         DG    S(hbond)    S(metal)    S(lipo)     H(rot)  DE(clash)    DE(int)     intcor
     15.74     -16.05       1.45        0.00     102.62       2.45       0.10       0.21       ----

> <Gold.Chemscore.Fitness>
15.7405

> <Gold.Chemscore.DG>
-16.0510

> <Gold.Chemscore.ZeroCoef>
-5.4800

> <Gold.Chemscore.Hbond>
1.4462

> <Gold.Chemscore.Metal>
0.0000

> <Gold.Chemscore.Lipo>
102.6158

> <Gold.Chemscore.Internal_Hbond>
0.0000

> <Gold.Chemscore.DEClash>
0.0994

> <Gold.Chemscore.DEInternal>
0.2111

> <Gold.Chemscore.Rot>
2.4474

> <Gold.Chemscore.Internal.Correction>
   9.000000E+99

> <Gold.Chemscore.Hbonds>
donor molecule, donor type, donor heavy atom, donor atom, acceptor molecule, acceptor atom, score
      L1  H    10    31       P1  7957  0.86
      P1  H  8011  8017       L1    10  0.21

> <Gold.Chemscore.Hbond.Weighted>
-4.8303

> <Gold.Chemscore.Metal.Weighted>
-0.0000

> <Gold.Chemscore.Lipo.Weighted>
-12.0060

> <Gold.Chemscore.Internal_Hbond.Weighted>
0.0000

> <Gold.Chemscore.DEClash.Weighted>
0.0994

> <Gold.Chemscore.DEInternal.Weighted>
0.2111

> <Gold.Chemscore.Rot.Weighted>
6.2654

> <Gold.Chemscore.Internal.Correction.Weighted>
   9.000000E+99

> <Gold.Protein.RotatedTorsions>
[ 6907 6896 6895 6894 ] final   66.51 input  -60.11 | X-H torsion
[ 7974 7965 7964 7962 ] final  -41.06 input  175.53 | X-H torsion
[ 8008 7997 7996 7995 ] final  -90.27 input   59.86 | X-H torsion
[ 10167 10162 10161 10158 ] final -143.68 input  -65.29 | X-H torsion
[ 10718 10713 10712 10709 ] final   30.65 input   66.30 | X-H torsion
[ 10763 10752 10751 10750 ] final  154.78 input  -60.55 | X-H torsion
[ 11005 11000 10999 10996 ] final   90.79 input  -57.11 | X-H torsion

> <Gold.Protein.ActiveResidues>
 VAL166  LYS551  ARG553  GLY616  TRP617  ASP618  TYR619  PRO620  LYS621  CYS622 
 ASP623  PHE694  ASN695  SER759  ASP760  ASP761  ALA762  ILE779  LEU786  VAL792 
 PHE793  MET794  SER795  GLU796  ALA797  LYS798  CYS799  TRP800  GLU811  SER814 

> <Gold.Protein.RotatedAtoms>
  152.4486  134.5442  159.9847 H   0  0  0  0  0  0  0  0  0  0  0  0  # atno 6907 bound_to 6896
  151.5520  133.3410  159.2963 H   0  0  0  0  0  0  0  0  0  0  0  0  # atno 6908 bound_to 6896
  150.8409  134.7732  159.6994 H   0  0  0  0  0  0  0  0  0  0  0  0  # atno 6909 bound_to 6896
  146.0247  140.6807  142.9161 H   0  0  0  0  0  0  0  0  0  0  0  0  # atno 7974 bound_to 7965
  154.6966  140.0532  157.0416 H   0  0  0  0  0  0  0  0  0  0  0  0  # atno 8008 bound_to 7997
  155.0743  140.3203  155.4602 H   0  0  0  0  0  0  0  0  0  0  0  0  # atno 8009 bound_to 7997
  156.2746  140.2076  156.5871 H   0  0  0  0  0  0  0  0  0  0  0  0  # atno 8010 bound_to 7997
  139.7971  143.7885  152.2655 H   0  0  0  0  0  0  0  0  0  0  0  0  # atno 10167 bound_to 10162
  157.2624  130.7167  149.6460 H   0  0  0  0  0  0  0  0  0  0  0  0  # atno 10718 bound_to 10713
  154.1579  135.2811  155.3117 H   0  0  0  0  0  0  0  0  0  0  0  0  # atno 10763 bound_to 10752
  154.6169  135.5480  153.7536 H   0  0  0  0  0  0  0  0  0  0  0  0  # atno 10764 bound_to 10752
  153.0201  135.6429  154.1721 H   0  0  0  0  0  0  0  0  0  0  0  0  # atno 10765 bound_to 10752
  139.8850  134.8635  156.3335 H   0  0  0  0  0  0  0  0  0  0  0  0  # atno 11005 bound_to 11000
  144.7004  140.3628  143.7160 LP  0  0  0  0  0  0  0  0  0  0  0  0  # atno 17320 bound_to 7965
  145.7137  139.1691  143.2524 LP  0  0  0  0  0  0  0  0  0  0  0  0  # atno 17321 bound_to 7965
  139.7994  144.7380  150.9845 LP  0  0  0  0  0  0  0  0  0  0  0  0  # atno 17342 bound_to 10162
  140.7820  143.4360  151.0622 LP  0  0  0  0  0  0  0  0  0  0  0  0  # atno 17343 bound_to 10162
  155.9664  130.4393  150.5254 LP  0  0  0  0  0  0  0  0  0  0  0  0  # atno 17370 bound_to 10713
  157.3161  131.0673  151.1966 LP  0  0  0  0  0  0  0  0  0  0  0  0  # atno 17371 bound_to 10713
  140.9707  133.7329  156.0530 LP  0  0  0  0  0  0  0  0  0  0  0  0  # atno 17394 bound_to 11000
  140.7874  134.3656  157.5473 LP  0  0  0  0  0  0  0  0  0  0  0  0  # atno 17395 bound_to 11000

$$$$
