AV-unprocessed.smi:83|AV-procd|sdf|802|dock9
  -GOLD-   2262017193D 1   1.00000     0.00000
 Structure written by MMmdl.
 56 59  0  0  0  0  0  0  0  0  1 V2000
  144.6424  132.0109  151.4870 C   0  0  0  0  0  0  0  0  0  0  0  0
  145.1373  133.3288  150.8893 C   0  0  0  0  0  0  0  0  0  0  0  0
  146.0138  133.2994  150.0259 O   0  0  0  0  0  0  0  0  0  0  0  0
  144.5931  134.4808  151.3312 N   0  0  0  0  0  0  0  0  0  0  0  0
  143.5481  134.5493  152.3492 C   0  0  0  0  0  0  0  0  0  0  0  0
  143.1942  136.0347  152.4722 C   0  0  0  0  0  0  0  0  0  0  0  0
  144.4568  136.7659  152.0176 C   0  0  1  0  0  0  0  0  0  0  0  0
  145.4191  136.9616  153.2151 C   0  0  0  0  0  0  0  0  0  0  0  0
  146.0203  138.2942  153.2931 N   0  0  0  0  0  0  0  0  0  0  0  0
  146.3714  138.9380  152.0282 C   0  0  0  0  0  0  0  0  0  0  0  0
  146.5783  138.7646  154.4501 C   0  0  0  0  0  0  0  0  0  0  0  0
  145.7678  138.9157  155.5338 N   0  0  0  0  0  0  0  0  0  0  0  0
  146.2330  139.4118  156.6823 C   0  0  0  0  0  0  0  0  0  0  0  0
  147.4662  139.8234  156.9712 N   0  0  0  0  0  0  0  0  0  0  0  0
  148.2982  139.6657  155.9046 C   0  0  0  0  0  0  0  0  0  0  0  0
  147.9491  139.1417  154.6237 C   0  0  0  0  0  0  0  0  0  0  0  0
  149.0835  139.1331  153.8170 N   0  0  0  0  0  0  0  0  0  0  0  0
  150.0275  139.6417  154.5575 C   0  0  0  0  0  0  0  0  0  0  0  0
  149.6401  139.9946  155.8266 N   0  0  0  0  0  0  0  0  0  0  0  0
  150.4809  140.5914  156.8490 C   0  0  0  0  0  0  0  0  0  0  0  0
  150.8647  142.0453  156.5113 C   0  0  1  0  0  0  0  0  0  0  0  0
  149.8152  142.6439  155.7755 O   0  0  0  0  0  0  0  0  0  0  0  0
  151.1288  142.8878  157.7723 C   0  0  2  0  0  0  0  0  0  0  0  0
  151.6113  144.3129  157.4942 C   0  0  0  0  0  0  0  0  0  0  0  0
  152.3950  144.6801  158.7449 C   0  0  0  0  0  0  0  0  0  0  0  0
  152.6198  143.3405  159.4508 C   0  0  0  0  0  0  0  0  0  0  0  0
  152.2181  142.3550  158.5101 O   0  0  0  0  0  0  0  0  0  0  0  0
  144.9802  135.8276  150.9185 C   0  0  0  0  0  0  0  0  0  0  0  0
  144.7525  132.0125  152.5717 H   0  0  0  0  0  0  0  0  0  0  0  0
  145.2118  131.1694  151.0911 H   0  0  0  0  0  0  0  0  0  0  0  0
  143.5932  131.8482  151.2426 H   0  0  0  0  0  0  0  0  0  0  0  0
  142.6768  133.9513  152.0790 H   0  0  0  0  0  0  0  0  0  0  0  0
  143.9429  134.1688  153.2926 H   0  0  0  0  0  0  0  0  0  0  0  0
  142.3754  136.2685  151.7903 H   0  0  0  0  0  0  0  0  0  0  0  0
  142.8703  136.3094  153.4767 H   0  0  0  0  0  0  0  0  0  0  0  0
  144.2057  137.7418  151.6000 H   0  0  0  0  0  0  0  0  0  0  0  0
  144.8459  136.8223  154.1323 H   0  0  0  0  0  0  0  0  0  0  0  0
  146.1577  136.1688  153.2549 H   0  0  0  0  0  0  0  0  0  0  0  0
  146.1710  140.0092  152.0689 H   0  0  0  0  0  0  0  0  0  0  0  0
  145.7895  138.5261  151.2033 H   0  0  0  0  0  0  0  0  0  0  0  0
  147.4271  138.7882  151.7993 H   0  0  0  0  0  0  0  0  0  0  0  0
  145.5116  139.4972  157.4816 H   0  0  0  0  0  0  0  0  0  0  0  0
  151.0353  139.7801  154.1936 H   0  0  0  0  0  0  0  0  0  0  0  0
  149.9647  140.5396  157.8087 H   0  0  0  0  0  0  0  0  0  0  0  0
  151.3768  139.9770  156.9457 H   0  0  0  0  0  0  0  0  0  0  0  0
  151.7583  142.0457  155.8854 H   0  0  0  0  0  0  0  0  0  0  0  0
  149.6787  143.5187  156.1061 H   0  0  0  0  0  0  0  0  0  0  0  0
  150.2443  142.9104  158.4123 H   0  0  0  0  0  0  0  0  0  0  0  0
  152.2783  144.3237  156.6310 H   0  0  0  0  0  0  0  0  0  0  0  0
  150.7905  145.0016  157.2920 H   0  0  0  0  0  0  0  0  0  0  0  0
  153.3375  145.1627  158.4845 H   0  0  0  0  0  0  0  0  0  0  0  0
  151.8334  145.3622  159.3841 H   0  0  0  0  0  0  0  0  0  0  0  0
  153.6568  143.1945  159.7534 H   0  0  0  0  0  0  0  0  0  0  0  0
  151.9913  143.2651  160.3394 H   0  0  0  0  0  0  0  0  0  0  0  0
  146.0467  135.9371  150.7385 H   0  0  0  0  0  0  0  0  0  0  0  0
  144.4782  136.0463  149.9749 H   0  0  0  0  0  0  0  0  0  0  0  0
  1  2  1  0  0  0  0
  1 29  1  0  0  0  0
  1 30  1  0  0  0  0
  1 31  1  0  0  0  0
  2  3  2  0  0  0  0
  2  4  1  0  0  0  0
  4 28  1  0  0  0  0
  4  5  1  0  0  0  0
  5  6  1  0  0  0  0
  5 32  1  0  0  0  0
  5 33  1  0  0  0  0
  6  7  1  0  0  0  0
  6 34  1  0  0  0  0
  6 35  1  0  0  0  0
  7  8  1  0  0  0  0
  7 28  1  0  0  0  0
  7 36  1  0  0  0  0
  8  9  1  0  0  0  0
  8 37  1  0  0  0  0
  8 38  1  0  0  0  0
  9 10  1  0  0  0  0
  9 11  1  0  0  0  0
 10 39  1  0  0  0  0
 10 40  1  0  0  0  0
 10 41  1  0  0  0  0
 11 16  1  0  0  0  0
 11 12  2  0  0  0  0
 12 13  1  0  0  0  0
 13 14  2  0  0  0  0
 13 42  1  0  0  0  0
 14 15  1  0  0  0  0
 15 19  1  0  0  0  0
 15 16  2  0  0  0  0
 16 17  1  0  0  0  0
 17 18  2  0  0  0  0
 18 19  1  0  0  0  0
 18 43  1  0  0  0  0
 19 20  1  0  0  0  0
 20 21  1  0  0  0  0
 20 44  1  0  0  0  0
 20 45  1  0  0  0  0
 21 22  1  0  0  0  0
 21 23  1  0  0  0  0
 21 46  1  0  0  0  0
 22 47  1  0  0  0  0
 23 27  1  0  0  0  0
 23 24  1  0  0  0  0
 23 48  1  0  0  0  0
 24 25  1  0  0  0  0
 24 49  1  0  0  0  0
 24 50  1  0  0  0  0
 25 26  1  0  0  0  0
 25 51  1  0  0  0  0
 25 52  1  0  0  0  0
 26 27  1  0  0  0  0
 26 53  1  0  0  0  0
 26 54  1  0  0  0  0
 28 55  1  0  0  0  0
 28 56  1  0  0  0  0
M  END
> <s_m_source_file>
AV-unprocessed.smi

> <i_m_source_file_index>
83

> <i_lp_mmshare_version>
43012

> <i_f3d_flags>
0

> <s_epik_input>
W0NIM11DKD1PKU4xW0NIMl1bQ0gyXVtDQEhdKFtDSDJdMSlbQ0gyXU4oW0NIM10pYyhuW2NIXW4yKWMoYzIzKW5bY0hdbjNbQ0gyXVtDQEhdKFtPSF0pW0NAQEhdNFtDSDJdW0NIMl1bQ0gyXU80

> <s_epik_cmdline>
J2VwaWtfcHl0aG9uJywgJy1waCcsICc3LjAnLCAnLXRuJywgJzgnLCAnLW1hJywgJzIwMCcsICctbWV0YWxfYmluZGluZycsICctaW1hZScsICc8aW5maWxlLm1hZT4nLCAnLW9tYWUnLCAnPG91dGZpbGUubWFlPic=

> <r_lp_tautomer_probability>
1

> <r_epik_Ionization_Penalty>
0.00109752

> <r_epik_Ionization_Penalty_Charging>
0

> <r_epik_Ionization_Penalty_Neutral>
0.00109752

> <r_epik_State_Penalty>
0.000634803

> <r_epik_Charging_Adjusted_Penalty>
0.000634803

> <i_epik_Tot_Q>
0

> <i_epik_Tot_abs_Q>
0

> <r_epik_Metal_State_Penalty>
-0

> <b_epik_Metal_Only>
0

> <s_lp_Force_Field>
OPLS_2005

> <r_lp_Energy>
53.2546

> <b_lp_Chiralities_Consistent>
1

> <s_lp_Variant>
AV-unprocessed.smi:83-3

> <Gold.Version>
5.8.1

> <Gold.Id.Protein>
6NUR|6NUR_protein|mol2

> <Gold.PLP.Fitness>
45.7399

> <Gold.PLP.PLP>
-47.6249

> <Gold.PLP.part.hbond>
-0.7159

> <Gold.PLP.part.metal>
0.0000

> <Gold.PLP.part.buried>
-6.0238

> <Gold.PLP.part.nonpolar>
-41.8047

> <Gold.PLP.part.repulsive>
1.5618

> <Gold.PLP.ligand.clash>
0.0000

> <Gold.PLP.ligand.torsion>
2.3382

> <Gold.PLP.Chemscore.Hbond>
0.8000

> <Gold.PLP.Chemscore.CHOScore>
0.0000

> <Gold.PLP.Chemscore.Metal>
0.0000

> <Gold.Chemscore.Hbonds>
donor molecule, donor type, donor heavy atom, donor atom, acceptor molecule, acceptor atom, score
      L1  H    22    47       P1  8028  0.68

> <Gold.PLP.Chemscore.Internal.Correction>
0.3915

> <Gold.Rescore>
     Score         DG    S(hbond)    S(metal)    S(lipo)     H(rot)  DE(clash)    DE(int)     intcor
     11.36     -13.79       0.81        0.00     105.08       2.62       0.21       2.21       ----

> <Gold.Chemscore.Fitness>
11.3646

> <Gold.Chemscore.DG>
-13.7926

> <Gold.Chemscore.ZeroCoef>
-5.4800

> <Gold.Chemscore.Hbond>
0.8123

> <Gold.Chemscore.Metal>
0.0000

> <Gold.Chemscore.Lipo>
105.0800

> <Gold.Chemscore.Internal_Hbond>
0.0000

> <Gold.Chemscore.DEClash>
0.2135

> <Gold.Chemscore.DEInternal>
2.2145

> <Gold.Chemscore.Rot>
2.6152

> <Gold.Chemscore.Internal.Correction>
   9.000000E+99

> <Gold.Chemscore.Hbonds>
donor molecule, donor type, donor heavy atom, donor atom, acceptor molecule, acceptor atom, score
      L1  H    22    47       P1  8028  0.65

> <Gold.Chemscore.Hbond.Weighted>
-2.7131

> <Gold.Chemscore.Metal.Weighted>
-0.0000

> <Gold.Chemscore.Lipo.Weighted>
-12.2944

> <Gold.Chemscore.Internal_Hbond.Weighted>
0.0000

> <Gold.Chemscore.DEClash.Weighted>
0.2135

> <Gold.Chemscore.DEInternal.Weighted>
2.2145

> <Gold.Chemscore.Rot.Weighted>
6.6949

> <Gold.Chemscore.Internal.Correction.Weighted>
   9.000000E+99

> <Gold.Protein.RotatedTorsions>
[ 6907 6896 6895 6894 ] final -109.53 input  -60.11 | X-H torsion
[ 7974 7965 7964 7962 ] final   54.17 input  175.53 | X-H torsion
[ 8008 7997 7996 7995 ] final  -31.59 input   59.86 | X-H torsion
[ 10167 10162 10161 10158 ] final   14.01 input  -65.29 | X-H torsion
[ 10718 10713 10712 10709 ] final   51.50 input   66.30 | X-H torsion
[ 10763 10752 10751 10750 ] final   44.05 input  -60.55 | X-H torsion
[ 11005 11000 10999 10996 ] final   59.32 input  -57.11 | X-H torsion

> <Gold.Protein.ActiveResidues>
 VAL166  LYS551  ARG553  GLY616  TRP617  ASP618  TYR619  PRO620  LYS621  CYS622 
 ASP623  PHE694  ASN695  SER759  ASP760  ASP761  ALA762  ILE779  LEU786  VAL792 
 PHE793  MET794  SER795  GLU796  ALA797  LYS798  CYS799  TRP800  GLU811  SER814 

> <Gold.Protein.RotatedAtoms>
  150.7568  133.9515  159.3487 H   0  0  0  0  0  0  0  0  0  0  0  0  # atno 6907 bound_to 6896
  151.7433  135.0847  160.0328 H   0  0  0  0  0  0  0  0  0  0  0  0  # atno 6908 bound_to 6896
  152.3514  133.6147  159.5983 H   0  0  0  0  0  0  0  0  0  0  0  0  # atno 6909 bound_to 6896
  145.9637  139.4083  143.0233 H   0  0  0  0  0  0  0  0  0  0  0  0  # atno 7974 bound_to 7965
  154.4208  140.1760  156.1591 H   0  0  0  0  0  0  0  0  0  0  0  0  # atno 8008 bound_to 7997
  155.9853  140.3374  155.6677 H   0  0  0  0  0  0  0  0  0  0  0  0  # atno 8009 bound_to 7997
  155.6445  140.0683  157.2598 H   0  0  0  0  0  0  0  0  0  0  0  0  # atno 8010 bound_to 7997
  140.5964  143.8693  150.6922 H   0  0  0  0  0  0  0  0  0  0  0  0  # atno 10167 bound_to 10162
  157.4986  130.8423  149.8289 H   0  0  0  0  0  0  0  0  0  0  0  0  # atno 10718 bound_to 10713
  152.9848  135.6082  154.3210 H   0  0  0  0  0  0  0  0  0  0  0  0  # atno 10763 bound_to 10752
  154.2920  135.2774  155.2652 H   0  0  0  0  0  0  0  0  0  0  0  0  # atno 10764 bound_to 10752
  154.4943  135.5884  153.6539 H   0  0  0  0  0  0  0  0  0  0  0  0  # atno 10765 bound_to 10752
  140.0312  134.6009  155.9504 H   0  0  0  0  0  0  0  0  0  0  0  0  # atno 11005 bound_to 11000
  145.8004  140.9773  143.1001 LP  0  0  0  0  0  0  0  0  0  0  0  0  # atno 17320 bound_to 7965
  144.6820  139.9795  143.7483 LP  0  0  0  0  0  0  0  0  0  0  0  0  # atno 17321 bound_to 7965
  140.2228  143.3796  152.1629 LP  0  0  0  0  0  0  0  0  0  0  0  0  # atno 17342 bound_to 10162
  139.5261  144.7104  151.5224 LP  0  0  0  0  0  0  0  0  0  0  0  0  # atno 17343 bound_to 10162
  156.0216  130.3794  150.1946 LP  0  0  0  0  0  0  0  0  0  0  0  0  # atno 17370 bound_to 10713
  157.0136  130.9958  151.3359 LP  0  0  0  0  0  0  0  0  0  0  0  0  # atno 17371 bound_to 10713
  141.1832  133.6550  156.5107 LP  0  0  0  0  0  0  0  0  0  0  0  0  # atno 17394 bound_to 11000
  140.4222  134.7177  157.4896 LP  0  0  0  0  0  0  0  0  0  0  0  0  # atno 17395 bound_to 11000

$$$$
