AV-unprocessed.smi:3149|AV-procd|sdf|12001|dock5
  -GOLD-   2272017403D 1   1.00000     0.00000
 Structure written by MMmdl.
 38 39  0  0  0  0  0  0  0  0  2 V2000
  151.0790  141.6412  156.2851 C   0  0  0  0  0  0  0  0  0  0  0  0
  150.9770  142.0817  157.7612 C   0  0  2  0  0  0  0  0  0  0  0  0
  149.5770  142.4284  158.0976 N   0  3  0  0  0  0  0  0  0  0  0  0
  148.6454  141.2849  158.1995 C   0  0  0  0  0  0  0  0  0  0  0  0
  147.2071  141.7017  157.8772 C   0  0  0  0  0  0  0  0  0  0  0  0
  146.5134  142.2657  158.7243 O   0  0  0  0  0  0  0  0  0  0  0  0
  146.6920  141.3271  156.6345 N   0  0  0  0  0  0  0  0  0  0  0  0
  145.7593  142.1759  155.9078 C   0  0  0  0  0  0  0  0  0  0  0  0
  146.3669  141.5710  154.6381 C   0  0  0  0  0  0  0  0  0  0  0  0
  147.5649  141.1324  155.4866 C   0  0  0  0  0  0  0  0  0  0  0  0
  151.9071  143.2774  158.1015 C   0  0  1  0  0  0  0  0  0  0  0  0
  151.2689  144.6378  157.7578 C   0  0  0  0  0  0  0  0  0  0  0  0
  152.3359  143.2651  159.4945 N   0  0  0  0  0  0  0  0  0  0  0  0
  153.1172  142.3282  160.1395 C   0  0  0  0  0  0  0  0  0  0  0  0
  153.2506  142.7308  161.4372 C   0  0  0  0  0  0  0  0  0  0  0  0
  152.5101  143.9440  161.4932 C   0  0  0  0  0  0  0  0  0  0  0  0
  151.9648  144.2620  160.3301 N   0  0  0  0  0  0  0  0  0  0  0  0
  152.0862  141.3124  156.0291 H   0  0  0  0  0  0  0  0  0  0  0  0
  150.8160  142.4567  155.6108 H   0  0  0  0  0  0  0  0  0  0  0  0
  150.4185  140.8030  156.0654 H   0  0  0  0  0  0  0  0  0  0  0  0
  151.2760  141.2393  158.3873 H   0  0  0  0  0  0  0  0  0  0  0  0
  149.5837  142.8780  159.0023 H   0  0  0  0  0  0  0  0  0  0  0  0
  148.9584  140.4951  157.5166 H   0  0  0  0  0  0  0  0  0  0  0  0
  148.6711  140.8790  159.2113 H   0  0  0  0  0  0  0  0  0  0  0  0
  144.7101  141.9272  156.0711 H   0  0  0  0  0  0  0  0  0  0  0  0
  145.9628  143.2434  156.0134 H   0  0  0  0  0  0  0  0  0  0  0  0
  145.7905  140.7346  154.2383 H   0  0  0  0  0  0  0  0  0  0  0  0
  146.6089  142.3019  153.8658 H   0  0  0  0  0  0  0  0  0  0  0  0
  148.4002  141.8347  155.4452 H   0  0  0  0  0  0  0  0  0  0  0  0
  147.8754  140.0979  155.3352 H   0  0  0  0  0  0  0  0  0  0  0  0
  152.8123  143.1789  157.4994 H   0  0  0  0  0  0  0  0  0  0  0  0
  151.0593  144.7261  156.6917 H   0  0  0  0  0  0  0  0  0  0  0  0
  151.9347  145.4595  158.0239 H   0  0  0  0  0  0  0  0  0  0  0  0
  150.3302  144.7867  158.2926 H   0  0  0  0  0  0  0  0  0  0  0  0
  153.5074  141.4602  159.6284 H   0  0  0  0  0  0  0  0  0  0  0  0
  153.7955  142.2347  162.2267 H   0  0  0  0  0  0  0  0  0  0  0  0
  152.3532  144.5983  162.3381 H   0  0  0  0  0  0  0  0  0  0  0  0
  149.2242  143.0885  157.4195 H   0  0  0  0  0  0  0  0  0  0  0  0
  1  2  1  0  0  0  0
  1 18  1  0  0  0  0
  1 19  1  0  0  0  0
  1 20  1  0  0  0  0
  2  3  1  0  0  0  0
  2 11  1  0  0  0  0
  2 21  1  0  0  0  0
  3  4  1  0  0  0  0
  3 22  1  0  0  0  0
  3 38  1  0  0  0  0
  4  5  1  0  0  0  0
  4 23  1  0  0  0  0
  4 24  1  0  0  0  0
  5  6  2  0  0  0  0
  5  7  1  0  0  0  0
  7 10  1  0  0  0  0
  7  8  1  0  0  0  0
  8  9  1  0  0  0  0
  8 25  1  0  0  0  0
  8 26  1  0  0  0  0
  9 10  1  0  0  0  0
  9 27  1  0  0  0  0
  9 28  1  0  0  0  0
 10 29  1  0  0  0  0
 10 30  1  0  0  0  0
 11 12  1  0  0  0  0
 11 13  1  0  0  0  0
 11 31  1  0  0  0  0
 12 32  1  0  0  0  0
 12 33  1  0  0  0  0
 12 34  1  0  0  0  0
 13 17  1  0  0  0  0
 13 14  1  0  0  0  0
 14 15  2  0  0  0  0
 14 35  1  0  0  0  0
 15 16  1  0  0  0  0
 15 36  1  0  0  0  0
 16 17  2  0  0  0  0
 16 37  1  0  0  0  0
M  CHG  1   3   1
M  END
> <s_m_source_file>
AV-unprocessed.smi

> <i_m_source_file_index>
3149

> <i_lp_mmshare_version>
43012

> <i_f3d_flags>
0

> <s_epik_input>
bjFbY0hdW2NIXVtjSF1uMVtDQEBIXShbQ0gzXSlbQ0BIXShbQ0gzXSlbTkhdW0NIMl1DKD1PKU4yW0NIMl1bQ0gyXVtDSDJdMg==

> <s_epik_cmdline>
J2VwaWtfcHl0aG9uJywgJy1waCcsICc3LjAnLCAnLXRuJywgJzgnLCAnLW1hJywgJzIwMCcsICctbWV0YWxfYmluZGluZycsICctaW1hZScsICc8aW5maWxlLm1hZT4nLCAnLW9tYWUnLCAnPG91dGZpbGUubWFlPic=

> <r_lp_tautomer_probability>
1

> <r_epik_Ionization_Penalty>
0.141739

> <r_epik_Ionization_Penalty_Charging>
0.141731

> <r_epik_Ionization_Penalty_Neutral>
8.82171e-06

> <r_epik_State_Penalty>
0.131043

> <r_epik_Charging_Adjusted_Penalty>
0.272773

> <i_epik_Tot_Q>
1

> <i_epik_Tot_abs_Q>
1

> <r_epik_Metal_State_Penalty>
0.131384

> <b_epik_Metal_Only>
0

> <s_lp_Force_Field>
OPLS_2005

> <r_lp_Energy>
21.3939

> <b_lp_Chiralities_Consistent>
1

> <s_lp_Variant>
AV-unprocessed.smi:3149-3

> <Gold.Version>
5.8.1

> <Gold.Id.Protein>
6NUR|6NUR_protein|mol2

> <Gold.PLP.Fitness>
44.1517

> <Gold.PLP.PLP>
-40.3925

> <Gold.PLP.part.hbond>
-0.9891

> <Gold.PLP.part.metal>
0.0000

> <Gold.PLP.part.buried>
-6.4935

> <Gold.PLP.part.nonpolar>
-32.7846

> <Gold.PLP.part.repulsive>
0.3053

> <Gold.PLP.ligand.clash>
0.0000

> <Gold.PLP.ligand.torsion>
1.5895

> <Gold.PLP.Chemscore.Hbond>
2.0000

> <Gold.PLP.Chemscore.CHOScore>
0.0000

> <Gold.PLP.Chemscore.Metal>
0.0000

> <Gold.Chemscore.Hbonds>
donor molecule, donor type, donor heavy atom, donor atom, acceptor molecule, acceptor atom, score
      L1  H     3    38       P1  8028  0.10

> <Gold.PLP.Chemscore.Internal.Correction>
0.9381

> <Gold.Rescore>
     Score         DG    S(hbond)    S(metal)    S(lipo)     H(rot)  DE(clash)    DE(int)     intcor
     13.47     -15.13       0.96        0.00      95.67       1.85       0.11       1.54       ----

> <Gold.Chemscore.Fitness>
13.4721

> <Gold.Chemscore.DG>
-15.1261

> <Gold.Chemscore.ZeroCoef>
-5.4800

> <Gold.Chemscore.Hbond>
0.9582

> <Gold.Chemscore.Metal>
0.0000

> <Gold.Chemscore.Lipo>
95.6662

> <Gold.Chemscore.Internal_Hbond>
0.0000

> <Gold.Chemscore.DEClash>
0.1126

> <Gold.Chemscore.DEInternal>
1.5415

> <Gold.Chemscore.Rot>
1.8544

> <Gold.Chemscore.Internal.Correction>
   9.000000E+99

> <Gold.Chemscore.Hbonds>
donor molecule, donor type, donor heavy atom, donor atom, acceptor molecule, acceptor atom, score
      L1  H     3    38       P1  8028  0.08
      P1  H  6934  6946       L1     6  0.01

> <Gold.Chemscore.Hbond.Weighted>
-3.2003

> <Gold.Chemscore.Metal.Weighted>
-0.0000

> <Gold.Chemscore.Lipo.Weighted>
-11.1929

> <Gold.Chemscore.Internal_Hbond.Weighted>
0.0000

> <Gold.Chemscore.DEClash.Weighted>
0.1126

> <Gold.Chemscore.DEInternal.Weighted>
1.5415

> <Gold.Chemscore.Rot.Weighted>
4.7472

> <Gold.Chemscore.Internal.Correction.Weighted>
   9.000000E+99

> <Gold.Protein.RotatedTorsions>
[ 6907 6896 6895 6894 ] final  -92.04 input  -60.11 | X-H torsion
[ 7974 7965 7964 7962 ] final  178.23 input  175.53 | X-H torsion
[ 8008 7997 7996 7995 ] final  173.17 input   59.86 | X-H torsion
[ 10167 10162 10161 10158 ] final  -14.96 input  -65.29 | X-H torsion
[ 10718 10713 10712 10709 ] final  -70.94 input   66.30 | X-H torsion
[ 10763 10752 10751 10750 ] final -111.44 input  -60.55 | X-H torsion
[ 11005 11000 10999 10996 ] final  120.83 input  -57.11 | X-H torsion

> <Gold.Protein.ActiveResidues>
 VAL166  LYS551  ARG553  GLY616  TRP617  ASP618  TYR619  PRO620  LYS621  CYS622 
 ASP623  PHE694  ASN695  SER759  ASP760  ASP761  ALA762  ILE779  LEU786  VAL792 
 PHE793  MET794  SER795  GLU796  ALA797  LYS798  CYS799  TRP800  GLU811  SER814 

> <Gold.Protein.RotatedAtoms>
  150.6900  134.2184  159.4386 H   0  0  0  0  0  0  0  0  0  0  0  0  # atno 6907 bound_to 6896
  152.0142  134.9857  160.0578 H   0  0  0  0  0  0  0  0  0  0  0  0  # atno 6908 bound_to 6896
  152.1459  133.4457  159.4826 H   0  0  0  0  0  0  0  0  0  0  0  0  # atno 6909 bound_to 6896
  144.7159  140.0367  143.6438 H   0  0  0  0  0  0  0  0  0  0  0  0  # atno 7974 bound_to 7965
  156.1102  140.1467  156.9348 H   0  0  0  0  0  0  0  0  0  0  0  0  # atno 8008 bound_to 7997
  154.4762  140.0894  156.7310 H   0  0  0  0  0  0  0  0  0  0  0  0  # atno 8009 bound_to 7997
  155.4609  140.3438  155.4315 H   0  0  0  0  0  0  0  0  0  0  0  0  # atno 8010 bound_to 7997
  140.7210  143.5267  150.9568 H   0  0  0  0  0  0  0  0  0  0  0  0  # atno 10167 bound_to 10162
  156.0385  130.4341  150.2371 H   0  0  0  0  0  0  0  0  0  0  0  0  # atno 10718 bound_to 10713
  154.8300  135.4527  154.1039 H   0  0  0  0  0  0  0  0  0  0  0  0  # atno 10763 bound_to 10752
  153.2320  135.6906  153.7885 H   0  0  0  0  0  0  0  0  0  0  0  0  # atno 10764 bound_to 10752
  153.7264  135.3333  155.3253 H   0  0  0  0  0  0  0  0  0  0  0  0  # atno 10765 bound_to 10752
  139.9201  134.9636  156.7866 H   0  0  0  0  0  0  0  0  0  0  0  0  # atno 11005 bound_to 11000
  146.0058  139.3128  143.0900 LP  0  0  0  0  0  0  0  0  0  0  0  0  # atno 17320 bound_to 7965
  145.8740  140.9403  143.0636 LP  0  0  0  0  0  0  0  0  0  0  0  0  # atno 17321 bound_to 7965
  139.8986  143.6863  152.3135 LP  0  0  0  0  0  0  0  0  0  0  0  0  # atno 17342 bound_to 10162
  139.7205  144.7603  151.0963 LP  0  0  0  0  0  0  0  0  0  0  0  0  # atno 17343 bound_to 10162
  157.0468  131.0051  151.3266 LP  0  0  0  0  0  0  0  0  0  0  0  0  # atno 17370 bound_to 10713
  157.5169  130.7974  149.7766 LP  0  0  0  0  0  0  0  0  0  0  0  0  # atno 17371 bound_to 10713
  140.6501  133.9739  155.7751 LP  0  0  0  0  0  0  0  0  0  0  0  0  # atno 17394 bound_to 11000
  141.0714  134.0200  157.3521 LP  0  0  0  0  0  0  0  0  0  0  0  0  # atno 17395 bound_to 11000

$$$$
