AV-unprocessed.smi:265|AV-procd|sdf|2027|dock2
  -GOLD-   2262021233D 1   1.00000     0.00000
 Structure written by MMmdl.
 52 56  0  0  0  0  0  0  0  0  1 V2000
  143.1352  132.2359  150.6935 C   0  0  0  0  0  0  0  0  0  0  0  0
  144.6440  132.4764  150.5342 C   0  0  2  0  0  0  0  0  0  0  0  0
  145.3909  131.5428  151.3096 O   0  0  0  0  0  0  0  0  0  0  0  0
  146.5863  132.1502  151.7929 C   0  0  0  0  0  0  0  0  0  0  0  0
  146.6444  133.5289  151.1409 C   0  0  0  0  0  0  0  0  0  0  0  0
  145.1709  133.8650  150.9428 C   0  0  1  0  0  0  0  0  0  0  0  0
  145.0460  134.7743  149.8652 O   0  0  0  0  0  0  0  0  0  0  0  0
  144.4855  134.4572  152.2044 C   0  0  0  0  0  0  0  0  0  0  0  0
  145.2169  135.5603  152.8072 N   0  0  0  0  0  0  0  0  0  0  0  0
  145.5500  135.7010  154.1352 C   0  0  0  0  0  0  0  0  0  0  0  0
  146.2115  136.7862  154.4312 N   0  0  0  0  0  0  0  0  0  0  0  0
  146.3568  137.4393  153.2127 C   0  0  0  0  0  0  0  0  0  0  0  0
  146.9630  138.6626  152.8093 C   0  0  0  0  0  0  0  0  0  0  0  0
  147.6032  139.4859  153.6779 N   0  0  0  0  0  0  0  0  0  0  0  0
  147.4860  140.9317  153.4575 C   0  0  0  0  0  0  0  0  0  0  0  0
  147.9578  141.7272  154.6897 C   0  0  0  0  0  0  0  0  0  0  0  0
  149.3717  141.2851  155.0882 C   0  0  1  0  0  0  0  0  0  0  0  0
  149.8116  141.9167  156.2811 O   0  0  0  0  0  0  0  0  0  0  0  0
  151.1832  141.6481  156.5930 C   0  0  0  0  0  0  0  0  0  0  0  0
  151.5429  140.1516  156.4724 C   0  0  0  0  0  0  0  0  0  0  0  0
  152.6051  139.7389  156.9318 O   0  0  0  0  0  0  0  0  0  0  0  0
  150.6888  139.3438  155.8227 N   0  0  0  0  0  0  0  0  0  0  0  0
  149.3745  139.7736  155.3643 C   0  0  2  0  0  0  0  0  0  0  0  0
  148.9203  139.0116  154.1099 C   0  0  0  0  0  0  0  0  0  0  0  0
  146.8850  138.9935  151.4922 N   0  0  0  0  0  0  0  0  0  0  0  0
  146.2700  138.1821  150.6266 C   0  0  0  0  0  0  0  0  0  0  0  0
  145.6714  137.0129  150.8599 N   0  0  0  0  0  0  0  0  0  0  0  0
  145.7356  136.6801  152.1808 C   0  0  0  0  0  0  0  0  0  0  0  0
  150.0585  141.5299  154.2749 H   0  0  0  0  0  0  0  0  0  0  0  0
  148.6744  139.5570  156.1733 H   0  0  0  0  0  0  0  0  0  0  0  0
  142.5597  132.9689  150.1279 H   0  0  0  0  0  0  0  0  0  0  0  0
  142.8236  132.2919  151.7364 H   0  0  0  0  0  0  0  0  0  0  0  0
  142.8628  131.2467  150.3253 H   0  0  0  0  0  0  0  0  0  0  0  0
  144.9155  132.2896  149.4932 H   0  0  0  0  0  0  0  0  0  0  0  0
  146.5189  132.2398  152.8775 H   0  0  0  0  0  0  0  0  0  0  0  0
  147.4620  131.5449  151.5580 H   0  0  0  0  0  0  0  0  0  0  0  0
  147.2070  134.2568  151.7241 H   0  0  0  0  0  0  0  0  0  0  0  0
  147.1432  133.4385  150.1742 H   0  0  0  0  0  0  0  0  0  0  0  0
  145.6711  134.5360  149.1980 H   0  0  0  0  0  0  0  0  0  0  0  0
  143.4850  134.8165  151.9606 H   0  0  0  0  0  0  0  0  0  0  0  0
  144.3522  133.6842  152.9622 H   0  0  0  0  0  0  0  0  0  0  0  0
  145.2804  134.9702  154.8839 H   0  0  0  0  0  0  0  0  0  0  0  0
  148.0825  141.2103  152.5876 H   0  0  0  0  0  0  0  0  0  0  0  0
  146.4503  141.1924  153.2350 H   0  0  0  0  0  0  0  0  0  0  0  0
  147.9423  142.7963  154.4763 H   0  0  0  0  0  0  0  0  0  0  0  0
  147.2700  141.5628  155.5200 H   0  0  0  0  0  0  0  0  0  0  0  0
  151.8230  142.2163  155.9166 H   0  0  0  0  0  0  0  0  0  0  0  0
  151.3924  141.9974  157.6043 H   0  0  0  0  0  0  0  0  0  0  0  0
  150.9300  138.3695  155.7125 H   0  0  0  0  0  0  0  0  0  0  0  0
  148.9104  137.9427  154.3200 H   0  0  0  0  0  0  0  0  0  0  0  0
  149.6323  139.1645  153.2975 H   0  0  0  0  0  0  0  0  0  0  0  0
  146.2567  138.5168  149.5998 H   0  0  0  0  0  0  0  0  0  0  0  0
  1  2  1  0  0  0  0
  1 31  1  0  0  0  0
  1 32  1  0  0  0  0
  1 33  1  0  0  0  0
  2  6  1  0  0  0  0
  2  3  1  0  0  0  0
  2 34  1  0  0  0  0
  3  4  1  0  0  0  0
  4  5  1  0  0  0  0
  4 35  1  0  0  0  0
  4 36  1  0  0  0  0
  5  6  1  0  0  0  0
  5 37  1  0  0  0  0
  5 38  1  0  0  0  0
  6  7  1  0  0  0  0
  6  8  1  0  0  0  0
  7 39  1  0  0  0  0
  8  9  1  0  0  0  0
  8 40  1  0  0  0  0
  8 41  1  0  0  0  0
  9 28  1  0  0  0  0
  9 10  1  0  0  0  0
 10 11  2  0  0  0  0
 10 42  1  0  0  0  0
 11 12  1  0  0  0  0
 12 28  2  0  0  0  0
 12 13  1  0  0  0  0
 13 14  1  0  0  0  0
 13 25  2  0  0  0  0
 14 24  1  0  0  0  0
 14 15  1  0  0  0  0
 15 16  1  0  0  0  0
 15 43  1  0  0  0  0
 15 44  1  0  0  0  0
 16 17  1  0  0  0  0
 16 45  1  0  0  0  0
 16 46  1  0  0  0  0
 17 29  1  0  0  0  0
 17 23  1  0  0  0  0
 17 18  1  0  0  0  0
 18 19  1  0  0  0  0
 19 20  1  0  0  0  0
 19 47  1  0  0  0  0
 19 48  1  0  0  0  0
 20 21  2  0  0  0  0
 20 22  1  0  0  0  0
 22 23  1  0  0  0  0
 22 49  1  0  0  0  0
 23 30  1  0  0  0  0
 23 24  1  0  0  0  0
 24 50  1  0  0  0  0
 24 51  1  0  0  0  0
 25 26  1  0  0  0  0
 26 27  2  0  0  0  0
 26 52  1  0  0  0  0
 27 28  1  0  0  0  0
M  END
> <s_m_source_file>
AV-unprocessed.smi

> <i_m_source_file_index>
265

> <i_lp_mmshare_version>
43012

> <i_f3d_flags>
0

> <s_epik_input>
W0NIMl0xW0NIMl1PW0NAQEhdKFtDSDNdKVtDQEBdMShbT0hdKVtDSDJdbihbY0hdbjIpYyhjMjMpbltjSF1uYzNOKFtDSDJdW0NIMl00KVtDSDJdW0NAQEhdKFtDQEhdNDUpW05IXUMoPU8pW0NIMl1PNQ==

> <s_epik_cmdline>
J2VwaWtfcHl0aG9uJywgJy1waCcsICc3LjAnLCAnLXRuJywgJzgnLCAnLW1hJywgJzIwMCcsICctbWV0YWxfYmluZGluZycsICctaW1hZScsICc8aW5maWxlLm1hZT4nLCAnLW9tYWUnLCAnPG91dGZpbGUubWFlPic=

> <r_lp_tautomer_probability>
1

> <r_epik_Ionization_Penalty>
0.00221504

> <r_epik_Ionization_Penalty_Charging>
0

> <r_epik_Ionization_Penalty_Neutral>
0.00221504

> <r_epik_State_Penalty>
-0

> <r_epik_Charging_Adjusted_Penalty>
0

> <i_epik_Tot_Q>
0

> <i_epik_Tot_abs_Q>
0

> <r_epik_Metal_State_Penalty>
-0

> <b_epik_Metal_Only>
0

> <s_lp_Force_Field>
OPLS_2005

> <r_lp_Energy>
44.3077

> <b_lp_Chiralities_Consistent>
1

> <s_lp_Variant>
AV-unprocessed.smi:265-13

> <Gold.Version>
5.8.1

> <Gold.Id.Protein>
6NUR|6NUR_protein|mol2

> <Gold.PLP.Fitness>
39.0737

> <Gold.PLP.PLP>
-33.5326

> <Gold.PLP.part.hbond>
-1.9745

> <Gold.PLP.part.metal>
0.0000

> <Gold.PLP.part.buried>
-0.6348

> <Gold.PLP.part.nonpolar>
-37.4003

> <Gold.PLP.part.repulsive>
6.6405

> <Gold.PLP.ligand.clash>
0.0000

> <Gold.PLP.ligand.torsion>
0.7495

> <Gold.PLP.Chemscore.Hbond>
1.9920

> <Gold.PLP.Chemscore.CHOScore>
0.2095

> <Gold.PLP.Chemscore.Metal>
0.0000

> <Gold.Chemscore.Hbonds>
donor molecule, donor type, donor heavy atom, donor atom, acceptor molecule, acceptor atom, score
      L1  H     7    39       P1  7921  0.90
      P1  H  7997  8010       L1    21  1.00
      L1  C    26    52       P1 10171  0.16

> <Gold.PLP.Chemscore.Internal.Correction>
0.4356

> <Gold.Rescore>
     Score         DG    S(hbond)    S(metal)    S(lipo)     H(rot)  DE(clash)    DE(int)     intcor
     10.08     -15.68       1.97        0.00      80.14       2.25       3.16       2.45       ----

> <Gold.Chemscore.Fitness>
10.0763

> <Gold.Chemscore.DG>
-15.6824

> <Gold.Chemscore.ZeroCoef>
-5.4800

> <Gold.Chemscore.Hbond>
1.9684

> <Gold.Chemscore.Metal>
0.0000

> <Gold.Chemscore.Lipo>
80.1361

> <Gold.Chemscore.Internal_Hbond>
0.0000

> <Gold.Chemscore.DEClash>
3.1595

> <Gold.Chemscore.DEInternal>
2.4465

> <Gold.Chemscore.Rot>
2.2453

> <Gold.Chemscore.Internal.Correction>
   9.000000E+99

> <Gold.Chemscore.Hbonds>
donor molecule, donor type, donor heavy atom, donor atom, acceptor molecule, acceptor atom, score
      L1  H     7    39       P1  7921  0.80
      P1  H  7997  8010       L1    21  1.00

> <Gold.Chemscore.Hbond.Weighted>
-6.5743

> <Gold.Chemscore.Metal.Weighted>
-0.0000

> <Gold.Chemscore.Lipo.Weighted>
-9.3759

> <Gold.Chemscore.Internal_Hbond.Weighted>
0.0000

> <Gold.Chemscore.DEClash.Weighted>
3.1595

> <Gold.Chemscore.DEInternal.Weighted>
2.4465

> <Gold.Chemscore.Rot.Weighted>
5.7479

> <Gold.Chemscore.Internal.Correction.Weighted>
   9.000000E+99

> <Gold.Protein.RotatedTorsions>
[ 6907 6896 6895 6894 ] final  -12.98 input  -60.11 | X-H torsion
[ 7974 7965 7964 7962 ] final  -27.92 input  175.53 | X-H torsion
[ 8008 7997 7996 7995 ] final   68.60 input   59.86 | X-H torsion
[ 10167 10162 10161 10158 ] final  -96.35 input  -65.29 | X-H torsion
[ 10718 10713 10712 10709 ] final   79.82 input   66.30 | X-H torsion
[ 10763 10752 10751 10750 ] final -143.72 input  -60.55 | X-H torsion
[ 11005 11000 10999 10996 ] final -120.38 input  -57.11 | X-H torsion

> <Gold.Protein.ActiveResidues>
 VAL166  LYS551  ARG553  GLY616  TRP617  ASP618  TYR619  PRO620  LYS621  CYS622 
 ASP623  PHE694  ASN695  SER759  ASP760  ASP761  ALA762  ILE779  LEU786  VAL792 
 PHE793  MET794  SER795  GLU796  ALA797  LYS798  CYS799  TRP800  GLU811  SER814 

> <Gold.Protein.RotatedAtoms>
  151.3620  135.0906  159.9437 H   0  0  0  0  0  0  0  0  0  0  0  0  # atno 6907 bound_to 6896
  152.5159  133.9249  159.7562 H   0  0  0  0  0  0  0  0  0  0  0  0  # atno 6908 bound_to 6896
  150.9645  133.6355  159.2778 H   0  0  0  0  0  0  0  0  0  0  0  0  # atno 6909 bound_to 6896
  146.1324  140.5215  142.8687 H   0  0  0  0  0  0  0  0  0  0  0  0  # atno 7974 bound_to 7965
  155.7107  140.3494  155.4973 H   0  0  0  0  0  0  0  0  0  0  0  0  # atno 8008 bound_to 7997
  155.9358  140.1092  157.1118 H   0  0  0  0  0  0  0  0  0  0  0  0  # atno 8009 bound_to 7997
  154.4093  140.1222  156.4848 H   0  0  0  0  0  0  0  0  0  0  0  0  # atno 8010 bound_to 7997
  140.2948  143.3199  152.0309 H   0  0  0  0  0  0  0  0  0  0  0  0  # atno 10167 bound_to 10162
  157.6788  130.9931  150.1988 H   0  0  0  0  0  0  0  0  0  0  0  0  # atno 10718 bound_to 10713
  154.8458  135.3460  154.6233 H   0  0  0  0  0  0  0  0  0  0  0  0  # atno 10763 bound_to 10752
  153.6842  135.6978  153.5113 H   0  0  0  0  0  0  0  0  0  0  0  0  # atno 10764 bound_to 10752
  153.2645  135.4312  155.0883 H   0  0  0  0  0  0  0  0  0  0  0  0  # atno 10765 bound_to 10752
  141.0147  134.0212  157.3366 H   0  0  0  0  0  0  0  0  0  0  0  0  # atno 11005 bound_to 11000
  144.7704  140.5626  143.6674 LP  0  0  0  0  0  0  0  0  0  0  0  0  # atno 17320 bound_to 7965
  145.5230  139.1476  143.3541 LP  0  0  0  0  0  0  0  0  0  0  0  0  # atno 17321 bound_to 7965
  139.4929  144.6499  151.6698 LP  0  0  0  0  0  0  0  0  0  0  0  0  # atno 17342 bound_to 10162
  140.5702  144.0122  150.6213 LP  0  0  0  0  0  0  0  0  0  0  0  0  # atno 17343 bound_to 10162
  156.2684  130.3719  149.8057 LP  0  0  0  0  0  0  0  0  0  0  0  0  # atno 17370 bound_to 10713
  156.5782  130.8454  151.3375 LP  0  0  0  0  0  0  0  0  0  0  0  0  # atno 17371 bound_to 10713
  139.9110  135.0190  156.7691 LP  0  0  0  0  0  0  0  0  0  0  0  0  # atno 17394 bound_to 11000
  140.6674  133.9590  155.7838 LP  0  0  0  0  0  0  0  0  0  0  0  0  # atno 17395 bound_to 11000

$$$$
