AV-unprocessed.smi:1990|AV-procd|sdf|8065|dock1
  -GOLD-   2272010273D 1   1.00000     0.00000
 Structure written by MMmdl.
 46 47  0  0  0  0  0  0  0  0  1 V2000
  152.6893  143.2626  161.7695 C   0  0  0  0  0  0  0  0  0  0  0  0
  152.6460  143.2397  160.2380 C   0  0  1  0  0  0  0  0  0  0  0  0
  152.0730  141.9155  159.7003 C   0  0  0  0  0  0  0  0  0  0  0  0
  151.9167  141.9803  158.2514 N   0  0  0  0  0  0  0  0  0  0  0  0
  151.7098  140.7428  157.6062 C   0  0  0  0  0  0  0  0  0  0  0  0
  151.3342  140.7084  156.2432 C   0  0  0  0  0  0  0  0  0  0  0  0
  151.1272  139.4650  155.6152 C   0  0  0  0  0  0  0  0  0  0  0  0
  151.3086  138.2794  156.3659 C   0  0  0  0  0  0  0  0  0  0  0  0
  151.1206  136.9605  155.8687 N   0  0  0  0  0  0  0  0  0  0  0  0
  151.0808  135.7900  156.5333 C   0  0  0  0  0  0  0  0  0  0  0  0
  151.1515  135.6759  157.7563 O   0  0  0  0  0  0  0  0  0  0  0  0
  150.9082  134.5398  155.6586 C   0  0  2  0  0  0  0  0  0  0  0  0
  149.5622  134.5377  154.9152 C   0  0  0  0  0  0  0  0  0  0  0  0
  151.0561  133.0116  156.6986 S   0  0  0  0  0  0  0  0  0  0  0  0
  150.6748  131.6551  155.5110 C   0  0  0  0  0  0  0  0  0  0  0  0
  152.4544  132.8595  157.1298 O   0  0  0  0  0  0  0  0  0  0  0  0
  149.9901  133.0472  157.7114 O   0  0  0  0  0  0  0  0  0  0  0  0
  151.6744  138.4172  157.7197 C   0  0  0  0  0  0  0  0  0  0  0  0
  151.8698  139.6061  158.3261 N   0  0  0  0  0  0  0  0  0  0  0  0
  151.1257  143.1257  157.8078 C   0  0  0  0  0  0  0  0  0  0  0  0
  151.6842  144.4398  158.3873 C   0  0  2  0  0  0  0  0  0  0  0  0
  152.9803  144.9101  157.7026 C   0  0  0  0  0  0  0  0  0  0  0  0
  151.8313  144.3286  159.8046 O   0  0  0  0  0  0  0  0  0  0  0  0
  153.3147  142.4579  162.1563 H   0  0  0  0  0  0  0  0  0  0  0  0
  151.6920  143.1457  162.1945 H   0  0  0  0  0  0  0  0  0  0  0  0
  153.0980  144.2056  162.1333 H   0  0  0  0  0  0  0  0  0  0  0  0
  153.6637  143.3738  159.8710 H   0  0  0  0  0  0  0  0  0  0  0  0
  152.7257  141.0951  159.9970 H   0  0  0  0  0  0  0  0  0  0  0  0
  151.0974  141.7196  160.1472 H   0  0  0  0  0  0  0  0  0  0  0  0
  151.1848  141.6184  155.6810 H   0  0  0  0  0  0  0  0  0  0  0  0
  150.8227  139.4570  154.5813 H   0  0  0  0  0  0  0  0  0  0  0  0
  150.9861  136.8995  154.8700 H   0  0  0  0  0  0  0  0  0  0  0  0
  151.7099  134.5039  154.9199 H   0  0  0  0  0  0  0  0  0  0  0  0
  149.4339  135.4437  154.3220 H   0  0  0  0  0  0  0  0  0  0  0  0
  148.7220  134.4672  155.6070 H   0  0  0  0  0  0  0  0  0  0  0  0
  149.4972  133.6888  154.2342 H   0  0  0  0  0  0  0  0  0  0  0  0
  150.6267  130.7093  156.0500 H   0  0  0  0  0  0  0  0  0  0  0  0
  151.4567  131.5915  154.7548 H   0  0  0  0  0  0  0  0  0  0  0  0
  149.7148  131.8454  155.0319 H   0  0  0  0  0  0  0  0  0  0  0  0
  151.8147  137.5443  158.3408 H   0  0  0  0  0  0  0  0  0  0  0  0
  151.1104  143.1822  156.7185 H   0  0  0  0  0  0  0  0  0  0  0  0
  150.0951  142.9884  158.1381 H   0  0  0  0  0  0  0  0  0  0  0  0
  150.9396  145.2182  158.2189 H   0  0  0  0  0  0  0  0  0  0  0  0
  152.8053  145.1154  156.6465 H   0  0  0  0  0  0  0  0  0  0  0  0
  153.7729  144.1643  157.7581 H   0  0  0  0  0  0  0  0  0  0  0  0
  153.3505  145.8279  158.1597 H   0  0  0  0  0  0  0  0  0  0  0  0
  1  2  1  0  0  0  0
  1 24  1  0  0  0  0
  1 25  1  0  0  0  0
  1 26  1  0  0  0  0
  2 23  1  0  0  0  0
  2  3  1  0  0  0  0
  2 27  1  0  0  0  0
  3  4  1  0  0  0  0
  3 28  1  0  0  0  0
  3 29  1  0  0  0  0
  4  5  1  0  0  0  0
  4 20  1  0  0  0  0
  5 19  1  0  0  0  0
  5  6  2  0  0  0  0
  6  7  1  0  0  0  0
  6 30  1  0  0  0  0
  7  8  2  0  0  0  0
  7 31  1  0  0  0  0
  8  9  1  0  0  0  0
  8 18  1  0  0  0  0
  9 10  1  0  0  0  0
  9 32  1  0  0  0  0
 10 11  2  0  0  0  0
 10 12  1  0  0  0  0
 12 13  1  0  0  0  0
 12 14  1  0  0  0  0
 12 33  1  0  0  0  0
 13 34  1  0  0  0  0
 13 35  1  0  0  0  0
 13 36  1  0  0  0  0
 14 15  1  0  0  0  0
 14 16  2  0  0  0  0
 14 17  2  0  0  0  0
 15 37  1  0  0  0  0
 15 38  1  0  0  0  0
 15 39  1  0  0  0  0
 18 19  2  0  0  0  0
 18 40  1  0  0  0  0
 20 21  1  0  0  0  0
 20 41  1  0  0  0  0
 20 42  1  0  0  0  0
 21 22  1  0  0  0  0
 21 23  1  0  0  0  0
 21 43  1  0  0  0  0
 22 44  1  0  0  0  0
 22 45  1  0  0  0  0
 22 46  1  0  0  0  0
M  END
> <s_m_source_file>
AV-unprocessed.smi

> <i_m_source_file_index>
1990

> <i_lp_mmshare_version>
43012

> <i_f3d_flags>
0

> <s_epik_input>
W0NIM11bQ0BASF0xW0NIMl1OKFtDSDJdW0NASF0oTzEpW0NIM10pYzJbY0hdW2NIXWMoW2NIXW4yKVtOSF1DKD1PKVtDQEhdKFtDSDNdKVMoPU8pKD1PKVtDSDNd

> <s_epik_cmdline>
J2VwaWtfcHl0aG9uJywgJy1waCcsICc3LjAnLCAnLXRuJywgJzgnLCAnLW1hJywgJzIwMCcsICctbWV0YWxfYmluZGluZycsICctaW1hZScsICc8aW5maWxlLm1hZT4nLCAnLW9tYWUnLCAnPG91dGZpbGUubWFlPic=

> <r_lp_tautomer_probability>
1

> <r_epik_Ionization_Penalty>
0.000334888

> <r_epik_Ionization_Penalty_Charging>
0

> <r_epik_Ionization_Penalty_Neutral>
0.000334888

> <r_epik_State_Penalty>
0.000200905

> <r_epik_Charging_Adjusted_Penalty>
0.000200905

> <i_epik_Tot_Q>
0

> <i_epik_Tot_abs_Q>
0

> <r_epik_Metal_State_Penalty>
-0

> <b_epik_Metal_Only>
0

> <s_lp_Force_Field>
OPLS_2005

> <r_lp_Energy>
21.5774

> <b_lp_Chiralities_Consistent>
1

> <s_lp_Variant>
AV-unprocessed.smi:1990-5

> <Gold.Version>
5.8.1

> <Gold.Id.Protein>
6NUR|6NUR_protein|mol2

> <Gold.PLP.Fitness>
43.5232

> <Gold.PLP.PLP>
-41.2946

> <Gold.PLP.part.hbond>
-2.4156

> <Gold.PLP.part.metal>
0.0000

> <Gold.PLP.part.buried>
-7.1512

> <Gold.PLP.part.nonpolar>
-32.1616

> <Gold.PLP.part.repulsive>
0.1133

> <Gold.PLP.ligand.clash>
0.0000

> <Gold.PLP.ligand.torsion>
0.7338

> <Gold.PLP.Chemscore.Hbond>
1.0728

> <Gold.PLP.Chemscore.CHOScore>
0.0000

> <Gold.PLP.Chemscore.Metal>
0.0000

> <Gold.Chemscore.Hbonds>
donor molecule, donor type, donor heavy atom, donor atom, acceptor molecule, acceptor atom, score
      P1  H  6896  6908       L1    17  1.00
      P1  H  6896  6909       L1    11  0.10

> <Gold.PLP.Chemscore.Internal.Correction>
0.4778

> <Gold.Rescore>
     Score         DG    S(hbond)    S(metal)    S(lipo)     H(rot)  DE(clash)    DE(int)     intcor
     13.27     -16.92       1.00        0.00     102.53       1.52       0.06       3.59       ----

> <Gold.Chemscore.Fitness>
13.2736

> <Gold.Chemscore.DG>
-16.9249

> <Gold.Chemscore.ZeroCoef>
-5.4800

> <Gold.Chemscore.Hbond>
0.9982

> <Gold.Chemscore.Metal>
0.0000

> <Gold.Chemscore.Lipo>
102.5307

> <Gold.Chemscore.Internal_Hbond>
0.0000

> <Gold.Chemscore.DEClash>
0.0641

> <Gold.Chemscore.DEInternal>
3.5872

> <Gold.Chemscore.Rot>
1.5177

> <Gold.Chemscore.Internal.Correction>
   9.000000E+99

> <Gold.Chemscore.Hbonds>
donor molecule, donor type, donor heavy atom, donor atom, acceptor molecule, acceptor atom, score
      P1  H  6896  6908       L1    17  0.26
      P1  H  6896  6909       L1    11  0.10

> <Gold.Chemscore.Hbond.Weighted>
-3.3341

> <Gold.Chemscore.Metal.Weighted>
-0.0000

> <Gold.Chemscore.Lipo.Weighted>
-11.9961

> <Gold.Chemscore.Internal_Hbond.Weighted>
0.0000

> <Gold.Chemscore.DEClash.Weighted>
0.0641

> <Gold.Chemscore.DEInternal.Weighted>
3.5872

> <Gold.Chemscore.Rot.Weighted>
3.8853

> <Gold.Chemscore.Internal.Correction.Weighted>
   9.000000E+99

> <Gold.Protein.RotatedTorsions>
[ 6907 6896 6895 6894 ] final  103.65 input  -60.11 | X-H torsion
[ 7974 7965 7964 7962 ] final  -86.28 input  175.53 | X-H torsion
[ 8008 7997 7996 7995 ] final  138.23 input   59.86 | X-H torsion
[ 10167 10162 10161 10158 ] final   73.36 input  -65.29 | X-H torsion
[ 10718 10713 10712 10709 ] final  -33.87 input   66.30 | X-H torsion
[ 10763 10752 10751 10750 ] final  -96.25 input  -60.55 | X-H torsion
[ 11005 11000 10999 10996 ] final -178.65 input  -57.11 | X-H torsion

> <Gold.Protein.ActiveResidues>
 VAL166  LYS551  ARG553  GLY616  TRP617  ASP618  TYR619  PRO620  LYS621  CYS622 
 ASP623  PHE694  ASN695  SER759  ASP760  ASP761  ALA762  ILE779  LEU786  VAL792 
 PHE793  MET794  SER795  GLU796  ALA797  LYS798  CYS799  TRP800  GLU811  SER814 

> <Gold.Protein.RotatedAtoms>
  152.5289  133.9794  159.7799 H   0  0  0  0  0  0  0  0  0  0  0  0  # atno 6907 bound_to 6896
  151.0050  133.6011  159.2697 H   0  0  0  0  0  0  0  0  0  0  0  0  # atno 6908 bound_to 6896
  151.3106  135.0799  159.9324 H   0  0  0  0  0  0  0  0  0  0  0  0  # atno 6909 bound_to 6896
  145.4820  140.9556  143.1859 H   0  0  0  0  0  0  0  0  0  0  0  0  # atno 7974 bound_to 7965
  156.2998  140.2399  156.4040 H   0  0  0  0  0  0  0  0  0  0  0  0  # atno 8008 bound_to 7997
  154.8501  140.0424  157.1618 H   0  0  0  0  0  0  0  0  0  0  0  0  # atno 8009 bound_to 7997
  154.9008  140.2976  155.5322 H   0  0  0  0  0  0  0  0  0  0  0  0  # atno 8010 bound_to 7997
  140.0253  144.5508  150.7549 H   0  0  0  0  0  0  0  0  0  0  0  0  # atno 10167 bound_to 10162
  156.3574  130.4318  149.7653 H   0  0  0  0  0  0  0  0  0  0  0  0  # atno 10718 bound_to 10713
  154.7223  135.5090  153.8831 H   0  0  0  0  0  0  0  0  0  0  0  0  # atno 10763 bound_to 10752
  153.0873  135.6649  153.9932 H   0  0  0  0  0  0  0  0  0  0  0  0  # atno 10764 bound_to 10752
  153.9752  135.3034  155.3404 H   0  0  0  0  0  0  0  0  0  0  0  0  # atno 10765 bound_to 10752
  140.4274  134.6550  157.4695 H   0  0  0  0  0  0  0  0  0  0  0  0  # atno 11005 bound_to 11000
  144.7884  139.6380  143.7124 LP  0  0  0  0  0  0  0  0  0  0  0  0  # atno 17320 bound_to 7965
  146.2335  139.5861  142.9539 LP  0  0  0  0  0  0  0  0  0  0  0  0  # atno 17321 bound_to 7965
  140.7325  143.2706  151.3900 LP  0  0  0  0  0  0  0  0  0  0  0  0  # atno 17342 bound_to 10162
  139.6112  144.1094  152.2300 LP  0  0  0  0  0  0  0  0  0  0  0  0  # atno 17343 bound_to 10162
  156.4830  130.8050  151.3063 LP  0  0  0  0  0  0  0  0  0  0  0  0  # atno 17370 bound_to 10713
  157.7469  130.9999  150.2908 LP  0  0  0  0  0  0  0  0  0  0  0  0  # atno 17371 bound_to 10713
  140.0158  134.6621  155.9312 LP  0  0  0  0  0  0  0  0  0  0  0  0  # atno 17394 bound_to 11000
  141.1759  133.6540  156.4829 LP  0  0  0  0  0  0  0  0  0  0  0  0  # atno 17395 bound_to 11000

$$$$
