AV-unprocessed.smi:3158|AV-procd|sdf|12046|dock4
  -GOLD-   2272017473D 1   1.00000     0.00000
 Structure written by MMmdl.
 39 39  0  0  0  0  0  0  0  0  1 V2000
  147.8662  141.1741  153.7406 C   0  0  0  0  0  0  0  0  0  0  0  0
  148.3685  139.7413  153.9718 C   0  0  0  0  0  0  0  0  0  0  0  0
  147.3110  138.6535  153.6804 C   0  0  1  0  0  0  0  0  0  0  0  0
  146.6830  138.8032  152.2831 C   0  0  0  0  0  0  0  0  0  0  0  0
  147.8137  137.2951  153.9015 N   0  0  0  0  0  0  0  0  0  0  0  0
  147.4225  136.4234  154.8471 C   0  0  0  0  0  0  0  0  0  0  0  0
  146.5526  136.6669  155.6837 O   0  0  0  0  0  0  0  0  0  0  0  0
  148.1518  135.0702  154.8709 C   0  0  2  0  0  0  0  0  0  0  0  0
  149.5864  135.2430  155.3941 C   0  0  0  0  0  0  0  0  0  0  0  0
  148.1778  134.4054  153.5564 N   0  0  0  0  0  0  0  0  0  0  0  0
  146.9011  133.8278  153.1458 C   0  0  0  0  0  0  0  0  0  0  0  0
  147.1245  132.7799  152.0435 C   0  0  0  0  0  0  0  0  0  0  0  0
  145.9703  132.6496  151.1713 N   0  0  0  0  0  0  0  0  0  0  0  0
  145.8766  131.9739  149.9728 C   0  0  0  0  0  0  0  0  0  0  0  0
  144.5958  132.1203  149.5225 C   0  0  0  0  0  0  0  0  0  0  0  0
  143.9736  132.9136  150.5267 C   0  0  0  0  0  0  0  0  0  0  0  0
  144.7987  133.2288  151.5121 N   0  0  0  0  0  0  0  0  0  0  0  0
  148.6679  141.8947  153.9037 H   0  0  0  0  0  0  0  0  0  0  0  0
  147.0533  141.4296  154.4209 H   0  0  0  0  0  0  0  0  0  0  0  0
  147.5047  141.3047  152.7203 H   0  0  0  0  0  0  0  0  0  0  0  0
  149.2334  139.5716  153.3297 H   0  0  0  0  0  0  0  0  0  0  0  0
  148.7374  139.6495  154.9937 H   0  0  0  0  0  0  0  0  0  0  0  0
  146.5057  138.7833  154.4043 H   0  0  0  0  0  0  0  0  0  0  0  0
  146.1963  139.7732  152.1779 H   0  0  0  0  0  0  0  0  0  0  0  0
  145.9279  138.0364  152.1071 H   0  0  0  0  0  0  0  0  0  0  0  0
  147.4283  138.7250  151.4913 H   0  0  0  0  0  0  0  0  0  0  0  0
  148.5411  136.9876  153.2724 H   0  0  0  0  0  0  0  0  0  0  0  0
  147.6292  134.4116  155.5672 H   0  0  0  0  0  0  0  0  0  0  0  0
  149.5955  135.7205  156.3747 H   0  0  0  0  0  0  0  0  0  0  0  0
  150.1904  135.8530  154.7208 H   0  0  0  0  0  0  0  0  0  0  0  0
  150.0826  134.2776  155.4977 H   0  0  0  0  0  0  0  0  0  0  0  0
  148.5208  135.0239  152.8344 H   0  0  0  0  0  0  0  0  0  0  0  0
  146.4289  133.3583  154.0095 H   0  0  0  0  0  0  0  0  0  0  0  0
  146.2149  134.5918  152.7790 H   0  0  0  0  0  0  0  0  0  0  0  0
  148.0071  133.0218  151.4486 H   0  0  0  0  0  0  0  0  0  0  0  0
  147.3127  131.8057  152.4959 H   0  0  0  0  0  0  0  0  0  0  0  0
  146.7188  131.4482  149.5476 H   0  0  0  0  0  0  0  0  0  0  0  0
  144.1684  131.7212  148.6147 H   0  0  0  0  0  0  0  0  0  0  0  0
  142.9538  133.2670  150.5688 H   0  0  0  0  0  0  0  0  0  0  0  0
  1  2  1  0  0  0  0
  1 18  1  0  0  0  0
  1 19  1  0  0  0  0
  1 20  1  0  0  0  0
  2  3  1  0  0  0  0
  2 21  1  0  0  0  0
  2 22  1  0  0  0  0
  3  4  1  0  0  0  0
  3  5  1  0  0  0  0
  3 23  1  0  0  0  0
  4 24  1  0  0  0  0
  4 25  1  0  0  0  0
  4 26  1  0  0  0  0
  5  6  1  0  0  0  0
  5 27  1  0  0  0  0
  6  7  2  0  0  0  0
  6  8  1  0  0  0  0
  8  9  1  0  0  0  0
  8 10  1  0  0  0  0
  8 28  1  0  0  0  0
  9 29  1  0  0  0  0
  9 30  1  0  0  0  0
  9 31  1  0  0  0  0
 10 11  1  0  0  0  0
 10 32  1  0  0  0  0
 11 12  1  0  0  0  0
 11 33  1  0  0  0  0
 11 34  1  0  0  0  0
 12 13  1  0  0  0  0
 12 35  1  0  0  0  0
 12 36  1  0  0  0  0
 13 17  1  0  0  0  0
 13 14  1  0  0  0  0
 14 15  2  0  0  0  0
 14 37  1  0  0  0  0
 15 16  1  0  0  0  0
 15 38  1  0  0  0  0
 16 17  2  0  0  0  0
 16 39  1  0  0  0  0
M  END
> <s_m_source_file>
AV-unprocessed.smi

> <i_m_source_file_index>
3158

> <i_lp_mmshare_version>
43012

> <i_f3d_flags>
0

> <s_epik_input>
W0NIM11bQ0gyXVtDQEhdKFtDSDNdKVtOSF1DKD1PKVtDQEhdKFtDSDNdKVtOSF1bQ0gyXVtDSDJdbjFbY0hdW2NIXVtjSF1uMQ==

> <s_epik_cmdline>
J2VwaWtfcHl0aG9uJywgJy1waCcsICc3LjAnLCAnLXRuJywgJzgnLCAnLW1hJywgJzIwMCcsICctbWV0YWxfYmluZGluZycsICctaW1hZScsICc8aW5maWxlLm1hZT4nLCAnLW9tYWUnLCAnPG91dGZpbGUubWFlPic=

> <r_lp_tautomer_probability>
1

> <r_epik_Ionization_Penalty>
0.724013

> <r_epik_Ionization_Penalty_Charging>
0

> <r_epik_Ionization_Penalty_Neutral>
0.724013

> <r_epik_State_Penalty>
0.74758

> <r_epik_Charging_Adjusted_Penalty>
0.74758

> <i_epik_Tot_Q>
0

> <i_epik_Tot_abs_Q>
0

> <r_epik_Metal_State_Penalty>
0.746846

> <b_epik_Metal_Only>
0

> <s_lp_Force_Field>
OPLS_2005

> <r_lp_Energy>
6.38515

> <b_lp_Chiralities_Consistent>
1

> <s_lp_Variant>
AV-unprocessed.smi:3158-6

> <Gold.Version>
5.8.1

> <Gold.Id.Protein>
6NUR|6NUR_protein|mol2

> <Gold.PLP.Fitness>
41.0485

> <Gold.PLP.PLP>
-30.4352

> <Gold.PLP.part.hbond>
-2.0000

> <Gold.PLP.part.metal>
0.0000

> <Gold.PLP.part.buried>
-1.9471

> <Gold.PLP.part.nonpolar>
-25.9605

> <Gold.PLP.part.repulsive>
0.1313

> <Gold.PLP.ligand.clash>
0.0000

> <Gold.PLP.ligand.torsion>
0.7515

> <Gold.PLP.Chemscore.Hbond>
1.9440

> <Gold.PLP.Chemscore.CHOScore>
2.0000

> <Gold.PLP.Chemscore.Metal>
0.0000

> <Gold.Chemscore.Hbonds>
donor molecule, donor type, donor heavy atom, donor atom, acceptor molecule, acceptor atom, score
      L1  H     5    27       P1  7948  0.99
      L1  H    10    32       P1  7948  1.00
      L1  C    14    37       P1 10747  1.00
      L1  C    16    39       P1 10186  1.00

> <Gold.PLP.Chemscore.Internal.Correction>
0.2842

> <Gold.Rescore>
     Score         DG    S(hbond)    S(metal)    S(lipo)     H(rot)  DE(clash)    DE(int)     intcor
     14.25     -15.01       1.88        0.00      74.16       2.12       0.00       0.76       ----

> <Gold.Chemscore.Fitness>
14.2536

> <Gold.Chemscore.DG>
-15.0139

> <Gold.Chemscore.ZeroCoef>
-5.4800

> <Gold.Chemscore.Hbond>
1.8841

> <Gold.Chemscore.Metal>
0.0000

> <Gold.Chemscore.Lipo>
74.1625

> <Gold.Chemscore.Internal_Hbond>
0.0000

> <Gold.Chemscore.DEClash>
0.0000

> <Gold.Chemscore.DEInternal>
0.7603

> <Gold.Chemscore.Rot>
2.1234

> <Gold.Chemscore.Internal.Correction>
   9.000000E+99

> <Gold.Chemscore.Hbonds>
donor molecule, donor type, donor heavy atom, donor atom, acceptor molecule, acceptor atom, score
      L1  H     5    27       P1  7948  0.93
      L1  H    10    32       P1  7948  0.54

> <Gold.Chemscore.Hbond.Weighted>
-6.2928

> <Gold.Chemscore.Metal.Weighted>
-0.0000

> <Gold.Chemscore.Lipo.Weighted>
-8.6770

> <Gold.Chemscore.Internal_Hbond.Weighted>
0.0000

> <Gold.Chemscore.DEClash.Weighted>
0.0000

> <Gold.Chemscore.DEInternal.Weighted>
0.7603

> <Gold.Chemscore.Rot.Weighted>
5.4359

> <Gold.Chemscore.Internal.Correction.Weighted>
   9.000000E+99

> <Gold.Protein.RotatedTorsions>
[ 6907 6896 6895 6894 ] final    4.39 input  -60.11 | X-H torsion
[ 7974 7965 7964 7962 ] final   -1.85 input  175.53 | X-H torsion
[ 8008 7997 7996 7995 ] final   41.56 input   59.86 | X-H torsion
[ 10167 10162 10161 10158 ] final  -32.92 input  -65.29 | X-H torsion
[ 10718 10713 10712 10709 ] final -161.46 input   66.30 | X-H torsion
[ 10763 10752 10751 10750 ] final  139.37 input  -60.55 | X-H torsion
[ 11005 11000 10999 10996 ] final -154.87 input  -57.11 | X-H torsion

> <Gold.Protein.ActiveResidues>
 VAL166  LYS551  ARG553  GLY616  TRP617  ASP618  TYR619  PRO620  LYS621  CYS622 
 ASP623  PHE694  ASN695  SER759  ASP760  ASP761  ALA762  ILE779  LEU786  VAL792 
 PHE793  MET794  SER795  GLU796  ALA797  LYS798  CYS799  TRP800  GLU811  SER814 

> <Gold.Protein.RotatedAtoms>
  151.6406  135.1013  160.0140 H   0  0  0  0  0  0  0  0  0  0  0  0  # atno 6907 bound_to 6896
  152.4056  133.6880  159.6362 H   0  0  0  0  0  0  0  0  0  0  0  0  # atno 6908 bound_to 6896
  150.7951  133.8632  159.3278 H   0  0  0  0  0  0  0  0  0  0  0  0  # atno 6909 bound_to 6896
  146.2412  140.1483  142.8334 H   0  0  0  0  0  0  0  0  0  0  0  0  # atno 7974 bound_to 7965
  155.2717  140.3366  155.4265 H   0  0  0  0  0  0  0  0  0  0  0  0  # atno 8008 bound_to 7997
  156.2129  140.1777  156.7695 H   0  0  0  0  0  0  0  0  0  0  0  0  # atno 8009 bound_to 7997
  154.5712  140.0669  156.8952 H   0  0  0  0  0  0  0  0  0  0  0  0  # atno 8010 bound_to 7997
  140.7213  143.3658  151.1873 H   0  0  0  0  0  0  0  0  0  0  0  0  # atno 10167 bound_to 10162
  156.5966  130.8792  151.2903 H   0  0  0  0  0  0  0  0  0  0  0  0  # atno 10718 bound_to 10713
  153.9051  135.3017  155.3448 H   0  0  0  0  0  0  0  0  0  0  0  0  # atno 10763 bound_to 10752
  154.7651  135.4914  153.9542 H   0  0  0  0  0  0  0  0  0  0  0  0  # atno 10764 bound_to 10752
  153.1223  135.6785  153.9415 H   0  0  0  0  0  0  0  0  0  0  0  0  # atno 10765 bound_to 10752
  140.6926  134.4025  157.5218 H   0  0  0  0  0  0  0  0  0  0  0  0  # atno 11005 bound_to 11000
  145.0189  140.8777  143.5179 LP  0  0  0  0  0  0  0  0  0  0  0  0  # atno 17320 bound_to 7965
  145.1528  139.2504  143.5432 LP  0  0  0  0  0  0  0  0  0  0  0  0  # atno 17321 bound_to 7965
  139.7220  143.9209  152.2989 LP  0  0  0  0  0  0  0  0  0  0  0  0  # atno 17342 bound_to 10162
  139.8969  144.6934  150.8708 LP  0  0  0  0  0  0  0  0  0  0  0  0  # atno 17343 bound_to 10162
  157.7290  130.9665  150.1769 LP  0  0  0  0  0  0  0  0  0  0  0  0  # atno 17370 bound_to 10713
  156.2505  130.3700  149.8238 LP  0  0  0  0  0  0  0  0  0  0  0  0  # atno 17371 bound_to 10713
  139.8919  134.8768  156.2297 LP  0  0  0  0  0  0  0  0  0  0  0  0  # atno 17394 bound_to 11000
  141.0229  133.7031  156.1298 LP  0  0  0  0  0  0  0  0  0  0  0  0  # atno 17395 bound_to 11000

$$$$
