AV-unprocessed.smi:1792|AV-procd|sdf|7222|dock5
  -GOLD-   22720 8463D 1   1.00000     0.00000
 Structure written by MMmdl.
 42 43  0  0  0  0  0  0  0  0  1 V2000
  147.4410  140.0359  155.7934 C   0  0  0  0  0  0  0  0  0  0  0  0
  148.4356  139.7019  154.6555 C   0  0  0  0  0  0  0  0  0  0  0  0
  147.6323  138.9903  153.5367 C   0  0  0  0  0  0  0  0  0  0  0  0
  148.9173  141.0520  154.0505 C   0  0  0  0  0  0  0  0  0  0  0  0
  149.3303  141.9979  155.0859 N   0  0  0  0  0  0  0  0  0  0  0  0
  150.2525  141.7740  156.0318 C   0  0  0  0  0  0  0  0  0  0  0  0
  150.9016  140.7315  156.1195 O   0  0  0  0  0  0  0  0  0  0  0  0
  150.3599  142.8298  156.8574 N   0  0  0  0  0  0  0  0  0  0  0  0
  151.2020  142.9772  157.9915 C   0  0  0  0  0  0  0  0  0  0  0  0
  151.5965  144.3044  158.2744 C   0  0  0  0  0  0  0  0  0  0  0  0
  152.4285  144.5591  159.3817 C   0  0  0  0  0  0  0  0  0  0  0  0
  152.8470  143.4780  160.1777 C   0  0  0  0  0  0  0  0  0  0  0  0
  152.4107  142.1875  159.8255 C   0  0  0  0  0  0  0  0  0  0  0  0
  151.6122  141.9413  158.7653 N   0  0  0  0  0  0  0  0  0  0  0  0
  149.5804  138.8621  155.1090 N   0  0  0  0  0  0  0  0  0  0  0  0
  150.6990  138.7788  154.1628 C   0  0  0  0  0  0  0  0  0  0  0  0
  151.8909  137.9971  154.7415 C   0  0  0  0  0  0  0  0  0  0  0  0
  151.4680  136.6972  155.1347 O   0  0  0  0  0  0  0  0  0  0  0  0
  150.4249  136.7360  156.1004 C   0  0  0  0  0  0  0  0  0  0  0  0
  149.2202  137.5030  155.5301 C   0  0  0  0  0  0  0  0  0  0  0  0
  146.6163  140.6468  155.4240 H   0  0  0  0  0  0  0  0  0  0  0  0
  147.9110  140.5991  156.5993 H   0  0  0  0  0  0  0  0  0  0  0  0
  146.9967  139.1413  156.2289 H   0  0  0  0  0  0  0  0  0  0  0  0
  146.9063  139.6615  153.0759 H   0  0  0  0  0  0  0  0  0  0  0  0
  147.0631  138.1404  153.9127 H   0  0  0  0  0  0  0  0  0  0  0  0
  148.2844  138.6254  152.7422 H   0  0  0  0  0  0  0  0  0  0  0  0
  149.7331  140.8684  153.3489 H   0  0  0  0  0  0  0  0  0  0  0  0
  148.1371  141.5203  153.4508 H   0  0  0  0  0  0  0  0  0  0  0  0
  148.8472  142.8844  155.0960 H   0  0  0  0  0  0  0  0  0  0  0  0
  149.7578  143.6151  156.6598 H   0  0  0  0  0  0  0  0  0  0  0  0
  151.2655  145.1234  157.6524 H   0  0  0  0  0  0  0  0  0  0  0  0
  152.7389  145.5666  159.6156 H   0  0  0  0  0  0  0  0  0  0  0  0
  153.4856  143.6335  161.0346 H   0  0  0  0  0  0  0  0  0  0  0  0
  152.7100  141.3299  160.4097 H   0  0  0  0  0  0  0  0  0  0  0  0
  150.3777  138.2957  153.2400 H   0  0  0  0  0  0  0  0  0  0  0  0
  151.0556  139.7714  153.8934 H   0  0  0  0  0  0  0  0  0  0  0  0
  152.6800  137.9038  153.9952 H   0  0  0  0  0  0  0  0  0  0  0  0
  152.3190  138.5226  155.5965 H   0  0  0  0  0  0  0  0  0  0  0  0
  150.1379  135.7160  156.3559 H   0  0  0  0  0  0  0  0  0  0  0  0
  150.7837  137.2069  157.0170 H   0  0  0  0  0  0  0  0  0  0  0  0
  148.4490  137.5238  156.2978 H   0  0  0  0  0  0  0  0  0  0  0  0
  148.8141  136.9420  154.6884 H   0  0  0  0  0  0  0  0  0  0  0  0
  1  2  1  0  0  0  0
  1 21  1  0  0  0  0
  1 22  1  0  0  0  0
  1 23  1  0  0  0  0
  2  3  1  0  0  0  0
  2  4  1  0  0  0  0
  2 15  1  0  0  0  0
  3 24  1  0  0  0  0
  3 25  1  0  0  0  0
  3 26  1  0  0  0  0
  4  5  1  0  0  0  0
  4 27  1  0  0  0  0
  4 28  1  0  0  0  0
  5  6  1  0  0  0  0
  5 29  1  0  0  0  0
  6  7  2  0  0  0  0
  6  8  1  0  0  0  0
  8  9  1  0  0  0  0
  8 30  1  0  0  0  0
  9 14  1  0  0  0  0
  9 10  2  0  0  0  0
 10 11  1  0  0  0  0
 10 31  1  0  0  0  0
 11 12  2  0  0  0  0
 11 32  1  0  0  0  0
 12 13  1  0  0  0  0
 12 33  1  0  0  0  0
 13 14  2  0  0  0  0
 13 34  1  0  0  0  0
 15 20  1  0  0  0  0
 15 16  1  0  0  0  0
 16 17  1  0  0  0  0
 16 35  1  0  0  0  0
 16 36  1  0  0  0  0
 17 18  1  0  0  0  0
 17 37  1  0  0  0  0
 17 38  1  0  0  0  0
 18 19  1  0  0  0  0
 19 20  1  0  0  0  0
 19 39  1  0  0  0  0
 19 40  1  0  0  0  0
 20 41  1  0  0  0  0
 20 42  1  0  0  0  0
M  END
> <s_m_source_file>
AV-unprocessed.smi

> <i_m_source_file_index>
1792

> <i_lp_mmshare_version>
43012

> <i_f3d_flags>
0

> <s_epik_input>
W0NIMl0xW0NIMl1PW0NIMl1bQ0gyXU4xQyhbQ0gzXSkoW0NIM10pW0NIMl1bTkhdQyg9TylbTkhdYzJbY0hdW2NIXVtjSF1bY0hdbjI=

> <s_epik_cmdline>
J2VwaWtfcHl0aG9uJywgJy1waCcsICc3LjAnLCAnLXRuJywgJzgnLCAnLW1hJywgJzIwMCcsICctbWV0YWxfYmluZGluZycsICctaW1hZScsICc8aW5maWxlLm1hZT4nLCAnLW9tYWUnLCAnPG91dGZpbGUubWFlPic=

> <r_epik_Ionization_Penalty>
0.26604

> <r_epik_Ionization_Penalty_Charging>
0

> <r_epik_Ionization_Penalty_Neutral>
0.26604

> <r_epik_State_Penalty>
0.257924

> <r_epik_Charging_Adjusted_Penalty>
0.257924

> <i_epik_Tot_Q>
0

> <i_epik_Tot_abs_Q>
0

> <r_epik_Metal_State_Penalty>
0.257923

> <b_epik_Metal_Only>
0

> <s_lp_Force_Field>
OPLS_2005

> <r_lp_Energy>
43.4175

> <b_lp_Chiralities_Consistent>
1

> <s_lp_Variant>
AV-unprocessed.smi:1792-1

> <Gold.Version>
5.8.1

> <Gold.Id.Protein>
6NUR|6NUR_protein|mol2

> <Gold.PLP.Fitness>
46.5928

> <Gold.PLP.PLP>
-38.7189

> <Gold.PLP.part.hbond>
-3.0000

> <Gold.PLP.part.metal>
0.0000

> <Gold.PLP.part.buried>
-5.0933

> <Gold.PLP.part.nonpolar>
-30.7745

> <Gold.PLP.part.repulsive>
0.4799

> <Gold.PLP.ligand.clash>
0.0000

> <Gold.PLP.ligand.torsion>
0.5350

> <Gold.PLP.Chemscore.Hbond>
2.9600

> <Gold.PLP.Chemscore.CHOScore>
0.0000

> <Gold.PLP.Chemscore.Metal>
0.0000

> <Gold.Chemscore.Hbonds>
donor molecule, donor type, donor heavy atom, donor atom, acceptor molecule, acceptor atom, score
      L1  H     5    29       P1  8028  0.94
      L1  H     8    30       P1  8028  1.00
      P1  H 10752 10764       L1    18  1.00

> <Gold.PLP.Chemscore.Internal.Correction>
0.0640

> <Gold.Rescore>
     Score         DG    S(hbond)    S(metal)    S(lipo)     H(rot)  DE(clash)    DE(int)     intcor
     16.93     -22.13       2.70        0.00      98.08       1.50       0.45       4.76       ----

> <Gold.Chemscore.Fitness>
16.9286

> <Gold.Chemscore.DG>
-22.1307

> <Gold.Chemscore.ZeroCoef>
-5.4800

> <Gold.Chemscore.Hbond>
2.7028

> <Gold.Chemscore.Metal>
0.0000

> <Gold.Chemscore.Lipo>
98.0769

> <Gold.Chemscore.Internal_Hbond>
0.0000

> <Gold.Chemscore.DEClash>
0.4459

> <Gold.Chemscore.DEInternal>
4.7562

> <Gold.Chemscore.Rot>
1.5045

> <Gold.Chemscore.Internal.Correction>
   9.000000E+99

> <Gold.Chemscore.Hbonds>
donor molecule, donor type, donor heavy atom, donor atom, acceptor molecule, acceptor atom, score
      L1  H     5    29       P1  8028  0.91
      L1  H     8    30       P1  8028  0.99
      P1  H 10752 10764       L1    18  0.30

> <Gold.Chemscore.Hbond.Weighted>
-9.0272

> <Gold.Chemscore.Metal.Weighted>
-0.0000

> <Gold.Chemscore.Lipo.Weighted>
-11.4750

> <Gold.Chemscore.Internal_Hbond.Weighted>
0.0000

> <Gold.Chemscore.DEClash.Weighted>
0.4459

> <Gold.Chemscore.DEInternal.Weighted>
4.7562

> <Gold.Chemscore.Rot.Weighted>
3.8515

> <Gold.Chemscore.Internal.Correction.Weighted>
   9.000000E+99

> <Gold.Protein.RotatedTorsions>
[ 6907 6896 6895 6894 ] final  122.66 input  -60.11 | X-H torsion
[ 7974 7965 7964 7962 ] final  -50.82 input  175.53 | X-H torsion
[ 8008 7997 7996 7995 ] final -116.06 input   59.86 | X-H torsion
[ 10167 10162 10161 10158 ] final  -65.59 input  -65.29 | X-H torsion
[ 10718 10713 10712 10709 ] final -162.95 input   66.30 | X-H torsion
[ 10763 10752 10751 10750 ] final  -66.86 input  -60.55 | X-H torsion
[ 11005 11000 10999 10996 ] final  -52.76 input  -57.11 | X-H torsion

> <Gold.Protein.ActiveResidues>
 VAL166  LYS551  ARG553  GLY616  TRP617  ASP618  TYR619  PRO620  LYS621  CYS622 
 ASP623  PHE694  ASN695  SER759  ASP760  ASP761  ALA762  ILE779  LEU786  VAL792 
 PHE793  MET794  SER795  GLU796  ALA797  LYS798  CYS799  TRP800  GLU811  SER814 

> <Gold.Protein.RotatedAtoms>
  152.4225  133.7140  159.6494 H   0  0  0  0  0  0  0  0  0  0  0  0  # atno 6907 bound_to 6896
  150.8101  133.8427  159.3192 H   0  0  0  0  0  0  0  0  0  0  0  0  # atno 6908 bound_to 6896
  151.6139  135.1040  160.0138 H   0  0  0  0  0  0  0  0  0  0  0  0  # atno 6909 bound_to 6896
  145.9257  140.7794  142.9625 H   0  0  0  0  0  0  0  0  0  0  0  0  # atno 7974 bound_to 7965
  155.0619  140.0393  157.2579 H   0  0  0  0  0  0  0  0  0  0  0  0  # atno 8008 bound_to 7997
  154.7053  140.2681  155.6656 H   0  0  0  0  0  0  0  0  0  0  0  0  # atno 8009 bound_to 7997
  156.2773  140.2732  156.1676 H   0  0  0  0  0  0  0  0  0  0  0  0  # atno 8010 bound_to 7997
  140.5719  143.2318  151.6521 H   0  0  0  0  0  0  0  0  0  0  0  0  # atno 10167 bound_to 10162
  156.6177  130.8877  151.2950 H   0  0  0  0  0  0  0  0  0  0  0  0  # atno 10718 bound_to 10713
  154.3660  135.6105  153.5715 H   0  0  0  0  0  0  0  0  0  0  0  0  # atno 10763 bound_to 10752
  152.9792  135.5826  154.4578 H   0  0  0  0  0  0  0  0  0  0  0  0  # atno 10764 bound_to 10752
  154.4323  135.2848  155.1881 H   0  0  0  0  0  0  0  0  0  0  0  0  # atno 10765 bound_to 10752
  141.0941  133.6627  156.4072 H   0  0  0  0  0  0  0  0  0  0  0  0  # atno 11005 bound_to 11000
  144.6758  140.2046  143.7383 LP  0  0  0  0  0  0  0  0  0  0  0  0  # atno 17320 bound_to 7965
  145.8492  139.2167  143.1782 LP  0  0  0  0  0  0  0  0  0  0  0  0  # atno 17321 bound_to 7965
  139.5122  144.3484  152.0675 LP  0  0  0  0  0  0  0  0  0  0  0  0  # atno 17342 bound_to 10162
  140.2623  144.4054  150.6181 LP  0  0  0  0  0  0  0  0  0  0  0  0  # atno 17343 bound_to 10162
  157.7236  130.9592  150.1542 LP  0  0  0  0  0  0  0  0  0  0  0  0  # atno 17370 bound_to 10713
  156.2337  130.3684  149.8415 LP  0  0  0  0  0  0  0  0  0  0  0  0  # atno 17371 bound_to 10713
  140.5182  134.6329  157.5309 LP  0  0  0  0  0  0  0  0  0  0  0  0  # atno 17394 bound_to 11000
  139.9773  134.7194  155.9925 LP  0  0  0  0  0  0  0  0  0  0  0  0  # atno 17395 bound_to 11000

$$$$
