AV-unprocessed.smi:2580|AV-procd|sdf|10130|dock5
  -GOLD-   2272014143D 1   1.00000     0.00000
 Structure written by MMmdl.
 29 30  0  0  0  0  0  0  0  0  1 V2000
  149.7499  138.9340  154.1962 C   0  0  0  0  0  0  0  0  0  0  0  0
  150.6574  138.7406  155.4216 C   0  0  1  0  0  0  0  0  0  0  0  0
  151.5611  137.5287  155.3205 C   0  0  0  0  0  0  0  0  0  0  0  0
  152.6256  137.8384  156.3668 C   0  0  0  0  0  0  0  0  0  0  0  0
  152.7511  139.2567  156.3831 O   0  0  0  0  0  0  0  0  0  0  0  0
  151.6852  139.8616  155.6484 C   0  0  2  0  0  0  0  0  0  0  0  0
  151.1573  141.0913  156.4043 C   0  0  0  0  0  0  0  0  0  0  0  0
  150.1874  141.7119  155.9682 O   0  0  0  0  0  0  0  0  0  0  0  0
  151.8293  141.4216  157.5233 N   0  0  0  0  0  0  0  0  0  0  0  0
  151.5848  142.4935  158.4249 C   0  0  0  0  0  0  0  0  0  0  0  0
  150.6479  143.4495  158.2005 N   0  0  0  0  0  0  0  0  0  0  0  0
  150.4765  144.4354  159.1052 C   0  0  0  0  0  0  0  0  0  0  0  0
  151.2278  144.5307  160.2899 C   0  0  0  0  0  0  0  0  0  0  0  0
  152.2028  143.5482  160.5358 C   0  0  0  0  0  0  0  0  0  0  0  0
  152.3866  142.5158  159.5947 C   0  0  0  0  0  0  0  0  0  0  0  0
  153.5858  141.3052  159.8953 Cl  0  0  0  0  0  0  0  0  0  0  0  0
  150.3337  139.0466  153.2822 H   0  0  0  0  0  0  0  0  0  0  0  0
  149.1231  139.8194  154.3001 H   0  0  0  0  0  0  0  0  0  0  0  0
  149.0885  138.0775  154.0646 H   0  0  0  0  0  0  0  0  0  0  0  0
  150.0340  138.6314  156.3113 H   0  0  0  0  0  0  0  0  0  0  0  0
  151.0416  136.5887  155.5088 H   0  0  0  0  0  0  0  0  0  0  0  0
  152.0174  137.4744  154.3309 H   0  0  0  0  0  0  0  0  0  0  0  0
  152.2962  137.5091  157.3529 H   0  0  0  0  0  0  0  0  0  0  0  0
  153.5783  137.3557  156.1485 H   0  0  0  0  0  0  0  0  0  0  0  0
  152.0930  140.1887  154.6908 H   0  0  0  0  0  0  0  0  0  0  0  0
  152.6052  140.8218  157.7650 H   0  0  0  0  0  0  0  0  0  0  0  0
  149.7183  145.1697  158.8770 H   0  0  0  0  0  0  0  0  0  0  0  0
  151.0608  145.3358  160.9901 H   0  0  0  0  0  0  0  0  0  0  0  0
  152.8014  143.5862  161.4341 H   0  0  0  0  0  0  0  0  0  0  0  0
  1  2  1  0  0  0  0
  1 17  1  0  0  0  0
  1 18  1  0  0  0  0
  1 19  1  0  0  0  0
  2  6  1  0  0  0  0
  2  3  1  0  0  0  0
  2 20  1  0  0  0  0
  3  4  1  0  0  0  0
  3 21  1  0  0  0  0
  3 22  1  0  0  0  0
  4  5  1  0  0  0  0
  4 23  1  0  0  0  0
  4 24  1  0  0  0  0
  5  6  1  0  0  0  0
  6  7  1  0  0  0  0
  6 25  1  0  0  0  0
  7  8  2  0  0  0  0
  7  9  1  0  0  0  0
  9 10  1  0  0  0  0
  9 26  1  0  0  0  0
 10 15  1  0  0  0  0
 10 11  2  0  0  0  0
 11 12  1  0  0  0  0
 12 13  2  0  0  0  0
 12 27  1  0  0  0  0
 13 14  1  0  0  0  0
 13 28  1  0  0  0  0
 14 15  2  0  0  0  0
 14 29  1  0  0  0  0
 15 16  1  0  0  0  0
M  END
> <s_m_source_file>
AV-unprocessed.smi

> <i_m_source_file_index>
2580

> <i_lp_mmshare_version>
43012

> <i_f3d_flags>
0

> <s_epik_input>
W0NIM11bQ0BASF0xW0NIMl1bQ0gyXU9bQ0BIXTFDKD1PKVtOSF1jMm5bY0hdW2NIXVtjSF1jMkNs

> <s_epik_cmdline>
J2VwaWtfcHl0aG9uJywgJy1waCcsICc3LjAnLCAnLXRuJywgJzgnLCAnLW1hJywgJzIwMCcsICctbWV0YWxfYmluZGluZycsICctaW1hZScsICc8aW5maWxlLm1hZT4nLCAnLW9tYWUnLCAnPG91dGZpbGUubWFlPic=

> <r_lp_tautomer_probability>
1

> <r_epik_Ionization_Penalty>
4.32497e-05

> <r_epik_Ionization_Penalty_Charging>
0

> <r_epik_Ionization_Penalty_Neutral>
4.32497e-05

> <r_epik_State_Penalty>
-0

> <r_epik_Charging_Adjusted_Penalty>
0

> <i_epik_Tot_Q>
0

> <i_epik_Tot_abs_Q>
0

> <r_epik_Metal_State_Penalty>
-0

> <b_epik_Metal_Only>
0

> <s_lp_Force_Field>
OPLS_2005

> <r_lp_Energy>
21.1194

> <b_lp_Chiralities_Consistent>
1

> <s_lp_Variant>
AV-unprocessed.smi:2580-4

> <Gold.Version>
5.8.1

> <Gold.Id.Protein>
6NUR|6NUR_protein|mol2

> <Gold.PLP.Fitness>
38.4164

> <Gold.PLP.PLP>
-32.4857

> <Gold.PLP.part.hbond>
-1.0000

> <Gold.PLP.part.metal>
0.0000

> <Gold.PLP.part.buried>
-3.2617

> <Gold.PLP.part.nonpolar>
-28.8063

> <Gold.PLP.part.repulsive>
0.3399

> <Gold.PLP.ligand.clash>
0.0000

> <Gold.PLP.ligand.torsion>
0.0355

> <Gold.PLP.Chemscore.Hbond>
1.0000

> <Gold.PLP.Chemscore.CHOScore>
1.0000

> <Gold.PLP.Chemscore.Metal>
0.0000

> <Gold.Chemscore.Hbonds>
donor molecule, donor type, donor heavy atom, donor atom, acceptor molecule, acceptor atom, score
      P1  H  7997  8008       L1     5  1.00
      L1  C    12    27       P1  8029  0.98

> <Gold.PLP.Chemscore.Internal.Correction>
0.0017

> <Gold.Rescore>
     Score         DG    S(hbond)    S(metal)    S(lipo)     H(rot)  DE(clash)    DE(int)     intcor
     14.75     -16.07       0.99        0.00      84.22       1.00       0.02       1.31       ----

> <Gold.Chemscore.Fitness>
14.7482

> <Gold.Chemscore.DG>
-16.0748

> <Gold.Chemscore.ZeroCoef>
-5.4800

> <Gold.Chemscore.Hbond>
0.9882

> <Gold.Chemscore.Metal>
0.0000

> <Gold.Chemscore.Lipo>
84.2225

> <Gold.Chemscore.Internal_Hbond>
0.0000

> <Gold.Chemscore.DEClash>
0.0174

> <Gold.Chemscore.DEInternal>
1.3092

> <Gold.Chemscore.Rot>
1.0000

> <Gold.Chemscore.Internal.Correction>
   9.000000E+99

> <Gold.Chemscore.Hbonds>
donor molecule, donor type, donor heavy atom, donor atom, acceptor molecule, acceptor atom, score
      P1  H  7997  8008       L1     5  0.78

> <Gold.Chemscore.Hbond.Weighted>
-3.3007

> <Gold.Chemscore.Metal.Weighted>
-0.0000

> <Gold.Chemscore.Lipo.Weighted>
-9.8540

> <Gold.Chemscore.Internal_Hbond.Weighted>
0.0000

> <Gold.Chemscore.DEClash.Weighted>
0.0174

> <Gold.Chemscore.DEInternal.Weighted>
1.3092

> <Gold.Chemscore.Rot.Weighted>
2.5600

> <Gold.Chemscore.Internal.Correction.Weighted>
   9.000000E+99

> <Gold.Protein.RotatedTorsions>
[ 6907 6896 6895 6894 ] final   51.71 input  -60.11 | X-H torsion
[ 7974 7965 7964 7962 ] final  -62.86 input  175.53 | X-H torsion
[ 8008 7997 7996 7995 ] final  -27.30 input   59.86 | X-H torsion
[ 10167 10162 10161 10158 ] final  120.50 input  -65.29 | X-H torsion
[ 10718 10713 10712 10709 ] final  -46.79 input   66.30 | X-H torsion
[ 10763 10752 10751 10750 ] final  117.19 input  -60.55 | X-H torsion
[ 11005 11000 10999 10996 ] final  142.61 input  -57.11 | X-H torsion

> <Gold.Protein.ActiveResidues>
 VAL166  LYS551  ARG553  GLY616  TRP617  ASP618  TYR619  PRO620  LYS621  CYS622 
 ASP623  PHE694  ASN695  SER759  ASP760  ASP761  ALA762  ILE779  LEU786  VAL792 
 PHE793  MET794  SER795  GLU796  ALA797  LYS798  CYS799  TRP800  GLU811  SER814 

> <Gold.Protein.RotatedAtoms>
  152.3155  134.7445  160.0326 H   0  0  0  0  0  0  0  0  0  0  0  0  # atno 6907 bound_to 6896
  151.7911  133.3354  159.3507 H   0  0  0  0  0  0  0  0  0  0  0  0  # atno 6908 bound_to 6896
  150.7342  134.5772  159.5965 H   0  0  0  0  0  0  0  0  0  0  0  0  # atno 6909 bound_to 6896
  145.7861  140.8735  143.0305 H   0  0  0  0  0  0  0  0  0  0  0  0  # atno 7974 bound_to 7965
  154.4384  140.1876  156.0910 H   0  0  0  0  0  0  0  0  0  0  0  0  # atno 8008 bound_to 7997
  156.0365  140.3324  155.7171 H   0  0  0  0  0  0  0  0  0  0  0  0  # atno 8009 bound_to 7997
  155.5762  140.0617  157.2785 H   0  0  0  0  0  0  0  0  0  0  0  0  # atno 8010 bound_to 7997
  139.5978  144.7047  151.3134 H   0  0  0  0  0  0  0  0  0  0  0  0  # atno 10167 bound_to 10162
  156.2148  130.4162  149.9068 H   0  0  0  0  0  0  0  0  0  0  0  0  # atno 10718 bound_to 10713
  153.5486  135.3544  155.2750 H   0  0  0  0  0  0  0  0  0  0  0  0  # atno 10763 bound_to 10752
  154.8709  135.4108  154.2962 H   0  0  0  0  0  0  0  0  0  0  0  0  # atno 10764 bound_to 10752
  153.3684  135.7063  153.6725 H   0  0  0  0  0  0  0  0  0  0  0  0  # atno 10765 bound_to 10752
  140.0490  134.9265  157.0982 H   0  0  0  0  0  0  0  0  0  0  0  0  # atno 11005 bound_to 11000
  144.6789  140.0058  143.7484 LP  0  0  0  0  0  0  0  0  0  0  0  0  # atno 17320 bound_to 7965
  146.0024  139.3102  143.0919 LP  0  0  0  0  0  0  0  0  0  0  0  0  # atno 17321 bound_to 7965
  140.7226  143.7094  150.7781 LP  0  0  0  0  0  0  0  0  0  0  0  0  # atno 17342 bound_to 10162
  140.0664  143.5104  152.2602 LP  0  0  0  0  0  0  0  0  0  0  0  0  # atno 17343 bound_to 10162
  156.6734  130.8829  151.3565 LP  0  0  0  0  0  0  0  0  0  0  0  0  # atno 17370 bound_to 10713
  157.7057  130.9383  150.0924 LP  0  0  0  0  0  0  0  0  0  0  0  0  # atno 17371 bound_to 10713
  140.3948  134.2146  155.7165 LP  0  0  0  0  0  0  0  0  0  0  0  0  # atno 17394 bound_to 11000
  141.1921  133.8180  157.0853 LP  0  0  0  0  0  0  0  0  0  0  0  0  # atno 17395 bound_to 11000

$$$$
