AV-unprocessed.smi:2120|AV-procd|sdf|8639|dock6
  -GOLD-   2272011383D 1   1.00000     0.00000
 Structure written by MMmdl.
 46 49  0  0  0  0  0  0  0  0  2 V2000
  147.0586  138.9659  151.1096 O   0  0  0  0  0  0  0  0  0  0  0  0
  146.8957  138.6142  152.2790 C   0  0  0  0  0  0  0  0  0  0  0  0
  146.3168  137.4438  152.5971 N   0  0  0  0  0  0  0  0  0  0  0  0
  145.8129  136.4688  151.6374 C   0  0  0  0  0  0  0  0  0  0  0  0
  145.9269  135.0306  152.1722 C   0  0  0  0  0  0  0  0  0  0  0  0
  145.3411  134.0124  151.2132 C   0  0  0  0  0  0  0  0  0  0  0  0
  146.0989  132.8894  150.8134 C   0  0  0  0  0  0  0  0  0  0  0  0
  145.5334  131.9552  149.9207 C   0  0  0  0  0  0  0  0  0  0  0  0
  144.2210  132.1637  149.4499 C   0  0  0  0  0  0  0  0  0  0  0  0
  143.5256  133.2491  149.8556 N   0  3  0  0  0  0  0  0  0  0  0  0
  144.0321  134.1676  150.7075 C   0  0  0  0  0  0  0  0  0  0  0  0
  147.3726  139.5343  153.4278 C   0  0  0  0  0  0  0  0  0  0  0  0
  147.7787  140.9133  152.8399 C   0  0  0  0  0  0  0  0  0  0  0  0
  148.2104  141.8732  153.9699 C   0  0  1  0  0  0  0  0  0  0  0  0
  147.0358  142.0781  154.9492 C   0  0  0  0  0  0  0  0  0  0  0  0
  146.6381  140.7169  155.5575 C   0  0  2  0  0  0  0  0  0  0  0  0
  147.8392  140.1179  156.3174 C   0  0  0  0  0  0  0  0  0  0  0  0
  149.0129  139.9190  155.3363 C   0  0  2  0  0  0  0  0  0  0  0  0
  149.4164  141.2771  154.7253 C   0  0  0  0  0  0  0  0  0  0  0  0
  148.5883  138.9525  154.2101 C   0  0  0  0  0  0  0  0  0  0  0  0
  146.2054  139.7546  154.4304 C   0  0  0  0  0  0  0  0  0  0  0  0
  146.2138  137.2191  153.5763 H   0  0  0  0  0  0  0  0  0  0  0  0
  144.7693  136.7061  151.4290 H   0  0  0  0  0  0  0  0  0  0  0  0
  146.3502  136.5734  150.6933 H   0  0  0  0  0  0  0  0  0  0  0  0
  146.9715  134.7709  152.3483 H   0  0  0  0  0  0  0  0  0  0  0  0
  145.4248  134.9512  153.1375 H   0  0  0  0  0  0  0  0  0  0  0  0
  147.1034  132.7459  151.1848 H   0  0  0  0  0  0  0  0  0  0  0  0
  146.0986  131.0912  149.6024 H   0  0  0  0  0  0  0  0  0  0  0  0
  143.7108  131.5004  148.7667 H   0  0  0  0  0  0  0  0  0  0  0  0
  143.3786  134.9913  150.9563 H   0  0  0  0  0  0  0  0  0  0  0  0
  148.5955  140.7954  152.1258 H   0  0  0  0  0  0  0  0  0  0  0  0
  146.9505  141.3560  152.2839 H   0  0  0  0  0  0  0  0  0  0  0  0
  148.4931  142.8342  153.5389 H   0  0  0  0  0  0  0  0  0  0  0  0
  147.3178  142.7771  155.7376 H   0  0  0  0  0  0  0  0  0  0  0  0
  146.1854  142.5238  154.4318 H   0  0  0  0  0  0  0  0  0  0  0  0
  145.8071  140.8592  156.2491 H   0  0  0  0  0  0  0  0  0  0  0  0
  148.1364  140.7772  157.1341 H   0  0  0  0  0  0  0  0  0  0  0  0
  147.5616  139.1669  156.7736 H   0  0  0  0  0  0  0  0  0  0  0  0
  149.8635  139.4974  155.8726 H   0  0  0  0  0  0  0  0  0  0  0  0
  150.2627  141.1518  154.0488 H   0  0  0  0  0  0  0  0  0  0  0  0
  149.7472  141.9607  155.5083 H   0  0  0  0  0  0  0  0  0  0  0  0
  148.3391  137.9811  154.6405 H   0  0  0  0  0  0  0  0  0  0  0  0
  149.4355  138.7884  153.5422 H   0  0  0  0  0  0  0  0  0  0  0  0
  145.3301  140.1651  153.9242 H   0  0  0  0  0  0  0  0  0  0  0  0
  145.8895  138.8025  154.8597 H   0  0  0  0  0  0  0  0  0  0  0  0
  142.5767  133.3802  149.5039 H   0  0  0  0  0  0  0  0  0  0  0  0
  1  2  2  0  0  0  0
  2  3  1  0  0  0  0
  2 12  1  0  0  0  0
  3  4  1  0  0  0  0
  3 22  1  0  0  0  0
  4  5  1  0  0  0  0
  4 23  1  0  0  0  0
  4 24  1  0  0  0  0
  5  6  1  0  0  0  0
  5 25  1  0  0  0  0
  5 26  1  0  0  0  0
  6 11  1  0  0  0  0
  6  7  2  0  0  0  0
  7  8  1  0  0  0  0
  7 27  1  0  0  0  0
  8  9  2  0  0  0  0
  8 28  1  0  0  0  0
  9 10  1  0  0  0  0
  9 29  1  0  0  0  0
 10 11  2  0  0  0  0
 10 46  1  0  0  0  0
 11 30  1  0  0  0  0
 12 20  1  0  0  0  0
 12 21  1  0  0  0  0
 12 13  1  0  0  0  0
 13 14  1  0  0  0  0
 13 31  1  0  0  0  0
 13 32  1  0  0  0  0
 14 19  1  0  0  0  0
 14 15  1  0  0  0  0
 14 33  1  0  0  0  0
 15 16  1  0  0  0  0
 15 34  1  0  0  0  0
 15 35  1  0  0  0  0
 16 17  1  0  0  0  0
 16 21  1  0  0  0  0
 16 36  1  0  0  0  0
 17 18  1  0  0  0  0
 17 37  1  0  0  0  0
 17 38  1  0  0  0  0
 18 19  1  0  0  0  0
 18 20  1  0  0  0  0
 18 39  1  0  0  0  0
 19 40  1  0  0  0  0
 19 41  1  0  0  0  0
 20 42  1  0  0  0  0
 20 43  1  0  0  0  0
 21 44  1  0  0  0  0
 21 45  1  0  0  0  0
M  CHG  1  10   1
M  END
> <s_m_source_file>
AV-unprocessed.smi

> <i_m_source_file_index>
2120

> <i_lp_mmshare_version>
43012

> <i_f3d_flags>
0

> <s_epik_input>
W0NIMl0xW0NASF0oW0NIMl0yKVtDSDJdW0NASF0oW0NIMl0zKVtDSDJdW0NAQEhdMVtDSDJdQzIzQyg9TylbTkhdW0NIMl1bQ0gyXWM0W2NIXVtjSF1bY0hdbltjSF00

> <s_epik_cmdline>
J2VwaWtfcHl0aG9uJywgJy1waCcsICc3LjAnLCAnLXRuJywgJzgnLCAnLW1hJywgJzIwMCcsICctbWV0YWxfYmluZGluZycsICctaW1hZScsICc8aW5maWxlLm1hZT4nLCAnLW9tYWUnLCAnPG91dGZpbGUubWFlPic=

> <r_epik_Ionization_Penalty>
2.23732

> <r_epik_Ionization_Penalty_Charging>
2.23732

> <r_epik_Ionization_Penalty_Neutral>
2.68417e-08

> <r_epik_State_Penalty>
2.38345

> <r_epik_Charging_Adjusted_Penalty>
4.62076

> <i_epik_Tot_Q>
1

> <i_epik_Tot_abs_Q>
1

> <r_epik_Metal_State_Penalty>
2.39692

> <b_epik_Metal_Only>
0

> <s_lp_Force_Field>
OPLS_2005

> <r_lp_Energy>
42.1143

> <b_lp_Chiralities_Consistent>
1

> <s_lp_Variant>
AV-unprocessed.smi:2120-2

> <Gold.Version>
5.8.1

> <Gold.Id.Protein>
6NUR|6NUR_protein|mol2

> <Gold.PLP.Fitness>
43.4917

> <Gold.PLP.PLP>
-37.3173

> <Gold.PLP.part.hbond>
-2.8390

> <Gold.PLP.part.metal>
0.0000

> <Gold.PLP.part.buried>
-0.7078

> <Gold.PLP.part.nonpolar>
-34.8248

> <Gold.PLP.part.repulsive>
1.7506

> <Gold.PLP.ligand.clash>
0.0000

> <Gold.PLP.ligand.torsion>
0.4811

> <Gold.PLP.Chemscore.Hbond>
2.3747

> <Gold.PLP.Chemscore.CHOScore>
0.0000

> <Gold.PLP.Chemscore.Metal>
0.0000

> <Gold.Chemscore.Hbonds>
donor molecule, donor type, donor heavy atom, donor atom, acceptor molecule, acceptor atom, score
      L1  H    10    46       P1 10186  1.89
      P1  H  7954  7966       L1     1  0.83

> <Gold.PLP.Chemscore.Internal.Correction>
0.0124

> <Gold.Rescore>
     Score         DG    S(hbond)    S(metal)    S(lipo)     H(rot)  DE(clash)    DE(int)     intcor
     15.72     -18.01       1.30        0.00     100.99       1.41       1.86       0.43       ----

> <Gold.Chemscore.Fitness>
15.7208

> <Gold.Chemscore.DG>
-18.0087

> <Gold.Chemscore.ZeroCoef>
-5.4800

> <Gold.Chemscore.Hbond>
1.2976

> <Gold.Chemscore.Metal>
0.0000

> <Gold.Chemscore.Lipo>
100.9892

> <Gold.Chemscore.Internal_Hbond>
0.0000

> <Gold.Chemscore.DEClash>
1.8583

> <Gold.Chemscore.DEInternal>
0.4296

> <Gold.Chemscore.Rot>
1.4145

> <Gold.Chemscore.Internal.Correction>
   9.000000E+99

> <Gold.Chemscore.Hbonds>
donor molecule, donor type, donor heavy atom, donor atom, acceptor molecule, acceptor atom, score
      L1  H    10    46       P1 10186  0.91
      P1  H  7954  7966       L1     1  0.80

> <Gold.Chemscore.Hbond.Weighted>
-4.3340

> <Gold.Chemscore.Metal.Weighted>
-0.0000

> <Gold.Chemscore.Lipo.Weighted>
-11.8157

> <Gold.Chemscore.Internal_Hbond.Weighted>
0.0000

> <Gold.Chemscore.DEClash.Weighted>
1.8583

> <Gold.Chemscore.DEInternal.Weighted>
0.4296

> <Gold.Chemscore.Rot.Weighted>
3.6210

> <Gold.Chemscore.Internal.Correction.Weighted>
   9.000000E+99

> <Gold.Protein.RotatedTorsions>
[ 6907 6896 6895 6894 ] final -127.33 input  -60.11 | X-H torsion
[ 7974 7965 7964 7962 ] final   64.96 input  175.53 | X-H torsion
[ 8008 7997 7996 7995 ] final  -33.39 input   59.86 | X-H torsion
[ 10167 10162 10161 10158 ] final  -66.23 input  -65.29 | X-H torsion
[ 10718 10713 10712 10709 ] final  155.44 input   66.30 | X-H torsion
[ 10763 10752 10751 10750 ] final -128.06 input  -60.55 | X-H torsion
[ 11005 11000 10999 10996 ] final   28.36 input  -57.11 | X-H torsion

> <Gold.Protein.ActiveResidues>
 VAL166  LYS551  ARG553  GLY616  TRP617  ASP618  TYR619  PRO620  LYS621  CYS622 
 ASP623  PHE694  ASN695  SER759  ASP760  ASP761  ALA762  ILE779  LEU786  VAL792 
 PHE793  MET794  SER795  GLU796  ALA797  LYS798  CYS799  TRP800  GLU811  SER814 

> <Gold.Protein.RotatedAtoms>
  150.9062  133.7055  159.2866 H   0  0  0  0  0  0  0  0  0  0  0  0  # atno 6907 bound_to 6896
  151.4557  135.1032  159.9720 H   0  0  0  0  0  0  0  0  0  0  0  0  # atno 6908 bound_to 6896
  152.4905  133.8437  159.7221 H   0  0  0  0  0  0  0  0  0  0  0  0  # atno 6909 bound_to 6896
  145.8441  139.3213  143.0914 H   0  0  0  0  0  0  0  0  0  0  0  0  # atno 7974 bound_to 7965
  154.4150  140.1712  156.1880 H   0  0  0  0  0  0  0  0  0  0  0  0  # atno 8008 bound_to 7997
  155.9627  140.3392  155.6481 H   0  0  0  0  0  0  0  0  0  0  0  0  # atno 8009 bound_to 7997
  155.6728  140.0713  157.2504 H   0  0  0  0  0  0  0  0  0  0  0  0  # atno 8010 bound_to 7997
  140.5672  143.2315  151.6611 H   0  0  0  0  0  0  0  0  0  0  0  0  # atno 10167 bound_to 10162
  157.2183  131.0713  151.1928 H   0  0  0  0  0  0  0  0  0  0  0  0  # atno 10718 bound_to 10713
  154.8755  135.3941  154.3695 H   0  0  0  0  0  0  0  0  0  0  0  0  # atno 10763 bound_to 10752
  153.4457  135.7027  153.6146 H   0  0  0  0  0  0  0  0  0  0  0  0  # atno 10764 bound_to 10752
  153.4708  135.3791  155.2358 H   0  0  0  0  0  0  0  0  0  0  0  0  # atno 10765 bound_to 10752
  140.3164  134.2592  155.7725 H   0  0  0  0  0  0  0  0  0  0  0  0  # atno 11005 bound_to 11000
  145.9432  140.8964  143.0297 LP  0  0  0  0  0  0  0  0  0  0  0  0  # atno 17320 bound_to 7965
  144.6732  140.1577  143.7425 LP  0  0  0  0  0  0  0  0  0  0  0  0  # atno 17321 bound_to 7965
  139.5099  144.3562  152.0606 LP  0  0  0  0  0  0  0  0  0  0  0  0  # atno 17342 bound_to 10162
  140.2695  144.3980  150.6156 LP  0  0  0  0  0  0  0  0  0  0  0  0  # atno 17343 bound_to 10162
  157.3602  130.7127  149.6497 LP  0  0  0  0  0  0  0  0  0  0  0  0  # atno 17370 bound_to 10713
  155.9684  130.4227  150.4531 LP  0  0  0  0  0  0  0  0  0  0  0  0  # atno 17371 bound_to 10713
  141.2097  133.7742  156.9982 LP  0  0  0  0  0  0  0  0  0  0  0  0  # atno 17394 bound_to 11000
  140.0980  134.9553  157.1879 LP  0  0  0  0  0  0  0  0  0  0  0  0  # atno 17395 bound_to 11000

$$$$
