AV-unprocessed.smi:1233|AV-procd|sdf|5171|dock1
  -GOLD-   22720 4243D 1   1.00000     0.00000
 Structure written by MMmdl.
 38 39  0  0  0  0  0  0  0  0  1 V2000
  146.4332  132.4123  152.0033 C   0  0  0  0  0  0  0  0  0  0  0  0
  147.4632  133.1249  152.6795 O   0  0  0  0  0  0  0  0  0  0  0  0
  148.3188  132.4218  153.5062 C   0  0  0  0  0  0  0  0  0  0  0  0
  148.2293  131.0678  153.5260 N   0  0  0  0  0  0  0  0  0  0  0  0
  149.0613  130.3805  154.3351 C   0  0  0  0  0  0  0  0  0  0  0  0
  150.0121  130.9994  155.1674 C   0  0  0  0  0  0  0  0  0  0  0  0
  150.1069  132.4033  155.1486 C   0  0  0  0  0  0  0  0  0  0  0  0
  149.2523  133.1377  154.2914 C   0  0  0  0  0  0  0  0  0  0  0  0
  149.2532  134.5573  154.2093 N   0  0  0  0  0  0  0  0  0  0  0  0
  149.8257  135.4416  155.0432 C   0  0  0  0  0  0  0  0  0  0  0  0
  150.4596  135.1556  156.0591 O   0  0  0  0  0  0  0  0  0  0  0  0
  149.6405  136.6994  154.6150 N   0  0  0  0  0  0  0  0  0  0  0  0
  150.1923  137.9014  155.2431 C   0  0  2  0  0  0  0  0  0  0  0  0
  149.4822  139.1336  154.6271 C   0  0  0  0  0  0  0  0  0  0  0  0
  150.1712  140.5012  154.8350 C   0  0  0  0  0  0  0  0  0  0  0  0
  150.7063  140.7570  156.2586 C   0  0  0  0  0  0  0  0  0  0  0  0
  151.7940  139.7821  156.7797 C   0  0  0  0  0  0  0  0  0  0  0  0
  152.3854  138.9166  155.7591 N   0  0  0  0  0  0  0  0  0  0  0  0
  151.7178  138.0122  155.0227 C   0  0  0  0  0  0  0  0  0  0  0  0
  152.2925  137.3177  154.1849 O   0  0  0  0  0  0  0  0  0  0  0  0
  145.8564  133.1067  151.3924 H   0  0  0  0  0  0  0  0  0  0  0  0
  145.7461  131.9421  152.7081 H   0  0  0  0  0  0  0  0  0  0  0  0
  146.8435  131.6503  151.3392 H   0  0  0  0  0  0  0  0  0  0  0  0
  148.9610  129.3053  154.3237 H   0  0  0  0  0  0  0  0  0  0  0  0
  150.6512  130.4111  155.8090 H   0  0  0  0  0  0  0  0  0  0  0  0
  150.8189  132.8876  155.7988 H   0  0  0  0  0  0  0  0  0  0  0  0
  148.8450  134.9399  153.3688 H   0  0  0  0  0  0  0  0  0  0  0  0
  149.1116  136.8368  153.7664 H   0  0  0  0  0  0  0  0  0  0  0  0
  149.9814  137.8599  156.3127 H   0  0  0  0  0  0  0  0  0  0  0  0
  149.3491  138.9887  153.5535 H   0  0  0  0  0  0  0  0  0  0  0  0
  148.4748  139.1851  155.0420 H   0  0  0  0  0  0  0  0  0  0  0  0
  150.9879  140.6127  154.1204 H   0  0  0  0  0  0  0  0  0  0  0  0
  149.4629  141.2888  154.5764 H   0  0  0  0  0  0  0  0  0  0  0  0
  151.1170  141.7670  156.2802 H   0  0  0  0  0  0  0  0  0  0  0  0
  149.8731  140.7700  156.9619 H   0  0  0  0  0  0  0  0  0  0  0  0
  152.5975  140.3508  157.2483 H   0  0  0  0  0  0  0  0  0  0  0  0
  151.3834  139.1558  157.5729 H   0  0  0  0  0  0  0  0  0  0  0  0
  153.3804  139.0020  155.6092 H   0  0  0  0  0  0  0  0  0  0  0  0
  1  2  1  0  0  0  0
  1 21  1  0  0  0  0
  1 22  1  0  0  0  0
  1 23  1  0  0  0  0
  2  3  1  0  0  0  0
  3  8  1  0  0  0  0
  3  4  2  0  0  0  0
  4  5  1  0  0  0  0
  5  6  2  0  0  0  0
  5 24  1  0  0  0  0
  6  7  1  0  0  0  0
  6 25  1  0  0  0  0
  7  8  2  0  0  0  0
  7 26  1  0  0  0  0
  8  9  1  0  0  0  0
  9 10  1  0  0  0  0
  9 27  1  0  0  0  0
 10 11  2  0  0  0  0
 10 12  1  0  0  0  0
 12 13  1  0  0  0  0
 12 28  1  0  0  0  0
 13 19  1  0  0  0  0
 13 14  1  0  0  0  0
 13 29  1  0  0  0  0
 14 15  1  0  0  0  0
 14 30  1  0  0  0  0
 14 31  1  0  0  0  0
 15 16  1  0  0  0  0
 15 32  1  0  0  0  0
 15 33  1  0  0  0  0
 16 17  1  0  0  0  0
 16 34  1  0  0  0  0
 16 35  1  0  0  0  0
 17 18  1  0  0  0  0
 17 36  1  0  0  0  0
 17 37  1  0  0  0  0
 18 19  1  0  0  0  0
 18 38  1  0  0  0  0
 19 20  2  0  0  0  0
M  END
> <s_m_source_file>
AV-unprocessed.smi

> <i_m_source_file_index>
1233

> <i_lp_mmshare_version>
43012

> <i_f3d_flags>
0

> <s_epik_input>
W0NIM11PYzFuW2NIXVtjSF1bY0hdYzFbTkhdQyg9TylbTkhdW0NAQEhdMltDSDJdW0NIMl1bQ0gyXVtDSDJdW05IXUMyPU8=

> <s_epik_cmdline>
J2VwaWtfcHl0aG9uJywgJy1waCcsICc3LjAnLCAnLXRuJywgJzgnLCAnLW1hJywgJzIwMCcsICctbWV0YWxfYmluZGluZycsICctaW1hZScsICc8aW5maWxlLm1hZT4nLCAnLW9tYWUnLCAnPG91dGZpbGUubWFlPic=

> <r_lp_tautomer_probability>
1

> <r_epik_Ionization_Penalty>
8.308e-05

> <r_epik_Ionization_Penalty_Charging>
0

> <r_epik_Ionization_Penalty_Neutral>
8.308e-05

> <r_epik_State_Penalty>
-0

> <r_epik_Charging_Adjusted_Penalty>
0

> <i_epik_Tot_Q>
0

> <i_epik_Tot_abs_Q>
0

> <r_epik_Metal_State_Penalty>
-0

> <b_epik_Metal_Only>
0

> <s_lp_Force_Field>
OPLS_2005

> <r_lp_Energy>
19.4298

> <b_lp_Chiralities_Consistent>
1

> <s_lp_Variant>
AV-unprocessed.smi:1233-1

> <Gold.Version>
5.8.1

> <Gold.Id.Protein>
6NUR|6NUR_protein|mol2

> <Gold.PLP.Fitness>
40.1632

> <Gold.PLP.PLP>
-32.6854

> <Gold.PLP.part.hbond>
-3.0000

> <Gold.PLP.part.metal>
0.0000

> <Gold.PLP.part.buried>
-3.8960

> <Gold.PLP.part.nonpolar>
-27.5809

> <Gold.PLP.part.repulsive>
0.7219

> <Gold.PLP.ligand.clash>
0.0000

> <Gold.PLP.ligand.torsion>
0.2225

> <Gold.PLP.Chemscore.Hbond>
2.6400

> <Gold.PLP.Chemscore.CHOScore>
0.0000

> <Gold.PLP.Chemscore.Metal>
0.0000

> <Gold.Chemscore.Hbonds>
donor molecule, donor type, donor heavy atom, donor atom, acceptor molecule, acceptor atom, score
      L1  H     9    27       P1  7948  0.96
      L1  H    12    28       P1  7948  0.85
      P1  H 10752 10764       L1    20  0.80

> <Gold.PLP.Chemscore.Internal.Correction>
0.0029

> <Gold.Rescore>
     Score         DG    S(hbond)    S(metal)    S(lipo)     H(rot)  DE(clash)    DE(int)     intcor
     13.35     -15.01       1.85        0.00      57.38       1.31       0.11       1.56       ----

> <Gold.Chemscore.Fitness>
13.3474

> <Gold.Chemscore.DG>
-15.0124

> <Gold.Chemscore.ZeroCoef>
-5.4800

> <Gold.Chemscore.Hbond>
1.8473

> <Gold.Chemscore.Metal>
0.0000

> <Gold.Chemscore.Lipo>
57.3787

> <Gold.Chemscore.Internal_Hbond>
0.0000

> <Gold.Chemscore.DEClash>
0.1066

> <Gold.Chemscore.DEInternal>
1.5584

> <Gold.Chemscore.Rot>
1.3090

> <Gold.Chemscore.Internal.Correction>
   9.000000E+99

> <Gold.Chemscore.Hbonds>
donor molecule, donor type, donor heavy atom, donor atom, acceptor molecule, acceptor atom, score
      L1  H     9    27       P1  7948  0.36
      L1  H    12    28       P1  7948  0.81
      P1  H 10752 10764       L1    20  0.80

> <Gold.Chemscore.Hbond.Weighted>
-6.1701

> <Gold.Chemscore.Metal.Weighted>
-0.0000

> <Gold.Chemscore.Lipo.Weighted>
-6.7133

> <Gold.Chemscore.Internal_Hbond.Weighted>
0.0000

> <Gold.Chemscore.DEClash.Weighted>
0.1066

> <Gold.Chemscore.DEInternal.Weighted>
1.5584

> <Gold.Chemscore.Rot.Weighted>
3.3509

> <Gold.Chemscore.Internal.Correction.Weighted>
   9.000000E+99

> <Gold.Protein.RotatedTorsions>
[ 6907 6896 6895 6894 ] final  -16.48 input  -60.11 | X-H torsion
[ 7974 7965 7964 7962 ] final -175.36 input  175.53 | X-H torsion
[ 8008 7997 7996 7995 ] final  160.46 input   59.86 | X-H torsion
[ 10167 10162 10161 10158 ] final  175.83 input  -65.29 | X-H torsion
[ 10718 10713 10712 10709 ] final  -41.77 input   66.30 | X-H torsion
[ 10763 10752 10751 10750 ] final  -93.20 input  -60.55 | X-H torsion
[ 11005 11000 10999 10996 ] final  136.11 input  -57.11 | X-H torsion

> <Gold.Protein.ActiveResidues>
 VAL166  LYS551  ARG553  GLY616  TRP617  ASP618  TYR619  PRO620  LYS621  CYS622 
 ASP623  PHE694  ASN695  SER759  ASP760  ASP761  ALA762  ILE779  LEU786  VAL792 
 PHE793  MET794  SER795  GLU796  ALA797  LYS798  CYS799  TRP800  GLU811  SER814 

> <Gold.Protein.RotatedAtoms>
  151.3080  135.0786  159.9262 H   0  0  0  0  0  0  0  0  0  0  0  0  # atno 6907 bound_to 6896
  152.5284  133.9765  159.7797 H   0  0  0  0  0  0  0  0  0  0  0  0  # atno 6908 bound_to 6896
  151.0063  133.5956  159.2718 H   0  0  0  0  0  0  0  0  0  0  0  0  # atno 6909 bound_to 6896
  144.7128  140.1333  143.6397 H   0  0  0  0  0  0  0  0  0  0  0  0  # atno 7974 bound_to 7965
  156.2170  140.1803  156.7565 H   0  0  0  0  0  0  0  0  0  0  0  0  # atno 8008 bound_to 7997
  154.5807  140.0667  156.9129 H   0  0  0  0  0  0  0  0  0  0  0  0  # atno 8009 bound_to 7997
  155.2508  140.3329  155.4285 H   0  0  0  0  0  0  0  0  0  0  0  0  # atno 8010 bound_to 7997
  139.5191  144.2986  152.0399 H   0  0  0  0  0  0  0  0  0  0  0  0  # atno 10167 bound_to 10162
  156.2668  130.4202  149.8481 H   0  0  0  0  0  0  0  0  0  0  0  0  # atno 10718 bound_to 10713
  154.6936  135.5203  153.8426 H   0  0  0  0  0  0  0  0  0  0  0  0  # atno 10763 bound_to 10752
  153.0650  135.6582  154.0384 H   0  0  0  0  0  0  0  0  0  0  0  0  # atno 10764 bound_to 10752
  154.0255  135.2990  155.3355 H   0  0  0  0  0  0  0  0  0  0  0  0  # atno 10765 bound_to 10752
  140.0024  134.9473  157.0102 H   0  0  0  0  0  0  0  0  0  0  0  0  # atno 11005 bound_to 11000
  145.9267  139.2580  143.1349 LP  0  0  0  0  0  0  0  0  0  0  0  0  # atno 17320 bound_to 7965
  145.9565  140.8869  143.0233 LP  0  0  0  0  0  0  0  0  0  0  0  0  # atno 17321 bound_to 7965
  140.2434  144.4245  150.6250 LP  0  0  0  0  0  0  0  0  0  0  0  0  # atno 17342 bound_to 10162
  140.6275  143.2183  151.6566 LP  0  0  0  0  0  0  0  0  0  0  0  0  # atno 17343 bound_to 10162
  156.5977  130.8533  151.3424 LP  0  0  0  0  0  0  0  0  0  0  0  0  # atno 17370 bound_to 10713
  157.7270  130.9637  150.1680 LP  0  0  0  0  0  0  0  0  0  0  0  0  # atno 17371 bound_to 10713
  140.4703  134.1394  155.7202 LP  0  0  0  0  0  0  0  0  0  0  0  0  # atno 17394 bound_to 11000
  141.1652  133.8716  157.1735 LP  0  0  0  0  0  0  0  0  0  0  0  0  # atno 17395 bound_to 11000

$$$$
