AV-unprocessed.smi:1251|AV-procd|sdf|5256|dock2
  -GOLD-   22720 4363D 1   1.00000     0.00000
 Structure written by MMmdl.
 39 40  0  0  0  0  0  0  0  0  1 V2000
  152.1684  142.8501  158.8744 C   0  0  0  0  0  0  0  0  0  0  0  0
  151.6107  141.6886  158.0448 C   0  0  0  0  0  0  0  0  0  0  0  0
  151.0277  142.1508  156.7019 C   0  0  0  0  0  0  0  0  0  0  0  0
  150.6519  141.0089  155.8176 C   0  0  0  0  0  0  0  0  0  0  0  0
  151.5440  140.1185  155.3664 N   0  0  0  0  0  0  0  0  0  0  0  0
  150.9661  139.1695  154.5346 N   0  0  0  0  0  0  0  0  0  0  0  0
  149.6534  139.3825  154.3698 C   0  0  0  0  0  0  0  0  0  0  0  0
  148.8164  138.5681  153.5619 N   0  0  0  0  0  0  0  0  0  0  0  0
  147.4857  138.6529  153.3896 C   0  0  0  0  0  0  0  0  0  0  0  0
  146.7515  139.4876  153.9188 O   0  0  0  0  0  0  0  0  0  0  0  0
  147.0466  137.7038  152.5493 N   0  0  0  0  0  0  0  0  0  0  0  0
  145.6585  137.5002  152.1364 C   0  0  2  0  0  0  0  0  0  0  0  0
  144.7793  137.4036  153.3920 C   0  0  0  0  0  0  0  0  0  0  0  0
  145.5360  136.2419  151.2517 C   0  0  2  0  0  0  0  0  0  0  0  0
  144.1031  135.7991  150.9486 C   0  0  0  0  0  0  0  0  0  0  0  0
  144.2982  134.3376  150.6191 C   0  0  0  0  0  0  0  0  0  0  0  0
  145.3744  133.9332  151.6220 C   0  0  0  0  0  0  0  0  0  0  0  0
  146.1239  135.1146  151.8974 O   0  0  0  0  0  0  0  0  0  0  0  0
  149.0103  140.7707  155.2303 S   0  0  0  0  0  0  0  0  0  0  0  0
  152.5748  142.4916  159.8201 H   0  0  0  0  0  0  0  0  0  0  0  0
  151.3913  143.5806  159.1014 H   0  0  0  0  0  0  0  0  0  0  0  0
  152.9684  143.3649  158.3422 H   0  0  0  0  0  0  0  0  0  0  0  0
  152.4043  140.9617  157.8676 H   0  0  0  0  0  0  0  0  0  0  0  0
  150.8411  141.1725  158.6201 H   0  0  0  0  0  0  0  0  0  0  0  0
  150.1464  142.7715  156.8688 H   0  0  0  0  0  0  0  0  0  0  0  0
  151.7516  142.7729  156.1745 H   0  0  0  0  0  0  0  0  0  0  0  0
  149.2870  137.8310  153.0581 H   0  0  0  0  0  0  0  0  0  0  0  0
  147.7271  137.0672  152.1616 H   0  0  0  0  0  0  0  0  0  0  0  0
  145.3130  138.3608  151.5608 H   0  0  0  0  0  0  0  0  0  0  0  0
  143.7275  137.2904  153.1289 H   0  0  0  0  0  0  0  0  0  0  0  0
  144.8670  138.3023  154.0033 H   0  0  0  0  0  0  0  0  0  0  0  0
  145.0604  136.5505  154.0107 H   0  0  0  0  0  0  0  0  0  0  0  0
  146.0645  136.3941  150.3088 H   0  0  0  0  0  0  0  0  0  0  0  0
  143.4731  135.9001  151.8338 H   0  0  0  0  0  0  0  0  0  0  0  0
  143.6444  136.3621  150.1353 H   0  0  0  0  0  0  0  0  0  0  0  0
  143.3846  133.7497  150.7115 H   0  0  0  0  0  0  0  0  0  0  0  0
  144.6733  134.2314  149.6002 H   0  0  0  0  0  0  0  0  0  0  0  0
  144.9203  133.5892  152.5520 H   0  0  0  0  0  0  0  0  0  0  0  0
  146.0143  133.1365  151.2424 H   0  0  0  0  0  0  0  0  0  0  0  0
  1  2  1  0  0  0  0
  1 20  1  0  0  0  0
  1 21  1  0  0  0  0
  1 22  1  0  0  0  0
  2  3  1  0  0  0  0
  2 23  1  0  0  0  0
  2 24  1  0  0  0  0
  3  4  1  0  0  0  0
  3 25  1  0  0  0  0
  3 26  1  0  0  0  0
  4 19  1  0  0  0  0
  4  5  2  0  0  0  0
  5  6  1  0  0  0  0
  6  7  2  0  0  0  0
  7  8  1  0  0  0  0
  7 19  1  0  0  0  0
  8  9  1  0  0  0  0
  8 27  1  0  0  0  0
  9 10  2  0  0  0  0
  9 11  1  0  0  0  0
 11 12  1  0  0  0  0
 11 28  1  0  0  0  0
 12 13  1  0  0  0  0
 12 14  1  0  0  0  0
 12 29  1  0  0  0  0
 13 30  1  0  0  0  0
 13 31  1  0  0  0  0
 13 32  1  0  0  0  0
 14 18  1  0  0  0  0
 14 15  1  0  0  0  0
 14 33  1  0  0  0  0
 15 16  1  0  0  0  0
 15 34  1  0  0  0  0
 15 35  1  0  0  0  0
 16 17  1  0  0  0  0
 16 36  1  0  0  0  0
 16 37  1  0  0  0  0
 17 18  1  0  0  0  0
 17 38  1  0  0  0  0
 17 39  1  0  0  0  0
M  END
> <s_m_source_file>
AV-unprocessed.smi

> <i_m_source_file_index>
1251

> <i_lp_mmshare_version>
43012

> <i_f3d_flags>
0

> <s_epik_input>
W0NIM11bQ0gyXVtDSDJdYzFubmMoczEpW05IXUMoPU8pW05IXVtDQEhdKFtDSDNdKVtDQEBIXTJbQ0gyXVtDSDJdW0NIMl1PMg==

> <s_epik_cmdline>
J2VwaWtfcHl0aG9uJywgJy1waCcsICc3LjAnLCAnLXRuJywgJzgnLCAnLW1hJywgJzIwMCcsICctbWV0YWxfYmluZGluZycsICctaW1hZScsICc8aW5maWxlLm1hZT4nLCAnLW9tYWUnLCAnPG91dGZpbGUubWFlPic=

> <r_lp_tautomer_probability>
1

> <r_epik_Ionization_Penalty>
0.000503621

> <r_epik_Ionization_Penalty_Charging>
0

> <r_epik_Ionization_Penalty_Neutral>
0.000503621

> <r_epik_State_Penalty>
-0

> <r_epik_Charging_Adjusted_Penalty>
0

> <i_epik_Tot_Q>
0

> <i_epik_Tot_abs_Q>
0

> <r_epik_Metal_State_Penalty>
0.219912

> <b_epik_Metal_Only>
0

> <s_lp_Force_Field>
OPLS_2005

> <r_lp_Energy>
13.0055

> <b_lp_Chiralities_Consistent>
1

> <s_lp_Variant>
AV-unprocessed.smi:1251-1

> <Gold.Version>
5.8.1

> <Gold.Id.Protein>
6NUR|6NUR_protein|mol2

> <Gold.PLP.Fitness>
39.0519

> <Gold.PLP.PLP>
-33.5941

> <Gold.PLP.part.hbond>
-4.9852

> <Gold.PLP.part.metal>
0.0000

> <Gold.PLP.part.buried>
-3.7741

> <Gold.PLP.part.nonpolar>
-25.4093

> <Gold.PLP.part.repulsive>
1.3185

> <Gold.PLP.ligand.clash>
0.0000

> <Gold.PLP.ligand.torsion>
0.1450

> <Gold.PLP.Chemscore.Hbond>
1.8960

> <Gold.PLP.Chemscore.CHOScore>
0.0000

> <Gold.PLP.Chemscore.Metal>
0.0000

> <Gold.Chemscore.Hbonds>
donor molecule, donor type, donor heavy atom, donor atom, acceptor molecule, acceptor atom, score
      L1  H     8    27       P1  7948  0.88
      L1  H    11    28       P1  7948  0.93

> <Gold.PLP.Chemscore.Internal.Correction>
0.0597

> <Gold.Rescore>
     Score         DG    S(hbond)    S(metal)    S(lipo)     H(rot)  DE(clash)    DE(int)     intcor
     13.68     -16.14       1.86        0.00      72.64       1.58       0.30       2.17       ----

> <Gold.Chemscore.Fitness>
13.6776

> <Gold.Chemscore.DG>
-16.1442

> <Gold.Chemscore.ZeroCoef>
-5.4800

> <Gold.Chemscore.Hbond>
1.8627

> <Gold.Chemscore.Metal>
0.0000

> <Gold.Chemscore.Lipo>
72.6380

> <Gold.Chemscore.Internal_Hbond>
0.0000

> <Gold.Chemscore.DEClash>
0.2986

> <Gold.Chemscore.DEInternal>
2.1680

> <Gold.Chemscore.Rot>
1.5843

> <Gold.Chemscore.Internal.Correction>
   9.000000E+99

> <Gold.Chemscore.Hbonds>
donor molecule, donor type, donor heavy atom, donor atom, acceptor molecule, acceptor atom, score
      L1  H     8    27       P1  7948  0.81
      L1  H    11    28       P1  7948  0.89

> <Gold.Chemscore.Hbond.Weighted>
-6.2213

> <Gold.Chemscore.Metal.Weighted>
-0.0000

> <Gold.Chemscore.Lipo.Weighted>
-8.4987

> <Gold.Chemscore.Internal_Hbond.Weighted>
0.0000

> <Gold.Chemscore.DEClash.Weighted>
0.2986

> <Gold.Chemscore.DEInternal.Weighted>
2.1680

> <Gold.Chemscore.Rot.Weighted>
4.0558

> <Gold.Chemscore.Internal.Correction.Weighted>
   9.000000E+99

> <Gold.Protein.RotatedTorsions>
[ 6907 6896 6895 6894 ] final -159.66 input  -60.11 | X-H torsion
[ 7974 7965 7964 7962 ] final -110.57 input  175.53 | X-H torsion
[ 8008 7997 7996 7995 ] final    6.13 input   59.86 | X-H torsion
[ 10167 10162 10161 10158 ] final   51.34 input  -65.29 | X-H torsion
[ 10718 10713 10712 10709 ] final   -0.14 input   66.30 | X-H torsion
[ 10763 10752 10751 10750 ] final -131.54 input  -60.55 | X-H torsion
[ 11005 11000 10999 10996 ] final  150.28 input  -57.11 | X-H torsion

> <Gold.Protein.ActiveResidues>
 VAL166  LYS551  ARG553  GLY616  TRP617  ASP618  TYR619  PRO620  LYS621  CYS622 
 ASP623  PHE694  ASN695  SER759  ASP760  ASP761  ALA762  ILE779  LEU786  VAL792 
 PHE793  MET794  SER795  GLU796  ALA797  LYS798  CYS799  TRP800  GLU811  SER814 

> <Gold.Protein.RotatedAtoms>
  151.3370  133.3978  159.2667 H   0  0  0  0  0  0  0  0  0  0  0  0  # atno 6907 bound_to 6896
  150.9909  134.9245  159.7909 H   0  0  0  0  0  0  0  0  0  0  0  0  # atno 6908 bound_to 6896
  152.5247  134.3334  159.9243 H   0  0  0  0  0  0  0  0  0  0  0  0  # atno 6909 bound_to 6896
  145.1667  140.8905  143.3559 H   0  0  0  0  0  0  0  0  0  0  0  0  # atno 7974 bound_to 7965
  154.7371  140.2741  155.6405 H   0  0  0  0  0  0  0  0  0  0  0  0  # atno 8008 bound_to 7997
  156.2864  140.2704  156.2013 H   0  0  0  0  0  0  0  0  0  0  0  0  # atno 8009 bound_to 7997
  155.0307  140.0371  157.2462 H   0  0  0  0  0  0  0  0  0  0  0  0  # atno 8010 bound_to 7997
  140.2630  144.3352  150.6312 H   0  0  0  0  0  0  0  0  0  0  0  0  # atno 10167 bound_to 10162
  156.8249  130.5469  149.5693 H   0  0  0  0  0  0  0  0  0  0  0  0  # atno 10718 bound_to 10713
  154.8750  135.3827  154.4263 H   0  0  0  0  0  0  0  0  0  0  0  0  # atno 10763 bound_to 10752
  153.4961  135.7030  153.5862 H   0  0  0  0  0  0  0  0  0  0  0  0  # atno 10764 bound_to 10752
  153.4214  135.3900  155.2080 H   0  0  0  0  0  0  0  0  0  0  0  0  # atno 10765 bound_to 10752
  140.1117  134.8920  157.1946 H   0  0  0  0  0  0  0  0  0  0  0  0  # atno 11005 bound_to 11000
  145.0275  139.3370  143.6041 LP  0  0  0  0  0  0  0  0  0  0  0  0  # atno 17320 bound_to 7965
  146.3475  139.9600  142.8718 LP  0  0  0  0  0  0  0  0  0  0  0  0  # atno 17321 bound_to 7965
  140.5951  143.2167  151.7179 LP  0  0  0  0  0  0  0  0  0  0  0  0  # atno 17342 bound_to 10162
  139.5011  144.3880  152.0309 LP  0  0  0  0  0  0  0  0  0  0  0  0  # atno 17343 bound_to 10162
  156.0967  130.5938  150.9826 LP  0  0  0  0  0  0  0  0  0  0  0  0  # atno 17370 bound_to 10713
  157.6437  131.0907  150.8197 LP  0  0  0  0  0  0  0  0  0  0  0  0  # atno 17371 bound_to 10713
  140.3082  134.3054  155.7273 LP  0  0  0  0  0  0  0  0  0  0  0  0  # atno 17394 bound_to 11000
  141.2132  133.7634  156.9738 LP  0  0  0  0  0  0  0  0  0  0  0  0  # atno 17395 bound_to 11000

$$$$
