AV-unprocessed.smi:1396|AV-procd|sdf|5678|dock5
  -GOLD-   22720 5303D 1   1.00000     0.00000
 Structure written by MMmdl.
 46 47  0  0  0  0  0  0  0  0  3 V2000
  143.7394  145.3147  157.2716 C   0  0  0  0  0  0  0  0  0  0  0  0
  143.4664  144.0780  156.5493 N   0  5  0  0  0  0  0  0  0  0  0  0
  144.1467  142.9192  156.7597 C   0  0  0  0  0  0  0  0  0  0  0  0
  144.9514  142.6055  157.6431 O   0  0  0  0  0  0  0  0  0  0  0  0
  143.8312  141.8886  155.6694 C   0  0  0  0  0  0  0  0  0  0  0  0
  145.0535  141.5741  154.8877 N   0  3  2  0  0  0  0  0  0  0  0  0
  146.0009  140.6833  155.6121 C   0  0  0  0  0  0  0  0  0  0  0  0
  147.1910  140.2903  154.7196 C   0  0  0  0  0  0  0  0  0  0  0  0
  147.9264  141.5242  154.1604 C   0  0  2  0  0  0  0  0  0  0  0  0
  148.6554  142.2440  155.2044 N   0  0  0  0  0  0  0  0  0  0  0  0
  149.6546  141.7394  155.9425 C   0  0  0  0  0  0  0  0  0  0  0  0
  150.0791  140.5915  155.8152 O   0  0  0  0  0  0  0  0  0  0  0  0
  150.1287  142.6525  156.8072 N   0  0  0  0  0  0  0  0  0  0  0  0
  151.1359  142.4897  157.7962 C   0  0  0  0  0  0  0  0  0  0  0  0
  151.4942  141.1789  158.1704 C   0  0  0  0  0  0  0  0  0  0  0  0
  152.5086  140.9907  159.1281 C   0  0  0  0  0  0  0  0  0  0  0  0
  153.1428  142.1230  159.6765 C   0  0  0  0  0  0  0  0  0  0  0  0
  154.1396  141.9337  160.6115 O   0  0  0  0  0  0  0  0  0  0  0  0
  154.7151  140.6373  160.7322 C   0  0  0  0  0  0  0  0  0  0  0  0
  152.8142  143.3877  159.3147 N   0  0  0  0  0  0  0  0  0  0  0  0
  151.8386  143.5620  158.3981 C   0  0  0  0  0  0  0  0  0  0  0  0
  146.9151  142.4555  153.4711 C   0  0  0  0  0  0  0  0  0  0  0  0
  145.7276  142.7998  154.3886 C   0  0  0  0  0  0  0  0  0  0  0  0
  143.1406  146.1438  156.8951 H   0  0  0  0  0  0  0  0  0  0  0  0
  144.7813  145.6248  157.1878 H   0  0  0  0  0  0  0  0  0  0  0  0
  143.5189  145.2317  158.3360 H   0  0  0  0  0  0  0  0  0  0  0  0
  143.4738  140.9916  156.1776 H   0  0  0  0  0  0  0  0  0  0  0  0
  143.0242  142.2070  155.0054 H   0  0  0  0  0  0  0  0  0  0  0  0
  146.3544  141.1824  156.5157 H   0  0  0  0  0  0  0  0  0  0  0  0
  145.4934  139.7748  155.9365 H   0  0  0  0  0  0  0  0  0  0  0  0
  147.8780  139.6498  155.2738 H   0  0  0  0  0  0  0  0  0  0  0  0
  146.8251  139.6862  153.8882 H   0  0  0  0  0  0  0  0  0  0  0  0
  148.6492  141.1949  153.4117 H   0  0  0  0  0  0  0  0  0  0  0  0
  148.3805  143.2004  155.3745 H   0  0  0  0  0  0  0  0  0  0  0  0
  149.7474  143.5837  156.7268 H   0  0  0  0  0  0  0  0  0  0  0  0
  150.9981  140.3247  157.7330 H   0  0  0  0  0  0  0  0  0  0  0  0
  152.7976  139.9959  159.4343 H   0  0  0  0  0  0  0  0  0  0  0  0
  155.4797  140.6533  161.5087 H   0  0  0  0  0  0  0  0  0  0  0  0
  155.1937  140.3246  159.8030 H   0  0  0  0  0  0  0  0  0  0  0  0
  153.9688  139.8948  161.0185 H   0  0  0  0  0  0  0  0  0  0  0  0
  151.6471  144.5903  158.1344 H   0  0  0  0  0  0  0  0  0  0  0  0
  147.4084  143.3692  153.1371 H   0  0  0  0  0  0  0  0  0  0  0  0
  146.5380  141.9693  152.5702 H   0  0  0  0  0  0  0  0  0  0  0  0
  145.0150  143.4094  153.8320 H   0  0  0  0  0  0  0  0  0  0  0  0
  146.0624  143.4004  155.2357 H   0  0  0  0  0  0  0  0  0  0  0  0
  144.7368  141.0682  154.0727 H   0  0  0  0  0  0  0  0  0  0  0  0
  1  2  1  0  0  0  0
  1 24  1  0  0  0  0
  1 25  1  0  0  0  0
  1 26  1  0  0  0  0
  2  3  1  0  0  0  0
  3  4  2  0  0  0  0
  3  5  1  0  0  0  0
  5  6  1  0  0  0  0
  5 27  1  0  0  0  0
  5 28  1  0  0  0  0
  6 23  1  0  0  0  0
  6  7  1  0  0  0  0
  6 46  1  0  0  0  0
  7  8  1  0  0  0  0
  7 29  1  0  0  0  0
  7 30  1  0  0  0  0
  8  9  1  0  0  0  0
  8 31  1  0  0  0  0
  8 32  1  0  0  0  0
  9 10  1  0  0  0  0
  9 22  1  0  0  0  0
  9 33  1  0  0  0  0
 10 11  1  0  0  0  0
 10 34  1  0  0  0  0
 11 12  2  0  0  0  0
 11 13  1  0  0  0  0
 13 14  1  0  0  0  0
 13 35  1  0  0  0  0
 14 21  1  0  0  0  0
 14 15  2  0  0  0  0
 15 16  1  0  0  0  0
 15 36  1  0  0  0  0
 16 17  2  0  0  0  0
 16 37  1  0  0  0  0
 17 18  1  0  0  0  0
 17 20  1  0  0  0  0
 18 19  1  0  0  0  0
 19 38  1  0  0  0  0
 19 39  1  0  0  0  0
 19 40  1  0  0  0  0
 20 21  2  0  0  0  0
 21 41  1  0  0  0  0
 22 23  1  0  0  0  0
 22 42  1  0  0  0  0
 22 43  1  0  0  0  0
 23 44  1  0  0  0  0
 23 45  1  0  0  0  0
M  CHG  1   2  -1
M  CHG  1   6   1
M  END
> <s_m_source_file>
AV-unprocessed.smi

> <i_m_source_file_index>
1396

> <i_lp_mmshare_version>
43012

> <i_f3d_flags>
0

> <s_epik_input>
W0NIM11bTkhdQyg9TylbQ0gyXU4xW0NIMl1bQ0gyXVtDSF0oW0NIMl1bQ0gyXTEpW05IXUMoPU8pW05IXWMyW2NIXVtjSF1jKE9bQ0gzXSluW2NIXTI=

> <s_epik_cmdline>
J2VwaWtfcHl0aG9uJywgJy1waCcsICc3LjAnLCAnLXRuJywgJzgnLCAnLW1hJywgJzIwMCcsICctbWV0YWxfYmluZGluZycsICctaW1hZScsICc8aW5maWxlLm1hZT4nLCAnLW9tYWUnLCAnPG91dGZpbGUubWFlPic=

> <r_lp_tautomer_probability>
1

> <r_epik_Ionization_Penalty>
6.13954

> <r_epik_Ionization_Penalty_Charging>
6.13946

> <r_epik_Ionization_Penalty_Neutral>
7.8452e-05

> <r_epik_State_Penalty>
6.9595

> <r_epik_Charging_Adjusted_Penalty>
13.099

> <i_epik_Tot_Q>
0

> <i_epik_Tot_abs_Q>
2

> <r_epik_Metal_State_Penalty>
2.89145

> <b_epik_Metal_Only>
1

> <s_lp_Force_Field>
OPLS_2005

> <r_lp_Energy>
12.8202

> <b_lp_Chiralities_Consistent>
1

> <s_lp_Variant>
AV-unprocessed.smi:1396-5

> <Gold.Version>
5.8.1

> <Gold.Id.Protein>
6NUR|6NUR_protein|mol2

> <Gold.PLP.Fitness>
47.8436

> <Gold.PLP.PLP>
-36.5962

> <Gold.PLP.part.hbond>
-3.0984

> <Gold.PLP.part.metal>
0.0000

> <Gold.PLP.part.buried>
-7.2352

> <Gold.PLP.part.nonpolar>
-26.4331

> <Gold.PLP.part.repulsive>
0.3918

> <Gold.PLP.ligand.clash>
0.0000

> <Gold.PLP.ligand.torsion>
0.3978

> <Gold.PLP.Chemscore.Hbond>
4.0000

> <Gold.PLP.Chemscore.CHOScore>
0.0000

> <Gold.PLP.Chemscore.Metal>
0.0000

> <Gold.Chemscore.Hbonds>
donor molecule, donor type, donor heavy atom, donor atom, acceptor molecule, acceptor atom, score
      L1  H     6    46       P1 10175  2.00
      L1  H    10    34       P1  8028  0.94
      L1  H    13    35       P1  8028  0.91

> <Gold.PLP.Chemscore.Internal.Correction>
0.0429

> <Gold.Rescore>
     Score         DG    S(hbond)    S(metal)    S(lipo)     H(rot)  DE(clash)    DE(int)     intcor
     15.46     -18.99       2.82        0.00      77.09       1.93       1.58       1.94       ----

> <Gold.Chemscore.Fitness>
15.4630

> <Gold.Chemscore.DG>
-18.9861

> <Gold.Chemscore.ZeroCoef>
-5.4800

> <Gold.Chemscore.Hbond>
2.8213

> <Gold.Chemscore.Metal>
0.0000

> <Gold.Chemscore.Lipo>
77.0886

> <Gold.Chemscore.Internal_Hbond>
0.0000

> <Gold.Chemscore.DEClash>
1.5788

> <Gold.Chemscore.DEInternal>
1.9443

> <Gold.Chemscore.Rot>
1.9283

> <Gold.Chemscore.Internal.Correction>
   9.000000E+99

> <Gold.Chemscore.Hbonds>
donor molecule, donor type, donor heavy atom, donor atom, acceptor molecule, acceptor atom, score
      L1  H     6    46       P1 10175  0.80
      L1  H    10    34       P1  8028  0.89
      L1  H    13    35       P1  8028  0.89

> <Gold.Chemscore.Hbond.Weighted>
-9.4233

> <Gold.Chemscore.Metal.Weighted>
-0.0000

> <Gold.Chemscore.Lipo.Weighted>
-9.0194

> <Gold.Chemscore.Internal_Hbond.Weighted>
0.0000

> <Gold.Chemscore.DEClash.Weighted>
1.5788

> <Gold.Chemscore.DEInternal.Weighted>
1.9443

> <Gold.Chemscore.Rot.Weighted>
4.9365

> <Gold.Chemscore.Internal.Correction.Weighted>
   9.000000E+99

> <Gold.Protein.RotatedTorsions>
[ 6907 6896 6895 6894 ] final -146.58 input  -60.11 | X-H torsion
[ 7974 7965 7964 7962 ] final  -14.49 input  175.53 | X-H torsion
[ 8008 7997 7996 7995 ] final  170.18 input   59.86 | X-H torsion
[ 10167 10162 10161 10158 ] final   49.15 input  -65.29 | X-H torsion
[ 10718 10713 10712 10709 ] final -120.73 input   66.30 | X-H torsion
[ 10763 10752 10751 10750 ] final -108.16 input  -60.55 | X-H torsion
[ 11005 11000 10999 10996 ] final  -64.17 input  -57.11 | X-H torsion

> <Gold.Protein.ActiveResidues>
 VAL166  LYS551  ARG553  GLY616  TRP617  ASP618  TYR619  PRO620  LYS621  CYS622 
 ASP623  PHE694  ASN695  SER759  ASP760  ASP761  ALA762  ILE779  LEU786  VAL792 
 PHE793  MET794  SER795  GLU796  ALA797  LYS798  CYS799  TRP800  GLU811  SER814 

> <Gold.Protein.RotatedAtoms>
  151.1436  133.4954  159.2596 H   0  0  0  0  0  0  0  0  0  0  0  0  # atno 6907 bound_to 6896
  151.1628  135.0281  159.8728 H   0  0  0  0  0  0  0  0  0  0  0  0  # atno 6908 bound_to 6896
  152.5462  134.1308  159.8491 H   0  0  0  0  0  0  0  0  0  0  0  0  # atno 6909 bound_to 6896
  146.2072  140.3356  142.8403 H   0  0  0  0  0  0  0  0  0  0  0  0  # atno 7974 bound_to 7965
  156.1389  140.1545  156.8951 H   0  0  0  0  0  0  0  0  0  0  0  0  # atno 8008 bound_to 7997
  154.4971  140.0835  156.7758 H   0  0  0  0  0  0  0  0  0  0  0  0  # atno 8009 bound_to 7997
  155.4115  140.3419  155.4266 H   0  0  0  0  0  0  0  0  0  0  0  0  # atno 8010 bound_to 7997
  140.2859  144.3103  150.6252 H   0  0  0  0  0  0  0  0  0  0  0  0  # atno 10167 bound_to 10162
  156.1281  130.6374  150.9575 H   0  0  0  0  0  0  0  0  0  0  0  0  # atno 10718 bound_to 10713
  154.8119  135.4648  154.0538 H   0  0  0  0  0  0  0  0  0  0  0  0  # atno 10763 bound_to 10752
  153.1962  135.6862  153.8295 H   0  0  0  0  0  0  0  0  0  0  0  0  # atno 10764 bound_to 10752
  153.7796  135.3258  155.3341 H   0  0  0  0  0  0  0  0  0  0  0  0  # atno 10765 bound_to 10752
  141.1416  133.6662  156.5792 H   0  0  0  0  0  0  0  0  0  0  0  0  # atno 11005 bound_to 11000
  144.8821  140.7414  143.5980 LP  0  0  0  0  0  0  0  0  0  0  0  0  # atno 17320 bound_to 7965
  145.3276  139.1769  143.4554 LP  0  0  0  0  0  0  0  0  0  0  0  0  # atno 17321 bound_to 7965
  140.5773  143.2175  151.7492 LP  0  0  0  0  0  0  0  0  0  0  0  0  # atno 17342 bound_to 10162
  139.4950  144.4131  152.0059 LP  0  0  0  0  0  0  0  0  0  0  0  0  # atno 17343 bound_to 10162
  157.6461  131.0904  150.8151 LP  0  0  0  0  0  0  0  0  0  0  0  0  # atno 17370 bound_to 10713
  156.8239  130.4993  149.5340 LP  0  0  0  0  0  0  0  0  0  0  0  0  # atno 17371 bound_to 10713
  140.3851  134.7489  157.4686 LP  0  0  0  0  0  0  0  0  0  0  0  0  # atno 17394 bound_to 11000
  140.0608  134.5999  155.8751 LP  0  0  0  0  0  0  0  0  0  0  0  0  # atno 17395 bound_to 11000

$$$$
