AV-unprocessed.smi:2302|AV-procd|sdf|9240|dock5
  -GOLD-   2272012453D 1   1.00000     0.00000
 Structure written by MMmdl.
 39 40  0  0  0  0  0  0  0  0  1 V2000
  145.6787  129.3245  152.2896 C   0  0  0  0  0  0  0  0  0  0  0  0
  145.6748  130.7978  151.9388 C   0  0  0  0  0  0  0  0  0  0  0  0
  144.6748  131.3447  151.1110 C   0  0  0  0  0  0  0  0  0  0  0  0
  144.7265  132.7218  150.8310 C   0  0  0  0  0  0  0  0  0  0  0  0
  145.7687  133.4897  151.3854 C   0  0  0  0  0  0  0  0  0  0  0  0
  146.7343  132.8628  152.2050 C   0  0  0  0  0  0  0  0  0  0  0  0
  147.7413  133.7242  152.7161 N   0  0  0  0  0  0  0  0  0  0  0  0
  148.4897  133.5637  153.8216 C   0  0  0  0  0  0  0  0  0  0  0  0
  148.4403  132.5955  154.5812 O   0  0  0  0  0  0  0  0  0  0  0  0
  149.3129  134.6064  154.0035 N   0  0  0  0  0  0  0  0  0  0  0  0
  150.2291  134.7690  155.1276 C   0  0  0  0  0  0  0  0  0  0  0  0
  150.6718  136.2333  155.2882 C   0  0  2  0  0  0  0  0  0  0  0  0
  149.4893  137.2112  155.1371 C   0  0  0  0  0  0  0  0  0  0  0  0
  149.9205  138.6008  155.2257 N   0  0  0  0  0  0  0  0  0  0  0  0
  148.8021  139.5210  155.0862 C   0  0  0  0  0  0  0  0  0  0  0  0
  150.9526  138.8567  154.2301 C   0  0  0  0  0  0  0  0  0  0  0  0
  152.1284  137.8751  154.3662 C   0  0  0  0  0  0  0  0  0  0  0  0
  151.6413  136.5396  154.2871 O   0  0  0  0  0  0  0  0  0  0  0  0
  146.6753  131.5335  152.4689 N   0  0  0  0  0  0  0  0  0  0  0  0
  144.8549  128.7992  151.8055 H   0  0  0  0  0  0  0  0  0  0  0  0
  145.5795  129.1927  153.3673 H   0  0  0  0  0  0  0  0  0  0  0  0
  146.6126  128.8607  151.9710 H   0  0  0  0  0  0  0  0  0  0  0  0
  143.8874  130.7284  150.7025 H   0  0  0  0  0  0  0  0  0  0  0  0
  143.9790  133.1828  150.2023 H   0  0  0  0  0  0  0  0  0  0  0  0
  145.8218  134.5492  151.1811 H   0  0  0  0  0  0  0  0  0  0  0  0
  147.9003  134.5680  152.1862 H   0  0  0  0  0  0  0  0  0  0  0  0
  149.2882  135.3555  153.3274 H   0  0  0  0  0  0  0  0  0  0  0  0
  149.7863  134.3959  156.0526 H   0  0  0  0  0  0  0  0  0  0  0  0
  151.1000  134.1433  154.9303 H   0  0  0  0  0  0  0  0  0  0  0  0
  151.1224  136.3634  156.2741 H   0  0  0  0  0  0  0  0  0  0  0  0
  148.9955  137.0384  154.1794 H   0  0  0  0  0  0  0  0  0  0  0  0
  148.7483  137.0073  155.9109 H   0  0  0  0  0  0  0  0  0  0  0  0
  149.1367  140.5533  155.1926 H   0  0  0  0  0  0  0  0  0  0  0  0
  148.0506  139.3351  155.8542 H   0  0  0  0  0  0  0  0  0  0  0  0
  148.3249  139.4172  154.1107 H   0  0  0  0  0  0  0  0  0  0  0  0
  150.5288  138.7721  153.2281 H   0  0  0  0  0  0  0  0  0  0  0  0
  151.3185  139.8793  154.3294 H   0  0  0  0  0  0  0  0  0  0  0  0
  152.8536  138.0377  153.5689 H   0  0  0  0  0  0  0  0  0  0  0  0
  152.6516  138.0238  155.3121 H   0  0  0  0  0  0  0  0  0  0  0  0
  1  2  1  0  0  0  0
  1 20  1  0  0  0  0
  1 21  1  0  0  0  0
  1 22  1  0  0  0  0
  2 19  1  0  0  0  0
  2  3  2  0  0  0  0
  3  4  1  0  0  0  0
  3 23  1  0  0  0  0
  4  5  2  0  0  0  0
  4 24  1  0  0  0  0
  5  6  1  0  0  0  0
  5 25  1  0  0  0  0
  6  7  1  0  0  0  0
  6 19  2  0  0  0  0
  7  8  1  0  0  0  0
  7 26  1  0  0  0  0
  8  9  2  0  0  0  0
  8 10  1  0  0  0  0
 10 11  1  0  0  0  0
 10 27  1  0  0  0  0
 11 12  1  0  0  0  0
 11 28  1  0  0  0  0
 11 29  1  0  0  0  0
 12 18  1  0  0  0  0
 12 13  1  0  0  0  0
 12 30  1  0  0  0  0
 13 14  1  0  0  0  0
 13 31  1  0  0  0  0
 13 32  1  0  0  0  0
 14 15  1  0  0  0  0
 14 16  1  0  0  0  0
 15 33  1  0  0  0  0
 15 34  1  0  0  0  0
 15 35  1  0  0  0  0
 16 17  1  0  0  0  0
 16 36  1  0  0  0  0
 16 37  1  0  0  0  0
 17 18  1  0  0  0  0
 17 38  1  0  0  0  0
 17 39  1  0  0  0  0
M  END
> <s_m_source_file>
AV-unprocessed.smi

> <i_m_source_file_index>
2302

> <i_lp_mmshare_version>
43012

> <i_f3d_flags>
0

> <s_epik_input>
W0NIM11jMVtjSF1bY0hdW2NIXWMobjEpW05IXUMoPU8pW05IXVtDSDJdW0NAQEhdMltDSDJdTihbQ0gzXSlbQ0gyXVtDSDJdTzI=

> <s_epik_cmdline>
J2VwaWtfcHl0aG9uJywgJy1waCcsICc3LjAnLCAnLXRuJywgJzgnLCAnLW1hJywgJzIwMCcsICctbWV0YWxfYmluZGluZycsICctaW1hZScsICc8aW5maWxlLm1hZT4nLCAnLW9tYWUnLCAnPG91dGZpbGUubWFlPic=

> <r_epik_Ionization_Penalty>
0.729465

> <r_epik_Ionization_Penalty_Charging>
0

> <r_epik_Ionization_Penalty_Neutral>
0.729465

> <r_epik_State_Penalty>
0.754525

> <r_epik_Charging_Adjusted_Penalty>
0.754525

> <i_epik_Tot_Q>
0

> <i_epik_Tot_abs_Q>
0

> <r_epik_Metal_State_Penalty>
0.754521

> <b_epik_Metal_Only>
0

> <s_lp_Force_Field>
OPLS_2005

> <r_lp_Energy>
19.6921

> <b_lp_Chiralities_Consistent>
1

> <s_lp_Variant>
AV-unprocessed.smi:2302-5

> <Gold.Version>
5.8.1

> <Gold.Id.Protein>
6NUR|6NUR_protein|mol2

> <Gold.PLP.Fitness>
41.5275

> <Gold.PLP.PLP>
-33.3233

> <Gold.PLP.part.hbond>
-3.0000

> <Gold.PLP.part.metal>
0.0000

> <Gold.PLP.part.buried>
-6.1003

> <Gold.PLP.part.nonpolar>
-25.0121

> <Gold.PLP.part.repulsive>
1.3615

> <Gold.PLP.ligand.clash>
0.0000

> <Gold.PLP.ligand.torsion>
0.3860

> <Gold.PLP.Chemscore.Hbond>
2.9920

> <Gold.PLP.Chemscore.CHOScore>
0.0000

> <Gold.PLP.Chemscore.Metal>
0.0000

> <Gold.Chemscore.Hbonds>
donor molecule, donor type, donor heavy atom, donor atom, acceptor molecule, acceptor atom, score
      L1  H     7    26       P1  7948  1.00
      L1  H    10    27       P1  7948  0.90
      P1  H 10752 10763       L1    18  1.00

> <Gold.PLP.Chemscore.Internal.Correction>
0.0002

> <Gold.Rescore>
     Score         DG    S(hbond)    S(metal)    S(lipo)     H(rot)  DE(clash)    DE(int)     intcor
     16.03     -17.75       2.19        0.00      69.64       1.25       0.11       1.62       ----

> <Gold.Chemscore.Fitness>
16.0256

> <Gold.Chemscore.DG>
-17.7504

> <Gold.Chemscore.ZeroCoef>
-5.4800

> <Gold.Chemscore.Hbond>
2.1929

> <Gold.Chemscore.Metal>
0.0000

> <Gold.Chemscore.Lipo>
69.6367

> <Gold.Chemscore.Internal_Hbond>
0.0000

> <Gold.Chemscore.DEClash>
0.1065

> <Gold.Chemscore.DEInternal>
1.6183

> <Gold.Chemscore.Rot>
1.2506

> <Gold.Chemscore.Internal.Correction>
   9.000000E+99

> <Gold.Chemscore.Hbonds>
donor molecule, donor type, donor heavy atom, donor atom, acceptor molecule, acceptor atom, score
      L1  H     7    26       P1  7948  0.37
      L1  H    10    27       P1  7948  0.18
      P1  H 10752 10763       L1    18  0.42

> <Gold.Chemscore.Hbond.Weighted>
-7.3244

> <Gold.Chemscore.Metal.Weighted>
-0.0000

> <Gold.Chemscore.Lipo.Weighted>
-8.1475

> <Gold.Chemscore.Internal_Hbond.Weighted>
0.0000

> <Gold.Chemscore.DEClash.Weighted>
0.1065

> <Gold.Chemscore.DEInternal.Weighted>
1.6183

> <Gold.Chemscore.Rot.Weighted>
3.2015

> <Gold.Chemscore.Internal.Correction.Weighted>
   9.000000E+99

> <Gold.Protein.RotatedTorsions>
[ 6907 6896 6895 6894 ] final -110.36 input  -60.11 | X-H torsion
[ 7974 7965 7964 7962 ] final   51.95 input  175.53 | X-H torsion
[ 8008 7997 7996 7995 ] final  -35.81 input   59.86 | X-H torsion
[ 10167 10162 10161 10158 ] final -144.29 input  -65.29 | X-H torsion
[ 10718 10713 10712 10709 ] final -169.50 input   66.30 | X-H torsion
[ 10763 10752 10751 10750 ] final   37.27 input  -60.55 | X-H torsion
[ 11005 11000 10999 10996 ] final  154.24 input  -57.11 | X-H torsion

> <Gold.Protein.ActiveResidues>
 VAL166  LYS551  ARG553  GLY616  TRP617  ASP618  TYR619  PRO620  LYS621  CYS622 
 ASP623  PHE694  ASN695  SER759  ASP760  ASP761  ALA762  ILE779  LEU786  VAL792 
 PHE793  MET794  SER795  GLU796  ALA797  LYS798  CYS799  TRP800  GLU811  SER814 

> <Gold.Protein.RotatedAtoms>
  150.7620  133.9393  159.3450 H   0  0  0  0  0  0  0  0  0  0  0  0  # atno 6907 bound_to 6896
  151.7300  135.0875  160.0308 H   0  0  0  0  0  0  0  0  0  0  0  0  # atno 6908 bound_to 6896
  152.3596  133.6242  159.6041 H   0  0  0  0  0  0  0  0  0  0  0  0  # atno 6909 bound_to 6896
  145.9862  139.4292  143.0101 H   0  0  0  0  0  0  0  0  0  0  0  0  # atno 7974 bound_to 7965
  154.4087  140.1647  156.2272 H   0  0  0  0  0  0  0  0  0  0  0  0  # atno 8008 bound_to 7997
  155.9313  140.3414  155.6229 H   0  0  0  0  0  0  0  0  0  0  0  0  # atno 8009 bound_to 7997
  155.7103  140.0756  157.2365 H   0  0  0  0  0  0  0  0  0  0  0  0  # atno 8010 bound_to 7997
  139.7913  143.7962  152.2650 H   0  0  0  0  0  0  0  0  0  0  0  0  # atno 10167 bound_to 10162
  156.7125  130.9239  151.3090 H   0  0  0  0  0  0  0  0  0  0  0  0  # atno 10718 bound_to 10713
  153.0044  135.6282  154.2117 H   0  0  0  0  0  0  0  0  0  0  0  0  # atno 10763 bound_to 10752
  154.1861  135.2811  155.3038 H   0  0  0  0  0  0  0  0  0  0  0  0  # atno 10764 bound_to 10752
  154.5797  135.5651  153.7233 H   0  0  0  0  0  0  0  0  0  0  0  0  # atno 10765 bound_to 10752
  140.1471  134.8700  157.2406 H   0  0  0  0  0  0  0  0  0  0  0  0  # atno 11005 bound_to 11000
  145.7697  140.9901  143.1156 LP  0  0  0  0  0  0  0  0  0  0  0  0  # atno 17320 bound_to 7965
  144.6875  139.9432  143.7476 LP  0  0  0  0  0  0  0  0  0  0  0  0  # atno 17321 bound_to 7965
  139.8054  144.7357  150.9768 LP  0  0  0  0  0  0  0  0  0  0  0  0  # atno 17342 bound_to 10162
  140.7820  143.4303  151.0705 LP  0  0  0  0  0  0  0  0  0  0  0  0  # atno 17343 bound_to 10162
  157.6930  130.9253  150.0567 LP  0  0  0  0  0  0  0  0  0  0  0  0  # atno 17370 bound_to 10713
  156.1651  130.3645  149.9244 LP  0  0  0  0  0  0  0  0  0  0  0  0  # atno 17371 bound_to 10713
  140.2651  134.3526  155.7393 LP  0  0  0  0  0  0  0  0  0  0  0  0  # atno 17394 bound_to 11000
  141.2194  133.7391  156.9138 LP  0  0  0  0  0  0  0  0  0  0  0  0  # atno 17395 bound_to 11000

$$$$
