AV-unprocessed.smi:1702|AV-procd|sdf|6845|dock5
  -GOLD-   22720 8 23D 1   1.00000     0.00000
 Structure written by MMmdl.
 44 46  0  0  0  0  0  0  0  0  2 V2000
  143.3600  144.5134  154.9081 C   0  0  0  0  0  0  0  0  0  0  0  0
  144.4072  143.4073  154.7167 C   0  0  2  0  0  0  0  0  0  0  0  0
  144.9718  142.9173  156.0607 C   0  0  0  0  0  0  0  0  0  0  0  0
  146.0413  141.8312  155.8554 C   0  0  0  0  0  0  0  0  0  0  0  0
  147.1400  142.3166  154.9781 N   0  3  1  0  0  0  0  0  0  0  0  0
  148.2584  141.3473  154.8457 C   0  0  0  0  0  0  0  0  0  0  0  0
  149.1393  141.2833  156.1090 C   0  0  2  0  0  0  0  0  0  0  0  0
  148.7756  142.3485  156.9664 O   0  0  0  0  0  0  0  0  0  0  0  0
  150.6373  141.3934  155.7653 C   0  0  0  0  0  0  0  0  0  0  0  0
  151.4915  141.0548  156.8901 N   0  0  0  0  0  0  0  0  0  0  0  0
  152.2326  139.9395  157.0347 C   0  0  0  0  0  0  0  0  0  0  0  0
  152.9465  139.8226  158.1502 N   0  0  0  0  0  0  0  0  0  0  0  0
  152.6379  141.0023  158.8053 C   0  0  0  0  0  0  0  0  0  0  0  0
  153.0728  141.4976  160.0552 C   0  0  0  0  0  0  0  0  0  0  0  0
  152.6166  142.7457  160.5278 C   0  0  0  0  0  0  0  0  0  0  0  0
  153.0435  143.2051  161.7280 F   0  0  0  0  0  0  0  0  0  0  0  0
  151.7189  143.5157  159.7588 C   0  0  0  0  0  0  0  0  0  0  0  0
  151.2853  144.7127  160.2197 F   0  0  0  0  0  0  0  0  0  0  0  0
  151.2707  143.0424  158.5105 C   0  0  0  0  0  0  0  0  0  0  0  0
  151.7295  141.7971  158.0427 C   0  0  0  0  0  0  0  0  0  0  0  0
  146.6257  142.7668  153.6592 C   0  0  0  0  0  0  0  0  0  0  0  0
  145.5675  143.8712  153.8208 C   0  0  0  0  0  0  0  0  0  0  0  0
  143.7896  145.3877  155.3982 H   0  0  0  0  0  0  0  0  0  0  0  0
  142.5279  144.1643  155.5200 H   0  0  0  0  0  0  0  0  0  0  0  0
  142.9508  144.8369  153.9504 H   0  0  0  0  0  0  0  0  0  0  0  0
  143.9145  142.5656  154.2272 H   0  0  0  0  0  0  0  0  0  0  0  0
  145.4043  143.7553  156.6094 H   0  0  0  0  0  0  0  0  0  0  0  0
  144.1665  142.5247  156.6827 H   0  0  0  0  0  0  0  0  0  0  0  0
  146.4333  141.5352  156.8277 H   0  0  0  0  0  0  0  0  0  0  0  0
  145.5891  140.9407  155.4158 H   0  0  0  0  0  0  0  0  0  0  0  0
  147.8534  140.3622  154.6085 H   0  0  0  0  0  0  0  0  0  0  0  0
  148.8916  141.6237  154.0008 H   0  0  0  0  0  0  0  0  0  0  0  0
  148.9751  140.3471  156.6417 H   0  0  0  0  0  0  0  0  0  0  0  0
  149.2809  143.1120  156.7293 H   0  0  0  0  0  0  0  0  0  0  0  0
  150.8836  140.7237  154.9402 H   0  0  0  0  0  0  0  0  0  0  0  0
  150.8821  142.4019  155.4295 H   0  0  0  0  0  0  0  0  0  0  0  0
  152.2455  139.1670  156.2795 H   0  0  0  0  0  0  0  0  0  0  0  0
  153.7593  140.9169  160.6531 H   0  0  0  0  0  0  0  0  0  0  0  0
  150.5824  143.6308  157.9226 H   0  0  0  0  0  0  0  0  0  0  0  0
  147.4488  143.1509  153.0552 H   0  0  0  0  0  0  0  0  0  0  0  0
  146.2055  141.9160  153.1202 H   0  0  0  0  0  0  0  0  0  0  0  0
  145.1893  144.1626  152.8403 H   0  0  0  0  0  0  0  0  0  0  0  0
  146.0326  144.7610  154.2482 H   0  0  0  0  0  0  0  0  0  0  0  0
  147.5318  143.1370  155.4189 H   0  0  0  0  0  0  0  0  0  0  0  0
  1  2  1  0  0  0  0
  1 23  1  0  0  0  0
  1 24  1  0  0  0  0
  1 25  1  0  0  0  0
  2 22  1  0  0  0  0
  2  3  1  0  0  0  0
  2 26  1  0  0  0  0
  3  4  1  0  0  0  0
  3 27  1  0  0  0  0
  3 28  1  0  0  0  0
  4  5  1  0  0  0  0
  4 29  1  0  0  0  0
  4 30  1  0  0  0  0
  5  6  1  0  0  0  0
  5 21  1  0  0  0  0
  5 44  1  0  0  0  0
  6  7  1  0  0  0  0
  6 31  1  0  0  0  0
  6 32  1  0  0  0  0
  7  8  1  0  0  0  0
  7  9  1  0  0  0  0
  7 33  1  0  0  0  0
  8 34  1  0  0  0  0
  9 10  1  0  0  0  0
  9 35  1  0  0  0  0
  9 36  1  0  0  0  0
 10 20  1  0  0  0  0
 10 11  1  0  0  0  0
 11 12  2  0  0  0  0
 11 37  1  0  0  0  0
 12 13  1  0  0  0  0
 13 20  2  0  0  0  0
 13 14  1  0  0  0  0
 14 15  2  0  0  0  0
 14 38  1  0  0  0  0
 15 16  1  0  0  0  0
 15 17  1  0  0  0  0
 17 18  1  0  0  0  0
 17 19  2  0  0  0  0
 19 20  1  0  0  0  0
 19 39  1  0  0  0  0
 21 22  1  0  0  0  0
 21 40  1  0  0  0  0
 21 41  1  0  0  0  0
 22 42  1  0  0  0  0
 22 43  1  0  0  0  0
M  CHG  1   5   1
M  END
> <s_m_source_file>
AV-unprocessed.smi

> <i_m_source_file_index>
1702

> <i_lp_mmshare_version>
43012

> <i_f3d_flags>
0

> <s_epik_input>
W0NIM11bQ0hdMVtDSDJdW0NIMl1OKFtDSDJdW0NIMl0xKVtDSDJdW0NASF0oW09IXSlbQ0gyXW4oW2NIXW4yKWMoYzIzKVtjSF1jKEYpYyhGKVtjSF0z

> <s_epik_cmdline>
J2VwaWtfcHl0aG9uJywgJy1waCcsICc3LjAnLCAnLXRuJywgJzgnLCAnLW1hJywgJzIwMCcsICctbWV0YWxfYmluZGluZycsICctaW1hZScsICc8aW5maWxlLm1hZT4nLCAnLW9tYWUnLCAnPG91dGZpbGUubWFlPic=

> <r_epik_Ionization_Penalty>
0.0135195

> <r_epik_Ionization_Penalty_Charging>
0.00181365

> <r_epik_Ionization_Penalty_Neutral>
0.0117059

> <r_epik_State_Penalty>
0.00902283

> <r_epik_Charging_Adjusted_Penalty>
0.0108365

> <i_epik_Tot_Q>
1

> <i_epik_Tot_abs_Q>
1

> <r_epik_Metal_State_Penalty>
9.09181e-06

> <b_epik_Metal_Only>
0

> <s_lp_Force_Field>
OPLS_2005

> <r_lp_Energy>
21.6828

> <b_lp_Chiralities_Consistent>
1

> <s_lp_Variant>
AV-unprocessed.smi:1702-1

> <Gold.Version>
5.8.1

> <Gold.Id.Protein>
6NUR|6NUR_protein|mol2

> <Gold.PLP.Fitness>
53.7675

> <Gold.PLP.PLP>
-46.2854

> <Gold.PLP.part.hbond>
-3.0000

> <Gold.PLP.part.metal>
0.0000

> <Gold.PLP.part.buried>
-6.5794

> <Gold.PLP.part.nonpolar>
-35.4978

> <Gold.PLP.part.repulsive>
0.0941

> <Gold.PLP.ligand.clash>
0.1210

> <Gold.PLP.ligand.torsion>
1.0675

> <Gold.PLP.Chemscore.Hbond>
3.2226

> <Gold.PLP.Chemscore.CHOScore>
0.0000

> <Gold.PLP.Chemscore.Metal>
0.0000

> <Gold.Chemscore.Hbonds>
donor molecule, donor type, donor heavy atom, donor atom, acceptor molecule, acceptor atom, score
      L1  H     5    44       P1  8028  1.85
      L1  H     8    34       P1  8028  0.67
      P1  H  7997  8008       L1    12  0.53

> <Gold.PLP.Chemscore.Internal.Correction>
0.0703

> <Gold.Rescore>
     Score         DG    S(hbond)    S(metal)    S(lipo)     H(rot)  DE(clash)    DE(int)     intcor
     13.02     -15.61       1.32        0.00      98.33       2.26       0.49       2.10       ----

> <Gold.Chemscore.Fitness>
13.0213

> <Gold.Chemscore.DG>
-15.6123

> <Gold.Chemscore.ZeroCoef>
-5.4800

> <Gold.Chemscore.Hbond>
1.3229

> <Gold.Chemscore.Metal>
0.0000

> <Gold.Chemscore.Lipo>
98.3256

> <Gold.Chemscore.Internal_Hbond>
0.0000

> <Gold.Chemscore.DEClash>
0.4893

> <Gold.Chemscore.DEInternal>
2.1017

> <Gold.Chemscore.Rot>
2.2619

> <Gold.Chemscore.Internal.Correction>
   9.000000E+99

> <Gold.Chemscore.Hbonds>
donor molecule, donor type, donor heavy atom, donor atom, acceptor molecule, acceptor atom, score
      L1  H     5    44       P1  8028  0.22
      L1  H     8    34       P1  8028  0.64
      P1  H  7997  8008       L1    12  0.05

> <Gold.Chemscore.Hbond.Weighted>
-4.4186

> <Gold.Chemscore.Metal.Weighted>
-0.0000

> <Gold.Chemscore.Lipo.Weighted>
-11.5041

> <Gold.Chemscore.Internal_Hbond.Weighted>
0.0000

> <Gold.Chemscore.DEClash.Weighted>
0.4893

> <Gold.Chemscore.DEInternal.Weighted>
2.1017

> <Gold.Chemscore.Rot.Weighted>
5.7904

> <Gold.Chemscore.Internal.Correction.Weighted>
   9.000000E+99

> <Gold.Protein.RotatedTorsions>
[ 6907 6896 6895 6894 ] final  171.54 input  -60.11 | X-H torsion
[ 7974 7965 7964 7962 ] final   73.03 input  175.53 | X-H torsion
[ 8008 7997 7996 7995 ] final -103.12 input   59.86 | X-H torsion
[ 10167 10162 10161 10158 ] final  -21.60 input  -65.29 | X-H torsion
[ 10718 10713 10712 10709 ] final  -98.37 input   66.30 | X-H torsion
[ 10763 10752 10751 10750 ] final  -16.97 input  -60.55 | X-H torsion
[ 11005 11000 10999 10996 ] final -120.63 input  -57.11 | X-H torsion

> <Gold.Protein.ActiveResidues>
 VAL166  LYS551  ARG553  GLY616  TRP617  ASP618  TYR619  PRO620  LYS621  CYS622 
 ASP623  PHE694  ASN695  SER759  ASP760  ASP761  ALA762  ILE779  LEU786  VAL792 
 PHE793  MET794  SER795  GLU796  ALA797  LYS798  CYS799  TRP800  GLU811  SER814 

> <Gold.Protein.RotatedAtoms>
  151.7985  133.3367  159.3519 H   0  0  0  0  0  0  0  0  0  0  0  0  # atno 6907 bound_to 6896
  150.7366  134.5775  159.5931 H   0  0  0  0  0  0  0  0  0  0  0  0  # atno 6908 bound_to 6896
  152.3159  134.7441  160.0376 H   0  0  0  0  0  0  0  0  0  0  0  0  # atno 6909 bound_to 6896
  145.7459  139.2740  143.1459 H   0  0  0  0  0  0  0  0  0  0  0  0  # atno 7974 bound_to 7965
  154.8663  140.0424  157.1697 H   0  0  0  0  0  0  0  0  0  0  0  0  # atno 8008 bound_to 7997
  154.8786  140.2969  155.5418 H   0  0  0  0  0  0  0  0  0  0  0  0  # atno 8009 bound_to 7997
  156.2999  140.2415  156.3785 H   0  0  0  0  0  0  0  0  0  0  0  0  # atno 8010 bound_to 7997
  140.7282  143.4613  151.0376 H   0  0  0  0  0  0  0  0  0  0  0  0  # atno 10167 bound_to 10162
  156.0106  130.5235  150.6513 H   0  0  0  0  0  0  0  0  0  0  0  0  # atno 10718 bound_to 10713
  153.5666  135.7008  153.5523 H   0  0  0  0  0  0  0  0  0  0  0  0  # atno 10763 bound_to 10752
  153.3381  135.4028  155.1550 H   0  0  0  0  0  0  0  0  0  0  0  0  # atno 10764 bound_to 10752
  154.8639  135.3735  154.5187 H   0  0  0  0  0  0  0  0  0  0  0  0  # atno 10765 bound_to 10752
  141.0129  134.0238  157.3389 H   0  0  0  0  0  0  0  0  0  0  0  0  # atno 11005 bound_to 11000
  146.0403  140.8171  142.9832 LP  0  0  0  0  0  0  0  0  0  0  0  0  # atno 17320 bound_to 7965
  144.6860  140.2900  143.7279 LP  0  0  0  0  0  0  0  0  0  0  0  0  # atno 17321 bound_to 7965
  139.8298  143.7707  152.3179 LP  0  0  0  0  0  0  0  0  0  0  0  0  # atno 17342 bound_to 10162
  139.7818  144.7441  151.0077 LP  0  0  0  0  0  0  0  0  0  0  0  0  # atno 17343 bound_to 10162
  157.4274  131.0845  151.1072 LP  0  0  0  0  0  0  0  0  0  0  0  0  # atno 17370 bound_to 10713
  157.1655  130.6244  149.5624 LP  0  0  0  0  0  0  0  0  0  0  0  0  # atno 17371 bound_to 10713
  139.9100  135.0188  156.7652 LP  0  0  0  0  0  0  0  0  0  0  0  0  # atno 17394 bound_to 11000
  140.6703  133.9565  155.7853 LP  0  0  0  0  0  0  0  0  0  0  0  0  # atno 17395 bound_to 11000

$$$$
