AV-unprocessed.smi:2124|AV-procd|sdf|8673|dock8
  -GOLD-   2272011423D 1   1.00000     0.00000
 Structure written by MMmdl.
 46 48  0  0  0  0  0  0  0  0  2 V2000
  143.6024  145.2043  158.7498 C   0  0  0  0  0  0  0  0  0  0  0  0
  144.4692  144.0501  158.2939 C   0  0  0  0  0  0  0  0  0  0  0  0
  144.6331  143.8486  157.0420 N   0  0  0  0  0  0  0  0  0  0  0  0
  145.4372  142.7790  156.6134 C   0  0  0  0  0  0  0  0  0  0  0  0
  145.5804  142.6187  155.1098 C   0  0  0  0  0  0  0  0  0  0  0  0
  146.0437  141.9485  157.5093 C   0  0  0  0  0  0  0  0  0  0  0  0
  146.9263  140.7728  157.0916 C   0  0  0  0  0  0  0  0  0  0  0  0
  148.2679  140.6587  157.8189 C   0  0  0  0  0  0  0  0  0  0  0  0
  148.5917  139.6036  158.3643 O   0  0  0  0  0  0  0  0  0  0  0  0
  149.0372  141.7588  157.8155 N   0  0  0  0  0  0  0  0  0  0  0  0
  150.3602  141.8891  158.4239 C   0  0  1  0  0  0  0  0  0  0  0  0
  151.3123  140.8963  157.7399 C   0  0  0  0  0  0  0  0  0  0  0  0
  150.8473  143.3542  158.3090 C   0  0  1  0  0  0  0  0  0  0  0  0
  150.2850  144.3170  159.3809 C   0  0  0  0  0  0  0  0  0  0  0  0
  151.5443  145.0360  159.8980 C   0  0  1  0  0  0  0  0  0  0  0  0
  152.3438  144.0670  160.7878 C   0  0  0  0  0  0  0  0  0  0  0  0
  152.9410  143.0847  159.7641 C   0  0  0  0  0  0  0  0  0  0  0  0
  152.3731  143.5977  158.4245 C   0  0  2  0  0  0  0  0  0  0  0  0
  152.4131  145.1063  158.6477 C   0  0  0  0  0  0  0  0  0  0  0  0
  145.8259  142.2121  158.9431 C   0  0  0  0  0  0  0  0  0  0  0  0
  146.3396  141.4868  159.7940 O   0  0  0  0  0  0  0  0  0  0  0  0
  145.0407  143.2756  159.2783 N   0  5  0  0  0  0  0  0  0  0  0  0
  143.0234  145.6120  157.9201 H   0  0  0  0  0  0  0  0  0  0  0  0
  144.2234  146.0012  159.1600 H   0  0  0  0  0  0  0  0  0  0  0  0
  142.9045  144.8769  159.5210 H   0  0  0  0  0  0  0  0  0  0  0  0
  146.6198  142.7497  154.8092 H   0  0  0  0  0  0  0  0  0  0  0  0
  144.9826  143.3581  154.5759 H   0  0  0  0  0  0  0  0  0  0  0  0
  145.2477  141.6299  154.7943 H   0  0  0  0  0  0  0  0  0  0  0  0
  146.3618  139.8529  157.2476 H   0  0  0  0  0  0  0  0  0  0  0  0
  147.1222  140.7956  156.0194 H   0  0  0  0  0  0  0  0  0  0  0  0
  148.6778  142.5753  157.3426 H   0  0  0  0  0  0  0  0  0  0  0  0
  150.3002  141.6133  159.4768 H   0  0  0  0  0  0  0  0  0  0  0  0
  152.2984  140.9077  158.2039 H   0  0  0  0  0  0  0  0  0  0  0  0
  151.4377  141.1293  156.6822 H   0  0  0  0  0  0  0  0  0  0  0  0
  150.9327  139.8765  157.8139 H   0  0  0  0  0  0  0  0  0  0  0  0
  150.5358  143.7263  157.3309 H   0  0  0  0  0  0  0  0  0  0  0  0
  149.5849  145.0226  158.9315 H   0  0  0  0  0  0  0  0  0  0  0  0
  149.7612  143.8025  160.1873 H   0  0  0  0  0  0  0  0  0  0  0  0
  151.3369  145.9955  160.3727 H   0  0  0  0  0  0  0  0  0  0  0  0
  153.1359  144.5915  161.3235 H   0  0  0  0  0  0  0  0  0  0  0  0
  151.7150  143.5671  161.5257 H   0  0  0  0  0  0  0  0  0  0  0  0
  154.0292  143.1577  159.7652 H   0  0  0  0  0  0  0  0  0  0  0  0
  152.6896  142.0465  159.9759 H   0  0  0  0  0  0  0  0  0  0  0  0
  152.9362  143.2587  157.5547 H   0  0  0  0  0  0  0  0  0  0  0  0
  151.9597  145.6791  157.8367 H   0  0  0  0  0  0  0  0  0  0  0  0
  153.4164  145.4911  158.8393 H   0  0  0  0  0  0  0  0  0  0  0  0
  1  2  1  0  0  0  0
  1 23  1  0  0  0  0
  1 24  1  0  0  0  0
  1 25  1  0  0  0  0
  2 22  1  0  0  0  0
  2  3  2  0  0  0  0
  3  4  1  0  0  0  0
  4  5  1  0  0  0  0
  4  6  2  0  0  0  0
  5 26  1  0  0  0  0
  5 27  1  0  0  0  0
  5 28  1  0  0  0  0
  6  7  1  0  0  0  0
  6 20  1  0  0  0  0
  7  8  1  0  0  0  0
  7 29  1  0  0  0  0
  7 30  1  0  0  0  0
  8  9  2  0  0  0  0
  8 10  1  0  0  0  0
 10 11  1  0  0  0  0
 10 31  1  0  0  0  0
 11 12  1  0  0  0  0
 11 13  1  0  0  0  0
 11 32  1  0  0  0  0
 12 33  1  0  0  0  0
 12 34  1  0  0  0  0
 12 35  1  0  0  0  0
 13 18  1  0  0  0  0
 13 14  1  0  0  0  0
 13 36  1  0  0  0  0
 14 15  1  0  0  0  0
 14 37  1  0  0  0  0
 14 38  1  0  0  0  0
 15 19  1  0  0  0  0
 15 16  1  0  0  0  0
 15 39  1  0  0  0  0
 16 17  1  0  0  0  0
 16 40  1  0  0  0  0
 16 41  1  0  0  0  0
 17 18  1  0  0  0  0
 17 42  1  0  0  0  0
 17 43  1  0  0  0  0
 18 19  1  0  0  0  0
 18 44  1  0  0  0  0
 19 45  1  0  0  0  0
 19 46  1  0  0  0  0
 20 21  2  0  0  0  0
 20 22  1  0  0  0  0
M  CHG  1  22  -1
M  END
> <s_m_source_file>
AV-unprocessed.smi

> <i_m_source_file_index>
2124

> <i_lp_mmshare_version>
43012

> <i_f3d_flags>
0

> <s_epik_input>
W0NIM11jMW5jKFtDSDNdKWMoYyg9TylbbkhdMSlbQ0gyXUMoPU8pW05IXVtDQEhdKFtDSDNdKVtDQEhdKFtDSDJdW0NASF0yMylbQ0BIXShbQ0gyXTMpW0NIMl1bQ0gyXTI=

> <s_epik_cmdline>
J2VwaWtfcHl0aG9uJywgJy1waCcsICc3LjAnLCAnLXRuJywgJzgnLCAnLW1hJywgJzIwMCcsICctbWV0YWxfYmluZGluZycsICctaW1hZScsICc8aW5maWxlLm1hZT4nLCAnLW9tYWUnLCAnPG91dGZpbGUubWFlPic=

> <r_lp_tautomer_probability>
0.839158

> <r_epik_Ionization_Penalty>
6.63797

> <r_epik_Ionization_Penalty_Charging>
7.48558e-08

> <r_epik_Ionization_Penalty_Neutral>
6.63797

> <r_epik_State_Penalty>
4.49496

> <r_epik_Charging_Adjusted_Penalty>
4.49496

> <i_epik_Tot_Q>
-1

> <i_epik_Tot_abs_Q>
1

> <r_epik_Metal_State_Penalty>
0.841241

> <b_epik_Metal_Only>
1

> <s_lp_Force_Field>
OPLS_2005

> <r_lp_Energy>
55.5119

> <b_lp_Chiralities_Consistent>
1

> <s_lp_Variant>
AV-unprocessed.smi:2124-24

> <Gold.Version>
5.8.1

> <Gold.Id.Protein>
6NUR|6NUR_protein|mol2

> <Gold.PLP.Fitness>
42.6491

> <Gold.PLP.PLP>
-41.3422

> <Gold.PLP.part.hbond>
-1.5359

> <Gold.PLP.part.metal>
0.0000

> <Gold.PLP.part.buried>
-7.0444

> <Gold.PLP.part.nonpolar>
-33.2957

> <Gold.PLP.part.repulsive>
0.2959

> <Gold.PLP.ligand.clash>
0.0000

> <Gold.PLP.ligand.torsion>
0.6411

> <Gold.PLP.Chemscore.Hbond>
0.8564

> <Gold.PLP.Chemscore.CHOScore>
0.0000

> <Gold.PLP.Chemscore.Metal>
0.0000

> <Gold.Chemscore.Hbonds>
donor molecule, donor type, donor heavy atom, donor atom, acceptor molecule, acceptor atom, score
      P1  H  6934  6946       L1    21  0.28

> <Gold.PLP.Chemscore.Internal.Correction>
0.0199

> <Gold.Rescore>
     Score         DG    S(hbond)    S(metal)    S(lipo)     H(rot)  DE(clash)    DE(int)     intcor
     15.84     -18.07       1.14        0.00     110.01       1.61       0.02       2.21       ----

> <Gold.Chemscore.Fitness>
15.8384

> <Gold.Chemscore.DG>
-18.0661

> <Gold.Chemscore.ZeroCoef>
-5.4800

> <Gold.Chemscore.Hbond>
1.1450

> <Gold.Chemscore.Metal>
0.0000

> <Gold.Chemscore.Lipo>
110.0075

> <Gold.Chemscore.Internal_Hbond>
0.0000

> <Gold.Chemscore.DEClash>
0.0224

> <Gold.Chemscore.DEInternal>
2.2053

> <Gold.Chemscore.Rot>
1.6051

> <Gold.Chemscore.Internal.Correction>
   9.000000E+99

> <Gold.Chemscore.Hbonds>
donor molecule, donor type, donor heavy atom, donor atom, acceptor molecule, acceptor atom, score
      P1  H  6934  6946       L1    21  0.28

> <Gold.Chemscore.Hbond.Weighted>
-3.8242

> <Gold.Chemscore.Metal.Weighted>
-0.0000

> <Gold.Chemscore.Lipo.Weighted>
-12.8709

> <Gold.Chemscore.Internal_Hbond.Weighted>
0.0000

> <Gold.Chemscore.DEClash.Weighted>
0.0224

> <Gold.Chemscore.DEInternal.Weighted>
2.2053

> <Gold.Chemscore.Rot.Weighted>
4.1090

> <Gold.Chemscore.Internal.Correction.Weighted>
   9.000000E+99

> <Gold.Protein.RotatedTorsions>
[ 6907 6896 6895 6894 ] final  107.26 input  -60.11 | X-H torsion
[ 7974 7965 7964 7962 ] final   50.34 input  175.53 | X-H torsion
[ 8008 7997 7996 7995 ] final  119.87 input   59.86 | X-H torsion
[ 10167 10162 10161 10158 ] final   62.94 input  -65.29 | X-H torsion
[ 10718 10713 10712 10709 ] final  -10.86 input   66.30 | X-H torsion
[ 10763 10752 10751 10750 ] final   78.95 input  -60.55 | X-H torsion
[ 11005 11000 10999 10996 ] final  -56.41 input  -57.11 | X-H torsion

> <Gold.Protein.ActiveResidues>
 VAL166  LYS551  ARG553  GLY616  TRP617  ASP618  TYR619  PRO620  LYS621  CYS622 
 ASP623  PHE694  ASN695  SER759  ASP760  ASP761  ALA762  ILE779  LEU786  VAL792 
 PHE793  MET794  SER795  GLU796  ALA797  LYS798  CYS799  TRP800  GLU811  SER814 

> <Gold.Protein.RotatedAtoms>
  152.5161  133.9261  159.7557 H   0  0  0  0  0  0  0  0  0  0  0  0  # atno 6907 bound_to 6896
  150.9622  133.6425  159.2759 H   0  0  0  0  0  0  0  0  0  0  0  0  # atno 6908 bound_to 6896
  151.3666  135.0920  159.9504 H   0  0  0  0  0  0  0  0  0  0  0  0  # atno 6909 bound_to 6896
  146.0022  139.4451  143.0008 H   0  0  0  0  0  0  0  0  0  0  0  0  # atno 7974 bound_to 7965
  156.2616  140.2843  156.1060 H   0  0  0  0  0  0  0  0  0  0  0  0  # atno 8008 bound_to 7997
  155.1308  140.0394  157.2792 H   0  0  0  0  0  0  0  0  0  0  0  0  # atno 8009 bound_to 7997
  154.6601  140.2564  155.7124 H   0  0  0  0  0  0  0  0  0  0  0  0  # atno 8010 bound_to 7997
  140.1385  144.4576  150.6824 H   0  0  0  0  0  0  0  0  0  0  0  0  # atno 10167 bound_to 10162
  156.6673  130.4999  149.6011 H   0  0  0  0  0  0  0  0  0  0  0  0  # atno 10718 bound_to 10713
  153.0914  135.4858  154.8698 H   0  0  0  0  0  0  0  0  0  0  0  0  # atno 10763 bound_to 10752
  154.7274  135.3052  154.8950 H   0  0  0  0  0  0  0  0  0  0  0  0  # atno 10764 bound_to 10752
  153.9596  135.6814  153.4798 H   0  0  0  0  0  0  0  0  0  0  0  0  # atno 10765 bound_to 10752
  141.1119  133.6610  156.4616 H   0  0  0  0  0  0  0  0  0  0  0  0  # atno 11005 bound_to 11000
  145.7470  140.9987  143.1270 LP  0  0  0  0  0  0  0  0  0  0  0  0  # atno 17320 bound_to 7965
  144.6923  139.9169  143.7466 LP  0  0  0  0  0  0  0  0  0  0  0  0  # atno 17321 bound_to 7965
  140.6775  143.2311  151.5470 LP  0  0  0  0  0  0  0  0  0  0  0  0  # atno 17342 bound_to 10162
  139.5484  144.2460  152.1485 LP  0  0  0  0  0  0  0  0  0  0  0  0  # atno 17343 bound_to 10162
  156.1965  130.6593  151.1120 LP  0  0  0  0  0  0  0  0  0  0  0  0  # atno 17370 bound_to 10713
  157.7089  131.0743  150.6570 LP  0  0  0  0  0  0  0  0  0  0  0  0  # atno 17371 bound_to 10713
  140.4752  134.6716  157.5147 LP  0  0  0  0  0  0  0  0  0  0  0  0  # atno 17394 bound_to 11000
  140.0018  134.6825  155.9519 LP  0  0  0  0  0  0  0  0  0  0  0  0  # atno 17395 bound_to 11000

$$$$
