AV-unprocessed.smi:2424|AV-procd|sdf|9573|dock10
  -GOLD-   2272013203D 1   1.00000     0.00000
 Structure written by MMmdl.
 49 50  0  0  0  0  0  0  0  0  2 V2000
  149.8722  137.1289  155.2990 C   0  0  0  0  0  0  0  0  0  0  0  0
  149.5603  138.4078  154.5039 C   0  0  0  0  0  0  0  0  0  0  0  0
  148.2247  139.1077  154.8708 C   0  0  0  0  0  0  0  0  0  0  0  0
  148.2373  140.5439  154.2983 C   0  0  0  0  0  0  0  0  0  0  0  0
  149.4473  141.4006  154.7037 C   0  0  0  0  0  0  0  0  0  0  0  0
  146.9224  138.3125  154.5857 C   0  0  1  0  0  0  0  0  0  0  0  0
  147.0509  137.2934  153.5472 N   0  0  0  0  0  0  0  0  0  0  0  0
  146.0915  136.4307  153.1873 C   0  0  0  0  0  0  0  0  0  0  0  0
  144.9792  136.3990  153.7126 O   0  0  0  0  0  0  0  0  0  0  0  0
  146.5180  135.6327  152.1927 N   0  0  0  0  0  0  0  0  0  0  0  0
  145.8255  134.6096  151.5321 C   0  0  0  0  0  0  0  0  0  0  0  0
  144.4751  134.4287  151.7522 C   0  0  0  0  0  0  0  0  0  0  0  0
  143.6446  133.5085  151.2157 N   0  5  0  0  0  0  0  0  0  0  0  0
  144.1649  132.6126  150.3287 C   0  0  0  0  0  0  0  0  0  0  0  0
  143.4689  131.7469  149.7991 O   0  0  0  0  0  0  0  0  0  0  0  0
  145.6026  132.6894  150.0000 C   0  0  0  0  0  0  0  0  0  0  0  0
  146.1805  131.6890  149.0134 C   0  0  0  0  0  0  0  0  0  0  0  0
  146.3733  133.6431  150.5803 C   0  0  0  0  0  0  0  0  0  0  0  0
  146.9890  137.7187  155.9952 C   0  0  2  0  0  0  0  0  0  0  0  0
  145.7020  137.4003  156.7464 C   0  0  0  0  0  0  0  0  0  0  0  0
  147.8169  138.9591  156.3677 C   0  0  2  0  0  0  0  0  0  0  0  0
  146.9688  139.9956  156.8492 O   0  0  0  0  0  0  0  0  0  0  0  0
  147.6751  141.1762  157.1909 C   0  0  0  0  0  0  0  0  0  0  0  0
  150.7559  136.6358  154.8942 H   0  0  0  0  0  0  0  0  0  0  0  0
  149.0506  136.4144  155.2549 H   0  0  0  0  0  0  0  0  0  0  0  0
  150.0793  137.3420  156.3471 H   0  0  0  0  0  0  0  0  0  0  0  0
  150.3996  139.0962  154.5989 H   0  0  0  0  0  0  0  0  0  0  0  0
  149.5566  138.1318  153.4496 H   0  0  0  0  0  0  0  0  0  0  0  0
  148.2389  140.5021  153.2090 H   0  0  0  0  0  0  0  0  0  0  0  0
  147.3212  141.0754  154.5515 H   0  0  0  0  0  0  0  0  0  0  0  0
  149.4213  142.3618  154.1902 H   0  0  0  0  0  0  0  0  0  0  0  0
  150.3862  140.9158  154.4378 H   0  0  0  0  0  0  0  0  0  0  0  0
  149.4633  141.6094  155.7727 H   0  0  0  0  0  0  0  0  0  0  0  0
  146.0555  138.9686  154.4751 H   0  0  0  0  0  0  0  0  0  0  0  0
  147.9346  137.2473  153.0618 H   0  0  0  0  0  0  0  0  0  0  0  0
  147.4623  135.7818  151.8685 H   0  0  0  0  0  0  0  0  0  0  0  0
  143.9887  135.1282  152.4659 H   0  0  0  0  0  0  0  0  0  0  0  0
  147.2465  131.8553  148.8567 H   0  0  0  0  0  0  0  0  0  0  0  0
  145.6810  131.7736  148.0479 H   0  0  0  0  0  0  0  0  0  0  0  0
  146.0493  130.6711  149.3821 H   0  0  0  0  0  0  0  0  0  0  0  0
  147.4176  133.6670  150.3156 H   0  0  0  0  0  0  0  0  0  0  0  0
  147.6470  136.8477  156.0041 H   0  0  0  0  0  0  0  0  0  0  0  0
  144.9903  138.2243  156.6922 H   0  0  0  0  0  0  0  0  0  0  0  0
  145.8994  137.2027  157.7998 H   0  0  0  0  0  0  0  0  0  0  0  0
  145.2132  136.5196  156.3295 H   0  0  0  0  0  0  0  0  0  0  0  0
  148.6304  138.7138  157.0525 H   0  0  0  0  0  0  0  0  0  0  0  0
  146.9701  141.9437  157.5096 H   0  0  0  0  0  0  0  0  0  0  0  0
  148.2398  141.5678  156.3450 H   0  0  0  0  0  0  0  0  0  0  0  0
  148.3662  140.9925  158.0143 H   0  0  0  0  0  0  0  0  0  0  0  0
  1  2  1  0  0  0  0
  1 24  1  0  0  0  0
  1 25  1  0  0  0  0
  1 26  1  0  0  0  0
  2  3  1  0  0  0  0
  2 27  1  0  0  0  0
  2 28  1  0  0  0  0
  3 21  1  0  0  0  0
  3  4  1  0  0  0  0
  3  6  1  0  0  0  0
  4  5  1  0  0  0  0
  4 29  1  0  0  0  0
  4 30  1  0  0  0  0
  5 31  1  0  0  0  0
  5 32  1  0  0  0  0
  5 33  1  0  0  0  0
  6  7  1  0  0  0  0
  6 19  1  0  0  0  0
  6 34  1  0  0  0  0
  7  8  1  0  0  0  0
  7 35  1  0  0  0  0
  8  9  2  0  0  0  0
  8 10  1  0  0  0  0
 10 11  1  0  0  0  0
 10 36  1  0  0  0  0
 11 18  1  0  0  0  0
 11 12  2  0  0  0  0
 12 13  1  0  0  0  0
 12 37  1  0  0  0  0
 13 14  1  0  0  0  0
 14 15  2  0  0  0  0
 14 16  1  0  0  0  0
 16 17  1  0  0  0  0
 16 18  2  0  0  0  0
 17 38  1  0  0  0  0
 17 39  1  0  0  0  0
 17 40  1  0  0  0  0
 18 41  1  0  0  0  0
 19 20  1  0  0  0  0
 19 21  1  0  0  0  0
 19 42  1  0  0  0  0
 20 43  1  0  0  0  0
 20 44  1  0  0  0  0
 20 45  1  0  0  0  0
 21 22  1  0  0  0  0
 21 46  1  0  0  0  0
 22 23  1  0  0  0  0
 23 47  1  0  0  0  0
 23 48  1  0  0  0  0
 23 49  1  0  0  0  0
M  CHG  1  13  -1
M  END
> <s_m_source_file>
AV-unprocessed.smi

> <i_m_source_file_index>
2424

> <i_lp_mmshare_version>
43012

> <i_f3d_flags>
0

> <s_epik_input>
W0NIM11PW0NAQEhdMVtDQEhdKFtDSDNdKVtDQEBIXShDMShbQ0gyXVtDSDNdKVtDSDJdW0NIM10pW05IXUMoPU8pW05IXWMyW2NIXVtuSF1jKD1PKWMoW0NIM10pW2NIXTI=

> <s_epik_cmdline>
J2VwaWtfcHl0aG9uJywgJy1waCcsICc3LjAnLCAnLXRuJywgJzgnLCAnLW1hJywgJzIwMCcsICctbWV0YWxfYmluZGluZycsICctaW1hZScsICc8aW5maWxlLm1hZT4nLCAnLW9tYWUnLCAnPG91dGZpbGUubWFlPic=

> <r_lp_tautomer_probability>
1

> <r_epik_Ionization_Penalty>
7.6122

> <r_epik_Ionization_Penalty_Charging>
1.53843

> <r_epik_Ionization_Penalty_Neutral>
6.07377

> <r_epik_State_Penalty>
6.07371

> <r_epik_Charging_Adjusted_Penalty>
7.61214

> <i_epik_Tot_Q>
-1

> <i_epik_Tot_abs_Q>
1

> <r_epik_Metal_State_Penalty>
2.02136

> <b_epik_Metal_Only>
1

> <s_lp_Force_Field>
OPLS_2005

> <r_lp_Energy>
41.9258

> <b_lp_Chiralities_Consistent>
1

> <s_lp_Variant>
AV-unprocessed.smi:2424-15

> <Gold.Version>
5.8.1

> <Gold.Id.Protein>
6NUR|6NUR_protein|mol2

> <Gold.PLP.Fitness>
36.4441

> <Gold.PLP.PLP>
-28.1630

> <Gold.PLP.part.hbond>
-2.9151

> <Gold.PLP.part.metal>
0.0000

> <Gold.PLP.part.buried>
-2.6666

> <Gold.PLP.part.nonpolar>
-22.6669

> <Gold.PLP.part.repulsive>
1.2909

> <Gold.PLP.ligand.clash>
0.0000

> <Gold.PLP.ligand.torsion>
0.5375

> <Gold.PLP.Chemscore.Hbond>
2.8873

> <Gold.PLP.Chemscore.CHOScore>
0.0000

> <Gold.PLP.Chemscore.Metal>
0.0000

> <Gold.Chemscore.Hbonds>
donor molecule, donor type, donor heavy atom, donor atom, acceptor molecule, acceptor atom, score
      L1  H     7    35       P1  7948  0.90
      L1  H    10    36       P1  7948  0.99
      P1  H 10785 10796       L1    15  1.00

> <Gold.PLP.Chemscore.Internal.Correction>
0.6943

> <Gold.Rescore>
     Score         DG    S(hbond)    S(metal)    S(lipo)     H(rot)  DE(clash)    DE(int)     intcor
     15.58     -18.90       2.82        0.00      67.51       1.52       0.23       3.09       ----

> <Gold.Chemscore.Fitness>
15.5817

> <Gold.Chemscore.DG>
-18.9010

> <Gold.Chemscore.ZeroCoef>
-5.4800

> <Gold.Chemscore.Hbond>
2.8187

> <Gold.Chemscore.Metal>
0.0000

> <Gold.Chemscore.Lipo>
67.5118

> <Gold.Chemscore.Internal_Hbond>
0.0000

> <Gold.Chemscore.DEClash>
0.2310

> <Gold.Chemscore.DEInternal>
3.0883

> <Gold.Chemscore.Rot>
1.5204

> <Gold.Chemscore.Internal.Correction>
   9.000000E+99

> <Gold.Chemscore.Hbonds>
donor molecule, donor type, donor heavy atom, donor atom, acceptor molecule, acceptor atom, score
      L1  H     7    35       P1  7948  0.88
      L1  H    10    36       P1  7948  0.92
      P1  H 10785 10796       L1    15  0.95

> <Gold.Chemscore.Hbond.Weighted>
-9.4143

> <Gold.Chemscore.Metal.Weighted>
-0.0000

> <Gold.Chemscore.Lipo.Weighted>
-7.8989

> <Gold.Chemscore.Internal_Hbond.Weighted>
0.0000

> <Gold.Chemscore.DEClash.Weighted>
0.2310

> <Gold.Chemscore.DEInternal.Weighted>
3.0883

> <Gold.Chemscore.Rot.Weighted>
3.8922

> <Gold.Chemscore.Internal.Correction.Weighted>
   9.000000E+99

> <Gold.Protein.RotatedTorsions>
[ 6907 6896 6895 6894 ] final  -53.69 input  -60.11 | X-H torsion
[ 7974 7965 7964 7962 ] final  -60.65 input  175.53 | X-H torsion
[ 8008 7997 7996 7995 ] final  171.41 input   59.86 | X-H torsion
[ 10167 10162 10161 10158 ] final  179.73 input  -65.29 | X-H torsion
[ 10718 10713 10712 10709 ] final    2.91 input   66.30 | X-H torsion
[ 10763 10752 10751 10750 ] final  -50.86 input  -60.55 | X-H torsion
[ 11005 11000 10999 10996 ] final -173.26 input  -57.11 | X-H torsion

> <Gold.Protein.ActiveResidues>
 VAL166  LYS551  ARG553  GLY616  TRP617  ASP618  TYR619  PRO620  LYS621  CYS622 
 ASP623  PHE694  ASN695  SER759  ASP760  ASP761  ALA762  ILE779  LEU786  VAL792 
 PHE793  MET794  SER795  GLU796  ALA797  LYS798  CYS799  TRP800  GLU811  SER814 

> <Gold.Protein.RotatedAtoms>
  150.8404  134.7693  159.6927 H   0  0  0  0  0  0  0  0  0  0  0  0  # atno 6907 bound_to 6896
  152.4492  134.5426  159.9853 H   0  0  0  0  0  0  0  0  0  0  0  0  # atno 6908 bound_to 6896
  151.5567  133.3371  159.2999 H   0  0  0  0  0  0  0  0  0  0  0  0  # atno 6909 bound_to 6896
  145.8130  140.8587  143.0172 H   0  0  0  0  0  0  0  0  0  0  0  0  # atno 7974 bound_to 7965
  156.1274  140.1512  156.9116 H   0  0  0  0  0  0  0  0  0  0  0  0  # atno 8008 bound_to 7997
  154.4882  140.0859  156.7575 H   0  0  0  0  0  0  0  0  0  0  0  0  # atno 8009 bound_to 7997
  155.4319  140.3427  155.4283 H   0  0  0  0  0  0  0  0  0  0  0  0  # atno 8010 bound_to 7997
  139.5349  144.2526  152.0772 H   0  0  0  0  0  0  0  0  0  0  0  0  # atno 10167 bound_to 10162
  156.8701  130.5617  149.5658 H   0  0  0  0  0  0  0  0  0  0  0  0  # atno 10718 bound_to 10713
  154.1172  135.6540  153.4896 H   0  0  0  0  0  0  0  0  0  0  0  0  # atno 10763 bound_to 10752
  153.0237  135.5261  154.7133 H   0  0  0  0  0  0  0  0  0  0  0  0  # atno 10764 bound_to 10752
  154.6330  135.2978  155.0164 H   0  0  0  0  0  0  0  0  0  0  0  0  # atno 10765 bound_to 10752
  140.4877  134.6014  157.4943 H   0  0  0  0  0  0  0  0  0  0  0  0  # atno 11005 bound_to 11000
  144.6755  140.0422  143.7480 LP  0  0  0  0  0  0  0  0  0  0  0  0  # atno 17320 bound_to 7965
  145.9757  139.2903  143.1072 LP  0  0  0  0  0  0  0  0  0  0  0  0  # atno 17321 bound_to 7965
  140.1995  144.4672  150.6438 LP  0  0  0  0  0  0  0  0  0  0  0  0  # atno 17342 bound_to 10162
  140.6550  143.2235  151.5990 LP  0  0  0  0  0  0  0  0  0  0  0  0  # atno 17343 bound_to 10162
  156.0731  130.5759  150.9422 LP  0  0  0  0  0  0  0  0  0  0  0  0  # atno 17370 bound_to 10713
  157.6201  131.0930  150.8638 LP  0  0  0  0  0  0  0  0  0  0  0  0  # atno 17371 bound_to 10713
  139.9788  134.7172  155.9899 LP  0  0  0  0  0  0  0  0  0  0  0  0  # atno 17394 bound_to 11000
  141.1499  133.6550  156.3982 LP  0  0  0  0  0  0  0  0  0  0  0  0  # atno 17395 bound_to 11000

$$$$
