AV-unprocessed.smi:1986|AV-procd|sdf|8047|dock1
  -GOLD-   2272010243D 1   1.00000     0.00000
 Structure written by MMmdl.
 46 47  0  0  0  0  0  0  0  0  2 V2000
  149.2357  138.2377  154.8484 C   0  0  0  0  0  0  0  0  0  0  0  0
  150.7728  138.1726  154.8597 C   0  0  0  0  0  0  0  0  0  0  0  0
  151.4398  138.3508  156.2628 C   0  0  2  0  0  0  0  0  0  0  0  0
  152.9739  138.2773  156.0412 C   0  0  0  0  0  0  0  0  0  0  0  0
  151.0326  137.1379  157.1613 C   0  0  0  0  0  0  0  0  0  0  0  0
  149.6889  137.2423  157.7235 N   0  0  0  0  0  0  0  0  0  0  0  0
  149.0680  136.2679  158.4025 C   0  0  0  0  0  0  0  0  0  0  0  0
  149.5780  135.1655  158.6101 O   0  0  0  0  0  0  0  0  0  0  0  0
  147.6546  136.6040  158.9043 C   0  0  0  0  0  0  0  0  0  0  0  0
  147.4360  136.3183  160.3301 N   0  0  0  0  0  0  0  0  0  0  0  0
  147.1591  137.5056  161.1346 N   0  5  0  0  0  0  0  0  0  0  0  0
  146.9295  137.3640  162.4670 C   0  0  0  0  0  0  0  0  0  0  0  0
  146.6756  138.3141  163.2040 O   0  0  0  0  0  0  0  0  0  0  0  0
  146.9940  136.0272  163.0344 C   0  0  0  0  0  0  0  0  0  0  0  0
  147.2745  134.9520  162.2720 C   0  0  0  0  0  0  0  0  0  0  0  0
  147.5246  135.0562  160.8394 C   0  0  0  0  0  0  0  0  0  0  0  0
  147.7940  134.0800  160.1391 O   0  0  0  0  0  0  0  0  0  0  0  0
  151.0233  139.6377  156.8986 N   0  0  0  0  0  0  0  0  0  0  0  0
  151.6116  139.9016  158.2191 C   0  0  0  0  0  0  0  0  0  0  0  0
  151.0495  141.1793  158.8655 C   0  0  0  0  0  0  0  0  0  0  0  0
  151.2554  142.2873  157.9991 O   0  0  0  0  0  0  0  0  0  0  0  0
  150.6378  142.1013  156.7325 C   0  0  0  0  0  0  0  0  0  0  0  0
  151.1987  140.8348  156.0641 C   0  0  0  0  0  0  0  0  0  0  0  0
  148.8577  138.1479  153.8300 H   0  0  0  0  0  0  0  0  0  0  0  0
  148.8691  139.1819  155.2509 H   0  0  0  0  0  0  0  0  0  0  0  0
  148.7929  137.4292  155.4295 H   0  0  0  0  0  0  0  0  0  0  0  0
  151.0717  137.2238  154.4136 H   0  0  0  0  0  0  0  0  0  0  0  0
  151.1599  138.9085  154.1561 H   0  0  0  0  0  0  0  0  0  0  0  0
  153.2654  137.3445  155.5578 H   0  0  0  0  0  0  0  0  0  0  0  0
  153.5271  138.3285  156.9787 H   0  0  0  0  0  0  0  0  0  0  0  0
  153.3367  139.0793  155.3991 H   0  0  0  0  0  0  0  0  0  0  0  0
  151.0511  136.2107  156.5877 H   0  0  0  0  0  0  0  0  0  0  0  0
  151.7475  137.0118  157.9761 H   0  0  0  0  0  0  0  0  0  0  0  0
  149.2025  138.1172  157.5925 H   0  0  0  0  0  0  0  0  0  0  0  0
  147.4497  137.6587  158.7117 H   0  0  0  0  0  0  0  0  0  0  0  0
  146.9401  136.0515  158.2914 H   0  0  0  0  0  0  0  0  0  0  0  0
  146.8150  135.8938  164.0912 H   0  0  0  0  0  0  0  0  0  0  0  0
  147.3138  133.9779  162.7367 H   0  0  0  0  0  0  0  0  0  0  0  0
  151.4140  139.0829  158.9076 H   0  0  0  0  0  0  0  0  0  0  0  0
  152.6945  139.9962  158.1379 H   0  0  0  0  0  0  0  0  0  0  0  0
  149.9853  141.0676  159.0798 H   0  0  0  0  0  0  0  0  0  0  0  0
  151.5478  141.3735  159.8153 H   0  0  0  0  0  0  0  0  0  0  0  0
  149.5556  142.0288  156.8522 H   0  0  0  0  0  0  0  0  0  0  0  0
  150.8334  142.9748  156.1103 H   0  0  0  0  0  0  0  0  0  0  0  0
  152.2553  140.9946  155.8491 H   0  0  0  0  0  0  0  0  0  0  0  0
  150.6926  140.7249  155.1077 H   0  0  0  0  0  0  0  0  0  0  0  0
  1  2  1  0  0  0  0
  1 24  1  0  0  0  0
  1 25  1  0  0  0  0
  1 26  1  0  0  0  0
  2  3  1  0  0  0  0
  2 27  1  0  0  0  0
  2 28  1  0  0  0  0
  3  4  1  0  0  0  0
  3  5  1  0  0  0  0
  3 18  1  0  0  0  0
  4 29  1  0  0  0  0
  4 30  1  0  0  0  0
  4 31  1  0  0  0  0
  5  6  1  0  0  0  0
  5 32  1  0  0  0  0
  5 33  1  0  0  0  0
  6  7  1  0  0  0  0
  6 34  1  0  0  0  0
  7  8  2  0  0  0  0
  7  9  1  0  0  0  0
  9 35  1  0  0  0  0
  9 36  1  0  0  0  0
  9 10  1  0  0  0  0
 10 11  1  0  0  0  0
 10 16  1  0  0  0  0
 11 12  1  0  0  0  0
 12 13  2  0  0  0  0
 12 14  1  0  0  0  0
 14 37  1  0  0  0  0
 14 15  2  0  0  0  0
 15 38  1  0  0  0  0
 15 16  1  0  0  0  0
 16 17  2  0  0  0  0
 18 23  1  0  0  0  0
 18 19  1  0  0  0  0
 19 20  1  0  0  0  0
 19 39  1  0  0  0  0
 19 40  1  0  0  0  0
 20 21  1  0  0  0  0
 20 41  1  0  0  0  0
 20 42  1  0  0  0  0
 21 22  1  0  0  0  0
 22 23  1  0  0  0  0
 22 43  1  0  0  0  0
 22 44  1  0  0  0  0
 23 45  1  0  0  0  0
 23 46  1  0  0  0  0
M  CHG  1  11  -1
M  END
> <s_m_source_file>
AV-unprocessed.smi

> <i_m_source_file_index>
1986

> <i_lp_mmshare_version>
43012

> <i_f3d_flags>
0

> <s_epik_input>
W0NIMl0xW0NIMl1PW0NIMl1bQ0gyXU4xW0NAQF0oW0NIM10pKFtDSDJdW0NIM10pW0NIMl1bTkhdQyg9TylbQ0gyXW4yW25IXWMoPU8pW2NIXVtjSF1jMj1P

> <s_epik_cmdline>
J2VwaWtfcHl0aG9uJywgJy1waCcsICc3LjAnLCAnLXRuJywgJzgnLCAnLW1hJywgJzIwMCcsICctbWV0YWxfYmluZGluZycsICctaW1hZScsICc8aW5maWxlLm1hZT4nLCAnLW9tYWUnLCAnPG91dGZpbGUubWFlPic=

> <r_lp_tautomer_probability>
1

> <r_epik_Ionization_Penalty>
0.416475

> <r_epik_Ionization_Penalty_Charging>
0.0978085

> <r_epik_Ionization_Penalty_Neutral>
0.318667

> <r_epik_State_Penalty>
0.355037

> <r_epik_Charging_Adjusted_Penalty>
0.452845

> <i_epik_Tot_Q>
-1

> <i_epik_Tot_abs_Q>
1

> <r_epik_Metal_State_Penalty>
0.355037

> <b_epik_Metal_Only>
0

> <s_lp_Force_Field>
OPLS_2005

> <r_lp_Energy>
59.1038

> <b_lp_Chiralities_Consistent>
1

> <s_lp_Variant>
AV-unprocessed.smi:1986-2

> <Gold.Version>
5.8.1

> <Gold.Id.Protein>
6NUR|6NUR_protein|mol2

> <Gold.PLP.Fitness>
47.1489

> <Gold.PLP.PLP>
-38.4554

> <Gold.PLP.part.hbond>
-5.0000

> <Gold.PLP.part.metal>
0.0000

> <Gold.PLP.part.buried>
-3.4184

> <Gold.PLP.part.nonpolar>
-29.5453

> <Gold.PLP.part.repulsive>
0.0682

> <Gold.PLP.ligand.clash>
0.0000

> <Gold.PLP.ligand.torsion>
0.3779

> <Gold.PLP.Chemscore.Hbond>
3.0000

> <Gold.PLP.Chemscore.CHOScore>
0.0000

> <Gold.PLP.Chemscore.Metal>
0.0000

> <Gold.Chemscore.Hbonds>
donor molecule, donor type, donor heavy atom, donor atom, acceptor molecule, acceptor atom, score
      P1  H  6896  6909       L1     8  1.00
      P1  H  6934  6947       L1    11  1.98

> <Gold.PLP.Chemscore.Internal.Correction>
0.4493

> <Gold.Rescore>
     Score         DG    S(hbond)    S(metal)    S(lipo)     H(rot)  DE(clash)    DE(int)     intcor
     11.06     -13.19       1.55        0.00      74.61       2.42       0.07       2.06       ----

> <Gold.Chemscore.Fitness>
11.0618

> <Gold.Chemscore.DG>
-13.1856

> <Gold.Chemscore.ZeroCoef>
-5.4800

> <Gold.Chemscore.Hbond>
1.5479

> <Gold.Chemscore.Metal>
0.0000

> <Gold.Chemscore.Lipo>
74.6140

> <Gold.Chemscore.Internal_Hbond>
0.0000

> <Gold.Chemscore.DEClash>
0.0659

> <Gold.Chemscore.DEInternal>
2.0579

> <Gold.Chemscore.Rot>
2.4197

> <Gold.Chemscore.Internal.Correction>
   9.000000E+99

> <Gold.Chemscore.Hbonds>
donor molecule, donor type, donor heavy atom, donor atom, acceptor molecule, acceptor atom, score
      P1  H  6896  6909       L1     8  0.96
      P1  H  6934  6947       L1    11  0.36

> <Gold.Chemscore.Hbond.Weighted>
-5.1701

> <Gold.Chemscore.Metal.Weighted>
-0.0000

> <Gold.Chemscore.Lipo.Weighted>
-8.7298

> <Gold.Chemscore.Internal_Hbond.Weighted>
0.0000

> <Gold.Chemscore.DEClash.Weighted>
0.0659

> <Gold.Chemscore.DEInternal.Weighted>
2.0579

> <Gold.Chemscore.Rot.Weighted>
6.1943

> <Gold.Chemscore.Internal.Correction.Weighted>
   9.000000E+99

> <Gold.Protein.RotatedTorsions>
[ 6907 6896 6895 6894 ] final   29.10 input  -60.11 | X-H torsion
[ 7974 7965 7964 7962 ] final -152.00 input  175.53 | X-H torsion
[ 8008 7997 7996 7995 ] final   65.46 input   59.86 | X-H torsion
[ 10167 10162 10161 10158 ] final  142.88 input  -65.29 | X-H torsion
[ 10718 10713 10712 10709 ] final  172.29 input   66.30 | X-H torsion
[ 10763 10752 10751 10750 ] final   45.47 input  -60.55 | X-H torsion
[ 11005 11000 10999 10996 ] final -178.12 input  -57.11 | X-H torsion

> <Gold.Protein.ActiveResidues>
 VAL166  LYS551  ARG553  GLY616  TRP617  ASP618  TYR619  PRO620  LYS621  CYS622 
 ASP623  PHE694  ASN695  SER759  ASP760  ASP761  ALA762  ILE779  LEU786  VAL792 
 PHE793  MET794  SER795  GLU796  ALA797  LYS798  CYS799  TRP800  GLU811  SER814 

> <Gold.Protein.RotatedAtoms>
  152.0267  134.9792  160.0571 H   0  0  0  0  0  0  0  0  0  0  0  0  # atno 6907 bound_to 6896
  152.1285  133.4389  159.4717 H   0  0  0  0  0  0  0  0  0  0  0  0  # atno 6908 bound_to 6896
  150.6854  134.2368  159.4500 H   0  0  0  0  0  0  0  0  0  0  0  0  # atno 6909 bound_to 6896
  144.7818  140.4722  143.5834 H   0  0  0  0  0  0  0  0  0  0  0  0  # atno 7974 bound_to 7965
  155.6621  140.3497  155.4786 H   0  0  0  0  0  0  0  0  0  0  0  0  # atno 8008 bound_to 7997
  155.9760  140.1165  157.0793 H   0  0  0  0  0  0  0  0  0  0  0  0  # atno 8009 bound_to 7997
  154.4179  140.1147  156.5357 H   0  0  0  0  0  0  0  0  0  0  0  0  # atno 8010 bound_to 7997
  139.4983  144.6077  151.6341 H   0  0  0  0  0  0  0  0  0  0  0  0  # atno 10167 bound_to 10162
  156.9811  131.0119  151.2881 H   0  0  0  0  0  0  0  0  0  0  0  0  # atno 10718 bound_to 10713
  152.9824  135.6038  154.3442 H   0  0  0  0  0  0  0  0  0  0  0  0  # atno 10763 bound_to 10752
  154.3137  135.2771  155.2555 H   0  0  0  0  0  0  0  0  0  0  0  0  # atno 10764 bound_to 10752
  154.4753  135.5931  153.6407 H   0  0  0  0  0  0  0  0  0  0  0  0  # atno 10765 bound_to 10752
  140.4333  134.6499  157.4722 H   0  0  0  0  0  0  0  0  0  0  0  0  # atno 11005 bound_to 11000
  145.6028  139.1505  143.3119 LP  0  0  0  0  0  0  0  0  0  0  0  0  # atno 17320 bound_to 7965
  146.2031  140.6149  142.9093 LP  0  0  0  0  0  0  0  0  0  0  0  0  # atno 17321 bound_to 7965
  140.5744  144.0054  150.6233 LP  0  0  0  0  0  0  0  0  0  0  0  0  # atno 17342 bound_to 10162
  140.3182  143.3154  152.0810 LP  0  0  0  0  0  0  0  0  0  0  0  0  # atno 17343 bound_to 10162
  157.5525  130.8192  149.8163 LP  0  0  0  0  0  0  0  0  0  0  0  0  # atno 17370 bound_to 10713
  156.0244  130.3784  150.1866 LP  0  0  0  0  0  0  0  0  0  0  0  0  # atno 17371 bound_to 10713
  140.0119  134.6677  155.9367 LP  0  0  0  0  0  0  0  0  0  0  0  0  # atno 17394 bound_to 11000
  141.1736  133.6539  156.4745 LP  0  0  0  0  0  0  0  0  0  0  0  0  # atno 17395 bound_to 11000

$$$$
