AV-unprocessed.smi:1554|AV-procd|sdf|6255|dock7
  -GOLD-   22720 6443D 1   1.00000     0.00000
 Structure written by MMmdl.
 48 50  0  0  0  0  0  0  0  0  2 V2000
  151.9416  144.7228  160.9928 C   0  0  0  0  0  0  0  0  0  0  0  0
  151.8138  143.6313  159.9437 C   0  0  0  0  0  0  0  0  0  0  0  0
  151.0051  143.8759  158.8109 C   0  0  0  0  0  0  0  0  0  0  0  0
  150.9092  142.8589  157.8685 C   0  0  0  0  0  0  0  0  0  0  0  0
  150.2074  142.7934  156.6631 N   0  3  0  0  0  0  0  0  0  0  0  0
  150.4206  141.5823  156.0784 C   0  0  0  0  0  0  0  0  0  0  0  0
  151.2475  140.8725  156.8929 N   0  0  0  0  0  0  0  0  0  0  0  0
  151.7835  139.5131  156.7294 C   0  0  0  0  0  0  0  0  0  0  0  0
  151.1565  138.7588  155.5404 C   0  0  1  0  0  0  0  0  0  0  0  0
  151.5560  139.3696  154.3296 O   0  0  0  0  0  0  0  0  0  0  0  0
  151.6015  137.2830  155.5107 C   0  0  0  0  0  0  0  0  0  0  0  0
  150.6737  136.3306  156.1237 N   0  0  0  0  0  0  0  0  0  0  0  0
  150.4342  136.6013  157.5401 C   0  0  0  0  0  0  0  0  0  0  0  0
  149.4811  135.5697  158.1679 C   0  0  0  0  0  0  0  0  0  0  0  0
  150.0015  134.2581  157.9781 O   0  0  0  0  0  0  0  0  0  0  0  0
  150.2038  133.9332  156.6057 C   0  0  2  0  0  0  0  0  0  0  0  0
  150.7530  132.5049  156.5238 C   0  0  0  0  0  0  0  0  0  0  0  0
  151.1652  134.9638  155.9828 C   0  0  0  0  0  0  0  0  0  0  0  0
  151.5803  141.6301  158.0225 C   0  0  0  0  0  0  0  0  0  0  0  0
  152.3819  141.3737  159.1325 C   0  0  0  0  0  0  0  0  0  0  0  0
  152.4951  142.3965  160.1012 C   0  0  0  0  0  0  0  0  0  0  0  0
  153.3647  142.1449  161.3213 C   0  0  0  0  0  0  0  0  0  0  0  0
  151.3316  145.5910  160.7416 H   0  0  0  0  0  0  0  0  0  0  0  0
  152.9766  145.0554  161.0749 H   0  0  0  0  0  0  0  0  0  0  0  0
  151.6159  144.3587  161.9672 H   0  0  0  0  0  0  0  0  0  0  0  0
  150.4850  144.8142  158.6830 H   0  0  0  0  0  0  0  0  0  0  0  0
  150.0076  141.2456  155.1385 H   0  0  0  0  0  0  0  0  0  0  0  0
  152.8695  139.5613  156.6435 H   0  0  0  0  0  0  0  0  0  0  0  0
  151.5760  138.9766  157.6562 H   0  0  0  0  0  0  0  0  0  0  0  0
  150.0730  138.8341  155.6230 H   0  0  0  0  0  0  0  0  0  0  0  0
  151.2963  138.8074  153.6149 H   0  0  0  0  0  0  0  0  0  0  0  0
  151.7656  137.0036  154.4687 H   0  0  0  0  0  0  0  0  0  0  0  0
  152.5746  137.1925  155.9958 H   0  0  0  0  0  0  0  0  0  0  0  0
  151.3803  136.5954  158.0837 H   0  0  0  0  0  0  0  0  0  0  0  0
  150.0028  137.5922  157.6732 H   0  0  0  0  0  0  0  0  0  0  0  0
  149.3693  135.7571  159.2359 H   0  0  0  0  0  0  0  0  0  0  0  0
  148.4869  135.6420  157.7241 H   0  0  0  0  0  0  0  0  0  0  0  0
  149.2436  133.9698  156.0878 H   0  0  0  0  0  0  0  0  0  0  0  0
  150.9179  132.2059  155.4883 H   0  0  0  0  0  0  0  0  0  0  0  0
  150.0561  131.7938  156.9681 H   0  0  0  0  0  0  0  0  0  0  0  0
  151.7021  132.4168  157.0532 H   0  0  0  0  0  0  0  0  0  0  0  0
  151.3050  134.7305  154.9265 H   0  0  0  0  0  0  0  0  0  0  0  0
  152.1461  134.8751  156.4530 H   0  0  0  0  0  0  0  0  0  0  0  0
  152.9050  140.4364  159.2505 H   0  0  0  0  0  0  0  0  0  0  0  0
  153.8661  141.1783  161.2614 H   0  0  0  0  0  0  0  0  0  0  0  0
  152.7595  142.1517  162.2281 H   0  0  0  0  0  0  0  0  0  0  0  0
  154.1340  142.9121  161.4112 H   0  0  0  0  0  0  0  0  0  0  0  0
  149.6262  143.5204  156.2657 H   0  0  0  0  0  0  0  0  0  0  0  0
  1  2  1  0  0  0  0
  1 23  1  0  0  0  0
  1 24  1  0  0  0  0
  1 25  1  0  0  0  0
  2 21  1  0  0  0  0
  2  3  2  0  0  0  0
  3  4  1  0  0  0  0
  3 26  1  0  0  0  0
  4 19  2  0  0  0  0
  4  5  1  0  0  0  0
  5  6  2  0  0  0  0
  5 48  1  0  0  0  0
  6  7  1  0  0  0  0
  6 27  1  0  0  0  0
  7  8  1  0  0  0  0
  7 19  1  0  0  0  0
  8  9  1  0  0  0  0
  8 28  1  0  0  0  0
  8 29  1  0  0  0  0
  9 10  1  0  0  0  0
  9 11  1  0  0  0  0
  9 30  1  0  0  0  0
 10 31  1  0  0  0  0
 11 12  1  0  0  0  0
 11 32  1  0  0  0  0
 11 33  1  0  0  0  0
 12 18  1  0  0  0  0
 12 13  1  0  0  0  0
 13 14  1  0  0  0  0
 13 34  1  0  0  0  0
 13 35  1  0  0  0  0
 14 15  1  0  0  0  0
 14 36  1  0  0  0  0
 14 37  1  0  0  0  0
 15 16  1  0  0  0  0
 16 17  1  0  0  0  0
 16 18  1  0  0  0  0
 16 38  1  0  0  0  0
 17 39  1  0  0  0  0
 17 40  1  0  0  0  0
 17 41  1  0  0  0  0
 18 42  1  0  0  0  0
 18 43  1  0  0  0  0
 19 20  1  0  0  0  0
 20 21  2  0  0  0  0
 20 44  1  0  0  0  0
 21 22  1  0  0  0  0
 22 45  1  0  0  0  0
 22 46  1  0  0  0  0
 22 47  1  0  0  0  0
M  CHG  1   5   1
M  END
> <s_m_source_file>
AV-unprocessed.smi

> <i_m_source_file_index>
1554

> <i_lp_mmshare_version>
43012

> <i_f3d_flags>
0

> <s_epik_input>
W0NIM11jKFtjSF0xKWMoW0NIM10pW2NIXWMoYzEyKW4oW2NIXW4yKVtDSDJdW0NASF0oW09IXSlbQ0gyXU4zW0NIMl1bQ0gyXU9bQ0BASF0oW0NIM10pW0NIMl0z

> <s_epik_cmdline>
J2VwaWtfcHl0aG9uJywgJy1waCcsICc3LjAnLCAnLXRuJywgJzgnLCAnLW1hJywgJzIwMCcsICctbWV0YWxfYmluZGluZycsICctaW1hZScsICc8aW5maWxlLm1hZT4nLCAnLW9tYWUnLCAnPG91dGZpbGUubWFlPic=

> <r_epik_Ionization_Penalty>
1.42504

> <r_epik_Ionization_Penalty_Charging>
1.21068

> <r_epik_Ionization_Penalty_Neutral>
0.214359

> <r_epik_State_Penalty>
1.46962

> <r_epik_Charging_Adjusted_Penalty>
2.6803

> <i_epik_Tot_Q>
1

> <i_epik_Tot_abs_Q>
1

> <r_epik_Metal_State_Penalty>
5.48754

> <b_epik_Metal_Only>
0

> <s_lp_Force_Field>
OPLS_2005

> <r_lp_Energy>
34.6572

> <b_lp_Chiralities_Consistent>
1

> <s_lp_Variant>
AV-unprocessed.smi:1554-16

> <Gold.Version>
5.8.1

> <Gold.Id.Protein>
6NUR|6NUR_protein|mol2

> <Gold.PLP.Fitness>
52.1886

> <Gold.PLP.PLP>
-41.3673

> <Gold.PLP.part.hbond>
-3.0000

> <Gold.PLP.part.metal>
0.0000

> <Gold.PLP.part.buried>
-4.8662

> <Gold.PLP.part.nonpolar>
-33.5591

> <Gold.PLP.part.repulsive>
0.1166

> <Gold.PLP.ligand.clash>
0.0000

> <Gold.PLP.ligand.torsion>
0.6002

> <Gold.PLP.Chemscore.Hbond>
4.0000

> <Gold.PLP.Chemscore.CHOScore>
0.0000

> <Gold.PLP.Chemscore.Metal>
0.0000

> <Gold.Chemscore.Hbonds>
donor molecule, donor type, donor heavy atom, donor atom, acceptor molecule, acceptor atom, score
      L1  H     5    48       P1  8028  2.00
      P1  H  6896  6907       L1    15  0.60
      P1  H  7989  7998       L1    10  0.95

> <Gold.PLP.Chemscore.Internal.Correction>
0.0218

> <Gold.Rescore>
     Score         DG    S(hbond)    S(metal)    S(lipo)     H(rot)  DE(clash)    DE(int)     intcor
     20.40     -21.30       2.29        0.00     114.49       2.04       0.29       0.61       ----

> <Gold.Chemscore.Fitness>
20.3954

> <Gold.Chemscore.DG>
-21.2977

> <Gold.Chemscore.ZeroCoef>
-5.4800

> <Gold.Chemscore.Hbond>
2.2909

> <Gold.Chemscore.Metal>
0.0000

> <Gold.Chemscore.Lipo>
114.4926

> <Gold.Chemscore.Internal_Hbond>
0.0000

> <Gold.Chemscore.DEClash>
0.2946

> <Gold.Chemscore.DEInternal>
0.6077

> <Gold.Chemscore.Rot>
2.0427

> <Gold.Chemscore.Internal.Correction>
   9.000000E+99

> <Gold.Chemscore.Hbonds>
donor molecule, donor type, donor heavy atom, donor atom, acceptor molecule, acceptor atom, score
      L1  H     5    48       P1  8028  0.93
      P1  H  6896  6907       L1    15  0.05
      P1  H  7989  7998       L1    10  0.21

> <Gold.Chemscore.Hbond.Weighted>
-7.6515

> <Gold.Chemscore.Metal.Weighted>
-0.0000

> <Gold.Chemscore.Lipo.Weighted>
-13.3956

> <Gold.Chemscore.Internal_Hbond.Weighted>
0.0000

> <Gold.Chemscore.DEClash.Weighted>
0.2946

> <Gold.Chemscore.DEInternal.Weighted>
0.6077

> <Gold.Chemscore.Rot.Weighted>
5.2294

> <Gold.Chemscore.Internal.Correction.Weighted>
   9.000000E+99

> <Gold.Protein.RotatedTorsions>
[ 6907 6896 6895 6894 ] final  -91.30 input  -60.11 | X-H torsion
[ 7974 7965 7964 7962 ] final   72.91 input  175.53 | X-H torsion
[ 8008 7997 7996 7995 ] final  -80.01 input   59.86 | X-H torsion
[ 10167 10162 10161 10158 ] final  138.24 input  -65.29 | X-H torsion
[ 10718 10713 10712 10709 ] final  109.80 input   66.30 | X-H torsion
[ 10763 10752 10751 10750 ] final -146.10 input  -60.55 | X-H torsion
[ 11005 11000 10999 10996 ] final -146.74 input  -57.11 | X-H torsion

> <Gold.Protein.ActiveResidues>
 VAL166  LYS551  ARG553  GLY616  TRP617  ASP618  TYR619  PRO620  LYS621  CYS622 
 ASP623  PHE694  ASN695  SER759  ASP760  ASP761  ALA762  ILE779  LEU786  VAL792 
 PHE793  MET794  SER795  GLU796  ALA797  LYS798  CYS799  TRP800  GLU811  SER814 

> <Gold.Protein.RotatedAtoms>
  150.6891  134.2298  159.4429 H   0  0  0  0  0  0  0  0  0  0  0  0  # atno 6907 bound_to 6896
  152.0249  134.9799  160.0580 H   0  0  0  0  0  0  0  0  0  0  0  0  # atno 6908 bound_to 6896
  152.1361  133.4401  159.4781 H   0  0  0  0  0  0  0  0  0  0  0  0  # atno 6909 bound_to 6896
  145.7474  139.2746  143.1451 H   0  0  0  0  0  0  0  0  0  0  0  0  # atno 7974 bound_to 7965
  154.5841  140.0669  156.9146 H   0  0  0  0  0  0  0  0  0  0  0  0  # atno 8008 bound_to 7997
  155.2410  140.3344  155.4274 H   0  0  0  0  0  0  0  0  0  0  0  0  # atno 8009 bound_to 7997
  156.2210  140.1799  156.7461 H   0  0  0  0  0  0  0  0  0  0  0  0  # atno 8010 bound_to 7997
  139.5117  144.6364  151.5684 H   0  0  0  0  0  0  0  0  0  0  0  0  # atno 10167 bound_to 10162
  157.6525  131.0920  150.6507 H   0  0  0  0  0  0  0  0  0  0  0  0  # atno 10718 bound_to 10713
  154.8352  135.3395  154.6609 H   0  0  0  0  0  0  0  0  0  0  0  0  # atno 10763 bound_to 10752
  153.7224  135.6957  153.5014 H   0  0  0  0  0  0  0  0  0  0  0  0  # atno 10764 bound_to 10752
  153.2371  135.4397  155.0611 H   0  0  0  0  0  0  0  0  0  0  0  0  # atno 10765 bound_to 10752
  140.7789  134.3102  157.5052 H   0  0  0  0  0  0  0  0  0  0  0  0  # atno 11005 bound_to 11000
  146.0389  140.8184  142.9838 LP  0  0  0  0  0  0  0  0  0  0  0  0  # atno 17320 bound_to 7965
  144.6857  140.2881  143.7282 LP  0  0  0  0  0  0  0  0  0  0  0  0  # atno 17321 bound_to 7965
  140.6115  143.9427  150.6457 LP  0  0  0  0  0  0  0  0  0  0  0  0  # atno 17342 bound_to 10162
  140.2671  143.3482  152.1271 LP  0  0  0  0  0  0  0  0  0  0  0  0  # atno 17343 bound_to 10162
  156.6817  130.4569  149.5626 LP  0  0  0  0  0  0  0  0  0  0  0  0  # atno 17370 bound_to 10713
  156.1925  130.6568  151.1077 LP  0  0  0  0  0  0  0  0  0  0  0  0  # atno 17371 bound_to 10713
  139.8745  134.9306  156.3507 LP  0  0  0  0  0  0  0  0  0  0  0  0  # atno 17394 bound_to 11000
  140.9502  133.7456  156.0261 LP  0  0  0  0  0  0  0  0  0  0  0  0  # atno 17395 bound_to 11000

$$$$
