AV-unprocessed.smi:1576|AV-procd|sdf|6344|dock4
  -GOLD-   22720 6563D 1   1.00000     0.00000
 Structure written by MMmdl.
 45 47  0  0  0  0  0  0  0  0  1 V2000
  149.7007  135.3526  156.3597 O   0  0  0  0  0  0  0  0  0  0  0  0
  149.5858  135.6495  155.1711 C   0  0  0  0  0  0  0  0  0  0  0  0
  149.9023  136.8383  154.6295 N   0  0  0  0  0  0  0  0  0  0  0  0
  150.4070  138.0025  155.2708 C   0  0  0  0  0  0  0  0  0  0  0  0
  151.3302  138.9021  154.6889 C   0  0  0  0  0  0  0  0  0  0  0  0
  151.7654  140.0122  155.4380 C   0  0  0  0  0  0  0  0  0  0  0  0
  151.2771  140.1961  156.7529 C   0  0  0  0  0  0  0  0  0  0  0  0
  151.7010  141.3037  157.5189 N   0  0  0  0  0  0  0  0  0  0  0  0
  152.2663  140.9798  158.8303 C   0  0  0  0  0  0  0  0  0  0  0  0
  153.0583  142.1679  159.4029 C   0  0  0  0  0  0  0  0  0  0  0  0
  152.2026  143.4431  159.4272 C   0  0  0  0  0  0  0  0  0  0  0  0
  151.6470  143.7295  158.0246 C   0  0  0  0  0  0  0  0  0  0  0  0
  150.8783  142.5154  157.4760 C   0  0  0  0  0  0  0  0  0  0  0  0
  150.3985  139.3270  157.3100 N   0  0  0  0  0  0  0  0  0  0  0  0
  149.9854  138.2639  156.5894 C   0  0  0  0  0  0  0  0  0  0  0  0
  149.1349  134.7981  154.2387 N   0  0  0  0  0  0  0  0  0  0  0  0
  148.7272  133.4188  154.4902 C   0  0  1  0  0  0  0  0  0  0  0  0
  148.6414  132.5883  153.1930 C   0  0  0  0  0  0  0  0  0  0  0  0
  148.5813  131.1016  153.5647 C   0  0  0  0  0  0  0  0  0  0  0  0
  149.5354  130.9269  155.1196 S   0  0  0  0  0  0  0  0  0  0  0  0
  148.6663  130.3368  156.1489 O   0  0  0  0  0  0  0  0  0  0  0  0
  150.8574  130.3533  154.8254 O   0  0  0  0  0  0  0  0  0  0  0  0
  149.7203  132.7232  155.4322 C   0  0  0  0  0  0  0  0  0  0  0  0
  149.8222  136.9018  153.6253 H   0  0  0  0  0  0  0  0  0  0  0  0
  151.7213  138.7623  153.6936 H   0  0  0  0  0  0  0  0  0  0  0  0
  152.4570  140.7128  154.9941 H   0  0  0  0  0  0  0  0  0  0  0  0
  151.4494  140.7202  159.5048 H   0  0  0  0  0  0  0  0  0  0  0  0
  152.9197  140.1095  158.7847 H   0  0  0  0  0  0  0  0  0  0  0  0
  153.4078  141.9326  160.4084 H   0  0  0  0  0  0  0  0  0  0  0  0
  153.9494  142.3377  158.7969 H   0  0  0  0  0  0  0  0  0  0  0  0
  151.3792  143.3211  160.1321 H   0  0  0  0  0  0  0  0  0  0  0  0
  152.7947  144.2884  159.7787 H   0  0  0  0  0  0  0  0  0  0  0  0
  150.9954  144.6032  158.0500 H   0  0  0  0  0  0  0  0  0  0  0  0
  152.4686  143.9749  157.3503 H   0  0  0  0  0  0  0  0  0  0  0  0
  150.5690  142.7247  156.4510 H   0  0  0  0  0  0  0  0  0  0  0  0
  149.9715  142.3528  158.0602 H   0  0  0  0  0  0  0  0  0  0  0  0
  149.2893  137.6021  157.0839 H   0  0  0  0  0  0  0  0  0  0  0  0
  149.0768  135.1243  153.2852 H   0  0  0  0  0  0  0  0  0  0  0  0
  147.7469  133.4113  154.9709 H   0  0  0  0  0  0  0  0  0  0  0  0
  147.7891  132.8781  152.5778 H   0  0  0  0  0  0  0  0  0  0  0  0
  149.5377  132.7622  152.5959 H   0  0  0  0  0  0  0  0  0  0  0  0
  147.5543  130.7957  153.7655 H   0  0  0  0  0  0  0  0  0  0  0  0
  148.9934  130.4518  152.7925 H   0  0  0  0  0  0  0  0  0  0  0  0
  150.7495  132.9942  155.1949 H   0  0  0  0  0  0  0  0  0  0  0  0
  149.5360  132.9424  156.4841 H   0  0  0  0  0  0  0  0  0  0  0  0
  1  2  2  0  0  0  0
  2  3  1  0  0  0  0
  2 16  1  0  0  0  0
  3  4  1  0  0  0  0
  3 24  1  0  0  0  0
  4 15  1  0  0  0  0
  4  5  2  0  0  0  0
  5  6  1  0  0  0  0
  5 25  1  0  0  0  0
  6  7  2  0  0  0  0
  6 26  1  0  0  0  0
  7  8  1  0  0  0  0
  7 14  1  0  0  0  0
  8 13  1  0  0  0  0
  8  9  1  0  0  0  0
  9 10  1  0  0  0  0
  9 27  1  0  0  0  0
  9 28  1  0  0  0  0
 10 11  1  0  0  0  0
 10 29  1  0  0  0  0
 10 30  1  0  0  0  0
 11 12  1  0  0  0  0
 11 31  1  0  0  0  0
 11 32  1  0  0  0  0
 12 13  1  0  0  0  0
 12 33  1  0  0  0  0
 12 34  1  0  0  0  0
 13 35  1  0  0  0  0
 13 36  1  0  0  0  0
 14 15  2  0  0  0  0
 15 37  1  0  0  0  0
 16 17  1  0  0  0  0
 16 38  1  0  0  0  0
 17 23  1  0  0  0  0
 17 18  1  0  0  0  0
 17 39  1  0  0  0  0
 18 19  1  0  0  0  0
 18 40  1  0  0  0  0
 18 41  1  0  0  0  0
 19 20  1  0  0  0  0
 19 42  1  0  0  0  0
 19 43  1  0  0  0  0
 20 21  2  0  0  0  0
 20 22  2  0  0  0  0
 20 23  1  0  0  0  0
 23 44  1  0  0  0  0
 23 45  1  0  0  0  0
M  END
> <s_m_source_file>
AV-unprocessed.smi

> <i_m_source_file_index>
1576

> <i_lp_mmshare_version>
43012

> <i_f3d_flags>
0

> <s_epik_input>
Tz1TMSg9TylbQ0gyXVtDSDJdW0NASF0oW0NIMl0xKVtOSF1DKD1PKVtOSF1jMltjSF1bY0hdYyhuW2NIXTIpTjNbQ0gyXVtDSDJdW0NIMl1bQ0gyXVtDSDJdMw==

> <s_epik_cmdline>
J2VwaWtfcHl0aG9uJywgJy1waCcsICc3LjAnLCAnLXRuJywgJzgnLCAnLW1hJywgJzIwMCcsICctbWV0YWxfYmluZGluZycsICctaW1hZScsICc8aW5maWxlLm1hZT4nLCAnLW9tYWUnLCAnPG91dGZpbGUubWFlPic=

> <r_lp_tautomer_probability>
1

> <r_epik_Ionization_Penalty>
0.0900267

> <r_epik_Ionization_Penalty_Charging>
0

> <r_epik_Ionization_Penalty_Neutral>
0.0900267

> <r_epik_State_Penalty>
0.0748882

> <r_epik_Charging_Adjusted_Penalty>
0.0748882

> <i_epik_Tot_Q>
0

> <i_epik_Tot_abs_Q>
0

> <r_epik_Metal_State_Penalty>
0.0662821

> <b_epik_Metal_Only>
0

> <s_lp_Force_Field>
OPLS_2005

> <r_lp_Energy>
22.1821

> <b_lp_Chiralities_Consistent>
1

> <s_lp_Variant>
AV-unprocessed.smi:1576-2

> <Gold.Version>
5.8.1

> <Gold.Id.Protein>
6NUR|6NUR_protein|mol2

> <Gold.PLP.Fitness>
43.5769

> <Gold.PLP.PLP>
-38.8804

> <Gold.PLP.part.hbond>
-2.0000

> <Gold.PLP.part.metal>
0.0000

> <Gold.PLP.part.buried>
-2.0687

> <Gold.PLP.part.nonpolar>
-35.3640

> <Gold.PLP.part.repulsive>
0.1175

> <Gold.PLP.ligand.clash>
0.0000

> <Gold.PLP.ligand.torsion>
0.8498

> <Gold.PLP.Chemscore.Hbond>
1.9913

> <Gold.PLP.Chemscore.CHOScore>
0.0000

> <Gold.PLP.Chemscore.Metal>
0.0000

> <Gold.Chemscore.Hbonds>
donor molecule, donor type, donor heavy atom, donor atom, acceptor molecule, acceptor atom, score
      L1  H     3    24       P1  7948  0.98
      L1  H    16    38       P1  7948  1.00

> <Gold.PLP.Chemscore.Internal.Correction>
0.4224

> <Gold.Rescore>
     Score         DG    S(hbond)    S(metal)    S(lipo)     H(rot)  DE(clash)    DE(int)     intcor
     15.65     -19.08       1.83        0.00      91.02       1.24       0.00       3.43       ----

> <Gold.Chemscore.Fitness>
15.6456

> <Gold.Chemscore.DG>
-19.0792

> <Gold.Chemscore.ZeroCoef>
-5.4800

> <Gold.Chemscore.Hbond>
1.8311

> <Gold.Chemscore.Metal>
0.0000

> <Gold.Chemscore.Lipo>
91.0189

> <Gold.Chemscore.Internal_Hbond>
0.0000

> <Gold.Chemscore.DEClash>
0.0000

> <Gold.Chemscore.DEInternal>
3.4336

> <Gold.Chemscore.Rot>
1.2366

> <Gold.Chemscore.Internal.Correction>
   9.000000E+99

> <Gold.Chemscore.Hbonds>
donor molecule, donor type, donor heavy atom, donor atom, acceptor molecule, acceptor atom, score
      L1  H     3    24       P1  7948  0.43
      L1  H    16    38       P1  7948  0.26

> <Gold.Chemscore.Hbond.Weighted>
-6.1157

> <Gold.Chemscore.Metal.Weighted>
-0.0000

> <Gold.Chemscore.Lipo.Weighted>
-10.6492

> <Gold.Chemscore.Internal_Hbond.Weighted>
0.0000

> <Gold.Chemscore.DEClash.Weighted>
0.0000

> <Gold.Chemscore.DEInternal.Weighted>
3.4336

> <Gold.Chemscore.Rot.Weighted>
3.1657

> <Gold.Chemscore.Internal.Correction.Weighted>
   9.000000E+99

> <Gold.Protein.RotatedTorsions>
[ 6907 6896 6895 6894 ] final   32.69 input  -60.11 | X-H torsion
[ 7974 7965 7964 7962 ] final  168.17 input  175.53 | X-H torsion
[ 8008 7997 7996 7995 ] final   -0.14 input   59.86 | X-H torsion
[ 10167 10162 10161 10158 ] final  -49.70 input  -65.29 | X-H torsion
[ 10718 10713 10712 10709 ] final -155.82 input   66.30 | X-H torsion
[ 10763 10752 10751 10750 ] final -169.65 input  -60.55 | X-H torsion
[ 11005 11000 10999 10996 ] final   30.91 input  -57.11 | X-H torsion

> <Gold.Protein.ActiveResidues>
 VAL166  LYS551  ARG553  GLY616  TRP617  ASP618  TYR619  PRO620  LYS621  CYS622 
 ASP623  PHE694  ASN695  SER759  ASP760  ASP761  ALA762  ILE779  LEU786  VAL792 
 PHE793  MET794  SER795  GLU796  ALA797  LYS798  CYS799  TRP800  GLU811  SER814 

> <Gold.Protein.RotatedAtoms>
  152.0780  134.9490  160.0573 H   0  0  0  0  0  0  0  0  0  0  0  0  # atno 6907 bound_to 6896
  152.0790  133.4138  159.4501 H   0  0  0  0  0  0  0  0  0  0  0  0  # atno 6908 bound_to 6896
  150.6836  134.2924  159.4715 H   0  0  0  0  0  0  0  0  0  0  0  0  # atno 6909 bound_to 6896
  144.7398  139.8868  143.6400 H   0  0  0  0  0  0  0  0  0  0  0  0  # atno 7974 bound_to 7965
  154.6614  140.2591  155.7104 H   0  0  0  0  0  0  0  0  0  0  0  0  # atno 8008 bound_to 7997
  156.2620  140.2848  156.1009 H   0  0  0  0  0  0  0  0  0  0  0  0  # atno 8009 bound_to 7997
  155.1302  140.0378  157.2763 H   0  0  0  0  0  0  0  0  0  0  0  0  # atno 8010 bound_to 7997
  140.6673  143.2687  151.4252 H   0  0  0  0  0  0  0  0  0  0  0  0  # atno 10167 bound_to 10162
  156.5180  130.8465  151.2671 H   0  0  0  0  0  0  0  0  0  0  0  0  # atno 10718 bound_to 10713
  154.6500  135.2910  154.9998 H   0  0  0  0  0  0  0  0  0  0  0  0  # atno 10763 bound_to 10752
  154.1095  135.6564  153.4886 H   0  0  0  0  0  0  0  0  0  0  0  0  # atno 10764 bound_to 10752
  153.0371  135.5261  154.7404 H   0  0  0  0  0  0  0  0  0  0  0  0  # atno 10765 bound_to 10752
  140.2894  134.2882  155.7780 H   0  0  0  0  0  0  0  0  0  0  0  0  # atno 11005 bound_to 11000
  146.1171  139.4184  143.0251 LP  0  0  0  0  0  0  0  0  0  0  0  0  # atno 17320 bound_to 7965
  145.7359  141.0026  143.1327 LP  0  0  0  0  0  0  0  0  0  0  0  0  # atno 17321 bound_to 7965
  139.5926  144.1465  152.2107 LP  0  0  0  0  0  0  0  0  0  0  0  0  # atno 17342 bound_to 10162
  140.0824  144.5689  150.7112 LP  0  0  0  0  0  0  0  0  0  0  0  0  # atno 17343 bound_to 10162
  157.7441  130.9927  150.2645 LP  0  0  0  0  0  0  0  0  0  0  0  0  # atno 17370 bound_to 10713
  156.3176  130.3781  149.7604 LP  0  0  0  0  0  0  0  0  0  0  0  0  # atno 17371 bound_to 10713
  141.2149  133.7575  156.9601 LP  0  0  0  0  0  0  0  0  0  0  0  0  # atno 17394 bound_to 11000
  140.1210  134.9417  157.2203 LP  0  0  0  0  0  0  0  0  0  0  0  0  # atno 17395 bound_to 11000

$$$$
