AV-unprocessed.smi:3335|AV-procd|sdf|12844|dock7
  -GOLD-   2272019233D 1   1.00000     0.00000
 Structure written by MMmdl.
 47 48  0  0  0  0  0  0  0  0  2 V2000
  150.7118  136.4897  154.6717 C   0  0  0  0  0  0  0  0  0  0  0  0
  150.5543  137.9798  154.7706 C   0  0  0  0  0  0  0  0  0  0  0  0
  151.5784  138.9594  154.9043 C   0  0  0  0  0  0  0  0  0  0  0  0
  151.1048  140.1929  154.9637 N   0  0  0  0  0  0  0  0  0  0  0  0
  149.7642  140.0478  154.8693 N   0  0  0  0  0  0  0  0  0  0  0  0
  148.8956  141.2175  154.9011 C   0  0  1  0  0  0  0  0  0  0  0  0
  147.8733  141.1448  153.7503 C   0  0  0  0  0  0  0  0  0  0  0  0
  148.2197  141.4093  156.2850 C   0  0  1  0  0  0  0  0  0  0  0  0
  148.1617  140.1054  157.1081 C   0  0  0  0  0  0  0  0  0  0  0  0
  148.9362  142.4581  157.0507 N   0  3  0  0  0  0  0  0  0  0  0  0
  150.2726  142.0864  157.5751 C   0  0  1  0  0  0  0  0  0  0  0  0
  151.3468  142.4751  156.5471 C   0  0  0  0  0  0  0  0  0  0  0  0
  150.5608  142.7794  158.9226 C   0  0  0  0  0  0  0  0  0  0  0  0
  149.7505  143.6025  159.3517 O   0  0  0  0  0  0  0  0  0  0  0  0
  151.6956  142.4811  159.5913 N   0  0  0  0  0  0  0  0  0  0  0  0
  152.1212  143.0432  160.8734 C   0  0  0  0  0  0  0  0  0  0  0  0
  153.3162  142.2011  161.3199 C   0  0  0  0  0  0  0  0  0  0  0  0
  153.8962  141.6614  160.0205 C   0  0  0  0  0  0  0  0  0  0  0  0
  152.6826  141.5195  159.1017 C   0  0  0  0  0  0  0  0  0  0  0  0
  149.4064  138.7205  154.7544 C   0  0  0  0  0  0  0  0  0  0  0  0
  151.6290  136.1477  155.1517 H   0  0  0  0  0  0  0  0  0  0  0  0
  150.7490  136.1580  153.6340 H   0  0  0  0  0  0  0  0  0  0  0  0
  149.8852  135.9631  155.1490 H   0  0  0  0  0  0  0  0  0  0  0  0
  152.6468  138.8107  154.9595 H   0  0  0  0  0  0  0  0  0  0  0  0
  149.5349  142.0827  154.7173 H   0  0  0  0  0  0  0  0  0  0  0  0
  147.3020  142.0687  153.6605 H   0  0  0  0  0  0  0  0  0  0  0  0
  147.1627  140.3304  153.8965 H   0  0  0  0  0  0  0  0  0  0  0  0
  148.3725  140.9810  152.7946 H   0  0  0  0  0  0  0  0  0  0  0  0
  147.1956  141.7425  156.1089 H   0  0  0  0  0  0  0  0  0  0  0  0
  147.5758  139.3350  156.6068 H   0  0  0  0  0  0  0  0  0  0  0  0
  147.6992  140.2615  158.0823 H   0  0  0  0  0  0  0  0  0  0  0  0
  149.1608  139.7029  157.2781 H   0  0  0  0  0  0  0  0  0  0  0  0
  149.0296  143.2690  156.4566 H   0  0  0  0  0  0  0  0  0  0  0  0
  150.2944  141.0043  157.6936 H   0  0  0  0  0  0  0  0  0  0  0  0
  152.3466  142.2048  156.8884 H   0  0  0  0  0  0  0  0  0  0  0  0
  151.3440  143.5481  156.3506 H   0  0  0  0  0  0  0  0  0  0  0  0
  151.1801  141.9654  155.5977 H   0  0  0  0  0  0  0  0  0  0  0  0
  152.4244  144.0803  160.7235 H   0  0  0  0  0  0  0  0  0  0  0  0
  151.3303  143.0227  161.6239 H   0  0  0  0  0  0  0  0  0  0  0  0
  154.0409  142.7696  161.9035 H   0  0  0  0  0  0  0  0  0  0  0  0
  152.9687  141.3709  161.9363 H   0  0  0  0  0  0  0  0  0  0  0  0
  154.5905  142.3905  159.6006 H   0  0  0  0  0  0  0  0  0  0  0  0
  154.4372  140.7243  160.1549 H   0  0  0  0  0  0  0  0  0  0  0  0
  152.2644  140.5144  159.1735 H   0  0  0  0  0  0  0  0  0  0  0  0
  152.9524  141.7008  158.0602 H   0  0  0  0  0  0  0  0  0  0  0  0
  148.3740  138.4141  154.6696 H   0  0  0  0  0  0  0  0  0  0  0  0
  148.3681  142.7094  157.8476 H   0  0  0  0  0  0  0  0  0  0  0  0
  1  2  1  0  0  0  0
  1 21  1  0  0  0  0
  1 22  1  0  0  0  0
  1 23  1  0  0  0  0
  2 20  2  0  0  0  0
  2  3  1  0  0  0  0
  3  4  2  0  0  0  0
  3 24  1  0  0  0  0
  4  5  1  0  0  0  0
  5  6  1  0  0  0  0
  5 20  1  0  0  0  0
  6  7  1  0  0  0  0
  6  8  1  0  0  0  0
  6 25  1  0  0  0  0
  7 26  1  0  0  0  0
  7 27  1  0  0  0  0
  7 28  1  0  0  0  0
  8  9  1  0  0  0  0
  8 10  1  0  0  0  0
  8 29  1  0  0  0  0
  9 30  1  0  0  0  0
  9 31  1  0  0  0  0
  9 32  1  0  0  0  0
 10 11  1  0  0  0  0
 10 33  1  0  0  0  0
 10 47  1  0  0  0  0
 11 12  1  0  0  0  0
 11 13  1  0  0  0  0
 11 34  1  0  0  0  0
 12 35  1  0  0  0  0
 12 36  1  0  0  0  0
 12 37  1  0  0  0  0
 13 14  2  0  0  0  0
 13 15  1  0  0  0  0
 15 19  1  0  0  0  0
 15 16  1  0  0  0  0
 16 17  1  0  0  0  0
 16 38  1  0  0  0  0
 16 39  1  0  0  0  0
 17 18  1  0  0  0  0
 17 40  1  0  0  0  0
 17 41  1  0  0  0  0
 18 19  1  0  0  0  0
 18 42  1  0  0  0  0
 18 43  1  0  0  0  0
 19 44  1  0  0  0  0
 19 45  1  0  0  0  0
 20 46  1  0  0  0  0
M  CHG  1  10   1
M  END
> <s_m_source_file>
AV-unprocessed.smi

> <i_m_source_file_index>
3335

> <i_lp_mmshare_version>
43012

> <i_f3d_flags>
0

> <s_epik_input>
W0NIM11jMVtjSF1ubihbY0hdMSlbQ0BIXShbQ0gzXSlbQ0BIXShbQ0gzXSlbTkhdW0NASF0oW0NIM10pQyg9TylOMltDSDJdW0NIMl1bQ0gyXVtDSDJdMg==

> <s_epik_cmdline>
J2VwaWtfcHl0aG9uJywgJy1waCcsICc3LjAnLCAnLXRuJywgJzgnLCAnLW1hJywgJzIwMCcsICctbWV0YWxfYmluZGluZycsICctaW1hZScsICc8aW5maWxlLm1hZT4nLCAnLW9tYWUnLCAnPG91dGZpbGUubWFlPic=

> <r_lp_tautomer_probability>
1

> <r_epik_Ionization_Penalty>
0.14175

> <r_epik_Ionization_Penalty_Charging>
0.141731

> <r_epik_Ionization_Penalty_Neutral>
1.91261e-05

> <r_epik_State_Penalty>
0.131043

> <r_epik_Charging_Adjusted_Penalty>
0.272773

> <i_epik_Tot_Q>
1

> <i_epik_Tot_abs_Q>
1

> <r_epik_Metal_State_Penalty>
0.131408

> <b_epik_Metal_Only>
0

> <s_lp_Force_Field>
OPLS_2005

> <r_lp_Energy>
36.0865

> <b_lp_Chiralities_Consistent>
1

> <s_lp_Variant>
AV-unprocessed.smi:3335-8

> <Gold.Version>
5.8.1

> <Gold.Id.Protein>
6NUR|6NUR_protein|mol2

> <Gold.PLP.Fitness>
46.2685

> <Gold.PLP.PLP>
-41.3304

> <Gold.PLP.part.hbond>
-2.1853

> <Gold.PLP.part.metal>
0.0000

> <Gold.PLP.part.buried>
-6.3740

> <Gold.PLP.part.nonpolar>
-33.4117

> <Gold.PLP.part.repulsive>
0.2018

> <Gold.PLP.ligand.clash>
0.0000

> <Gold.PLP.ligand.torsion>
2.0660

> <Gold.PLP.Chemscore.Hbond>
3.0000

> <Gold.PLP.Chemscore.CHOScore>
0.0000

> <Gold.PLP.Chemscore.Metal>
0.0000

> <Gold.Chemscore.Hbonds>
donor molecule, donor type, donor heavy atom, donor atom, acceptor molecule, acceptor atom, score
      L1  H    10    33       P1  8028  2.00
      P1  H  7989  7998       L1     4  1.00

> <Gold.PLP.Chemscore.Internal.Correction>
0.0700

> <Gold.Rescore>
     Score         DG    S(hbond)    S(metal)    S(lipo)     H(rot)  DE(clash)    DE(int)     intcor
     13.89     -17.90       1.43        0.00     102.05       1.68       0.22       3.79       ----

> <Gold.Chemscore.Fitness>
13.8861

> <Gold.Chemscore.DG>
-17.9033

> <Gold.Chemscore.ZeroCoef>
-5.4800

> <Gold.Chemscore.Hbond>
1.4307

> <Gold.Chemscore.Metal>
0.0000

> <Gold.Chemscore.Lipo>
102.0511

> <Gold.Chemscore.Internal_Hbond>
0.0000

> <Gold.Chemscore.DEClash>
0.2240

> <Gold.Chemscore.DEInternal>
3.7931

> <Gold.Chemscore.Rot>
1.6778

> <Gold.Chemscore.Internal.Correction>
   9.000000E+99

> <Gold.Chemscore.Hbonds>
donor molecule, donor type, donor heavy atom, donor atom, acceptor molecule, acceptor atom, score
      L1  H    10    33       P1  8028  0.99
      P1  H  7989  7998       L1     4  0.24

> <Gold.Chemscore.Hbond.Weighted>
-4.7785

> <Gold.Chemscore.Metal.Weighted>
-0.0000

> <Gold.Chemscore.Lipo.Weighted>
-11.9400

> <Gold.Chemscore.Internal_Hbond.Weighted>
0.0000

> <Gold.Chemscore.DEClash.Weighted>
0.2240

> <Gold.Chemscore.DEInternal.Weighted>
3.7931

> <Gold.Chemscore.Rot.Weighted>
4.2952

> <Gold.Chemscore.Internal.Correction.Weighted>
   9.000000E+99

> <Gold.Protein.RotatedTorsions>
[ 6907 6896 6895 6894 ] final  -47.87 input  -60.11 | X-H torsion
[ 7974 7965 7964 7962 ] final  -89.07 input  175.53 | X-H torsion
[ 8008 7997 7996 7995 ] final   30.29 input   59.86 | X-H torsion
[ 10167 10162 10161 10158 ] final  -59.02 input  -65.29 | X-H torsion
[ 10718 10713 10712 10709 ] final  -53.29 input   66.30 | X-H torsion
[ 10763 10752 10751 10750 ] final    7.57 input  -60.55 | X-H torsion
[ 11005 11000 10999 10996 ] final  175.61 input  -57.11 | X-H torsion

> <Gold.Protein.ActiveResidues>
 VAL166  LYS551  ARG553  GLY616  TRP617  ASP618  TYR619  PRO620  LYS621  CYS622 
 ASP623  PHE694  ASN695  SER759  ASP760  ASP761  ALA762  ILE779  LEU786  VAL792 
 PHE793  MET794  SER795  GLU796  ALA797  LYS798  CYS799  TRP800  GLU811  SER814 

> <Gold.Protein.RotatedAtoms>
  150.8963  134.8372  159.7328 H   0  0  0  0  0  0  0  0  0  0  0  0  # atno 6907 bound_to 6896
  152.4867  134.4570  159.9603 H   0  0  0  0  0  0  0  0  0  0  0  0  # atno 6908 bound_to 6896
  151.4627  133.3550  159.2847 H   0  0  0  0  0  0  0  0  0  0  0  0  # atno 6909 bound_to 6896
  145.4447  140.9560  143.2055 H   0  0  0  0  0  0  0  0  0  0  0  0  # atno 7974 bound_to 7965
  155.0881  140.3217  155.4582 H   0  0  0  0  0  0  0  0  0  0  0  0  # atno 8008 bound_to 7997
  156.2750  140.2083  156.5954 H   0  0  0  0  0  0  0  0  0  0  0  0  # atno 8009 bound_to 7997
  154.6925  140.0515  157.0365 H   0  0  0  0  0  0  0  0  0  0  0  0  # atno 8010 bound_to 7997
  140.6161  143.2403  151.5593 H   0  0  0  0  0  0  0  0  0  0  0  0  # atno 10167 bound_to 10162
  156.1548  130.4150  149.9887 H   0  0  0  0  0  0  0  0  0  0  0  0  # atno 10718 bound_to 10713
  153.2348  135.6897  153.7849 H   0  0  0  0  0  0  0  0  0  0  0  0  # atno 10763 bound_to 10752
  153.7000  135.3299  155.3223 H   0  0  0  0  0  0  0  0  0  0  0  0  # atno 10764 bound_to 10752
  154.8330  135.4565  154.1247 H   0  0  0  0  0  0  0  0  0  0  0  0  # atno 10765 bound_to 10752
  140.3641  134.7087  157.4350 H   0  0  0  0  0  0  0  0  0  0  0  0  # atno 11005 bound_to 11000
  144.8099  139.5982  143.7034 LP  0  0  0  0  0  0  0  0  0  0  0  0  # atno 17320 bound_to 7965
  146.2537  139.6255  142.9409 LP  0  0  0  0  0  0  0  0  0  0  0  0  # atno 17321 bound_to 7965
  139.5400  144.2674  152.1331 LP  0  0  0  0  0  0  0  0  0  0  0  0  # atno 17342 bound_to 10162
  140.1884  144.4776  150.6492 LP  0  0  0  0  0  0  0  0  0  0  0  0  # atno 17343 bound_to 10162
  156.7734  130.9195  151.3645 LP  0  0  0  0  0  0  0  0  0  0  0  0  # atno 17370 bound_to 10713
  157.6686  130.9030  149.9988 LP  0  0  0  0  0  0  0  0  0  0  0  0  # atno 17371 bound_to 10713
  140.0603  134.6005  155.8756 LP  0  0  0  0  0  0  0  0  0  0  0  0  # atno 17394 bound_to 11000
  141.1975  133.6596  156.5744 LP  0  0  0  0  0  0  0  0  0  0  0  0  # atno 17395 bound_to 11000

$$$$
