AV-unprocessed.smi:1712|AV-procd|sdf|6903|dock8
  -GOLD-   22720 8103D 1   1.00000     0.00000
 Structure written by MMmdl.
 38 39  0  0  0  0  0  0  0  0  2 V2000
  146.9610  140.5487  153.8271 C   0  0  0  0  0  0  0  0  0  0  0  0
  147.3641  139.3058  152.9952 C   0  0  2  0  0  0  0  0  0  0  0  0
  146.1387  138.3767  152.7623 C   0  0  0  0  0  0  0  0  0  0  0  0
  146.4834  137.1012  152.1373 N   0  0  0  0  0  0  0  0  0  0  0  0
  145.6050  136.1636  151.7515 C   0  0  0  0  0  0  0  0  0  0  0  0
  144.3849  136.2915  151.8543 O   0  0  0  0  0  0  0  0  0  0  0  0
  146.2286  135.0888  151.2417 N   0  0  0  0  0  0  0  0  0  0  0  0
  145.6297  133.9158  150.7162 C   0  0  0  0  0  0  0  0  0  0  0  0
  144.2506  133.7836  150.3986 C   0  0  0  0  0  0  0  0  0  0  0  0
  143.9763  132.5756  149.9274 N   0  0  0  0  0  0  0  0  0  0  0  0
  145.1672  131.9354  149.9409 N   0  0  0  0  0  0  0  0  0  0  0  0
  146.2019  132.7120  150.4133 C   0  0  0  0  0  0  0  0  0  0  0  0
  148.5184  138.5738  153.6204 N   0  3  0  0  0  0  0  0  0  0  0  0
  149.6611  139.4536  153.9993 C   0  0  0  0  0  0  0  0  0  0  0  0
  150.8085  138.6549  154.6404 C   0  0  0  0  0  0  0  0  0  0  0  0
  150.3272  137.9453  155.7695 O   0  0  0  0  0  0  0  0  0  0  0  0
  149.3372  137.0020  155.3946 C   0  0  0  0  0  0  0  0  0  0  0  0
  148.1277  137.7320  154.7874 C   0  0  0  0  0  0  0  0  0  0  0  0
  145.2567  130.9790  149.6284 H   0  0  0  0  0  0  0  0  0  0  0  0
  146.1087  141.0707  153.3952 H   0  0  0  0  0  0  0  0  0  0  0  0
  147.7489  141.2983  153.8714 H   0  0  0  0  0  0  0  0  0  0  0  0
  146.6941  140.2728  154.8477 H   0  0  0  0  0  0  0  0  0  0  0  0
  147.6953  139.6591  152.0171 H   0  0  0  0  0  0  0  0  0  0  0  0
  145.6798  138.0969  153.7092 H   0  0  0  0  0  0  0  0  0  0  0  0
  145.3708  138.9007  152.1904 H   0  0  0  0  0  0  0  0  0  0  0  0
  147.4664  136.9098  152.0083 H   0  0  0  0  0  0  0  0  0  0  0  0
  147.2376  135.1120  151.2222 H   0  0  0  0  0  0  0  0  0  0  0  0
  143.4551  134.5082  150.4932 H   0  0  0  0  0  0  0  0  0  0  0  0
  147.2142  132.3434  150.4864 H   0  0  0  0  0  0  0  0  0  0  0  0
  150.0763  139.9540  153.1264 H   0  0  0  0  0  0  0  0  0  0  0  0
  149.3155  140.2269  154.6872 H   0  0  0  0  0  0  0  0  0  0  0  0
  151.2546  137.9657  153.9214 H   0  0  0  0  0  0  0  0  0  0  0  0
  151.6002  139.3316  154.9627 H   0  0  0  0  0  0  0  0  0  0  0  0
  149.7502  136.2772  154.6909 H   0  0  0  0  0  0  0  0  0  0  0  0
  149.0313  136.4443  156.2801 H   0  0  0  0  0  0  0  0  0  0  0  0
  147.6507  138.3562  155.5447 H   0  0  0  0  0  0  0  0  0  0  0  0
  147.4094  136.9678  154.4974 H   0  0  0  0  0  0  0  0  0  0  0  0
  148.8706  137.9402  152.9169 H   0  0  0  0  0  0  0  0  0  0  0  0
  1  2  1  0  0  0  0
  1 20  1  0  0  0  0
  1 21  1  0  0  0  0
  1 22  1  0  0  0  0
  2  3  1  0  0  0  0
  2 13  1  0  0  0  0
  2 23  1  0  0  0  0
  3  4  1  0  0  0  0
  3 24  1  0  0  0  0
  3 25  1  0  0  0  0
  4  5  1  0  0  0  0
  4 26  1  0  0  0  0
  5  6  2  0  0  0  0
  5  7  1  0  0  0  0
  7  8  1  0  0  0  0
  7 27  1  0  0  0  0
  8 12  2  0  0  0  0
  8  9  1  0  0  0  0
  9 10  2  0  0  0  0
  9 28  1  0  0  0  0
 10 11  1  0  0  0  0
 11 19  1  0  0  0  0
 11 12  1  0  0  0  0
 12 29  1  0  0  0  0
 13 18  1  0  0  0  0
 13 14  1  0  0  0  0
 13 38  1  0  0  0  0
 14 15  1  0  0  0  0
 14 30  1  0  0  0  0
 14 31  1  0  0  0  0
 15 16  1  0  0  0  0
 15 32  1  0  0  0  0
 15 33  1  0  0  0  0
 16 17  1  0  0  0  0
 17 18  1  0  0  0  0
 17 34  1  0  0  0  0
 17 35  1  0  0  0  0
 18 36  1  0  0  0  0
 18 37  1  0  0  0  0
M  CHG  1  13   1
M  END
> <s_m_source_file>
AV-unprocessed.smi

> <i_m_source_file_index>
1712

> <i_lp_mmshare_version>
43012

> <i_f3d_flags>
0

> <s_epik_input>
W0NIMl0xW0NIMl1PW0NIMl1bQ0gyXU4xW0NASF0oW0NIM10pW0NIMl1bTkhdQyg9TylbTkhdYzJbY0hdbltuSF1bY0hdMg==

> <s_epik_cmdline>
J2VwaWtfcHl0aG9uJywgJy1waCcsICc3LjAnLCAnLXRuJywgJzgnLCAnLW1hJywgJzIwMCcsICctbWV0YWxfYmluZGluZycsICctaW1hZScsICc8aW5maWxlLm1hZT4nLCAnLW9tYWUnLCAnPG91dGZpbGUubWFlPic=

> <r_lp_tautomer_probability>
0.5

> <r_epik_Ionization_Penalty>
0.646007

> <r_epik_Ionization_Penalty_Charging>
0.645968

> <r_epik_Ionization_Penalty_Neutral>
3.91929e-05

> <r_epik_State_Penalty>
0.664063

> <r_epik_Charging_Adjusted_Penalty>
1.31003

> <i_epik_Tot_Q>
1

> <i_epik_Tot_abs_Q>
1

> <r_epik_Metal_State_Penalty>
0.664064

> <b_epik_Metal_Only>
0

> <s_lp_Force_Field>
OPLS_2005

> <r_lp_Energy>
23.9653

> <b_lp_Chiralities_Consistent>
1

> <s_lp_Variant>
AV-unprocessed.smi:1712-3

> <Gold.Version>
5.8.1

> <Gold.Id.Protein>
6NUR|6NUR_protein|mol2

> <Gold.PLP.Fitness>
41.3898

> <Gold.PLP.PLP>
-25.0776

> <Gold.PLP.part.hbond>
-3.8871

> <Gold.PLP.part.metal>
0.0000

> <Gold.PLP.part.buried>
-1.5980

> <Gold.PLP.part.nonpolar>
-21.2375

> <Gold.PLP.part.repulsive>
1.0250

> <Gold.PLP.ligand.clash>
0.0000

> <Gold.PLP.ligand.torsion>
0.2589

> <Gold.PLP.Chemscore.Hbond>
3.7855

> <Gold.PLP.Chemscore.CHOScore>
1.8080

> <Gold.PLP.Chemscore.Metal>
0.0000

> <Gold.Chemscore.Hbonds>
donor molecule, donor type, donor heavy atom, donor atom, acceptor molecule, acceptor atom, score
      L1  H     4    26       P1  7948  1.00
      L1  H     7    27       P1  7948  0.79
      L1  H    13    38       P1  7948  2.00
      L1  C     9    28       P1 10186  0.78
      L1  C    12    29       P1 10747  1.00

> <Gold.PLP.Chemscore.Internal.Correction>
0.0497

> <Gold.Rescore>
     Score         DG    S(hbond)    S(metal)    S(lipo)     H(rot)  DE(clash)    DE(int)     intcor
     14.99     -16.77       2.54        0.00      60.77       1.68       0.25       1.52       ----

> <Gold.Chemscore.Fitness>
14.9889

> <Gold.Chemscore.DG>
-16.7675

> <Gold.Chemscore.ZeroCoef>
-5.4800

> <Gold.Chemscore.Hbond>
2.5361

> <Gold.Chemscore.Metal>
0.0000

> <Gold.Chemscore.Lipo>
60.7726

> <Gold.Chemscore.Internal_Hbond>
0.0000

> <Gold.Chemscore.DEClash>
0.2548

> <Gold.Chemscore.DEInternal>
1.5238

> <Gold.Chemscore.Rot>
1.6771

> <Gold.Chemscore.Internal.Correction>
   9.000000E+99

> <Gold.Chemscore.Hbonds>
donor molecule, donor type, donor heavy atom, donor atom, acceptor molecule, acceptor atom, score
      L1  H     4    26       P1  7948  0.99
      L1  H     7    27       P1  7948  0.48
      L1  H    13    38       P1  7948  0.96

> <Gold.Chemscore.Hbond.Weighted>
-8.4706

> <Gold.Chemscore.Metal.Weighted>
-0.0000

> <Gold.Chemscore.Lipo.Weighted>
-7.1104

> <Gold.Chemscore.Internal_Hbond.Weighted>
0.0000

> <Gold.Chemscore.DEClash.Weighted>
0.2548

> <Gold.Chemscore.DEInternal.Weighted>
1.5238

> <Gold.Chemscore.Rot.Weighted>
4.2935

> <Gold.Chemscore.Internal.Correction.Weighted>
   9.000000E+99

> <Gold.Protein.RotatedTorsions>
[ 6907 6896 6895 6894 ] final  -40.51 input  -60.11 | X-H torsion
[ 7974 7965 7964 7962 ] final  139.37 input  175.53 | X-H torsion
[ 8008 7997 7996 7995 ] final   54.32 input   59.86 | X-H torsion
[ 10167 10162 10161 10158 ] final  -73.73 input  -65.29 | X-H torsion
[ 10718 10713 10712 10709 ] final  107.15 input   66.30 | X-H torsion
[ 10763 10752 10751 10750 ] final  -13.45 input  -60.55 | X-H torsion
[ 11005 11000 10999 10996 ] final  -44.33 input  -57.11 | X-H torsion

> <Gold.Protein.ActiveResidues>
 VAL166  LYS551  ARG553  GLY616  TRP617  ASP618  TYR619  PRO620  LYS621  CYS622 
 ASP623  PHE694  ASN695  SER759  ASP760  ASP761  ALA762  ILE779  LEU786  VAL792 
 PHE793  MET794  SER795  GLU796  ALA797  LYS798  CYS799  TRP800  GLU811  SER814 

> <Gold.Protein.RotatedAtoms>
  150.9776  134.9137  159.7824 H   0  0  0  0  0  0  0  0  0  0  0  0  # atno 6907 bound_to 6896
  152.5211  134.3455  159.9242 H   0  0  0  0  0  0  0  0  0  0  0  0  # atno 6908 bound_to 6896
  151.3462  133.3902  159.2710 H   0  0  0  0  0  0  0  0  0  0  0  0  # atno 6909 bound_to 6896
  144.9285  139.5077  143.5629 H   0  0  0  0  0  0  0  0  0  0  0  0  # atno 7974 bound_to 7965
  155.4828  140.3469  155.4342 H   0  0  0  0  0  0  0  0  0  0  0  0  # atno 8008 bound_to 7997
  156.1028  140.1440  156.9473 H   0  0  0  0  0  0  0  0  0  0  0  0  # atno 8009 bound_to 7997
  154.4705  140.0902  156.7109 H   0  0  0  0  0  0  0  0  0  0  0  0  # atno 8010 bound_to 7997
  140.5086  143.2348  151.7632 H   0  0  0  0  0  0  0  0  0  0  0  0  # atno 10167 bound_to 10162
  157.6640  131.0866  150.6113 H   0  0  0  0  0  0  0  0  0  0  0  0  # atno 10718 bound_to 10713
  153.5134  135.7016  153.5769 H   0  0  0  0  0  0  0  0  0  0  0  0  # atno 10763 bound_to 10752
  153.3849  135.3911  155.1882 H   0  0  0  0  0  0  0  0  0  0  0  0  # atno 10764 bound_to 10752
  154.8701  135.3844  154.4617 H   0  0  0  0  0  0  0  0  0  0  0  0  # atno 10765 bound_to 10752
  141.0444  133.6767  156.2858 H   0  0  0  0  0  0  0  0  0  0  0  0  # atno 11005 bound_to 11000
  146.3237  139.8218  142.8925 LP  0  0  0  0  0  0  0  0  0  0  0  0  # atno 17320 bound_to 7965
  145.3180  141.0237  143.3517 LP  0  0  0  0  0  0  0  0  0  0  0  0  # atno 17321 bound_to 7965
  139.4890  144.4422  151.9751 LP  0  0  0  0  0  0  0  0  0  0  0  0  # atno 17342 bound_to 10162
  140.3514  144.3084  150.5949 LP  0  0  0  0  0  0  0  0  0  0  0  0  # atno 17343 bound_to 10162
  156.6414  130.4459  149.5751 LP  0  0  0  0  0  0  0  0  0  0  0  0  # atno 17370 bound_to 10713
  156.2206  130.6735  151.1364 LP  0  0  0  0  0  0  0  0  0  0  0  0  # atno 17371 bound_to 10713
  140.6175  134.5395  157.5543 LP  0  0  0  0  0  0  0  0  0  0  0  0  # atno 17394 bound_to 11000
  139.9300  134.7982  156.0958 LP  0  0  0  0  0  0  0  0  0  0  0  0  # atno 17395 bound_to 11000

$$$$
