AV-unprocessed.smi:1974|AV-procd|sdf|7980|dock10
  -GOLD-   2272010163D 1   1.00000     0.00000
 Structure written by MMmdl.
 34 35  0  0  0  0  0  0  0  0  1 V2000
  145.0990  134.8265  153.5860 C   0  0  0  0  0  0  0  0  0  0  0  0
  146.2746  134.4541  152.6690 C   0  0  2  0  0  0  0  0  0  0  0  0
  146.2634  132.9526  152.3223 C   0  0  0  0  0  0  0  0  0  0  0  0
  145.4381  132.6552  151.1651 N   0  0  0  0  0  0  0  0  0  0  0  0
  145.8379  132.2718  149.9021 C   0  0  0  0  0  0  0  0  0  0  0  0
  144.7092  132.1062  149.1516 C   0  0  0  0  0  0  0  0  0  0  0  0
  143.6543  132.4133  150.0559 C   0  0  0  0  0  0  0  0  0  0  0  0
  144.0937  132.7405  151.2603 N   0  0  0  0  0  0  0  0  0  0  0  0
  147.5380  134.8106  153.3120 N   0  0  0  0  0  0  0  0  0  0  0  0
  147.8718  134.5302  154.5807 C   0  0  0  0  0  0  0  0  0  0  0  0
  147.1238  133.9434  155.3636 O   0  0  0  0  0  0  0  0  0  0  0  0
  149.2572  135.0067  155.0331 C   0  0  0  0  0  0  0  0  0  0  0  0
  150.1250  133.9025  155.4438 N   0  0  0  0  0  0  0  0  0  0  0  0
  149.6583  132.5320  155.2816 C   0  0  0  0  0  0  0  0  0  0  0  0
  150.8714  131.6078  155.4042 C   0  0  0  0  0  0  0  0  0  0  0  0
  152.1311  132.4836  156.3529 S   0  0  0  0  0  0  0  0  0  0  0  0
  151.3658  134.0780  156.0421 C   0  0  0  0  0  0  0  0  0  0  0  0
  151.9130  135.1390  156.3378 O   0  0  0  0  0  0  0  0  0  0  0  0
  144.1452  134.5811  153.1183 H   0  0  0  0  0  0  0  0  0  0  0  0
  145.0895  135.8949  153.8046 H   0  0  0  0  0  0  0  0  0  0  0  0
  145.1514  134.2926  154.5355 H   0  0  0  0  0  0  0  0  0  0  0  0
  146.1702  135.0186  151.7402 H   0  0  0  0  0  0  0  0  0  0  0  0
  147.2763  132.5944  152.1324 H   0  0  0  0  0  0  0  0  0  0  0  0
  145.8832  132.3742  153.1656 H   0  0  0  0  0  0  0  0  0  0  0  0
  146.8802  132.1521  149.6454 H   0  0  0  0  0  0  0  0  0  0  0  0
  144.6460  131.8102  148.1149 H   0  0  0  0  0  0  0  0  0  0  0  0
  142.5896  132.4078  149.8743 H   0  0  0  0  0  0  0  0  0  0  0  0
  148.2130  135.3023  152.7445 H   0  0  0  0  0  0  0  0  0  0  0  0
  149.7397  135.5653  154.2289 H   0  0  0  0  0  0  0  0  0  0  0  0
  149.1300  135.7061  155.8603 H   0  0  0  0  0  0  0  0  0  0  0  0
  148.9371  132.3179  156.0715 H   0  0  0  0  0  0  0  0  0  0  0  0
  149.1533  132.3943  154.3246 H   0  0  0  0  0  0  0  0  0  0  0  0
  150.6191  130.6542  155.8686 H   0  0  0  0  0  0  0  0  0  0  0  0
  151.2810  131.3988  154.4154 H   0  0  0  0  0  0  0  0  0  0  0  0
  1  2  1  0  0  0  0
  1 19  1  0  0  0  0
  1 20  1  0  0  0  0
  1 21  1  0  0  0  0
  2  3  1  0  0  0  0
  2  9  1  0  0  0  0
  2 22  1  0  0  0  0
  3  4  1  0  0  0  0
  3 23  1  0  0  0  0
  3 24  1  0  0  0  0
  4  8  1  0  0  0  0
  4  5  1  0  0  0  0
  5  6  2  0  0  0  0
  5 25  1  0  0  0  0
  6  7  1  0  0  0  0
  6 26  1  0  0  0  0
  7  8  2  0  0  0  0
  7 27  1  0  0  0  0
  9 10  1  0  0  0  0
  9 28  1  0  0  0  0
 10 11  2  0  0  0  0
 10 12  1  0  0  0  0
 12 13  1  0  0  0  0
 12 29  1  0  0  0  0
 12 30  1  0  0  0  0
 13 17  1  0  0  0  0
 13 14  1  0  0  0  0
 14 15  1  0  0  0  0
 14 31  1  0  0  0  0
 14 32  1  0  0  0  0
 15 16  1  0  0  0  0
 15 33  1  0  0  0  0
 15 34  1  0  0  0  0
 16 17  1  0  0  0  0
 17 18  2  0  0  0  0
M  END
> <s_m_source_file>
AV-unprocessed.smi

> <i_m_source_file_index>
1974

> <i_lp_mmshare_version>
43012

> <i_f3d_flags>
0

> <s_epik_input>
bjFbY0hdW2NIXVtjSF1uMVtDSDJdW0NAQEhdKFtDSDNdKVtOSF1DKD1PKVtDSDJdTjJbQ0gyXVtDSDJdU0MyPU8=

> <s_epik_cmdline>
J2VwaWtfcHl0aG9uJywgJy1waCcsICc3LjAnLCAnLXRuJywgJzgnLCAnLW1hJywgJzIwMCcsICctbWV0YWxfYmluZGluZycsICctaW1hZScsICc8aW5maWxlLm1hZT4nLCAnLW9tYWUnLCAnPG91dGZpbGUubWFlPic=

> <r_lp_tautomer_probability>
1

> <r_epik_Ionization_Penalty>
0.000283364

> <r_epik_Ionization_Penalty_Charging>
0

> <r_epik_Ionization_Penalty_Neutral>
0.000283364

> <r_epik_State_Penalty>
-0

> <r_epik_Charging_Adjusted_Penalty>
0

> <i_epik_Tot_Q>
0

> <i_epik_Tot_abs_Q>
0

> <r_epik_Metal_State_Penalty>
-0

> <b_epik_Metal_Only>
0

> <s_lp_Force_Field>
OPLS_2005

> <r_lp_Energy>
2.8686

> <b_lp_Chiralities_Consistent>
1

> <s_lp_Variant>
AV-unprocessed.smi:1974-1

> <Gold.Version>
5.8.1

> <Gold.Id.Protein>
6NUR|6NUR_protein|mol2

> <Gold.PLP.Fitness>
39.6079

> <Gold.PLP.PLP>
-27.3417

> <Gold.PLP.part.hbond>
-2.0000

> <Gold.PLP.part.metal>
0.0000

> <Gold.PLP.part.buried>
-4.0742

> <Gold.PLP.part.nonpolar>
-22.3049

> <Gold.PLP.part.repulsive>
0.1939

> <Gold.PLP.ligand.clash>
0.0000

> <Gold.PLP.ligand.torsion>
0.6613

> <Gold.PLP.Chemscore.Hbond>
2.0000

> <Gold.PLP.Chemscore.CHOScore>
2.5150

> <Gold.PLP.Chemscore.Metal>
0.0000

> <Gold.Chemscore.Hbonds>
donor molecule, donor type, donor heavy atom, donor atom, acceptor molecule, acceptor atom, score
      L1  H     9    28       P1  7948  0.81
      P1  H 10752 10763       L1    18  1.00
      L1  C     5    25       P1 10747  1.00
      L1  C     7    27       P1 10186  0.87
      L1  C     7    27       P1 10952  0.51

> <Gold.PLP.Chemscore.Internal.Correction>
0.0439

> <Gold.Rescore>
     Score         DG    S(hbond)    S(metal)    S(lipo)     H(rot)  DE(clash)    DE(int)     intcor
     10.82     -14.24       1.92        0.00      64.77       2.04       0.05       3.37       ----

> <Gold.Chemscore.Fitness>
10.8209

> <Gold.Chemscore.DG>
-14.2368

> <Gold.Chemscore.ZeroCoef>
-5.4800

> <Gold.Chemscore.Hbond>
1.9169

> <Gold.Chemscore.Metal>
0.0000

> <Gold.Chemscore.Lipo>
64.7689

> <Gold.Chemscore.Internal_Hbond>
0.0000

> <Gold.Chemscore.DEClash>
0.0474

> <Gold.Chemscore.DEInternal>
3.3685

> <Gold.Chemscore.Rot>
2.0405

> <Gold.Chemscore.Internal.Correction>
   9.000000E+99

> <Gold.Chemscore.Hbonds>
donor molecule, donor type, donor heavy atom, donor atom, acceptor molecule, acceptor atom, score
      L1  H     9    28       P1  7948  0.79
      P1  H 10752 10763       L1    18  0.63

> <Gold.Chemscore.Hbond.Weighted>
-6.4026

> <Gold.Chemscore.Metal.Weighted>
-0.0000

> <Gold.Chemscore.Lipo.Weighted>
-7.5780

> <Gold.Chemscore.Internal_Hbond.Weighted>
0.0000

> <Gold.Chemscore.DEClash.Weighted>
0.0474

> <Gold.Chemscore.DEInternal.Weighted>
3.3685

> <Gold.Chemscore.Rot.Weighted>
5.2237

> <Gold.Chemscore.Internal.Correction.Weighted>
   9.000000E+99

> <Gold.Protein.RotatedTorsions>
[ 6907 6896 6895 6894 ] final  -17.61 input  -60.11 | X-H torsion
[ 7974 7965 7964 7962 ] final  -15.85 input  175.53 | X-H torsion
[ 8008 7997 7996 7995 ] final  168.39 input   59.86 | X-H torsion
[ 10167 10162 10161 10158 ] final  106.13 input  -65.29 | X-H torsion
[ 10718 10713 10712 10709 ] final -149.00 input   66.30 | X-H torsion
[ 10763 10752 10751 10750 ] final  102.84 input  -60.55 | X-H torsion
[ 11005 11000 10999 10996 ] final  -83.48 input  -57.11 | X-H torsion

> <Gold.Protein.ActiveResidues>
 VAL166  LYS551  ARG553  GLY616  TRP617  ASP618  TYR619  PRO620  LYS621  CYS622 
 ASP623  PHE694  ASN695  SER759  ASP760  ASP761  ALA762  ILE779  LEU786  VAL792 
 PHE793  MET794  SER795  GLU796  ALA797  LYS798  CYS799  TRP800  GLU811  SER814 

> <Gold.Protein.RotatedAtoms>
  151.2907  135.0741  159.9202 H   0  0  0  0  0  0  0  0  0  0  0  0  # atno 6907 bound_to 6896
  152.5317  133.9935  159.7872 H   0  0  0  0  0  0  0  0  0  0  0  0  # atno 6908 bound_to 6896
  151.0205  133.5830  159.2702 H   0  0  0  0  0  0  0  0  0  0  0  0  # atno 6909 bound_to 6896
  146.2014  140.3552  142.8422 H   0  0  0  0  0  0  0  0  0  0  0  0  # atno 7974 bound_to 7965
  156.1551  140.1592  156.8706 H   0  0  0  0  0  0  0  0  0  0  0  0  # atno 8008 bound_to 7997
  154.5107  140.0802  156.8020 H   0  0  0  0  0  0  0  0  0  0  0  0  # atno 8009 bound_to 7997
  155.3819  140.3405  155.4249 H   0  0  0  0  0  0  0  0  0  0  0  0  # atno 8010 bound_to 7997
  139.7034  144.7090  151.1146 H   0  0  0  0  0  0  0  0  0  0  0  0  # atno 10167 bound_to 10162
  156.4274  130.8059  151.2284 H   0  0  0  0  0  0  0  0  0  0  0  0  # atno 10718 bound_to 10713
  153.3448  135.3997  155.1600 H   0  0  0  0  0  0  0  0  0  0  0  0  # atno 10763 bound_to 10752
  154.8651  135.3642  154.5298 H   0  0  0  0  0  0  0  0  0  0  0  0  # atno 10764 bound_to 10752
  153.5746  135.7078  153.5549 H   0  0  0  0  0  0  0  0  0  0  0  0  # atno 10765 bound_to 10752
  141.1657  133.7296  156.8726 H   0  0  0  0  0  0  0  0  0  0  0  0  # atno 11005 bound_to 11000
  144.8691  140.7248  143.6058 LP  0  0  0  0  0  0  0  0  0  0  0  0  # atno 17320 bound_to 7965
  145.3472  139.1716  143.4454 LP  0  0  0  0  0  0  0  0  0  0  0  0  # atno 17321 bound_to 7965
  140.7715  143.5392  150.9333 LP  0  0  0  0  0  0  0  0  0  0  0  0  # atno 17342 bound_to 10162
  139.9074  143.6762  152.3121 LP  0  0  0  0  0  0  0  0  0  0  0  0  # atno 17343 bound_to 10162
  157.7508  131.0209  150.3727 LP  0  0  0  0  0  0  0  0  0  0  0  0  # atno 17370 bound_to 10713
  156.4057  130.3924  149.6927 LP  0  0  0  0  0  0  0  0  0  0  0  0  # atno 17371 bound_to 10713
  140.1771  134.9059  157.2903 LP  0  0  0  0  0  0  0  0  0  0  0  0  # atno 17394 bound_to 11000
  140.2437  134.3765  155.7470 LP  0  0  0  0  0  0  0  0  0  0  0  0  # atno 17395 bound_to 11000

$$$$
