AV-unprocessed.smi:2784|AV-procd|sdf|10731|dock10
  -GOLD-   2272015173D 1   1.00000     0.00000
 Structure written by MMmdl.
 32 33  0  0  0  0  0  0  0  0  2 V2000
  149.9185  130.5533  154.2205 C   0  0  0  0  0  0  0  0  0  0  0  0
  149.5497  131.9195  154.1207 O   0  0  0  0  0  0  0  0  0  0  0  0
  149.1296  132.4968  155.3546 C   0  0  1  0  0  0  0  0  0  0  0  0
  150.3369  132.6255  156.2908 C   0  0  0  0  0  0  0  0  0  0  0  0
  151.0242  133.9108  155.8394 C   0  0  0  0  0  0  0  0  0  0  0  0
  149.8774  134.8517  155.4638 C   0  0  0  0  0  0  0  0  0  0  0  0
  148.6694  133.9558  155.1253 C   0  0  1  0  0  0  0  0  0  0  0  0
  148.1979  134.1994  153.7634 N   0  0  0  0  0  0  0  0  0  0  0  0
  147.2500  133.4823  153.1431 C   0  0  0  0  0  0  0  0  0  0  0  0
  146.6512  132.5428  153.6678 O   0  0  0  0  0  0  0  0  0  0  0  0
  147.0477  133.9118  151.8886 N   0  0  0  0  0  0  0  0  0  0  0  0
  146.1065  133.3813  150.9768 C   0  0  0  0  0  0  0  0  0  0  0  0
  146.3450  132.3407  150.1799 N   0  3  0  0  0  0  0  0  0  0  0  0
  145.2233  132.0964  149.4269 C   0  0  0  0  0  0  0  0  0  0  0  0
  144.3025  133.0418  149.8107 C   0  0  0  0  0  0  0  0  0  0  0  0
  144.8430  133.8567  150.7852 O   0  0  0  0  0  0  0  0  0  0  0  0
  150.2242  130.1876  153.2404 H   0  0  0  0  0  0  0  0  0  0  0  0
  149.0788  129.9439  154.5567 H   0  0  0  0  0  0  0  0  0  0  0  0
  150.7526  130.4065  154.9062 H   0  0  0  0  0  0  0  0  0  0  0  0
  148.3246  131.9083  155.7990 H   0  0  0  0  0  0  0  0  0  0  0  0
  149.9889  132.7437  157.3178 H   0  0  0  0  0  0  0  0  0  0  0  0
  151.0051  131.7647  156.2706 H   0  0  0  0  0  0  0  0  0  0  0  0
  151.6755  134.3302  156.6067 H   0  0  0  0  0  0  0  0  0  0  0  0
  151.6363  133.7073  154.9597 H   0  0  0  0  0  0  0  0  0  0  0  0
  149.6303  135.4882  156.3145 H   0  0  0  0  0  0  0  0  0  0  0  0
  150.1643  135.5128  154.6447 H   0  0  0  0  0  0  0  0  0  0  0  0
  147.8699  134.1930  155.8303 H   0  0  0  0  0  0  0  0  0  0  0  0
  148.6453  134.9496  153.2574 H   0  0  0  0  0  0  0  0  0  0  0  0
  147.1948  131.7949  150.1100 H   0  0  0  0  0  0  0  0  0  0  0  0
  145.1925  131.2914  148.7065 H   0  0  0  0  0  0  0  0  0  0  0  0
  143.2875  133.2601  149.5117 H   0  0  0  0  0  0  0  0  0  0  0  0
  147.6089  134.6841  151.5615 H   0  0  0  0  0  0  0  0  0  0  0  0
  1  2  1  0  0  0  0
  1 17  1  0  0  0  0
  1 18  1  0  0  0  0
  1 19  1  0  0  0  0
  2  3  1  0  0  0  0
  3  7  1  0  0  0  0
  3  4  1  0  0  0  0
  3 20  1  0  0  0  0
  4  5  1  0  0  0  0
  4 21  1  0  0  0  0
  4 22  1  0  0  0  0
  5  6  1  0  0  0  0
  5 23  1  0  0  0  0
  5 24  1  0  0  0  0
  6  7  1  0  0  0  0
  6 25  1  0  0  0  0
  6 26  1  0  0  0  0
  7  8  1  0  0  0  0
  7 27  1  0  0  0  0
  8 28  1  0  0  0  0
  8  9  1  0  0  0  0
  9 11  1  0  0  0  0
  9 10  2  0  0  0  0
 11 12  1  0  0  0  0
 11 32  1  0  0  0  0
 12 16  1  0  0  0  0
 12 13  2  0  0  0  0
 13 29  1  0  0  0  0
 13 14  1  0  0  0  0
 14 30  1  0  0  0  0
 14 15  2  0  0  0  0
 15 31  1  0  0  0  0
 15 16  1  0  0  0  0
M  CHG  1  13   1
M  END
> <s_m_source_file>
AV-unprocessed.smi

> <i_m_source_file_index>
2784

> <i_lp_mmshare_version>
43012

> <i_f3d_flags>
0

> <s_epik_input>
W0NIM11PW0NAQEhdMVtDSDJdW0NIMl1bQ0gyXVtDQEhdMVtOSF1DKD1PKVtOSF1jMm5bY0hdW2NIXW8y

> <s_epik_cmdline>
J2VwaWtfcHl0aG9uJywgJy1waCcsICc3LjAnLCAnLXRuJywgJzgnLCAnLW1hJywgJzIwMCcsICctbWV0YWxfYmluZGluZycsICctaW1hZScsICc8aW5maWxlLm1hZT4nLCAnLW9tYWUnLCAnPG91dGZpbGUubWFlPic=

> <r_epik_Ionization_Penalty>
6.73843

> <r_epik_Ionization_Penalty_Charging>
6.66704

> <r_epik_Ionization_Penalty_Neutral>
0.0713889

> <r_epik_State_Penalty>
1.94951

> <r_epik_Charging_Adjusted_Penalty>
8.61656

> <i_epik_Tot_Q>
1

> <i_epik_Tot_abs_Q>
1

> <r_epik_Metal_State_Penalty>
1.97013

> <b_epik_Metal_Only>
0

> <s_lp_Force_Field>
OPLS_2005

> <r_lp_Energy>
28.3285

> <b_lp_Chiralities_Consistent>
1

> <s_lp_Variant>
AV-unprocessed.smi:2784-6

> <Gold.Version>
5.8.1

> <Gold.Id.Protein>
6NUR|6NUR_protein|mol2

> <Gold.PLP.Fitness>
34.7090

> <Gold.PLP.PLP>
-24.4040

> <Gold.PLP.part.hbond>
-3.0000

> <Gold.PLP.part.metal>
0.0000

> <Gold.PLP.part.buried>
-5.8546

> <Gold.PLP.part.nonpolar>
-16.8574

> <Gold.PLP.part.repulsive>
0.4509

> <Gold.PLP.ligand.clash>
0.0000

> <Gold.PLP.ligand.torsion>
0.8163

> <Gold.PLP.Chemscore.Hbond>
3.0000

> <Gold.PLP.Chemscore.CHOScore>
0.9756

> <Gold.PLP.Chemscore.Metal>
0.0000

> <Gold.Chemscore.Hbonds>
donor molecule, donor type, donor heavy atom, donor atom, acceptor molecule, acceptor atom, score
      L1  H     8    28       P1  7948  1.00
      L1  H    11    32       P1  7948  1.00
      L1  H    13    29       P1 10747  1.00
      L1  C    15    31       P1 10186  0.93

> <Gold.PLP.Chemscore.Internal.Correction>
0.0107

> <Gold.Rescore>
     Score         DG    S(hbond)    S(metal)    S(lipo)     H(rot)  DE(clash)    DE(int)     intcor
     14.60     -15.79       2.49        0.00      46.21       1.34       0.40       0.79       ----

> <Gold.Chemscore.Fitness>
14.6025

> <Gold.Chemscore.DG>
-15.7934

> <Gold.Chemscore.ZeroCoef>
-5.4800

> <Gold.Chemscore.Hbond>
2.4925

> <Gold.Chemscore.Metal>
0.0000

> <Gold.Chemscore.Lipo>
46.2066

> <Gold.Chemscore.Internal_Hbond>
0.0000

> <Gold.Chemscore.DEClash>
0.3991

> <Gold.Chemscore.DEInternal>
0.7918

> <Gold.Chemscore.Rot>
1.3351

> <Gold.Chemscore.Internal.Correction>
   9.000000E+99

> <Gold.Chemscore.Hbonds>
donor molecule, donor type, donor heavy atom, donor atom, acceptor molecule, acceptor atom, score
      L1  H     8    28       P1  7948  0.60
      L1  H    11    32       P1  7948  0.28
      L1  H    13    29       P1 10747  0.95

> <Gold.Chemscore.Hbond.Weighted>
-8.3249

> <Gold.Chemscore.Metal.Weighted>
-0.0000

> <Gold.Chemscore.Lipo.Weighted>
-5.4062

> <Gold.Chemscore.Internal_Hbond.Weighted>
0.0000

> <Gold.Chemscore.DEClash.Weighted>
0.3991

> <Gold.Chemscore.DEInternal.Weighted>
0.7918

> <Gold.Chemscore.Rot.Weighted>
3.4177

> <Gold.Chemscore.Internal.Correction.Weighted>
   9.000000E+99

> <Gold.Protein.RotatedTorsions>
[ 6907 6896 6895 6894 ] final   28.96 input  -60.11 | X-H torsion
[ 7974 7965 7964 7962 ] final  -46.75 input  175.53 | X-H torsion
[ 8008 7997 7996 7995 ] final  168.32 input   59.86 | X-H torsion
[ 10167 10162 10161 10158 ] final  151.88 input  -65.29 | X-H torsion
[ 10718 10713 10712 10709 ] final   10.60 input   66.30 | X-H torsion
[ 10763 10752 10751 10750 ] final -161.73 input  -60.55 | X-H torsion
[ 11005 11000 10999 10996 ] final  -80.75 input  -57.11 | X-H torsion

> <Gold.Protein.ActiveResidues>
 VAL166  LYS551  ARG553  GLY616  TRP617  ASP618  TYR619  PRO620  LYS621  CYS622 
 ASP623  PHE694  ASN695  SER759  ASP760  ASP761  ALA762  ILE779  LEU786  VAL792 
 PHE793  MET794  SER795  GLU796  ALA797  LYS798  CYS799  TRP800  GLU811  SER814 

> <Gold.Protein.RotatedAtoms>
  152.0246  134.9803  160.0571 H   0  0  0  0  0  0  0  0  0  0  0  0  # atno 6907 bound_to 6896
  152.1304  133.4400  159.4726 H   0  0  0  0  0  0  0  0  0  0  0  0  # atno 6908 bound_to 6896
  150.6856  134.2346  159.4491 H   0  0  0  0  0  0  0  0  0  0  0  0  # atno 6909 bound_to 6896
  145.9687  140.7405  142.9421 H   0  0  0  0  0  0  0  0  0  0  0  0  # atno 7974 bound_to 7965
  156.1557  140.1593  156.8696 H   0  0  0  0  0  0  0  0  0  0  0  0  # atno 8008 bound_to 7997
  154.5113  140.0800  156.8031 H   0  0  0  0  0  0  0  0  0  0  0  0  # atno 8009 bound_to 7997
  155.3807  140.3405  155.4249 H   0  0  0  0  0  0  0  0  0  0  0  0  # atno 8010 bound_to 7997
  139.4837  144.5405  151.7573 H   0  0  0  0  0  0  0  0  0  0  0  0  # atno 10167 bound_to 10162
  156.9833  130.6014  149.5679 H   0  0  0  0  0  0  0  0  0  0  0  0  # atno 10718 bound_to 10713
  154.7277  135.3039  154.8943 H   0  0  0  0  0  0  0  0  0  0  0  0  # atno 10763 bound_to 10752
  153.9795  135.6732  153.4753 H   0  0  0  0  0  0  0  0  0  0  0  0  # atno 10764 bound_to 10752
  153.0890  135.4969  154.8573 H   0  0  0  0  0  0  0  0  0  0  0  0  # atno 10765 bound_to 10752
  141.1667  133.7164  156.8319 H   0  0  0  0  0  0  0  0  0  0  0  0  # atno 11005 bound_to 11000
  144.6832  140.2713  143.7305 LP  0  0  0  0  0  0  0  0  0  0  0  0  # atno 17320 bound_to 7965
  145.7936  139.1937  143.2088 LP  0  0  0  0  0  0  0  0  0  0  0  0  # atno 17321 bound_to 7965
  140.4943  144.1263  150.5957 LP  0  0  0  0  0  0  0  0  0  0  0  0  # atno 17342 bound_to 10162
  140.4135  143.2645  151.9804 LP  0  0  0  0  0  0  0  0  0  0  0  0  # atno 17343 bound_to 10162
  156.0236  130.5330  150.8344 LP  0  0  0  0  0  0  0  0  0  0  0  0  # atno 17370 bound_to 10713
  157.5511  131.0944  150.9694 LP  0  0  0  0  0  0  0  0  0  0  0  0  # atno 17371 bound_to 10713
  140.2045  134.8873  157.3206 LP  0  0  0  0  0  0  0  0  0  0  0  0  # atno 17394 bound_to 11000
  140.2152  134.4090  155.7593 LP  0  0  0  0  0  0  0  0  0  0  0  0  # atno 17395 bound_to 11000

$$$$
