AV-unprocessed.smi:2878|AV-procd|sdf|11047|dock6
  -GOLD-   2272015513D 1   1.00000     0.00000
 Structure written by MMmdl.
 42 43  0  0  0  0  0  0  0  0  1 V2000
  148.3834  133.8836  154.1827 C   0  0  0  0  0  0  0  0  0  0  0  0
  146.7280  133.7916  154.9169 S   0  0  0  0  0  0  0  0  0  0  0  0
  145.6968  134.3215  153.5119 C   0  0  2  0  0  0  0  0  0  0  0  0
  146.2346  133.7363  152.1916 C   0  0  0  0  0  0  0  0  0  0  0  0
  145.3538  134.1395  150.9985 C   0  0  0  0  0  0  0  0  0  0  0  0
  145.2120  135.6658  150.9005 C   0  0  0  0  0  0  0  0  0  0  0  0
  144.6802  136.2616  152.2154 C   0  0  0  0  0  0  0  0  0  0  0  0
  145.5446  135.8609  153.4310 C   0  0  2  0  0  0  0  0  0  0  0  0
  146.8526  136.5157  153.3816 N   0  0  0  0  0  0  0  0  0  0  0  0
  147.2101  137.5877  154.1016 C   0  0  0  0  0  0  0  0  0  0  0  0
  146.4645  138.1709  154.8887 O   0  0  0  0  0  0  0  0  0  0  0  0
  148.4784  137.9477  153.8616 N   0  0  0  0  0  0  0  0  0  0  0  0
  149.1546  139.0811  154.4828 C   0  0  0  0  0  0  0  0  0  0  0  0
  150.6837  138.9386  154.4172 C   0  0  0  0  0  0  0  0  0  0  0  0
  151.3515  139.4108  155.6653 C   0  0  0  0  0  0  0  0  0  0  0  0
  150.7788  140.0127  156.7049 N   0  0  0  0  0  0  0  0  0  0  0  0
  151.8416  140.1490  157.5449 C   0  0  0  0  0  0  0  0  0  0  0  0
  151.7369  140.7875  158.8875 C   0  0  0  0  0  0  0  0  0  0  0  0
  152.9962  139.6654  157.1036 N   0  0  0  0  0  0  0  0  0  0  0  0
  152.6706  139.1549  155.8385 O   0  0  0  0  0  0  0  0  0  0  0  0
  149.1378  133.6508  154.9340 H   0  0  0  0  0  0  0  0  0  0  0  0
  148.5763  134.8861  153.8006 H   0  0  0  0  0  0  0  0  0  0  0  0
  148.4865  133.1707  153.3651 H   0  0  0  0  0  0  0  0  0  0  0  0
  144.7079  133.8914  153.6774 H   0  0  0  0  0  0  0  0  0  0  0  0
  147.2574  134.0750  152.0212 H   0  0  0  0  0  0  0  0  0  0  0  0
  146.2796  132.6487  152.2586 H   0  0  0  0  0  0  0  0  0  0  0  0
  145.7764  133.7455  150.0738 H   0  0  0  0  0  0  0  0  0  0  0  0
  144.3666  133.6879  151.1044 H   0  0  0  0  0  0  0  0  0  0  0  0
  146.1786  136.1090  150.6578 H   0  0  0  0  0  0  0  0  0  0  0  0
  144.5419  135.9234  150.0799 H   0  0  0  0  0  0  0  0  0  0  0  0
  144.6147  137.3470  152.1332 H   0  0  0  0  0  0  0  0  0  0  0  0
  143.6595  135.9118  152.3751 H   0  0  0  0  0  0  0  0  0  0  0  0
  145.0290  136.1995  154.3305 H   0  0  0  0  0  0  0  0  0  0  0  0
  147.5390  136.1067  152.7648 H   0  0  0  0  0  0  0  0  0  0  0  0
  149.0121  137.4038  153.1993 H   0  0  0  0  0  0  0  0  0  0  0  0
  148.8446  139.9870  153.9613 H   0  0  0  0  0  0  0  0  0  0  0  0
  148.8248  139.1897  155.5176 H   0  0  0  0  0  0  0  0  0  0  0  0
  150.9634  137.8975  154.2512 H   0  0  0  0  0  0  0  0  0  0  0  0
  151.0786  139.5066  153.5741 H   0  0  0  0  0  0  0  0  0  0  0  0
  152.5686  141.4741  159.0490 H   0  0  0  0  0  0  0  0  0  0  0  0
  151.7576  140.0267  159.6682 H   0  0  0  0  0  0  0  0  0  0  0  0
  150.8062  141.3489  158.9755 H   0  0  0  0  0  0  0  0  0  0  0  0
  1  2  1  0  0  0  0
  1 21  1  0  0  0  0
  1 22  1  0  0  0  0
  1 23  1  0  0  0  0
  2  3  1  0  0  0  0
  3  8  1  0  0  0  0
  3  4  1  0  0  0  0
  3 24  1  0  0  0  0
  4  5  1  0  0  0  0
  4 25  1  0  0  0  0
  4 26  1  0  0  0  0
  5  6  1  0  0  0  0
  5 27  1  0  0  0  0
  5 28  1  0  0  0  0
  6  7  1  0  0  0  0
  6 29  1  0  0  0  0
  6 30  1  0  0  0  0
  7  8  1  0  0  0  0
  7 31  1  0  0  0  0
  7 32  1  0  0  0  0
  8  9  1  0  0  0  0
  8 33  1  0  0  0  0
  9 10  1  0  0  0  0
  9 34  1  0  0  0  0
 10 11  2  0  0  0  0
 10 12  1  0  0  0  0
 12 13  1  0  0  0  0
 12 35  1  0  0  0  0
 13 14  1  0  0  0  0
 13 36  1  0  0  0  0
 13 37  1  0  0  0  0
 14 15  1  0  0  0  0
 14 38  1  0  0  0  0
 14 39  1  0  0  0  0
 15 20  1  0  0  0  0
 15 16  2  0  0  0  0
 16 17  1  0  0  0  0
 17 18  1  0  0  0  0
 17 19  2  0  0  0  0
 18 40  1  0  0  0  0
 18 41  1  0  0  0  0
 18 42  1  0  0  0  0
 19 20  1  0  0  0  0
M  END
> <s_m_source_file>
AV-unprocessed.smi

> <i_m_source_file_index>
2878

> <i_lp_mmshare_version>
43012

> <i_f3d_flags>
0

> <s_epik_input>
W0NIM11TW0NAQEhdMVtDSDJdW0NIMl1bQ0gyXVtDSDJdW0NASF0xW05IXUMoPU8pW05IXVtDSDJdW0NIMl1jMm5jKFtDSDNdKW5vMg==

> <s_epik_cmdline>
J2VwaWtfcHl0aG9uJywgJy1waCcsICc3LjAnLCAnLXRuJywgJzgnLCAnLW1hJywgJzIwMCcsICctbWV0YWxfYmluZGluZycsICctaW1hZScsICc8aW5maWxlLm1hZT4nLCAnLW9tYWUnLCAnPG91dGZpbGUubWFlPic=

> <r_lp_tautomer_probability>
1

> <r_epik_Ionization_Penalty>
4.9299e-05

> <r_epik_Ionization_Penalty_Charging>
0

> <r_epik_Ionization_Penalty_Neutral>
4.9299e-05

> <r_epik_State_Penalty>
-0

> <r_epik_Charging_Adjusted_Penalty>
0

> <i_epik_Tot_Q>
0

> <i_epik_Tot_abs_Q>
0

> <r_epik_Metal_State_Penalty>
-0

> <b_epik_Metal_Only>
0

> <s_lp_Force_Field>
OPLS_2005

> <r_lp_Energy>
0.628987

> <b_lp_Chiralities_Consistent>
1

> <s_lp_Variant>
AV-unprocessed.smi:2878-3

> <Gold.Version>
5.8.1

> <Gold.Id.Protein>
6NUR|6NUR_protein|mol2

> <Gold.PLP.Fitness>
35.5761

> <Gold.PLP.PLP>
-28.5592

> <Gold.PLP.part.hbond>
-3.8177

> <Gold.PLP.part.metal>
0.0000

> <Gold.PLP.part.buried>
-4.0156

> <Gold.PLP.part.nonpolar>
-21.0574

> <Gold.PLP.part.repulsive>
0.0751

> <Gold.PLP.ligand.clash>
0.0000

> <Gold.PLP.ligand.torsion>
0.9543

> <Gold.PLP.Chemscore.Hbond>
2.9600

> <Gold.PLP.Chemscore.CHOScore>
0.0000

> <Gold.PLP.Chemscore.Metal>
0.0000

> <Gold.Chemscore.Hbonds>
donor molecule, donor type, donor heavy atom, donor atom, acceptor molecule, acceptor atom, score
      L1  H     9    34       P1  7948  1.00
      L1  H    12    35       P1  7948  0.94
      P1  H  7997  8010       L1    19  1.00

> <Gold.PLP.Chemscore.Internal.Correction>
0.0455

> <Gold.Rescore>
     Score         DG    S(hbond)    S(metal)    S(lipo)     H(rot)  DE(clash)    DE(int)     intcor
     14.09     -15.01       2.70        0.00      50.18       2.09       0.00       0.92       ----

> <Gold.Chemscore.Fitness>
14.0901

> <Gold.Chemscore.DG>
-15.0107

> <Gold.Chemscore.ZeroCoef>
-5.4800

> <Gold.Chemscore.Hbond>
2.6994

> <Gold.Chemscore.Metal>
0.0000

> <Gold.Chemscore.Lipo>
50.1788

> <Gold.Chemscore.Internal_Hbond>
0.0000

> <Gold.Chemscore.DEClash>
0.0023

> <Gold.Chemscore.DEInternal>
0.9183

> <Gold.Chemscore.Rot>
2.0923

> <Gold.Chemscore.Internal.Correction>
   9.000000E+99

> <Gold.Chemscore.Hbonds>
donor molecule, donor type, donor heavy atom, donor atom, acceptor molecule, acceptor atom, score
      L1  H     9    34       P1  7948  0.95
      L1  H    12    35       P1  7948  0.92
      P1  H  7997  8010       L1    19  0.33

> <Gold.Chemscore.Hbond.Weighted>
-9.0160

> <Gold.Chemscore.Metal.Weighted>
-0.0000

> <Gold.Chemscore.Lipo.Weighted>
-5.8709

> <Gold.Chemscore.Internal_Hbond.Weighted>
0.0000

> <Gold.Chemscore.DEClash.Weighted>
0.0023

> <Gold.Chemscore.DEInternal.Weighted>
0.9183

> <Gold.Chemscore.Rot.Weighted>
5.3562

> <Gold.Chemscore.Internal.Correction.Weighted>
   9.000000E+99

> <Gold.Protein.RotatedTorsions>
[ 6907 6896 6895 6894 ] final  -79.78 input  -60.11 | X-H torsion
[ 7974 7965 7964 7962 ] final -147.08 input  175.53 | X-H torsion
[ 8008 7997 7996 7995 ] final   41.12 input   59.86 | X-H torsion
[ 10167 10162 10161 10158 ] final   80.08 input  -65.29 | X-H torsion
[ 10718 10713 10712 10709 ] final    2.75 input   66.30 | X-H torsion
[ 10763 10752 10751 10750 ] final  130.22 input  -60.55 | X-H torsion
[ 11005 11000 10999 10996 ] final -102.29 input  -57.11 | X-H torsion

> <Gold.Protein.ActiveResidues>
 VAL166  LYS551  ARG553  GLY616  TRP617  ASP618  TYR619  PRO620  LYS621  CYS622 
 ASP623  PHE694  ASN695  SER759  ASP760  ASP761  ALA762  ILE779  LEU786  VAL792 
 PHE793  MET794  SER795  GLU796  ALA797  LYS798  CYS799  TRP800  GLU811  SER814 

> <Gold.Protein.RotatedAtoms>
  150.6943  134.4070  159.5144 H   0  0  0  0  0  0  0  0  0  0  0  0  # atno 6907 bound_to 6896
  152.1834  134.8731  160.0533 H   0  0  0  0  0  0  0  0  0  0  0  0  # atno 6908 bound_to 6896
  151.9713  133.3692  159.4109 H   0  0  0  0  0  0  0  0  0  0  0  0  # atno 6909 bound_to 6896
  144.8116  140.5373  143.5638 H   0  0  0  0  0  0  0  0  0  0  0  0  # atno 7974 bound_to 7965
  155.2643  140.3361  155.4270 H   0  0  0  0  0  0  0  0  0  0  0  0  # atno 8008 bound_to 7997
  156.2161  140.1789  156.7629 H   0  0  0  0  0  0  0  0  0  0  0  0  # atno 8009 bound_to 7997
  154.5755  140.0662  156.9012 H   0  0  0  0  0  0  0  0  0  0  0  0  # atno 8010 bound_to 7997
  139.9535  144.6010  150.8138 H   0  0  0  0  0  0  0  0  0  0  0  0  # atno 10167 bound_to 10162
  156.8677  130.5609  149.5659 H   0  0  0  0  0  0  0  0  0  0  0  0  # atno 10718 bound_to 10713
  153.7546  135.3205  155.3327 H   0  0  0  0  0  0  0  0  0  0  0  0  # atno 10763 bound_to 10752
  154.8251  135.4575  154.0898 H   0  0  0  0  0  0  0  0  0  0  0  0  # atno 10764 bound_to 10752
  153.2111  135.6936  153.8196 H   0  0  0  0  0  0  0  0  0  0  0  0  # atno 10765 bound_to 10752
  141.1195  133.8546  157.1340 H   0  0  0  0  0  0  0  0  0  0  0  0  # atno 11005 bound_to 11000
  145.5310  139.1475  143.3500 LP  0  0  0  0  0  0  0  0  0  0  0  0  # atno 17320 bound_to 7965
  146.2416  140.5450  142.8932 LP  0  0  0  0  0  0  0  0  0  0  0  0  # atno 17321 bound_to 7965
  140.7575  143.3088  151.2895 LP  0  0  0  0  0  0  0  0  0  0  0  0  # atno 17342 bound_to 10162
  139.6610  144.0190  152.2692 LP  0  0  0  0  0  0  0  0  0  0  0  0  # atno 17343 bound_to 10162
  156.0743  130.5769  150.9443 LP  0  0  0  0  0  0  0  0  0  0  0  0  # atno 17370 bound_to 10713
  157.6214  131.0929  150.8615 LP  0  0  0  0  0  0  0  0  0  0  0  0  # atno 17371 bound_to 10713
  140.0142  134.9975  157.0459 LP  0  0  0  0  0  0  0  0  0  0  0  0  # atno 17394 bound_to 11000
  140.4548  134.1545  155.7185 LP  0  0  0  0  0  0  0  0  0  0  0  0  # atno 17395 bound_to 11000

$$$$
