AV-unprocessed.smi:2955|AV-procd|sdf|11303|dock1
  -GOLD-   2272016203D 1   1.00000     0.00000
 Structure written by MMmdl.
 46 48  0  0  0  0  0  0  0  0  2 V2000
  151.3149  144.9027  159.6517 C   0  0  0  0  0  0  0  0  0  0  0  0
  151.9385  143.5359  159.8456 C   0  0  0  0  0  0  0  0  0  0  0  0
  152.7915  143.2913  160.9405 C   0  0  0  0  0  0  0  0  0  0  0  0
  153.3646  142.0182  161.1133 C   0  0  0  0  0  0  0  0  0  0  0  0
  153.0864  140.9896  160.1935 C   0  0  0  0  0  0  0  0  0  0  0  0
  152.2364  141.2171  159.0919 C   0  0  0  0  0  0  0  0  0  0  0  0
  152.0200  140.1552  158.2401 O   0  0  0  0  0  0  0  0  0  0  0  0
  150.7841  140.0942  157.5436 C   0  0  0  0  0  0  0  0  0  0  0  0
  150.9907  140.6655  156.1367 C   0  0  0  0  0  0  0  0  0  0  0  0
  150.1339  139.9964  155.1483 N   0  0  0  0  0  0  0  0  0  0  0  0
  150.2462  138.7661  154.5666 C   0  0  0  0  0  0  0  0  0  0  0  0
  151.3132  137.7401  154.8175 C   0  0  2  0  0  0  0  0  0  0  0  0
  152.6955  138.2688  154.4074 C   0  0  0  0  0  0  0  0  0  0  0  0
  151.0347  136.4936  154.1155 N   0  0  0  0  0  0  0  0  0  0  0  0
  150.4794  135.4172  154.6858 C   0  0  0  0  0  0  0  0  0  0  0  0
  150.1493  135.3791  155.8680 O   0  0  0  0  0  0  0  0  0  0  0  0
  149.1798  138.6221  153.7279 N   0  3  0  0  0  0  0  0  0  0  0  0
  148.3959  139.7755  153.7534 C   0  0  0  0  0  0  0  0  0  0  0  0
  147.2287  140.0991  153.0687 C   0  0  0  0  0  0  0  0  0  0  0  0
  146.6798  141.3735  153.3213 C   0  0  0  0  0  0  0  0  0  0  0  0
  147.2894  142.2697  154.2232 C   0  0  0  0  0  0  0  0  0  0  0  0
  148.4720  141.9295  154.9126 C   0  0  0  0  0  0  0  0  0  0  0  0
  149.0063  140.6660  154.6597 C   0  0  0  0  0  0  0  0  0  0  0  0
  151.6619  142.5033  158.9259 C   0  0  0  0  0  0  0  0  0  0  0  0
  151.6874  145.6186  160.3852 H   0  0  0  0  0  0  0  0  0  0  0  0
  150.2315  144.8406  159.7553 H   0  0  0  0  0  0  0  0  0  0  0  0
  151.5440  145.2859  158.6570 H   0  0  0  0  0  0  0  0  0  0  0  0
  153.0088  144.0760  161.6503 H   0  0  0  0  0  0  0  0  0  0  0  0
  154.0185  141.8300  161.9521 H   0  0  0  0  0  0  0  0  0  0  0  0
  153.5317  140.0156  160.3340 H   0  0  0  0  0  0  0  0  0  0  0  0
  150.4365  139.0620  157.4777 H   0  0  0  0  0  0  0  0  0  0  0  0
  150.0266  140.6783  158.0691 H   0  0  0  0  0  0  0  0  0  0  0  0
  150.7548  141.7294  156.1218 H   0  0  0  0  0  0  0  0  0  0  0  0
  152.0326  140.5832  155.8266 H   0  0  0  0  0  0  0  0  0  0  0  0
  151.3533  137.5286  155.8868 H   0  0  0  0  0  0  0  0  0  0  0  0
  152.9399  139.1831  154.9491 H   0  0  0  0  0  0  0  0  0  0  0  0
  152.7436  138.4905  153.3406 H   0  0  0  0  0  0  0  0  0  0  0  0
  153.4749  137.5389  154.6288 H   0  0  0  0  0  0  0  0  0  0  0  0
  151.2802  136.4445  153.1373 H   0  0  0  0  0  0  0  0  0  0  0  0
  150.3604  134.5878  153.9709 H   0  0  0  0  0  0  0  0  0  0  0  0
  146.7610  139.4147  152.3762 H   0  0  0  0  0  0  0  0  0  0  0  0
  145.7740  141.6700  152.8124 H   0  0  0  0  0  0  0  0  0  0  0  0
  146.8409  143.2384  154.3904 H   0  0  0  0  0  0  0  0  0  0  0  0
  148.9307  142.6252  155.5996 H   0  0  0  0  0  0  0  0  0  0  0  0
  151.0038  142.7218  158.0988 H   0  0  0  0  0  0  0  0  0  0  0  0
  149.0064  137.7923  153.1754 H   0  0  0  0  0  0  0  0  0  0  0  0
  1  2  1  0  0  0  0
  1 25  1  0  0  0  0
  1 26  1  0  0  0  0
  1 27  1  0  0  0  0
  2 24  1  0  0  0  0
  2  3  2  0  0  0  0
  3  4  1  0  0  0  0
  3 28  1  0  0  0  0
  4  5  2  0  0  0  0
  4 29  1  0  0  0  0
  5  6  1  0  0  0  0
  5 30  1  0  0  0  0
  6  7  1  0  0  0  0
  6 24  2  0  0  0  0
  7  8  1  0  0  0  0
  8  9  1  0  0  0  0
  8 31  1  0  0  0  0
  8 32  1  0  0  0  0
  9 10  1  0  0  0  0
  9 33  1  0  0  0  0
  9 34  1  0  0  0  0
 10 23  1  0  0  0  0
 10 11  1  0  0  0  0
 11 12  1  0  0  0  0
 11 17  2  0  0  0  0
 12 13  1  0  0  0  0
 12 14  1  0  0  0  0
 12 35  1  0  0  0  0
 13 36  1  0  0  0  0
 13 37  1  0  0  0  0
 13 38  1  0  0  0  0
 14 15  1  0  0  0  0
 14 39  1  0  0  0  0
 15 16  2  0  0  0  0
 15 40  1  0  0  0  0
 17 18  1  0  0  0  0
 17 46  1  0  0  0  0
 18 23  2  0  0  0  0
 18 19  1  0  0  0  0
 19 20  2  0  0  0  0
 19 41  1  0  0  0  0
 20 21  1  0  0  0  0
 20 42  1  0  0  0  0
 21 22  2  0  0  0  0
 21 43  1  0  0  0  0
 22 23  1  0  0  0  0
 22 44  1  0  0  0  0
 24 45  1  0  0  0  0
M  CHG  1  17   1
M  END
> <s_m_source_file>
AV-unprocessed.smi

> <i_m_source_file_index>
2955

> <i_lp_mmshare_version>
43012

> <i_f3d_flags>
0

> <s_epik_input>
W0NIM11jMVtjSF1bY0hdW2NIXWMoW2NIXTEpT1tDSDJdW0NIMl1uKGMobjIpW0NASF0oW0NIM10pW05IXVtDSF09TyljKGMyMylbY0hdW2NIXVtjSF1bY0hdMw==

> <s_epik_cmdline>
J2VwaWtfcHl0aG9uJywgJy1waCcsICc3LjAnLCAnLXRuJywgJzgnLCAnLW1hJywgJzIwMCcsICctbWV0YWxfYmluZGluZycsICctaW1hZScsICc8aW5maWxlLm1hZT4nLCAnLW9tYWUnLCAnPG91dGZpbGUubWFlPic=

> <r_lp_tautomer_probability>
1

> <r_epik_Ionization_Penalty>
1.15027

> <r_epik_Ionization_Penalty_Charging>
1.15027

> <r_epik_Ionization_Penalty_Neutral>
5.5802e-08

> <r_epik_State_Penalty>
1.21159

> <r_epik_Charging_Adjusted_Penalty>
2.36186

> <i_epik_Tot_Q>
1

> <i_epik_Tot_abs_Q>
1

> <r_epik_Metal_State_Penalty>
1.29223

> <b_epik_Metal_Only>
0

> <s_lp_Force_Field>
OPLS_2005

> <r_lp_Energy>
18.7975

> <b_lp_Chiralities_Consistent>
1

> <s_lp_Variant>
AV-unprocessed.smi:2955-3

> <Gold.Version>
5.8.1

> <Gold.Id.Protein>
6NUR|6NUR_protein|mol2

> <Gold.PLP.Fitness>
60.3052

> <Gold.PLP.PLP>
-53.6786

> <Gold.PLP.part.hbond>
-3.9022

> <Gold.PLP.part.metal>
0.0000

> <Gold.PLP.part.buried>
-0.6467

> <Gold.PLP.part.nonpolar>
-49.7925

> <Gold.PLP.part.repulsive>
0.3811

> <Gold.PLP.ligand.clash>
0.0000

> <Gold.PLP.ligand.torsion>
1.3398

> <Gold.PLP.Chemscore.Hbond>
3.0000

> <Gold.PLP.Chemscore.CHOScore>
0.0000

> <Gold.PLP.Chemscore.Metal>
0.0000

> <Gold.Chemscore.Hbonds>
donor molecule, donor type, donor heavy atom, donor atom, acceptor molecule, acceptor atom, score
      L1  H    14    39       P1  7949  1.00
      L1  H    17    46       P1  7948  2.00

> <Gold.PLP.Chemscore.Internal.Correction>
0.3062

> <Gold.Rescore>
     Score         DG    S(hbond)    S(metal)    S(lipo)     H(rot)  DE(clash)    DE(int)     intcor
     18.74     -22.35       1.80        0.00     143.54       2.32       2.24       1.37       ----

> <Gold.Chemscore.Fitness>
18.7392

> <Gold.Chemscore.DG>
-22.3459

> <Gold.Chemscore.ZeroCoef>
-5.4800

> <Gold.Chemscore.Hbond>
1.8013

> <Gold.Chemscore.Metal>
0.0000

> <Gold.Chemscore.Lipo>
143.5442

> <Gold.Chemscore.Internal_Hbond>
0.0000

> <Gold.Chemscore.DEClash>
2.2360

> <Gold.Chemscore.DEInternal>
1.3707

> <Gold.Chemscore.Rot>
2.3223

> <Gold.Chemscore.Internal.Correction>
   9.000000E+99

> <Gold.Chemscore.Hbonds>
donor molecule, donor type, donor heavy atom, donor atom, acceptor molecule, acceptor atom, score
      L1  H    14    39       P1  7949  0.65
      L1  H    17    46       P1  7948  0.94

> <Gold.Chemscore.Hbond.Weighted>
-6.0163

> <Gold.Chemscore.Metal.Weighted>
-0.0000

> <Gold.Chemscore.Lipo.Weighted>
-16.7947

> <Gold.Chemscore.Internal_Hbond.Weighted>
0.0000

> <Gold.Chemscore.DEClash.Weighted>
2.2360

> <Gold.Chemscore.DEInternal.Weighted>
1.3707

> <Gold.Chemscore.Rot.Weighted>
5.9450

> <Gold.Chemscore.Internal.Correction.Weighted>
   9.000000E+99

> <Gold.Protein.RotatedTorsions>
[ 6907 6896 6895 6894 ] final   19.31 input  -60.11 | X-H torsion
[ 7974 7965 7964 7962 ] final   23.73 input  175.53 | X-H torsion
[ 8008 7997 7996 7995 ] final -135.16 input   59.86 | X-H torsion
[ 10167 10162 10161 10158 ] final   94.65 input  -65.29 | X-H torsion
[ 10718 10713 10712 10709 ] final  -22.51 input   66.30 | X-H torsion
[ 10763 10752 10751 10750 ] final -166.14 input  -60.55 | X-H torsion
[ 11005 11000 10999 10996 ] final  108.92 input  -57.11 | X-H torsion

> <Gold.Protein.ActiveResidues>
 VAL166  LYS551  ARG553  GLY616  TRP617  ASP618  TYR619  PRO620  LYS621  CYS622 
 ASP623  PHE694  ASN695  SER759  ASP760  ASP761  ALA762  ILE779  LEU786  VAL792 
 PHE793  MET794  SER795  GLU796  ALA797  LYS798  CYS799  TRP800  GLU811  SER814 

> <Gold.Protein.RotatedAtoms>
  151.8789  135.0461  160.0486 H   0  0  0  0  0  0  0  0  0  0  0  0  # atno 6907 bound_to 6896
  152.2529  133.5226  159.5344 H   0  0  0  0  0  0  0  0  0  0  0  0  # atno 6908 bound_to 6896
  150.7090  134.0852  159.3954 H   0  0  0  0  0  0  0  0  0  0  0  0  # atno 6909 bound_to 6896
  146.1970  139.7703  142.8789 H   0  0  0  0  0  0  0  0  0  0  0  0  # atno 7974 bound_to 7965
  155.3740  140.0490  157.3045 H   0  0  0  0  0  0  0  0  0  0  0  0  # atno 8008 bound_to 7997
  154.5115  140.2193  155.9109 H   0  0  0  0  0  0  0  0  0  0  0  0  # atno 8009 bound_to 7997
  156.1588  140.3120  155.8778 H   0  0  0  0  0  0  0  0  0  0  0  0  # atno 8010 bound_to 7997
  139.8063  144.6792  150.9698 H   0  0  0  0  0  0  0  0  0  0  0  0  # atno 10167 bound_to 10162
  156.5035  130.4593  149.6687 H   0  0  0  0  0  0  0  0  0  0  0  0  # atno 10718 bound_to 10713
  154.6863  135.2963  154.9543 H   0  0  0  0  0  0  0  0  0  0  0  0  # atno 10763 bound_to 10752
  154.0521  135.6643  153.4805 H   0  0  0  0  0  0  0  0  0  0  0  0  # atno 10764 bound_to 10752
  153.0581  135.5132  154.7932 H   0  0  0  0  0  0  0  0  0  0  0  0  # atno 10765 bound_to 10752
  139.8852  134.9444  156.6046 H   0  0  0  0  0  0  0  0  0  0  0  0  # atno 11005 bound_to 11000
  145.3609  141.0325  143.3285 LP  0  0  0  0  0  0  0  0  0  0  0  0  # atno 17320 bound_to 7965
  144.8602  139.5188  143.6815 LP  0  0  0  0  0  0  0  0  0  0  0  0  # atno 17321 bound_to 7965
  140.7819  143.4230  151.0812 LP  0  0  0  0  0  0  0  0  0  0  0  0  # atno 17342 bound_to 10162
  139.7899  143.8234  152.3150 LP  0  0  0  0  0  0  0  0  0  0  0  0  # atno 17343 bound_to 10162
  156.3309  130.7331  151.2260 LP  0  0  0  0  0  0  0  0  0  0  0  0  # atno 17370 bound_to 10713
  157.7460  131.0430  150.4722 LP  0  0  0  0  0  0  0  0  0  0  0  0  # atno 17371 bound_to 10713
  140.7858  133.8623  155.8605 LP  0  0  0  0  0  0  0  0  0  0  0  0  # atno 17394 bound_to 11000
  140.9721  134.1518  157.4567 LP  0  0  0  0  0  0  0  0  0  0  0  0  # atno 17395 bound_to 11000

$$$$
