AV-unprocessed.smi:1593|AV-procd|sdf|6412|dock4
  -GOLD-   22720 7 43D 1   1.00000     0.00000
 Structure written by MMmdl.
 36 37  0  0  0  0  0  0  0  0  3 V2000
  150.9054  141.1451  155.8916 C   0  0  0  0  0  0  0  0  0  0  0  0
  151.3134  139.7764  155.4664 C   0  0  0  0  0  0  0  0  0  0  0  0
  150.6572  138.5788  155.4297 C   0  0  0  0  0  0  0  0  0  0  0  0
  151.6352  137.6885  154.9081 C   0  0  0  0  0  0  0  0  0  0  0  0
  151.4698  136.3742  154.6929 N   0  5  0  0  0  0  0  0  0  0  0  0
  150.4538  135.7097  155.2884 C   0  0  0  0  0  0  0  0  0  0  0  0
  150.4339  135.2866  156.4467 O   0  0  0  0  0  0  0  0  0  0  0  0
  149.3940  135.5181  154.4900 N   0  0  0  0  0  0  0  0  0  0  0  0
  148.1639  134.8292  154.8615 C   0  0  0  0  0  0  0  0  0  0  0  0
  147.8845  133.6375  153.9263 C   0  0  0  0  0  0  0  0  0  0  0  0
  147.1555  134.0420  152.6992 N   0  3  0  0  0  0  0  0  0  0  0  0
  146.7393  132.8784  151.8802 C   0  0  0  0  0  0  0  0  0  0  0  0
  146.0346  133.3476  150.5961 C   0  0  0  0  0  0  0  0  0  0  0  0
  144.9196  134.1630  150.9337 O   0  0  0  0  0  0  0  0  0  0  0  0
  145.3115  135.3297  151.6464 C   0  0  0  0  0  0  0  0  0  0  0  0
  145.9946  134.9281  152.9648 C   0  0  0  0  0  0  0  0  0  0  0  0
  152.7883  138.2893  154.6666 N   0  0  0  0  0  0  0  0  0  0  0  0
  152.5878  139.6303  155.0148 O   0  0  0  0  0  0  0  0  0  0  0  0
  149.9714  141.1161  156.4527 H   0  0  0  0  0  0  0  0  0  0  0  0
  150.7604  141.7902  155.0249 H   0  0  0  0  0  0  0  0  0  0  0  0
  151.6671  141.5965  156.5274 H   0  0  0  0  0  0  0  0  0  0  0  0
  149.6393  138.3722  155.7243 H   0  0  0  0  0  0  0  0  0  0  0  0
  149.4500  135.8846  153.5508 H   0  0  0  0  0  0  0  0  0  0  0  0
  148.2308  134.5165  155.9038 H   0  0  0  0  0  0  0  0  0  0  0  0
  147.3450  135.5467  154.8043 H   0  0  0  0  0  0  0  0  0  0  0  0
  148.8425  133.1976  153.6445 H   0  0  0  0  0  0  0  0  0  0  0  0
  147.3260  132.8537  154.4405 H   0  0  0  0  0  0  0  0  0  0  0  0
  147.6110  132.2770  151.6191 H   0  0  0  0  0  0  0  0  0  0  0  0
  146.0720  132.2407  152.4623 H   0  0  0  0  0  0  0  0  0  0  0  0
  146.7227  133.8991  149.9530 H   0  0  0  0  0  0  0  0  0  0  0  0
  145.6840  132.4883  150.0242 H   0  0  0  0  0  0  0  0  0  0  0  0
  145.9764  135.9400  151.0329 H   0  0  0  0  0  0  0  0  0  0  0  0
  144.4260  135.9319  151.8513 H   0  0  0  0  0  0  0  0  0  0  0  0
  145.2810  134.4144  153.6110 H   0  0  0  0  0  0  0  0  0  0  0  0
  146.3111  135.8273  153.4920 H   0  0  0  0  0  0  0  0  0  0  0  0
  147.8091  134.5670  152.1358 H   0  0  0  0  0  0  0  0  0  0  0  0
  1  2  1  0  0  0  0
  1 19  1  0  0  0  0
  1 20  1  0  0  0  0
  1 21  1  0  0  0  0
  2 18  1  0  0  0  0
  2  3  2  0  0  0  0
  3  4  1  0  0  0  0
  3 22  1  0  0  0  0
  4  5  1  0  0  0  0
  4 17  2  0  0  0  0
  5  6  1  0  0  0  0
  6  7  2  0  0  0  0
  6  8  1  0  0  0  0
  8  9  1  0  0  0  0
  8 23  1  0  0  0  0
  9 10  1  0  0  0  0
  9 24  1  0  0  0  0
  9 25  1  0  0  0  0
 10 11  1  0  0  0  0
 10 26  1  0  0  0  0
 10 27  1  0  0  0  0
 11 16  1  0  0  0  0
 11 12  1  0  0  0  0
 11 36  1  0  0  0  0
 12 13  1  0  0  0  0
 12 28  1  0  0  0  0
 12 29  1  0  0  0  0
 13 14  1  0  0  0  0
 13 30  1  0  0  0  0
 13 31  1  0  0  0  0
 14 15  1  0  0  0  0
 15 16  1  0  0  0  0
 15 32  1  0  0  0  0
 15 33  1  0  0  0  0
 16 34  1  0  0  0  0
 16 35  1  0  0  0  0
 17 18  1  0  0  0  0
M  CHG  1   5  -1
M  CHG  1  11   1
M  END
> <s_m_source_file>
AV-unprocessed.smi

> <i_m_source_file_index>
1593

> <i_lp_mmshare_version>
43012

> <i_f3d_flags>
0

> <s_epik_input>
W0NIM11jMVtjSF1jKG5vMSlbTkhdQyg9TylbTkhdW0NIMl1bQ0gyXU4yW0NIMl1bQ0gyXU9bQ0gyXVtDSDJdMg==

> <s_epik_cmdline>
J2VwaWtfcHl0aG9uJywgJy1waCcsICc3LjAnLCAnLXRuJywgJzgnLCAnLW1hJywgJzIwMCcsICctbWV0YWxfYmluZGluZycsICctaW1hZScsICc8aW5maWxlLm1hZT4nLCAnLW9tYWUnLCAnPG91dGZpbGUubWFlPic=

> <r_epik_Ionization_Penalty>
6.73013

> <r_epik_Ionization_Penalty_Charging>
6.73004

> <r_epik_Ionization_Penalty_Neutral>
9.27027e-05

> <r_epik_State_Penalty>
6.93052

> <r_epik_Charging_Adjusted_Penalty>
13.6606

> <i_epik_Tot_Q>
0

> <i_epik_Tot_abs_Q>
2

> <r_epik_Metal_State_Penalty>
2.86736

> <b_epik_Metal_Only>
1

> <s_lp_Force_Field>
OPLS_2005

> <r_lp_Energy>
3.0075

> <b_lp_Chiralities_Consistent>
1

> <s_lp_Variant>
AV-unprocessed.smi:1593-4

> <Gold.Version>
5.8.1

> <Gold.Id.Protein>
6NUR|6NUR_protein|mol2

> <Gold.PLP.Fitness>
45.5890

> <Gold.PLP.PLP>
-29.5739

> <Gold.PLP.part.hbond>
-5.2823

> <Gold.PLP.part.metal>
0.0000

> <Gold.PLP.part.buried>
-3.3481

> <Gold.PLP.part.nonpolar>
-21.0016

> <Gold.PLP.part.repulsive>
0.4042

> <Gold.PLP.ligand.clash>
0.0000

> <Gold.PLP.ligand.torsion>
1.0085

> <Gold.PLP.Chemscore.Hbond>
5.9840

> <Gold.PLP.Chemscore.CHOScore>
0.0000

> <Gold.PLP.Chemscore.Metal>
0.0000

> <Gold.Chemscore.Hbonds>
donor molecule, donor type, donor heavy atom, donor atom, acceptor molecule, acceptor atom, score
      L1  H     8    23       P1  7948  1.00
      L1  H    11    36       P1  7948  2.00
      P1  H  7997  8009       L1    18  0.75
      P1  H 10752 10765       L1     5  2.00

> <Gold.PLP.Chemscore.Internal.Correction>
0.0801

> <Gold.Rescore>
     Score         DG    S(hbond)    S(metal)    S(lipo)     H(rot)  DE(clash)    DE(int)     intcor
     16.45     -17.53       3.30        0.00      44.39       1.62       0.06       1.02       ----

> <Gold.Chemscore.Fitness>
16.4504

> <Gold.Chemscore.DG>
-17.5324

> <Gold.Chemscore.ZeroCoef>
-5.4800

> <Gold.Chemscore.Hbond>
3.2973

> <Gold.Chemscore.Metal>
0.0000

> <Gold.Chemscore.Lipo>
44.3905

> <Gold.Chemscore.Internal_Hbond>
0.0000

> <Gold.Chemscore.DEClash>
0.0595

> <Gold.Chemscore.DEInternal>
1.0226

> <Gold.Chemscore.Rot>
1.6228

> <Gold.Chemscore.Internal.Correction>
   9.000000E+99

> <Gold.Chemscore.Hbonds>
donor molecule, donor type, donor heavy atom, donor atom, acceptor molecule, acceptor atom, score
      L1  H     8    23       P1  7948  0.45
      L1  H    11    36       P1  7948  0.42
      P1  H  7997  8009       L1    18  0.33
      P1  H 10752 10765       L1     5  0.71

> <Gold.Chemscore.Hbond.Weighted>
-11.0130

> <Gold.Chemscore.Metal.Weighted>
-0.0000

> <Gold.Chemscore.Lipo.Weighted>
-5.1937

> <Gold.Chemscore.Internal_Hbond.Weighted>
0.0000

> <Gold.Chemscore.DEClash.Weighted>
0.0595

> <Gold.Chemscore.DEInternal.Weighted>
1.0226

> <Gold.Chemscore.Rot.Weighted>
4.1542

> <Gold.Chemscore.Internal.Correction.Weighted>
   9.000000E+99

> <Gold.Protein.RotatedTorsions>
[ 6907 6896 6895 6894 ] final   98.59 input  -60.11 | X-H torsion
[ 7974 7965 7964 7962 ] final  -14.82 input  175.53 | X-H torsion
[ 8008 7997 7996 7995 ] final -139.90 input   59.86 | X-H torsion
[ 10167 10162 10161 10158 ] final -175.73 input  -65.29 | X-H torsion
[ 10718 10713 10712 10709 ] final  -97.69 input   66.30 | X-H torsion
[ 10763 10752 10751 10750 ] final -172.61 input  -60.55 | X-H torsion
[ 11005 11000 10999 10996 ] final  -63.22 input  -57.11 | X-H torsion

> <Gold.Protein.ActiveResidues>
 VAL166  LYS551  ARG553  GLY616  TRP617  ASP618  TYR619  PRO620  LYS621  CYS622 
 ASP623  PHE694  ASN695  SER759  ASP760  ASP761  ALA762  ILE779  LEU786  VAL792 
 PHE793  MET794  SER795  GLU796  ALA797  LYS798  CYS799  TRP800  GLU811  SER814 

> <Gold.Protein.RotatedAtoms>
  152.5406  134.0558  159.8129 H   0  0  0  0  0  0  0  0  0  0  0  0  # atno 6907 bound_to 6896
  151.0693  133.5472  159.2635 H   0  0  0  0  0  0  0  0  0  0  0  0  # atno 6908 bound_to 6896
  151.2341  135.0573  159.9053 H   0  0  0  0  0  0  0  0  0  0  0  0  # atno 6909 bound_to 6896
  146.2058  140.3403  142.8407 H   0  0  0  0  0  0  0  0  0  0  0  0  # atno 7974 bound_to 7965
  155.4525  140.0539  157.2999 H   0  0  0  0  0  0  0  0  0  0  0  0  # atno 8008 bound_to 7997
  154.4771  140.2065  155.9807 H   0  0  0  0  0  0  0  0  0  0  0  0  # atno 8009 bound_to 7997
  156.1149  140.3198  155.8129 H   0  0  0  0  0  0  0  0  0  0  0  0  # atno 8010 bound_to 7997
  139.5566  144.1974  152.1169 H   0  0  0  0  0  0  0  0  0  0  0  0  # atno 10167 bound_to 10162
  156.0089  130.5205  150.6411 H   0  0  0  0  0  0  0  0  0  0  0  0  # atno 10718 bound_to 10713
  154.6173  135.2871  155.0365 H   0  0  0  0  0  0  0  0  0  0  0  0  # atno 10763 bound_to 10752
  154.1573  135.6494  153.4981 H   0  0  0  0  0  0  0  0  0  0  0  0  # atno 10764 bound_to 10752
  153.0220  135.5370  154.6950 H   0  0  0  0  0  0  0  0  0  0  0  0  # atno 10765 bound_to 10752
  141.1386  133.6649  156.5647 H   0  0  0  0  0  0  0  0  0  0  0  0  # atno 11005 bound_to 11000
  144.8790  140.7375  143.5999 LP  0  0  0  0  0  0  0  0  0  0  0  0  # atno 17320 bound_to 7965
  145.3323  139.1756  143.4530 LP  0  0  0  0  0  0  0  0  0  0  0  0  # atno 17321 bound_to 7965
  140.1480  144.5141  150.6704 LP  0  0  0  0  0  0  0  0  0  0  0  0  # atno 17342 bound_to 10162
  140.6839  143.2340  151.5311 LP  0  0  0  0  0  0  0  0  0  0  0  0  # atno 17343 bound_to 10162
  157.4191  131.0834  151.1148 LP  0  0  0  0  0  0  0  0  0  0  0  0  # atno 17370 bound_to 10713
  157.1756  130.6286  149.5655 LP  0  0  0  0  0  0  0  0  0  0  0  0  # atno 17371 bound_to 10713
  140.3960  134.7398  157.4751 LP  0  0  0  0  0  0  0  0  0  0  0  0  # atno 17394 bound_to 11000
  140.0531  134.6103  155.8838 LP  0  0  0  0  0  0  0  0  0  0  0  0  # atno 17395 bound_to 11000

$$$$
