AV-unprocessed.smi:1058|AV-procd|sdf|4653|dock2
  -GOLD-   22720 3163D 1   1.00000     0.00000
 Structure written by MMmdl.
 40 41  0  0  0  0  0  0  0  0  1 V2000
  150.1025  132.9478  155.3954 C   0  0  0  0  0  0  0  0  0  0  0  0
  149.8648  134.3866  154.8874 C   0  0  1  0  0  0  0  0  0  0  0  0
  148.8521  134.4673  153.8257 N   0  0  0  0  0  0  0  0  0  0  0  0
  147.9080  133.5698  153.4931 C   0  0  0  0  0  0  0  0  0  0  0  0
  147.7283  132.5057  154.0849 O   0  0  0  0  0  0  0  0  0  0  0  0
  147.1864  134.0017  152.4437 N   0  0  0  0  0  0  0  0  0  0  0  0
  146.1028  133.3520  151.7947 C   0  0  0  0  0  0  0  0  0  0  0  0
  146.0929  131.9435  151.9122 C   0  0  0  0  0  0  0  0  0  0  0  0
  145.0594  131.2047  151.3042 C   0  0  0  0  0  0  0  0  0  0  0  0
  144.0609  131.8940  150.5937 C   0  0  0  0  0  0  0  0  0  0  0  0
  144.1445  133.2970  150.5252 C   0  0  0  0  0  0  0  0  0  0  0  0
  145.1339  134.0071  151.1074 N   0  0  0  0  0  0  0  0  0  0  0  0
  149.6329  135.4215  156.0107 C   0  0  0  0  0  0  0  0  0  0  0  0
  148.5823  135.3605  156.6519 O   0  0  0  0  0  0  0  0  0  0  0  0
  150.5724  136.3661  156.2740 N   0  0  0  0  0  0  0  0  0  0  0  0
  150.3467  137.4295  157.2624 C   0  0  0  0  0  0  0  0  0  0  0  0
  149.8905  138.7032  156.5320 C   0  0  0  0  0  0  0  0  0  0  0  0
  151.2031  139.2649  155.3586 S   0  0  0  0  0  0  0  0  0  0  0  0
  150.6148  140.1998  154.3879 O   0  0  0  0  0  0  0  0  0  0  0  0
  152.3738  139.6645  156.1542 O   0  0  0  0  0  0  0  0  0  0  0  0
  151.6215  137.6837  154.4985 C   0  0  0  0  0  0  0  0  0  0  0  0
  151.8248  136.5651  155.5325 C   0  0  0  0  0  0  0  0  0  0  0  0
  150.9857  132.8892  156.0307 H   0  0  0  0  0  0  0  0  0  0  0  0
  150.2553  132.2574  154.5654 H   0  0  0  0  0  0  0  0  0  0  0  0
  149.2668  132.5788  155.9899 H   0  0  0  0  0  0  0  0  0  0  0  0
  150.7632  134.6842  154.3492 H   0  0  0  0  0  0  0  0  0  0  0  0
  148.8830  135.3091  153.2698 H   0  0  0  0  0  0  0  0  0  0  0  0
  147.4395  134.9025  152.0658 H   0  0  0  0  0  0  0  0  0  0  0  0
  146.8682  131.4296  152.4618 H   0  0  0  0  0  0  0  0  0  0  0  0
  145.0340  130.1278  151.3818 H   0  0  0  0  0  0  0  0  0  0  0  0
  143.2528  131.3622  150.1138 H   0  0  0  0  0  0  0  0  0  0  0  0
  143.3983  133.8642  149.9891 H   0  0  0  0  0  0  0  0  0  0  0  0
  149.6069  137.1465  158.0124 H   0  0  0  0  0  0  0  0  0  0  0  0
  151.2605  137.6262  157.8246 H   0  0  0  0  0  0  0  0  0  0  0  0
  148.9752  138.5230  155.9673 H   0  0  0  0  0  0  0  0  0  0  0  0
  149.6916  139.5115  157.2354 H   0  0  0  0  0  0  0  0  0  0  0  0
  150.8124  137.4404  153.8092 H   0  0  0  0  0  0  0  0  0  0  0  0
  152.5238  137.8447  153.9086 H   0  0  0  0  0  0  0  0  0  0  0  0
  152.6261  136.8386  156.2202 H   0  0  0  0  0  0  0  0  0  0  0  0
  152.1815  135.6605  155.0450 H   0  0  0  0  0  0  0  0  0  0  0  0
  1  2  1  0  0  0  0
  1 23  1  0  0  0  0
  1 24  1  0  0  0  0
  1 25  1  0  0  0  0
  2  3  1  0  0  0  0
  2 13  1  0  0  0  0
  2 26  1  0  0  0  0
  3  4  1  0  0  0  0
  3 27  1  0  0  0  0
  4  5  2  0  0  0  0
  4  6  1  0  0  0  0
  6  7  1  0  0  0  0
  6 28  1  0  0  0  0
  7 12  1  0  0  0  0
  7  8  2  0  0  0  0
  8  9  1  0  0  0  0
  8 29  1  0  0  0  0
  9 10  2  0  0  0  0
  9 30  1  0  0  0  0
 10 11  1  0  0  0  0
 10 31  1  0  0  0  0
 11 12  2  0  0  0  0
 11 32  1  0  0  0  0
 13 14  2  0  0  0  0
 13 15  1  0  0  0  0
 15 22  1  0  0  0  0
 15 16  1  0  0  0  0
 16 17  1  0  0  0  0
 16 33  1  0  0  0  0
 16 34  1  0  0  0  0
 17 18  1  0  0  0  0
 17 35  1  0  0  0  0
 17 36  1  0  0  0  0
 18 19  2  0  0  0  0
 18 20  2  0  0  0  0
 18 21  1  0  0  0  0
 21 22  1  0  0  0  0
 21 37  1  0  0  0  0
 21 38  1  0  0  0  0
 22 39  1  0  0  0  0
 22 40  1  0  0  0  0
M  END
> <s_m_source_file>
AV-unprocessed.smi

> <i_m_source_file_index>
1058

> <i_lp_mmshare_version>
43012

> <i_f3d_flags>
0

> <s_epik_input>
Tz1TMSg9TylbQ0gyXVtDSDJdTihbQ0gyXVtDSDJdMSlDKD1PKVtDQEhdKFtDSDNdKVtOSF1DKD1PKVtOSF1jMltjSF1bY0hdW2NIXVtjSF1uMg==

> <s_epik_cmdline>
J2VwaWtfcHl0aG9uJywgJy1waCcsICc3LjAnLCAnLXRuJywgJzgnLCAnLW1hJywgJzIwMCcsICctbWV0YWxfYmluZGluZycsICctaW1hZScsICc8aW5maWxlLm1hZT4nLCAnLW9tYWUnLCAnPG91dGZpbGUubWFlPic=

> <r_lp_tautomer_probability>
1

> <r_epik_Ionization_Penalty>
3.69864e-05

> <r_epik_Ionization_Penalty_Charging>
0

> <r_epik_Ionization_Penalty_Neutral>
3.69864e-05

> <r_epik_State_Penalty>
-0

> <r_epik_Charging_Adjusted_Penalty>
0

> <i_epik_Tot_Q>
0

> <i_epik_Tot_abs_Q>
0

> <r_epik_Metal_State_Penalty>
-0

> <b_epik_Metal_Only>
0

> <s_lp_Force_Field>
OPLS_2005

> <r_lp_Energy>
18.063

> <b_lp_Chiralities_Consistent>
1

> <s_lp_Variant>
AV-unprocessed.smi:1058-2

> <Gold.Version>
5.8.1

> <Gold.Id.Protein>
6NUR|6NUR_protein|mol2

> <Gold.PLP.Fitness>
44.8996

> <Gold.PLP.PLP>
-30.9471

> <Gold.PLP.part.hbond>
-3.9373

> <Gold.PLP.part.metal>
0.0000

> <Gold.PLP.part.buried>
-2.0379

> <Gold.PLP.part.nonpolar>
-25.7201

> <Gold.PLP.part.repulsive>
0.3123

> <Gold.PLP.ligand.clash>
0.0849

> <Gold.PLP.ligand.torsion>
0.3881

> <Gold.PLP.Chemscore.Hbond>
3.8713

> <Gold.PLP.Chemscore.CHOScore>
1.0000

> <Gold.PLP.Chemscore.Metal>
0.0000

> <Gold.Chemscore.Hbonds>
donor molecule, donor type, donor heavy atom, donor atom, acceptor molecule, acceptor atom, score
      L1  H     3    27       P1  7948  1.00
      L1  H     6    28       P1  7948  0.88
      P1  H  7989  7998       L1    19  0.94
      P1  H  7997  8010       L1    20  1.00
      L1  C    11    32       P1 10186  1.00

> <Gold.PLP.Chemscore.Internal.Correction>
0.1997

> <Gold.Rescore>
     Score         DG    S(hbond)    S(metal)    S(lipo)     H(rot)  DE(clash)    DE(int)     intcor
     16.43     -21.01       3.52        0.00      62.07       1.36       1.36       3.22       ----

> <Gold.Chemscore.Fitness>
16.4277

> <Gold.Chemscore.DG>
-21.0132

> <Gold.Chemscore.ZeroCoef>
-5.4800

> <Gold.Chemscore.Hbond>
3.5200

> <Gold.Chemscore.Metal>
0.0000

> <Gold.Chemscore.Lipo>
62.0721

> <Gold.Chemscore.Internal_Hbond>
0.0000

> <Gold.Chemscore.DEClash>
1.3623

> <Gold.Chemscore.DEInternal>
3.2232

> <Gold.Chemscore.Rot>
1.3617

> <Gold.Chemscore.Internal.Correction>
   9.000000E+99

> <Gold.Chemscore.Hbonds>
donor molecule, donor type, donor heavy atom, donor atom, acceptor molecule, acceptor atom, score
      L1  H     3    27       P1  7948  0.59
      L1  H     6    28       P1  7948  0.76
      P1  H  7989  7998       L1    19  0.79
      P1  H  7997  8010       L1    20  0.94

> <Gold.Chemscore.Hbond.Weighted>
-11.7568

> <Gold.Chemscore.Metal.Weighted>
-0.0000

> <Gold.Chemscore.Lipo.Weighted>
-7.2624

> <Gold.Chemscore.Internal_Hbond.Weighted>
0.0000

> <Gold.Chemscore.DEClash.Weighted>
1.3623

> <Gold.Chemscore.DEInternal.Weighted>
3.2232

> <Gold.Chemscore.Rot.Weighted>
3.4861

> <Gold.Chemscore.Internal.Correction.Weighted>
   9.000000E+99

> <Gold.Protein.RotatedTorsions>
[ 6907 6896 6895 6894 ] final  -88.28 input  -60.11 | X-H torsion
[ 7974 7965 7964 7962 ] final -177.32 input  175.53 | X-H torsion
[ 8008 7997 7996 7995 ] final   79.34 input   59.86 | X-H torsion
[ 10167 10162 10161 10158 ] final  -51.58 input  -65.29 | X-H torsion
[ 10718 10713 10712 10709 ] final   50.74 input   66.30 | X-H torsion
[ 10763 10752 10751 10750 ] final -132.98 input  -60.55 | X-H torsion
[ 11005 11000 10999 10996 ] final  141.97 input  -57.11 | X-H torsion

> <Gold.Protein.ActiveResidues>
 VAL166  LYS551  ARG553  GLY616  TRP617  ASP618  TYR619  PRO620  LYS621  CYS622 
 ASP623  PHE694  ASN695  SER759  ASP760  ASP761  ALA762  ILE779  LEU786  VAL792 
 PHE793  MET794  SER795  GLU796  ALA797  LYS798  CYS799  TRP800  GLU811  SER814 

> <Gold.Protein.RotatedAtoms>
  150.6868  134.2766  159.4609 H   0  0  0  0  0  0  0  0  0  0  0  0  # atno 6907 bound_to 6896
  152.0684  134.9547  160.0584 H   0  0  0  0  0  0  0  0  0  0  0  0  # atno 6908 bound_to 6896
  152.0946  133.4183  159.4596 H   0  0  0  0  0  0  0  0  0  0  0  0  # atno 6909 bound_to 6896
  144.7127  140.1037  143.6415 H   0  0  0  0  0  0  0  0  0  0  0  0  # atno 7974 bound_to 7965
  155.8684  140.3450  155.5804 H   0  0  0  0  0  0  0  0  0  0  0  0  # atno 8008 bound_to 7997
  155.7855  140.0864  157.2056 H   0  0  0  0  0  0  0  0  0  0  0  0  # atno 8009 bound_to 7997
  154.4016  140.1493  156.3089 H   0  0  0  0  0  0  0  0  0  0  0  0  # atno 8010 bound_to 7997
  140.6581  143.2614  151.4524 H   0  0  0  0  0  0  0  0  0  0  0  0  # atno 10167 bound_to 10162
  157.4914  130.8378  149.8207 H   0  0  0  0  0  0  0  0  0  0  0  0  # atno 10718 bound_to 10713
  154.8737  135.3780  154.4498 H   0  0  0  0  0  0  0  0  0  0  0  0  # atno 10763 bound_to 10752
  153.5176  135.7029  153.5753 H   0  0  0  0  0  0  0  0  0  0  0  0  # atno 10764 bound_to 10752
  153.4015  135.3947  155.1956 H   0  0  0  0  0  0  0  0  0  0  0  0  # atno 10765 bound_to 10752
  140.0441  134.9290  157.0898 H   0  0  0  0  0  0  0  0  0  0  0  0  # atno 11005 bound_to 11000
  145.9516  139.2737  143.1209 LP  0  0  0  0  0  0  0  0  0  0  0  0  # atno 17320 bound_to 7965
  145.9317  140.9043  143.0353 LP  0  0  0  0  0  0  0  0  0  0  0  0  # atno 17321 bound_to 7965
  139.5808  144.1714  152.1966 LP  0  0  0  0  0  0  0  0  0  0  0  0  # atno 17342 bound_to 10162
  140.1038  144.5516  150.6971 LP  0  0  0  0  0  0  0  0  0  0  0  0  # atno 17343 bound_to 10162
  156.0176  130.3808  150.2063 LP  0  0  0  0  0  0  0  0  0  0  0  0  # atno 17370 bound_to 10713
  157.0252  130.9991  151.3328 LP  0  0  0  0  0  0  0  0  0  0  0  0  # atno 17371 bound_to 10713
  140.4021  134.2071  155.7163 LP  0  0  0  0  0  0  0  0  0  0  0  0  # atno 17394 bound_to 11000
  141.1898  133.8231  157.0943 LP  0  0  0  0  0  0  0  0  0  0  0  0  # atno 17395 bound_to 11000

$$$$
