AV-unprocessed.smi:227|AV-procd|sdf|1730|dock4
  -GOLD-   2262020223D 1   1.00000     0.00000
 Structure written by MMmdl.
 54 58  0  0  0  0  0  0  0  0  1 V2000
  150.7768  140.1163  155.0060 O   0  0  0  0  0  0  0  0  0  0  0  0
  151.6194  140.6774  155.9917 C   0  0  0  0  0  0  0  0  0  0  0  0
  150.9874  140.5757  157.4019 C   0  0  1  0  0  0  0  0  0  0  0  0
  151.2555  139.2095  158.0811 C   0  0  0  0  0  0  0  0  0  0  0  0
  150.8417  138.0783  157.2690 N   0  0  0  0  0  0  0  0  0  0  0  0
  151.6332  137.0307  156.8614 C   0  0  0  0  0  0  0  0  0  0  0  0
  151.0282  136.1284  156.1395 N   0  0  0  0  0  0  0  0  0  0  0  0
  149.7176  136.5837  156.0390 C   0  0  0  0  0  0  0  0  0  0  0  0
  148.5323  136.0979  155.4104 C   0  0  0  0  0  0  0  0  0  0  0  0
  148.4543  134.9377  154.7005 N   0  0  0  0  0  0  0  0  0  0  0  0
  149.5625  133.9965  154.6749 C   0  0  1  0  0  0  0  0  0  0  0  0
  149.5283  133.3404  156.0693 C   0  0  0  0  0  0  0  0  0  0  0  0
  148.0167  133.3009  156.3445 C   0  0  0  0  0  0  0  0  0  0  0  0
  147.4577  133.9329  155.0513 C   0  0  2  0  0  0  0  0  0  0  0  0
  147.5789  132.9086  153.9040 C   0  0  1  0  0  0  0  0  0  0  0  0
  146.7076  133.2738  152.6888 C   0  0  0  0  0  0  0  0  0  0  0  0
  146.5256  132.1449  151.8605 O   0  0  0  0  0  0  0  0  0  0  0  0
  149.0944  132.9764  153.6235 C   0  0  0  0  0  0  0  0  0  0  0  0
  147.4165  136.8681  155.5144 N   0  0  0  0  0  0  0  0  0  0  0  0
  147.4401  138.0136  156.2003 C   0  0  0  0  0  0  0  0  0  0  0  0
  148.4612  138.5753  156.8472 N   0  0  0  0  0  0  0  0  0  0  0  0
  149.5909  137.8209  156.7357 C   0  0  0  0  0  0  0  0  0  0  0  0
  151.3983  141.7587  158.3145 C   0  0  2  0  0  0  0  0  0  0  0  0
  151.4188  143.1148  157.6316 C   0  0  0  0  0  0  0  0  0  0  0  0
  152.2727  143.9404  158.5868 C   0  0  0  0  0  0  0  0  0  0  0  0
  153.2260  143.0326  159.1265 O   0  0  0  0  0  0  0  0  0  0  0  0
  152.8348  141.6919  158.8452 C   0  0  0  0  0  0  0  0  0  0  0  0
  150.1361  139.5687  155.4336 H   0  0  0  0  0  0  0  0  0  0  0  0
  152.5809  140.1655  155.9591 H   0  0  0  0  0  0  0  0  0  0  0  0
  151.8256  141.7145  155.7273 H   0  0  0  0  0  0  0  0  0  0  0  0
  149.9082  140.6454  157.2561 H   0  0  0  0  0  0  0  0  0  0  0  0
  152.3154  139.1042  158.3158 H   0  0  0  0  0  0  0  0  0  0  0  0
  150.7241  139.1416  159.0303 H   0  0  0  0  0  0  0  0  0  0  0  0
  152.6790  136.9553  157.1221 H   0  0  0  0  0  0  0  0  0  0  0  0
  150.5342  134.4138  154.4185 H   0  0  0  0  0  0  0  0  0  0  0  0
  149.9882  132.3516  156.0799 H   0  0  0  0  0  0  0  0  0  0  0  0
  150.0385  133.9606  156.8075 H   0  0  0  0  0  0  0  0  0  0  0  0
  147.6425  132.2920  156.5205 H   0  0  0  0  0  0  0  0  0  0  0  0
  147.7702  133.9067  157.2175 H   0  0  0  0  0  0  0  0  0  0  0  0
  146.4410  134.3108  155.1669 H   0  0  0  0  0  0  0  0  0  0  0  0
  147.2907  131.9163  154.2547 H   0  0  0  0  0  0  0  0  0  0  0  0
  145.7273  133.6197  153.0179 H   0  0  0  0  0  0  0  0  0  0  0  0
  147.1559  134.0816  152.1092 H   0  0  0  0  0  0  0  0  0  0  0  0
  147.3034  132.0289  151.3363 H   0  0  0  0  0  0  0  0  0  0  0  0
  149.2980  133.3487  152.6184 H   0  0  0  0  0  0  0  0  0  0  0  0
  149.5868  132.0090  153.7273 H   0  0  0  0  0  0  0  0  0  0  0  0
  146.5076  138.5575  156.2351 H   0  0  0  0  0  0  0  0  0  0  0  0
  150.7171  141.8169  159.1651 H   0  0  0  0  0  0  0  0  0  0  0  0
  151.9057  143.0464  156.6576 H   0  0  0  0  0  0  0  0  0  0  0  0
  150.4257  143.5423  157.4892 H   0  0  0  0  0  0  0  0  0  0  0  0
  152.7570  144.7835  158.0937 H   0  0  0  0  0  0  0  0  0  0  0  0
  151.6620  144.3290  159.4028 H   0  0  0  0  0  0  0  0  0  0  0  0
  152.9203  141.0664  159.7341 H   0  0  0  0  0  0  0  0  0  0  0  0
  153.5105  141.2935  158.0874 H   0  0  0  0  0  0  0  0  0  0  0  0
  1  2  1  0  0  0  0
  1 28  1  0  0  0  0
  2  3  1  0  0  0  0
  2 29  1  0  0  0  0
  2 30  1  0  0  0  0
  3  4  1  0  0  0  0
  3 23  1  0  0  0  0
  3 31  1  0  0  0  0
  4  5  1  0  0  0  0
  4 32  1  0  0  0  0
  4 33  1  0  0  0  0
  5 22  1  0  0  0  0
  5  6  1  0  0  0  0
  6  7  2  0  0  0  0
  6 34  1  0  0  0  0
  7  8  1  0  0  0  0
  8 22  2  0  0  0  0
  8  9  1  0  0  0  0
  9 10  1  0  0  0  0
  9 19  2  0  0  0  0
 10 14  1  0  0  0  0
 10 11  1  0  0  0  0
 11 18  1  0  0  0  0
 11 12  1  0  0  0  0
 11 35  1  0  0  0  0
 12 13  1  0  0  0  0
 12 36  1  0  0  0  0
 12 37  1  0  0  0  0
 13 14  1  0  0  0  0
 13 38  1  0  0  0  0
 13 39  1  0  0  0  0
 14 15  1  0  0  0  0
 14 40  1  0  0  0  0
 15 16  1  0  0  0  0
 15 18  1  0  0  0  0
 15 41  1  0  0  0  0
 16 17  1  0  0  0  0
 16 42  1  0  0  0  0
 16 43  1  0  0  0  0
 17 44  1  0  0  0  0
 18 45  1  0  0  0  0
 18 46  1  0  0  0  0
 19 20  1  0  0  0  0
 20 21  2  0  0  0  0
 20 47  1  0  0  0  0
 21 22  1  0  0  0  0
 23 27  1  0  0  0  0
 23 24  1  0  0  0  0
 23 48  1  0  0  0  0
 24 25  1  0  0  0  0
 24 49  1  0  0  0  0
 24 50  1  0  0  0  0
 25 26  1  0  0  0  0
 25 51  1  0  0  0  0
 25 52  1  0  0  0  0
 26 27  1  0  0  0  0
 27 53  1  0  0  0  0
 27 54  1  0  0  0  0
M  END
> <s_m_source_file>
AV-unprocessed.smi

> <i_m_source_file_index>
227

> <i_lp_mmshare_version>
43012

> <i_f3d_flags>
0

> <s_epik_input>
W0NIMl0xT1tDSDJdW0NIMl1bQ0BIXTFbQ0BIXShbQ0gyXVtPSF0pW0NIMl1uKFtjSF1uMiljKGMyMyluW2NIXW5jM04oW0NASF00NSlbQ0BASF0oW0NIMl1bQ0gyXTQpW0NASF0oW0NIMl01KVtDSDJdW09IXQ==

> <s_epik_cmdline>
J2VwaWtfcHl0aG9uJywgJy1waCcsICc3LjAnLCAnLXRuJywgJzgnLCAnLW1hJywgJzIwMCcsICctbWV0YWxfYmluZGluZycsICctaW1hZScsICc8aW5maWxlLm1hZT4nLCAnLW9tYWUnLCAnPG91dGZpbGUubWFlPic=

> <r_lp_tautomer_probability>
1

> <r_epik_Ionization_Penalty>
0.0055791

> <r_epik_Ionization_Penalty_Charging>
0

> <r_epik_Ionization_Penalty_Neutral>
0.0055791

> <r_epik_State_Penalty>
0.00401299

> <r_epik_Charging_Adjusted_Penalty>
0.00401299

> <i_epik_Tot_Q>
0

> <i_epik_Tot_abs_Q>
0

> <r_epik_Metal_State_Penalty>
-0

> <b_epik_Metal_Only>
0

> <s_lp_Force_Field>
OPLS_2005

> <r_lp_Energy>
89.0098

> <b_lp_Chiralities_Consistent>
1

> <s_lp_Variant>
AV-unprocessed.smi:227-4

> <Gold.Version>
5.8.1

> <Gold.Id.Protein>
6NUR|6NUR_protein|mol2

> <Gold.PLP.Fitness>
39.5535

> <Gold.PLP.PLP>
-33.7187

> <Gold.PLP.part.hbond>
-2.2403

> <Gold.PLP.part.metal>
0.0000

> <Gold.PLP.part.buried>
-7.6541

> <Gold.PLP.part.nonpolar>
-23.4310

> <Gold.PLP.part.repulsive>
0.5337

> <Gold.PLP.ligand.clash>
0.0000

> <Gold.PLP.ligand.torsion>
0.8283

> <Gold.PLP.Chemscore.Hbond>
2.4323

> <Gold.PLP.Chemscore.CHOScore>
0.0000

> <Gold.PLP.Chemscore.Metal>
0.0000

> <Gold.Chemscore.Hbonds>
donor molecule, donor type, donor heavy atom, donor atom, acceptor molecule, acceptor atom, score
      L1  H    17    44       P1 10747  0.32
      P1  H  7989  7998       L1     1  0.85

> <Gold.PLP.Chemscore.Internal.Correction>
0.1946

> <Gold.Rescore>
     Score         DG    S(hbond)    S(metal)    S(lipo)     H(rot)  DE(clash)    DE(int)     intcor
     11.29     -14.53       2.09        0.00      96.51       3.61       1.32       1.92       ----

> <Gold.Chemscore.Fitness>
11.2908

> <Gold.Chemscore.DG>
-14.5300

> <Gold.Chemscore.ZeroCoef>
-5.4800

> <Gold.Chemscore.Hbond>
2.0937

> <Gold.Chemscore.Metal>
0.0000

> <Gold.Chemscore.Lipo>
96.5051

> <Gold.Chemscore.Internal_Hbond>
0.0000

> <Gold.Chemscore.DEClash>
1.3153

> <Gold.Chemscore.DEInternal>
1.9239

> <Gold.Chemscore.Rot>
3.6071

> <Gold.Chemscore.Internal.Correction>
   9.000000E+99

> <Gold.Chemscore.Hbonds>
donor molecule, donor type, donor heavy atom, donor atom, acceptor molecule, acceptor atom, score
      L1  H    17    44       P1 10747  0.33
      P1  H  7989  7998       L1     1  0.15

> <Gold.Chemscore.Hbond.Weighted>
-6.9930

> <Gold.Chemscore.Metal.Weighted>
-0.0000

> <Gold.Chemscore.Lipo.Weighted>
-11.2911

> <Gold.Chemscore.Internal_Hbond.Weighted>
0.0000

> <Gold.Chemscore.DEClash.Weighted>
1.3153

> <Gold.Chemscore.DEInternal.Weighted>
1.9239

> <Gold.Chemscore.Rot.Weighted>
9.2342

> <Gold.Chemscore.Internal.Correction.Weighted>
   9.000000E+99

> <Gold.Protein.RotatedTorsions>
[ 6907 6896 6895 6894 ] final   65.82 input  -60.11 | X-H torsion
[ 7974 7965 7964 7962 ] final   24.21 input  175.53 | X-H torsion
[ 8008 7997 7996 7995 ] final -106.59 input   59.86 | X-H torsion
[ 10167 10162 10161 10158 ] final  100.80 input  -65.29 | X-H torsion
[ 10718 10713 10712 10709 ] final  143.50 input   66.30 | X-H torsion
[ 10763 10752 10751 10750 ] final -157.02 input  -60.55 | X-H torsion
[ 11005 11000 10999 10996 ] final   88.20 input  -57.11 | X-H torsion

> <Gold.Protein.ActiveResidues>
 VAL166  LYS551  ARG553  GLY616  TRP617  ASP618  TYR619  PRO620  LYS621  CYS622 
 ASP623  PHE694  ASN695  SER759  ASP760  ASP761  ALA762  ILE779  LEU786  VAL792 
 PHE793  MET794  SER795  GLU796  ALA797  LYS798  CYS799  TRP800  GLU811  SER814 

> <Gold.Protein.RotatedAtoms>
  152.4436  134.5541  159.9874 H   0  0  0  0  0  0  0  0  0  0  0  0  # atno 6907 bound_to 6896
  151.5632  133.3394  159.2983 H   0  0  0  0  0  0  0  0  0  0  0  0  # atno 6908 bound_to 6896
  150.8347  134.7648  159.6947 H   0  0  0  0  0  0  0  0  0  0  0  0  # atno 6909 bound_to 6896
  146.1948  139.7636  142.8805 H   0  0  0  0  0  0  0  0  0  0  0  0  # atno 7974 bound_to 7965
  154.9168  140.0408  157.1976 H   0  0  0  0  0  0  0  0  0  0  0  0  # atno 8008 bound_to 7997
  154.8293  140.2896  155.5712 H   0  0  0  0  0  0  0  0  0  0  0  0  # atno 8009 bound_to 7997
  156.2985  140.2504  156.3215 H   0  0  0  0  0  0  0  0  0  0  0  0  # atno 8010 bound_to 7997
  139.7495  144.6988  151.0454 H   0  0  0  0  0  0  0  0  0  0  0  0  # atno 10167 bound_to 10162
  157.3682  131.0975  151.0852 H   0  0  0  0  0  0  0  0  0  0  0  0  # atno 10718 bound_to 10713
  154.7668  135.3133  154.8270 H   0  0  0  0  0  0  0  0  0  0  0  0  # atno 10763 bound_to 10752
  153.9016  135.6815  153.4759 H   0  0  0  0  0  0  0  0  0  0  0  0  # atno 10764 bound_to 10752
  153.1275  135.4795  154.9229 H   0  0  0  0  0  0  0  0  0  0  0  0  # atno 10765 bound_to 10752
  139.8902  134.8472  156.2966 H   0  0  0  0  0  0  0  0  0  0  0  0  # atno 11005 bound_to 11000
  145.3678  141.0337  143.3248 LP  0  0  0  0  0  0  0  0  0  0  0  0  # atno 17320 bound_to 7965
  144.8558  139.5251  143.6835 LP  0  0  0  0  0  0  0  0  0  0  0  0  # atno 17321 bound_to 7965
  140.7796  143.4826  150.9998 LP  0  0  0  0  0  0  0  0  0  0  0  0  # atno 17342 bound_to 10162
  139.8514  143.7433  152.3178 LP  0  0  0  0  0  0  0  0  0  0  0  0  # atno 17343 bound_to 10162
  157.1966  130.6376  149.5723 LP  0  0  0  0  0  0  0  0  0  0  0  0  # atno 17370 bound_to 10713
  155.9750  130.4704  150.6430 LP  0  0  0  0  0  0  0  0  0  0  0  0  # atno 17371 bound_to 10713
  140.9941  133.7191  156.0858 LP  0  0  0  0  0  0  0  0  0  0  0  0  # atno 17394 bound_to 11000
  140.7586  134.3964  157.5529 LP  0  0  0  0  0  0  0  0  0  0  0  0  # atno 17395 bound_to 11000

$$$$
