AV-unprocessed.smi:745|AV-procd|sdf|3572|dock4
  -GOLD-   22720 0563D 1   1.00000     0.00000
 Structure written by MMmdl.
 42 43  0  0  0  0  0  0  0  0  2 V2000
  145.4887  139.5083  152.3216 C   0  0  0  0  0  0  0  0  0  0  0  0
  146.7232  139.2477  151.4410 C   0  0  2  0  0  0  0  0  0  0  0  0
  146.8484  137.7995  151.2684 N   0  0  0  0  0  0  0  0  0  0  0  0
  145.8873  136.9724  150.8283 C   0  0  0  0  0  0  0  0  0  0  0  0
  144.7726  137.3542  150.4707 O   0  0  0  0  0  0  0  0  0  0  0  0
  146.3096  135.6958  150.8266 N   0  0  0  0  0  0  0  0  0  0  0  0
  145.5949  134.5353  150.4266 C   0  0  0  0  0  0  0  0  0  0  0  0
  146.2834  133.3152  150.6116 C   0  0  0  0  0  0  0  0  0  0  0  0
  145.6609  132.1059  150.2458 C   0  0  0  0  0  0  0  0  0  0  0  0
  144.3643  132.1480  149.7032 C   0  0  0  0  0  0  0  0  0  0  0  0
  143.7497  133.4046  149.5516 C   0  0  0  0  0  0  0  0  0  0  0  0
  144.3447  134.5648  149.9009 N   0  0  0  0  0  0  0  0  0  0  0  0
  148.0325  139.8572  152.0158 C   0  0  2  0  0  0  0  0  0  0  0  0
  148.4528  139.1909  153.3451 C   0  0  0  0  0  0  0  0  0  0  0  0
  149.7227  139.8259  153.9349 C   0  0  0  0  0  0  0  0  0  0  0  0
  149.5442  141.2832  154.1344 N   0  3  1  0  0  0  0  0  0  0  0  0
  150.6958  141.9047  154.8226 C   0  0  0  0  0  0  0  0  0  0  0  0
  149.2050  141.9690  152.8656 C   0  0  0  0  0  0  0  0  0  0  0  0
  147.9250  141.3830  152.2483 C   0  0  0  0  0  0  0  0  0  0  0  0
  145.2395  140.5677  152.3694 H   0  0  0  0  0  0  0  0  0  0  0  0
  145.6427  139.1516  153.3405 H   0  0  0  0  0  0  0  0  0  0  0  0
  144.6107  138.9992  151.9221 H   0  0  0  0  0  0  0  0  0  0  0  0
  146.5281  139.7126  150.4728 H   0  0  0  0  0  0  0  0  0  0  0  0
  147.7333  137.3913  151.5324 H   0  0  0  0  0  0  0  0  0  0  0  0
  147.2509  135.5338  151.1523 H   0  0  0  0  0  0  0  0  0  0  0  0
  147.2794  133.3009  151.0301 H   0  0  0  0  0  0  0  0  0  0  0  0
  146.1705  131.1632  150.3799 H   0  0  0  0  0  0  0  0  0  0  0  0
  143.8544  131.2419  149.4109 H   0  0  0  0  0  0  0  0  0  0  0  0
  142.7549  133.4811  149.1383 H   0  0  0  0  0  0  0  0  0  0  0  0
  148.8296  139.6876  151.2898 H   0  0  0  0  0  0  0  0  0  0  0  0
  147.6393  139.2656  154.0682 H   0  0  0  0  0  0  0  0  0  0  0  0
  148.6400  138.1274  153.1994 H   0  0  0  0  0  0  0  0  0  0  0  0
  149.9550  139.3524  154.8896 H   0  0  0  0  0  0  0  0  0  0  0  0
  150.5745  139.6469  153.2765 H   0  0  0  0  0  0  0  0  0  0  0  0
  151.6017  141.8241  154.2203 H   0  0  0  0  0  0  0  0  0  0  0  0
  150.8780  141.4197  155.7822 H   0  0  0  0  0  0  0  0  0  0  0  0
  150.5046  142.9608  155.0150 H   0  0  0  0  0  0  0  0  0  0  0  0
  149.0619  143.0341  153.0532 H   0  0  0  0  0  0  0  0  0  0  0  0
  150.0368  141.8785  152.1651 H   0  0  0  0  0  0  0  0  0  0  0  0
  147.7301  141.9026  151.3104 H   0  0  0  0  0  0  0  0  0  0  0  0
  147.0763  141.5966  152.9000 H   0  0  0  0  0  0  0  0  0  0  0  0
  148.7484  141.3967  154.7462 H   0  0  0  0  0  0  0  0  0  0  0  0
  1  2  1  0  0  0  0
  1 20  1  0  0  0  0
  1 21  1  0  0  0  0
  1 22  1  0  0  0  0
  2  3  1  0  0  0  0
  2 13  1  0  0  0  0
  2 23  1  0  0  0  0
  3  4  1  0  0  0  0
  3 24  1  0  0  0  0
  4  5  2  0  0  0  0
  4  6  1  0  0  0  0
  6  7  1  0  0  0  0
  6 25  1  0  0  0  0
  7 12  1  0  0  0  0
  7  8  2  0  0  0  0
  8  9  1  0  0  0  0
  8 26  1  0  0  0  0
  9 10  2  0  0  0  0
  9 27  1  0  0  0  0
 10 11  1  0  0  0  0
 10 28  1  0  0  0  0
 11 12  2  0  0  0  0
 11 29  1  0  0  0  0
 13 19  1  0  0  0  0
 13 14  1  0  0  0  0
 13 30  1  0  0  0  0
 14 15  1  0  0  0  0
 14 31  1  0  0  0  0
 14 32  1  0  0  0  0
 15 16  1  0  0  0  0
 15 33  1  0  0  0  0
 15 34  1  0  0  0  0
 16 17  1  0  0  0  0
 16 18  1  0  0  0  0
 16 42  1  0  0  0  0
 17 35  1  0  0  0  0
 17 36  1  0  0  0  0
 17 37  1  0  0  0  0
 18 19  1  0  0  0  0
 18 38  1  0  0  0  0
 18 39  1  0  0  0  0
 19 40  1  0  0  0  0
 19 41  1  0  0  0  0
M  CHG  1  16   1
M  END
> <s_m_source_file>
AV-unprocessed.smi

> <i_m_source_file_index>
745

> <i_lp_mmshare_version>
43012

> <i_f3d_flags>
0

> <s_epik_input>
W0NIMl0xW0NIMl1OKFtDSDNdKVtDSDJdW0NIMl1bQ0hdMVtDQEhdKFtDSDNdKVtOSF1DKD1PKVtOSF1jMltjSF1bY0hdW2NIXVtjSF1uMg==

> <s_epik_cmdline>
J2VwaWtfcHl0aG9uJywgJy1waCcsICc3LjAnLCAnLXRuJywgJzgnLCAnLW1hJywgJzIwMCcsICctbWV0YWxfYmluZGluZycsICctaW1hZScsICc8aW5maWxlLm1hZT4nLCAnLW9tYWUnLCAnPG91dGZpbGUubWFlPic=

> <r_epik_Ionization_Penalty>
0.0011087

> <r_epik_Ionization_Penalty_Charging>
0.00106265

> <r_epik_Ionization_Penalty_Neutral>
4.60506e-05

> <r_epik_State_Penalty>
0.000695551

> <r_epik_Charging_Adjusted_Penalty>
0.0017582

> <i_epik_Tot_Q>
1

> <i_epik_Tot_abs_Q>
1

> <r_epik_Metal_State_Penalty>
-0

> <b_epik_Metal_Only>
0

> <s_lp_Force_Field>
OPLS_2005

> <r_lp_Energy>
20.1287

> <b_lp_Chiralities_Consistent>
1

> <s_lp_Variant>
AV-unprocessed.smi:745-1

> <Gold.Version>
5.8.1

> <Gold.Id.Protein>
6NUR|6NUR_protein|mol2

> <Gold.PLP.Fitness>
42.5172

> <Gold.PLP.PLP>
-33.5833

> <Gold.PLP.part.hbond>
-2.0000

> <Gold.PLP.part.metal>
0.0000

> <Gold.PLP.part.buried>
-3.3483

> <Gold.PLP.part.nonpolar>
-29.1137

> <Gold.PLP.part.repulsive>
0.6782

> <Gold.PLP.ligand.clash>
0.0000

> <Gold.PLP.ligand.torsion>
0.0416

> <Gold.PLP.Chemscore.Hbond>
2.0000

> <Gold.PLP.Chemscore.CHOScore>
1.0000

> <Gold.PLP.Chemscore.Metal>
0.0000

> <Gold.Chemscore.Hbonds>
donor molecule, donor type, donor heavy atom, donor atom, acceptor molecule, acceptor atom, score
      L1  H     3    24       P1  7948  1.00
      L1  H     6    25       P1  7948  1.00
      L1  C    11    29       P1 10186  0.98

> <Gold.PLP.Chemscore.Internal.Correction>
0.0172

> <Gold.Rescore>
     Score         DG    S(hbond)    S(metal)    S(lipo)     H(rot)  DE(clash)    DE(int)     intcor
     16.14     -18.45       1.94        0.00      82.95       1.26       0.07       2.23       ----

> <Gold.Chemscore.Fitness>
16.1422

> <Gold.Chemscore.DG>
-18.4452

> <Gold.Chemscore.ZeroCoef>
-5.4800

> <Gold.Chemscore.Hbond>
1.9418

> <Gold.Chemscore.Metal>
0.0000

> <Gold.Chemscore.Lipo>
82.9527

> <Gold.Chemscore.Internal_Hbond>
0.0000

> <Gold.Chemscore.DEClash>
0.0732

> <Gold.Chemscore.DEInternal>
2.2298

> <Gold.Chemscore.Rot>
1.2601

> <Gold.Chemscore.Internal.Correction>
   9.000000E+99

> <Gold.Chemscore.Hbonds>
donor molecule, donor type, donor heavy atom, donor atom, acceptor molecule, acceptor atom, score
      L1  H     3    24       P1  7948  1.00
      L1  H     6    25       P1  7948  0.81

> <Gold.Chemscore.Hbond.Weighted>
-6.4857

> <Gold.Chemscore.Metal.Weighted>
-0.0000

> <Gold.Chemscore.Lipo.Weighted>
-9.7055

> <Gold.Chemscore.Internal_Hbond.Weighted>
0.0000

> <Gold.Chemscore.DEClash.Weighted>
0.0732

> <Gold.Chemscore.DEInternal.Weighted>
2.2298

> <Gold.Chemscore.Rot.Weighted>
3.2260

> <Gold.Chemscore.Internal.Correction.Weighted>
   9.000000E+99

> <Gold.Protein.RotatedTorsions>
[ 6907 6896 6895 6894 ] final  -45.18 input  -60.11 | X-H torsion
[ 7974 7965 7964 7962 ] final  139.05 input  175.53 | X-H torsion
[ 8008 7997 7996 7995 ] final  175.54 input   59.86 | X-H torsion
[ 10167 10162 10161 10158 ] final    2.41 input  -65.29 | X-H torsion
[ 10718 10713 10712 10709 ] final   39.61 input   66.30 | X-H torsion
[ 10763 10752 10751 10750 ] final  -40.50 input  -60.55 | X-H torsion
[ 11005 11000 10999 10996 ] final  -54.97 input  -57.11 | X-H torsion

> <Gold.Protein.ActiveResidues>
 VAL166  LYS551  ARG553  GLY616  TRP617  ASP618  TYR619  PRO620  LYS621  CYS622 
 ASP623  PHE694  ASN695  SER759  ASP760  ASP761  ALA762  ILE779  LEU786  VAL792 
 PHE793  MET794  SER795  GLU796  ALA797  LYS798  CYS799  TRP800  GLU811  SER814 

> <Gold.Protein.RotatedAtoms>
  150.9248  134.8665  159.7512 H   0  0  0  0  0  0  0  0  0  0  0  0  # atno 6907 bound_to 6896
  152.5010  134.4166  159.9476 H   0  0  0  0  0  0  0  0  0  0  0  0  # atno 6908 bound_to 6896
  151.4197  133.3662  159.2789 H   0  0  0  0  0  0  0  0  0  0  0  0  # atno 6909 bound_to 6896
  144.9315  139.5041  143.5615 H   0  0  0  0  0  0  0  0  0  0  0  0  # atno 7974 bound_to 7965
  156.0859  140.1406  156.9654 H   0  0  0  0  0  0  0  0  0  0  0  0  # atno 8008 bound_to 7997
  154.4612  140.0942  156.6947 H   0  0  0  0  0  0  0  0  0  0  0  0  # atno 8009 bound_to 7997
  155.4999  140.3450  155.4371 H   0  0  0  0  0  0  0  0  0  0  0  0  # atno 8010 bound_to 7997
  140.6636  143.7238  150.7785 H   0  0  0  0  0  0  0  0  0  0  0  0  # atno 10167 bound_to 10162
  157.3725  130.7709  149.7130 H   0  0  0  0  0  0  0  0  0  0  0  0  # atno 10718 bound_to 10713
  153.9469  135.6755  153.4744 H   0  0  0  0  0  0  0  0  0  0  0  0  # atno 10763 bound_to 10752
  153.0903  135.4878  154.8675 H   0  0  0  0  0  0  0  0  0  0  0  0  # atno 10764 bound_to 10752
  154.7347  135.3146  154.8791 H   0  0  0  0  0  0  0  0  0  0  0  0  # atno 10765 bound_to 10752
  141.1051  133.6614  156.4400 H   0  0  0  0  0  0  0  0  0  0  0  0  # atno 11005 bound_to 11000
  146.3249  139.8269  142.8916 LP  0  0  0  0  0  0  0  0  0  0  0  0  # atno 17320 bound_to 7965
  145.3134  141.0225  143.3541 LP  0  0  0  0  0  0  0  0  0  0  0  0  # atno 17321 bound_to 7965
  140.0912  143.4876  152.2478 LP  0  0  0  0  0  0  0  0  0  0  0  0  # atno 17342 bound_to 10162
  139.5877  144.7538  151.3477 LP  0  0  0  0  0  0  0  0  0  0  0  0  # atno 17343 bound_to 10162
  155.9758  130.4083  150.3821 LP  0  0  0  0  0  0  0  0  0  0  0  0  # atno 17370 bound_to 10713
  157.1913  131.0416  151.2698 LP  0  0  0  0  0  0  0  0  0  0  0  0  # atno 17371 bound_to 10713
  140.4922  134.6565  157.5215 LP  0  0  0  0  0  0  0  0  0  0  0  0  # atno 17394 bound_to 11000
  139.9918  134.6973  155.9676 LP  0  0  0  0  0  0  0  0  0  0  0  0  # atno 17395 bound_to 11000

$$$$
