AV-unprocessed.smi:514|AV-procd|sdf|2779|dock9
  -GOLD-   2262023253D 1   1.00000     0.00000
 Structure written by MMmdl.
 44 46  0  0  0  0  0  0  0  0  2 V2000
  152.7055  141.9816  160.2935 C   0  0  0  0  0  0  0  0  0  0  0  0
  151.7699  142.6571  159.2810 C   0  0  0  0  0  0  0  0  0  0  0  0
  150.6184  141.8669  159.0203 O   0  0  0  0  0  0  0  0  0  0  0  0
  149.6665  142.4890  158.1703 C   0  0  0  0  0  0  0  0  0  0  0  0
  148.6716  141.4221  157.6857 C   0  0  0  0  0  0  0  0  0  0  0  0
  147.5057  142.0106  157.0323 N   0  0  0  0  0  0  0  0  0  0  0  0
  147.0981  141.8925  155.7351 C   0  0  0  0  0  0  0  0  0  0  0  0
  147.7937  141.1562  154.7668 N   0  0  0  0  0  0  0  0  0  0  0  0
  147.2316  140.7839  153.4690 C   0  0  0  0  0  0  0  0  0  0  0  0
  147.4330  139.2818  153.1867 C   0  0  0  0  0  0  0  0  0  0  0  0
  148.8580  138.9733  153.1522 N   0  0  0  0  0  0  0  0  0  0  0  0
  149.4361  139.3232  154.4444 C   0  0  0  0  0  0  0  0  0  0  0  0
  149.2186  140.8251  154.7148 C   0  0  0  0  0  0  0  0  0  0  0  0
  145.9465  142.5127  155.4658 N   0  0  0  0  0  0  0  0  0  0  0  0
  145.6013  143.0891  156.6766 C   0  0  0  0  0  0  0  0  0  0  0  0
  146.5150  142.7930  157.6379 C   0  0  0  0  0  0  0  0  0  0  0  0
  146.3978  143.2382  159.0455 C   0  0  0  0  0  0  0  0  0  0  0  0
  147.2430  142.9298  159.8829 O   0  0  0  0  0  0  0  0  0  0  0  0
  145.2733  143.9925  159.2583 N   0  5  0  0  0  0  0  0  0  0  0  0
  144.3258  144.3193  158.3122 C   0  0  0  0  0  0  0  0  0  0  0  0
  143.3363  144.9980  158.5905 O   0  0  0  0  0  0  0  0  0  0  0  0
  144.4738  143.8826  157.0221 N   0  0  0  0  0  0  0  0  0  0  0  0
  143.4842  144.2154  155.9933 C   0  0  0  0  0  0  0  0  0  0  0  0
  153.5325  142.6427  160.5526 H   0  0  0  0  0  0  0  0  0  0  0  0
  153.1361  141.0615  159.8999 H   0  0  0  0  0  0  0  0  0  0  0  0
  152.1739  141.7377  161.2134 H   0  0  0  0  0  0  0  0  0  0  0  0
  151.4282  143.6045  159.6977 H   0  0  0  0  0  0  0  0  0  0  0  0
  152.2974  142.8984  158.3571 H   0  0  0  0  0  0  0  0  0  0  0  0
  149.1473  143.2799  158.7113 H   0  0  0  0  0  0  0  0  0  0  0  0
  150.1597  142.9619  157.3227 H   0  0  0  0  0  0  0  0  0  0  0  0
  149.1555  140.7242  157.0063 H   0  0  0  0  0  0  0  0  0  0  0  0
  148.3382  140.8071  158.5209 H   0  0  0  0  0  0  0  0  0  0  0  0
  146.1644  141.0067  153.4522 H   0  0  0  0  0  0  0  0  0  0  0  0
  147.6866  141.3888  152.6835 H   0  0  0  0  0  0  0  0  0  0  0  0
  146.9376  138.6756  153.9465 H   0  0  0  0  0  0  0  0  0  0  0  0
  146.9915  139.0177  152.2258 H   0  0  0  0  0  0  0  0  0  0  0  0
  148.9879  137.9871  152.9773 H   0  0  0  0  0  0  0  0  0  0  0  0
  148.9903  138.7134  155.2312 H   0  0  0  0  0  0  0  0  0  0  0  0
  150.5019  139.0957  154.4267 H   0  0  0  0  0  0  0  0  0  0  0  0
  149.6912  141.4163  153.9292 H   0  0  0  0  0  0  0  0  0  0  0  0
  149.7205  141.1133  155.6329 H   0  0  0  0  0  0  0  0  0  0  0  0
  142.5289  143.7403  156.2192 H   0  0  0  0  0  0  0  0  0  0  0  0
  143.7873  143.8897  154.9987 H   0  0  0  0  0  0  0  0  0  0  0  0
  143.3265  145.2936  155.9431 H   0  0  0  0  0  0  0  0  0  0  0  0
  1  2  1  0  0  0  0
  1 24  1  0  0  0  0
  1 25  1  0  0  0  0
  1 26  1  0  0  0  0
  2  3  1  0  0  0  0
  2 27  1  0  0  0  0
  2 28  1  0  0  0  0
  3  4  1  0  0  0  0
  4  5  1  0  0  0  0
  4 29  1  0  0  0  0
  4 30  1  0  0  0  0
  5  6  1  0  0  0  0
  5 31  1  0  0  0  0
  5 32  1  0  0  0  0
  6 16  1  0  0  0  0
  6  7  1  0  0  0  0
  7  8  1  0  0  0  0
  7 14  2  0  0  0  0
  8 13  1  0  0  0  0
  8  9  1  0  0  0  0
  9 10  1  0  0  0  0
  9 33  1  0  0  0  0
  9 34  1  0  0  0  0
 10 11  1  0  0  0  0
 10 35  1  0  0  0  0
 10 36  1  0  0  0  0
 11 12  1  0  0  0  0
 11 37  1  0  0  0  0
 12 13  1  0  0  0  0
 12 38  1  0  0  0  0
 12 39  1  0  0  0  0
 13 40  1  0  0  0  0
 13 41  1  0  0  0  0
 14 15  1  0  0  0  0
 15 22  1  0  0  0  0
 15 16  2  0  0  0  0
 16 17  1  0  0  0  0
 17 18  2  0  0  0  0
 17 19  1  0  0  0  0
 19 20  1  0  0  0  0
 20 21  2  0  0  0  0
 20 22  1  0  0  0  0
 22 23  1  0  0  0  0
 23 42  1  0  0  0  0
 23 43  1  0  0  0  0
 23 44  1  0  0  0  0
M  CHG  1  19  -1
M  END
> <s_m_source_file>
AV-unprocessed.smi

> <i_m_source_file_index>
514

> <i_lp_mmshare_version>
43012

> <i_f3d_flags>
0

> <s_epik_input>
W0NIM11uMWMoPU8pW25IXWMoPU8pYyhjMTIpbihbQ0gyXVtDSDJdT1tDSDJdW0NIM10pYyhuMilOM1tDSDJdW0NIMl1bTkhdW0NIMl1bQ0gyXTM=

> <s_epik_cmdline>
J2VwaWtfcHl0aG9uJywgJy1waCcsICc3LjAnLCAnLXRuJywgJzgnLCAnLW1hJywgJzIwMCcsICctbWV0YWxfYmluZGluZycsICctaW1hZScsICc8aW5maWxlLm1hZT4nLCAnLW9tYWUnLCAnPG91dGZpbGUubWFlPic=

> <r_epik_Ionization_Penalty>
8.82895

> <r_epik_Ionization_Penalty_Charging>
0.0771612

> <r_epik_Ionization_Penalty_Neutral>
8.75178

> <r_epik_State_Penalty>
8.91747

> <r_epik_Charging_Adjusted_Penalty>
8.99464

> <i_epik_Tot_Q>
-1

> <i_epik_Tot_abs_Q>
1

> <r_epik_Metal_State_Penalty>
4.86816

> <b_epik_Metal_Only>
1

> <s_lp_Force_Field>
OPLS_2005

> <r_lp_Energy>
52.9187

> <b_lp_Chiralities_Consistent>
1

> <s_lp_Variant>
AV-unprocessed.smi:514-4

> <Gold.Version>
5.8.1

> <Gold.Id.Protein>
6NUR|6NUR_protein|mol2

> <Gold.PLP.Fitness>
39.9550

> <Gold.PLP.PLP>
-33.8716

> <Gold.PLP.part.hbond>
-3.8866

> <Gold.PLP.part.metal>
0.0000

> <Gold.PLP.part.buried>
-5.4880

> <Gold.PLP.part.nonpolar>
-26.0080

> <Gold.PLP.part.repulsive>
0.3127

> <Gold.PLP.ligand.clash>
0.0000

> <Gold.PLP.ligand.torsion>
0.2887

> <Gold.PLP.Chemscore.Hbond>
2.1947

> <Gold.PLP.Chemscore.CHOScore>
0.0000

> <Gold.PLP.Chemscore.Metal>
0.0000

> <Gold.Chemscore.Hbonds>
donor molecule, donor type, donor heavy atom, donor atom, acceptor molecule, acceptor atom, score
      L1  H    11    37       P1  7948  0.94
      P1  H  6933  6944       L1    18  0.76
      P1  H  6934  6946       L1    18  0.36

> <Gold.PLP.Chemscore.Internal.Correction>
0.0767

> <Gold.Rescore>
     Score         DG    S(hbond)    S(metal)    S(lipo)     H(rot)  DE(clash)    DE(int)     intcor
     15.32     -15.82       2.38        0.00      57.54       1.70       0.00       0.50       ----

> <Gold.Chemscore.Fitness>
15.3212

> <Gold.Chemscore.DG>
-15.8202

> <Gold.Chemscore.ZeroCoef>
-5.4800

> <Gold.Chemscore.Hbond>
2.3797

> <Gold.Chemscore.Metal>
0.0000

> <Gold.Chemscore.Lipo>
57.5380

> <Gold.Chemscore.Internal_Hbond>
0.0000

> <Gold.Chemscore.DEClash>
0.0000

> <Gold.Chemscore.DEInternal>
0.4990

> <Gold.Chemscore.Rot>
1.6953

> <Gold.Chemscore.Internal.Correction>
   9.000000E+99

> <Gold.Chemscore.Hbonds>
donor molecule, donor type, donor heavy atom, donor atom, acceptor molecule, acceptor atom, score
      L1  H    11    37       P1  7948  0.88
      P1  H  6933  6944       L1    18  0.74
      P1  H  6934  6946       L1    18  0.30

> <Gold.Chemscore.Hbond.Weighted>
-7.9482

> <Gold.Chemscore.Metal.Weighted>
-0.0000

> <Gold.Chemscore.Lipo.Weighted>
-6.7319

> <Gold.Chemscore.Internal_Hbond.Weighted>
0.0000

> <Gold.Chemscore.DEClash.Weighted>
0.0000

> <Gold.Chemscore.DEInternal.Weighted>
0.4990

> <Gold.Chemscore.Rot.Weighted>
4.3399

> <Gold.Chemscore.Internal.Correction.Weighted>
   9.000000E+99

> <Gold.Protein.RotatedTorsions>
[ 6907 6896 6895 6894 ] final  -95.71 input  -60.11 | X-H torsion
[ 7974 7965 7964 7962 ] final   41.21 input  175.53 | X-H torsion
[ 8008 7997 7996 7995 ] final  -21.59 input   59.86 | X-H torsion
[ 10167 10162 10161 10158 ] final  128.31 input  -65.29 | X-H torsion
[ 10718 10713 10712 10709 ] final  176.92 input   66.30 | X-H torsion
[ 10763 10752 10751 10750 ] final   65.11 input  -60.55 | X-H torsion
[ 11005 11000 10999 10996 ] final -117.74 input  -57.11 | X-H torsion

> <Gold.Protein.ActiveResidues>
 VAL166  LYS551  ARG553  GLY616  TRP617  ASP618  TYR619  PRO620  LYS621  CYS622 
 ASP623  PHE694  ASN695  SER759  ASP760  ASP761  ALA762  ILE779  LEU786  VAL792 
 PHE793  MET794  SER795  GLU796  ALA797  LYS798  CYS799  TRP800  GLU811  SER814 

> <Gold.Protein.RotatedAtoms>
  150.6970  134.1615  159.4177 H   0  0  0  0  0  0  0  0  0  0  0  0  # atno 6907 bound_to 6896
  151.9596  135.0128  160.0556 H   0  0  0  0  0  0  0  0  0  0  0  0  # atno 6908 bound_to 6896
  152.1939  133.4757  159.5059 H   0  0  0  0  0  0  0  0  0  0  0  0  # atno 6909 bound_to 6896
  146.0842  139.5442  142.9517 H   0  0  0  0  0  0  0  0  0  0  0  0  # atno 7974 bound_to 7965
  154.4696  140.2031  156.0028 H   0  0  0  0  0  0  0  0  0  0  0  0  # atno 8008 bound_to 7997
  156.0988  140.3247  155.7884 H   0  0  0  0  0  0  0  0  0  0  0  0  # atno 8009 bound_to 7997
  155.4833  140.0540  157.2955 H   0  0  0  0  0  0  0  0  0  0  0  0  # atno 8010 bound_to 7997
  139.5533  144.6830  151.4257 H   0  0  0  0  0  0  0  0  0  0  0  0  # atno 10167 bound_to 10162
  156.9129  130.9916  151.3017 H   0  0  0  0  0  0  0  0  0  0  0  0  # atno 10718 bound_to 10713
  153.0083  135.5369  154.6615 H   0  0  0  0  0  0  0  0  0  0  0  0  # atno 10763 bound_to 10752
  154.5822  135.2851  155.0723 H   0  0  0  0  0  0  0  0  0  0  0  0  # atno 10764 bound_to 10752
  154.1848  135.6510  153.5096 H   0  0  0  0  0  0  0  0  0  0  0  0  # atno 10765 bound_to 10752
  141.0334  133.9947  157.3108 H   0  0  0  0  0  0  0  0  0  0  0  0  # atno 11005 bound_to 11000
  145.6161  141.0331  143.1940 LP  0  0  0  0  0  0  0  0  0  0  0  0  # atno 17320 bound_to 7965
  144.7314  139.7715  143.7346 LP  0  0  0  0  0  0  0  0  0  0  0  0  # atno 17321 bound_to 7965
  140.6801  143.8101  150.7110 LP  0  0  0  0  0  0  0  0  0  0  0  0  # atno 17342 bound_to 10162
  140.1552  143.4323  152.2104 LP  0  0  0  0  0  0  0  0  0  0  0  0  # atno 17343 bound_to 10162
  157.5956  130.8475  149.8724 LP  0  0  0  0  0  0  0  0  0  0  0  0  # atno 17370 bound_to 10713
  156.0527  130.3714  150.1163 LP  0  0  0  0  0  0  0  0  0  0  0  0  # atno 17371 bound_to 10713
  139.9223  135.0201  156.8111 LP  0  0  0  0  0  0  0  0  0  0  0  0  # atno 17394 bound_to 11000
  140.6366  133.9857  155.7687 LP  0  0  0  0  0  0  0  0  0  0  0  0  # atno 17395 bound_to 11000

$$$$
