AV-unprocessed.smi:2448|AV-procd|sdf|9652|dock5
  -GOLD-   2272013283D 1   1.00000     0.00000
 Structure written by MMmdl.
 37 38  0  0  0  0  0  0  0  0  1 V2000
  149.6650  143.4524  158.0988 O   0  0  0  0  0  0  0  0  0  0  0  0
  150.9881  143.0669  157.7692 C   0  0  2  0  0  0  0  0  0  0  0  0
  150.9150  142.0139  156.6443 C   0  0  0  0  0  0  0  0  0  0  0  0
  149.7829  142.2542  155.7461 N   0  0  0  0  0  0  0  0  0  0  0  0
  148.8728  141.1231  155.5109 C   0  0  2  0  0  0  0  0  0  0  0  0
  149.4057  140.3555  154.2776 C   0  0  0  0  0  0  0  0  0  0  0  0
  150.3676  139.2244  154.5972 C   0  0  0  0  0  0  0  0  0  0  0  0
  151.6747  139.4944  155.0541 C   0  0  0  0  0  0  0  0  0  0  0  0
  152.5250  138.4073  155.3388 C   0  0  0  0  0  0  0  0  0  0  0  0
  152.1516  137.1171  155.1995 N   0  0  0  0  0  0  0  0  0  0  0  0
  150.8977  136.8659  154.7660 C   0  0  0  0  0  0  0  0  0  0  0  0
  149.9692  137.8791  154.4538 C   0  0  0  0  0  0  0  0  0  0  0  0
  147.3957  141.5797  155.3452 C   0  0  0  0  0  0  0  0  0  0  0  0
  146.5819  140.5399  155.1706 F   0  0  0  0  0  0  0  0  0  0  0  0
  146.9995  142.2591  156.4221 F   0  0  0  0  0  0  0  0  0  0  0  0
  147.2491  142.3581  154.2743 F   0  0  0  0  0  0  0  0  0  0  0  0
  151.6295  142.4916  159.0428 C   0  0  0  0  0  0  0  0  0  0  0  0
  151.9433  143.6616  159.9811 C   0  0  0  0  0  0  0  0  0  0  0  0
  152.3883  145.0831  158.9521 S   0  0  0  0  0  0  0  0  0  0  0  0
  151.8266  144.3084  157.4121 C   0  0  0  0  0  0  0  0  0  0  0  0
  149.3819  144.1069  157.4793 H   0  0  0  0  0  0  0  0  0  0  0  0
  151.8423  142.0366  156.0706 H   0  0  0  0  0  0  0  0  0  0  0  0
  150.8512  141.0264  157.0988 H   0  0  0  0  0  0  0  0  0  0  0  0
  149.2497  143.0478  156.0875 H   0  0  0  0  0  0  0  0  0  0  0  0
  148.9280  140.4507  156.3680 H   0  0  0  0  0  0  0  0  0  0  0  0
  148.5712  139.9659  153.6929 H   0  0  0  0  0  0  0  0  0  0  0  0
  149.9350  141.0457  153.6190 H   0  0  0  0  0  0  0  0  0  0  0  0
  152.0231  140.5087  155.1814 H   0  0  0  0  0  0  0  0  0  0  0  0
  153.5322  138.5791  155.6888 H   0  0  0  0  0  0  0  0  0  0  0  0
  150.6248  135.8259  154.6654 H   0  0  0  0  0  0  0  0  0  0  0  0
  148.9762  137.6258  154.1122 H   0  0  0  0  0  0  0  0  0  0  0  0
  150.9980  141.7446  159.5256 H   0  0  0  0  0  0  0  0  0  0  0  0
  152.5645  141.9935  158.7830 H   0  0  0  0  0  0  0  0  0  0  0  0
  151.0583  143.9250  160.5612 H   0  0  0  0  0  0  0  0  0  0  0  0
  152.7408  143.4214  160.6841 H   0  0  0  0  0  0  0  0  0  0  0  0
  152.7167  144.0088  156.8575 H   0  0  0  0  0  0  0  0  0  0  0  0
  151.2821  145.0214  156.7922 H   0  0  0  0  0  0  0  0  0  0  0  0
  1  2  1  0  0  0  0
  1 21  1  0  0  0  0
  2 20  1  0  0  0  0
  2  3  1  0  0  0  0
  2 17  1  0  0  0  0
  3  4  1  0  0  0  0
  3 22  1  0  0  0  0
  3 23  1  0  0  0  0
  4  5  1  0  0  0  0
  4 24  1  0  0  0  0
  5  6  1  0  0  0  0
  5 13  1  0  0  0  0
  5 25  1  0  0  0  0
  6  7  1  0  0  0  0
  6 26  1  0  0  0  0
  6 27  1  0  0  0  0
  7 12  1  0  0  0  0
  7  8  2  0  0  0  0
  8  9  1  0  0  0  0
  8 28  1  0  0  0  0
  9 10  2  0  0  0  0
  9 29  1  0  0  0  0
 10 11  1  0  0  0  0
 11 12  2  0  0  0  0
 11 30  1  0  0  0  0
 12 31  1  0  0  0  0
 13 14  1  0  0  0  0
 13 15  1  0  0  0  0
 13 16  1  0  0  0  0
 17 18  1  0  0  0  0
 17 32  1  0  0  0  0
 17 33  1  0  0  0  0
 18 19  1  0  0  0  0
 18 34  1  0  0  0  0
 18 35  1  0  0  0  0
 19 20  1  0  0  0  0
 20 36  1  0  0  0  0
 20 37  1  0  0  0  0
M  END
> <s_m_source_file>
AV-unprocessed.smi

> <i_m_source_file_index>
2448

> <i_lp_mmshare_version>
43012

> <i_f3d_flags>
0

> <s_epik_input>
W0NIMl0xU1tDSDJdW0NIMl1bQ0BAXTEoW09IXSlbQ0gyXVtOSF1bQ0BASF0oQyhGKShGKUYpW0NIMl1jMltjSF1bY0hdbltjSF1bY0hdMg==

> <s_epik_cmdline>
J2VwaWtfcHl0aG9uJywgJy1waCcsICc3LjAnLCAnLXRuJywgJzgnLCAnLW1hJywgJzIwMCcsICctbWV0YWxfYmluZGluZycsICctaW1hZScsICc8aW5maWxlLm1hZT4nLCAnLW9tYWUnLCAnPG91dGZpbGUubWFlPic=

> <r_epik_Ionization_Penalty>
0.187708

> <r_epik_Ionization_Penalty_Charging>
0

> <r_epik_Ionization_Penalty_Neutral>
0.187708

> <r_epik_State_Penalty>
0.22769

> <r_epik_Charging_Adjusted_Penalty>
0.22769

> <i_epik_Tot_Q>
0

> <i_epik_Tot_abs_Q>
0

> <r_epik_Metal_State_Penalty>
0.176206

> <b_epik_Metal_Only>
0

> <s_lp_Force_Field>
OPLS_2005

> <r_lp_Energy>
30.9139

> <b_lp_Chiralities_Consistent>
1

> <s_lp_Variant>
AV-unprocessed.smi:2448-2

> <Gold.Version>
5.8.1

> <Gold.Id.Protein>
6NUR|6NUR_protein|mol2

> <Gold.PLP.Fitness>
49.4249

> <Gold.PLP.PLP>
-44.1304

> <Gold.PLP.part.hbond>
-3.7778

> <Gold.PLP.part.metal>
0.0000

> <Gold.PLP.part.buried>
-2.0407

> <Gold.PLP.part.nonpolar>
-37.9463

> <Gold.PLP.part.repulsive>
0.0542

> <Gold.PLP.ligand.clash>
0.0000

> <Gold.PLP.ligand.torsion>
1.8806

> <Gold.PLP.Chemscore.Hbond>
2.8060

> <Gold.PLP.Chemscore.CHOScore>
0.0000

> <Gold.PLP.Chemscore.Metal>
0.0000

> <Gold.Chemscore.Hbonds>
donor molecule, donor type, donor heavy atom, donor atom, acceptor molecule, acceptor atom, score
      L1  H     1    21       P1  8028  0.85
      L1  H     4    24       P1  8028  0.80
      P1  H 10752 10765       L1    10  0.82

> <Gold.PLP.Chemscore.Internal.Correction>
0.6376

> <Gold.Rescore>
     Score         DG    S(hbond)    S(metal)    S(lipo)     H(rot)  DE(clash)    DE(int)     intcor
     17.57     -20.18       1.91        0.00     121.69       2.31       0.81       1.80       ----

> <Gold.Chemscore.Fitness>
17.5730

> <Gold.Chemscore.DG>
-20.1823

> <Gold.Chemscore.ZeroCoef>
-5.4800

> <Gold.Chemscore.Hbond>
1.9106

> <Gold.Chemscore.Metal>
0.0000

> <Gold.Chemscore.Lipo>
121.6871

> <Gold.Chemscore.Internal_Hbond>
0.0000

> <Gold.Chemscore.DEClash>
0.8074

> <Gold.Chemscore.DEInternal>
1.8019

> <Gold.Chemscore.Rot>
2.3111

> <Gold.Chemscore.Internal.Correction>
   9.000000E+99

> <Gold.Chemscore.Hbonds>
donor molecule, donor type, donor heavy atom, donor atom, acceptor molecule, acceptor atom, score
      L1  H     1    21       P1  8028  0.14
      L1  H     4    24       P1  8028  0.80
      P1  H 10752 10765       L1    10  0.19

> <Gold.Chemscore.Hbond.Weighted>
-6.3812

> <Gold.Chemscore.Metal.Weighted>
-0.0000

> <Gold.Chemscore.Lipo.Weighted>
-14.2374

> <Gold.Chemscore.Internal_Hbond.Weighted>
0.0000

> <Gold.Chemscore.DEClash.Weighted>
0.8074

> <Gold.Chemscore.DEInternal.Weighted>
1.8019

> <Gold.Chemscore.Rot.Weighted>
5.9164

> <Gold.Chemscore.Internal.Correction.Weighted>
   9.000000E+99

> <Gold.Protein.RotatedTorsions>
[ 6907 6896 6895 6894 ] final -120.83 input  -60.11 | X-H torsion
[ 7974 7965 7964 7962 ] final -112.14 input  175.53 | X-H torsion
[ 8008 7997 7996 7995 ] final  -93.43 input   59.86 | X-H torsion
[ 10167 10162 10161 10158 ] final   77.71 input  -65.29 | X-H torsion
[ 10718 10713 10712 10709 ] final -101.44 input   66.30 | X-H torsion
[ 10763 10752 10751 10750 ] final  179.57 input  -60.55 | X-H torsion
[ 11005 11000 10999 10996 ] final -179.51 input  -57.11 | X-H torsion

> <Gold.Protein.ActiveResidues>
 VAL166  LYS551  ARG553  GLY616  TRP617  ASP618  TYR619  PRO620  LYS621  CYS622 
 ASP623  PHE694  ASN695  SER759  ASP760  ASP761  ALA762  ILE779  LEU786  VAL792 
 PHE793  MET794  SER795  GLU796  ALA797  LYS798  CYS799  TRP800  GLU811  SER814 

> <Gold.Protein.RotatedAtoms>
  150.8428  133.7909  159.3054 H   0  0  0  0  0  0  0  0  0  0  0  0  # atno 6907 bound_to 6896
  151.5605  135.1064  159.9981 H   0  0  0  0  0  0  0  0  0  0  0  0  # atno 6908 bound_to 6896
  152.4488  133.7546  159.6769 H   0  0  0  0  0  0  0  0  0  0  0  0  # atno 6909 bound_to 6896
  145.1476  140.8812  143.3665 H   0  0  0  0  0  0  0  0  0  0  0  0  # atno 7974 bound_to 7965
  154.7355  140.0499  157.0765 H   0  0  0  0  0  0  0  0  0  0  0  0  # atno 8008 bound_to 7997
  155.0246  140.3151  155.4761 H   0  0  0  0  0  0  0  0  0  0  0  0  # atno 8009 bound_to 7997
  156.2852  140.2161  156.5365 H   0  0  0  0  0  0  0  0  0  0  0  0  # atno 8010 bound_to 7997
  139.9787  144.5842  150.7920 H   0  0  0  0  0  0  0  0  0  0  0  0  # atno 10167 bound_to 10162
  156.0195  130.5374  150.6963 H   0  0  0  0  0  0  0  0  0  0  0  0  # atno 10718 bound_to 10713
  154.5224  135.2794  155.1251 H   0  0  0  0  0  0  0  0  0  0  0  0  # atno 10763 bound_to 10752
  154.2804  135.6286  153.5348 H   0  0  0  0  0  0  0  0  0  0  0  0  # atno 10764 bound_to 10752
  152.9939  135.5650  154.5716 H   0  0  0  0  0  0  0  0  0  0  0  0  # atno 10765 bound_to 10752
  140.4178  134.6633  157.4648 H   0  0  0  0  0  0  0  0  0  0  0  0  # atno 11005 bound_to 11000
  145.0465  139.3216  143.5950 LP  0  0  0  0  0  0  0  0  0  0  0  0  # atno 17320 bound_to 7965
  146.3498  139.9858  142.8691 LP  0  0  0  0  0  0  0  0  0  0  0  0  # atno 17321 bound_to 7965
  140.7497  143.2943  151.3248 LP  0  0  0  0  0  0  0  0  0  0  0  0  # atno 17342 bound_to 10162
  139.6426  144.0510  152.2566 LP  0  0  0  0  0  0  0  0  0  0  0  0  # atno 17343 bound_to 10162
  157.4634  131.0885  151.0721 LP  0  0  0  0  0  0  0  0  0  0  0  0  # atno 17370 bound_to 10713
  157.1203  130.6059  149.5503 LP  0  0  0  0  0  0  0  0  0  0  0  0  # atno 17371 bound_to 10713
  140.0221  134.6531  155.9224 LP  0  0  0  0  0  0  0  0  0  0  0  0  # atno 17394 bound_to 11000
  141.1796  133.6544  156.4966 LP  0  0  0  0  0  0  0  0  0  0  0  0  # atno 17395 bound_to 11000

$$$$
