AV-unprocessed.smi:2247|AV-procd|sdf|9093|dock6
  -GOLD-   2272012293D 1   1.00000     0.00000
 Structure written by MMmdl.
 33 34  0  0  0  0  0  0  0  0  2 V2000
  153.4468  141.7710  160.1830 C   0  0  0  0  0  0  0  0  0  0  0  0
  152.6609  142.1543  158.9156 C   0  0  0  0  0  0  0  0  0  0  0  0
  151.8994  143.4771  159.0976 C   0  0  0  0  0  0  0  0  0  0  0  0
  151.7428  141.0956  158.4712 N   0  0  0  0  0  0  0  0  0  0  0  0
  150.3050  141.2924  158.3808 C   0  0  0  0  0  0  0  0  0  0  0  0
  149.7861  140.0600  157.6338 C   0  0  0  0  0  0  0  0  0  0  0  0
  150.9073  139.0097  157.6821 C   0  0  2  0  0  0  0  0  0  0  0  0
  150.5966  138.0004  158.6928 N   0  0  0  0  0  0  0  0  0  0  0  0
  149.5268  137.1916  158.6992 C   0  0  0  0  0  0  0  0  0  0  0  0
  148.6940  137.2651  157.7927 O   0  0  0  0  0  0  0  0  0  0  0  0
  149.4886  136.3504  159.7570 N   0  5  0  0  0  0  0  0  0  0  0  0
  148.3586  136.2280  160.4718 C   0  0  0  0  0  0  0  0  0  0  0  0
  147.5950  137.2257  160.9208 N   0  0  0  0  0  0  0  0  0  0  0  0
  146.5420  136.6238  161.5926 C   0  0  0  0  0  0  0  0  0  0  0  0
  146.7127  135.2687  161.5128 C   0  0  0  0  0  0  0  0  0  0  0  0
  147.8530  135.0066  160.8051 O   0  0  0  0  0  0  0  0  0  0  0  0
  152.1025  139.8512  158.1260 C   0  0  0  0  0  0  0  0  0  0  0  0
  153.2532  139.4144  158.1251 O   0  0  0  0  0  0  0  0  0  0  0  0
  154.1801  142.5394  160.4291 H   0  0  0  0  0  0  0  0  0  0  0  0
  153.9904  140.8361  160.0430 H   0  0  0  0  0  0  0  0  0  0  0  0
  152.7942  141.6568  161.0488 H   0  0  0  0  0  0  0  0  0  0  0  0
  153.4001  142.3042  158.1267 H   0  0  0  0  0  0  0  0  0  0  0  0
  152.5757  144.2819  159.3864 H   0  0  0  0  0  0  0  0  0  0  0  0
  151.1353  143.3900  159.8707 H   0  0  0  0  0  0  0  0  0  0  0  0
  151.4052  143.7810  158.1740 H   0  0  0  0  0  0  0  0  0  0  0  0
  149.8789  141.3384  159.3839 H   0  0  0  0  0  0  0  0  0  0  0  0
  150.0541  142.2146  157.8553 H   0  0  0  0  0  0  0  0  0  0  0  0
  148.8419  139.7004  158.0453 H   0  0  0  0  0  0  0  0  0  0  0  0
  149.5945  140.3271  156.5935 H   0  0  0  0  0  0  0  0  0  0  0  0
  151.0763  138.5646  156.7001 H   0  0  0  0  0  0  0  0  0  0  0  0
  151.2541  137.9005  159.4518 H   0  0  0  0  0  0  0  0  0  0  0  0
  145.7625  137.2007  162.0674 H   0  0  0  0  0  0  0  0  0  0  0  0
  146.1573  134.4169  161.8755 H   0  0  0  0  0  0  0  0  0  0  0  0
  1  2  1  0  0  0  0
  1 19  1  0  0  0  0
  1 20  1  0  0  0  0
  1 21  1  0  0  0  0
  2  3  1  0  0  0  0
  2  4  1  0  0  0  0
  2 22  1  0  0  0  0
  3 23  1  0  0  0  0
  3 24  1  0  0  0  0
  3 25  1  0  0  0  0
  4 17  1  0  0  0  0
  4  5  1  0  0  0  0
  5  6  1  0  0  0  0
  5 26  1  0  0  0  0
  5 27  1  0  0  0  0
  6  7  1  0  0  0  0
  6 28  1  0  0  0  0
  6 29  1  0  0  0  0
  7  8  1  0  0  0  0
  7 17  1  0  0  0  0
  7 30  1  0  0  0  0
  8  9  1  0  0  0  0
  8 31  1  0  0  0  0
  9 10  2  0  0  0  0
  9 11  1  0  0  0  0
 11 12  1  0  0  0  0
 12 16  1  0  0  0  0
 12 13  2  0  0  0  0
 13 14  1  0  0  0  0
 14 15  2  0  0  0  0
 14 32  1  0  0  0  0
 15 16  1  0  0  0  0
 15 33  1  0  0  0  0
 17 18  2  0  0  0  0
M  CHG  1  11  -1
M  END
> <s_m_source_file>
AV-unprocessed.smi

> <i_m_source_file_index>
2247

> <i_lp_mmshare_version>
43012

> <i_f3d_flags>
0

> <s_epik_input>
W0NIM11bQ0hdKFtDSDNdKU4xW0NIMl1bQ0gyXVtDQEhdKEMxPU8pW05IXUMoPU8pW05IXWMybltjSF1bY0hdbzI=

> <s_epik_cmdline>
J2VwaWtfcHl0aG9uJywgJy1waCcsICc3LjAnLCAnLXRuJywgJzgnLCAnLW1hJywgJzIwMCcsICctbWV0YWxfYmluZGluZycsICctaW1hZScsICc8aW5maWxlLm1hZT4nLCAnLW9tYWUnLCAnPG91dGZpbGUubWFlPic=

> <r_lp_tautomer_probability>
0.785861

> <r_epik_Ionization_Penalty>
8.37364

> <r_epik_Ionization_Penalty_Charging>
6.20178

> <r_epik_Ionization_Penalty_Neutral>
2.17186

> <r_epik_State_Penalty>
6.22234

> <r_epik_Charging_Adjusted_Penalty>
12.4241

> <i_epik_Tot_Q>
-1

> <i_epik_Tot_abs_Q>
1

> <r_epik_Metal_State_Penalty>
2.14252

> <b_epik_Metal_Only>
1

> <s_lp_Force_Field>
OPLS_2005

> <r_lp_Energy>
16.3016

> <b_lp_Chiralities_Consistent>
1

> <s_lp_Variant>
AV-unprocessed.smi:2247-8

> <Gold.Version>
5.8.1

> <Gold.Id.Protein>
6NUR|6NUR_protein|mol2

> <Gold.PLP.Fitness>
42.1581

> <Gold.PLP.PLP>
-29.4220

> <Gold.PLP.part.hbond>
-4.0000

> <Gold.PLP.part.metal>
0.0000

> <Gold.PLP.part.buried>
-4.4396

> <Gold.PLP.part.nonpolar>
-22.0484

> <Gold.PLP.part.repulsive>
0.1564

> <Gold.PLP.ligand.clash>
0.0000

> <Gold.PLP.ligand.torsion>
0.8833

> <Gold.PLP.Chemscore.Hbond>
4.8080

> <Gold.PLP.Chemscore.CHOScore>
0.0000

> <Gold.PLP.Chemscore.Metal>
0.0000

> <Gold.Chemscore.Hbonds>
donor molecule, donor type, donor heavy atom, donor atom, acceptor molecule, acceptor atom, score
      P1  H  6896  6907       L1    11  2.00
      P1  H  6931  6943       L1    13  0.75
      P1  H  6934  6947       L1    13  0.96
      P1  H  7997  8009       L1    18  1.00

> <Gold.PLP.Chemscore.Internal.Correction>
0.0786

> <Gold.Rescore>
     Score         DG    S(hbond)    S(metal)    S(lipo)     H(rot)  DE(clash)    DE(int)     intcor
     18.13     -19.19       3.10        0.00      57.52       1.32       0.01       1.06       ----

> <Gold.Chemscore.Fitness>
18.1263

> <Gold.Chemscore.DG>
-19.1912

> <Gold.Chemscore.ZeroCoef>
-5.4800

> <Gold.Chemscore.Hbond>
3.1034

> <Gold.Chemscore.Metal>
0.0000

> <Gold.Chemscore.Lipo>
57.5220

> <Gold.Chemscore.Internal_Hbond>
0.0000

> <Gold.Chemscore.DEClash>
0.0060

> <Gold.Chemscore.DEInternal>
1.0589

> <Gold.Chemscore.Rot>
1.3219

> <Gold.Chemscore.Internal.Correction>
   9.000000E+99

> <Gold.Chemscore.Hbonds>
donor molecule, donor type, donor heavy atom, donor atom, acceptor molecule, acceptor atom, score
      P1  H  6896  6907       L1    11  0.84
      P1  H  6931  6943       L1    13  0.14
      P1  H  6934  6947       L1    13  0.46
      P1  H  7997  8009       L1    18  1.00

> <Gold.Chemscore.Hbond.Weighted>
-10.3653

> <Gold.Chemscore.Metal.Weighted>
-0.0000

> <Gold.Chemscore.Lipo.Weighted>
-6.7301

> <Gold.Chemscore.Internal_Hbond.Weighted>
0.0000

> <Gold.Chemscore.DEClash.Weighted>
0.0060

> <Gold.Chemscore.DEInternal.Weighted>
1.0589

> <Gold.Chemscore.Rot.Weighted>
3.3842

> <Gold.Chemscore.Internal.Correction.Weighted>
   9.000000E+99

> <Gold.Protein.RotatedTorsions>
[ 6907 6896 6895 6894 ] final  -54.87 input  -60.11 | X-H torsion
[ 7974 7965 7964 7962 ] final -140.41 input  175.53 | X-H torsion
[ 8008 7997 7996 7995 ] final  150.31 input   59.86 | X-H torsion
[ 10167 10162 10161 10158 ] final   44.26 input  -65.29 | X-H torsion
[ 10718 10713 10712 10709 ] final   50.88 input   66.30 | X-H torsion
[ 10763 10752 10751 10750 ] final  171.10 input  -60.55 | X-H torsion
[ 11005 11000 10999 10996 ] final  -53.07 input  -57.11 | X-H torsion

> <Gold.Protein.ActiveResidues>
 VAL166  LYS551  ARG553  GLY616  TRP617  ASP618  TYR619  PRO620  LYS621  CYS622 
 ASP623  PHE694  ASN695  SER759  ASP760  ASP761  ALA762  ILE779  LEU786  VAL792 
 PHE793  MET794  SER795  GLU796  ALA797  LYS798  CYS799  TRP800  GLU811  SER814 

> <Gold.Protein.RotatedAtoms>
  150.8301  134.7550  159.6845 H   0  0  0  0  0  0  0  0  0  0  0  0  # atno 6907 bound_to 6896
  152.4406  134.5594  159.9899 H   0  0  0  0  0  0  0  0  0  0  0  0  # atno 6908 bound_to 6896
  151.5757  133.3346  159.3034 H   0  0  0  0  0  0  0  0  0  0  0  0  # atno 6909 bound_to 6896
  144.8600  140.6203  143.5335 H   0  0  0  0  0  0  0  0  0  0  0  0  # atno 7974 bound_to 7965
  156.2721  140.2078  156.5996 H   0  0  0  0  0  0  0  0  0  0  0  0  # atno 8008 bound_to 7997
  154.6917  140.0529  157.0393 H   0  0  0  0  0  0  0  0  0  0  0  0  # atno 8009 bound_to 7997
  155.0857  140.3191  155.4591 H   0  0  0  0  0  0  0  0  0  0  0  0  # atno 8010 bound_to 7997
  140.3361  144.2528  150.6161 H   0  0  0  0  0  0  0  0  0  0  0  0  # atno 10167 bound_to 10162
  157.4927  130.8386  149.8221 H   0  0  0  0  0  0  0  0  0  0  0  0  # atno 10718 bound_to 10713
  154.4070  135.2755  155.2061 H   0  0  0  0  0  0  0  0  0  0  0  0  # atno 10763 bound_to 10752
  154.4062  135.6033  153.5929 H   0  0  0  0  0  0  0  0  0  0  0  0  # atno 10764 bound_to 10752
  152.9831  135.5938  154.4346 H   0  0  0  0  0  0  0  0  0  0  0  0  # atno 10765 bound_to 10752
  141.0957  133.6625  156.4117 H   0  0  0  0  0  0  0  0  0  0  0  0  # atno 11005 bound_to 11000
  145.4332  139.1546  143.4011 LP  0  0  0  0  0  0  0  0  0  0  0  0  # atno 17320 bound_to 7965
  146.2853  140.4449  142.8760 LP  0  0  0  0  0  0  0  0  0  0  0  0  # atno 17321 bound_to 7965
  140.5352  143.2235  151.8174 LP  0  0  0  0  0  0  0  0  0  0  0  0  # atno 17342 bound_to 10162
  139.4848  144.4670  151.9472 LP  0  0  0  0  0  0  0  0  0  0  0  0  # atno 17343 bound_to 10162
  156.0182  130.3805  150.2042 LP  0  0  0  0  0  0  0  0  0  0  0  0  # atno 17370 bound_to 10713
  157.0231  130.9985  151.3334 LP  0  0  0  0  0  0  0  0  0  0  0  0  # atno 17371 bound_to 10713
  140.5146  134.6363  157.5296 LP  0  0  0  0  0  0  0  0  0  0  0  0  # atno 17394 bound_to 11000
  139.9793  134.7163  155.9889 LP  0  0  0  0  0  0  0  0  0  0  0  0  # atno 17395 bound_to 11000

$$$$
