AV-unprocessed.smi:2718|AV-procd|sdf|10487|dock1
  -GOLD-   2272014533D 1   1.00000     0.00000
 Structure written by MMmdl.
 47 48  0  0  0  0  0  0  0  0  1 V2000
  152.3734  143.6476  160.9555 C   0  0  0  0  0  0  0  0  0  0  0  0
  152.3137  143.2462  159.4952 C   0  0  0  0  0  0  0  0  0  0  0  0
  152.6484  144.3601  158.5188 C   0  0  0  0  0  0  0  0  0  0  0  0
  151.9899  141.9934  159.1195 C   0  0  0  0  0  0  0  0  0  0  0  0
  151.9053  141.4666  157.7259 C   0  0  1  0  0  0  0  0  0  0  0  0
  151.7399  139.9924  157.3712 C   0  0  1  0  0  0  0  0  0  0  0  0
  151.6590  138.9587  158.4597 C   0  0  0  0  0  0  0  0  0  0  0  0
  152.5320  138.7712  159.3076 O   0  0  0  0  0  0  0  0  0  0  0  0
  150.5454  138.2122  158.4031 N   0  0  0  0  0  0  0  0  0  0  0  0
  150.2669  137.0660  159.2627 C   0  0  0  0  0  0  0  0  0  0  0  0
  148.8150  136.5643  159.1090 C   0  0  2  0  0  0  0  0  0  0  0  0
  147.8816  137.6085  158.4714 C   0  0  0  0  0  0  0  0  0  0  0  0
  148.2687  136.0710  160.4191 C   0  0  0  0  0  0  0  0  0  0  0  0
  147.9942  136.8723  161.4575 N   0  0  0  0  0  0  0  0  0  0  0  0
  147.5292  136.0429  162.4581 N   0  0  0  0  0  0  0  0  0  0  0  0
  147.5715  134.8219  161.9270 C   0  0  0  0  0  0  0  0  0  0  0  0
  148.0217  134.7664  160.6646 N   0  0  0  0  0  0  0  0  0  0  0  0
  148.1896  133.6008  159.8189 C   0  0  0  0  0  0  0  0  0  0  0  0
  150.6003  140.9757  157.1168 C   0  0  0  0  0  0  0  0  0  0  0  0
  149.2994  140.9848  157.9177 C   0  0  0  0  0  0  0  0  0  0  0  0
  150.2882  141.3219  155.6707 C   0  0  0  0  0  0  0  0  0  0  0  0
  151.6738  144.4596  161.1540 H   0  0  0  0  0  0  0  0  0  0  0  0
  153.3770  143.9883  161.2116 H   0  0  0  0  0  0  0  0  0  0  0  0
  152.1212  142.8143  161.6121 H   0  0  0  0  0  0  0  0  0  0  0  0
  153.6667  144.7106  158.6871 H   0  0  0  0  0  0  0  0  0  0  0  0
  151.9710  145.2017  158.6634 H   0  0  0  0  0  0  0  0  0  0  0  0
  152.5688  144.0432  157.4795 H   0  0  0  0  0  0  0  0  0  0  0  0
  151.7558  141.2766  159.8929 H   0  0  0  0  0  0  0  0  0  0  0  0
  152.5537  142.0412  157.0670 H   0  0  0  0  0  0  0  0  0  0  0  0
  152.2894  139.6684  156.4883 H   0  0  0  0  0  0  0  0  0  0  0  0
  149.8684  138.4203  157.6833 H   0  0  0  0  0  0  0  0  0  0  0  0
  150.9696  136.2624  159.0347 H   0  0  0  0  0  0  0  0  0  0  0  0
  150.4584  137.3552  160.2964 H   0  0  0  0  0  0  0  0  0  0  0  0
  148.8399  135.7198  158.4214 H   0  0  0  0  0  0  0  0  0  0  0  0
  146.8777  137.2038  158.3395 H   0  0  0  0  0  0  0  0  0  0  0  0
  148.2381  137.9184  157.4890 H   0  0  0  0  0  0  0  0  0  0  0  0
  147.8017  138.5013  159.0924 H   0  0  0  0  0  0  0  0  0  0  0  0
  147.2673  133.9429  162.4763 H   0  0  0  0  0  0  0  0  0  0  0  0
  147.8827  132.7012  160.3534 H   0  0  0  0  0  0  0  0  0  0  0  0
  149.2370  133.5022  159.5318 H   0  0  0  0  0  0  0  0  0  0  0  0
  147.5785  133.7044  158.9219 H   0  0  0  0  0  0  0  0  0  0  0  0
  148.6737  140.1407  157.6268 H   0  0  0  0  0  0  0  0  0  0  0  0
  148.7446  141.9039  157.7269 H   0  0  0  0  0  0  0  0  0  0  0  0
  149.4690  140.9313  158.9912 H   0  0  0  0  0  0  0  0  0  0  0  0
  149.5937  140.5955  155.2476 H   0  0  0  0  0  0  0  0  0  0  0  0
  151.1955  141.3193  155.0659 H   0  0  0  0  0  0  0  0  0  0  0  0
  149.8406  142.3139  155.6043 H   0  0  0  0  0  0  0  0  0  0  0  0
  1  2  1  0  0  0  0
  1 22  1  0  0  0  0
  1 23  1  0  0  0  0
  1 24  1  0  0  0  0
  2  3  1  0  0  0  0
  2  4  2  0  0  0  0
  3 25  1  0  0  0  0
  3 26  1  0  0  0  0
  3 27  1  0  0  0  0
  4  5  1  0  0  0  0
  4 28  1  0  0  0  0
  5 19  1  0  0  0  0
  5  6  1  0  0  0  0
  5 29  1  0  0  0  0
  6  7  1  0  0  0  0
  6 19  1  0  0  0  0
  6 30  1  0  0  0  0
  7  8  2  0  0  0  0
  7  9  1  0  0  0  0
  9 10  1  0  0  0  0
  9 31  1  0  0  0  0
 10 11  1  0  0  0  0
 10 32  1  0  0  0  0
 10 33  1  0  0  0  0
 11 12  1  0  0  0  0
 11 13  1  0  0  0  0
 11 34  1  0  0  0  0
 12 35  1  0  0  0  0
 12 36  1  0  0  0  0
 12 37  1  0  0  0  0
 13 17  1  0  0  0  0
 13 14  2  0  0  0  0
 14 15  1  0  0  0  0
 15 16  2  0  0  0  0
 16 17  1  0  0  0  0
 16 38  1  0  0  0  0
 17 18  1  0  0  0  0
 18 39  1  0  0  0  0
 18 40  1  0  0  0  0
 18 41  1  0  0  0  0
 19 20  1  0  0  0  0
 19 21  1  0  0  0  0
 20 42  1  0  0  0  0
 20 43  1  0  0  0  0
 20 44  1  0  0  0  0
 21 45  1  0  0  0  0
 21 46  1  0  0  0  0
 21 47  1  0  0  0  0
M  END
> <s_m_source_file>
AV-unprocessed.smi

> <i_m_source_file_index>
2718

> <i_lp_mmshare_version>
43012

> <i_f3d_flags>
0

> <s_epik_input>
W0NIM11DKFtDSDNdKT1bQ0hdW0NAQEhdKEMxKFtDSDNdKVtDSDNdKVtDQEhdMUMoPU8pW05IXVtDSDJdW0NASF0oW0NIM10pYzJubltjSF1uMltDSDNd

> <s_epik_cmdline>
J2VwaWtfcHl0aG9uJywgJy1waCcsICc3LjAnLCAnLXRuJywgJzgnLCAnLW1hJywgJzIwMCcsICctbWV0YWxfYmluZGluZycsICctaW1hZScsICc8aW5maWxlLm1hZT4nLCAnLW9tYWUnLCAnPG91dGZpbGUubWFlPic=

> <r_lp_tautomer_probability>
1

> <r_epik_Ionization_Penalty>
0.000449586

> <r_epik_Ionization_Penalty_Charging>
0

> <r_epik_Ionization_Penalty_Neutral>
0.000449586

> <r_epik_State_Penalty>
0.000243372

> <r_epik_Charging_Adjusted_Penalty>
0.000243372

> <i_epik_Tot_Q>
0

> <i_epik_Tot_abs_Q>
0

> <r_epik_Metal_State_Penalty>
-0

> <b_epik_Metal_Only>
0

> <s_lp_Force_Field>
OPLS_2005

> <r_lp_Energy>
16.2745

> <b_lp_Chiralities_Consistent>
1

> <s_lp_Variant>
AV-unprocessed.smi:2718-2

> <Gold.Version>
5.8.1

> <Gold.Id.Protein>
6NUR|6NUR_protein|mol2

> <Gold.PLP.Fitness>
43.8914

> <Gold.PLP.PLP>
-40.4169

> <Gold.PLP.part.hbond>
-2.0000

> <Gold.PLP.part.metal>
0.0000

> <Gold.PLP.part.buried>
-5.4062

> <Gold.PLP.part.nonpolar>
-32.9662

> <Gold.PLP.part.repulsive>
0.1446

> <Gold.PLP.ligand.clash>
0.6457

> <Gold.PLP.ligand.torsion>
0.7895

> <Gold.PLP.Chemscore.Hbond>
1.7840

> <Gold.PLP.Chemscore.CHOScore>
0.0000

> <Gold.PLP.Chemscore.Metal>
0.0000

> <Gold.Chemscore.Hbonds>
donor molecule, donor type, donor heavy atom, donor atom, acceptor molecule, acceptor atom, score
      P1  H  6931  6943       L1    14  1.00
      P1  H  6934  6947       L1    14  0.14

> <Gold.PLP.Chemscore.Internal.Correction>
0.3473

> <Gold.Rescore>
     Score         DG    S(hbond)    S(metal)    S(lipo)     H(rot)  DE(clash)    DE(int)     intcor
     15.45     -16.33       1.55        0.00      91.16       1.95       0.01       0.87       ----

> <Gold.Chemscore.Fitness>
15.4524

> <Gold.Chemscore.DG>
-16.3338

> <Gold.Chemscore.ZeroCoef>
-5.4800

> <Gold.Chemscore.Hbond>
1.5534

> <Gold.Chemscore.Metal>
0.0000

> <Gold.Chemscore.Lipo>
91.1607

> <Gold.Chemscore.Internal_Hbond>
0.0000

> <Gold.Chemscore.DEClash>
0.0115

> <Gold.Chemscore.DEInternal>
0.8699

> <Gold.Chemscore.Rot>
1.9533

> <Gold.Chemscore.Internal.Correction>
   9.000000E+99

> <Gold.Chemscore.Hbonds>
donor molecule, donor type, donor heavy atom, donor atom, acceptor molecule, acceptor atom, score
      P1  H  6931  6943       L1    14  0.95
      P1  H  6934  6947       L1    14  0.14

> <Gold.Chemscore.Hbond.Weighted>
-5.1885

> <Gold.Chemscore.Metal.Weighted>
-0.0000

> <Gold.Chemscore.Lipo.Weighted>
-10.6658

> <Gold.Chemscore.Internal_Hbond.Weighted>
0.0000

> <Gold.Chemscore.DEClash.Weighted>
0.0115

> <Gold.Chemscore.DEInternal.Weighted>
0.8699

> <Gold.Chemscore.Rot.Weighted>
5.0005

> <Gold.Chemscore.Internal.Correction.Weighted>
   9.000000E+99

> <Gold.Protein.RotatedTorsions>
[ 6907 6896 6895 6894 ] final   81.01 input  -60.11 | X-H torsion
[ 7974 7965 7964 7962 ] final  -63.39 input  175.53 | X-H torsion
[ 8008 7997 7996 7995 ] final  173.11 input   59.86 | X-H torsion
[ 10167 10162 10161 10158 ] final   74.71 input  -65.29 | X-H torsion
[ 10718 10713 10712 10709 ] final  -46.83 input   66.30 | X-H torsion
[ 10763 10752 10751 10750 ] final  -58.96 input  -60.55 | X-H torsion
[ 11005 11000 10999 10996 ] final   49.21 input  -57.11 | X-H torsion

> <Gold.Protein.ActiveResidues>
 VAL166  LYS551  ARG553  GLY616  TRP617  ASP618  TYR619  PRO620  LYS621  CYS622 
 ASP623  PHE694  ASN695  SER759  ASP760  ASP761  ALA762  ILE779  LEU786  VAL792 
 PHE793  MET794  SER795  GLU796  ALA797  LYS798  CYS799  TRP800  GLU811  SER814 

> <Gold.Protein.RotatedAtoms>
  152.5254  134.3270  159.9168 H   0  0  0  0  0  0  0  0  0  0  0  0  # atno 6907 bound_to 6896
  151.3219  133.4030  159.2663 H   0  0  0  0  0  0  0  0  0  0  0  0  # atno 6908 bound_to 6896
  150.9952  134.9294  159.7980 H   0  0  0  0  0  0  0  0  0  0  0  0  # atno 6909 bound_to 6896
  145.7796  140.8769  143.0337 H   0  0  0  0  0  0  0  0  0  0  0  0  # atno 7974 bound_to 7965
  156.1108  140.1468  156.9341 H   0  0  0  0  0  0  0  0  0  0  0  0  # atno 8008 bound_to 7997
  154.4765  140.0893  156.7318 H   0  0  0  0  0  0  0  0  0  0  0  0  # atno 8009 bound_to 7997
  155.4600  140.3438  155.4314 H   0  0  0  0  0  0  0  0  0  0  0  0  # atno 8010 bound_to 7997
  140.0108  144.5615  150.7660 H   0  0  0  0  0  0  0  0  0  0  0  0  # atno 10167 bound_to 10162
  156.2144  130.4162  149.9073 H   0  0  0  0  0  0  0  0  0  0  0  0  # atno 10718 bound_to 10713
  154.2463  135.6334  153.5224 H   0  0  0  0  0  0  0  0  0  0  0  0  # atno 10763 bound_to 10752
  152.9920  135.5554  154.5856 H   0  0  0  0  0  0  0  0  0  0  0  0  # atno 10764 bound_to 10752
  154.5373  135.2892  155.1102 H   0  0  0  0  0  0  0  0  0  0  0  0  # atno 10765 bound_to 10752
  140.1123  134.4938  155.8667 H   0  0  0  0  0  0  0  0  0  0  0  0  # atno 11005 bound_to 11000
  144.6798  139.9970  143.7484 LP  0  0  0  0  0  0  0  0  0  0  0  0  # atno 17320 bound_to 7965
  146.0088  139.3152  143.0883 LP  0  0  0  0  0  0  0  0  0  0  0  0  # atno 17321 bound_to 7965
  140.7382  143.2775  151.3698 LP  0  0  0  0  0  0  0  0  0  0  0  0  # atno 17342 bound_to 10162
  139.6206  144.0914  152.2387 LP  0  0  0  0  0  0  0  0  0  0  0  0  # atno 17343 bound_to 10162
  156.6740  130.8832  151.3566 LP  0  0  0  0  0  0  0  0  0  0  0  0  # atno 17370 bound_to 10713
  157.7055  130.9380  150.0918 LP  0  0  0  0  0  0  0  0  0  0  0  0  # atno 17371 bound_to 10713
  141.2133  133.6731  156.6729 LP  0  0  0  0  0  0  0  0  0  0  0  0  # atno 17394 bound_to 11000
  140.3075  134.8114  157.4148 LP  0  0  0  0  0  0  0  0  0  0  0  0  # atno 17395 bound_to 11000

$$$$
