AV-unprocessed.smi:1667|AV-procd|sdf|6675|dock5
  -GOLD-   22720 7393D 1   1.00000     0.00000
 Structure written by MMmdl.
 45 47  0  0  0  0  0  0  0  0  1 V2000
  149.3093  138.5964  154.2006 C   0  0  0  0  0  0  0  0  0  0  0  0
  147.8625  138.2415  154.5267 C   0  0  0  0  0  0  0  0  0  0  0  0
  147.2672  138.8522  155.4135 O   0  0  0  0  0  0  0  0  0  0  0  0
  147.3112  137.2508  153.8097 N   0  0  0  0  0  0  0  0  0  0  0  0
  145.9586  136.7258  153.9887 C   0  0  1  0  0  0  0  0  0  0  0  0
  144.9097  137.8357  153.8203 C   0  0  0  0  0  0  0  0  0  0  0  0
  145.7544  135.6072  152.9978 C   0  0  0  0  0  0  0  0  0  0  0  0
  144.9519  135.7414  151.9376 N   0  0  0  0  0  0  0  0  0  0  0  0
  145.0115  134.4984  151.3433 C   0  0  0  0  0  0  0  0  0  0  0  0
  144.3769  134.0075  150.1798 C   0  0  0  0  0  0  0  0  0  0  0  0
  144.5809  132.6758  149.7633 C   0  0  0  0  0  0  0  0  0  0  0  0
  145.4183  131.8180  150.5047 C   0  0  0  0  0  0  0  0  0  0  0  0
  146.0595  132.2883  151.6666 C   0  0  0  0  0  0  0  0  0  0  0  0
  145.8582  133.6208  152.0757 C   0  0  0  0  0  0  0  0  0  0  0  0
  146.3310  134.3830  153.1419 N   0  0  0  0  0  0  0  0  0  0  0  0
  147.2380  133.9169  154.1887 C   0  0  0  0  0  0  0  0  0  0  0  0
  148.7358  133.9856  153.8051 C   0  0  1  0  0  0  0  0  0  0  0  0
  149.2937  135.2183  154.2154 O   0  0  0  0  0  0  0  0  0  0  0  0
  149.5411  132.7885  154.2953 C   0  0  0  0  0  0  0  0  0  0  0  0
  150.5918  132.9512  155.2268 C   0  0  0  0  0  0  0  0  0  0  0  0
  151.3296  131.8362  155.6688 C   0  0  0  0  0  0  0  0  0  0  0  0
  151.0234  130.5512  155.1823 C   0  0  0  0  0  0  0  0  0  0  0  0
  149.9745  130.3811  154.2587 C   0  0  0  0  0  0  0  0  0  0  0  0
  149.6745  129.1447  153.7960 F   0  0  0  0  0  0  0  0  0  0  0  0
  149.2357  131.4961  153.8172 C   0  0  0  0  0  0  0  0  0  0  0  0
  145.8911  136.3310  155.0006 H   0  0  0  0  0  0  0  0  0  0  0  0
  149.7839  137.8222  153.5965 H   0  0  0  0  0  0  0  0  0  0  0  0
  149.8849  138.7099  155.1196 H   0  0  0  0  0  0  0  0  0  0  0  0
  149.3512  139.5366  153.6507 H   0  0  0  0  0  0  0  0  0  0  0  0
  147.8744  136.8059  153.0991 H   0  0  0  0  0  0  0  0  0  0  0  0
  143.9023  137.4422  153.9584 H   0  0  0  0  0  0  0  0  0  0  0  0
  144.9589  138.2819  152.8266 H   0  0  0  0  0  0  0  0  0  0  0  0
  145.0537  138.6321  154.5510 H   0  0  0  0  0  0  0  0  0  0  0  0
  143.7300  134.6560  149.6078 H   0  0  0  0  0  0  0  0  0  0  0  0
  144.0910  132.3103  148.8726 H   0  0  0  0  0  0  0  0  0  0  0  0
  145.5687  130.7985  150.1809 H   0  0  0  0  0  0  0  0  0  0  0  0
  146.7017  131.6322  152.2349 H   0  0  0  0  0  0  0  0  0  0  0  0
  147.0518  134.4690  155.1091 H   0  0  0  0  0  0  0  0  0  0  0  0
  146.9735  132.8845  154.4208 H   0  0  0  0  0  0  0  0  0  0  0  0
  148.7947  133.9891  152.7160 H   0  0  0  0  0  0  0  0  0  0  0  0
  149.2035  135.8376  153.5073 H   0  0  0  0  0  0  0  0  0  0  0  0
  150.8318  133.9314  155.6124 H   0  0  0  0  0  0  0  0  0  0  0  0
  152.1288  131.9663  156.3834 H   0  0  0  0  0  0  0  0  0  0  0  0
  151.5872  129.6954  155.5233 H   0  0  0  0  0  0  0  0  0  0  0  0
  148.4318  131.3548  153.1097 H   0  0  0  0  0  0  0  0  0  0  0  0
  1  2  1  0  0  0  0
  1 27  1  0  0  0  0
  1 28  1  0  0  0  0
  1 29  1  0  0  0  0
  2  3  2  0  0  0  0
  2  4  1  0  0  0  0
  4  5  1  0  0  0  0
  4 30  1  0  0  0  0
  5 26  1  0  0  0  0
  5  6  1  0  0  0  0
  5  7  1  0  0  0  0
  6 31  1  0  0  0  0
  6 32  1  0  0  0  0
  6 33  1  0  0  0  0
  7 15  1  0  0  0  0
  7  8  2  0  0  0  0
  8  9  1  0  0  0  0
  9 14  2  0  0  0  0
  9 10  1  0  0  0  0
 10 11  2  0  0  0  0
 10 34  1  0  0  0  0
 11 12  1  0  0  0  0
 11 35  1  0  0  0  0
 12 13  2  0  0  0  0
 12 36  1  0  0  0  0
 13 14  1  0  0  0  0
 13 37  1  0  0  0  0
 14 15  1  0  0  0  0
 15 16  1  0  0  0  0
 16 17  1  0  0  0  0
 16 38  1  0  0  0  0
 16 39  1  0  0  0  0
 17 18  1  0  0  0  0
 17 19  1  0  0  0  0
 17 40  1  0  0  0  0
 18 41  1  0  0  0  0
 19 25  1  0  0  0  0
 19 20  2  0  0  0  0
 20 21  1  0  0  0  0
 20 42  1  0  0  0  0
 21 22  2  0  0  0  0
 21 43  1  0  0  0  0
 22 23  1  0  0  0  0
 22 44  1  0  0  0  0
 23 24  1  0  0  0  0
 23 25  2  0  0  0  0
 25 45  1  0  0  0  0
M  END
> <s_m_source_file>
AV-unprocessed.smi

> <i_m_source_file_index>
1667

> <i_lp_mmshare_version>
43012

> <i_f3d_flags>
0

> <s_epik_input>
W0NIM11DKD1PKVtOSF1bQ0BASF0oW0NIM10pYyhuMSluKGMoYzEyKVtjSF1bY0hdW2NIXVtjSF0yKVtDSDJdW0NASF0oW09IXSljM1tjSF1bY0hdW2NIXWMoRilbY0hdMw==

> <s_epik_cmdline>
J2VwaWtfcHl0aG9uJywgJy1waCcsICc3LjAnLCAnLXRuJywgJzgnLCAnLW1hJywgJzIwMCcsICctbWV0YWxfYmluZGluZycsICctaW1hZScsICc8aW5maWxlLm1hZT4nLCAnLW9tYWUnLCAnPG91dGZpbGUubWFlPic=

> <r_epik_Ionization_Penalty>
0.133011

> <r_epik_Ionization_Penalty_Charging>
0

> <r_epik_Ionization_Penalty_Neutral>
0.133011

> <r_epik_State_Penalty>
0.122384

> <r_epik_Charging_Adjusted_Penalty>
0.122384

> <i_epik_Tot_Q>
0

> <i_epik_Tot_abs_Q>
0

> <r_epik_Metal_State_Penalty>
0.0997374

> <b_epik_Metal_Only>
0

> <s_lp_Force_Field>
OPLS_2005

> <r_lp_Energy>
5.5788

> <b_lp_Chiralities_Consistent>
1

> <s_lp_Variant>
AV-unprocessed.smi:1667-3

> <Gold.Version>
5.8.1

> <Gold.Id.Protein>
6NUR|6NUR_protein|mol2

> <Gold.PLP.Fitness>
44.0877

> <Gold.PLP.PLP>
-40.4569

> <Gold.PLP.part.hbond>
-2.0000

> <Gold.PLP.part.metal>
0.0000

> <Gold.PLP.part.buried>
-4.7018

> <Gold.PLP.part.nonpolar>
-33.9428

> <Gold.PLP.part.repulsive>
0.1519

> <Gold.PLP.ligand.clash>
0.0000

> <Gold.PLP.ligand.torsion>
1.2379

> <Gold.PLP.Chemscore.Hbond>
2.0000

> <Gold.PLP.Chemscore.CHOScore>
0.0000

> <Gold.PLP.Chemscore.Metal>
0.0000

> <Gold.Chemscore.Hbonds>
donor molecule, donor type, donor heavy atom, donor atom, acceptor molecule, acceptor atom, score
      L1  H     4    30       P1  7948  1.00
      L1  H    18    41       P1  7948  1.00

> <Gold.PLP.Chemscore.Internal.Correction>
0.1067

> <Gold.Rescore>
     Score         DG    S(hbond)    S(metal)    S(lipo)     H(rot)  DE(clash)    DE(int)     intcor
     13.93     -16.46       1.82        0.00      96.10       2.48       0.03       2.50       ----

> <Gold.Chemscore.Fitness>
13.9258

> <Gold.Chemscore.DG>
-16.4600

> <Gold.Chemscore.ZeroCoef>
-5.4800

> <Gold.Chemscore.Hbond>
1.8187

> <Gold.Chemscore.Metal>
0.0000

> <Gold.Chemscore.Lipo>
96.1036

> <Gold.Chemscore.Internal_Hbond>
0.0000

> <Gold.Chemscore.DEClash>
0.0344

> <Gold.Chemscore.DEInternal>
2.4999

> <Gold.Chemscore.Rot>
2.4760

> <Gold.Chemscore.Internal.Correction>
   9.000000E+99

> <Gold.Chemscore.Hbonds>
donor molecule, donor type, donor heavy atom, donor atom, acceptor molecule, acceptor atom, score
      L1  H     4    30       P1  7948  1.00
      L1  H    18    41       P1  7948  0.67

> <Gold.Chemscore.Hbond.Weighted>
-6.0744

> <Gold.Chemscore.Metal.Weighted>
-0.0000

> <Gold.Chemscore.Lipo.Weighted>
-11.2441

> <Gold.Chemscore.Internal_Hbond.Weighted>
0.0000

> <Gold.Chemscore.DEClash.Weighted>
0.0344

> <Gold.Chemscore.DEInternal.Weighted>
2.4999

> <Gold.Chemscore.Rot.Weighted>
6.3385

> <Gold.Chemscore.Internal.Correction.Weighted>
   9.000000E+99

> <Gold.Protein.RotatedTorsions>
[ 6907 6896 6895 6894 ] final  130.16 input  -60.11 | X-H torsion
[ 7974 7965 7964 7962 ] final -120.86 input  175.53 | X-H torsion
[ 8008 7997 7996 7995 ] final  -11.80 input   59.86 | X-H torsion
[ 10167 10162 10161 10158 ] final   30.78 input  -65.29 | X-H torsion
[ 10718 10713 10712 10709 ] final  -99.58 input   66.30 | X-H torsion
[ 10763 10752 10751 10750 ] final  141.95 input  -60.55 | X-H torsion
[ 11005 11000 10999 10996 ] final -147.47 input  -57.11 | X-H torsion

> <Gold.Protein.ActiveResidues>
 VAL166  LYS551  ARG553  GLY616  TRP617  ASP618  TYR619  PRO620  LYS621  CYS622 
 ASP623  PHE694  ASN695  SER759  ASP760  ASP761  ALA762  ILE779  LEU786  VAL792 
 PHE793  MET794  SER795  GLU796  ALA797  LYS798  CYS799  TRP800  GLU811  SER814 

> <Gold.Protein.RotatedAtoms>
  152.3553  133.6230  159.5974 H   0  0  0  0  0  0  0  0  0  0  0  0  # atno 6907 bound_to 6896
  150.7565  133.9509  159.3494 H   0  0  0  0  0  0  0  0  0  0  0  0  # atno 6908 bound_to 6896
  151.7355  135.0866  160.0358 H   0  0  0  0  0  0  0  0  0  0  0  0  # atno 6909 bound_to 6896
  145.0467  140.8187  143.4234 H   0  0  0  0  0  0  0  0  0  0  0  0  # atno 7974 bound_to 7965
  154.5433  140.2293  155.8605 H   0  0  0  0  0  0  0  0  0  0  0  0  # atno 8008 bound_to 7997
  156.1879  140.3084  155.9236 H   0  0  0  0  0  0  0  0  0  0  0  0  # atno 8009 bound_to 7997
  155.3215  140.0440  157.3030 H   0  0  0  0  0  0  0  0  0  0  0  0  # atno 8010 bound_to 7997
  140.4647  144.0853  150.6221 H   0  0  0  0  0  0  0  0  0  0  0  0  # atno 10167 bound_to 10162
  156.0138  130.5289  150.6692 H   0  0  0  0  0  0  0  0  0  0  0  0  # atno 10718 bound_to 10713
  153.9477  135.2973  155.3440 H   0  0  0  0  0  0  0  0  0  0  0  0  # atno 10763 bound_to 10752
  154.7443  135.5010  153.9180 H   0  0  0  0  0  0  0  0  0  0  0  0  # atno 10764 bound_to 10752
  153.1010  135.6734  153.9781 H   0  0  0  0  0  0  0  0  0  0  0  0  # atno 10765 bound_to 10752
  140.7713  134.3186  157.5074 H   0  0  0  0  0  0  0  0  0  0  0  0  # atno 11005 bound_to 11000
  145.1579  139.2476  143.5407 LP  0  0  0  0  0  0  0  0  0  0  0  0  # atno 17320 bound_to 7965
  146.3514  140.1299  142.8597 LP  0  0  0  0  0  0  0  0  0  0  0  0  # atno 17321 bound_to 7965
  140.4050  143.2685  151.9901 LP  0  0  0  0  0  0  0  0  0  0  0  0  # atno 17342 bound_to 10162
  139.4810  144.5965  151.7682 LP  0  0  0  0  0  0  0  0  0  0  0  0  # atno 17343 bound_to 10162
  157.4418  131.0862  151.0936 LP  0  0  0  0  0  0  0  0  0  0  0  0  # atno 17370 bound_to 10713
  157.1478  130.6171  149.5573 LP  0  0  0  0  0  0  0  0  0  0  0  0  # atno 17371 bound_to 10713
  139.8755  134.9262  156.3395 LP  0  0  0  0  0  0  0  0  0  0  0  0  # atno 17394 bound_to 11000
  140.9571  133.7413  156.0350 LP  0  0  0  0  0  0  0  0  0  0  0  0  # atno 17395 bound_to 11000

$$$$
