AV-unprocessed.smi:297|AV-procd|sdf|2259|dock8
  -GOLD-   2262022143D 1   1.00000     0.00000
 Structure written by MMmdl.
 29 30  0  0  0  0  0  0  0  0  1 V2000
  150.9953  135.6331  154.9027 N   0  0  0  0  0  0  0  0  0  0  0  0
  150.4194  134.6741  154.6056 C   0  0  0  0  0  0  0  0  0  0  0  0
  149.6959  133.4685  154.2317 C   0  0  0  0  0  0  0  0  0  0  0  0
  148.6521  133.6275  153.3879 N   0  0  0  0  0  0  0  0  0  0  0  0
  147.9471  132.5368  153.0045 C   0  0  0  0  0  0  0  0  0  0  0  0
  146.8706  132.7148  152.1244 N   0  0  0  0  0  0  0  0  0  0  0  0
  145.7294  131.8584  152.4191 C   0  0  0  0  0  0  0  0  0  0  0  0
  144.6529  132.0316  151.3359 C   0  0  0  0  0  0  0  0  0  0  0  0
  144.2860  133.4049  151.2461 O   0  0  0  0  0  0  0  0  0  0  0  0
  145.3852  134.2434  150.8834 C   0  0  1  0  0  0  0  0  0  0  0  0
  144.8860  135.6886  150.7375 C   0  0  0  0  0  0  0  0  0  0  0  0
  145.0668  136.2853  149.5557 N   0  0  0  0  0  0  0  0  0  0  0  0
  144.3577  136.2721  151.6825 O   0  0  0  0  0  0  0  0  0  0  0  0
  146.4927  134.1127  151.9537 C   0  0  0  0  0  0  0  0  0  0  0  0
  148.2585  131.2375  153.4524 C   0  0  0  0  0  0  0  0  0  0  0  0
  149.3434  131.0701  154.3327 C   0  0  0  0  0  0  0  0  0  0  0  0
  150.0807  132.2009  154.7343 C   0  0  0  0  0  0  0  0  0  0  0  0
  151.4173  132.0014  155.8159 Cl  0  0  0  0  0  0  0  0  0  0  0  0
  146.0510  130.8172  152.4654 H   0  0  0  0  0  0  0  0  0  0  0  0
  145.3155  132.1138  153.3958 H   0  0  0  0  0  0  0  0  0  0  0  0
  145.0109  131.6748  150.3688 H   0  0  0  0  0  0  0  0  0  0  0  0
  143.7701  131.4436  151.5863 H   0  0  0  0  0  0  0  0  0  0  0  0
  145.7699  133.9284  149.9118 H   0  0  0  0  0  0  0  0  0  0  0  0
  144.7570  137.2372  149.4226 H   0  0  0  0  0  0  0  0  0  0  0  0
  145.5167  135.7844  148.8035 H   0  0  0  0  0  0  0  0  0  0  0  0
  146.1441  134.5175  152.9054 H   0  0  0  0  0  0  0  0  0  0  0  0
  147.3722  134.6884  151.6608 H   0  0  0  0  0  0  0  0  0  0  0  0
  147.6793  130.3849  153.1289 H   0  0  0  0  0  0  0  0  0  0  0  0
  149.6059  130.0866  154.6938 H   0  0  0  0  0  0  0  0  0  0  0  0
  1  2  3  0  0  0  0
  2  3  1  0  0  0  0
  3 17  1  0  0  0  0
  3  4  2  0  0  0  0
  4  5  1  0  0  0  0
  5  6  1  0  0  0  0
  5 15  2  0  0  0  0
  6 14  1  0  0  0  0
  6  7  1  0  0  0  0
  7  8  1  0  0  0  0
  7 19  1  0  0  0  0
  7 20  1  0  0  0  0
  8  9  1  0  0  0  0
  8 21  1  0  0  0  0
  8 22  1  0  0  0  0
  9 10  1  0  0  0  0
 10 11  1  0  0  0  0
 10 14  1  0  0  0  0
 10 23  1  0  0  0  0
 11 12  1  0  0  0  0
 11 13  2  0  0  0  0
 12 24  1  0  0  0  0
 12 25  1  0  0  0  0
 14 26  1  0  0  0  0
 14 27  1  0  0  0  0
 15 16  1  0  0  0  0
 15 28  1  0  0  0  0
 16 17  2  0  0  0  0
 16 29  1  0  0  0  0
 17 18  1  0  0  0  0
M  END
> <s_m_source_file>
AV-unprocessed.smi

> <i_m_source_file_index>
297

> <i_lp_mmshare_version>
43012

> <i_f3d_flags>
0

> <s_epik_input>
TiNDYzFuYyhbY0hdW2NIXWMxQ2wpTjJbQ0gyXVtDSDJdT1tDQEhdKFtDSDJdMilDKD1PKVtOSDJd

> <s_epik_cmdline>
J2VwaWtfcHl0aG9uJywgJy1waCcsICc3LjAnLCAnLXRuJywgJzgnLCAnLW1hJywgJzIwMCcsICctbWV0YWxfYmluZGluZycsICctaW1hZScsICc8aW5maWxlLm1hZT4nLCAnLW9tYWUnLCAnPG91dGZpbGUubWFlPic=

> <r_lp_tautomer_probability>
1

> <r_epik_Ionization_Penalty>
8.82403e-08

> <r_epik_Ionization_Penalty_Charging>
0

> <r_epik_Ionization_Penalty_Neutral>
8.82403e-08

> <r_epik_State_Penalty>
-0

> <r_epik_Charging_Adjusted_Penalty>
0

> <i_epik_Tot_Q>
0

> <i_epik_Tot_abs_Q>
0

> <r_epik_Metal_State_Penalty>
-0

> <b_epik_Metal_Only>
0

> <s_lp_Force_Field>
OPLS_2005

> <r_lp_Energy>
18.8034

> <b_lp_Chiralities_Consistent>
1

> <s_lp_Variant>
AV-unprocessed.smi:297-1

> <Gold.Version>
5.8.1

> <Gold.Id.Protein>
6NUR|6NUR_protein|mol2

> <Gold.PLP.Fitness>
39.6100

> <Gold.PLP.PLP>
-31.3781

> <Gold.PLP.part.hbond>
-3.0000

> <Gold.PLP.part.metal>
0.0000

> <Gold.PLP.part.buried>
-5.8613

> <Gold.PLP.part.nonpolar>
-22.9111

> <Gold.PLP.part.repulsive>
1.6980

> <Gold.PLP.ligand.clash>
0.0000

> <Gold.PLP.ligand.torsion>
0.4358

> <Gold.PLP.Chemscore.Hbond>
3.0000

> <Gold.PLP.Chemscore.CHOScore>
0.0000

> <Gold.PLP.Chemscore.Metal>
0.0000

> <Gold.Chemscore.Hbonds>
donor molecule, donor type, donor heavy atom, donor atom, acceptor molecule, acceptor atom, score
      L1  H    12    24       P1 10171  1.00
      L1  H    12    25       P1  7921  1.00
      P1  H 10752 10764       L1     1  1.00

> <Gold.PLP.Chemscore.Internal.Correction>
0.1034

> <Gold.Rescore>
     Score         DG    S(hbond)    S(metal)    S(lipo)     H(rot)  DE(clash)    DE(int)     intcor
     16.61     -17.32       2.92        0.00      50.55       1.50       0.15       0.56       ----

> <Gold.Chemscore.Fitness>
16.6104

> <Gold.Chemscore.DG>
-17.3218

> <Gold.Chemscore.ZeroCoef>
-5.4800

> <Gold.Chemscore.Hbond>
2.9250

> <Gold.Chemscore.Metal>
0.0000

> <Gold.Chemscore.Lipo>
50.5463

> <Gold.Chemscore.Internal_Hbond>
0.0000

> <Gold.Chemscore.DEClash>
0.1529

> <Gold.Chemscore.DEInternal>
0.5584

> <Gold.Chemscore.Rot>
1.5006

> <Gold.Chemscore.Internal.Correction>
   9.000000E+99

> <Gold.Chemscore.Hbonds>
donor molecule, donor type, donor heavy atom, donor atom, acceptor molecule, acceptor atom, score
      L1  H    12    24       P1 10171  0.97
      L1  H    12    25       P1  7921  0.99
      P1  H 10752 10764       L1     1  0.86

> <Gold.Chemscore.Hbond.Weighted>
-9.7695

> <Gold.Chemscore.Metal.Weighted>
-0.0000

> <Gold.Chemscore.Lipo.Weighted>
-5.9139

> <Gold.Chemscore.Internal_Hbond.Weighted>
0.0000

> <Gold.Chemscore.DEClash.Weighted>
0.1529

> <Gold.Chemscore.DEInternal.Weighted>
0.5584

> <Gold.Chemscore.Rot.Weighted>
3.8416

> <Gold.Chemscore.Internal.Correction.Weighted>
   9.000000E+99

> <Gold.Protein.RotatedTorsions>
[ 6907 6896 6895 6894 ] final -145.25 input  -60.11 | X-H torsion
[ 7974 7965 7964 7962 ] final   16.80 input  175.53 | X-H torsion
[ 8008 7997 7996 7995 ] final  -56.46 input   59.86 | X-H torsion
[ 10167 10162 10161 10158 ] final -171.39 input  -65.29 | X-H torsion
[ 10718 10713 10712 10709 ] final -162.95 input   66.30 | X-H torsion
[ 10763 10752 10751 10750 ] final  -46.52 input  -60.55 | X-H torsion
[ 11005 11000 10999 10996 ] final -169.14 input  -57.11 | X-H torsion

> <Gold.Protein.ActiveResidues>
 VAL166  LYS551  ARG553  GLY616  TRP617  ASP618  TYR619  PRO620  LYS621  CYS622 
 ASP623  PHE694  ASN695  SER759  ASP760  ASP761  ALA762  ILE779  LEU786  VAL792 
 PHE793  MET794  SER795  GLU796  ALA797  LYS798  CYS799  TRP800  GLU811  SER814 

> <Gold.Protein.RotatedAtoms>
  151.1252  133.5075  159.2600 H   0  0  0  0  0  0  0  0  0  0  0  0  # atno 6907 bound_to 6896
  151.1817  135.0363  159.8805 H   0  0  0  0  0  0  0  0  0  0  0  0  # atno 6908 bound_to 6896
  152.5457  134.1103  159.8409 H   0  0  0  0  0  0  0  0  0  0  0  0  # atno 6909 bound_to 6896
  146.2238  139.8696  142.8590 H   0  0  0  0  0  0  0  0  0  0  0  0  # atno 7974 bound_to 7965
  154.4231  140.1129  156.5640 H   0  0  0  0  0  0  0  0  0  0  0  0  # atno 8008 bound_to 7997
  155.6281  140.3495  155.4655 H   0  0  0  0  0  0  0  0  0  0  0  0  # atno 8009 bound_to 7997
  155.9970  140.1191  157.0574 H   0  0  0  0  0  0  0  0  0  0  0  0  # atno 8010 bound_to 7997
  139.5805  144.1434  152.1509 H   0  0  0  0  0  0  0  0  0  0  0  0  # atno 10167 bound_to 10162
  156.6177  130.8877  151.2951 H   0  0  0  0  0  0  0  0  0  0  0  0  # atno 10718 bound_to 10713
  154.0464  135.6637  153.4795 H   0  0  0  0  0  0  0  0  0  0  0  0  # atno 10763 bound_to 10752
  153.0481  135.5102  154.7793 H   0  0  0  0  0  0  0  0  0  0  0  0  # atno 10764 bound_to 10752
  154.6785  135.3041  154.9611 H   0  0  0  0  0  0  0  0  0  0  0  0  # atno 10765 bound_to 10752
  140.5340  134.5588  157.5082 H   0  0  0  0  0  0  0  0  0  0  0  0  # atno 11005 bound_to 11000
  145.2622  141.0081  143.3820 LP  0  0  0  0  0  0  0  0  0  0  0  0  # atno 17320 bound_to 7965
  144.9289  139.4321  143.6504 LP  0  0  0  0  0  0  0  0  0  0  0  0  # atno 17321 bound_to 7965
  140.0986  144.5559  150.7005 LP  0  0  0  0  0  0  0  0  0  0  0  0  # atno 17342 bound_to 10162
  140.7084  143.2485  151.4657 LP  0  0  0  0  0  0  0  0  0  0  0  0  # atno 17343 bound_to 10162
  157.7236  130.9592  150.1542 LP  0  0  0  0  0  0  0  0  0  0  0  0  # atno 17370 bound_to 10713
  156.2337  130.3684  149.8415 LP  0  0  0  0  0  0  0  0  0  0  0  0  # atno 17371 bound_to 10713
  139.9539  134.7569  156.0386 LP  0  0  0  0  0  0  0  0  0  0  0  0  # atno 17394 bound_to 11000
  141.1265  133.6598  156.3350 LP  0  0  0  0  0  0  0  0  0  0  0  0  # atno 17395 bound_to 11000

$$$$
