AV-unprocessed.smi:284|AV-procd|sdf|2164|dock1
  -GOLD-   2262021523D 1   1.00000     0.00000
 Structure written by MMmdl.
 60 62  0  0  0  0  0  0  0  0  1 V2000
  147.4367  140.2066  153.6616 C   0  0  0  0  0  0  0  0  0  0  0  0
  148.2908  139.0496  154.1558 C   0  0  0  0  0  0  0  0  0  0  0  0
  147.7737  137.8205  154.3856 C   0  0  0  0  0  0  0  0  0  0  0  0
  148.5239  136.7478  154.8336 N   0  0  0  0  0  0  0  0  0  0  0  0
  147.9134  135.3858  155.0888 C   0  0  1  0  0  0  0  0  0  0  0  0
  146.3827  135.4499  154.9707 C   0  0  0  0  0  0  0  0  0  0  0  0
  146.0577  134.2283  154.1324 C   0  0  2  0  0  0  0  0  0  0  0  0
  145.8461  133.0979  154.9579 O   0  0  0  0  0  0  0  0  0  0  0  0
  147.3156  134.0895  153.2671 C   0  0  2  0  0  0  0  0  0  0  0  0
  147.5783  132.7134  152.6309 C   0  0  0  0  0  0  0  0  0  0  0  0
  148.6808  132.7852  151.7522 O   0  0  0  0  0  0  0  0  0  0  0  0
  148.3756  134.4676  154.1399 O   0  0  0  0  0  0  0  0  0  0  0  0
  149.8995  136.9179  155.0874 C   0  0  0  0  0  0  0  0  0  0  0  0
  150.5850  135.9783  155.4978 O   0  0  0  0  0  0  0  0  0  0  0  0
  150.4702  138.1902  154.8605 N   0  0  0  0  0  0  0  0  0  0  0  0
  151.9202  138.3632  155.1008 C   0  0  0  0  0  0  0  0  0  0  0  0
  152.2343  139.1382  156.3902 C   0  0  0  0  0  0  0  0  0  0  0  0
  153.0877  138.7195  157.1728 O   0  0  0  0  0  0  0  0  0  0  0  0
  151.5450  140.2830  156.5487 N   0  0  0  0  0  0  0  0  0  0  0  0
  151.5779  141.2145  157.6233 C   0  0  0  0  0  0  0  0  0  0  0  0
  150.9344  142.4505  157.4186 C   0  0  0  0  0  0  0  0  0  0  0  0
  150.9006  143.4234  158.4358 C   0  0  0  0  0  0  0  0  0  0  0  0
  151.5064  143.1803  159.6928 C   0  0  0  0  0  0  0  0  0  0  0  0
  151.4891  144.2169  160.8328 C   0  0  0  0  0  0  0  0  0  0  0  0
  152.3361  143.7029  162.0162 C   0  0  0  0  0  0  0  0  0  0  0  0
  150.0671  144.5035  161.3663 C   0  0  0  0  0  0  0  0  0  0  0  0
  152.0773  145.5506  160.3271 C   0  0  0  0  0  0  0  0  0  0  0  0
  152.1429  141.9330  159.8938 C   0  0  0  0  0  0  0  0  0  0  0  0
  152.1763  140.9579  158.8788 C   0  0  0  0  0  0  0  0  0  0  0  0
  149.7172  139.2919  154.3855 C   0  0  0  0  0  0  0  0  0  0  0  0
  150.2575  140.3803  154.1804 O   0  0  0  0  0  0  0  0  0  0  0  0
  146.3935  139.9164  153.5334 H   0  0  0  0  0  0  0  0  0  0  0  0
  147.8028  140.5660  152.6994 H   0  0  0  0  0  0  0  0  0  0  0  0
  147.4675  141.0335  154.3719 H   0  0  0  0  0  0  0  0  0  0  0  0
  146.7184  137.6858  154.2052 H   0  0  0  0  0  0  0  0  0  0  0  0
  148.2682  135.0679  156.0706 H   0  0  0  0  0  0  0  0  0  0  0  0
  145.9078  135.4626  155.9525 H   0  0  0  0  0  0  0  0  0  0  0  0
  146.0951  136.3543  154.4319 H   0  0  0  0  0  0  0  0  0  0  0  0
  145.1655  134.3805  153.5243 H   0  0  0  0  0  0  0  0  0  0  0  0
  146.4351  132.4112  154.6851 H   0  0  0  0  0  0  0  0  0  0  0  0
  147.2704  134.8393  152.4756 H   0  0  0  0  0  0  0  0  0  0  0  0
  147.8114  131.9853  153.4083 H   0  0  0  0  0  0  0  0  0  0  0  0
  146.7037  132.3391  152.0991 H   0  0  0  0  0  0  0  0  0  0  0  0
  148.5848  132.1143  151.0936 H   0  0  0  0  0  0  0  0  0  0  0  0
  152.4350  137.4026  155.1478 H   0  0  0  0  0  0  0  0  0  0  0  0
  152.3894  138.8693  154.2550 H   0  0  0  0  0  0  0  0  0  0  0  0
  150.9414  140.5373  155.7804 H   0  0  0  0  0  0  0  0  0  0  0  0
  150.4607  142.6621  156.4709 H   0  0  0  0  0  0  0  0  0  0  0  0
  150.3967  144.3523  158.2201 H   0  0  0  0  0  0  0  0  0  0  0  0
  152.3235  144.4075  162.8486 H   0  0  0  0  0  0  0  0  0  0  0  0
  153.3805  143.5544  161.7420 H   0  0  0  0  0  0  0  0  0  0  0  0
  151.9562  142.7508  162.3885 H   0  0  0  0  0  0  0  0  0  0  0  0
  149.5980  143.6042  161.7675 H   0  0  0  0  0  0  0  0  0  0  0  0
  149.4176  144.9074  160.5887 H   0  0  0  0  0  0  0  0  0  0  0  0
  150.0887  145.2370  162.1732 H   0  0  0  0  0  0  0  0  0  0  0  0
  152.0612  146.3127  161.1071 H   0  0  0  0  0  0  0  0  0  0  0  0
  151.5075  145.9368  159.4811 H   0  0  0  0  0  0  0  0  0  0  0  0
  153.1133  145.4462  160.0043 H   0  0  0  0  0  0  0  0  0  0  0  0
  152.6117  141.7069  160.8396 H   0  0  0  0  0  0  0  0  0  0  0  0
  152.6566  140.0176  159.0982 H   0  0  0  0  0  0  0  0  0  0  0  0
  1  2  1  0  0  0  0
  1 32  1  0  0  0  0
  1 33  1  0  0  0  0
  1 34  1  0  0  0  0
  2 30  1  0  0  0  0
  2  3  2  0  0  0  0
  3  4  1  0  0  0  0
  3 35  1  0  0  0  0
  4  5  1  0  0  0  0
  4 13  1  0  0  0  0
  5 12  1  0  0  0  0
  5  6  1  0  0  0  0
  5 36  1  0  0  0  0
  6  7  1  0  0  0  0
  6 37  1  0  0  0  0
  6 38  1  0  0  0  0
  7  8  1  0  0  0  0
  7  9  1  0  0  0  0
  7 39  1  0  0  0  0
  8 40  1  0  0  0  0
  9 10  1  0  0  0  0
  9 12  1  0  0  0  0
  9 41  1  0  0  0  0
 10 11  1  0  0  0  0
 10 42  1  0  0  0  0
 10 43  1  0  0  0  0
 11 44  1  0  0  0  0
 13 14  2  0  0  0  0
 13 15  1  0  0  0  0
 15 16  1  0  0  0  0
 15 30  1  0  0  0  0
 16 17  1  0  0  0  0
 16 45  1  0  0  0  0
 16 46  1  0  0  0  0
 17 18  2  0  0  0  0
 17 19  1  0  0  0  0
 19 20  1  0  0  0  0
 19 47  1  0  0  0  0
 20 29  1  0  0  0  0
 20 21  2  0  0  0  0
 21 22  1  0  0  0  0
 21 48  1  0  0  0  0
 22 23  2  0  0  0  0
 22 49  1  0  0  0  0
 23 24  1  0  0  0  0
 23 28  1  0  0  0  0
 24 25  1  0  0  0  0
 24 26  1  0  0  0  0
 24 27  1  0  0  0  0
 25 50  1  0  0  0  0
 25 51  1  0  0  0  0
 25 52  1  0  0  0  0
 26 53  1  0  0  0  0
 26 54  1  0  0  0  0
 26 55  1  0  0  0  0
 27 56  1  0  0  0  0
 27 57  1  0  0  0  0
 27 58  1  0  0  0  0
 28 29  2  0  0  0  0
 28 59  1  0  0  0  0
 29 60  1  0  0  0  0
 30 31  2  0  0  0  0
M  END
> <s_m_source_file>
AV-unprocessed.smi

> <i_m_source_file_index>
284

> <i_lp_mmshare_version>
43012

> <i_f3d_flags>
0

> <s_epik_input>
W09IXVtDSDJdW0NAQEhdKE8xKVtDQEhdKFtPSF0pW0NIMl1bQ0BIXTFuKFtjSF1jMltDSDNdKWMoPU8pbihjMj1PKVtDSDJdQyg9TylbTkhdYzNbY0hdW2NIXWMoQyhbQ0gzXSkoW0NIM10pW0NIM10pW2NIXVtjSF0z

> <s_epik_cmdline>
J2VwaWtfcHl0aG9uJywgJy1waCcsICc3LjAnLCAnLXRuJywgJzgnLCAnLW1hJywgJzIwMCcsICctbWV0YWxfYmluZGluZycsICctaW1hZScsICc8aW5maWxlLm1hZT4nLCAnLW9tYWUnLCAnPG91dGZpbGUubWFlPic=

> <r_lp_tautomer_probability>
1

> <r_epik_Ionization_Penalty>
4.92358e-06

> <r_epik_Ionization_Penalty_Charging>
1.29777e-07

> <r_epik_Ionization_Penalty_Neutral>
4.79381e-06

> <r_epik_State_Penalty>
-0

> <r_epik_Charging_Adjusted_Penalty>
1.29777e-07

> <i_epik_Tot_Q>
0

> <i_epik_Tot_abs_Q>
0

> <r_epik_Metal_State_Penalty>
-0

> <b_epik_Metal_Only>
0

> <s_epik_Chemistry_Notes>
This compound contains an acetal/aminal-like group ( X-CH(R)-Y where X, Y are N, S, or O) that may be acid/base labile, releasing an aldehyde.

> <s_lp_Force_Field>
OPLS_2005

> <r_lp_Energy>
40.7373

> <b_lp_Chiralities_Consistent>
1

> <s_lp_Variant>
AV-unprocessed.smi:284-8

> <Gold.Version>
5.8.1

> <Gold.Id.Protein>
6NUR|6NUR_protein|mol2

> <Gold.PLP.Fitness>
53.5036

> <Gold.PLP.PLP>
-45.8259

> <Gold.PLP.part.hbond>
-2.8795

> <Gold.PLP.part.metal>
0.0000

> <Gold.PLP.part.buried>
-4.5453

> <Gold.PLP.part.nonpolar>
-37.9840

> <Gold.PLP.part.repulsive>
1.1900

> <Gold.PLP.ligand.clash>
0.0000

> <Gold.PLP.ligand.torsion>
0.6180

> <Gold.PLP.Chemscore.Hbond>
2.8560

> <Gold.PLP.Chemscore.CHOScore>
0.0000

> <Gold.PLP.Chemscore.Metal>
0.0000

> <Gold.Chemscore.Hbonds>
donor molecule, donor type, donor heavy atom, donor atom, acceptor molecule, acceptor atom, score
      L1  H    11    44       P1 10747  1.00
      P1  H  7989  7998       L1    31  0.91
      P1  H  7997  8010       L1    18  0.93

> <Gold.PLP.Chemscore.Internal.Correction>
0.3457

> <Gold.Rescore>
     Score         DG    S(hbond)    S(metal)    S(lipo)     H(rot)  DE(clash)    DE(int)     intcor
     12.95     -20.22       2.53        0.00     125.34       3.27       2.00       5.27       ----

> <Gold.Chemscore.Fitness>
12.9532

> <Gold.Chemscore.DG>
-20.2204

> <Gold.Chemscore.ZeroCoef>
-5.4800

> <Gold.Chemscore.Hbond>
2.5315

> <Gold.Chemscore.Metal>
0.0000

> <Gold.Chemscore.Lipo>
125.3446

> <Gold.Chemscore.Internal_Hbond>
0.0000

> <Gold.Chemscore.DEClash>
1.9982

> <Gold.Chemscore.DEInternal>
5.2690

> <Gold.Chemscore.Rot>
3.2735

> <Gold.Chemscore.Internal.Correction>
   9.000000E+99

> <Gold.Chemscore.Hbonds>
donor molecule, donor type, donor heavy atom, donor atom, acceptor molecule, acceptor atom, score
      L1  H    11    44       P1 10747  0.92
      P1  H  7989  7998       L1    31  0.88
      P1  H  7997  8010       L1    18  0.47

> <Gold.Chemscore.Hbond.Weighted>
-8.4551

> <Gold.Chemscore.Metal.Weighted>
-0.0000

> <Gold.Chemscore.Lipo.Weighted>
-14.6653

> <Gold.Chemscore.Internal_Hbond.Weighted>
0.0000

> <Gold.Chemscore.DEClash.Weighted>
1.9982

> <Gold.Chemscore.DEInternal.Weighted>
5.2690

> <Gold.Chemscore.Rot.Weighted>
8.3801

> <Gold.Chemscore.Internal.Correction.Weighted>
   9.000000E+99

> <Gold.Protein.RotatedTorsions>
[ 6907 6896 6895 6894 ] final  -47.38 input  -60.11 | X-H torsion
[ 7974 7965 7964 7962 ] final  -54.18 input  175.53 | X-H torsion
[ 8008 7997 7996 7995 ] final   30.90 input   59.86 | X-H torsion
[ 10167 10162 10161 10158 ] final  154.84 input  -65.29 | X-H torsion
[ 10718 10713 10712 10709 ] final   68.34 input   66.30 | X-H torsion
[ 10763 10752 10751 10750 ] final -161.91 input  -60.55 | X-H torsion
[ 11005 11000 10999 10996 ] final -126.29 input  -57.11 | X-H torsion

> <Gold.Protein.ActiveResidues>
 VAL166  LYS551  ARG553  GLY616  TRP617  ASP618  TYR619  PRO620  LYS621  CYS622 
 ASP623  PHE694  ASN695  SER759  ASP760  ASP761  ALA762  ILE779  LEU786  VAL792 
 PHE793  MET794  SER795  GLU796  ALA797  LYS798  CYS799  TRP800  GLU811  SER814 

> <Gold.Protein.RotatedAtoms>
  150.9014  134.8426  159.7362 H   0  0  0  0  0  0  0  0  0  0  0  0  # atno 6907 bound_to 6896
  152.4894  134.4497  159.9580 H   0  0  0  0  0  0  0  0  0  0  0  0  # atno 6908 bound_to 6896
  151.4548  133.3569  159.2836 H   0  0  0  0  0  0  0  0  0  0  0  0  # atno 6909 bound_to 6896
  145.8885  140.8089  142.9803 H   0  0  0  0  0  0  0  0  0  0  0  0  # atno 7974 bound_to 7965
  155.0979  140.3226  155.4555 H   0  0  0  0  0  0  0  0  0  0  0  0  # atno 8008 bound_to 7997
  156.2725  140.2066  156.6052 H   0  0  0  0  0  0  0  0  0  0  0  0  # atno 8009 bound_to 7997
  154.6852  140.0522  157.0294 H   0  0  0  0  0  0  0  0  0  0  0  0  # atno 8010 bound_to 7997
  139.4822  144.5151  151.7964 H   0  0  0  0  0  0  0  0  0  0  0  0  # atno 10167 bound_to 10162
  157.6284  130.9368  150.0365 H   0  0  0  0  0  0  0  0  0  0  0  0  # atno 10718 bound_to 10713
  154.7261  135.3036  154.8968 H   0  0  0  0  0  0  0  0  0  0  0  0  # atno 10763 bound_to 10752
  153.9825  135.6728  153.4754 H   0  0  0  0  0  0  0  0  0  0  0  0  # atno 10764 bound_to 10752
  153.0877  135.4976  154.8547 H   0  0  0  0  0  0  0  0  0  0  0  0  # atno 10765 bound_to 10752
  140.9693  134.0828  157.3886 H   0  0  0  0  0  0  0  0  0  0  0  0  # atno 11005 bound_to 11000
  144.6729  140.1493  143.7431 LP  0  0  0  0  0  0  0  0  0  0  0  0  # atno 17320 bound_to 7965
  145.8937  139.2390  143.1534 LP  0  0  0  0  0  0  0  0  0  0  0  0  # atno 17321 bound_to 7965
  140.4658  144.1657  150.5911 LP  0  0  0  0  0  0  0  0  0  0  0  0  # atno 17342 bound_to 10162
  140.4435  143.2516  151.9442 LP  0  0  0  0  0  0  0  0  0  0  0  0  # atno 17343 bound_to 10162
  156.1470  130.3642  149.9495 LP  0  0  0  0  0  0  0  0  0  0  0  0  # atno 17370 bound_to 10713
  156.7523  130.9120  151.3638 LP  0  0  0  0  0  0  0  0  0  0  0  0  # atno 17371 bound_to 10713
  139.8906  135.0113  156.6746 LP  0  0  0  0  0  0  0  0  0  0  0  0  # atno 17394 bound_to 11000
  140.7352  133.9024  155.8239 LP  0  0  0  0  0  0  0  0  0  0  0  0  # atno 17395 bound_to 11000

$$$$
