AV-unprocessed.smi:966|AV-procd|sdf|4283|dock2
  -GOLD-   22720 2193D 1   1.00000     0.00000
 Structure written by MMmdl.
 30 31  0  0  0  0  0  0  0  0  2 V2000
  150.3987  143.3747  158.4702 C   0  0  0  0  0  0  0  0  0  0  0  0
  150.8822  142.1574  157.7031 C   0  0  0  0  0  0  0  0  0  0  0  0
  150.3194  141.8668  156.4038 C   0  0  0  0  0  0  0  0  0  0  0  0
  150.7606  140.7494  155.7218 C   0  0  0  0  0  0  0  0  0  0  0  0
  150.4232  140.3259  154.5912 O   0  5  0  0  0  0  0  0  0  0  0  0
  151.7561  139.8868  156.2920 N   0  0  0  0  0  0  0  0  0  0  0  0
  152.2324  138.6642  155.5808 C   0  0  0  0  0  0  0  0  0  0  0  0
  151.0726  137.7083  155.2358 C   0  0  2  0  0  0  0  0  0  0  0  0
  150.1691  137.3927  156.4272 C   0  0  0  0  0  0  0  0  0  0  0  0
  149.5896  136.0553  156.0281 C   0  0  0  0  0  0  0  0  0  0  0  0
  150.7940  135.3857  155.3757 C   0  0  0  0  0  0  0  0  0  0  0  0
  151.5585  136.4400  154.7980 O   0  0  0  0  0  0  0  0  0  0  0  0
  152.3278  140.1601  157.5081 C   0  0  0  0  0  0  0  0  0  0  0  0
  153.2118  139.4495  157.9933 O   0  0  0  0  0  0  0  0  0  0  0  0
  151.8325  141.3466  158.2124 C   0  0  0  0  0  0  0  0  0  0  0  0
  152.4231  141.5977  159.4891 C   0  0  0  0  0  0  0  0  0  0  0  0
  152.8961  141.8242  160.5219 N   0  0  0  0  0  0  0  0  0  0  0  0
  149.6231  143.9064  157.9184 H   0  0  0  0  0  0  0  0  0  0  0  0
  151.2229  144.0670  158.6451 H   0  0  0  0  0  0  0  0  0  0  0  0
  149.9839  143.0790  159.4342 H   0  0  0  0  0  0  0  0  0  0  0  0
  149.5743  142.5173  155.9692 H   0  0  0  0  0  0  0  0  0  0  0  0
  152.7798  138.9059  154.6684 H   0  0  0  0  0  0  0  0  0  0  0  0
  152.9860  138.1356  156.1663 H   0  0  0  0  0  0  0  0  0  0  0  0
  150.4600  138.1211  154.4331 H   0  0  0  0  0  0  0  0  0  0  0  0
  150.7575  137.2846  157.3396 H   0  0  0  0  0  0  0  0  0  0  0  0
  149.4097  138.1563  156.5973 H   0  0  0  0  0  0  0  0  0  0  0  0
  149.1889  135.4898  156.8699 H   0  0  0  0  0  0  0  0  0  0  0  0
  148.7927  136.1944  155.2965 H   0  0  0  0  0  0  0  0  0  0  0  0
  151.4069  134.8885  156.1285 H   0  0  0  0  0  0  0  0  0  0  0  0
  150.5060  134.6446  154.6299 H   0  0  0  0  0  0  0  0  0  0  0  0
  1  2  1  0  0  0  0
  1 18  1  0  0  0  0
  1 19  1  0  0  0  0
  1 20  1  0  0  0  0
  2 15  2  0  0  0  0
  2  3  1  0  0  0  0
  3  4  2  0  0  0  0
  3 21  1  0  0  0  0
  4  5  1  0  0  0  0
  4  6  1  0  0  0  0
  6  7  1  0  0  0  0
  6 13  1  0  0  0  0
  7  8  1  0  0  0  0
  7 22  1  0  0  0  0
  7 23  1  0  0  0  0
  8 12  1  0  0  0  0
  8  9  1  0  0  0  0
  8 24  1  0  0  0  0
  9 10  1  0  0  0  0
  9 25  1  0  0  0  0
  9 26  1  0  0  0  0
 10 11  1  0  0  0  0
 10 27  1  0  0  0  0
 10 28  1  0  0  0  0
 11 12  1  0  0  0  0
 11 29  1  0  0  0  0
 11 30  1  0  0  0  0
 13 14  2  0  0  0  0
 13 15  1  0  0  0  0
 15 16  1  0  0  0  0
 16 17  3  0  0  0  0
M  CHG  1   5  -1
M  END
> <s_m_source_file>
AV-unprocessed.smi

> <i_m_source_file_index>
966

> <i_lp_mmshare_version>
43012

> <i_f3d_flags>
0

> <s_epik_input>
W0NIM11jMVtjSF1jKFtPSF0pbihjKD1PKWMxQyNOKVtDSDJdW0NAQEhdMltDSDJdW0NIMl1bQ0gyXU8y

> <s_epik_cmdline>
J2VwaWtfcHl0aG9uJywgJy1waCcsICc3LjAnLCAnLXRuJywgJzgnLCAnLW1hJywgJzIwMCcsICctbWV0YWxfYmluZGluZycsICctaW1hZScsICc8aW5maWxlLm1hZT4nLCAnLW9tYWUnLCAnPG91dGZpbGUubWFlPic=

> <r_lp_tautomer_probability>
1

> <r_epik_Ionization_Penalty>
3.48555e-06

> <r_epik_Ionization_Penalty_Charging>
3.48554e-06

> <r_epik_Ionization_Penalty_Neutral>
1.71861e-11

> <r_epik_State_Penalty>
-0

> <r_epik_Charging_Adjusted_Penalty>
3.48554e-06

> <i_epik_Tot_Q>
-1

> <i_epik_Tot_abs_Q>
1

> <r_epik_Metal_State_Penalty>
-0

> <b_epik_Metal_Only>
0

> <s_lp_Force_Field>
OPLS_2005

> <r_lp_Energy>
36.1557

> <b_lp_Chiralities_Consistent>
1

> <s_lp_Variant>
AV-unprocessed.smi:966-1

> <Gold.Version>
5.8.1

> <Gold.Id.Protein>
6NUR|6NUR_protein|mol2

> <Gold.PLP.Fitness>
37.6632

> <Gold.PLP.PLP>
-28.8224

> <Gold.PLP.part.hbond>
-3.0000

> <Gold.PLP.part.metal>
0.0000

> <Gold.PLP.part.buried>
-2.8427

> <Gold.PLP.part.nonpolar>
-22.9915

> <Gold.PLP.part.repulsive>
0.4570

> <Gold.PLP.ligand.clash>
0.0000

> <Gold.PLP.ligand.torsion>
0.0685

> <Gold.PLP.Chemscore.Hbond>
2.9920

> <Gold.PLP.Chemscore.CHOScore>
0.0000

> <Gold.PLP.Chemscore.Metal>
0.0000

> <Gold.Chemscore.Hbonds>
donor molecule, donor type, donor heavy atom, donor atom, acceptor molecule, acceptor atom, score
      P1  H  7989  7998       L1     5  1.00
      P1  H  7997  8010       L1    14  0.65
      P1  H 10752 10764       L1    12  0.91

> <Gold.PLP.Chemscore.Internal.Correction>
0.0018

> <Gold.Rescore>
     Score         DG    S(hbond)    S(metal)    S(lipo)     H(rot)  DE(clash)    DE(int)     intcor
     12.70     -14.37       1.74        0.00      53.64       1.25       0.01       1.66       ----

> <Gold.Chemscore.Fitness>
12.7039

> <Gold.Chemscore.DG>
-14.3688

> <Gold.Chemscore.ZeroCoef>
-5.4800

> <Gold.Chemscore.Hbond>
1.7415

> <Gold.Chemscore.Metal>
0.0000

> <Gold.Chemscore.Lipo>
53.6385

> <Gold.Chemscore.Internal_Hbond>
0.0000

> <Gold.Chemscore.DEClash>
0.0081

> <Gold.Chemscore.DEInternal>
1.6568

> <Gold.Chemscore.Rot>
1.2514

> <Gold.Chemscore.Internal.Correction>
   9.000000E+99

> <Gold.Chemscore.Hbonds>
donor molecule, donor type, donor heavy atom, donor atom, acceptor molecule, acceptor atom, score
      P1  H  7989  7998       L1     5  0.54
      P1  H  7997  8010       L1    14  0.06
      P1  H 10752 10764       L1    12  0.45

> <Gold.Chemscore.Hbond.Weighted>
-5.8166

> <Gold.Chemscore.Metal.Weighted>
-0.0000

> <Gold.Chemscore.Lipo.Weighted>
-6.2757

> <Gold.Chemscore.Internal_Hbond.Weighted>
0.0000

> <Gold.Chemscore.DEClash.Weighted>
0.0081

> <Gold.Chemscore.DEInternal.Weighted>
1.6568

> <Gold.Chemscore.Rot.Weighted>
3.2036

> <Gold.Chemscore.Internal.Correction.Weighted>
   9.000000E+99

> <Gold.Protein.RotatedTorsions>
[ 6907 6896 6895 6894 ] final  -62.08 input  -60.11 | X-H torsion
[ 7974 7965 7964 7962 ] final -106.12 input  175.53 | X-H torsion
[ 8008 7997 7996 7995 ] final   48.24 input   59.86 | X-H torsion
[ 10167 10162 10161 10158 ] final  134.27 input  -65.29 | X-H torsion
[ 10718 10713 10712 10709 ] final  -13.48 input   66.30 | X-H torsion
[ 10763 10752 10751 10750 ] final  -87.53 input  -60.55 | X-H torsion
[ 11005 11000 10999 10996 ] final   18.53 input  -57.11 | X-H torsion

> <Gold.Protein.ActiveResidues>
 VAL166  LYS551  ARG553  GLY616  TRP617  ASP618  TYR619  PRO620  LYS621  CYS622 
 ASP623  PHE694  ASN695  SER759  ASP760  ASP761  ALA762  ILE779  LEU786  VAL792 
 PHE793  MET794  SER795  GLU796  ALA797  LYS798  CYS799  TRP800  GLU811  SER814 

> <Gold.Protein.RotatedAtoms>
  150.7740  134.6619  159.6343 H   0  0  0  0  0  0  0  0  0  0  0  0  # atno 6907 bound_to 6896
  152.3803  134.6597  160.0154 H   0  0  0  0  0  0  0  0  0  0  0  0  # atno 6908 bound_to 6896
  151.6928  133.3274  159.3283 H   0  0  0  0  0  0  0  0  0  0  0  0  # atno 6909 bound_to 6896
  145.2218  140.9137  143.3255 H   0  0  0  0  0  0  0  0  0  0  0  0  # atno 7974 bound_to 7965
  155.3823  140.3429  155.4247 H   0  0  0  0  0  0  0  0  0  0  0  0  # atno 8008 bound_to 7997
  156.1603  140.1599  156.8656 H   0  0  0  0  0  0  0  0  0  0  0  0  # atno 8009 bound_to 7997
  154.5134  140.0784  156.8015 H   0  0  0  0  0  0  0  0  0  0  0  0  # atno 8010 bound_to 7997
  139.5263  144.6576  151.5115 H   0  0  0  0  0  0  0  0  0  0  0  0  # atno 10167 bound_to 10162
  156.6296  130.4898  149.6134 H   0  0  0  0  0  0  0  0  0  0  0  0  # atno 10718 bound_to 10713
  154.6346  135.5410  153.7720 H   0  0  0  0  0  0  0  0  0  0  0  0  # atno 10763 bound_to 10752
  153.0302  135.6444  154.1250 H   0  0  0  0  0  0  0  0  0  0  0  0  # atno 10764 bound_to 10752
  154.1178  135.2922  155.3195 H   0  0  0  0  0  0  0  0  0  0  0  0  # atno 10765 bound_to 10752
  140.4238  134.1491  155.7675 H   0  0  0  0  0  0  0  0  0  0  0  0  # atno 11005 bound_to 11000
  144.9758  139.3833  143.6286 LP  0  0  0  0  0  0  0  0  0  0  0  0  # atno 17320 bound_to 7965
  146.3374  139.8876  142.8814 LP  0  0  0  0  0  0  0  0  0  0  0  0  # atno 17321 bound_to 7965
  140.6408  143.8892  150.6690 LP  0  0  0  0  0  0  0  0  0  0  0  0  # atno 17342 bound_to 10162
  140.2226  143.3797  152.1630 LP  0  0  0  0  0  0  0  0  0  0  0  0  # atno 17343 bound_to 10162
  156.2245  130.6757  151.1402 LP  0  0  0  0  0  0  0  0  0  0  0  0  # atno 17370 bound_to 10713
  157.7204  131.0685  150.6160 LP  0  0  0  0  0  0  0  0  0  0  0  0  # atno 17371 bound_to 10713
  141.1773  133.8487  157.1377 LP  0  0  0  0  0  0  0  0  0  0  0  0  # atno 17394 bound_to 11000
  140.0181  134.9958  157.0536 LP  0  0  0  0  0  0  0  0  0  0  0  0  # atno 17395 bound_to 11000

$$$$
