AV-unprocessed.smi:158|AV-procd|sdf|1333|dock9
  -GOLD-   2262019 33D 1   1.00000     0.00000
 Structure written by MMmdl.
 31 33  0  0  0  0  0  0  0  0  1 V2000
  143.9565  142.9775  154.7378 N   0  0  0  0  0  0  0  0  0  0  0  0
  145.1031  142.7499  155.3936 C   0  0  0  0  0  0  0  0  0  0  0  0
  145.1741  143.0894  156.7011 N   0  0  0  0  0  0  0  0  0  0  0  0
  146.3007  142.8797  157.3916 C   0  0  0  0  0  0  0  0  0  0  0  0
  146.2837  143.3488  159.0505 Cl  0  0  0  0  0  0  0  0  0  0  0  0
  147.4406  142.3486  156.9388 N   0  0  0  0  0  0  0  0  0  0  0  0
  147.3782  142.0026  155.6198 C   0  0  0  0  0  0  0  0  0  0  0  0
  146.2423  142.1719  154.7818 C   0  0  0  0  0  0  0  0  0  0  0  0
  146.5219  141.7127  153.5031 N   0  0  0  0  0  0  0  0  0  0  0  0
  147.7564  141.2966  153.5844 C   0  0  0  0  0  0  0  0  0  0  0  0
  148.3553  141.4372  154.8178 N   0  0  0  0  0  0  0  0  0  0  0  0
  149.7631  141.0465  155.1705 C   0  0  2  0  0  0  0  0  0  0  0  0
  150.3149  140.2872  154.1321 O   0  0  0  0  0  0  0  0  0  0  0  0
  150.4284  138.9030  154.4898 C   0  0  1  0  0  0  0  0  0  0  0  0
  151.9323  138.5871  154.6332 C   0  0  0  0  0  0  0  0  0  0  0  0
  152.6060  139.7018  155.1771 O   0  0  0  0  0  0  0  0  0  0  0  0
  149.6049  138.7881  155.7849 C   0  0  1  0  0  0  0  0  0  0  0  0
  149.9654  137.7372  156.6600 O   0  0  0  0  0  0  0  0  0  0  0  0
  149.7572  140.1586  156.4140 C   0  0  1  0  0  0  0  0  0  0  0  0
  150.9342  140.2973  157.0279 F   0  0  0  0  0  0  0  0  0  0  0  0
  150.2814  141.9972  155.2998 H   0  0  0  0  0  0  0  0  0  0  0  0
  149.9896  138.2668  153.7198 H   0  0  0  0  0  0  0  0  0  0  0  0
  148.5565  138.6430  155.5213 H   0  0  0  0  0  0  0  0  0  0  0  0
  148.9680  140.4272  157.1174 H   0  0  0  0  0  0  0  0  0  0  0  0
  143.8794  142.7331  153.7609 H   0  0  0  0  0  0  0  0  0  0  0  0
  143.1725  143.3921  155.2203 H   0  0  0  0  0  0  0  0  0  0  0  0
  148.2736  140.8741  152.7351 H   0  0  0  0  0  0  0  0  0  0  0  0
  152.1051  137.7074  155.2532 H   0  0  0  0  0  0  0  0  0  0  0  0
  152.3869  138.3927  153.6621 H   0  0  0  0  0  0  0  0  0  0  0  0
  152.1233  140.4830  154.9542 H   0  0  0  0  0  0  0  0  0  0  0  0
  150.8540  137.4787  156.4676 H   0  0  0  0  0  0  0  0  0  0  0  0
  1  2  1  0  0  0  0
  1 25  1  0  0  0  0
  1 26  1  0  0  0  0
  2  8  1  0  0  0  0
  2  3  2  0  0  0  0
  3  4  1  0  0  0  0
  4  5  1  0  0  0  0
  4  6  2  0  0  0  0
  6  7  1  0  0  0  0
  7 11  1  0  0  0  0
  7  8  2  0  0  0  0
  8  9  1  0  0  0  0
  9 10  2  0  0  0  0
 10 11  1  0  0  0  0
 10 27  1  0  0  0  0
 11 12  1  0  0  0  0
 12 21  1  0  0  0  0
 12 19  1  0  0  0  0
 12 13  1  0  0  0  0
 13 14  1  0  0  0  0
 14 22  1  0  0  0  0
 14 15  1  0  0  0  0
 14 17  1  0  0  0  0
 15 16  1  0  0  0  0
 15 28  1  0  0  0  0
 15 29  1  0  0  0  0
 16 30  1  0  0  0  0
 17 23  1  0  0  0  0
 17 18  1  0  0  0  0
 17 19  1  0  0  0  0
 18 31  1  0  0  0  0
 19 24  1  0  0  0  0
 19 20  1  0  0  0  0
M  END
> <s_m_source_file>
AV-unprocessed.smi

> <i_m_source_file_index>
158

> <i_lp_mmshare_version>
43012

> <i_f3d_flags>
0

> <s_epik_input>
Q2xjKG4xKW5jKFtOSDJdKWMoYzEyKW5bY0hdbjJbQ0BASF0zT1tDQEhdKFtDSDJdW09IXSlbQ0BASF0oW09IXSlbQ0BASF0zRg==

> <s_epik_cmdline>
J2VwaWtfcHl0aG9uJywgJy1waCcsICc3LjAnLCAnLXRuJywgJzgnLCAnLW1hJywgJzIwMCcsICctbWV0YWxfYmluZGluZycsICctaW1hZScsICc8aW5maWxlLm1hZT4nLCAnLW9tYWUnLCAnPG91dGZpbGUubWFlPic=

> <r_lp_tautomer_probability>
1

> <r_epik_Ionization_Penalty>
6.51543e-05

> <r_epik_Ionization_Penalty_Charging>
0

> <r_epik_Ionization_Penalty_Neutral>
6.51543e-05

> <r_epik_State_Penalty>
-0

> <r_epik_Charging_Adjusted_Penalty>
0

> <i_epik_Tot_Q>
0

> <i_epik_Tot_abs_Q>
0

> <r_epik_Metal_State_Penalty>
-0

> <b_epik_Metal_Only>
0

> <s_epik_Chemistry_Notes>
This compound contains an acetal/aminal-like group ( X-CH(R)-Y where X, Y are N, S, or O) that may be acid/base labile, releasing an aldehyde.

> <s_lp_Force_Field>
OPLS_2005

> <r_lp_Energy>
36.1336

> <b_lp_Chiralities_Consistent>
1

> <s_lp_Variant>
AV-unprocessed.smi:158-11

> <Gold.Version>
5.8.1

> <Gold.Id.Protein>
6NUR|6NUR_protein|mol2

> <Gold.PLP.Fitness>
38.6215

> <Gold.PLP.PLP>
-29.0139

> <Gold.PLP.part.hbond>
-3.9959

> <Gold.PLP.part.metal>
0.0000

> <Gold.PLP.part.buried>
-4.8361

> <Gold.PLP.part.nonpolar>
-21.9559

> <Gold.PLP.part.repulsive>
1.5630

> <Gold.PLP.ligand.clash>
0.0000

> <Gold.PLP.ligand.torsion>
0.3932

> <Gold.PLP.Chemscore.Hbond>
2.4597

> <Gold.PLP.Chemscore.CHOScore>
1.0000

> <Gold.PLP.Chemscore.Metal>
0.0000

> <Gold.Chemscore.Hbonds>
donor molecule, donor type, donor heavy atom, donor atom, acceptor molecule, acceptor atom, score
      L1  H     1    25       P1 10174  0.51
      P1  H  7989  7998       L1    13  0.96
      P1  H  7997  8008       L1    16  0.99
      L1  C    10    27       P1  7957  1.00

> <Gold.PLP.Chemscore.Internal.Correction>
0.0148

> <Gold.Rescore>
     Score         DG    S(hbond)    S(metal)    S(lipo)     H(rot)  DE(clash)    DE(int)     intcor
      5.01      -7.17       1.92        0.00      28.05       3.12       0.12       2.05       ----

> <Gold.Chemscore.Fitness>
5.0112

> <Gold.Chemscore.DG>
-7.1716

> <Gold.Chemscore.ZeroCoef>
-5.4800

> <Gold.Chemscore.Hbond>
1.9177

> <Gold.Chemscore.Metal>
0.0000

> <Gold.Chemscore.Lipo>
28.0458

> <Gold.Chemscore.Internal_Hbond>
0.0000

> <Gold.Chemscore.DEClash>
0.1151

> <Gold.Chemscore.DEInternal>
2.0454

> <Gold.Chemscore.Rot>
3.1230

> <Gold.Chemscore.Internal.Correction>
   9.000000E+99

> <Gold.Chemscore.Hbonds>
donor molecule, donor type, donor heavy atom, donor atom, acceptor molecule, acceptor atom, score
      L1  H     1    25       P1 10174  0.03
      P1  H  7989  7998       L1    13  0.73
      P1  H  7997  8008       L1    16  0.72

> <Gold.Chemscore.Hbond.Weighted>
-6.4052

> <Gold.Chemscore.Metal.Weighted>
-0.0000

> <Gold.Chemscore.Lipo.Weighted>
-3.2814

> <Gold.Chemscore.Internal_Hbond.Weighted>
0.0000

> <Gold.Chemscore.DEClash.Weighted>
0.1151

> <Gold.Chemscore.DEInternal.Weighted>
2.0454

> <Gold.Chemscore.Rot.Weighted>
7.9950

> <Gold.Chemscore.Internal.Correction.Weighted>
   9.000000E+99

> <Gold.Protein.RotatedTorsions>
[ 6907 6896 6895 6894 ] final -145.66 input  -60.11 | X-H torsion
[ 7974 7965 7964 7962 ] final  -19.37 input  175.53 | X-H torsion
[ 8008 7997 7996 7995 ] final  -25.69 input   59.86 | X-H torsion
[ 10167 10162 10161 10158 ] final  -37.85 input  -65.29 | X-H torsion
[ 10718 10713 10712 10709 ] final  -99.84 input   66.30 | X-H torsion
[ 10763 10752 10751 10750 ] final -101.51 input  -60.55 | X-H torsion
[ 11005 11000 10999 10996 ] final  176.92 input  -57.11 | X-H torsion

> <Gold.Protein.ActiveResidues>
 VAL166  LYS551  ARG553  GLY616  TRP617  ASP618  TYR619  PRO620  LYS621  CYS622 
 ASP623  PHE694  ASN695  SER759  ASP760  ASP761  ALA762  ILE779  LEU786  VAL792 
 PHE793  MET794  SER795  GLU796  ALA797  LYS798  CYS799  TRP800  GLU811  SER814 

> <Gold.Protein.RotatedAtoms>
  151.1309  133.5038  159.2599 H   0  0  0  0  0  0  0  0  0  0  0  0  # atno 6907 bound_to 6896
  151.1759  135.0338  159.8781 H   0  0  0  0  0  0  0  0  0  0  0  0  # atno 6908 bound_to 6896
  152.5459  134.1166  159.8434 H   0  0  0  0  0  0  0  0  0  0  0  0  # atno 6909 bound_to 6896
  146.1845  140.4052  142.8482 H   0  0  0  0  0  0  0  0  0  0  0  0  # atno 7974 bound_to 7965
  154.4463  140.1920  156.0658 H   0  0  0  0  0  0  0  0  0  0  0  0  # atno 8008 bound_to 7997
  156.0548  140.3304  155.7366 H   0  0  0  0  0  0  0  0  0  0  0  0  # atno 8009 bound_to 7997
  155.5502  140.0594  157.2842 H   0  0  0  0  0  0  0  0  0  0  0  0  # atno 8010 bound_to 7997
  140.7108  143.3315  151.2558 H   0  0  0  0  0  0  0  0  0  0  0  0  # atno 10167 bound_to 10162
  156.0145  130.5300  150.6729 H   0  0  0  0  0  0  0  0  0  0  0  0  # atno 10718 bound_to 10713
  154.7663  135.4895  153.9561 H   0  0  0  0  0  0  0  0  0  0  0  0  # atno 10763 bound_to 10752
  153.1312  135.6753  153.9183 H   0  0  0  0  0  0  0  0  0  0  0  0  # atno 10764 bound_to 10752
  153.8886  135.3123  155.3425 H   0  0  0  0  0  0  0  0  0  0  0  0  # atno 10765 bound_to 10752
  140.3784  134.6968  157.4435 H   0  0  0  0  0  0  0  0  0  0  0  0  # atno 11005 bound_to 11000
  144.8372  140.6801  143.6252 LP  0  0  0  0  0  0  0  0  0  0  0  0  # atno 17320 bound_to 7965
  145.3980  139.1603  143.4193 LP  0  0  0  0  0  0  0  0  0  0  0  0  # atno 17321 bound_to 7965
  139.6798  143.9873  152.2802 LP  0  0  0  0  0  0  0  0  0  0  0  0  # atno 17342 bound_to 10162
  139.9500  144.6627  150.8181 LP  0  0  0  0  0  0  0  0  0  0  0  0  # atno 17343 bound_to 10162
  157.4448  131.0865  151.0907 LP  0  0  0  0  0  0  0  0  0  0  0  0  # atno 17370 bound_to 10713
  157.1440  130.6155  149.5563 LP  0  0  0  0  0  0  0  0  0  0  0  0  # atno 17371 bound_to 10713
  140.0498  134.6147  155.8876 LP  0  0  0  0  0  0  0  0  0  0  0  0  # atno 17394 bound_to 11000
  141.1932  133.6578  156.5535 LP  0  0  0  0  0  0  0  0  0  0  0  0  # atno 17395 bound_to 11000

$$$$
