AV-unprocessed.smi:2732|AV-procd|sdf|10532|dock1
  -GOLD-   2272014573D 1   1.00000     0.00000
 Structure written by MMmdl.
 34 35  0  0  0  0  0  0  0  0  1 V2000
  148.5036  130.1096  154.3918 C   0  0  0  0  0  0  0  0  0  0  0  0
  148.5271  131.3681  153.5118 C   0  0  2  0  0  0  0  0  0  0  0  0
  149.0080  132.4422  154.3154 O   0  0  0  0  0  0  0  0  0  0  0  0
  149.2916  133.6483  153.6167 C   0  0  0  0  0  0  0  0  0  0  0  0
  149.9893  134.6023  154.5618 C   0  0  0  0  0  0  0  0  0  0  0  0
  150.7971  134.0742  155.7255 C   0  0  0  0  0  0  0  0  0  0  0  0
  149.4899  134.7819  155.9775 C   0  0  0  0  0  0  0  0  0  0  0  0
  147.1277  131.6973  152.9668 C   0  0  0  0  0  0  0  0  0  0  0  0
  146.2042  131.9148  153.7512 O   0  0  0  0  0  0  0  0  0  0  0  0
  147.0124  131.7202  151.6261 N   0  0  0  0  0  0  0  0  0  0  0  0
  145.8708  132.0383  150.8421 C   0  0  0  0  0  0  0  0  0  0  0  0
  144.6819  132.6028  151.3633 C   0  0  0  0  0  0  0  0  0  0  0  0
  143.6262  132.9010  150.4803 C   0  0  0  0  0  0  0  0  0  0  0  0
  143.7993  132.6334  149.1078 C   0  0  0  0  0  0  0  0  0  0  0  0
  142.7772  132.9181  148.2059 N   0  0  0  0  0  0  0  0  0  0  0  0
  144.9322  132.1076  148.5969 N   0  0  0  0  0  0  0  0  0  0  0  0
  145.9407  131.8245  149.4493 C   0  0  0  0  0  0  0  0  0  0  0  0
  148.1259  129.2469  153.8418 H   0  0  0  0  0  0  0  0  0  0  0  0
  147.8761  130.2472  155.2735 H   0  0  0  0  0  0  0  0  0  0  0  0
  149.5076  129.8640  154.7388 H   0  0  0  0  0  0  0  0  0  0  0  0
  149.2196  131.1966  152.6851 H   0  0  0  0  0  0  0  0  0  0  0  0
  149.9465  133.4480  152.7679 H   0  0  0  0  0  0  0  0  0  0  0  0
  148.3835  134.1177  153.2358 H   0  0  0  0  0  0  0  0  0  0  0  0
  150.3762  135.4972  154.0776 H   0  0  0  0  0  0  0  0  0  0  0  0
  150.8232  132.9967  155.8765 H   0  0  0  0  0  0  0  0  0  0  0  0
  151.7140  134.6021  155.9791 H   0  0  0  0  0  0  0  0  0  0  0  0
  149.5344  135.7821  156.4036 H   0  0  0  0  0  0  0  0  0  0  0  0
  148.6455  134.1751  156.2988 H   0  0  0  0  0  0  0  0  0  0  0  0
  147.8278  131.4272  151.1074 H   0  0  0  0  0  0  0  0  0  0  0  0
  144.5653  132.8273  152.4122 H   0  0  0  0  0  0  0  0  0  0  0  0
  142.7080  133.3310  150.8525 H   0  0  0  0  0  0  0  0  0  0  0  0
  141.9002  133.3171  148.5083 H   0  0  0  0  0  0  0  0  0  0  0  0
  142.8845  132.7407  147.2175 H   0  0  0  0  0  0  0  0  0  0  0  0
  146.8326  131.4100  149.0026 H   0  0  0  0  0  0  0  0  0  0  0  0
  1  2  1  0  0  0  0
  1 18  1  0  0  0  0
  1 19  1  0  0  0  0
  1 20  1  0  0  0  0
  2  3  1  0  0  0  0
  2  8  1  0  0  0  0
  2 21  1  0  0  0  0
  3  4  1  0  0  0  0
  4  5  1  0  0  0  0
  4 22  1  0  0  0  0
  4 23  1  0  0  0  0
  5  7  1  0  0  0  0
  5  6  1  0  0  0  0
  5 24  1  0  0  0  0
  6  7  1  0  0  0  0
  6 25  1  0  0  0  0
  6 26  1  0  0  0  0
  7 27  1  0  0  0  0
  7 28  1  0  0  0  0
  8  9  2  0  0  0  0
  8 10  1  0  0  0  0
 10 11  1  0  0  0  0
 10 29  1  0  0  0  0
 11 17  1  0  0  0  0
 11 12  2  0  0  0  0
 12 13  1  0  0  0  0
 12 30  1  0  0  0  0
 13 14  2  0  0  0  0
 13 31  1  0  0  0  0
 14 15  1  0  0  0  0
 14 16  1  0  0  0  0
 15 32  1  0  0  0  0
 15 33  1  0  0  0  0
 16 17  2  0  0  0  0
 17 34  1  0  0  0  0
M  END
> <s_m_source_file>
AV-unprocessed.smi

> <i_m_source_file_index>
2732

> <i_lp_mmshare_version>
43012

> <i_f3d_flags>
0

> <s_epik_input>
W0NIMl0xW0NIMl1bQ0hdMVtDSDJdT1tDQEBIXShbQ0gzXSlDKD1PKVtOSF1jMltjSF1bY0hdYyhbTkgyXSluW2NIXTI=

> <s_epik_cmdline>
J2VwaWtfcHl0aG9uJywgJy1waCcsICc3LjAnLCAnLXRuJywgJzgnLCAnLW1hJywgJzIwMCcsICctbWV0YWxfYmluZGluZycsICctaW1hZScsICc8aW5maWxlLm1hZT4nLCAnLW9tYWUnLCAnPG91dGZpbGUubWFlPic=

> <r_lp_tautomer_probability>
1

> <r_epik_Ionization_Penalty>
0.0764773

> <r_epik_Ionization_Penalty_Charging>
0

> <r_epik_Ionization_Penalty_Neutral>
0.0764773

> <r_epik_State_Penalty>
0.0673619

> <r_epik_Charging_Adjusted_Penalty>
0.0673619

> <i_epik_Tot_Q>
0

> <i_epik_Tot_abs_Q>
0

> <r_epik_Metal_State_Penalty>
0.0594329

> <b_epik_Metal_Only>
0

> <s_lp_Force_Field>
OPLS_2005

> <r_lp_Energy>
19.1894

> <b_lp_Chiralities_Consistent>
1

> <s_lp_Variant>
AV-unprocessed.smi:2732-1

> <Gold.Version>
5.8.1

> <Gold.Id.Protein>
6NUR|6NUR_protein|mol2

> <Gold.PLP.Fitness>
45.9821

> <Gold.PLP.PLP>
-35.2409

> <Gold.PLP.part.hbond>
-4.7148

> <Gold.PLP.part.metal>
0.0000

> <Gold.PLP.part.buried>
-5.7025

> <Gold.PLP.part.nonpolar>
-26.7317

> <Gold.PLP.part.repulsive>
0.8864

> <Gold.PLP.ligand.clash>
0.0000

> <Gold.PLP.ligand.torsion>
0.3582

> <Gold.PLP.Chemscore.Hbond>
2.6784

> <Gold.PLP.Chemscore.CHOScore>
0.9213

> <Gold.PLP.Chemscore.Metal>
0.0000

> <Gold.Chemscore.Hbonds>
donor molecule, donor type, donor heavy atom, donor atom, acceptor molecule, acceptor atom, score
      L1  H    10    29       P1 10747  0.99
      L1  H    15    32       P1 10186  1.00
      L1  H    15    33       P1 10195  0.65
      L1  C    17    34       P1 10747  0.92

> <Gold.PLP.Chemscore.Internal.Correction>
0.6586

> <Gold.Rescore>
     Score         DG    S(hbond)    S(metal)    S(lipo)     H(rot)  DE(clash)    DE(int)     intcor
     16.32     -18.01       2.69        0.00      68.11       1.72       0.06       1.63       ----

> <Gold.Chemscore.Fitness>
16.3237

> <Gold.Chemscore.DG>
-18.0095

> <Gold.Chemscore.ZeroCoef>
-5.4800

> <Gold.Chemscore.Hbond>
2.6867

> <Gold.Chemscore.Metal>
0.0000

> <Gold.Chemscore.Lipo>
68.1079

> <Gold.Chemscore.Internal_Hbond>
0.0000

> <Gold.Chemscore.DEClash>
0.0580

> <Gold.Chemscore.DEInternal>
1.6278

> <Gold.Chemscore.Rot>
1.7237

> <Gold.Chemscore.Internal.Correction>
   9.000000E+99

> <Gold.Chemscore.Hbonds>
donor molecule, donor type, donor heavy atom, donor atom, acceptor molecule, acceptor atom, score
      L1  H    10    29       P1 10747  0.93
      L1  H    15    32       P1 10186  0.95
      L1  H    15    33       P1 10195  0.63

> <Gold.Chemscore.Hbond.Weighted>
-8.9736

> <Gold.Chemscore.Metal.Weighted>
-0.0000

> <Gold.Chemscore.Lipo.Weighted>
-7.9686

> <Gold.Chemscore.Internal_Hbond.Weighted>
0.0000

> <Gold.Chemscore.DEClash.Weighted>
0.0580

> <Gold.Chemscore.DEInternal.Weighted>
1.6278

> <Gold.Chemscore.Rot.Weighted>
4.4127

> <Gold.Chemscore.Internal.Correction.Weighted>
   9.000000E+99

> <Gold.Protein.RotatedTorsions>
[ 6907 6896 6895 6894 ] final   94.90 input  -60.11 | X-H torsion
[ 7974 7965 7964 7962 ] final -177.99 input  175.53 | X-H torsion
[ 8008 7997 7996 7995 ] final -120.87 input   59.86 | X-H torsion
[ 10167 10162 10161 10158 ] final   52.43 input  -65.29 | X-H torsion
[ 10718 10713 10712 10709 ] final   92.40 input   66.30 | X-H torsion
[ 10763 10752 10751 10750 ] final -173.92 input  -60.55 | X-H torsion
[ 11005 11000 10999 10996 ] final   45.73 input  -57.11 | X-H torsion

> <Gold.Protein.ActiveResidues>
 VAL166  LYS551  ARG553  GLY616  TRP617  ASP618  TYR619  PRO620  LYS621  CYS622 
 ASP623  PHE694  ASN695  SER759  ASP760  ASP761  ALA762  ILE779  LEU786  VAL792 
 PHE793  MET794  SER795  GLU796  ALA797  LYS798  CYS799  TRP800  GLU811  SER814 

> <Gold.Protein.RotatedAtoms>
  152.5447  134.1123  159.8363 H   0  0  0  0  0  0  0  0  0  0  0  0  # atno 6907 bound_to 6896
  151.1188  133.5112  159.2610 H   0  0  0  0  0  0  0  0  0  0  0  0  # atno 6908 bound_to 6896
  151.1802  135.0367  159.8843 H   0  0  0  0  0  0  0  0  0  0  0  0  # atno 6909 bound_to 6896
  144.7129  140.0936  143.6420 H   0  0  0  0  0  0  0  0  0  0  0  0  # atno 7974 bound_to 7965
  155.1387  140.0401  157.2793 H   0  0  0  0  0  0  0  0  0  0  0  0  # atno 8008 bound_to 7997
  154.6489  140.2564  155.7210 H   0  0  0  0  0  0  0  0  0  0  0  0  # atno 8009 bound_to 7997
  156.2568  140.2840  156.0914 H   0  0  0  0  0  0  0  0  0  0  0  0  # atno 8010 bound_to 7997
  140.2515  144.3474  150.6347 H   0  0  0  0  0  0  0  0  0  0  0  0  # atno 10167 bound_to 10162
  157.6958  131.0442  150.3876 H   0  0  0  0  0  0  0  0  0  0  0  0  # atno 10718 bound_to 10713
  154.6023  135.2856  155.0522 H   0  0  0  0  0  0  0  0  0  0  0  0  # atno 10763 bound_to 10752
  154.1783  135.6461  153.5031 H   0  0  0  0  0  0  0  0  0  0  0  0  # atno 10764 bound_to 10752
  153.0161  135.5417  154.6746 H   0  0  0  0  0  0  0  0  0  0  0  0  # atno 10765 bound_to 10752
  140.1433  134.4555  155.8434 H   0  0  0  0  0  0  0  0  0  0  0  0  # atno 11005 bound_to 11000
  145.9599  139.2793  143.1162 LP  0  0  0  0  0  0  0  0  0  0  0  0  # atno 17320 bound_to 7965
  145.9232  140.9100  143.0394 LP  0  0  0  0  0  0  0  0  0  0  0  0  # atno 17321 bound_to 7965
  140.6037  143.2167  151.7022 LP  0  0  0  0  0  0  0  0  0  0  0  0  # atno 17342 bound_to 10162
  139.5045  144.3752  152.0430 LP  0  0  0  0  0  0  0  0  0  0  0  0  # atno 17343 bound_to 10162
  156.4282  130.3967  149.6778 LP  0  0  0  0  0  0  0  0  0  0  0  0  # atno 17370 bound_to 10713
  156.4004  130.7672  151.2679 LP  0  0  0  0  0  0  0  0  0  0  0  0  # atno 17371 bound_to 10713
  141.2189  133.6842  156.7287 LP  0  0  0  0  0  0  0  0  0  0  0  0  # atno 17394 bound_to 11000
  140.2695  134.8403  157.3834 LP  0  0  0  0  0  0  0  0  0  0  0  0  # atno 17395 bound_to 11000

$$$$
