AV-unprocessed.smi:1163|AV-procd|sdf|4922|dock2
  -GOLD-   22720 3503D 1   1.00000     0.00000
 Structure written by MMmdl.
 40 41  0  0  0  0  0  0  0  0  2 V2000
  153.6311  141.9961  161.2105 C   0  0  0  0  0  0  0  0  0  0  0  0
  153.4115  142.9922  160.2176 O   0  0  0  0  0  0  0  0  0  0  0  0
  152.5433  142.7063  159.1840 C   0  0  0  0  0  0  0  0  0  0  0  0
  152.1677  141.3651  158.9700 C   0  0  0  0  0  0  0  0  0  0  0  0
  151.2787  141.0653  157.9202 C   0  0  0  0  0  0  0  0  0  0  0  0
  150.7858  142.1222  157.1187 C   0  0  0  0  0  0  0  0  0  0  0  0
  149.8994  141.9463  156.0223 N   0  0  0  0  0  0  0  0  0  0  0  0
  149.6750  140.8333  155.3034 C   0  0  0  0  0  0  0  0  0  0  0  0
  150.2110  139.7417  155.4927 O   0  0  0  0  0  0  0  0  0  0  0  0
  148.7599  141.0463  154.3473 N   0  0  0  0  0  0  0  0  0  0  0  0
  148.2886  140.0343  153.4076 C   0  0  2  0  0  0  0  0  0  0  0  0
  147.0467  140.4583  152.6249 C   0  0  0  0  0  0  0  0  0  0  0  0
  146.3175  139.1396  152.3134 C   0  0  0  0  0  0  0  0  0  0  0  0
  147.0045  138.0728  153.0823 N   0  3  2  0  0  0  0  0  0  0  0  0
  146.1262  137.0080  153.6246 C   0  0  0  0  0  0  0  0  0  0  0  0
  145.1987  136.4004  152.5576 C   0  0  0  0  0  0  0  0  0  0  0  0
  144.8500  135.1710  152.9338 F   0  0  0  0  0  0  0  0  0  0  0  0
  144.0912  137.1267  152.4112 F   0  0  0  0  0  0  0  0  0  0  0  0
  145.8336  136.3262  151.3878 F   0  0  0  0  0  0  0  0  0  0  0  0
  147.8232  138.7538  154.1005 C   0  0  0  0  0  0  0  0  0  0  0  0
  151.2373  143.4274  157.4040 C   0  0  0  0  0  0  0  0  0  0  0  0
  152.0872  143.7220  158.4101 N   0  0  0  0  0  0  0  0  0  0  0  0
  154.3363  142.3740  161.9507 H   0  0  0  0  0  0  0  0  0  0  0  0
  154.0593  141.0902  160.7785 H   0  0  0  0  0  0  0  0  0  0  0  0
  152.7079  141.7416  161.7332 H   0  0  0  0  0  0  0  0  0  0  0  0
  152.5574  140.5782  159.5987 H   0  0  0  0  0  0  0  0  0  0  0  0
  151.0060  140.0363  157.7440 H   0  0  0  0  0  0  0  0  0  0  0  0
  149.3225  142.7448  155.8012 H   0  0  0  0  0  0  0  0  0  0  0  0
  148.3659  141.9720  154.2610 H   0  0  0  0  0  0  0  0  0  0  0  0
  149.0839  139.7931  152.6991 H   0  0  0  0  0  0  0  0  0  0  0  0
  146.4050  141.0906  153.2408 H   0  0  0  0  0  0  0  0  0  0  0  0
  147.2976  141.0197  151.7242 H   0  0  0  0  0  0  0  0  0  0  0  0
  145.2661  139.2215  152.5932 H   0  0  0  0  0  0  0  0  0  0  0  0
  146.3609  138.9022  151.2500 H   0  0  0  0  0  0  0  0  0  0  0  0
  146.7619  136.2139  154.0188 H   0  0  0  0  0  0  0  0  0  0  0  0
  145.5485  137.3885  154.4681 H   0  0  0  0  0  0  0  0  0  0  0  0
  148.6532  138.1266  154.4282 H   0  0  0  0  0  0  0  0  0  0  0  0
  147.2088  138.9909  154.9716 H   0  0  0  0  0  0  0  0  0  0  0  0
  150.9012  144.2658  156.8113 H   0  0  0  0  0  0  0  0  0  0  0  0
  147.6579  137.6331  152.4495 H   0  0  0  0  0  0  0  0  0  0  0  0
  1  2  1  0  0  0  0
  1 23  1  0  0  0  0
  1 24  1  0  0  0  0
  1 25  1  0  0  0  0
  2  3  1  0  0  0  0
  3 22  1  0  0  0  0
  3  4  2  0  0  0  0
  4  5  1  0  0  0  0
  4 26  1  0  0  0  0
  5  6  2  0  0  0  0
  5 27  1  0  0  0  0
  6  7  1  0  0  0  0
  6 21  1  0  0  0  0
  7  8  1  0  0  0  0
  7 28  1  0  0  0  0
  8  9  2  0  0  0  0
  8 10  1  0  0  0  0
 10 11  1  0  0  0  0
 10 29  1  0  0  0  0
 11 20  1  0  0  0  0
 11 12  1  0  0  0  0
 11 30  1  0  0  0  0
 12 13  1  0  0  0  0
 12 31  1  0  0  0  0
 12 32  1  0  0  0  0
 13 14  1  0  0  0  0
 13 33  1  0  0  0  0
 13 34  1  0  0  0  0
 14 15  1  0  0  0  0
 14 20  1  0  0  0  0
 14 40  1  0  0  0  0
 15 16  1  0  0  0  0
 15 35  1  0  0  0  0
 15 36  1  0  0  0  0
 16 17  1  0  0  0  0
 16 18  1  0  0  0  0
 16 19  1  0  0  0  0
 20 37  1  0  0  0  0
 20 38  1  0  0  0  0
 21 22  2  0  0  0  0
 21 39  1  0  0  0  0
M  CHG  1  14   1
M  END
> <s_m_source_file>
AV-unprocessed.smi

> <i_m_source_file_index>
1163

> <i_lp_mmshare_version>
43012

> <i_f3d_flags>
0

> <s_epik_input>
W0NIM11PYzFbY0hdW2NIXWMoW2NIXW4xKVtOSF1DKD1PKVtOSF1bQ0BASF0yW0NIMl1bQ0gyXU4oW0NIMl0yKVtDSDJdQyhGKShGKUY=

> <s_epik_cmdline>
J2VwaWtfcHl0aG9uJywgJy1waCcsICc3LjAnLCAnLXRuJywgJzgnLCAnLW1hJywgJzIwMCcsICctbWV0YWxfYmluZGluZycsICctaW1hZScsICc8aW5maWxlLm1hZT4nLCAnLW9tYWUnLCAnPG91dGZpbGUubWFlPic=

> <r_lp_tautomer_probability>
1

> <r_epik_Ionization_Penalty>
1.12054

> <r_epik_Ionization_Penalty_Charging>
1.12047

> <r_epik_Ionization_Penalty_Neutral>
7.20346e-05

> <r_epik_State_Penalty>
1.17927

> <r_epik_Charging_Adjusted_Penalty>
2.29974

> <i_epik_Tot_Q>
1

> <i_epik_Tot_abs_Q>
1

> <r_epik_Metal_State_Penalty>
1.17928

> <b_epik_Metal_Only>
0

> <s_lp_Force_Field>
OPLS_2005

> <r_lp_Energy>
30.0061

> <b_lp_Chiralities_Consistent>
1

> <s_lp_Variant>
AV-unprocessed.smi:1163-3

> <Gold.Version>
5.8.1

> <Gold.Id.Protein>
6NUR|6NUR_protein|mol2

> <Gold.PLP.Fitness>
42.3984

> <Gold.PLP.PLP>
-31.5219

> <Gold.PLP.part.hbond>
-2.0000

> <Gold.PLP.part.metal>
0.0000

> <Gold.PLP.part.buried>
3.9445

> <Gold.PLP.part.nonpolar>
-33.9671

> <Gold.PLP.part.repulsive>
0.3679

> <Gold.PLP.ligand.clash>
0.0212

> <Gold.PLP.ligand.torsion>
0.8126

> <Gold.PLP.Chemscore.Hbond>
3.0000

> <Gold.PLP.Chemscore.CHOScore>
1.0000

> <Gold.PLP.Chemscore.Metal>
0.0000

> <Gold.Chemscore.Hbonds>
donor molecule, donor type, donor heavy atom, donor atom, acceptor molecule, acceptor atom, score
      L1  H     7    28       P1  8028  1.00
      L1  H    14    40       P1  7948  2.00
      L1  C    21    39       P1  8028  1.00

> <Gold.PLP.Chemscore.Internal.Correction>
0.5228

> <Gold.Rescore>
     Score         DG    S(hbond)    S(metal)    S(lipo)     H(rot)  DE(clash)    DE(int)     intcor
     10.34     -16.84       1.93        0.00      78.56       1.68       2.42       4.08       ----

> <Gold.Chemscore.Fitness>
10.3358

> <Gold.Chemscore.DG>
-16.8370

> <Gold.Chemscore.ZeroCoef>
-5.4800

> <Gold.Chemscore.Hbond>
1.9343

> <Gold.Chemscore.Metal>
0.0000

> <Gold.Chemscore.Lipo>
78.5596

> <Gold.Chemscore.Internal_Hbond>
0.0000

> <Gold.Chemscore.DEClash>
2.4165

> <Gold.Chemscore.DEInternal>
4.0847

> <Gold.Chemscore.Rot>
1.6778

> <Gold.Chemscore.Internal.Correction>
   9.000000E+99

> <Gold.Chemscore.Hbonds>
donor molecule, donor type, donor heavy atom, donor atom, acceptor molecule, acceptor atom, score
      L1  H     7    28       P1  8028  0.92
      L1  H    14    40       P1  7948  0.96

> <Gold.Chemscore.Hbond.Weighted>
-6.4607

> <Gold.Chemscore.Metal.Weighted>
-0.0000

> <Gold.Chemscore.Lipo.Weighted>
-9.1915

> <Gold.Chemscore.Internal_Hbond.Weighted>
0.0000

> <Gold.Chemscore.DEClash.Weighted>
2.4165

> <Gold.Chemscore.DEInternal.Weighted>
4.0847

> <Gold.Chemscore.Rot.Weighted>
4.2951

> <Gold.Chemscore.Internal.Correction.Weighted>
   9.000000E+99

> <Gold.Protein.RotatedTorsions>
[ 6907 6896 6895 6894 ] final  170.99 input  -60.11 | X-H torsion
[ 7974 7965 7964 7962 ] final   58.11 input  175.53 | X-H torsion
[ 8008 7997 7996 7995 ] final  -75.13 input   59.86 | X-H torsion
[ 10167 10162 10161 10158 ] final -159.84 input  -65.29 | X-H torsion
[ 10718 10713 10712 10709 ] final  -55.62 input   66.30 | X-H torsion
[ 10763 10752 10751 10750 ] final   40.20 input  -60.55 | X-H torsion
[ 11005 11000 10999 10996 ] final  166.11 input  -57.11 | X-H torsion

> <Gold.Protein.ActiveResidues>
 VAL166  LYS551  ARG553  GLY616  TRP617  ASP618  TYR619  PRO620  LYS621  CYS622 
 ASP623  PHE694  ASN695  SER759  ASP760  ASP761  ALA762  ILE779  LEU786  VAL792 
 PHE793  MET794  SER795  GLU796  ALA797  LYS798  CYS799  TRP800  GLU811  SER814 

> <Gold.Protein.RotatedAtoms>
  151.8073  133.3377  159.3544 H   0  0  0  0  0  0  0  0  0  0  0  0  # atno 6907 bound_to 6896
  150.7338  134.5697  159.5893 H   0  0  0  0  0  0  0  0  0  0  0  0  # atno 6908 bound_to 6896
  152.3100  134.7510  160.0390 H   0  0  0  0  0  0  0  0  0  0  0  0  # atno 6909 bound_to 6896
  145.9217  139.3735  143.0474 H   0  0  0  0  0  0  0  0  0  0  0  0  # atno 7974 bound_to 7965
  154.5390  140.0749  156.8477 H   0  0  0  0  0  0  0  0  0  0  0  0  # atno 8008 bound_to 7997
  155.3220  140.3396  155.4223 H   0  0  0  0  0  0  0  0  0  0  0  0  # atno 8009 bound_to 7997
  156.1856  140.1667  156.8178 H   0  0  0  0  0  0  0  0  0  0  0  0  # atno 8010 bound_to 7997
  139.6585  143.9956  152.2209 H   0  0  0  0  0  0  0  0  0  0  0  0  # atno 10167 bound_to 10162
  156.1354  130.4157  150.0196 H   0  0  0  0  0  0  0  0  0  0  0  0  # atno 10718 bound_to 10713
  152.9943  135.6198  154.2588 H   0  0  0  0  0  0  0  0  0  0  0  0  # atno 10763 bound_to 10752
  154.2325  135.2791  155.2886 H   0  0  0  0  0  0  0  0  0  0  0  0  # atno 10764 bound_to 10752
  154.5438  135.5753  153.6920 H   0  0  0  0  0  0  0  0  0  0  0  0  # atno 10765 bound_to 10752
  140.2630  134.7887  157.3607 H   0  0  0  0  0  0  0  0  0  0  0  0  # atno 11005 bound_to 11000
  145.8541  140.9512  143.0734 LP  0  0  0  0  0  0  0  0  0  0  0  0  # atno 17320 bound_to 7965
  144.6754  140.0445  143.7480 LP  0  0  0  0  0  0  0  0  0  0  0  0  # atno 17321 bound_to 7965
  139.9688  144.6508  150.8008 LP  0  0  0  0  0  0  0  0  0  0  0  0  # atno 17342 bound_to 10162
  140.7569  143.3076  151.2923 LP  0  0  0  0  0  0  0  0  0  0  0  0  # atno 17343 bound_to 10162
  156.8096  130.9320  151.3644 LP  0  0  0  0  0  0  0  0  0  0  0  0  # atno 17370 bound_to 10713
  157.6527  130.8898  149.9665 LP  0  0  0  0  0  0  0  0  0  0  0  0  # atno 17371 bound_to 10713
  140.1446  134.4928  155.8006 LP  0  0  0  0  0  0  0  0  0  0  0  0  # atno 17394 bound_to 11000
  141.2188  133.6838  156.7271 LP  0  0  0  0  0  0  0  0  0  0  0  0  # atno 17395 bound_to 11000

$$$$
