AV-unprocessed.smi:2906|AV-procd|sdf|11165|dock6
  -GOLD-   2272016 53D 1   1.00000     0.00000
 Structure written by MMmdl.
 39 40  0  0  0  0  0  0  0  0  2 V2000
  155.6711  140.0927  161.1026 C   0  0  0  0  0  0  0  0  0  0  0  0
  154.6211  141.1798  160.8224 C   0  0  0  0  0  0  0  0  0  0  0  0
  153.7750  140.9144  159.5658 C   0  0  0  0  0  0  0  0  0  0  0  0
  153.9689  139.8960  158.9001 O   0  0  0  0  0  0  0  0  0  0  0  0
  152.8348  141.8213  159.2279 N   0  0  0  0  0  0  0  0  0  0  0  0
  152.5261  143.0443  159.9657 C   0  0  0  0  0  0  0  0  0  0  0  0
  151.2534  143.6061  159.3325 C   0  0  0  0  0  0  0  0  0  0  0  0
  151.2351  143.0279  157.9177 C   0  0  2  0  0  0  0  0  0  0  0  0
  149.8802  142.8273  157.4118 N   0  0  0  0  0  0  0  0  0  0  0  0
  148.9298  142.0822  157.9934 C   0  0  0  0  0  0  0  0  0  0  0  0
  149.1702  141.4942  159.0505 O   0  0  0  0  0  0  0  0  0  0  0  0
  147.7614  142.0625  157.3122 N   0  5  0  0  0  0  0  0  0  0  0  0
  146.6076  142.3194  157.9494 C   0  0  0  0  0  0  0  0  0  0  0  0
  146.4470  142.1463  159.2662 N   0  0  0  0  0  0  0  0  0  0  0  0
  145.1699  142.4823  159.7235 C   0  0  0  0  0  0  0  0  0  0  0  0
  144.8306  142.3316  161.1752 C   0  0  0  0  0  0  0  0  0  0  0  0
  144.5291  143.6767  161.8453 C   0  0  0  0  0  0  0  0  0  0  0  0
  144.3428  142.9298  158.7264 C   0  0  0  0  0  0  0  0  0  0  0  0
  145.1453  142.9421  157.1821 S   0  0  0  0  0  0  0  0  0  0  0  0
  151.9819  141.6959  158.0483 C   0  0  0  0  0  0  0  0  0  0  0  0
  156.2495  140.3375  161.9937 H   0  0  0  0  0  0  0  0  0  0  0  0
  156.3722  139.9925  160.2733 H   0  0  0  0  0  0  0  0  0  0  0  0
  155.2048  139.1214  161.2708 H   0  0  0  0  0  0  0  0  0  0  0  0
  153.9563  141.2643  161.6826 H   0  0  0  0  0  0  0  0  0  0  0  0
  155.1263  142.1401  160.7141 H   0  0  0  0  0  0  0  0  0  0  0  0
  152.3833  142.8626  161.0315 H   0  0  0  0  0  0  0  0  0  0  0  0
  153.3500  143.7492  159.8465 H   0  0  0  0  0  0  0  0  0  0  0  0
  150.3887  143.2489  159.8943 H   0  0  0  0  0  0  0  0  0  0  0  0
  151.2245  144.6961  159.3416 H   0  0  0  0  0  0  0  0  0  0  0  0
  151.7991  143.6827  157.2508 H   0  0  0  0  0  0  0  0  0  0  0  0
  149.6410  143.2918  156.5480 H   0  0  0  0  0  0  0  0  0  0  0  0
  143.9697  141.6721  161.2900 H   0  0  0  0  0  0  0  0  0  0  0  0
  145.6519  141.8450  161.7023 H   0  0  0  0  0  0  0  0  0  0  0  0
  144.2883  143.5402  162.8994 H   0  0  0  0  0  0  0  0  0  0  0  0
  143.6808  144.1716  161.3711 H   0  0  0  0  0  0  0  0  0  0  0  0
  145.3863  144.3474  161.7823 H   0  0  0  0  0  0  0  0  0  0  0  0
  143.3152  143.2510  158.8046 H   0  0  0  0  0  0  0  0  0  0  0  0
  152.5608  141.4807  157.1488 H   0  0  0  0  0  0  0  0  0  0  0  0
  151.2903  140.8669  158.2090 H   0  0  0  0  0  0  0  0  0  0  0  0
  1  2  1  0  0  0  0
  1 21  1  0  0  0  0
  1 22  1  0  0  0  0
  1 23  1  0  0  0  0
  2  3  1  0  0  0  0
  2 24  1  0  0  0  0
  2 25  1  0  0  0  0
  3  4  2  0  0  0  0
  3  5  1  0  0  0  0
  5 20  1  0  0  0  0
  5  6  1  0  0  0  0
  6  7  1  0  0  0  0
  6 26  1  0  0  0  0
  6 27  1  0  0  0  0
  7  8  1  0  0  0  0
  7 28  1  0  0  0  0
  7 29  1  0  0  0  0
  8  9  1  0  0  0  0
  8 20  1  0  0  0  0
  8 30  1  0  0  0  0
  9 10  1  0  0  0  0
  9 31  1  0  0  0  0
 10 11  2  0  0  0  0
 10 12  1  0  0  0  0
 12 13  1  0  0  0  0
 13 19  1  0  0  0  0
 13 14  2  0  0  0  0
 14 15  1  0  0  0  0
 15 16  1  0  0  0  0
 15 18  2  0  0  0  0
 16 17  1  0  0  0  0
 16 32  1  0  0  0  0
 16 33  1  0  0  0  0
 17 34  1  0  0  0  0
 17 35  1  0  0  0  0
 17 36  1  0  0  0  0
 18 19  1  0  0  0  0
 18 37  1  0  0  0  0
 20 38  1  0  0  0  0
 20 39  1  0  0  0  0
M  CHG  1  12  -1
M  END
> <s_m_source_file>
AV-unprocessed.smi

> <i_m_source_file_index>
2906

> <i_lp_mmshare_version>
43012

> <i_f3d_flags>
0

> <s_epik_input>
W0NIM11bQ0gyXUMoPU8pTjFbQ0gyXVtDSDJdW0NASF0oW0NIMl0xKVtOSF1DKD1PKVtOSF1jMm5jKFtjSF1zMilbQ0gyXVtDSDNd

> <s_epik_cmdline>
J2VwaWtfcHl0aG9uJywgJy1waCcsICc3LjAnLCAnLXRuJywgJzgnLCAnLW1hJywgJzIwMCcsICctbWV0YWxfYmluZGluZycsICctaW1hZScsICc8aW5maWxlLm1hZT4nLCAnLW9tYWUnLCAnPG91dGZpbGUubWFlPic=

> <r_lp_tautomer_probability>
1

> <r_epik_Ionization_Penalty>
7.20119

> <r_epik_Ionization_Penalty_Charging>
5.87168

> <r_epik_Ionization_Penalty_Neutral>
1.32951

> <r_epik_State_Penalty>
5.87165

> <r_epik_Charging_Adjusted_Penalty>
11.7433

> <i_epik_Tot_Q>
-1

> <i_epik_Tot_abs_Q>
1

> <r_epik_Metal_State_Penalty>
1.83511

> <b_epik_Metal_Only>
1

> <s_lp_Force_Field>
OPLS_2005

> <r_lp_Energy>
18.7216

> <b_lp_Chiralities_Consistent>
1

> <s_lp_Variant>
AV-unprocessed.smi:2906-4

> <Gold.Version>
5.8.1

> <Gold.Id.Protein>
6NUR|6NUR_protein|mol2

> <Gold.PLP.Fitness>
40.4757

> <Gold.PLP.PLP>
-32.6580

> <Gold.PLP.part.hbond>
-5.0000

> <Gold.PLP.part.metal>
0.0000

> <Gold.PLP.part.buried>
-1.6100

> <Gold.PLP.part.nonpolar>
-26.5012

> <Gold.PLP.part.repulsive>
0.2293

> <Gold.PLP.ligand.clash>
0.0000

> <Gold.PLP.ligand.torsion>
0.5995

> <Gold.PLP.Chemscore.Hbond>
2.9913

> <Gold.PLP.Chemscore.CHOScore>
0.0000

> <Gold.PLP.Chemscore.Metal>
0.0000

> <Gold.Chemscore.Hbonds>
donor molecule, donor type, donor heavy atom, donor atom, acceptor molecule, acceptor atom, score
      L1  H     9    31       P1  8028  0.99
      P1  H  6934  6946       L1    14  0.89
      P1  H  7997  8009       L1     4  1.00

> <Gold.PLP.Chemscore.Internal.Correction>
0.0431

> <Gold.Rescore>
     Score         DG    S(hbond)    S(metal)    S(lipo)     H(rot)  DE(clash)    DE(int)     intcor
     13.18     -17.65       2.19        0.00      71.70       1.39       0.30       4.17       ----

> <Gold.Chemscore.Fitness>
13.1771

> <Gold.Chemscore.DG>
-17.6530

> <Gold.Chemscore.ZeroCoef>
-5.4800

> <Gold.Chemscore.Hbond>
2.1949

> <Gold.Chemscore.Metal>
0.0000

> <Gold.Chemscore.Lipo>
71.7024

> <Gold.Chemscore.Internal_Hbond>
0.0000

> <Gold.Chemscore.DEClash>
0.3035

> <Gold.Chemscore.DEInternal>
4.1725

> <Gold.Chemscore.Rot>
1.3856

> <Gold.Chemscore.Internal.Correction>
   9.000000E+99

> <Gold.Chemscore.Hbonds>
donor molecule, donor type, donor heavy atom, donor atom, acceptor molecule, acceptor atom, score
      L1  H     9    31       P1  8028  0.93
      P1  H  6934  6946       L1    14  0.16
      P1  H  7997  8009       L1     4  0.92

> <Gold.Chemscore.Hbond.Weighted>
-7.3310

> <Gold.Chemscore.Metal.Weighted>
-0.0000

> <Gold.Chemscore.Lipo.Weighted>
-8.3892

> <Gold.Chemscore.Internal_Hbond.Weighted>
0.0000

> <Gold.Chemscore.DEClash.Weighted>
0.3035

> <Gold.Chemscore.DEInternal.Weighted>
4.1725

> <Gold.Chemscore.Rot.Weighted>
3.5471

> <Gold.Chemscore.Internal.Correction.Weighted>
   9.000000E+99

> <Gold.Protein.RotatedTorsions>
[ 6907 6896 6895 6894 ] final  -69.21 input  -60.11 | X-H torsion
[ 7974 7965 7964 7962 ] final   33.39 input  175.53 | X-H torsion
[ 8008 7997 7996 7995 ] final  146.40 input   59.86 | X-H torsion
[ 10167 10162 10161 10158 ] final -142.93 input  -65.29 | X-H torsion
[ 10718 10713 10712 10709 ] final  115.52 input   66.30 | X-H torsion
[ 10763 10752 10751 10750 ] final -152.09 input  -60.55 | X-H torsion
[ 11005 11000 10999 10996 ] final -153.31 input  -57.11 | X-H torsion

> <Gold.Protein.ActiveResidues>
 VAL166  LYS551  ARG553  GLY616  TRP617  ASP618  TYR619  PRO620  LYS621  CYS622 
 ASP623  PHE694  ASN695  SER759  ASP760  ASP761  ALA762  ILE779  LEU786  VAL792 
 PHE793  MET794  SER795  GLU796  ALA797  LYS798  CYS799  TRP800  GLU811  SER814 

> <Gold.Protein.RotatedAtoms>
  150.7317  134.5630  159.5851 H   0  0  0  0  0  0  0  0  0  0  0  0  # atno 6907 bound_to 6896
  152.3088  134.7519  160.0350 H   0  0  0  0  0  0  0  0  0  0  0  0  # atno 6908 bound_to 6896
  151.8074  133.3342  159.3582 H   0  0  0  0  0  0  0  0  0  0  0  0  # atno 6909 bound_to 6896
  146.1424  139.6403  142.9154 H   0  0  0  0  0  0  0  0  0  0  0  0  # atno 7974 bound_to 7965
  156.2856  140.2183  156.5370 H   0  0  0  0  0  0  0  0  0  0  0  0  # atno 8008 bound_to 7997
  154.7401  140.0488  157.0825 H   0  0  0  0  0  0  0  0  0  0  0  0  # atno 8009 bound_to 7997
  155.0242  140.3127  155.4785 H   0  0  0  0  0  0  0  0  0  0  0  0  # atno 8010 bound_to 7997
  139.8041  143.7792  152.2660 H   0  0  0  0  0  0  0  0  0  0  0  0  # atno 10167 bound_to 10162
  157.6217  131.1013  150.7341 H   0  0  0  0  0  0  0  0  0  0  0  0  # atno 10718 bound_to 10713
  154.8017  135.3244  154.7534 H   0  0  0  0  0  0  0  0  0  0  0  0  # atno 10763 bound_to 10752
  153.8201  135.6888  153.4833 H   0  0  0  0  0  0  0  0  0  0  0  0  # atno 10764 bound_to 10752
  153.1737  135.4613  154.9880 H   0  0  0  0  0  0  0  0  0  0  0  0  # atno 10765 bound_to 10752
  140.7095  134.3848  157.5199 H   0  0  0  0  0  0  0  0  0  0  0  0  # atno 11005 bound_to 11000
  145.5016  141.0437  143.2537 LP  0  0  0  0  0  0  0  0  0  0  0  0  # atno 17320 bound_to 7965
  144.7807  139.6532  143.7155 LP  0  0  0  0  0  0  0  0  0  0  0  0  # atno 17321 bound_to 7965
  139.7921  144.7406  150.9940 LP  0  0  0  0  0  0  0  0  0  0  0  0  # atno 17342 bound_to 10162
  140.7819  143.4431  151.0522 LP  0  0  0  0  0  0  0  0  0  0  0  0  # atno 17343 bound_to 10162
  156.7697  130.4825  149.5421 LP  0  0  0  0  0  0  0  0  0  0  0  0  # atno 17370 bound_to 10713
  156.1366  130.6215  151.0409 LP  0  0  0  0  0  0  0  0  0  0  0  0  # atno 17371 bound_to 10713
  139.8875  134.8880  156.2524 LP  0  0  0  0  0  0  0  0  0  0  0  0  # atno 17394 bound_to 11000
  141.0096  133.7103  156.1090 LP  0  0  0  0  0  0  0  0  0  0  0  0  # atno 17395 bound_to 11000

$$$$
