AV-unprocessed.smi:2981|AV-procd|sdf|11375|dock9
  -GOLD-   2272016293D 1   1.00000     0.00000
 Structure written by MMmdl.
 31 32  0  0  0  0  0  0  0  0  1 V2000
  151.0596  137.3885  160.0743 O   0  0  0  0  0  0  0  0  0  0  0  0
  150.5704  137.7230  158.9943 C   0  0  0  0  0  0  0  0  0  0  0  0
  149.2435  137.1182  158.5133 C   0  0  0  0  0  0  0  0  0  0  0  0
  148.6441  136.1913  159.4849 N   0  0  0  0  0  0  0  0  0  0  0  0
  148.0051  136.8159  160.5417 N   0  0  0  0  0  0  0  0  0  0  0  0
  147.4273  136.1015  161.4450 C   0  0  0  0  0  0  0  0  0  0  0  0
  147.4246  134.6560  161.3993 C   0  0  0  0  0  0  0  0  0  0  0  0
  146.6321  133.7507  162.6402 Cl  0  0  0  0  0  0  0  0  0  0  0  0
  148.0595  134.0535  160.3626 C   0  0  0  0  0  0  0  0  0  0  0  0
  148.1002  132.3278  160.2397 Cl  0  0  0  0  0  0  0  0  0  0  0  0
  148.7296  134.8358  159.3144 C   0  0  0  0  0  0  0  0  0  0  0  0
  149.3186  134.3275  158.3595 O   0  0  0  0  0  0  0  0  0  0  0  0
  151.1506  138.6059  158.1677 N   0  0  0  0  0  0  0  0  0  0  0  0
  152.4053  139.3016  158.4336 C   0  0  1  0  0  0  0  0  0  0  0  0
  152.1877  140.5045  159.3701 C   0  0  0  0  0  0  0  0  0  0  0  0
  153.5512  140.9716  159.8944 C   0  0  0  0  0  0  0  0  0  0  0  0
  154.6052  139.4738  159.9764 S   0  0  0  0  0  0  0  0  0  0  0  0
  155.8027  139.6887  159.1500 O   0  0  0  0  0  0  0  0  0  0  0  0
  154.7188  139.0263  161.3728 O   0  0  0  0  0  0  0  0  0  0  0  0
  153.4404  138.3733  159.0889 C   0  0  0  0  0  0  0  0  0  0  0  0
  148.5373  137.9174  158.2794 H   0  0  0  0  0  0  0  0  0  0  0  0
  149.4302  136.6072  157.5669 H   0  0  0  0  0  0  0  0  0  0  0  0
  146.9092  136.5492  162.2931 H   0  0  0  0  0  0  0  0  0  0  0  0
  150.6853  138.8185  157.2971 H   0  0  0  0  0  0  0  0  0  0  0  0
  152.8192  139.6799  157.4968 H   0  0  0  0  0  0  0  0  0  0  0  0
  151.6519  141.3142  158.8737 H   0  0  0  0  0  0  0  0  0  0  0  0
  151.5775  140.1928  160.2191 H   0  0  0  0  0  0  0  0  0  0  0  0
  154.0146  141.6697  159.1967 H   0  0  0  0  0  0  0  0  0  0  0  0
  153.4917  141.4462  160.8740 H   0  0  0  0  0  0  0  0  0  0  0  0
  152.9747  137.7184  159.8263 H   0  0  0  0  0  0  0  0  0  0  0  0
  153.9793  137.7575  158.3684 H   0  0  0  0  0  0  0  0  0  0  0  0
  1  2  2  0  0  0  0
  2  3  1  0  0  0  0
  2 13  1  0  0  0  0
  3  4  1  0  0  0  0
  3 21  1  0  0  0  0
  3 22  1  0  0  0  0
  4 11  1  0  0  0  0
  4  5  1  0  0  0  0
  5  6  2  0  0  0  0
  6  7  1  0  0  0  0
  6 23  1  0  0  0  0
  7  8  1  0  0  0  0
  7  9  2  0  0  0  0
  9 10  1  0  0  0  0
  9 11  1  0  0  0  0
 11 12  2  0  0  0  0
 13 14  1  0  0  0  0
 13 24  1  0  0  0  0
 14 20  1  0  0  0  0
 14 15  1  0  0  0  0
 14 25  1  0  0  0  0
 15 16  1  0  0  0  0
 15 26  1  0  0  0  0
 15 27  1  0  0  0  0
 16 17  1  0  0  0  0
 16 28  1  0  0  0  0
 16 29  1  0  0  0  0
 17 18  2  0  0  0  0
 17 19  2  0  0  0  0
 17 20  1  0  0  0  0
 20 30  1  0  0  0  0
 20 31  1  0  0  0  0
M  END
> <s_m_source_file>
AV-unprocessed.smi

> <i_m_source_file_index>
2981

> <i_lp_mmshare_version>
43012

> <i_f3d_flags>
0

> <s_epik_input>
Tz1TMSg9TylbQ0gyXVtDSDJdW0NASF0oW0NIMl0xKVtOSF1DKD1PKVtDSDJdbjJuW2NIXWMoQ2wpYyhDbCljMj1P

> <s_epik_cmdline>
J2VwaWtfcHl0aG9uJywgJy1waCcsICc3LjAnLCAnLXRuJywgJzgnLCAnLW1hJywgJzIwMCcsICctbWV0YWxfYmluZGluZycsICctaW1hZScsICc8aW5maWxlLm1hZT4nLCAnLW9tYWUnLCAnPG91dGZpbGUubWFlPic=

> <r_lp_tautomer_probability>
1

> <r_epik_Ionization_Penalty>
1.07216e-07

> <r_epik_Ionization_Penalty_Charging>
2.33395e-11

> <r_epik_Ionization_Penalty_Neutral>
1.07193e-07

> <r_epik_State_Penalty>
-0

> <r_epik_Charging_Adjusted_Penalty>
2.33395e-11

> <i_epik_Tot_Q>
0

> <i_epik_Tot_abs_Q>
0

> <r_epik_Metal_State_Penalty>
-0

> <b_epik_Metal_Only>
0

> <s_lp_Force_Field>
OPLS_2005

> <r_lp_Energy>
17.277

> <b_lp_Chiralities_Consistent>
1

> <s_lp_Variant>
AV-unprocessed.smi:2981-2

> <Gold.Version>
5.8.1

> <Gold.Id.Protein>
6NUR|6NUR_protein|mol2

> <Gold.PLP.Fitness>
38.1613

> <Gold.PLP.PLP>
-28.6197

> <Gold.PLP.part.hbond>
-5.0000

> <Gold.PLP.part.metal>
0.0000

> <Gold.PLP.part.buried>
-0.6127

> <Gold.PLP.part.nonpolar>
-24.1548

> <Gold.PLP.part.repulsive>
0.0811

> <Gold.PLP.ligand.clash>
0.0000

> <Gold.PLP.ligand.torsion>
0.5217

> <Gold.PLP.Chemscore.Hbond>
3.5280

> <Gold.PLP.Chemscore.CHOScore>
0.0000

> <Gold.PLP.Chemscore.Metal>
0.0000

> <Gold.Chemscore.Hbonds>
donor molecule, donor type, donor heavy atom, donor atom, acceptor molecule, acceptor atom, score
      P1  H  6896  6908       L1    12  0.55
      P1  H  6896  6909       L1     1  0.19
      P1  H  6931  6943       L1     5  0.41
      P1  H  6934  6947       L1     5  0.11
      P1  H  7997  8008       L1    18  1.00

> <Gold.PLP.Chemscore.Internal.Correction>
0.0010

> <Gold.Rescore>
     Score         DG    S(hbond)    S(metal)    S(lipo)     H(rot)  DE(clash)    DE(int)     intcor
     13.48     -16.10       2.23        0.00      64.51       1.70       0.59       2.03       ----

> <Gold.Chemscore.Fitness>
13.4781

> <Gold.Chemscore.DG>
-16.1036

> <Gold.Chemscore.ZeroCoef>
-5.4800

> <Gold.Chemscore.Hbond>
2.2277

> <Gold.Chemscore.Metal>
0.0000

> <Gold.Chemscore.Lipo>
64.5085

> <Gold.Chemscore.Internal_Hbond>
0.0000

> <Gold.Chemscore.DEClash>
0.5917

> <Gold.Chemscore.DEInternal>
2.0337

> <Gold.Chemscore.Rot>
1.7049

> <Gold.Chemscore.Internal.Correction>
   9.000000E+99

> <Gold.Chemscore.Hbonds>
donor molecule, donor type, donor heavy atom, donor atom, acceptor molecule, acceptor atom, score
      P1  H  6896  6908       L1    12  0.03
      P1  H  6896  6909       L1     1  0.16
      P1  H  6931  6943       L1     5  0.08
      P1  H  6934  6947       L1     5  0.06
      P1  H  7997  8008       L1    18  0.94

> <Gold.Chemscore.Hbond.Weighted>
-7.4407

> <Gold.Chemscore.Metal.Weighted>
-0.0000

> <Gold.Chemscore.Lipo.Weighted>
-7.5475

> <Gold.Chemscore.Internal_Hbond.Weighted>
0.0000

> <Gold.Chemscore.DEClash.Weighted>
0.5917

> <Gold.Chemscore.DEInternal.Weighted>
2.0337

> <Gold.Chemscore.Rot.Weighted>
4.3646

> <Gold.Chemscore.Internal.Correction.Weighted>
   9.000000E+99

> <Gold.Protein.RotatedTorsions>
[ 6907 6896 6895 6894 ] final  132.69 input  -60.11 | X-H torsion
[ 7974 7965 7964 7962 ] final   45.13 input  175.53 | X-H torsion
[ 8008 7997 7996 7995 ] final -143.89 input   59.86 | X-H torsion
[ 10167 10162 10161 10158 ] final -160.36 input  -65.29 | X-H torsion
[ 10718 10713 10712 10709 ] final   17.69 input   66.30 | X-H torsion
[ 10763 10752 10751 10750 ] final   13.33 input  -60.55 | X-H torsion
[ 11005 11000 10999 10996 ] final  -72.07 input  -57.11 | X-H torsion

> <Gold.Protein.ActiveResidues>
 VAL166  LYS551  ARG553  GLY616  TRP617  ASP618  TYR619  PRO620  LYS621  CYS622 
 ASP623  PHE694  ASN695  SER759  ASP760  ASP761  ALA762  ILE779  LEU786  VAL792 
 PHE793  MET794  SER795  GLU796  ALA797  LYS798  CYS799  TRP800  GLU811  SER814 

> <Gold.Protein.RotatedAtoms>
  152.3298  133.5945  159.5801 H   0  0  0  0  0  0  0  0  0  0  0  0  # atno 6907 bound_to 6896
  150.7417  133.9885  159.3608 H   0  0  0  0  0  0  0  0  0  0  0  0  # atno 6908 bound_to 6896
  151.7761  135.0774  160.0418 H   0  0  0  0  0  0  0  0  0  0  0  0  # atno 6909 bound_to 6896
  146.0507  139.4998  142.9720 H   0  0  0  0  0  0  0  0  0  0  0  0  # atno 7974 bound_to 7965
  155.5180  140.0589  157.2912 H   0  0  0  0  0  0  0  0  0  0  0  0  # atno 8008 bound_to 7997
  154.4528  140.1957  156.0415 H   0  0  0  0  0  0  0  0  0  0  0  0  # atno 8009 bound_to 7997
  156.0738  140.3256  155.7613 H   0  0  0  0  0  0  0  0  0  0  0  0  # atno 8010 bound_to 7997
  139.6545  144.0024  152.2184 H   0  0  0  0  0  0  0  0  0  0  0  0  # atno 10167 bound_to 10162
  157.0856  130.6406  149.5837 H   0  0  0  0  0  0  0  0  0  0  0  0  # atno 10718 bound_to 10713
  153.1732  135.6816  153.8579 H   0  0  0  0  0  0  0  0  0  0  0  0  # atno 10763 bound_to 10752
  153.7936  135.3165  155.3382 H   0  0  0  0  0  0  0  0  0  0  0  0  # atno 10764 bound_to 10752
  154.8012  135.4777  154.0372 H   0  0  0  0  0  0  0  0  0  0  0  0  # atno 10765 bound_to 10752
  141.1602  133.6836  156.7002 H   0  0  0  0  0  0  0  0  0  0  0  0  # atno 11005 bound_to 11000
  145.6729  141.0212  143.1648 LP  0  0  0  0  0  0  0  0  0  0  0  0  # atno 17320 bound_to 7965
  144.7121  139.8331  143.7411 LP  0  0  0  0  0  0  0  0  0  0  0  0  # atno 17321 bound_to 7965
  139.9747  144.6470  150.7956 LP  0  0  0  0  0  0  0  0  0  0  0  0  # atno 17342 bound_to 10162
  140.7553  143.3043  151.3001 LP  0  0  0  0  0  0  0  0  0  0  0  0  # atno 17343 bound_to 10162
  155.9911  130.4965  150.7287 LP  0  0  0  0  0  0  0  0  0  0  0  0  # atno 17370 bound_to 10713
  157.4763  131.0898  151.0586 LP  0  0  0  0  0  0  0  0  0  0  0  0  # atno 17371 bound_to 10713
  140.2964  134.8199  157.4061 LP  0  0  0  0  0  0  0  0  0  0  0  0  # atno 17394 bound_to 11000
  140.1300  134.5107  155.8113 LP  0  0  0  0  0  0  0  0  0  0  0  0  # atno 17395 bound_to 11000

$$$$
