AV-unprocessed.smi:2702|AV-procd|sdf|10434|dock6
  -GOLD-   2272014473D 1   1.00000     0.00000
 Structure written by MMmdl.
 47 48  0  0  0  0  0  0  0  0  1 V2000
  151.2624  141.7936  158.8063 C   0  0  0  0  0  0  0  0  0  0  0  0
  150.8840  142.6261  157.7242 O   0  0  0  0  0  0  0  0  0  0  0  0
  151.6503  142.3806  156.5569 C   0  0  0  0  0  0  0  0  0  0  0  0
  151.3645  140.9937  156.0179 C   0  0  0  0  0  0  0  0  0  0  0  0
  150.1829  140.6787  155.4379 C   0  0  0  0  0  0  0  0  0  0  0  0
  149.9345  139.3266  154.9375 C   0  0  0  0  0  0  0  0  0  0  0  0
  148.8750  139.0016  154.4005 O   0  0  0  0  0  0  0  0  0  0  0  0
  150.9687  138.4508  155.1097 N   0  0  0  0  0  0  0  0  0  0  0  0
  150.8697  137.0525  154.6528 C   0  0  0  0  0  0  0  0  0  0  0  0
  149.8167  136.2403  155.4201 C   0  0  0  0  0  0  0  0  0  0  0  0
  149.8908  136.1127  156.6428 O   0  0  0  0  0  0  0  0  0  0  0  0
  148.8468  135.6892  154.6746 N   0  0  0  0  0  0  0  0  0  0  0  0
  147.7197  134.8942  155.1670 C   0  0  2  0  0  0  0  0  0  0  0  0
  148.2423  133.6235  155.8619 C   0  0  0  0  0  0  0  0  0  0  0  0
  148.8567  132.6348  154.8604 C   0  0  0  0  0  0  0  0  0  0  0  0
  147.8576  132.2864  153.7490 C   0  0  0  0  0  0  0  0  0  0  0  0
  147.3373  133.5413  153.0174 C   0  0  1  0  0  0  0  0  0  0  0  0
  146.3537  133.1258  151.9087 C   0  0  0  0  0  0  0  0  0  0  0  0
  146.7221  134.5493  154.0285 C   0  0  2  0  0  0  0  0  0  0  0  0
  146.1710  135.8225  153.3542 C   0  0  0  0  0  0  0  0  0  0  0  0
  152.1737  138.8282  155.7352 C   0  0  0  0  0  0  0  0  0  0  0  0
  152.3694  140.0329  156.1681 N   0  0  0  0  0  0  0  0  0  0  0  0
  150.6434  142.0182  159.6750 H   0  0  0  0  0  0  0  0  0  0  0  0
  152.3045  141.9576  159.0839 H   0  0  0  0  0  0  0  0  0  0  0  0
  151.1270  140.7397  158.5593 H   0  0  0  0  0  0  0  0  0  0  0  0
  151.4087  143.1154  155.7867 H   0  0  0  0  0  0  0  0  0  0  0  0
  152.7146  142.4818  156.7778 H   0  0  0  0  0  0  0  0  0  0  0  0
  149.4118  141.4286  155.3366 H   0  0  0  0  0  0  0  0  0  0  0  0
  150.6336  137.0354  153.5868 H   0  0  0  0  0  0  0  0  0  0  0  0
  151.8252  136.5317  154.7372 H   0  0  0  0  0  0  0  0  0  0  0  0
  148.8770  135.8505  153.6783 H   0  0  0  0  0  0  0  0  0  0  0  0
  147.1798  135.4678  155.9223 H   0  0  0  0  0  0  0  0  0  0  0  0
  148.9743  133.8848  156.6271 H   0  0  0  0  0  0  0  0  0  0  0  0
  147.4185  133.1360  156.3847 H   0  0  0  0  0  0  0  0  0  0  0  0
  149.7607  133.0596  154.4224 H   0  0  0  0  0  0  0  0  0  0  0  0
  149.1652  131.7269  155.3795 H   0  0  0  0  0  0  0  0  0  0  0  0
  148.3331  131.6100  153.0376 H   0  0  0  0  0  0  0  0  0  0  0  0
  147.0182  131.7378  154.1786 H   0  0  0  0  0  0  0  0  0  0  0  0
  148.1885  134.0199  152.5310 H   0  0  0  0  0  0  0  0  0  0  0  0
  145.4396  132.7032  152.3269 H   0  0  0  0  0  0  0  0  0  0  0  0
  146.7968  132.3740  151.2548 H   0  0  0  0  0  0  0  0  0  0  0  0
  146.0765  133.9689  151.2765 H   0  0  0  0  0  0  0  0  0  0  0  0
  145.8705  134.0554  154.4992 H   0  0  0  0  0  0  0  0  0  0  0  0
  146.9270  136.3141  152.7411 H   0  0  0  0  0  0  0  0  0  0  0  0
  145.8295  136.5418  154.0992 H   0  0  0  0  0  0  0  0  0  0  0  0
  145.3170  135.6012  152.7146 H   0  0  0  0  0  0  0  0  0  0  0  0
  152.9209  138.0388  155.8309 H   0  0  0  0  0  0  0  0  0  0  0  0
  1  2  1  0  0  0  0
  1 23  1  0  0  0  0
  1 24  1  0  0  0  0
  1 25  1  0  0  0  0
  2  3  1  0  0  0  0
  3  4  1  0  0  0  0
  3 26  1  0  0  0  0
  3 27  1  0  0  0  0
  4 22  1  0  0  0  0
  4  5  2  0  0  0  0
  5  6  1  0  0  0  0
  5 28  1  0  0  0  0
  6  7  2  0  0  0  0
  6  8  1  0  0  0  0
  8  9  1  0  0  0  0
  8 21  1  0  0  0  0
  9 10  1  0  0  0  0
  9 29  1  0  0  0  0
  9 30  1  0  0  0  0
 10 11  2  0  0  0  0
 10 12  1  0  0  0  0
 12 13  1  0  0  0  0
 12 31  1  0  0  0  0
 13 19  1  0  0  0  0
 13 14  1  0  0  0  0
 13 32  1  0  0  0  0
 14 15  1  0  0  0  0
 14 33  1  0  0  0  0
 14 34  1  0  0  0  0
 15 16  1  0  0  0  0
 15 35  1  0  0  0  0
 15 36  1  0  0  0  0
 16 17  1  0  0  0  0
 16 37  1  0  0  0  0
 16 38  1  0  0  0  0
 17 18  1  0  0  0  0
 17 19  1  0  0  0  0
 17 39  1  0  0  0  0
 18 40  1  0  0  0  0
 18 41  1  0  0  0  0
 18 42  1  0  0  0  0
 19 20  1  0  0  0  0
 19 43  1  0  0  0  0
 20 44  1  0  0  0  0
 20 45  1  0  0  0  0
 20 46  1  0  0  0  0
 21 22  2  0  0  0  0
 21 47  1  0  0  0  0
M  END
> <s_m_source_file>
AV-unprocessed.smi

> <i_m_source_file_index>
2702

> <i_lp_mmshare_version>
43012

> <i_f3d_flags>
0

> <s_epik_input>
W0NIM11PW0NIMl1jMVtjSF1jKD1PKW4oW2NIXW4xKVtDSDJdQyg9TylbTkhdW0NAQEhdMltDSDJdW0NIMl1bQ0gyXVtDQEBIXShbQ0gzXSlbQ0BIXTJbQ0gzXQ==

> <s_epik_cmdline>
J2VwaWtfcHl0aG9uJywgJy1waCcsICc3LjAnLCAnLXRuJywgJzgnLCAnLW1hJywgJzIwMCcsICctbWV0YWxfYmluZGluZycsICctaW1hZScsICc8aW5maWxlLm1hZT4nLCAnLW9tYWUnLCAnPG91dGZpbGUubWFlPic=

> <r_lp_tautomer_probability>
1

> <r_epik_Ionization_Penalty>
1.22164e-06

> <r_epik_Ionization_Penalty_Charging>
3.17988e-07

> <r_epik_Ionization_Penalty_Neutral>
9.03656e-07

> <r_epik_State_Penalty>
-0

> <r_epik_Charging_Adjusted_Penalty>
3.17988e-07

> <i_epik_Tot_Q>
0

> <i_epik_Tot_abs_Q>
0

> <r_epik_Metal_State_Penalty>
-0

> <b_epik_Metal_Only>
0

> <s_lp_Force_Field>
OPLS_2005

> <r_lp_Energy>
16.9419

> <b_lp_Chiralities_Consistent>
1

> <s_lp_Variant>
AV-unprocessed.smi:2702-5

> <Gold.Version>
5.8.1

> <Gold.Id.Protein>
6NUR|6NUR_protein|mol2

> <Gold.PLP.Fitness>
38.7341

> <Gold.PLP.PLP>
-33.2361

> <Gold.PLP.part.hbond>
-2.0000

> <Gold.PLP.part.metal>
0.0000

> <Gold.PLP.part.buried>
-2.7115

> <Gold.PLP.part.nonpolar>
-30.2336

> <Gold.PLP.part.repulsive>
0.2574

> <Gold.PLP.ligand.clash>
0.0000

> <Gold.PLP.ligand.torsion>
0.1866

> <Gold.PLP.Chemscore.Hbond>
1.9417

> <Gold.PLP.Chemscore.CHOScore>
0.0000

> <Gold.PLP.Chemscore.Metal>
0.0000

> <Gold.Chemscore.Hbonds>
donor molecule, donor type, donor heavy atom, donor atom, acceptor molecule, acceptor atom, score
      L1  H    12    31       P1  7948  1.00
      P1  H  7997  8008       L1    22  1.00

> <Gold.PLP.Chemscore.Internal.Correction>
0.0462

> <Gold.Rescore>
     Score         DG    S(hbond)    S(metal)    S(lipo)     H(rot)  DE(clash)    DE(int)     intcor
     13.07     -15.00       1.90        0.00      69.39       1.93       1.66       0.27       ----

> <Gold.Chemscore.Fitness>
13.0670

> <Gold.Chemscore.DG>
-15.0020

> <Gold.Chemscore.ZeroCoef>
-5.4800

> <Gold.Chemscore.Hbond>
1.8983

> <Gold.Chemscore.Metal>
0.0000

> <Gold.Chemscore.Lipo>
69.3877

> <Gold.Chemscore.Internal_Hbond>
0.0000

> <Gold.Chemscore.DEClash>
1.6634

> <Gold.Chemscore.DEInternal>
0.2716

> <Gold.Chemscore.Rot>
1.9284

> <Gold.Chemscore.Internal.Correction>
   9.000000E+99

> <Gold.Chemscore.Hbonds>
donor molecule, donor type, donor heavy atom, donor atom, acceptor molecule, acceptor atom, score
      L1  H    12    31       P1  7948  0.97
      P1  H  7997  8008       L1    22  0.39

> <Gold.Chemscore.Hbond.Weighted>
-6.3404

> <Gold.Chemscore.Metal.Weighted>
-0.0000

> <Gold.Chemscore.Lipo.Weighted>
-8.1184

> <Gold.Chemscore.Internal_Hbond.Weighted>
0.0000

> <Gold.Chemscore.DEClash.Weighted>
1.6634

> <Gold.Chemscore.DEInternal.Weighted>
0.2716

> <Gold.Chemscore.Rot.Weighted>
4.9368

> <Gold.Chemscore.Internal.Correction.Weighted>
   9.000000E+99

> <Gold.Protein.RotatedTorsions>
[ 6907 6896 6895 6894 ] final -104.67 input  -60.11 | X-H torsion
[ 7974 7965 7964 7962 ] final   -8.10 input  175.53 | X-H torsion
[ 8008 7997 7996 7995 ] final  -41.66 input   59.86 | X-H torsion
[ 10167 10162 10161 10158 ] final   62.63 input  -65.29 | X-H torsion
[ 10718 10713 10712 10709 ] final  106.81 input   66.30 | X-H torsion
[ 10763 10752 10751 10750 ] final  107.67 input  -60.55 | X-H torsion
[ 11005 11000 10999 10996 ] final -113.67 input  -57.11 | X-H torsion

> <Gold.Protein.ActiveResidues>
 VAL166  LYS551  ARG553  GLY616  TRP617  ASP618  TYR619  PRO620  LYS621  CYS622 
 ASP623  PHE694  ASN695  SER759  ASP760  ASP761  ALA762  ILE779  LEU786  VAL792 
 PHE793  MET794  SER795  GLU796  ALA797  LYS798  CYS799  TRP800  GLU811  SER814 

> <Gold.Protein.RotatedAtoms>
  150.7298  134.0243  159.3711 H   0  0  0  0  0  0  0  0  0  0  0  0  # atno 6907 bound_to 6896
  151.8209  135.0650  160.0434 H   0  0  0  0  0  0  0  0  0  0  0  0  # atno 6908 bound_to 6896
  152.3004  133.5614  159.5651 H   0  0  0  0  0  0  0  0  0  0  0  0  # atno 6909 bound_to 6896
  146.2289  140.2418  142.8344 H   0  0  0  0  0  0  0  0  0  0  0  0  # atno 7974 bound_to 7965
  154.4003  140.1493  156.3227 H   0  0  0  0  0  0  0  0  0  0  0  0  # atno 8008 bound_to 7997
  155.8515  140.3457  155.5675 H   0  0  0  0  0  0  0  0  0  0  0  0  # atno 8009 bound_to 7997
  155.7979  140.0866  157.1964 H   0  0  0  0  0  0  0  0  0  0  0  0  # atno 8010 bound_to 7997
  140.1418  144.4546  150.6807 H   0  0  0  0  0  0  0  0  0  0  0  0  # atno 10167 bound_to 10162
  157.6653  131.0859  150.6063 H   0  0  0  0  0  0  0  0  0  0  0  0  # atno 10718 bound_to 10713
  153.4099  135.3837  155.2043 H   0  0  0  0  0  0  0  0  0  0  0  0  # atno 10763 bound_to 10752
  154.8737  135.3792  154.4513 H   0  0  0  0  0  0  0  0  0  0  0  0  # atno 10764 bound_to 10752
  153.5021  135.7088  153.5888 H   0  0  0  0  0  0  0  0  0  0  0  0  # atno 10765 bound_to 10752
  141.0600  133.9551  157.2684 H   0  0  0  0  0  0  0  0  0  0  0  0  # atno 11005 bound_to 11000
  144.9479  140.8147  143.5590 LP  0  0  0  0  0  0  0  0  0  0  0  0  # atno 17320 bound_to 7965
  145.2376  139.2087  143.5010 LP  0  0  0  0  0  0  0  0  0  0  0  0  # atno 17321 bound_to 7965
  140.6756  143.2303  151.5516 LP  0  0  0  0  0  0  0  0  0  0  0  0  # atno 17342 bound_to 10162
  139.5468  144.2499  152.1457 LP  0  0  0  0  0  0  0  0  0  0  0  0  # atno 17343 bound_to 10162
  156.6364  130.4446  149.5768 LP  0  0  0  0  0  0  0  0  0  0  0  0  # atno 17370 bound_to 10713
  156.2243  130.6756  151.1400 LP  0  0  0  0  0  0  0  0  0  0  0  0  # atno 17371 bound_to 10713
  139.9424  135.0189  156.8749 LP  0  0  0  0  0  0  0  0  0  0  0  0  # atno 17394 bound_to 11000
  140.5888  134.0282  155.7491 LP  0  0  0  0  0  0  0  0  0  0  0  0  # atno 17395 bound_to 11000

$$$$
