AV-unprocessed.smi:2002|AV-procd|sdf|8114|dock3
  -GOLD-   2272010343D 1   1.00000     0.00000
 Structure written by MMmdl.
 39 40  0  0  0  0  0  0  0  0  2 V2000
  145.9205  132.6314  150.7614 C   0  0  0  0  0  0  0  0  0  0  0  0
  146.0348  131.6607  151.9446 C   0  0  0  0  0  0  0  0  0  0  0  0
  147.4236  131.5625  152.4510 N   0  3  2  0  0  0  0  0  0  0  0  0
  147.6083  130.5535  153.5160 C   0  0  0  0  0  0  0  0  0  0  0  0
  148.7674  131.0685  154.3648 C   0  0  0  0  0  0  0  0  0  0  0  0
  148.5385  132.5770  154.3545 C   0  0  1  0  0  0  0  0  0  0  0  0
  149.7769  133.4008  154.7568 C   0  0  0  0  0  0  0  0  0  0  0  0
  149.6572  134.8003  154.3574 N   0  0  0  0  0  0  0  0  0  0  0  0
  150.0952  135.8533  155.0631 C   0  0  0  0  0  0  0  0  0  0  0  0
  150.6668  135.7507  156.1483 O   0  0  0  0  0  0  0  0  0  0  0  0
  149.8337  137.0076  154.4272 N   0  0  0  0  0  0  0  0  0  0  0  0
  150.1541  138.3294  154.8322 C   0  0  0  0  0  0  0  0  0  0  0  0
  150.9088  138.7005  155.9831 C   0  0  0  0  0  0  0  0  0  0  0  0
  150.9259  140.0647  155.9109 C   0  0  0  0  0  0  0  0  0  0  0  0
  151.5292  141.1180  156.7752 C   0  0  0  0  0  0  0  0  0  0  0  0
  150.2439  140.4902  154.8136 O   0  0  0  0  0  0  0  0  0  0  0  0
  149.7530  139.3723  154.1290 N   0  0  0  0  0  0  0  0  0  0  0  0
  148.0100  132.8366  152.9341 C   0  0  0  0  0  0  0  0  0  0  0  0
  144.8999  132.6536  150.3789 H   0  0  0  0  0  0  0  0  0  0  0  0
  146.5742  132.3325  149.9415 H   0  0  0  0  0  0  0  0  0  0  0  0
  146.1849  133.6497  151.0466 H   0  0  0  0  0  0  0  0  0  0  0  0
  145.3641  131.9586  152.7518 H   0  0  0  0  0  0  0  0  0  0  0  0
  145.7111  130.6722  151.6157 H   0  0  0  0  0  0  0  0  0  0  0  0
  146.7082  130.4942  154.1307 H   0  0  0  0  0  0  0  0  0  0  0  0
  147.7980  129.5628  153.1017 H   0  0  0  0  0  0  0  0  0  0  0  0
  148.7733  130.6471  155.3705 H   0  0  0  0  0  0  0  0  0  0  0  0
  149.7179  130.8235  153.8883 H   0  0  0  0  0  0  0  0  0  0  0  0
  147.7324  132.7898  155.0593 H   0  0  0  0  0  0  0  0  0  0  0  0
  149.8899  133.3792  155.8408 H   0  0  0  0  0  0  0  0  0  0  0  0
  150.6866  132.9563  154.3489 H   0  0  0  0  0  0  0  0  0  0  0  0
  149.1960  134.9806  153.4773 H   0  0  0  0  0  0  0  0  0  0  0  0
  149.3536  136.9347  153.5422 H   0  0  0  0  0  0  0  0  0  0  0  0
  151.3669  138.0867  156.7435 H   0  0  0  0  0  0  0  0  0  0  0  0
  151.9025  140.6907  157.7061 H   0  0  0  0  0  0  0  0  0  0  0  0
  150.7933  141.8822  157.0257 H   0  0  0  0  0  0  0  0  0  0  0  0
  152.3626  141.6029  156.2671 H   0  0  0  0  0  0  0  0  0  0  0  0
  148.8223  133.0976  152.2556 H   0  0  0  0  0  0  0  0  0  0  0  0
  147.2978  133.6630  152.9282 H   0  0  0  0  0  0  0  0  0  0  0  0
  148.0000  131.2624  151.6775 H   0  0  0  0  0  0  0  0  0  0  0  0
  1  2  1  0  0  0  0
  1 19  1  0  0  0  0
  1 20  1  0  0  0  0
  1 21  1  0  0  0  0
  2  3  1  0  0  0  0
  2 22  1  0  0  0  0
  2 23  1  0  0  0  0
  3 18  1  0  0  0  0
  3  4  1  0  0  0  0
  3 39  1  0  0  0  0
  4  5  1  0  0  0  0
  4 24  1  0  0  0  0
  4 25  1  0  0  0  0
  5  6  1  0  0  0  0
  5 26  1  0  0  0  0
  5 27  1  0  0  0  0
  6  7  1  0  0  0  0
  6 18  1  0  0  0  0
  6 28  1  0  0  0  0
  7  8  1  0  0  0  0
  7 29  1  0  0  0  0
  7 30  1  0  0  0  0
  8  9  1  0  0  0  0
  8 31  1  0  0  0  0
  9 10  2  0  0  0  0
  9 11  1  0  0  0  0
 11 12  1  0  0  0  0
 11 32  1  0  0  0  0
 12 17  2  0  0  0  0
 12 13  1  0  0  0  0
 13 14  2  0  0  0  0
 13 33  1  0  0  0  0
 14 15  1  0  0  0  0
 14 16  1  0  0  0  0
 15 34  1  0  0  0  0
 15 35  1  0  0  0  0
 15 36  1  0  0  0  0
 16 17  1  0  0  0  0
 18 37  1  0  0  0  0
 18 38  1  0  0  0  0
M  CHG  1   3   1
M  END
> <s_m_source_file>
AV-unprocessed.smi

> <i_m_source_file_index>
2002

> <i_lp_mmshare_version>
43012

> <i_f3d_flags>
0

> <s_epik_input>
W0NIM11bQ0gyXU4xW0NIMl1bQ0gyXVtDQEhdKFtDSDJdMSlbQ0gyXVtOSF1DKD1PKVtOSF1jMltjSF1jKFtDSDNdKW9uMg==

> <s_epik_cmdline>
J2VwaWtfcHl0aG9uJywgJy1waCcsICc3LjAnLCAnLXRuJywgJzgnLCAnLW1hJywgJzIwMCcsICctbWV0YWxfYmluZGluZycsICctaW1hZScsICc8aW5maWxlLm1hZT4nLCAnLW9tYWUnLCAnPG91dGZpbGUubWFlPic=

> <r_epik_Ionization_Penalty>
0.000632871

> <r_epik_Ionization_Penalty_Charging>
0.000610951

> <r_epik_Ionization_Penalty_Neutral>
2.19198e-05

> <r_epik_State_Penalty>
0.000385263

> <r_epik_Charging_Adjusted_Penalty>
0.000996214

> <i_epik_Tot_Q>
1

> <i_epik_Tot_abs_Q>
1

> <r_epik_Metal_State_Penalty>
-0

> <b_epik_Metal_Only>
0

> <s_lp_Force_Field>
OPLS_2005

> <r_lp_Energy>
27.554

> <b_lp_Chiralities_Consistent>
1

> <s_lp_Variant>
AV-unprocessed.smi:2002-2

> <Gold.Version>
5.8.1

> <Gold.Id.Protein>
6NUR|6NUR_protein|mol2

> <Gold.PLP.Fitness>
40.1271

> <Gold.PLP.PLP>
-30.0416

> <Gold.PLP.part.hbond>
-4.0831

> <Gold.PLP.part.metal>
0.0000

> <Gold.PLP.part.buried>
-6.1251

> <Gold.PLP.part.nonpolar>
-21.2676

> <Gold.PLP.part.repulsive>
1.1135

> <Gold.PLP.ligand.clash>
0.0000

> <Gold.PLP.ligand.torsion>
0.3047

> <Gold.PLP.Chemscore.Hbond>
3.5616

> <Gold.PLP.Chemscore.CHOScore>
0.0000

> <Gold.PLP.Chemscore.Metal>
0.0000

> <Gold.Chemscore.Hbonds>
donor molecule, donor type, donor heavy atom, donor atom, acceptor molecule, acceptor atom, score
      L1  H     3    39       P1 10747  1.00
      L1  H     8    31       P1  7948  0.82
      L1  H    11    32       P1  7948  1.00
      P1  H  7989  7998       L1    16  0.73

> <Gold.PLP.Chemscore.Internal.Correction>
0.0101

> <Gold.Rescore>
     Score         DG    S(hbond)    S(metal)    S(lipo)     H(rot)  DE(clash)    DE(int)     intcor
     14.58     -16.05       2.24        0.00      59.60       1.52       0.01       1.45       ----

> <Gold.Chemscore.Fitness>
14.5812

> <Gold.Chemscore.DG>
-16.0499

> <Gold.Chemscore.ZeroCoef>
-5.4800

> <Gold.Chemscore.Hbond>
2.2436

> <Gold.Chemscore.Metal>
0.0000

> <Gold.Chemscore.Lipo>
59.5998

> <Gold.Chemscore.Internal_Hbond>
0.0000

> <Gold.Chemscore.DEClash>
0.0139

> <Gold.Chemscore.DEInternal>
1.4548

> <Gold.Chemscore.Rot>
1.5223

> <Gold.Chemscore.Internal.Correction>
   9.000000E+99

> <Gold.Chemscore.Hbonds>
donor molecule, donor type, donor heavy atom, donor atom, acceptor molecule, acceptor atom, score
      L1  H     3    39       P1 10747  1.00
      L1  H     8    31       P1  7948  0.13
      L1  H    11    32       P1  7948  0.94
      P1  H  7989  7998       L1    16  0.04

> <Gold.Chemscore.Hbond.Weighted>
-7.4938

> <Gold.Chemscore.Metal.Weighted>
-0.0000

> <Gold.Chemscore.Lipo.Weighted>
-6.9732

> <Gold.Chemscore.Internal_Hbond.Weighted>
0.0000

> <Gold.Chemscore.DEClash.Weighted>
0.0139

> <Gold.Chemscore.DEInternal.Weighted>
1.4548

> <Gold.Chemscore.Rot.Weighted>
3.8971

> <Gold.Chemscore.Internal.Correction.Weighted>
   9.000000E+99

> <Gold.Protein.RotatedTorsions>
[ 6907 6896 6895 6894 ] final   75.32 input  -60.11 | X-H torsion
[ 7974 7965 7964 7962 ] final  169.92 input  175.53 | X-H torsion
[ 8008 7997 7996 7995 ] final  -58.72 input   59.86 | X-H torsion
[ 10167 10162 10161 10158 ] final -154.84 input  -65.29 | X-H torsion
[ 10718 10713 10712 10709 ] final   87.63 input   66.30 | X-H torsion
[ 10763 10752 10751 10750 ] final  150.66 input  -60.55 | X-H torsion
[ 11005 11000 10999 10996 ] final  -12.91 input  -57.11 | X-H torsion

> <Gold.Protein.ActiveResidues>
 VAL166  LYS551  ARG553  GLY616  TRP617  ASP618  TYR619  PRO620  LYS621  CYS622 
 ASP623  PHE694  ASN695  SER759  ASP760  ASP761  ALA762  ILE779  LEU786  VAL792 
 PHE793  MET794  SER795  GLU796  ALA797  LYS798  CYS799  TRP800  GLU811  SER814 

> <Gold.Protein.RotatedAtoms>
  152.5020  134.4138  159.9457 H   0  0  0  0  0  0  0  0  0  0  0  0  # atno 6907 bound_to 6896
  151.4107  133.3722  159.2751 H   0  0  0  0  0  0  0  0  0  0  0  0  # atno 6908 bound_to 6896
  150.9293  134.8731  159.7600 H   0  0  0  0  0  0  0  0  0  0  0  0  # atno 6909 bound_to 6896
  144.7339  139.9126  143.6416 H   0  0  0  0  0  0  0  0  0  0  0  0  # atno 7974 bound_to 7965
  154.4321  140.1078  156.6002 H   0  0  0  0  0  0  0  0  0  0  0  0  # atno 8008 bound_to 7997
  155.5919  140.3492  155.4550 H   0  0  0  0  0  0  0  0  0  0  0  0  # atno 8009 bound_to 7997
  156.0240  140.1246  157.0317 H   0  0  0  0  0  0  0  0  0  0  0  0  # atno 8010 bound_to 7997
  139.6980  143.9310  152.2416 H   0  0  0  0  0  0  0  0  0  0  0  0  # atno 10167 bound_to 10162
  157.6942  131.0263  150.3152 H   0  0  0  0  0  0  0  0  0  0  0  0  # atno 10718 bound_to 10713
  154.0911  135.2852  155.3271 H   0  0  0  0  0  0  0  0  0  0  0  0  # atno 10763 bound_to 10752
  154.6619  135.5331  153.8032 H   0  0  0  0  0  0  0  0  0  0  0  0  # atno 10764 bound_to 10752
  153.0413  135.6536  154.1080 H   0  0  0  0  0  0  0  0  0  0  0  0  # atno 10765 bound_to 10752
  140.7706  133.8441  155.9204 H   0  0  0  0  0  0  0  0  0  0  0  0  # atno 11005 bound_to 11000
  146.0989  139.3983  143.0359 LP  0  0  0  0  0  0  0  0  0  0  0  0  # atno 17320 bound_to 7965
  145.7606  140.9937  143.1202 LP  0  0  0  0  0  0  0  0  0  0  0  0  # atno 17321 bound_to 7965
  139.9145  144.6837  150.8527 LP  0  0  0  0  0  0  0  0  0  0  0  0  # atno 17342 bound_to 10162
  140.7702  143.3419  151.2190 LP  0  0  0  0  0  0  0  0  0  0  0  0  # atno 17343 bound_to 10162
  156.3647  130.3853  149.7223 LP  0  0  0  0  0  0  0  0  0  0  0  0  # atno 17370 bound_to 10713
  156.4657  130.7973  151.2992 LP  0  0  0  0  0  0  0  0  0  0  0  0  # atno 17371 bound_to 10713
  140.9577  134.1696  157.4678 LP  0  0  0  0  0  0  0  0  0  0  0  0  # atno 17394 bound_to 11000
  139.8756  134.9933  156.5638 LP  0  0  0  0  0  0  0  0  0  0  0  0  # atno 17395 bound_to 11000

$$$$
