AV-unprocessed.smi:3048|AV-procd|sdf|11626|dock4
  -GOLD-   2272017 13D 1   1.00000     0.00000
 Structure written by MMmdl.
 38 39  0  0  0  0  0  0  0  0  2 V2000
  144.5509  133.6529  150.4425 C   0  0  0  0  0  0  0  0  0  0  0  0
  145.6533  133.1160  151.3096 C   0  0  0  0  0  0  0  0  0  0  0  0
  145.6978  131.8691  151.9958 C   0  0  0  0  0  0  0  0  0  0  0  0
  146.8191  131.6972  152.6769 N   0  0  0  0  0  0  0  0  0  0  0  0
  147.5271  132.8249  152.4523 N   0  0  0  0  0  0  0  0  0  0  0  0
  148.8417  132.9844  153.0489 C   0  0  0  0  0  0  0  0  0  0  0  0
  148.7688  133.5464  154.4781 C   0  0  0  0  0  0  0  0  0  0  0  0
  149.1369  134.9757  154.5200 N   0  3  0  0  0  0  0  0  0  0  0  0
  150.4984  135.2385  155.0247 C   0  0  0  0  0  0  0  0  0  0  0  0
  150.9471  136.6637  154.6720 C   0  0  1  0  0  0  0  0  0  0  0  0
  149.9958  137.7286  155.2512 C   0  0  0  0  0  0  0  0  0  0  0  0
  150.5179  139.1379  154.9486 C   0  0  0  0  0  0  0  0  0  0  0  0
  151.9681  139.2658  155.4266 C   0  0  0  0  0  0  0  0  0  0  0  0
  152.8226  138.1214  154.8586 C   0  0  0  0  0  0  0  0  0  0  0  0
  152.2510  136.8657  155.2137 O   0  0  0  0  0  0  0  0  0  0  0  0
  146.8466  133.6988  151.6312 C   0  0  0  0  0  0  0  0  0  0  0  0
  143.6729  133.0065  150.4556 H   0  0  0  0  0  0  0  0  0  0  0  0
  144.8657  133.7450  149.4030 H   0  0  0  0  0  0  0  0  0  0  0  0
  144.2265  134.6408  150.7698 H   0  0  0  0  0  0  0  0  0  0  0  0
  144.9528  131.0872  152.0168 H   0  0  0  0  0  0  0  0  0  0  0  0
  149.3287  132.0087  153.0619 H   0  0  0  0  0  0  0  0  0  0  0  0
  149.4497  133.6264  152.4094 H   0  0  0  0  0  0  0  0  0  0  0  0
  147.7634  133.4141  154.8800 H   0  0  0  0  0  0  0  0  0  0  0  0
  149.4477  132.9901  155.1255 H   0  0  0  0  0  0  0  0  0  0  0  0
  149.0607  135.3573  153.5877 H   0  0  0  0  0  0  0  0  0  0  0  0
  150.4977  135.1109  156.1081 H   0  0  0  0  0  0  0  0  0  0  0  0
  151.1935  134.5053  154.6134 H   0  0  0  0  0  0  0  0  0  0  0  0
  150.9845  136.7652  153.5856 H   0  0  0  0  0  0  0  0  0  0  0  0
  148.9939  137.6074  154.8383 H   0  0  0  0  0  0  0  0  0  0  0  0
  149.9079  137.5966  156.3307 H   0  0  0  0  0  0  0  0  0  0  0  0
  150.4664  139.3265  153.8753 H   0  0  0  0  0  0  0  0  0  0  0  0
  149.8903  139.8888  155.4295 H   0  0  0  0  0  0  0  0  0  0  0  0
  152.3807  140.2300  155.1283 H   0  0  0  0  0  0  0  0  0  0  0  0
  151.9987  139.2357  156.5166 H   0  0  0  0  0  0  0  0  0  0  0  0
  152.9078  138.2000  153.7737 H   0  0  0  0  0  0  0  0  0  0  0  0
  153.8343  138.1745  155.2613 H   0  0  0  0  0  0  0  0  0  0  0  0
  147.2636  134.6532  151.3442 H   0  0  0  0  0  0  0  0  0  0  0  0
  148.4753  135.4537  155.1157 H   0  0  0  0  0  0  0  0  0  0  0  0
  1  2  1  0  0  0  0
  1 17  1  0  0  0  0
  1 18  1  0  0  0  0
  1 19  1  0  0  0  0
  2 16  2  0  0  0  0
  2  3  1  0  0  0  0
  3  4  2  0  0  0  0
  3 20  1  0  0  0  0
  4  5  1  0  0  0  0
  5  6  1  0  0  0  0
  5 16  1  0  0  0  0
  6  7  1  0  0  0  0
  6 21  1  0  0  0  0
  6 22  1  0  0  0  0
  7  8  1  0  0  0  0
  7 23  1  0  0  0  0
  7 24  1  0  0  0  0
  8  9  1  0  0  0  0
  8 25  1  0  0  0  0
  8 38  1  0  0  0  0
  9 10  1  0  0  0  0
  9 26  1  0  0  0  0
  9 27  1  0  0  0  0
 10 15  1  0  0  0  0
 10 11  1  0  0  0  0
 10 28  1  0  0  0  0
 11 12  1  0  0  0  0
 11 29  1  0  0  0  0
 11 30  1  0  0  0  0
 12 13  1  0  0  0  0
 12 31  1  0  0  0  0
 12 32  1  0  0  0  0
 13 14  1  0  0  0  0
 13 33  1  0  0  0  0
 13 34  1  0  0  0  0
 14 15  1  0  0  0  0
 14 35  1  0  0  0  0
 14 36  1  0  0  0  0
 16 37  1  0  0  0  0
M  CHG  1   8   1
M  END
> <s_m_source_file>
AV-unprocessed.smi

> <i_m_source_file_index>
3048

> <i_lp_mmshare_version>
43012

> <i_f3d_flags>
0

> <s_epik_input>
W0NIM11jMVtjSF1ubihbY0hdMSlbQ0gyXVtDSDJdW05IXVtDSDJdW0NAQEhdMltDSDJdW0NIMl1bQ0gyXVtDSDJdTzI=

> <s_epik_cmdline>
J2VwaWtfcHl0aG9uJywgJy1waCcsICc3LjAnLCAnLXRuJywgJzgnLCAnLW1hJywgJzIwMCcsICctbWV0YWxfYmluZGluZycsICctaW1hZScsICc8aW5maWxlLm1hZT4nLCAnLW9tYWUnLCAnPG91dGZpbGUubWFlPic=

> <r_lp_tautomer_probability>
1

> <r_epik_Ionization_Penalty>
0.0084937

> <r_epik_Ionization_Penalty_Charging>
0.00848754

> <r_epik_Ionization_Penalty_Neutral>
6.1613e-06

> <r_epik_State_Penalty>
0.00639836

> <r_epik_Charging_Adjusted_Penalty>
0.0148859

> <i_epik_Tot_Q>
1

> <i_epik_Tot_abs_Q>
1

> <r_epik_Metal_State_Penalty>
0.00642541

> <b_epik_Metal_Only>
0

> <s_lp_Force_Field>
OPLS_2005

> <r_lp_Energy>
10.7756

> <b_lp_Chiralities_Consistent>
1

> <s_lp_Variant>
AV-unprocessed.smi:3048-2

> <Gold.Version>
5.8.1

> <Gold.Id.Protein>
6NUR|6NUR_protein|mol2

> <Gold.PLP.Fitness>
42.8651

> <Gold.PLP.PLP>
-33.1687

> <Gold.PLP.part.hbond>
-2.0000

> <Gold.PLP.part.metal>
0.0000

> <Gold.PLP.part.buried>
-4.0662

> <Gold.PLP.part.nonpolar>
-28.6533

> <Gold.PLP.part.repulsive>
0.1998

> <Gold.PLP.ligand.clash>
0.0000

> <Gold.PLP.ligand.torsion>
1.0293

> <Gold.PLP.Chemscore.Hbond>
2.8960

> <Gold.PLP.Chemscore.CHOScore>
1.0000

> <Gold.PLP.Chemscore.Metal>
0.0000

> <Gold.Chemscore.Hbonds>
donor molecule, donor type, donor heavy atom, donor atom, acceptor molecule, acceptor atom, score
      L1  H     8    25       P1  7948  2.00
      P1  H 10752 10764       L1    15  0.90
      L1  C    16    37       P1  7948  1.00

> <Gold.PLP.Chemscore.Internal.Correction>
0.0670

> <Gold.Rescore>
     Score         DG    S(hbond)    S(metal)    S(lipo)     H(rot)  DE(clash)    DE(int)     intcor
     14.41     -15.26       1.52        0.00      75.60       1.61       0.02       0.83       ----

> <Gold.Chemscore.Fitness>
14.4076

> <Gold.Chemscore.DG>
-15.2638

> <Gold.Chemscore.ZeroCoef>
-5.4800

> <Gold.Chemscore.Hbond>
1.5187

> <Gold.Chemscore.Metal>
0.0000

> <Gold.Chemscore.Lipo>
75.6032

> <Gold.Chemscore.Internal_Hbond>
0.0000

> <Gold.Chemscore.DEClash>
0.0224

> <Gold.Chemscore.DEInternal>
0.8338

> <Gold.Chemscore.Rot>
1.6149

> <Gold.Chemscore.Internal.Correction>
   9.000000E+99

> <Gold.Chemscore.Hbonds>
donor molecule, donor type, donor heavy atom, donor atom, acceptor molecule, acceptor atom, score
      L1  H     8    25       P1  7948  0.55
      P1  H 10752 10764       L1    15  0.24

> <Gold.Chemscore.Hbond.Weighted>
-5.0723

> <Gold.Chemscore.Metal.Weighted>
-0.0000

> <Gold.Chemscore.Lipo.Weighted>
-8.8456

> <Gold.Chemscore.Internal_Hbond.Weighted>
0.0000

> <Gold.Chemscore.DEClash.Weighted>
0.0224

> <Gold.Chemscore.DEInternal.Weighted>
0.8338

> <Gold.Chemscore.Rot.Weighted>
4.1341

> <Gold.Chemscore.Internal.Correction.Weighted>
   9.000000E+99

> <Gold.Protein.RotatedTorsions>
[ 6907 6896 6895 6894 ] final  -80.24 input  -60.11 | X-H torsion
[ 7974 7965 7964 7962 ] final -152.34 input  175.53 | X-H torsion
[ 8008 7997 7996 7995 ] final  -34.69 input   59.86 | X-H torsion
[ 10167 10162 10161 10158 ] final  159.93 input  -65.29 | X-H torsion
[ 10718 10713 10712 10709 ] final  -19.96 input   66.30 | X-H torsion
[ 10763 10752 10751 10750 ] final  -51.73 input  -60.55 | X-H torsion
[ 11005 11000 10999 10996 ] final -178.87 input  -57.11 | X-H torsion

> <Gold.Protein.ActiveResidues>
 VAL166  LYS551  ARG553  GLY616  TRP617  ASP618  TYR619  PRO620  LYS621  CYS622 
 ASP623  PHE694  ASN695  SER759  ASP760  ASP761  ALA762  ILE779  LEU786  VAL792 
 PHE793  MET794  SER795  GLU796  ALA797  LYS798  CYS799  TRP800  GLU811  SER814 

> <Gold.Protein.RotatedAtoms>
  150.6933  134.4000  159.5114 H   0  0  0  0  0  0  0  0  0  0  0  0  # atno 6907 bound_to 6896
  152.1775  134.8779  160.0538 H   0  0  0  0  0  0  0  0  0  0  0  0  # atno 6908 bound_to 6896
  151.9783  133.3714  159.4134 H   0  0  0  0  0  0  0  0  0  0  0  0  # atno 6909 bound_to 6896
  144.7800  140.4676  143.5846 H   0  0  0  0  0  0  0  0  0  0  0  0  # atno 7974 bound_to 7965
  154.4114  140.1677  156.2091 H   0  0  0  0  0  0  0  0  0  0  0  0  # atno 8008 bound_to 7997
  155.9459  140.3404  155.6343 H   0  0  0  0  0  0  0  0  0  0  0  0  # atno 8009 bound_to 7997
  155.6931  140.0736  157.2431 H   0  0  0  0  0  0  0  0  0  0  0  0  # atno 8010 bound_to 7997
  139.4836  144.4683  151.8611 H   0  0  0  0  0  0  0  0  0  0  0  0  # atno 10167 bound_to 10162
  156.5384  130.4672  149.6511 H   0  0  0  0  0  0  0  0  0  0  0  0  # atno 10718 bound_to 10713
  154.1313  135.6519  153.4922 H   0  0  0  0  0  0  0  0  0  0  0  0  # atno 10763 bound_to 10752
  153.0194  135.5293  154.6998 H   0  0  0  0  0  0  0  0  0  0  0  0  # atno 10764 bound_to 10752
  154.6234  135.2967  155.0271 H   0  0  0  0  0  0  0  0  0  0  0  0  # atno 10765 bound_to 10752
  140.4250  134.6571  157.4683 H   0  0  0  0  0  0  0  0  0  0  0  0  # atno 11005 bound_to 11000
  145.6078  139.1510  143.3093 LP  0  0  0  0  0  0  0  0  0  0  0  0  # atno 17320 bound_to 7965
  146.2002  140.6196  142.9106 LP  0  0  0  0  0  0  0  0  0  0  0  0  # atno 17321 bound_to 7965
  140.4150  144.2319  150.5888 LP  0  0  0  0  0  0  0  0  0  0  0  0  # atno 17342 bound_to 10162
  140.4930  143.2341  151.8791 LP  0  0  0  0  0  0  0  0  0  0  0  0  # atno 17343 bound_to 10162
  156.2994  130.7168  151.2036 LP  0  0  0  0  0  0  0  0  0  0  0  0  # atno 17370 bound_to 10713
  157.7409  131.0510  150.5130 LP  0  0  0  0  0  0  0  0  0  0  0  0  # atno 17371 bound_to 10713
  140.0174  134.6599  155.9290 LP  0  0  0  0  0  0  0  0  0  0  0  0  # atno 17394 bound_to 11000
  141.1769  133.6541  156.4863 LP  0  0  0  0  0  0  0  0  0  0  0  0  # atno 17395 bound_to 11000

$$$$
