AV-unprocessed.smi:1464|AV-procd|sdf|5941|dock10
  -GOLD-   22720 6 23D 1   1.00000     0.00000
 Structure written by MMmdl.
 40 41  0  0  0  0  0  0  0  0  2 V2000
  153.9147  141.1921  160.5509 C   0  0  0  0  0  0  0  0  0  0  0  0
  153.1357  142.0184  159.5138 C   0  0  2  0  0  0  0  0  0  0  0  0
  152.1853  143.0304  160.1854 C   0  0  0  0  0  0  0  0  0  0  0  0
  151.4853  143.9208  159.1468 C   0  0  0  0  0  0  0  0  0  0  0  0
  150.7581  143.0838  158.0836 C   0  0  0  0  0  0  0  0  0  0  0  0
  151.7144  142.0786  157.4132 C   0  0  2  0  0  0  0  0  0  0  0  0
  150.9995  141.3272  156.3836 N   0  0  0  0  0  0  0  0  0  0  0  0
  151.4138  140.1771  155.8301 C   0  0  0  0  0  0  0  0  0  0  0  0
  152.4678  139.6215  156.1451 O   0  0  0  0  0  0  0  0  0  0  0  0
  150.4779  139.5770  154.7687 C   0  0  0  0  0  0  0  0  0  0  0  0
  150.1321  138.1663  154.9981 N   0  0  0  0  0  0  0  0  0  0  0  0
  148.6988  137.9267  155.1442 N   0  5  0  0  0  0  0  0  0  0  0  0
  148.2603  136.6645  155.3942 C   0  0  0  0  0  0  0  0  0  0  0  0
  147.0724  136.3899  155.5475 O   0  0  0  0  0  0  0  0  0  0  0  0
  149.2474  135.6007  155.4759 C   0  0  0  0  0  0  0  0  0  0  0  0
  150.5618  135.8463  155.3078 C   0  0  0  0  0  0  0  0  0  0  0  0
  151.0773  137.1843  155.0434 C   0  0  0  0  0  0  0  0  0  0  0  0
  152.2758  137.4142  154.8790 O   0  0  0  0  0  0  0  0  0  0  0  0
  152.3972  141.1527  158.4580 C   0  0  2  0  0  0  0  0  0  0  0  0
  151.4317  140.1142  159.0756 C   0  0  0  0  0  0  0  0  0  0  0  0
  153.2485  140.6492  161.2213 H   0  0  0  0  0  0  0  0  0  0  0  0
  154.5408  141.8364  161.1688 H   0  0  0  0  0  0  0  0  0  0  0  0
  154.5687  140.4669  160.0661 H   0  0  0  0  0  0  0  0  0  0  0  0
  153.8835  142.5997  158.9717 H   0  0  0  0  0  0  0  0  0  0  0  0
  151.4393  142.5068  160.7839 H   0  0  0  0  0  0  0  0  0  0  0  0
  152.7436  143.6594  160.8796 H   0  0  0  0  0  0  0  0  0  0  0  0
  150.7787  144.5865  159.6431 H   0  0  0  0  0  0  0  0  0  0  0  0
  152.2229  144.5614  158.6615 H   0  0  0  0  0  0  0  0  0  0  0  0
  149.9184  142.5598  158.5413 H   0  0  0  0  0  0  0  0  0  0  0  0
  150.3299  143.7480  157.3319 H   0  0  0  0  0  0  0  0  0  0  0  0
  152.4930  142.6609  156.9158 H   0  0  0  0  0  0  0  0  0  0  0  0
  150.1203  141.7107  156.0687 H   0  0  0  0  0  0  0  0  0  0  0  0
  149.5730  140.1865  154.7311 H   0  0  0  0  0  0  0  0  0  0  0  0
  150.9422  139.6853  153.7869 H   0  0  0  0  0  0  0  0  0  0  0  0
  148.9192  134.5907  155.6731 H   0  0  0  0  0  0  0  0  0  0  0  0
  151.2595  135.0251  155.3749 H   0  0  0  0  0  0  0  0  0  0  0  0
  153.1606  140.5798  157.9298 H   0  0  0  0  0  0  0  0  0  0  0  0
  150.6351  140.5846  159.6507 H   0  0  0  0  0  0  0  0  0  0  0  0
  151.9557  139.4267  159.7386 H   0  0  0  0  0  0  0  0  0  0  0  0
  150.9623  139.4986  158.3085 H   0  0  0  0  0  0  0  0  0  0  0  0
  1  2  1  0  0  0  0
  1 21  1  0  0  0  0
  1 22  1  0  0  0  0
  1 23  1  0  0  0  0
  2 19  1  0  0  0  0
  2  3  1  0  0  0  0
  2 24  1  0  0  0  0
  3  4  1  0  0  0  0
  3 25  1  0  0  0  0
  3 26  1  0  0  0  0
  4  5  1  0  0  0  0
  4 27  1  0  0  0  0
  4 28  1  0  0  0  0
  5  6  1  0  0  0  0
  5 29  1  0  0  0  0
  5 30  1  0  0  0  0
  6  7  1  0  0  0  0
  6 19  1  0  0  0  0
  6 31  1  0  0  0  0
  7  8  1  0  0  0  0
  7 32  1  0  0  0  0
  8  9  2  0  0  0  0
  8 10  1  0  0  0  0
 10 33  1  0  0  0  0
 10 34  1  0  0  0  0
 10 11  1  0  0  0  0
 11 12  1  0  0  0  0
 11 17  1  0  0  0  0
 12 13  1  0  0  0  0
 13 14  2  0  0  0  0
 13 15  1  0  0  0  0
 15 35  1  0  0  0  0
 15 16  2  0  0  0  0
 16 36  1  0  0  0  0
 16 17  1  0  0  0  0
 17 18  2  0  0  0  0
 19 20  1  0  0  0  0
 19 37  1  0  0  0  0
 20 38  1  0  0  0  0
 20 39  1  0  0  0  0
 20 40  1  0  0  0  0
M  CHG  1  12  -1
M  END
> <s_m_source_file>
AV-unprocessed.smi

> <i_m_source_file_index>
1464

> <i_lp_mmshare_version>
43012

> <i_f3d_flags>
0

> <s_epik_input>
W0NIM11bQ0BASF0xW0NIMl1bQ0gyXVtDSDJdW0NASF0oW0NASF0xW0NIM10pW05IXUMoPU8pW0NIMl1uMltuSF1jKD1PKVtjSF1bY0hdYzI9Tw==

> <s_epik_cmdline>
J2VwaWtfcHl0aG9uJywgJy1waCcsICc3LjAnLCAnLXRuJywgJzgnLCAnLW1hJywgJzIwMCcsICctbWV0YWxfYmluZGluZycsICctaW1hZScsICc8aW5maWxlLm1hZT4nLCAnLW9tYWUnLCAnPG91dGZpbGUubWFlPic=

> <r_lp_tautomer_probability>
1

> <r_epik_Ionization_Penalty>
0.101366

> <r_epik_Ionization_Penalty_Charging>
0.101366

> <r_epik_Ionization_Penalty_Neutral>
1.90469e-08

> <r_epik_State_Penalty>
0.035861

> <r_epik_Charging_Adjusted_Penalty>
0.137227

> <i_epik_Tot_Q>
-1

> <i_epik_Tot_abs_Q>
1

> <r_epik_Metal_State_Penalty>
0.035861

> <b_epik_Metal_Only>
0

> <s_lp_Force_Field>
OPLS_2005

> <r_lp_Energy>
29.9934

> <b_lp_Chiralities_Consistent>
1

> <s_lp_Variant>
AV-unprocessed.smi:1464-7

> <Gold.Version>
5.8.1

> <Gold.Id.Protein>
6NUR|6NUR_protein|mol2

> <Gold.PLP.Fitness>
39.6355

> <Gold.PLP.PLP>
-35.4677

> <Gold.PLP.part.hbond>
-2.0000

> <Gold.PLP.part.metal>
0.0000

> <Gold.PLP.part.buried>
-4.6525

> <Gold.PLP.part.nonpolar>
-29.3296

> <Gold.PLP.part.repulsive>
0.3576

> <Gold.PLP.ligand.clash>
0.0000

> <Gold.PLP.ligand.torsion>
0.3350

> <Gold.PLP.Chemscore.Hbond>
1.6080

> <Gold.PLP.Chemscore.CHOScore>
0.0000

> <Gold.PLP.Chemscore.Metal>
0.0000

> <Gold.Chemscore.Hbonds>
donor molecule, donor type, donor heavy atom, donor atom, acceptor molecule, acceptor atom, score
      P1  H  7997  8009       L1     9  1.00
      P1  H 10752 10765       L1    18  0.66

> <Gold.PLP.Chemscore.Internal.Correction>
0.0139

> <Gold.Rescore>
     Score         DG    S(hbond)    S(metal)    S(lipo)     H(rot)  DE(clash)    DE(int)     intcor
     14.46     -18.65       1.96        0.00      92.58       1.64       1.36       2.83       ----

> <Gold.Chemscore.Fitness>
14.4583

> <Gold.Chemscore.DG>
-18.6513

> <Gold.Chemscore.ZeroCoef>
-5.4800

> <Gold.Chemscore.Hbond>
1.9603

> <Gold.Chemscore.Metal>
0.0000

> <Gold.Chemscore.Lipo>
92.5795

> <Gold.Chemscore.Internal_Hbond>
0.0000

> <Gold.Chemscore.DEClash>
1.3625

> <Gold.Chemscore.DEInternal>
2.8305

> <Gold.Chemscore.Rot>
1.6438

> <Gold.Chemscore.Internal.Correction>
   9.000000E+99

> <Gold.Chemscore.Hbonds>
donor molecule, donor type, donor heavy atom, donor atom, acceptor molecule, acceptor atom, score
      P1  H  7997  8009       L1     9  0.99
      P1  H 10752 10765       L1    18  0.19

> <Gold.Chemscore.Hbond.Weighted>
-6.5475

> <Gold.Chemscore.Metal.Weighted>
-0.0000

> <Gold.Chemscore.Lipo.Weighted>
-10.8318

> <Gold.Chemscore.Internal_Hbond.Weighted>
0.0000

> <Gold.Chemscore.DEClash.Weighted>
1.3625

> <Gold.Chemscore.DEInternal.Weighted>
2.8305

> <Gold.Chemscore.Rot.Weighted>
4.2080

> <Gold.Chemscore.Internal.Correction.Weighted>
   9.000000E+99

> <Gold.Protein.RotatedTorsions>
[ 6907 6896 6895 6894 ] final   -8.45 input  -60.11 | X-H torsion
[ 7974 7965 7964 7962 ] final  131.41 input  175.53 | X-H torsion
[ 8008 7997 7996 7995 ] final -162.11 input   59.86 | X-H torsion
[ 10167 10162 10161 10158 ] final  -81.26 input  -65.29 | X-H torsion
[ 10718 10713 10712 10709 ] final   24.97 input   66.30 | X-H torsion
[ 10763 10752 10751 10750 ] final -170.80 input  -60.55 | X-H torsion
[ 11005 11000 10999 10996 ] final  -87.06 input  -57.11 | X-H torsion

> <Gold.Protein.ActiveResidues>
 VAL166  LYS551  ARG553  GLY616  TRP617  ASP618  TYR619  PRO620  LYS621  CYS622 
 ASP623  PHE694  ASN695  SER759  ASP760  ASP761  ALA762  ILE779  LEU786  VAL792 
 PHE793  MET794  SER795  GLU796  ALA797  LYS798  CYS799  TRP800  GLU811  SER814 

> <Gold.Protein.RotatedAtoms>
  151.4334  135.1012  159.9648 H   0  0  0  0  0  0  0  0  0  0  0  0  # atno 6907 bound_to 6896
  152.4948  133.8596  159.7254 H   0  0  0  0  0  0  0  0  0  0  0  0  # atno 6908 bound_to 6896
  150.9139  133.6905  159.2876 H   0  0  0  0  0  0  0  0  0  0  0  0  # atno 6909 bound_to 6896
  145.0076  139.4251  143.5261 H   0  0  0  0  0  0  0  0  0  0  0  0  # atno 7974 bound_to 7965
  155.8021  140.0893  157.1951 H   0  0  0  0  0  0  0  0  0  0  0  0  # atno 8008 bound_to 7997
  154.3982  140.1470  156.3345 H   0  0  0  0  0  0  0  0  0  0  0  0  # atno 8009 bound_to 7997
  155.8452  140.3437  155.5660 H   0  0  0  0  0  0  0  0  0  0  0  0  # atno 8010 bound_to 7997
  140.4428  143.2509  151.8601 H   0  0  0  0  0  0  0  0  0  0  0  0  # atno 10167 bound_to 10162
  157.1870  130.6829  149.6135 H   0  0  0  0  0  0  0  0  0  0  0  0  # atno 10718 bound_to 10713
  154.6375  135.2894  155.0143 H   0  0  0  0  0  0  0  0  0  0  0  0  # atno 10763 bound_to 10752
  154.1281  135.6537  153.4920 H   0  0  0  0  0  0  0  0  0  0  0  0  # atno 10764 bound_to 10752
  153.0310  135.5304  154.7228 H   0  0  0  0  0  0  0  0  0  0  0  0  # atno 10765 bound_to 10752
  141.1622  133.7489  156.9251 H   0  0  0  0  0  0  0  0  0  0  0  0  # atno 11005 bound_to 11000
  146.3464  139.9502  142.8730 LP  0  0  0  0  0  0  0  0  0  0  0  0  # atno 17320 bound_to 7965
  145.2067  140.9878  143.4124 LP  0  0  0  0  0  0  0  0  0  0  0  0  # atno 17321 bound_to 7965
  139.4791  144.5209  151.8803 LP  0  0  0  0  0  0  0  0  0  0  0  0  # atno 17342 bound_to 10162
  140.4298  144.2131  150.5888 LP  0  0  0  0  0  0  0  0  0  0  0  0  # atno 17343 bound_to 10162
  155.9716  130.4627  150.6156 LP  0  0  0  0  0  0  0  0  0  0  0  0  # atno 17370 bound_to 10713
  157.3897  131.0794  151.1404 LP  0  0  0  0  0  0  0  0  0  0  0  0  # atno 17371 bound_to 10713
  140.1425  134.9284  157.2485 LP  0  0  0  0  0  0  0  0  0  0  0  0  # atno 17394 bound_to 11000
  140.2820  134.3339  155.7340 LP  0  0  0  0  0  0  0  0  0  0  0  0  # atno 17395 bound_to 11000

$$$$
