AV-unprocessed.smi:2560|AV-procd|sdf|10039|dock4
  -GOLD-   2272014 83D 1   1.00000     0.00000
 Structure written by MMmdl.
 31 32  0  0  0  0  0  0  0  0  1 V2000
  147.7512  125.1508  155.4561 C   0  0  0  0  0  0  0  0  0  0  0  0
  148.4874  124.2774  154.0475 S   0  0  0  0  0  0  0  0  0  0  0  0
  148.5041  125.4340  152.7161 C   0  0  0  0  0  0  0  0  0  0  0  0
  148.9762  125.0800  151.5071 N   0  0  0  0  0  0  0  0  0  0  0  0
  148.8480  126.4084  150.4691 S   0  0  0  0  0  0  0  0  0  0  0  0
  148.1553  127.3729  151.7395 C   0  0  0  0  0  0  0  0  0  0  0  0
  147.7600  128.7279  151.5426 N   0  0  0  0  0  0  0  0  0  0  0  0
  146.6747  129.4086  151.9700 C   0  0  0  0  0  0  0  0  0  0  0  0
  145.8132  128.8628  152.6569 O   0  0  0  0  0  0  0  0  0  0  0  0
  146.6019  130.6986  151.6023 N   0  0  0  0  0  0  0  0  0  0  0  0
  145.5360  131.6303  151.9515 C   0  0  1  0  0  0  0  0  0  0  0  0
  146.0832  133.0486  151.9091 C   0  0  0  0  0  0  0  0  0  0  0  0
  145.4365  134.0848  151.3485 C   0  0  0  0  0  0  0  0  0  0  0  0
  144.0686  133.9670  150.7029 C   0  0  0  0  0  0  0  0  0  0  0  0
  143.3620  132.6540  151.0822 C   0  0  0  0  0  0  0  0  0  0  0  0
  144.3187  131.4540  151.0132 C   0  0  0  0  0  0  0  0  0  0  0  0
  148.0455  126.6876  152.8774 N   0  0  0  0  0  0  0  0  0  0  0  0
  147.7037  124.4923  156.3231 H   0  0  0  0  0  0  0  0  0  0  0  0
  146.7404  125.4812  155.2169 H   0  0  0  0  0  0  0  0  0  0  0  0
  148.3506  126.0234  155.7167 H   0  0  0  0  0  0  0  0  0  0  0  0
  148.3900  129.2661  150.9654 H   0  0  0  0  0  0  0  0  0  0  0  0
  147.3538  131.0642  151.0355 H   0  0  0  0  0  0  0  0  0  0  0  0
  145.2293  131.4480  152.9828 H   0  0  0  0  0  0  0  0  0  0  0  0
  147.0526  133.2094  152.3582 H   0  0  0  0  0  0  0  0  0  0  0  0
  145.8985  135.0608  151.3347 H   0  0  0  0  0  0  0  0  0  0  0  0
  143.4550  134.8178  151.0001 H   0  0  0  0  0  0  0  0  0  0  0  0
  144.1972  134.0292  149.6220 H   0  0  0  0  0  0  0  0  0  0  0  0
  142.9681  132.7344  152.0961 H   0  0  0  0  0  0  0  0  0  0  0  0
  142.5029  132.4922  150.4308 H   0  0  0  0  0  0  0  0  0  0  0  0
  144.6600  131.3416  149.9828 H   0  0  0  0  0  0  0  0  0  0  0  0
  143.7844  130.5361  151.2604 H   0  0  0  0  0  0  0  0  0  0  0  0
  1  2  1  0  0  0  0
  1 18  1  0  0  0  0
  1 19  1  0  0  0  0
  1 20  1  0  0  0  0
  2  3  1  0  0  0  0
  3 17  1  0  0  0  0
  3  4  2  0  0  0  0
  4  5  1  0  0  0  0
  5  6  1  0  0  0  0
  6  7  1  0  0  0  0
  6 17  2  0  0  0  0
  7  8  1  0  0  0  0
  7 21  1  0  0  0  0
  8  9  2  0  0  0  0
  8 10  1  0  0  0  0
 10 11  1  0  0  0  0
 10 22  1  0  0  0  0
 11 16  1  0  0  0  0
 11 12  1  0  0  0  0
 11 23  1  0  0  0  0
 12 13  2  0  0  0  0
 12 24  1  0  0  0  0
 13 14  1  0  0  0  0
 13 25  1  0  0  0  0
 14 15  1  0  0  0  0
 14 26  1  0  0  0  0
 14 27  1  0  0  0  0
 15 16  1  0  0  0  0
 15 28  1  0  0  0  0
 15 29  1  0  0  0  0
 16 30  1  0  0  0  0
 16 31  1  0  0  0  0
M  END
> <s_m_source_file>
AV-unprocessed.smi

> <i_m_source_file_index>
2560

> <i_lp_mmshare_version>
43012

> <i_f3d_flags>
0

> <s_epik_input>
W0NIM11TYzFuc2MobjEpW05IXUMoPU8pW05IXVtDQEBIXTJbQ0hdPVtDSF1bQ0gyXVtDSDJdW0NIMl0y

> <s_epik_cmdline>
J2VwaWtfcHl0aG9uJywgJy1waCcsICc3LjAnLCAnLXRuJywgJzgnLCAnLW1hJywgJzIwMCcsICctbWV0YWxfYmluZGluZycsICctaW1hZScsICc8aW5maWxlLm1hZT4nLCAnLW9tYWUnLCAnPG91dGZpbGUubWFlPic=

> <r_lp_tautomer_probability>
1

> <r_epik_Ionization_Penalty>
2.65559e-05

> <r_epik_Ionization_Penalty_Charging>
0

> <r_epik_Ionization_Penalty_Neutral>
2.65559e-05

> <r_epik_State_Penalty>
-0

> <r_epik_Charging_Adjusted_Penalty>
0

> <i_epik_Tot_Q>
0

> <i_epik_Tot_abs_Q>
0

> <r_epik_Metal_State_Penalty>
-0

> <b_epik_Metal_Only>
0

> <s_lp_Force_Field>
OPLS_2005

> <r_lp_Energy>
8.24661

> <b_lp_Chiralities_Consistent>
1

> <s_lp_Variant>
AV-unprocessed.smi:2560-2

> <Gold.Version>
5.8.1

> <Gold.Id.Protein>
6NUR|6NUR_protein|mol2

> <Gold.PLP.Fitness>
36.1323

> <Gold.PLP.PLP>
-32.1835

> <Gold.PLP.part.hbond>
-2.0000

> <Gold.PLP.part.metal>
0.0000

> <Gold.PLP.part.buried>
-5.9186

> <Gold.PLP.part.nonpolar>
-24.8268

> <Gold.PLP.part.repulsive>
0.3356

> <Gold.PLP.ligand.clash>
0.0000

> <Gold.PLP.ligand.torsion>
0.6542

> <Gold.PLP.Chemscore.Hbond>
1.7500

> <Gold.PLP.Chemscore.CHOScore>
0.0000

> <Gold.PLP.Chemscore.Metal>
0.0000

> <Gold.Chemscore.Hbonds>
donor molecule, donor type, donor heavy atom, donor atom, acceptor molecule, acceptor atom, score
      L1  H     7    21       P1 10747  0.75
      L1  H    10    22       P1 10747  0.99

> <Gold.PLP.Chemscore.Internal.Correction>
0.0072

> <Gold.Rescore>
     Score         DG    S(hbond)    S(metal)    S(lipo)     H(rot)  DE(clash)    DE(int)     intcor
     12.19     -12.91       1.12        0.00      59.04       1.25       0.11       0.61       ----

> <Gold.Chemscore.Fitness>
12.1888

> <Gold.Chemscore.DG>
-12.9092

> <Gold.Chemscore.ZeroCoef>
-5.4800

> <Gold.Chemscore.Hbond>
1.1162

> <Gold.Chemscore.Metal>
0.0000

> <Gold.Chemscore.Lipo>
59.0353

> <Gold.Chemscore.Internal_Hbond>
0.0000

> <Gold.Chemscore.DEClash>
0.1104

> <Gold.Chemscore.DEInternal>
0.6099

> <Gold.Chemscore.Rot>
1.2524

> <Gold.Chemscore.Internal.Correction>
   9.000000E+99

> <Gold.Chemscore.Hbonds>
donor molecule, donor type, donor heavy atom, donor atom, acceptor molecule, acceptor atom, score
      L1  H     7    21       P1 10747  0.09
      L1  H    10    22       P1 10747  0.93

> <Gold.Chemscore.Hbond.Weighted>
-3.7282

> <Gold.Chemscore.Metal.Weighted>
-0.0000

> <Gold.Chemscore.Lipo.Weighted>
-6.9071

> <Gold.Chemscore.Internal_Hbond.Weighted>
0.0000

> <Gold.Chemscore.DEClash.Weighted>
0.1104

> <Gold.Chemscore.DEInternal.Weighted>
0.6099

> <Gold.Chemscore.Rot.Weighted>
3.2062

> <Gold.Chemscore.Internal.Correction.Weighted>
   9.000000E+99

> <Gold.Protein.RotatedTorsions>
[ 6907 6896 6895 6894 ] final  -14.92 input  -60.11 | X-H torsion
[ 7974 7965 7964 7962 ] final -139.56 input  175.53 | X-H torsion
[ 8008 7997 7996 7995 ] final  -73.85 input   59.86 | X-H torsion
[ 10167 10162 10161 10158 ] final   26.62 input  -65.29 | X-H torsion
[ 10718 10713 10712 10709 ] final  162.31 input   66.30 | X-H torsion
[ 10763 10752 10751 10750 ] final -148.42 input  -60.55 | X-H torsion
[ 11005 11000 10999 10996 ] final  -97.32 input  -57.11 | X-H torsion

> <Gold.Protein.ActiveResidues>
 VAL166  LYS551  ARG553  GLY616  TRP617  ASP618  TYR619  PRO620  LYS621  CYS622 
 ASP623  PHE694  ASN695  SER759  ASP760  ASP761  ALA762  ILE779  LEU786  VAL792 
 PHE793  MET794  SER795  GLU796  ALA797  LYS798  CYS799  TRP800  GLU811  SER814 

> <Gold.Protein.RotatedAtoms>
  151.3319  135.0843  159.9341 H   0  0  0  0  0  0  0  0  0  0  0  0  # atno 6907 bound_to 6896
  152.5232  133.9534  159.7693 H   0  0  0  0  0  0  0  0  0  0  0  0  # atno 6908 bound_to 6896
  150.9874  133.6130  159.2743 H   0  0  0  0  0  0  0  0  0  0  0  0  # atno 6909 bound_to 6896
  144.8667  140.6303  143.5293 H   0  0  0  0  0  0  0  0  0  0  0  0  # atno 7974 bound_to 7965
  154.5281  140.0772  156.8296 H   0  0  0  0  0  0  0  0  0  0  0  0  # atno 8008 bound_to 7997
  155.3432  140.3408  155.4221 H   0  0  0  0  0  0  0  0  0  0  0  0  # atno 8009 bound_to 7997
  156.1753  140.1633  156.8360 H   0  0  0  0  0  0  0  0  0  0  0  0  # atno 8010 bound_to 7997
  140.5007  144.0319  150.6332 H   0  0  0  0  0  0  0  0  0  0  0  0  # atno 10167 bound_to 10162
  157.1243  131.0500  151.2400 H   0  0  0  0  0  0  0  0  0  0  0  0  # atno 10718 bound_to 10713
  154.8233  135.3335  154.6972 H   0  0  0  0  0  0  0  0  0  0  0  0  # atno 10763 bound_to 10752
  153.7601  135.6933  153.4932 H   0  0  0  0  0  0  0  0  0  0  0  0  # atno 10764 bound_to 10752
  153.2116  135.4480  155.0335 H   0  0  0  0  0  0  0  0  0  0  0  0  # atno 10765 bound_to 10752
  141.1383  133.8162  157.0690 H   0  0  0  0  0  0  0  0  0  0  0  0  # atno 11005 bound_to 11000
  145.4209  139.1564  143.4075 LP  0  0  0  0  0  0  0  0  0  0  0  0  # atno 17320 bound_to 7965
  146.2900  140.4319  142.8743 LP  0  0  0  0  0  0  0  0  0  0  0  0  # atno 17321 bound_to 7965
  140.3614  143.2906  152.0379 LP  0  0  0  0  0  0  0  0  0  0  0  0  # atno 17342 bound_to 10162
  139.4871  144.6300  151.7089 LP  0  0  0  0  0  0  0  0  0  0  0  0  # atno 17343 bound_to 10162
  157.4448  130.7565  149.7100 LP  0  0  0  0  0  0  0  0  0  0  0  0  # atno 17370 bound_to 10713
  155.9821  130.4012  150.3432 LP  0  0  0  0  0  0  0  0  0  0  0  0  # atno 17371 bound_to 10713
  140.0523  134.9799  157.1158 LP  0  0  0  0  0  0  0  0  0  0  0  0  # atno 17394 bound_to 11000
  140.3972  134.2122  155.7164 LP  0  0  0  0  0  0  0  0  0  0  0  0  # atno 17395 bound_to 11000

$$$$
