AV-unprocessed.smi:1240|AV-procd|sdf|5208|dock10
  -GOLD-   22720 4303D 1   1.00000     0.00000
 Structure written by MMmdl.
 49 51  0  0  0  0  0  0  0  0  3 V2000
  147.0633  133.7809  153.1905 O   0  0  0  0  0  0  0  0  0  0  0  0
  147.5161  132.8410  152.5375 C   0  0  0  0  0  0  0  0  0  0  0  0
  148.6880  132.2505  152.8117 N   0  0  0  0  0  0  0  0  0  0  0  0
  149.5812  132.6286  153.9010 C   0  0  0  0  0  0  0  0  0  0  0  0
  149.2293  131.9720  155.2675 C   0  0  1  0  0  0  0  0  0  0  0  0
  150.3067  130.9791  155.7905 C   0  0  2  0  0  0  0  0  0  0  0  0
  151.7029  131.5516  155.9897 C   0  0  0  0  0  0  0  0  0  0  0  0
  152.6073  130.3203  155.9368 C   0  0  0  0  0  0  0  0  0  0  0  0
  151.8642  129.3078  155.2681 O   0  0  0  0  0  0  0  0  0  0  0  0
  150.6323  129.8459  154.8131 C   0  0  0  0  0  0  0  0  0  0  0  0
  148.9339  132.9983  156.3127 N   0  3  0  0  0  0  0  0  0  0  0  0
  148.6532  132.4809  157.6761 C   0  0  0  0  0  0  0  0  0  0  0  0
  148.1869  133.6299  158.5851 C   0  0  0  0  0  0  0  0  0  0  0  0
  149.1820  134.6466  158.6129 O   0  0  0  0  0  0  0  0  0  0  0  0
  149.4136  135.2058  157.3251 C   0  0  0  0  0  0  0  0  0  0  0  0
  149.9125  134.1117  156.3657 C   0  0  0  0  0  0  0  0  0  0  0  0
  146.9271  132.2813  151.4667 N   0  0  0  0  0  0  0  0  0  0  0  0
  145.6737  132.6024  150.8782 C   0  0  0  0  0  0  0  0  0  0  0  0
  145.0559  131.6173  150.0760 C   0  0  0  0  0  0  0  0  0  0  0  0
  143.8034  131.8851  149.4870 C   0  0  0  0  0  0  0  0  0  0  0  0
  143.2003  133.0738  149.7013 N   0  3  0  0  0  0  0  0  0  0  0  0
  143.7444  134.0406  150.4711 C   0  0  0  0  0  0  0  0  0  0  0  0
  144.9953  133.8304  151.0865 C   0  0  0  0  0  0  0  0  0  0  0  0
  148.9891  131.4883  152.2215 H   0  0  0  0  0  0  0  0  0  0  0  0
  150.5880  132.3446  153.5949 H   0  0  0  0  0  0  0  0  0  0  0  0
  149.5824  133.7163  153.9783 H   0  0  0  0  0  0  0  0  0  0  0  0
  148.3115  131.3961  155.1418 H   0  0  0  0  0  0  0  0  0  0  0  0
  149.9819  130.5391  156.7343 H   0  0  0  0  0  0  0  0  0  0  0  0
  151.9563  132.2273  155.1714 H   0  0  0  0  0  0  0  0  0  0  0  0
  151.8176  132.0959  156.9270 H   0  0  0  0  0  0  0  0  0  0  0  0
  153.5417  130.5282  155.4148 H   0  0  0  0  0  0  0  0  0  0  0  0
  152.8512  129.9701  156.9402 H   0  0  0  0  0  0  0  0  0  0  0  0
  149.8602  129.0765  154.7828 H   0  0  0  0  0  0  0  0  0  0  0  0
  150.7684  130.2317  153.8014 H   0  0  0  0  0  0  0  0  0  0  0  0
  147.8847  131.7091  157.6431 H   0  0  0  0  0  0  0  0  0  0  0  0
  149.5491  132.0281  158.1022 H   0  0  0  0  0  0  0  0  0  0  0  0
  147.2368  134.0406  158.2392 H   0  0  0  0  0  0  0  0  0  0  0  0
  148.0261  133.2650  159.5996 H   0  0  0  0  0  0  0  0  0  0  0  0
  148.4999  135.6677  156.9473 H   0  0  0  0  0  0  0  0  0  0  0  0
  150.1579  135.9975  157.4118 H   0  0  0  0  0  0  0  0  0  0  0  0
  150.8838  133.7458  156.6992 H   0  0  0  0  0  0  0  0  0  0  0  0
  150.0529  134.5361  155.3711 H   0  0  0  0  0  0  0  0  0  0  0  0
  147.4649  131.5775  150.9822 H   0  0  0  0  0  0  0  0  0  0  0  0
  145.5370  130.6649  149.9056 H   0  0  0  0  0  0  0  0  0  0  0  0
  143.2691  131.1884  148.8574 H   0  0  0  0  0  0  0  0  0  0  0  0
  143.1641  134.9456  150.5768 H   0  0  0  0  0  0  0  0  0  0  0  0
  145.4021  134.6084  151.7143 H   0  0  0  0  0  0  0  0  0  0  0  0
  148.0737  133.4309  156.0073 H   0  0  0  0  0  0  0  0  0  0  0  0
  142.2932  133.2470  149.2672 H   0  0  0  0  0  0  0  0  0  0  0  0
  1  2  2  0  0  0  0
  2  3  1  0  0  0  0
  2 17  1  0  0  0  0
  3  4  1  0  0  0  0
  3 24  1  0  0  0  0
  4  5  1  0  0  0  0
  4 25  1  0  0  0  0
  4 26  1  0  0  0  0
  5  6  1  0  0  0  0
  5 11  1  0  0  0  0
  5 27  1  0  0  0  0
  6 10  1  0  0  0  0
  6  7  1  0  0  0  0
  6 28  1  0  0  0  0
  7  8  1  0  0  0  0
  7 29  1  0  0  0  0
  7 30  1  0  0  0  0
  8  9  1  0  0  0  0
  8 31  1  0  0  0  0
  8 32  1  0  0  0  0
  9 10  1  0  0  0  0
 10 33  1  0  0  0  0
 10 34  1  0  0  0  0
 11 16  1  0  0  0  0
 11 12  1  0  0  0  0
 11 48  1  0  0  0  0
 12 13  1  0  0  0  0
 12 35  1  0  0  0  0
 12 36  1  0  0  0  0
 13 14  1  0  0  0  0
 13 37  1  0  0  0  0
 13 38  1  0  0  0  0
 14 15  1  0  0  0  0
 15 16  1  0  0  0  0
 15 39  1  0  0  0  0
 15 40  1  0  0  0  0
 16 41  1  0  0  0  0
 16 42  1  0  0  0  0
 17 18  1  0  0  0  0
 17 43  1  0  0  0  0
 18 23  1  0  0  0  0
 18 19  2  0  0  0  0
 19 20  1  0  0  0  0
 19 44  1  0  0  0  0
 20 21  2  0  0  0  0
 20 45  1  0  0  0  0
 21 22  1  0  0  0  0
 21 49  1  0  0  0  0
 22 23  2  0  0  0  0
 22 46  1  0  0  0  0
 23 47  1  0  0  0  0
M  CHG  1  11   1
M  CHG  1  21   1
M  END
> <s_m_source_file>
AV-unprocessed.smi

> <i_m_source_file_index>
1240

> <i_lp_mmshare_version>
43012

> <i_f3d_flags>
0

> <s_epik_input>
W2NIXTFbY0hdbltjSF1bY0hdYzFbTkhdQyg9TylbTkhdW0NIMl1bQ0BIXShbQ0BASF0yW0NIMl1bQ0gyXU9bQ0gyXTIpTjNbQ0gyXVtDSDJdT1tDSDJdW0NIMl0z

> <s_epik_cmdline>
J2VwaWtfcHl0aG9uJywgJy1waCcsICc3LjAnLCAnLXRuJywgJzgnLCAnLW1hJywgJzIwMCcsICctbWV0YWxfYmluZGluZycsICctaW1hZScsICc8aW5maWxlLm1hZT4nLCAnLW9tYWUnLCAnPG91dGZpbGUubWFlPic=

> <r_epik_Ionization_Penalty>
2.08105

> <r_epik_Ionization_Penalty_Charging>
2.08103

> <r_epik_Ionization_Penalty_Neutral>
2.04144e-05

> <r_epik_State_Penalty>
2.15598

> <r_epik_Charging_Adjusted_Penalty>
4.23701

> <i_epik_Tot_Q>
2

> <i_epik_Tot_abs_Q>
2

> <r_epik_Metal_State_Penalty>
2.25158

> <b_epik_Metal_Only>
0

> <s_lp_Force_Field>
OPLS_2005

> <r_lp_Energy>
49.9195

> <b_lp_Chiralities_Consistent>
1

> <s_lp_Variant>
AV-unprocessed.smi:1240-14

> <Gold.Version>
5.8.1

> <Gold.Id.Protein>
6NUR|6NUR_protein|mol2

> <Gold.PLP.Fitness>
45.8578

> <Gold.PLP.PLP>
-34.8057

> <Gold.PLP.part.hbond>
-4.0251

> <Gold.PLP.part.metal>
0.0000

> <Gold.PLP.part.buried>
-4.4174

> <Gold.PLP.part.nonpolar>
-27.1969

> <Gold.PLP.part.repulsive>
1.8240

> <Gold.PLP.ligand.clash>
0.0000

> <Gold.PLP.ligand.torsion>
1.2083

> <Gold.PLP.Chemscore.Hbond>
4.4080

> <Gold.PLP.Chemscore.CHOScore>
0.0000

> <Gold.PLP.Chemscore.Metal>
0.0000

> <Gold.Chemscore.Hbonds>
donor molecule, donor type, donor heavy atom, donor atom, acceptor molecule, acceptor atom, score
      L1  H     3    24       P1 10747  0.86
      L1  H    17    43       P1 10747  1.00
      L1  H    21    49       P1 10186  1.41
      P1  H  6896  6907       L1    14  1.00

> <Gold.PLP.Chemscore.Internal.Correction>
0.2446

> <Gold.Rescore>
     Score         DG    S(hbond)    S(metal)    S(lipo)     H(rot)  DE(clash)    DE(int)     intcor
     19.02     -22.62       3.41        0.00      87.33       1.74       1.23       2.36       ----

> <Gold.Chemscore.Fitness>
19.0186

> <Gold.Chemscore.DG>
-22.6154

> <Gold.Chemscore.ZeroCoef>
-5.4800

> <Gold.Chemscore.Hbond>
3.4063

> <Gold.Chemscore.Metal>
0.0000

> <Gold.Chemscore.Lipo>
87.3348

> <Gold.Chemscore.Internal_Hbond>
0.0000

> <Gold.Chemscore.DEClash>
1.2349

> <Gold.Chemscore.DEInternal>
2.3620

> <Gold.Chemscore.Rot>
1.7421

> <Gold.Chemscore.Internal.Correction>
   9.000000E+99

> <Gold.Chemscore.Hbonds>
donor molecule, donor type, donor heavy atom, donor atom, acceptor molecule, acceptor atom, score
      L1  H     3    24       P1 10747  0.56
      L1  H    17    43       P1 10747  0.98
      L1  H    21    49       P1 10186  0.70
      P1  H  6896  6907       L1    14  0.79

> <Gold.Chemscore.Hbond.Weighted>
-11.3770

> <Gold.Chemscore.Metal.Weighted>
-0.0000

> <Gold.Chemscore.Lipo.Weighted>
-10.2182

> <Gold.Chemscore.Internal_Hbond.Weighted>
0.0000

> <Gold.Chemscore.DEClash.Weighted>
1.2349

> <Gold.Chemscore.DEInternal.Weighted>
2.3620

> <Gold.Chemscore.Rot.Weighted>
4.4597

> <Gold.Chemscore.Internal.Correction.Weighted>
   9.000000E+99

> <Gold.Protein.RotatedTorsions>
[ 6907 6896 6895 6894 ] final  -86.19 input  -60.11 | X-H torsion
[ 7974 7965 7964 7962 ] final  -54.30 input  175.53 | X-H torsion
[ 8008 7997 7996 7995 ] final  124.73 input   59.86 | X-H torsion
[ 10167 10162 10161 10158 ] final   17.50 input  -65.29 | X-H torsion
[ 10718 10713 10712 10709 ] final  147.77 input   66.30 | X-H torsion
[ 10763 10752 10751 10750 ] final  138.85 input  -60.55 | X-H torsion
[ 11005 11000 10999 10996 ] final    4.30 input  -57.11 | X-H torsion

> <Gold.Protein.ActiveResidues>
 VAL166  LYS551  ARG553  GLY616  TRP617  ASP618  TYR619  PRO620  LYS621  CYS622 
 ASP623  PHE694  ASN695  SER759  ASP760  ASP761  ALA762  ILE779  LEU786  VAL792 
 PHE793  MET794  SER795  GLU796  ALA797  LYS798  CYS799  TRP800  GLU811  SER814 

> <Gold.Protein.RotatedAtoms>
  150.6867  134.3089  159.4737 H   0  0  0  0  0  0  0  0  0  0  0  0  # atno 6907 bound_to 6896
  152.0977  134.9361  160.0579 H   0  0  0  0  0  0  0  0  0  0  0  0  # atno 6908 bound_to 6896
  152.0652  133.4046  159.4472 H   0  0  0  0  0  0  0  0  0  0  0  0  # atno 6909 bound_to 6896
  145.8871  140.8100  142.9810 H   0  0  0  0  0  0  0  0  0  0  0  0  # atno 7974 bound_to 7965
  156.2811  140.2733  156.1835 H   0  0  0  0  0  0  0  0  0  0  0  0  # atno 8008 bound_to 7997
  155.0531  140.0386  157.2568 H   0  0  0  0  0  0  0  0  0  0  0  0  # atno 8009 bound_to 7997
  154.7178  140.2682  155.6574 H   0  0  0  0  0  0  0  0  0  0  0  0  # atno 8010 bound_to 7997
  140.5722  143.9140  150.6721 H   0  0  0  0  0  0  0  0  0  0  0  0  # atno 10167 bound_to 10162
  157.3169  131.0897  151.1272 H   0  0  0  0  0  0  0  0  0  0  0  0  # atno 10718 bound_to 10713
  153.8964  135.3027  155.3448 H   0  0  0  0  0  0  0  0  0  0  0  0  # atno 10763 bound_to 10752
  154.7691  135.4895  153.9617 H   0  0  0  0  0  0  0  0  0  0  0  0  # atno 10764 bound_to 10752
  153.1269  135.6795  153.9342 H   0  0  0  0  0  0  0  0  0  0  0  0  # atno 10765 bound_to 10752
  140.5835  133.9991  155.8057 H   0  0  0  0  0  0  0  0  0  0  0  0  # atno 11005 bound_to 11000
  144.6729  140.1472  143.7432 LP  0  0  0  0  0  0  0  0  0  0  0  0  # atno 17320 bound_to 7965
  145.8954  139.2399  143.1525 LP  0  0  0  0  0  0  0  0  0  0  0  0  # atno 17321 bound_to 7965
  140.2618  143.3518  152.1316 LP  0  0  0  0  0  0  0  0  0  0  0  0  # atno 17342 bound_to 10162
  139.5123  144.6915  151.5747 LP  0  0  0  0  0  0  0  0  0  0  0  0  # atno 17343 bound_to 10162
  157.2572  130.6642  149.5958 LP  0  0  0  0  0  0  0  0  0  0  0  0  # atno 17370 bound_to 10713
  155.9682  130.4520  150.5756 LP  0  0  0  0  0  0  0  0  0  0  0  0  # atno 17371 bound_to 10713
  141.0981  133.9811  157.3125 LP  0  0  0  0  0  0  0  0  0  0  0  0  # atno 17394 bound_to 11000
  139.9306  135.0200  156.8388 LP  0  0  0  0  0  0  0  0  0  0  0  0  # atno 17395 bound_to 11000

$$$$
