AV-unprocessed.smi:2668|AV-procd|sdf|10342|dock10
  -GOLD-   2272014363D 1   1.00000     0.00000
 Structure written by MMmdl.
 53 54  0  0  0  0  0  0  0  0  2 V2000
  143.8896  132.1947  150.6939 C   0  0  0  0  0  0  0  0  0  0  0  0
  145.0110  132.1499  151.6298 N   0  0  0  0  0  0  0  0  0  0  0  0
  145.3768  130.7420  151.7726 C   0  0  0  0  0  0  0  0  0  0  0  0
  146.1504  132.9731  151.1773 C   0  0  2  0  0  0  0  0  0  0  0  0
  147.2847  133.0642  152.2231 C   0  0  0  0  0  0  0  0  0  0  0  0
  146.8807  133.9058  153.4464 C   0  0  0  0  0  0  0  0  0  0  0  0
  146.4785  135.2899  153.0541 N   0  3  2  0  0  0  0  0  0  0  0  0
  146.2851  136.2577  154.1963 C   0  0  0  0  0  0  0  0  0  0  0  0
  145.8808  137.6499  153.6476 C   0  0  0  0  0  0  0  0  0  0  0  0
  145.1006  135.7906  155.0807 C   0  0  0  0  0  0  0  0  0  0  0  0
  147.5835  136.3892  155.0488 C   0  0  0  0  0  0  0  0  0  0  0  0
  147.5235  135.6679  156.3197 N   0  0  0  0  0  0  0  0  0  0  0  0
  147.5894  136.2254  157.5375 C   0  0  0  0  0  0  0  0  0  0  0  0
  147.7280  137.4340  157.7234 O   0  0  0  0  0  0  0  0  0  0  0  0
  147.4710  135.2970  158.5021 N   0  0  0  0  0  0  0  0  0  0  0  0
  147.4925  135.4769  159.9118 C   0  0  0  0  0  0  0  0  0  0  0  0
  147.2411  134.4482  160.8521 C   0  0  0  0  0  0  0  0  0  0  0  0
  147.2739  134.7597  162.2250 C   0  0  0  0  0  0  0  0  0  0  0  0
  147.5497  136.0865  162.6079 C   0  0  0  0  0  0  0  0  0  0  0  0
  147.7779  137.0795  161.7229 N   0  0  0  0  0  0  0  0  0  0  0  0
  147.7439  136.7737  160.4083 C   0  0  0  0  0  0  0  0  0  0  0  0
  145.3715  135.2507  152.0515 C   0  0  0  0  0  0  0  0  0  0  0  0
  145.7586  134.4234  150.8129 C   0  0  0  0  0  0  0  0  0  0  0  0
  143.4286  133.1807  150.6670 H   0  0  0  0  0  0  0  0  0  0  0  0
  143.1028  131.5029  150.9976 H   0  0  0  0  0  0  0  0  0  0  0  0
  144.2028  131.9274  149.6835 H   0  0  0  0  0  0  0  0  0  0  0  0
  146.0879  130.5880  152.5822 H   0  0  0  0  0  0  0  0  0  0  0  0
  145.8071  130.3468  150.8512 H   0  0  0  0  0  0  0  0  0  0  0  0
  144.5029  130.1384  152.0216 H   0  0  0  0  0  0  0  0  0  0  0  0
  146.5520  132.4987  150.2803 H   0  0  0  0  0  0  0  0  0  0  0  0
  147.6443  132.0854  152.5356 H   0  0  0  0  0  0  0  0  0  0  0  0
  148.1501  133.5353  151.7549 H   0  0  0  0  0  0  0  0  0  0  0  0
  146.0657  133.4106  153.9746 H   0  0  0  0  0  0  0  0  0  0  0  0
  147.7337  133.9156  154.1209 H   0  0  0  0  0  0  0  0  0  0  0  0
  145.5355  138.3122  154.4426 H   0  0  0  0  0  0  0  0  0  0  0  0
  145.0693  137.5724  152.9227 H   0  0  0  0  0  0  0  0  0  0  0  0
  146.7123  138.1674  153.1700 H   0  0  0  0  0  0  0  0  0  0  0  0
  144.7857  136.5660  155.7799 H   0  0  0  0  0  0  0  0  0  0  0  0
  145.3534  134.9237  155.6906 H   0  0  0  0  0  0  0  0  0  0  0  0
  144.2286  135.5358  154.4771 H   0  0  0  0  0  0  0  0  0  0  0  0
  148.4581  136.0645  154.4844 H   0  0  0  0  0  0  0  0  0  0  0  0
  147.7669  137.4326  155.3032 H   0  0  0  0  0  0  0  0  0  0  0  0
  147.4072  134.6664  156.2662 H   0  0  0  0  0  0  0  0  0  0  0  0
  147.2827  134.3552  158.1908 H   0  0  0  0  0  0  0  0  0  0  0  0
  147.0110  133.4378  160.5521 H   0  0  0  0  0  0  0  0  0  0  0  0
  147.0867  133.9986  162.9679 H   0  0  0  0  0  0  0  0  0  0  0  0
  147.5815  136.3586  163.6525 H   0  0  0  0  0  0  0  0  0  0  0  0
  147.9281  137.5935  159.7292 H   0  0  0  0  0  0  0  0  0  0  0  0
  144.4697  134.8332  152.4995 H   0  0  0  0  0  0  0  0  0  0  0  0
  145.1156  136.2481  151.7005 H   0  0  0  0  0  0  0  0  0  0  0  0
  146.6147  134.9028  150.3358 H   0  0  0  0  0  0  0  0  0  0  0  0
  144.9717  134.4662  150.0617 H   0  0  0  0  0  0  0  0  0  0  0  0
  147.2722  135.6567  152.5486 H   0  0  0  0  0  0  0  0  0  0  0  0
  1  2  1  0  0  0  0
  1 24  1  0  0  0  0
  1 25  1  0  0  0  0
  1 26  1  0  0  0  0
  2  3  1  0  0  0  0
  2  4  1  0  0  0  0
  3 27  1  0  0  0  0
  3 28  1  0  0  0  0
  3 29  1  0  0  0  0
  4 23  1  0  0  0  0
  4  5  1  0  0  0  0
  4 30  1  0  0  0  0
  5  6  1  0  0  0  0
  5 31  1  0  0  0  0
  5 32  1  0  0  0  0
  6  7  1  0  0  0  0
  6 33  1  0  0  0  0
  6 34  1  0  0  0  0
  7  8  1  0  0  0  0
  7 22  1  0  0  0  0
  7 53  1  0  0  0  0
  8  9  1  0  0  0  0
  8 10  1  0  0  0  0
  8 11  1  0  0  0  0
  9 35  1  0  0  0  0
  9 36  1  0  0  0  0
  9 37  1  0  0  0  0
 10 38  1  0  0  0  0
 10 39  1  0  0  0  0
 10 40  1  0  0  0  0
 11 12  1  0  0  0  0
 11 41  1  0  0  0  0
 11 42  1  0  0  0  0
 12 13  1  0  0  0  0
 12 43  1  0  0  0  0
 13 14  2  0  0  0  0
 13 15  1  0  0  0  0
 15 16  1  0  0  0  0
 15 44  1  0  0  0  0
 16 21  1  0  0  0  0
 16 17  2  0  0  0  0
 17 18  1  0  0  0  0
 17 45  1  0  0  0  0
 18 19  2  0  0  0  0
 18 46  1  0  0  0  0
 19 20  1  0  0  0  0
 19 47  1  0  0  0  0
 20 21  2  0  0  0  0
 21 48  1  0  0  0  0
 22 23  1  0  0  0  0
 22 49  1  0  0  0  0
 22 50  1  0  0  0  0
 23 51  1  0  0  0  0
 23 52  1  0  0  0  0
M  CHG  1   7   1
M  END
> <s_m_source_file>
AV-unprocessed.smi

> <i_m_source_file_index>
2668

> <i_lp_mmshare_version>
43012

> <i_f3d_flags>
0

> <s_epik_input>
W0NIM11OKFtDSDNdKVtDSF0xW0NIMl1bQ0gyXU4oW0NIMl1bQ0gyXTEpQyhbQ0gzXSkoW0NIM10pW0NIMl1bTkhdQyg9TylbTkhdYzJbY0hdW2NIXVtjSF1uW2NIXTI=

> <s_epik_cmdline>
J2VwaWtfcHl0aG9uJywgJy1waCcsICc3LjAnLCAnLXRuJywgJzgnLCAnLW1hJywgJzIwMCcsICctbWV0YWxfYmluZGluZycsICctaW1hZScsICc8aW5maWxlLm1hZT4nLCAnLW9tYWUnLCAnPG91dGZpbGUubWFlPic=

> <r_epik_Ionization_Penalty>
1.32573

> <r_epik_Ionization_Penalty_Charging>
0.00219175

> <r_epik_Ionization_Penalty_Neutral>
1.32353

> <r_epik_State_Penalty>
1.51166

> <r_epik_Charging_Adjusted_Penalty>
1.51385

> <i_epik_Tot_Q>
1

> <i_epik_Tot_abs_Q>
1

> <r_epik_Metal_State_Penalty>
1.51178

> <b_epik_Metal_Only>
0

> <s_lp_Force_Field>
OPLS_2005

> <r_lp_Energy>
39.6139

> <b_lp_Chiralities_Consistent>
1

> <s_lp_Variant>
AV-unprocessed.smi:2668-5

> <Gold.Version>
5.8.1

> <Gold.Id.Protein>
6NUR|6NUR_protein|mol2

> <Gold.PLP.Fitness>
41.2339

> <Gold.PLP.PLP>
-35.1761

> <Gold.PLP.part.hbond>
-2.4574

> <Gold.PLP.part.metal>
0.0000

> <Gold.PLP.part.buried>
-5.9027

> <Gold.PLP.part.nonpolar>
-26.9420

> <Gold.PLP.part.repulsive>
0.1496

> <Gold.PLP.ligand.clash>
0.9362

> <Gold.PLP.ligand.torsion>
1.0636

> <Gold.PLP.Chemscore.Hbond>
3.0034

> <Gold.PLP.Chemscore.CHOScore>
0.0000

> <Gold.PLP.Chemscore.Metal>
0.0000

> <Gold.Chemscore.Hbonds>
donor molecule, donor type, donor heavy atom, donor atom, acceptor molecule, acceptor atom, score
      L1  H     7    53       P1  7948  2.00
      P1  H  6931  6943       L1    20  1.00
      P1  H  6934  6947       L1    20  0.05

> <Gold.PLP.Chemscore.Internal.Correction>
0.1112

> <Gold.Rescore>
     Score         DG    S(hbond)    S(metal)    S(lipo)     H(rot)  DE(clash)    DE(int)     intcor
     15.53     -18.02       1.92        0.00      87.76       1.62       0.03       2.46       ----

> <Gold.Chemscore.Fitness>
15.5263

> <Gold.Chemscore.DG>
-18.0191

> <Gold.Chemscore.ZeroCoef>
-5.4800

> <Gold.Chemscore.Hbond>
1.9239

> <Gold.Chemscore.Metal>
0.0000

> <Gold.Chemscore.Lipo>
87.7579

> <Gold.Chemscore.Internal_Hbond>
0.0000

> <Gold.Chemscore.DEClash>
0.0282

> <Gold.Chemscore.DEInternal>
2.4645

> <Gold.Chemscore.Rot>
1.6228

> <Gold.Chemscore.Internal.Correction>
   9.000000E+99

> <Gold.Chemscore.Hbonds>
donor molecule, donor type, donor heavy atom, donor atom, acceptor molecule, acceptor atom, score
      L1  H     7    53       P1  7948  1.00
      P1  H  6931  6943       L1    20  0.54

> <Gold.Chemscore.Hbond.Weighted>
-6.4258

> <Gold.Chemscore.Metal.Weighted>
-0.0000

> <Gold.Chemscore.Lipo.Weighted>
-10.2677

> <Gold.Chemscore.Internal_Hbond.Weighted>
0.0000

> <Gold.Chemscore.DEClash.Weighted>
0.0282

> <Gold.Chemscore.DEInternal.Weighted>
2.4645

> <Gold.Chemscore.Rot.Weighted>
4.1545

> <Gold.Chemscore.Internal.Correction.Weighted>
   9.000000E+99

> <Gold.Protein.RotatedTorsions>
[ 6907 6896 6895 6894 ] final -152.04 input  -60.11 | X-H torsion
[ 7974 7965 7964 7962 ] final  116.57 input  175.53 | X-H torsion
[ 8008 7997 7996 7995 ] final  -73.57 input   59.86 | X-H torsion
[ 10167 10162 10161 10158 ] final -119.94 input  -65.29 | X-H torsion
[ 10718 10713 10712 10709 ] final  -48.30 input   66.30 | X-H torsion
[ 10763 10752 10751 10750 ] final  -32.47 input  -60.55 | X-H torsion
[ 11005 11000 10999 10996 ] final   78.69 input  -57.11 | X-H torsion

> <Gold.Protein.ActiveResidues>
 VAL166  LYS551  ARG553  GLY616  TRP617  ASP618  TYR619  PRO620  LYS621  CYS622 
 ASP623  PHE694  ASN695  SER759  ASP760  ASP761  ALA762  ILE779  LEU786  VAL792 
 PHE793  MET794  SER795  GLU796  ALA797  LYS798  CYS799  TRP800  GLU811  SER814 

> <Gold.Protein.RotatedAtoms>
  151.2219  133.4498  159.2600 H   0  0  0  0  0  0  0  0  0  0  0  0  # atno 6907 bound_to 6896
  151.0877  134.9897  159.8397 H   0  0  0  0  0  0  0  0  0  0  0  0  # atno 6908 bound_to 6896
  152.5431  134.2154  159.8819 H   0  0  0  0  0  0  0  0  0  0  0  0  # atno 6909 bound_to 6896
  145.1780  139.3065  143.4433 H   0  0  0  0  0  0  0  0  0  0  0  0  # atno 7974 bound_to 7965
  154.5258  140.0777  156.8256 H   0  0  0  0  0  0  0  0  0  0  0  0  # atno 8008 bound_to 7997
  155.3479  140.3411  155.4221 H   0  0  0  0  0  0  0  0  0  0  0  0  # atno 8009 bound_to 7997
  156.1730  140.1626  156.8400 H   0  0  0  0  0  0  0  0  0  0  0  0  # atno 8010 bound_to 7997
  140.0413  143.5151  152.2129 H   0  0  0  0  0  0  0  0  0  0  0  0  # atno 10167 bound_to 10162
  156.2001  130.4156  149.9253 H   0  0  0  0  0  0  0  0  0  0  0  0  # atno 10718 bound_to 10713
  153.8143  135.6880  153.4836 H   0  0  0  0  0  0  0  0  0  0  0  0  # atno 10763 bound_to 10752
  153.1609  135.4580  154.9768 H   0  0  0  0  0  0  0  0  0  0  0  0  # atno 10764 bound_to 10752
  154.7954  135.3317  154.7621 H   0  0  0  0  0  0  0  0  0  0  0  0  # atno 10765 bound_to 10752
  139.9202  134.7783  156.1682 H   0  0  0  0  0  0  0  0  0  0  0  0  # atno 11005 bound_to 11000
  146.3458  140.1949  142.8589 LP  0  0  0  0  0  0  0  0  0  0  0  0  # atno 17320 bound_to 7965
  145.0165  140.8758  143.5192 LP  0  0  0  0  0  0  0  0  0  0  0  0  # atno 17321 bound_to 7965
  139.6012  144.7583  151.3167 LP  0  0  0  0  0  0  0  0  0  0  0  0  # atno 17342 bound_to 10162
  140.7259  143.7005  150.7849 LP  0  0  0  0  0  0  0  0  0  0  0  0  # atno 17343 bound_to 10162
  156.6965  130.8916  151.3594 LP  0  0  0  0  0  0  0  0  0  0  0  0  # atno 17370 bound_to 10713
  157.6980  130.9303  150.0702 LP  0  0  0  0  0  0  0  0  0  0  0  0  # atno 17371 bound_to 10713
  141.0716  133.6794  156.2153 LP  0  0  0  0  0  0  0  0  0  0  0  0  # atno 17394 bound_to 11000
  140.6497  134.5080  157.5576 LP  0  0  0  0  0  0  0  0  0  0  0  0  # atno 17395 bound_to 11000

$$$$
