AV-unprocessed.smi:1824|AV-procd|sdf|7401|dock10
  -GOLD-   22720 9 73D 1   1.00000     0.00000
 Structure written by MMmdl.
 45 47  0  0  0  0  0  0  0  0  2 V2000
  143.9548  143.9690  154.9755 C   0  0  0  0  0  0  0  0  0  0  0  0
  144.9301  142.8523  155.3634 C   0  0  2  0  0  0  0  0  0  0  0  0
  146.0868  142.7201  154.3565 C   0  0  0  0  0  0  0  0  0  0  0  0
  146.9597  141.5792  154.7231 N   0  3  2  0  0  0  0  0  0  0  0  0
  148.1615  141.4425  153.8610 C   0  0  0  0  0  0  0  0  0  0  0  0
  149.3538  140.8013  154.5993 C   0  0  1  0  0  0  0  0  0  0  0  0
  150.1647  140.1260  153.6560 O   0  0  0  0  0  0  0  0  0  0  0  0
  150.1994  141.8569  155.3380 C   0  0  0  0  0  0  0  0  0  0  0  0
  151.1061  141.2689  156.3083 N   0  0  0  0  0  0  0  0  0  0  0  0
  151.8191  140.1337  156.1731 C   0  0  0  0  0  0  0  0  0  0  0  0
  152.5958  139.7768  157.1916 N   0  0  0  0  0  0  0  0  0  0  0  0
  152.3639  140.8013  158.0928 C   0  0  0  0  0  0  0  0  0  0  0  0
  152.8923  141.0239  159.3843 C   0  0  0  0  0  0  0  0  0  0  0  0
  152.5048  142.1564  160.1301 C   0  0  0  0  0  0  0  0  0  0  0  0
  153.0226  142.3556  161.3653 F   0  0  0  0  0  0  0  0  0  0  0  0
  151.5825  143.0815  159.5967 C   0  0  0  0  0  0  0  0  0  0  0  0
  151.2149  144.1663  160.3190 F   0  0  0  0  0  0  0  0  0  0  0  0
  151.0424  142.8810  158.3117 C   0  0  0  0  0  0  0  0  0  0  0  0
  151.4341  141.7507  157.5710 C   0  0  0  0  0  0  0  0  0  0  0  0
  146.1667  140.3290  154.7947 C   0  0  0  0  0  0  0  0  0  0  0  0
  144.9736  140.4809  155.7590 C   0  0  1  0  0  0  0  0  0  0  0  0
  145.3788  140.4814  157.2439 C   0  0  0  0  0  0  0  0  0  0  0  0
  144.2002  141.6289  155.4092 O   0  0  0  0  0  0  0  0  0  0  0  0
  144.4599  144.9344  154.9325 H   0  0  0  0  0  0  0  0  0  0  0  0
  143.1465  144.0503  155.7027 H   0  0  0  0  0  0  0  0  0  0  0  0
  143.5066  143.7815  153.9994 H   0  0  0  0  0  0  0  0  0  0  0  0
  145.3285  143.0818  156.3519 H   0  0  0  0  0  0  0  0  0  0  0  0
  145.6955  142.5715  153.3488 H   0  0  0  0  0  0  0  0  0  0  0  0
  146.6575  143.6479  154.3421 H   0  0  0  0  0  0  0  0  0  0  0  0
  147.9211  140.8249  152.9940 H   0  0  0  0  0  0  0  0  0  0  0  0
  148.4360  142.4226  153.4682 H   0  0  0  0  0  0  0  0  0  0  0  0
  149.0009  140.0713  155.3272 H   0  0  0  0  0  0  0  0  0  0  0  0
  149.7916  140.2432  152.7954 H   0  0  0  0  0  0  0  0  0  0  0  0
  150.7830  142.4461  154.6290 H   0  0  0  0  0  0  0  0  0  0  0  0
  149.5495  142.5585  155.8623 H   0  0  0  0  0  0  0  0  0  0  0  0
  151.7636  139.5339  155.2763 H   0  0  0  0  0  0  0  0  0  0  0  0
  153.5986  140.3221  159.8024 H   0  0  0  0  0  0  0  0  0  0  0  0
  150.3383  143.5888  157.9008 H   0  0  0  0  0  0  0  0  0  0  0  0
  145.8027  140.0821  153.7961 H   0  0  0  0  0  0  0  0  0  0  0  0
  146.7979  139.4989  155.1149 H   0  0  0  0  0  0  0  0  0  0  0  0
  144.3185  139.6213  155.6134 H   0  0  0  0  0  0  0  0  0  0  0  0
  145.8449  139.5345  157.5176 H   0  0  0  0  0  0  0  0  0  0  0  0
  144.5065  140.6149  157.8839 H   0  0  0  0  0  0  0  0  0  0  0  0
  146.0908  141.2716  157.4799 H   0  0  0  0  0  0  0  0  0  0  0  0
  147.2998  141.7528  155.6586 H   0  0  0  0  0  0  0  0  0  0  0  0
  1  2  1  0  0  0  0
  1 24  1  0  0  0  0
  1 25  1  0  0  0  0
  1 26  1  0  0  0  0
  2 23  1  0  0  0  0
  2  3  1  0  0  0  0
  2 27  1  0  0  0  0
  3  4  1  0  0  0  0
  3 28  1  0  0  0  0
  3 29  1  0  0  0  0
  4  5  1  0  0  0  0
  4 20  1  0  0  0  0
  4 45  1  0  0  0  0
  5  6  1  0  0  0  0
  5 30  1  0  0  0  0
  5 31  1  0  0  0  0
  6  7  1  0  0  0  0
  6  8  1  0  0  0  0
  6 32  1  0  0  0  0
  7 33  1  0  0  0  0
  8  9  1  0  0  0  0
  8 34  1  0  0  0  0
  8 35  1  0  0  0  0
  9 19  1  0  0  0  0
  9 10  1  0  0  0  0
 10 11  2  0  0  0  0
 10 36  1  0  0  0  0
 11 12  1  0  0  0  0
 12 19  2  0  0  0  0
 12 13  1  0  0  0  0
 13 14  2  0  0  0  0
 13 37  1  0  0  0  0
 14 15  1  0  0  0  0
 14 16  1  0  0  0  0
 16 17  1  0  0  0  0
 16 18  2  0  0  0  0
 18 19  1  0  0  0  0
 18 38  1  0  0  0  0
 20 21  1  0  0  0  0
 20 39  1  0  0  0  0
 20 40  1  0  0  0  0
 21 22  1  0  0  0  0
 21 23  1  0  0  0  0
 21 41  1  0  0  0  0
 22 42  1  0  0  0  0
 22 43  1  0  0  0  0
 22 44  1  0  0  0  0
M  CHG  1   4   1
M  END
> <s_m_source_file>
AV-unprocessed.smi

> <i_m_source_file_index>
1824

> <i_lp_mmshare_version>
43012

> <i_f3d_flags>
0

> <s_epik_input>
W0NIM11bQ0BASF0xW0NIMl1OKFtDSDJdW0NASF0oTzEpW0NIM10pW0NIMl1bQ0BIXShbT0hdKVtDSDJdbihbY0hdbjIpYyhjMjMpW2NIXWMoRiljKEYpW2NIXTM=

> <s_epik_cmdline>
J2VwaWtfcHl0aG9uJywgJy1waCcsICc3LjAnLCAnLXRuJywgJzgnLCAnLW1hJywgJzIwMCcsICctbWV0YWxfYmluZGluZycsICctaW1hZScsICc8aW5maWxlLm1hZT4nLCAnLW9tYWUnLCAnPG91dGZpbGUubWFlPic=

> <r_epik_Ionization_Penalty>
0.61967

> <r_epik_Ionization_Penalty_Charging>
0.608065

> <r_epik_Ionization_Penalty_Neutral>
0.0116057

> <r_epik_State_Penalty>
0.664205

> <r_epik_Charging_Adjusted_Penalty>
1.27227

> <i_epik_Tot_Q>
1

> <i_epik_Tot_abs_Q>
1

> <r_epik_Metal_State_Penalty>
0.654947

> <b_epik_Metal_Only>
0

> <s_lp_Force_Field>
OPLS_2005

> <r_lp_Energy>
23.0579

> <b_lp_Chiralities_Consistent>
1

> <s_lp_Variant>
AV-unprocessed.smi:1824-9

> <Gold.Version>
5.8.1

> <Gold.Id.Protein>
6NUR|6NUR_protein|mol2

> <Gold.PLP.Fitness>
52.5192

> <Gold.PLP.PLP>
-46.0943

> <Gold.PLP.part.hbond>
-3.0000

> <Gold.PLP.part.metal>
0.0000

> <Gold.PLP.part.buried>
-5.8221

> <Gold.PLP.part.nonpolar>
-37.6181

> <Gold.PLP.part.repulsive>
0.1856

> <Gold.PLP.ligand.clash>
0.0000

> <Gold.PLP.ligand.torsion>
1.0263

> <Gold.PLP.Chemscore.Hbond>
2.8160

> <Gold.PLP.Chemscore.CHOScore>
0.0000

> <Gold.PLP.Chemscore.Metal>
0.0000

> <Gold.Chemscore.Hbonds>
donor molecule, donor type, donor heavy atom, donor atom, acceptor molecule, acceptor atom, score
      L1  H     7    33       P1  7957  1.00
      P1  H  7989  7998       L1     7  0.75
      P1  H  7997  8008       L1    11  1.00

> <Gold.PLP.Chemscore.Internal.Correction>
0.0296

> <Gold.Rescore>
     Score         DG    S(hbond)    S(metal)    S(lipo)     H(rot)  DE(clash)    DE(int)     intcor
     14.17     -16.38       1.98        0.00      87.42       2.33       0.26       1.95       ----

> <Gold.Chemscore.Fitness>
14.1698

> <Gold.Chemscore.DG>
-16.3778

> <Gold.Chemscore.ZeroCoef>
-5.4800

> <Gold.Chemscore.Hbond>
1.9826

> <Gold.Chemscore.Metal>
0.0000

> <Gold.Chemscore.Lipo>
87.4198

> <Gold.Chemscore.Internal_Hbond>
0.0000

> <Gold.Chemscore.DEClash>
0.2599

> <Gold.Chemscore.DEInternal>
1.9482

> <Gold.Chemscore.Rot>
2.3251

> <Gold.Chemscore.Internal.Correction>
   9.000000E+99

> <Gold.Chemscore.Hbonds>
donor molecule, donor type, donor heavy atom, donor atom, acceptor molecule, acceptor atom, score
      L1  H     7    33       P1  7957  0.99
      P1  H  7989  7998       L1     7  0.16
      P1  H  7997  8008       L1    11  0.14

> <Gold.Chemscore.Hbond.Weighted>
-6.6220

> <Gold.Chemscore.Metal.Weighted>
-0.0000

> <Gold.Chemscore.Lipo.Weighted>
-10.2281

> <Gold.Chemscore.Internal_Hbond.Weighted>
0.0000

> <Gold.Chemscore.DEClash.Weighted>
0.2599

> <Gold.Chemscore.DEInternal.Weighted>
1.9482

> <Gold.Chemscore.Rot.Weighted>
5.9523

> <Gold.Chemscore.Internal.Correction.Weighted>
   9.000000E+99

> <Gold.Protein.RotatedTorsions>
[ 6907 6896 6895 6894 ] final   20.04 input  -60.11 | X-H torsion
[ 7974 7965 7964 7962 ] final   47.59 input  175.53 | X-H torsion
[ 8008 7997 7996 7995 ] final  -45.87 input   59.86 | X-H torsion
[ 10167 10162 10161 10158 ] final  -73.57 input  -65.29 | X-H torsion
[ 10718 10713 10712 10709 ] final  108.35 input   66.30 | X-H torsion
[ 10763 10752 10751 10750 ] final  -23.31 input  -60.55 | X-H torsion
[ 11005 11000 10999 10996 ] final  -14.81 input  -57.11 | X-H torsion

> <Gold.Protein.ActiveResidues>
 VAL166  LYS551  ARG553  GLY616  TRP617  ASP618  TYR619  PRO620  LYS621  CYS622 
 ASP623  PHE694  ASN695  SER759  ASP760  ASP761  ALA762  ILE779  LEU786  VAL792 
 PHE793  MET794  SER795  GLU796  ALA797  LYS798  CYS799  TRP800  GLU811  SER814 

> <Gold.Protein.RotatedAtoms>
  151.8901  135.0419  160.0496 H   0  0  0  0  0  0  0  0  0  0  0  0  # atno 6907 bound_to 6896
  152.2442  133.5156  159.5296 H   0  0  0  0  0  0  0  0  0  0  0  0  # atno 6908 bound_to 6896
  150.7063  134.0964  159.3992 H   0  0  0  0  0  0  0  0  0  0  0  0  # atno 6909 bound_to 6896
  146.0283  139.4733  142.9853 H   0  0  0  0  0  0  0  0  0  0  0  0  # atno 7974 bound_to 7965
  154.4003  140.1386  156.3919 H   0  0  0  0  0  0  0  0  0  0  0  0  # atno 8008 bound_to 7997
  155.7906  140.3479  155.5327 H   0  0  0  0  0  0  0  0  0  0  0  0  # atno 8009 bound_to 7997
  155.8583  140.0952  157.1620 H   0  0  0  0  0  0  0  0  0  0  0  0  # atno 8010 bound_to 7997
  140.5099  143.2346  151.7611 H   0  0  0  0  0  0  0  0  0  0  0  0  # atno 10167 bound_to 10162
  157.6590  131.0892  150.6292 H   0  0  0  0  0  0  0  0  0  0  0  0  # atno 10718 bound_to 10713
  153.6657  135.6974  153.5163 H   0  0  0  0  0  0  0  0  0  0  0  0  # atno 10763 bound_to 10752
  153.2596  135.4249  155.0880 H   0  0  0  0  0  0  0  0  0  0  0  0  # atno 10764 bound_to 10752
  154.8440  135.3552  154.6202 H   0  0  0  0  0  0  0  0  0  0  0  0  # atno 10765 bound_to 10752
  140.7902  133.8294  155.9372 H   0  0  0  0  0  0  0  0  0  0  0  0  # atno 11005 bound_to 11000
  145.7082  141.0115  143.1468 LP  0  0  0  0  0  0  0  0  0  0  0  0  # atno 17320 bound_to 7965
  144.7019  139.8725  143.7441 LP  0  0  0  0  0  0  0  0  0  0  0  0  # atno 17321 bound_to 7965
  139.4893  144.4405  151.9770 LP  0  0  0  0  0  0  0  0  0  0  0  0  # atno 17342 bound_to 10162
  140.3497  144.3104  150.5951 LP  0  0  0  0  0  0  0  0  0  0  0  0  # atno 17343 bound_to 10162
  156.6597  130.4508  149.5692 LP  0  0  0  0  0  0  0  0  0  0  0  0  # atno 17370 bound_to 10713
  156.2076  130.6659  151.1235 LP  0  0  0  0  0  0  0  0  0  0  0  0  # atno 17371 bound_to 10713
  140.9397  134.1917  157.4806 LP  0  0  0  0  0  0  0  0  0  0  0  0  # atno 17394 bound_to 11000
  139.8732  134.9867  156.5334 LP  0  0  0  0  0  0  0  0  0  0  0  0  # atno 17395 bound_to 11000

$$$$
