AV-unprocessed.smi:3057|AV-procd|sdf|11664|dock4
  -GOLD-   2272017 73D 1   1.00000     0.00000
 Structure written by MMmdl.
 40 42  0  0  0  0  0  0  0  0  1 V2000
  148.1716  138.5391  157.2165 C   0  0  0  0  0  0  0  0  0  0  0  0
  148.5319  137.6286  156.0266 C   0  0  2  0  0  0  0  0  0  0  0  0
  148.3103  136.1425  156.3623 C   0  0  0  0  0  0  0  0  0  0  0  0
  149.6909  135.6371  156.8062 C   0  0  0  0  0  0  0  0  0  0  0  0
  150.6319  136.6329  156.1474 C   0  0  0  0  0  0  0  0  0  0  0  0
  151.8343  136.4260  155.9907 O   0  0  0  0  0  0  0  0  0  0  0  0
  149.9474  137.7021  155.7220 N   0  0  0  0  0  0  0  0  0  0  0  0
  150.3922  138.7120  154.7579 C   0  0  2  0  0  0  0  0  0  0  0  0
  151.2145  139.8164  155.4456 C   0  0  0  0  0  0  0  0  0  0  0  0
  152.4440  139.7588  155.4986 O   0  0  0  0  0  0  0  0  0  0  0  0
  150.5054  140.8165  155.9897 N   0  0  0  0  0  0  0  0  0  0  0  0
  151.0672  141.9525  156.7147 C   0  0  0  0  0  0  0  0  0  0  0  0
  150.8010  141.8962  158.2333 C   0  0  0  0  0  0  0  0  0  0  0  0
  151.1481  143.1835  158.9625 C   0  0  0  0  0  0  0  0  0  0  0  0
  151.6304  144.3049  158.2537 C   0  0  0  0  0  0  0  0  0  0  0  0
  151.9571  145.4675  158.9774 C   0  0  0  0  0  0  0  0  0  0  0  0
  151.7848  145.4662  160.3749 C   0  0  0  0  0  0  0  0  0  0  0  0
  151.2904  144.2977  160.9884 C   0  0  0  0  0  0  0  0  0  0  0  0
  150.9771  143.1763  160.3037 N   0  0  0  0  0  0  0  0  0  0  0  0
  149.1084  139.3260  154.1434 C   0  0  0  0  0  0  0  0  0  0  0  0
  147.7436  138.1875  154.5077 S   0  0  0  0  0  0  0  0  0  0  0  0
  148.7333  138.2677  158.1110 H   0  0  0  0  0  0  0  0  0  0  0  0
  147.1109  138.4640  157.4572 H   0  0  0  0  0  0  0  0  0  0  0  0
  148.3824  139.5869  157.0022 H   0  0  0  0  0  0  0  0  0  0  0  0
  147.5488  135.9928  157.1285 H   0  0  0  0  0  0  0  0  0  0  0  0
  147.9911  135.5918  155.4761 H   0  0  0  0  0  0  0  0  0  0  0  0
  149.8073  135.6930  157.8889 H   0  0  0  0  0  0  0  0  0  0  0  0
  149.8837  134.6147  156.4801 H   0  0  0  0  0  0  0  0  0  0  0  0
  150.9844  138.2263  153.9799 H   0  0  0  0  0  0  0  0  0  0  0  0
  149.4997  140.7852  155.9040 H   0  0  0  0  0  0  0  0  0  0  0  0
  152.1372  142.0338  156.5179 H   0  0  0  0  0  0  0  0  0  0  0  0
  150.6102  142.8527  156.3029 H   0  0  0  0  0  0  0  0  0  0  0  0
  149.7508  141.6628  158.4123 H   0  0  0  0  0  0  0  0  0  0  0  0
  151.3668  141.0746  158.6741 H   0  0  0  0  0  0  0  0  0  0  0  0
  151.7561  144.2729  157.1812 H   0  0  0  0  0  0  0  0  0  0  0  0
  152.3349  146.3426  158.4699 H   0  0  0  0  0  0  0  0  0  0  0  0
  152.0253  146.3398  160.9625 H   0  0  0  0  0  0  0  0  0  0  0  0
  151.1445  144.2621  162.0580 H   0  0  0  0  0  0  0  0  0  0  0  0
  148.8565  140.2866  154.5950 H   0  0  0  0  0  0  0  0  0  0  0  0
  149.2029  139.4840  153.0688 H   0  0  0  0  0  0  0  0  0  0  0  0
  1  2  1  0  0  0  0
  1 22  1  0  0  0  0
  1 23  1  0  0  0  0
  1 24  1  0  0  0  0
  2  7  1  0  0  0  0
  2 21  1  0  0  0  0
  2  3  1  0  0  0  0
  3  4  1  0  0  0  0
  3 25  1  0  0  0  0
  3 26  1  0  0  0  0
  4  5  1  0  0  0  0
  4 27  1  0  0  0  0
  4 28  1  0  0  0  0
  5  6  2  0  0  0  0
  5  7  1  0  0  0  0
  7  8  1  0  0  0  0
  8  9  1  0  0  0  0
  8 20  1  0  0  0  0
  8 29  1  0  0  0  0
  9 10  2  0  0  0  0
  9 11  1  0  0  0  0
 11 12  1  0  0  0  0
 11 30  1  0  0  0  0
 12 13  1  0  0  0  0
 12 31  1  0  0  0  0
 12 32  1  0  0  0  0
 13 14  1  0  0  0  0
 13 33  1  0  0  0  0
 13 34  1  0  0  0  0
 14 19  1  0  0  0  0
 14 15  2  0  0  0  0
 15 16  1  0  0  0  0
 15 35  1  0  0  0  0
 16 17  2  0  0  0  0
 16 36  1  0  0  0  0
 17 18  1  0  0  0  0
 17 37  1  0  0  0  0
 18 19  2  0  0  0  0
 18 38  1  0  0  0  0
 20 21  1  0  0  0  0
 20 39  1  0  0  0  0
 20 40  1  0  0  0  0
M  END
> <s_m_source_file>
AV-unprocessed.smi

> <i_m_source_file_index>
3057

> <i_lp_mmshare_version>
43012

> <i_f3d_flags>
0

> <s_epik_input>
W0NIMl0xW0NIMl1DKD1PKU4oW0NAQF0xMltDSDNdKVtDQEhdKFtDSDJdUzIpQyg9TylbTkhdW0NIMl1bQ0gyXWMzW2NIXVtjSF1bY0hdW2NIXW4z

> <s_epik_cmdline>
J2VwaWtfcHl0aG9uJywgJy1waCcsICc3LjAnLCAnLXRuJywgJzgnLCAnLW1hJywgJzIwMCcsICctbWV0YWxfYmluZGluZycsICctaW1hZScsICc8aW5maWxlLm1hZT4nLCAnLW9tYWUnLCAnPG91dGZpbGUubWFlPic=

> <r_epik_Ionization_Penalty>
0.0249631

> <r_epik_Ionization_Penalty_Charging>
0

> <r_epik_Ionization_Penalty_Neutral>
0.0249631

> <r_epik_State_Penalty>
0.0202943

> <r_epik_Charging_Adjusted_Penalty>
0.0202943

> <i_epik_Tot_Q>
0

> <i_epik_Tot_abs_Q>
0

> <r_epik_Metal_State_Penalty>
0.0194661

> <b_epik_Metal_Only>
0

> <s_lp_Force_Field>
OPLS_2005

> <r_lp_Energy>
26.6501

> <b_lp_Chiralities_Consistent>
1

> <s_lp_Variant>
AV-unprocessed.smi:3057-4

> <Gold.Version>
5.8.1

> <Gold.Id.Protein>
6NUR|6NUR_protein|mol2

> <Gold.PLP.Fitness>
42.6222

> <Gold.PLP.PLP>
-38.2669

> <Gold.PLP.part.hbond>
-3.8134

> <Gold.PLP.part.metal>
0.0000

> <Gold.PLP.part.buried>
-3.5743

> <Gold.PLP.part.nonpolar>
-31.2022

> <Gold.PLP.part.repulsive>
0.2087

> <Gold.PLP.ligand.clash>
0.0000

> <Gold.PLP.ligand.torsion>
0.8191

> <Gold.PLP.Chemscore.Hbond>
1.9913

> <Gold.PLP.Chemscore.CHOScore>
0.0000

> <Gold.PLP.Chemscore.Metal>
0.0000

> <Gold.Chemscore.Hbonds>
donor molecule, donor type, donor heavy atom, donor atom, acceptor molecule, acceptor atom, score
      P1  H  7997  8008       L1    10  0.89
      P1  H 10752 10765       L1     6  1.00

> <Gold.PLP.Chemscore.Internal.Correction>
0.0198

> <Gold.Rescore>
     Score         DG    S(hbond)    S(metal)    S(lipo)     H(rot)  DE(clash)    DE(int)     intcor
     18.56     -19.50       2.00        0.00      96.42       1.53       0.16       0.78       ----

> <Gold.Chemscore.Fitness>
18.5625

> <Gold.Chemscore.DG>
-19.5047

> <Gold.Chemscore.ZeroCoef>
-5.4800

> <Gold.Chemscore.Hbond>
1.9971

> <Gold.Chemscore.Metal>
0.0000

> <Gold.Chemscore.Lipo>
96.4193

> <Gold.Chemscore.Internal_Hbond>
0.0000

> <Gold.Chemscore.DEClash>
0.1641

> <Gold.Chemscore.DEInternal>
0.7780

> <Gold.Chemscore.Rot>
1.5339

> <Gold.Chemscore.Internal.Correction>
   9.000000E+99

> <Gold.Chemscore.Hbonds>
donor molecule, donor type, donor heavy atom, donor atom, acceptor molecule, acceptor atom, score
      P1  H  7997  8008       L1    10  0.87
      P1  H 10752 10765       L1     6  1.00

> <Gold.Chemscore.Hbond.Weighted>
-6.6703

> <Gold.Chemscore.Metal.Weighted>
-0.0000

> <Gold.Chemscore.Lipo.Weighted>
-11.2811

> <Gold.Chemscore.Internal_Hbond.Weighted>
0.0000

> <Gold.Chemscore.DEClash.Weighted>
0.1641

> <Gold.Chemscore.DEInternal.Weighted>
0.7780

> <Gold.Chemscore.Rot.Weighted>
3.9267

> <Gold.Chemscore.Internal.Correction.Weighted>
   9.000000E+99

> <Gold.Protein.RotatedTorsions>
[ 6907 6896 6895 6894 ] final    1.92 input  -60.11 | X-H torsion
[ 7974 7965 7964 7962 ] final   58.97 input  175.53 | X-H torsion
[ 8008 7997 7996 7995 ] final  -19.55 input   59.86 | X-H torsion
[ 10167 10162 10161 10158 ] final   50.95 input  -65.29 | X-H torsion
[ 10718 10713 10712 10709 ] final  111.27 input   66.30 | X-H torsion
[ 10763 10752 10751 10750 ] final -150.95 input  -60.55 | X-H torsion
[ 11005 11000 10999 10996 ] final   58.61 input  -57.11 | X-H torsion

> <Gold.Protein.ActiveResidues>
 VAL166  LYS551  ARG553  GLY616  TRP617  ASP618  TYR619  PRO620  LYS621  CYS622 
 ASP623  PHE694  ASN695  SER759  ASP760  ASP761  ALA762  ILE779  LEU786  VAL792 
 PHE793  MET794  SER795  GLU796  ALA797  LYS798  CYS799  TRP800  GLU811  SER814 

> <Gold.Protein.RotatedAtoms>
  151.6004  135.1047  160.0058 H   0  0  0  0  0  0  0  0  0  0  0  0  # atno 6907 bound_to 6896
  152.4260  133.7192  159.6534 H   0  0  0  0  0  0  0  0  0  0  0  0  # atno 6908 bound_to 6896
  150.8150  133.8282  159.3187 H   0  0  0  0  0  0  0  0  0  0  0  0  # atno 6909 bound_to 6896
  145.9123  139.3663  143.0528 H   0  0  0  0  0  0  0  0  0  0  0  0  # atno 7974 bound_to 7965
  154.4829  140.2085  155.9723 H   0  0  0  0  0  0  0  0  0  0  0  0  # atno 8008 bound_to 7997
  156.1192  140.3216  155.8153 H   0  0  0  0  0  0  0  0  0  0  0  0  # atno 8009 bound_to 7997
  155.4498  140.0516  157.2993 H   0  0  0  0  0  0  0  0  0  0  0  0  # atno 8010 bound_to 7997
  140.2670  144.3308  150.6301 H   0  0  0  0  0  0  0  0  0  0  0  0  # atno 10167 bound_to 10162
  157.6453  131.0947  150.6724 H   0  0  0  0  0  0  0  0  0  0  0  0  # atno 10718 bound_to 10713
  154.8088  135.3272  154.7361 H   0  0  0  0  0  0  0  0  0  0  0  0  # atno 10763 bound_to 10752
  153.8014  135.6903  153.4859 H   0  0  0  0  0  0  0  0  0  0  0  0  # atno 10764 bound_to 10752
  153.1851  135.4572  155.0024 H   0  0  0  0  0  0  0  0  0  0  0  0  # atno 10765 bound_to 10752
  140.0365  134.5936  155.9438 H   0  0  0  0  0  0  0  0  0  0  0  0  # atno 11005 bound_to 11000
  145.8656  140.9450  143.0677 LP  0  0  0  0  0  0  0  0  0  0  0  0  # atno 17320 bound_to 7965
  144.6744  140.0588  143.7476 LP  0  0  0  0  0  0  0  0  0  0  0  0  # atno 17321 bound_to 7965
  140.5920  143.2168  151.7235 LP  0  0  0  0  0  0  0  0  0  0  0  0  # atno 17342 bound_to 10162
  139.5000  144.3925  152.0265 LP  0  0  0  0  0  0  0  0  0  0  0  0  # atno 17343 bound_to 10162
  156.7042  130.4632  149.5565 LP  0  0  0  0  0  0  0  0  0  0  0  0  # atno 17370 bound_to 10713
  156.1774  130.6477  151.0911 LP  0  0  0  0  0  0  0  0  0  0  0  0  # atno 17371 bound_to 10713
  141.1860  133.6556  156.5221 LP  0  0  0  0  0  0  0  0  0  0  0  0  # atno 17394 bound_to 11000
  140.4140  134.7247  157.4852 LP  0  0  0  0  0  0  0  0  0  0  0  0  # atno 17395 bound_to 11000

$$$$
