AV-unprocessed.smi:1047|AV-procd|sdf|4560|dock7
  -GOLD-   22720 3 03D 1   1.00000     0.00000
 Structure written by MMmdl.
 57 59  0  0  0  0  0  0  0  0  3 V2000
  142.7390  146.6409  154.8426 C   0  0  0  0  0  0  0  0  0  0  0  0
  143.7036  145.6650  154.1534 C   0  0  0  0  0  0  0  0  0  0  0  0
  144.0481  144.5026  155.0103 N   0  3  1  0  0  0  0  0  0  0  0  0
  142.8663  143.6634  155.3214 C   0  0  0  0  0  0  0  0  0  0  0  0
  143.2548  142.5107  156.2621 C   0  0  0  0  0  0  0  0  0  0  0  0
  144.2896  141.7354  155.6690 O   0  0  0  0  0  0  0  0  0  0  0  0
  145.4661  142.4995  155.4267 C   0  0  1  0  0  0  0  0  0  0  0  0
  146.5693  141.5607  154.9081 C   0  0  0  0  0  0  0  0  0  0  0  0
  147.7846  142.2996  154.5070 N   0  3  0  0  0  0  0  0  0  0  0  0
  149.0168  141.4863  154.5059 C   0  0  0  0  0  0  0  0  0  0  0  0
  149.5988  141.3640  155.9235 C   0  0  2  0  0  0  0  0  0  0  0  0
  149.2444  142.5193  156.6593 O   0  0  0  0  0  0  0  0  0  0  0  0
  151.1327  141.2174  155.9110 C   0  0  0  0  0  0  0  0  0  0  0  0
  151.6664  140.8934  157.2221 N   0  0  0  0  0  0  0  0  0  0  0  0
  152.1206  139.6974  157.6441 C   0  0  0  0  0  0  0  0  0  0  0  0
  152.5769  139.6256  158.8911 N   0  0  0  0  0  0  0  0  0  0  0  0
  152.3899  140.9242  159.3327 C   0  0  0  0  0  0  0  0  0  0  0  0
  152.6735  141.5185  160.5819 C   0  0  0  0  0  0  0  0  0  0  0  0
  152.3940  142.8839  160.8150 C   0  0  0  0  0  0  0  0  0  0  0  0
  152.7157  143.4819  162.1732 C   0  0  0  0  0  0  0  0  0  0  0  0
  151.8199  143.6772  159.7892 C   0  0  0  0  0  0  0  0  0  0  0  0
  151.5065  145.1452  160.0189 C   0  0  0  0  0  0  0  0  0  0  0  0
  151.5330  143.1001  158.5344 C   0  0  0  0  0  0  0  0  0  0  0  0
  151.8173  141.7409  158.3142 C   0  0  0  0  0  0  0  0  0  0  0  0
  145.1458  143.6645  154.4655 C   0  0  0  0  0  0  0  0  0  0  0  0
  142.4333  147.4274  154.1522 H   0  0  0  0  0  0  0  0  0  0  0  0
  143.1949  147.1289  155.7034 H   0  0  0  0  0  0  0  0  0  0  0  0
  141.8363  146.1313  155.1809 H   0  0  0  0  0  0  0  0  0  0  0  0
  143.2200  145.3043  153.2443 H   0  0  0  0  0  0  0  0  0  0  0  0
  144.6112  146.1813  153.8367 H   0  0  0  0  0  0  0  0  0  0  0  0
  142.0918  144.2717  155.7904 H   0  0  0  0  0  0  0  0  0  0  0  0
  142.4449  143.2658  154.3965 H   0  0  0  0  0  0  0  0  0  0  0  0
  143.5773  142.8901  157.2331 H   0  0  0  0  0  0  0  0  0  0  0  0
  142.3932  141.8678  156.4427 H   0  0  0  0  0  0  0  0  0  0  0  0
  145.8083  142.9146  156.3767 H   0  0  0  0  0  0  0  0  0  0  0  0
  146.8273  140.8303  155.6761 H   0  0  0  0  0  0  0  0  0  0  0  0
  146.1972  141.0001  154.0492 H   0  0  0  0  0  0  0  0  0  0  0  0
  147.6479  142.6581  153.5720 H   0  0  0  0  0  0  0  0  0  0  0  0
  148.7750  140.4956  154.1186 H   0  0  0  0  0  0  0  0  0  0  0  0
  149.7514  141.9241  153.8281 H   0  0  0  0  0  0  0  0  0  0  0  0
  149.1626  140.4959  156.4197 H   0  0  0  0  0  0  0  0  0  0  0  0
  149.2204  143.2567  156.0676 H   0  0  0  0  0  0  0  0  0  0  0  0
  151.4324  140.4290  155.2193 H   0  0  0  0  0  0  0  0  0  0  0  0
  151.6022  142.1374  155.5588 H   0  0  0  0  0  0  0  0  0  0  0  0
  152.1231  138.8319  156.9974 H   0  0  0  0  0  0  0  0  0  0  0  0
  153.1096  140.9135  161.3634 H   0  0  0  0  0  0  0  0  0  0  0  0
  151.8095  143.8573  162.6490 H   0  0  0  0  0  0  0  0  0  0  0  0
  153.4210  144.3069  162.0703 H   0  0  0  0  0  0  0  0  0  0  0  0
  153.1618  142.7427  162.8393 H   0  0  0  0  0  0  0  0  0  0  0  0
  151.0542  145.5989  159.1366 H   0  0  0  0  0  0  0  0  0  0  0  0
  152.4170  145.6983  160.2509 H   0  0  0  0  0  0  0  0  0  0  0  0
  150.8092  145.2623  160.8489 H   0  0  0  0  0  0  0  0  0  0  0  0
  151.0965  143.6935  157.7449 H   0  0  0  0  0  0  0  0  0  0  0  0
  144.8520  143.2836  153.4863 H   0  0  0  0  0  0  0  0  0  0  0  0
  146.0432  144.2651  154.3193 H   0  0  0  0  0  0  0  0  0  0  0  0
  147.9173  143.0794  155.1345 H   0  0  0  0  0  0  0  0  0  0  0  0
  144.3683  144.8796  155.8914 H   0  0  0  0  0  0  0  0  0  0  0  0
  1  2  1  0  0  0  0
  1 26  1  0  0  0  0
  1 27  1  0  0  0  0
  1 28  1  0  0  0  0
  2  3  1  0  0  0  0
  2 29  1  0  0  0  0
  2 30  1  0  0  0  0
  3 25  1  0  0  0  0
  3  4  1  0  0  0  0
  3 57  1  0  0  0  0
  4  5  1  0  0  0  0
  4 31  1  0  0  0  0
  4 32  1  0  0  0  0
  5  6  1  0  0  0  0
  5 33  1  0  0  0  0
  5 34  1  0  0  0  0
  6  7  1  0  0  0  0
  7  8  1  0  0  0  0
  7 25  1  0  0  0  0
  7 35  1  0  0  0  0
  8  9  1  0  0  0  0
  8 36  1  0  0  0  0
  8 37  1  0  0  0  0
  9 10  1  0  0  0  0
  9 38  1  0  0  0  0
  9 56  1  0  0  0  0
 10 11  1  0  0  0  0
 10 39  1  0  0  0  0
 10 40  1  0  0  0  0
 11 12  1  0  0  0  0
 11 13  1  0  0  0  0
 11 41  1  0  0  0  0
 12 42  1  0  0  0  0
 13 14  1  0  0  0  0
 13 43  1  0  0  0  0
 13 44  1  0  0  0  0
 14 24  1  0  0  0  0
 14 15  1  0  0  0  0
 15 16  2  0  0  0  0
 15 45  1  0  0  0  0
 16 17  1  0  0  0  0
 17 24  2  0  0  0  0
 17 18  1  0  0  0  0
 18 19  2  0  0  0  0
 18 46  1  0  0  0  0
 19 20  1  0  0  0  0
 19 21  1  0  0  0  0
 20 47  1  0  0  0  0
 20 48  1  0  0  0  0
 20 49  1  0  0  0  0
 21 22  1  0  0  0  0
 21 23  2  0  0  0  0
 22 50  1  0  0  0  0
 22 51  1  0  0  0  0
 22 52  1  0  0  0  0
 23 24  1  0  0  0  0
 23 53  1  0  0  0  0
 25 54  1  0  0  0  0
 25 55  1  0  0  0  0
M  CHG  1   3   1
M  CHG  1   9   1
M  END
> <s_m_source_file>
AV-unprocessed.smi

> <i_m_source_file_index>
1047

> <i_lp_mmshare_version>
43012

> <i_f3d_flags>
0

> <s_epik_input>
W0NIM11bQ0gyXU4xW0NIMl1bQ0gyXU9bQ0BIXShbQ0gyXTEpW0NIMl1bTkhdW0NIMl1bQ0BIXShbT0hdKVtDSDJdbihbY0hdbjIpYyhjMjMpW2NIXWMoW0NIM10pYyhbY0hdMylbQ0gzXQ==

> <s_epik_cmdline>
J2VwaWtfcHl0aG9uJywgJy1waCcsICc3LjAnLCAnLXRuJywgJzgnLCAnLW1hJywgJzIwMCcsICctbWV0YWxfYmluZGluZycsICctaW1hZScsICc8aW5maWxlLm1hZT4nLCAnLW9tYWUnLCAnPG91dGZpbGUubWFlPic=

> <r_epik_Ionization_Penalty>
0.528991

> <r_epik_Ionization_Penalty_Charging>
0.438567

> <r_epik_Ionization_Penalty_Neutral>
0.0904237

> <r_epik_State_Penalty>
0.533036

> <r_epik_Charging_Adjusted_Penalty>
0.971603

> <i_epik_Tot_Q>
2

> <i_epik_Tot_abs_Q>
2

> <r_epik_Metal_State_Penalty>
0.448985

> <b_epik_Metal_Only>
0

> <s_lp_Force_Field>
OPLS_2005

> <r_lp_Energy>
32.0872

> <b_lp_Chiralities_Consistent>
1

> <s_lp_Variant>
AV-unprocessed.smi:1047-1

> <Gold.Version>
5.8.1

> <Gold.Id.Protein>
6NUR|6NUR_protein|mol2

> <Gold.PLP.Fitness>
60.0666

> <Gold.PLP.PLP>
-52.7162

> <Gold.PLP.part.hbond>
-1.5950

> <Gold.PLP.part.metal>
0.0000

> <Gold.PLP.part.buried>
-7.2759

> <Gold.PLP.part.nonpolar>
-43.4112

> <Gold.PLP.part.repulsive>
0.3401

> <Gold.PLP.ligand.clash>
0.0000

> <Gold.PLP.ligand.torsion>
0.8884

> <Gold.PLP.Chemscore.Hbond>
3.0000

> <Gold.PLP.Chemscore.CHOScore>
0.0000

> <Gold.PLP.Chemscore.Metal>
0.0000

> <Gold.Chemscore.Hbonds>
donor molecule, donor type, donor heavy atom, donor atom, acceptor molecule, acceptor atom, score
      L1  H     9    56       P1  8028  2.00
      L1  H    12    42       P1  8028  1.00

> <Gold.PLP.Chemscore.Internal.Correction>
0.1272

> <Gold.Rescore>
     Score         DG    S(hbond)    S(metal)    S(lipo)     H(rot)  DE(clash)    DE(int)     intcor
     19.80     -20.80       1.88        0.00     136.33       2.70       0.01       0.98       ----

> <Gold.Chemscore.Fitness>
19.8032

> <Gold.Chemscore.DG>
-20.8013

> <Gold.Chemscore.ZeroCoef>
-5.4800

> <Gold.Chemscore.Hbond>
1.8800

> <Gold.Chemscore.Metal>
0.0000

> <Gold.Chemscore.Lipo>
136.3257

> <Gold.Chemscore.Internal_Hbond>
0.0000

> <Gold.Chemscore.DEClash>
0.0147

> <Gold.Chemscore.DEInternal>
0.9833

> <Gold.Chemscore.Rot>
2.6985

> <Gold.Chemscore.Internal.Correction>
   9.000000E+99

> <Gold.Chemscore.Hbonds>
donor molecule, donor type, donor heavy atom, donor atom, acceptor molecule, acceptor atom, score
      L1  H     9    56       P1  8028  0.78
      L1  H    12    42       P1  8028  0.94

> <Gold.Chemscore.Hbond.Weighted>
-6.2793

> <Gold.Chemscore.Metal.Weighted>
-0.0000

> <Gold.Chemscore.Lipo.Weighted>
-15.9501

> <Gold.Chemscore.Internal_Hbond.Weighted>
0.0000

> <Gold.Chemscore.DEClash.Weighted>
0.0147

> <Gold.Chemscore.DEInternal.Weighted>
0.9833

> <Gold.Chemscore.Rot.Weighted>
6.9081

> <Gold.Chemscore.Internal.Correction.Weighted>
   9.000000E+99

> <Gold.Protein.RotatedTorsions>
[ 6907 6896 6895 6894 ] final   40.81 input  -60.11 | X-H torsion
[ 7974 7965 7964 7962 ] final  -88.40 input  175.53 | X-H torsion
[ 8008 7997 7996 7995 ] final  -94.54 input   59.86 | X-H torsion
[ 10167 10162 10161 10158 ] final   13.61 input  -65.29 | X-H torsion
[ 10718 10713 10712 10709 ] final  137.24 input   66.30 | X-H torsion
[ 10763 10752 10751 10750 ] final  -80.48 input  -60.55 | X-H torsion
[ 11005 11000 10999 10996 ] final   14.96 input  -57.11 | X-H torsion

> <Gold.Protein.ActiveResidues>
 VAL166  LYS551  ARG553  GLY616  TRP617  ASP618  TYR619  PRO620  LYS621  CYS622 
 ASP623  PHE694  ASN695  SER759  ASP760  ASP761  ALA762  ILE779  LEU786  VAL792 
 PHE793  MET794  SER795  GLU796  ALA797  LYS798  CYS799  TRP800  GLU811  SER814 

> <Gold.Protein.RotatedAtoms>
  152.1873  134.8702  160.0520 H   0  0  0  0  0  0  0  0  0  0  0  0  # atno 6907 bound_to 6896
  151.9604  133.3688  159.4041 H   0  0  0  0  0  0  0  0  0  0  0  0  # atno 6908 bound_to 6896
  150.6928  134.4170  159.5231 H   0  0  0  0  0  0  0  0  0  0  0  0  # atno 6909 bound_to 6896
  145.4537  140.9561  143.2008 H   0  0  0  0  0  0  0  0  0  0  0  0  # atno 7974 bound_to 7965
  154.7497  140.0488  157.0883 H   0  0  0  0  0  0  0  0  0  0  0  0  # atno 8008 bound_to 7997
  155.0072  140.3131  155.4824 H   0  0  0  0  0  0  0  0  0  0  0  0  # atno 8009 bound_to 7997
  156.2882  140.2190  156.5185 H   0  0  0  0  0  0  0  0  0  0  0  0  # atno 8010 bound_to 7997
  140.5991  143.8641  150.6947 H   0  0  0  0  0  0  0  0  0  0  0  0  # atno 10167 bound_to 10162
  157.4382  131.1055  151.0173 H   0  0  0  0  0  0  0  0  0  0  0  0  # atno 10718 bound_to 10713
  154.5517  135.5659  153.6928 H   0  0  0  0  0  0  0  0  0  0  0  0  # atno 10763 bound_to 10752
  152.9991  135.6252  154.2365 H   0  0  0  0  0  0  0  0  0  0  0  0  # atno 10764 bound_to 10752
  154.2300  135.2866  155.2873 H   0  0  0  0  0  0  0  0  0  0  0  0  # atno 10765 bound_to 10752
  140.4636  134.1102  155.7720 H   0  0  0  0  0  0  0  0  0  0  0  0  # atno 11005 bound_to 11000
  144.8045  139.6077  143.7057 LP  0  0  0  0  0  0  0  0  0  0  0  0  # atno 17320 bound_to 7965
  146.2490  139.6159  142.9440 LP  0  0  0  0  0  0  0  0  0  0  0  0  # atno 17321 bound_to 7965
  140.2182  143.3829  152.1664 LP  0  0  0  0  0  0  0  0  0  0  0  0  # atno 17342 bound_to 10162
  139.5279  144.7124  151.5164 LP  0  0  0  0  0  0  0  0  0  0  0  0  # atno 17343 bound_to 10162
  157.1046  130.5996  149.5468 LP  0  0  0  0  0  0  0  0  0  0  0  0  # atno 17370 bound_to 10713
  155.9938  130.5001  150.7397 LP  0  0  0  0  0  0  0  0  0  0  0  0  # atno 17371 bound_to 10713
  141.1610  133.8793  157.1849 LP  0  0  0  0  0  0  0  0  0  0  0  0  # atno 17394 bound_to 11000
  139.9929  135.0058  157.0017 LP  0  0  0  0  0  0  0  0  0  0  0  0  # atno 17395 bound_to 11000

$$$$
