AV-unprocessed.smi:551|AV-procd|sdf|2900|dock2
  -GOLD-   2262023393D 1   1.00000     0.00000
 Structure written by MMmdl.
 38 39  0  0  0  0  0  0  0  0  1 V2000
  150.1711  139.9375  154.8965 C   0  0  0  0  0  0  0  0  0  0  0  0
  149.2070  141.0503  155.3430 C   0  0  2  0  0  0  0  0  0  0  0  0
  148.4731  141.7019  154.1483 C   0  0  0  0  0  0  0  0  0  0  0  0
  147.1455  142.1719  154.4991 N   0  0  0  0  0  0  0  0  0  0  0  0
  146.1888  142.6967  153.6399 C   0  0  0  0  0  0  0  0  0  0  0  0
  145.0931  143.0060  154.4135 C   0  0  0  0  0  0  0  0  0  0  0  0
  145.3509  142.6792  155.7429 N   0  0  0  0  0  0  0  0  0  0  0  0
  146.5835  142.1889  155.7153 C   0  0  0  0  0  0  0  0  0  0  0  0
  149.8804  142.0292  156.2016 N   0  0  0  0  0  0  0  0  0  0  0  0
  150.7418  141.7831  157.2037 C   0  0  0  0  0  0  0  0  0  0  0  0
  151.0760  140.6508  157.5525 O   0  0  0  0  0  0  0  0  0  0  0  0
  151.3227  143.0116  157.9157 C   0  0  0  0  0  0  0  0  0  0  0  0
  152.4080  142.5941  158.9309 C   0  0  0  0  0  0  0  0  0  0  0  0
  152.9892  143.8151  159.6625 C   0  0  0  0  0  0  0  0  0  0  0  0
  151.8834  144.6304  160.3513 C   0  0  0  0  0  0  0  0  0  0  0  0
  150.7935  145.0456  159.3508 C   0  0  0  0  0  0  0  0  0  0  0  0
  150.2140  143.8236  158.6195 C   0  0  0  0  0  0  0  0  0  0  0  0
  149.6363  139.1504  154.3647 H   0  0  0  0  0  0  0  0  0  0  0  0
  150.6647  139.4770  155.7528 H   0  0  0  0  0  0  0  0  0  0  0  0
  150.9455  140.3152  154.2285 H   0  0  0  0  0  0  0  0  0  0  0  0
  148.4524  140.5804  155.9751 H   0  0  0  0  0  0  0  0  0  0  0  0
  149.0433  142.5361  153.7390 H   0  0  0  0  0  0  0  0  0  0  0  0
  148.3695  140.9790  153.3380 H   0  0  0  0  0  0  0  0  0  0  0  0
  146.3647  142.8071  152.5796 H   0  0  0  0  0  0  0  0  0  0  0  0
  144.1471  143.4351  154.1178 H   0  0  0  0  0  0  0  0  0  0  0  0
  147.0907  141.8369  156.6016 H   0  0  0  0  0  0  0  0  0  0  0  0
  149.6818  142.9985  156.0004 H   0  0  0  0  0  0  0  0  0  0  0  0
  151.7881  143.6546  157.1662 H   0  0  0  0  0  0  0  0  0  0  0  0
  151.9912  141.9012  159.6639 H   0  0  0  0  0  0  0  0  0  0  0  0
  153.2112  142.0577  158.4234 H   0  0  0  0  0  0  0  0  0  0  0  0
  153.7257  143.4917  160.3986 H   0  0  0  0  0  0  0  0  0  0  0  0
  153.5208  144.4483  158.9510 H   0  0  0  0  0  0  0  0  0  0  0  0
  151.4379  144.0381  161.1515 H   0  0  0  0  0  0  0  0  0  0  0  0
  152.3115  145.5152  160.8233 H   0  0  0  0  0  0  0  0  0  0  0  0
  149.9975  145.5801  159.8699 H   0  0  0  0  0  0  0  0  0  0  0  0
  151.2107  145.7430  158.6236 H   0  0  0  0  0  0  0  0  0  0  0  0
  149.4706  144.1533  157.8925 H   0  0  0  0  0  0  0  0  0  0  0  0
  149.6850  143.1953  159.3380 H   0  0  0  0  0  0  0  0  0  0  0  0
  1  2  1  0  0  0  0
  1 18  1  0  0  0  0
  1 19  1  0  0  0  0
  1 20  1  0  0  0  0
  2  3  1  0  0  0  0
  2  9  1  0  0  0  0
  2 21  1  0  0  0  0
  3  4  1  0  0  0  0
  3 22  1  0  0  0  0
  3 23  1  0  0  0  0
  4  8  1  0  0  0  0
  4  5  1  0  0  0  0
  5  6  2  0  0  0  0
  5 24  1  0  0  0  0
  6  7  1  0  0  0  0
  6 25  1  0  0  0  0
  7  8  2  0  0  0  0
  8 26  1  0  0  0  0
  9 10  1  0  0  0  0
  9 27  1  0  0  0  0
 10 11  2  0  0  0  0
 10 12  1  0  0  0  0
 12 17  1  0  0  0  0
 12 13  1  0  0  0  0
 12 28  1  0  0  0  0
 13 14  1  0  0  0  0
 13 29  1  0  0  0  0
 13 30  1  0  0  0  0
 14 15  1  0  0  0  0
 14 31  1  0  0  0  0
 14 32  1  0  0  0  0
 15 16  1  0  0  0  0
 15 33  1  0  0  0  0
 15 34  1  0  0  0  0
 16 17  1  0  0  0  0
 16 35  1  0  0  0  0
 16 36  1  0  0  0  0
 17 37  1  0  0  0  0
 17 38  1  0  0  0  0
M  END
> <s_m_source_file>
AV-unprocessed.smi

> <i_m_source_file_index>
551

> <i_lp_mmshare_version>
43012

> <i_f3d_flags>
0

> <s_epik_input>
W2NIXTFuW2NIXVtjSF1uMVtDSDJdW0NAQEhdKFtDSDNdKVtOSF1DKD1PKVtDSF0yW0NIMl1bQ0gyXVtDSDJdW0NIMl1bQ0gyXTI=

> <s_epik_cmdline>
J2VwaWtfcHl0aG9uJywgJy1waCcsICc3LjAnLCAnLXRuJywgJzgnLCAnLW1hJywgJzIwMCcsICctbWV0YWxfYmluZGluZycsICctaW1hZScsICc8aW5maWxlLm1hZT4nLCAnLW9tYWUnLCAnPG91dGZpbGUubWFlPic=

> <r_lp_tautomer_probability>
1

> <r_epik_Ionization_Penalty>
0.642614

> <r_epik_Ionization_Penalty_Charging>
0.642614

> <r_epik_Ionization_Penalty_Neutral>
3.29891e-08

> <r_epik_State_Penalty>
0.660429

> <r_epik_Charging_Adjusted_Penalty>
1.30304

> <i_epik_Tot_Q>
0

> <i_epik_Tot_abs_Q>
0

> <r_epik_Metal_State_Penalty>
0.31224

> <b_epik_Metal_Only>
0

> <s_lp_Force_Field>
OPLS_2005

> <r_lp_Energy>
12.8339

> <b_lp_Chiralities_Consistent>
1

> <s_lp_Variant>
AV-unprocessed.smi:551-3

> <Gold.Version>
5.8.1

> <Gold.Id.Protein>
6NUR|6NUR_protein|mol2

> <Gold.PLP.Fitness>
42.9141

> <Gold.PLP.PLP>
-38.9558

> <Gold.PLP.part.hbond>
-1.0000

> <Gold.PLP.part.metal>
0.0000

> <Gold.PLP.part.buried>
-4.2415

> <Gold.PLP.part.nonpolar>
-34.8115

> <Gold.PLP.part.repulsive>
0.2340

> <Gold.PLP.ligand.clash>
0.0000

> <Gold.PLP.ligand.torsion>
0.5661

> <Gold.PLP.Chemscore.Hbond>
1.0000

> <Gold.PLP.Chemscore.CHOScore>
0.6726

> <Gold.PLP.Chemscore.Metal>
0.0000

> <Gold.Chemscore.Hbonds>
donor molecule, donor type, donor heavy atom, donor atom, acceptor molecule, acceptor atom, score
      L1  H     9    27       P1  8028  1.00
      L1  C     6    25       P1 10174  0.62

> <Gold.PLP.Chemscore.Internal.Correction>
0.0728

> <Gold.Rescore>
     Score         DG    S(hbond)    S(metal)    S(lipo)     H(rot)  DE(clash)    DE(int)     intcor
     14.34     -15.91       0.99        0.00      98.92       1.73       0.05       1.53       ----

> <Gold.Chemscore.Fitness>
14.3360

> <Gold.Chemscore.DG>
-15.9135

> <Gold.Chemscore.ZeroCoef>
-5.4800

> <Gold.Chemscore.Hbond>
0.9862

> <Gold.Chemscore.Metal>
0.0000

> <Gold.Chemscore.Lipo>
98.9184

> <Gold.Chemscore.Internal_Hbond>
0.0000

> <Gold.Chemscore.DEClash>
0.0524

> <Gold.Chemscore.DEInternal>
1.5251

> <Gold.Chemscore.Rot>
1.7319

> <Gold.Chemscore.Internal.Correction>
   9.000000E+99

> <Gold.Chemscore.Hbonds>
donor molecule, donor type, donor heavy atom, donor atom, acceptor molecule, acceptor atom, score
      L1  H     9    27       P1  8028  1.00

> <Gold.Chemscore.Hbond.Weighted>
-3.2939

> <Gold.Chemscore.Metal.Weighted>
-0.0000

> <Gold.Chemscore.Lipo.Weighted>
-11.5735

> <Gold.Chemscore.Internal_Hbond.Weighted>
0.0000

> <Gold.Chemscore.DEClash.Weighted>
0.0524

> <Gold.Chemscore.DEInternal.Weighted>
1.5251

> <Gold.Chemscore.Rot.Weighted>
4.4338

> <Gold.Chemscore.Internal.Correction.Weighted>
   9.000000E+99

> <Gold.Protein.RotatedTorsions>
[ 6907 6896 6895 6894 ] final  -57.78 input  -60.11 | X-H torsion
[ 7974 7965 7964 7962 ] final   36.41 input  175.53 | X-H torsion
[ 8008 7997 7996 7995 ] final   95.13 input   59.86 | X-H torsion
[ 10167 10162 10161 10158 ] final    6.15 input  -65.29 | X-H torsion
[ 10718 10713 10712 10709 ] final  143.81 input   66.30 | X-H torsion
[ 10763 10752 10751 10750 ] final   42.68 input  -60.55 | X-H torsion
[ 11005 11000 10999 10996 ] final -116.46 input  -57.11 | X-H torsion

> <Gold.Protein.ActiveResidues>
 VAL166  LYS551  ARG553  GLY616  TRP617  ASP618  TYR619  PRO620  LYS621  CYS622 
 ASP623  PHE694  ASN695  SER759  ASP760  ASP761  ALA762  ILE779  LEU786  VAL792 
 PHE793  MET794  SER795  GLU796  ALA797  LYS798  CYS799  TRP800  GLU811  SER814 

> <Gold.Protein.RotatedAtoms>
  150.8059  134.7183  159.6643 H   0  0  0  0  0  0  0  0  0  0  0  0  # atno 6907 bound_to 6896
  152.4178  134.6006  160.0009 H   0  0  0  0  0  0  0  0  0  0  0  0  # atno 6908 bound_to 6896
  151.6230  133.3300  159.3128 H   0  0  0  0  0  0  0  0  0  0  0  0  # atno 6909 bound_to 6896
  146.1213  139.6021  142.9288 H   0  0  0  0  0  0  0  0  0  0  0  0  # atno 7974 bound_to 7965
  156.0656  140.3290  155.7513 H   0  0  0  0  0  0  0  0  0  0  0  0  # atno 8008 bound_to 7997
  155.5387  140.0600  157.2892 H   0  0  0  0  0  0  0  0  0  0  0  0  # atno 8009 bound_to 7997
  154.4503  140.1914  156.0557 H   0  0  0  0  0  0  0  0  0  0  0  0  # atno 8010 bound_to 7997
  140.6444  143.7698  150.7476 H   0  0  0  0  0  0  0  0  0  0  0  0  # atno 10167 bound_to 10162
  157.3645  131.0970  151.0885 H   0  0  0  0  0  0  0  0  0  0  0  0  # atno 10718 bound_to 10713
  152.9877  135.6124  154.2989 H   0  0  0  0  0  0  0  0  0  0  0  0  # atno 10763 bound_to 10752
  154.2711  135.2779  155.2740 H   0  0  0  0  0  0  0  0  0  0  0  0  # atno 10764 bound_to 10752
  154.5122  135.5838  153.6670 H   0  0  0  0  0  0  0  0  0  0  0  0  # atno 10765 bound_to 10752
  141.0420  133.9820  157.2979 H   0  0  0  0  0  0  0  0  0  0  0  0  # atno 11005 bound_to 11000
  145.5460  141.0417  143.2305 LP  0  0  0  0  0  0  0  0  0  0  0  0  # atno 17320 bound_to 7965
  144.7600  139.6980  143.7238 LP  0  0  0  0  0  0  0  0  0  0  0  0  # atno 17321 bound_to 7965
  140.1336  143.4504  152.2238 LP  0  0  0  0  0  0  0  0  0  0  0  0  # atno 17342 bound_to 10162
  139.5654  144.7431  151.4038 LP  0  0  0  0  0  0  0  0  0  0  0  0  # atno 17343 bound_to 10162
  157.2012  130.6395  149.5739 LP  0  0  0  0  0  0  0  0  0  0  0  0  # atno 17370 bound_to 10713
  155.9743  130.4690  150.6381 LP  0  0  0  0  0  0  0  0  0  0  0  0  # atno 17371 bound_to 10713
  139.9283  135.0201  156.8312 LP  0  0  0  0  0  0  0  0  0  0  0  0  # atno 17394 bound_to 11000
  140.6216  133.9988  155.7621 LP  0  0  0  0  0  0  0  0  0  0  0  0  # atno 17395 bound_to 11000

$$$$
