AV-unprocessed.smi:2209|AV-procd|sdf|8947|dock7
  -GOLD-   2272012163D 1   1.00000     0.00000
 Structure written by MMmdl.
 26 27  0  0  0  0  0  0  0  0  2 V2000
  151.7660  140.8077  158.8666 C   0  0  0  0  0  0  0  0  0  0  0  0
  151.4691  140.5507  157.4283 C   0  0  0  0  0  0  0  0  0  0  0  0
  152.4253  140.2029  156.5759 N   0  0  0  0  0  0  0  0  0  0  0  0
  151.7404  140.0618  155.3604 O   0  0  0  0  0  0  0  0  0  0  0  0
  150.4435  140.3448  155.6312 C   0  0  0  0  0  0  0  0  0  0  0  0
  149.4409  140.2780  154.5219 C   0  0  2  0  0  0  0  0  0  0  0  0
  148.0863  140.8888  154.9281 C   0  0  0  0  0  0  0  0  0  0  0  0
  147.0814  140.7889  153.7700 C   0  0  0  0  0  0  0  0  0  0  0  0
  146.9547  139.3387  153.2746 C   0  0  0  0  0  0  0  0  0  0  0  0
  148.2772  138.8021  152.8858 N   0  3  0  0  0  0  0  0  0  0  0  0
  149.2655  138.8421  153.9868 C   0  0  0  0  0  0  0  0  0  0  0  0
  150.2159  140.6532  156.9064 N   0  0  0  0  0  0  0  0  0  0  0  0
  152.8279  140.6751  159.0769 H   0  0  0  0  0  0  0  0  0  0  0  0
  151.2018  140.1194  159.4962 H   0  0  0  0  0  0  0  0  0  0  0  0
  151.4877  141.8278  159.1316 H   0  0  0  0  0  0  0  0  0  0  0  0
  149.8361  140.8828  153.7037 H   0  0  0  0  0  0  0  0  0  0  0  0
  147.6885  140.3660  155.7990 H   0  0  0  0  0  0  0  0  0  0  0  0
  148.2139  141.9313  155.2220 H   0  0  0  0  0  0  0  0  0  0  0  0
  146.1072  141.1614  154.0885 H   0  0  0  0  0  0  0  0  0  0  0  0
  147.4040  141.4296  152.9481 H   0  0  0  0  0  0  0  0  0  0  0  0
  146.5237  138.7072  154.0528 H   0  0  0  0  0  0  0  0  0  0  0  0
  146.2844  139.2896  152.4161 H   0  0  0  0  0  0  0  0  0  0  0  0
  148.1656  137.8457  152.5802 H   0  0  0  0  0  0  0  0  0  0  0  0
  150.2162  138.4540  153.6199 H   0  0  0  0  0  0  0  0  0  0  0  0
  148.9351  138.1740  154.7836 H   0  0  0  0  0  0  0  0  0  0  0  0
  148.6311  139.3505  152.1148 H   0  0  0  0  0  0  0  0  0  0  0  0
  1  2  1  0  0  0  0
  1 13  1  0  0  0  0
  1 14  1  0  0  0  0
  1 15  1  0  0  0  0
  2 12  1  0  0  0  0
  2  3  2  0  0  0  0
  3  4  1  0  0  0  0
  4  5  1  0  0  0  0
  5  6  1  0  0  0  0
  5 12  2  0  0  0  0
  6 11  1  0  0  0  0
  6  7  1  0  0  0  0
  6 16  1  0  0  0  0
  7  8  1  0  0  0  0
  7 17  1  0  0  0  0
  7 18  1  0  0  0  0
  8  9  1  0  0  0  0
  8 19  1  0  0  0  0
  8 20  1  0  0  0  0
  9 10  1  0  0  0  0
  9 21  1  0  0  0  0
  9 22  1  0  0  0  0
 10 11  1  0  0  0  0
 10 23  1  0  0  0  0
 10 26  1  0  0  0  0
 11 24  1  0  0  0  0
 11 25  1  0  0  0  0
M  CHG  1  10   1
M  END
> <s_m_source_file>
AV-unprocessed.smi

> <i_m_source_file_index>
2209

> <i_lp_mmshare_version>
43012

> <i_f3d_flags>
0

> <s_epik_input>
W0NIM11jMW5vYyhuMSlbQ0BASF0yW0NIMl1bQ0gyXVtDSDJdW05IXVtDSDJdMg==

> <s_epik_cmdline>
J2VwaWtfcHl0aG9uJywgJy1waCcsICc3LjAnLCAnLXRuJywgJzgnLCAnLW1hJywgJzIwMCcsICctbWV0YWxfYmluZGluZycsICctaW1hZScsICc8aW5maWxlLm1hZT4nLCAnLW9tYWUnLCAnPG91dGZpbGUubWFlPic=

> <r_lp_tautomer_probability>
1

> <r_epik_Ionization_Penalty>
0.000532935

> <r_epik_Ionization_Penalty_Charging>
0.000532935

> <r_epik_Ionization_Penalty_Neutral>
4.97553e-13

> <r_epik_State_Penalty>
0.000332992

> <r_epik_Charging_Adjusted_Penalty>
0.000865928

> <i_epik_Tot_Q>
1

> <i_epik_Tot_abs_Q>
1

> <r_epik_Metal_State_Penalty>
-0

> <b_epik_Metal_Only>
0

> <s_lp_Force_Field>
OPLS_2005

> <r_lp_Energy>
10.4199

> <b_lp_Chiralities_Consistent>
1

> <s_lp_Variant>
AV-unprocessed.smi:2209-1

> <Gold.Version>
5.8.1

> <Gold.Id.Protein>
6NUR|6NUR_protein|mol2

> <Gold.PLP.Fitness>
34.0938

> <Gold.PLP.PLP>
-20.7333

> <Gold.PLP.part.hbond>
-3.8903

> <Gold.PLP.part.metal>
0.0000

> <Gold.PLP.part.buried>
-1.7697

> <Gold.PLP.part.nonpolar>
-15.7429

> <Gold.PLP.part.repulsive>
0.1129

> <Gold.PLP.ligand.clash>
0.0000

> <Gold.PLP.ligand.torsion>
0.1534

> <Gold.PLP.Chemscore.Hbond>
4.5446

> <Gold.PLP.Chemscore.CHOScore>
0.0000

> <Gold.PLP.Chemscore.Metal>
0.0000

> <Gold.Chemscore.Hbonds>
donor molecule, donor type, donor heavy atom, donor atom, acceptor molecule, acceptor atom, score
      L1  H    10    23       P1  7948  1.92
      L1  H    10    26       P1  7957  0.96
      P1  H  7989  7998       L1     4  0.64
      P1  H  7997  8010       L1     3  1.00

> <Gold.PLP.Chemscore.Internal.Correction>
0.0335

> <Gold.Rescore>
     Score         DG    S(hbond)    S(metal)    S(lipo)     H(rot)  DE(clash)    DE(int)     intcor
     17.24     -17.51       3.13        0.00      35.38       1.00       0.11       0.16       ----

> <Gold.Chemscore.Fitness>
17.2397

> <Gold.Chemscore.DG>
-17.5077

> <Gold.Chemscore.ZeroCoef>
-5.4800

> <Gold.Chemscore.Hbond>
3.1284

> <Gold.Chemscore.Metal>
0.0000

> <Gold.Chemscore.Lipo>
35.3757

> <Gold.Chemscore.Internal_Hbond>
0.0000

> <Gold.Chemscore.DEClash>
0.1087

> <Gold.Chemscore.DEInternal>
0.1594

> <Gold.Chemscore.Rot>
1.0000

> <Gold.Chemscore.Internal.Correction>
   9.000000E+99

> <Gold.Chemscore.Hbonds>
donor molecule, donor type, donor heavy atom, donor atom, acceptor molecule, acceptor atom, score
      L1  H    10    23       P1  7948  0.92
      L1  H    10    26       P1  7957  0.91
      P1  H  7989  7998       L1     4  0.06
      P1  H  7997  8010       L1     3  0.80

> <Gold.Chemscore.Hbond.Weighted>
-10.4488

> <Gold.Chemscore.Metal.Weighted>
-0.0000

> <Gold.Chemscore.Lipo.Weighted>
-4.1390

> <Gold.Chemscore.Internal_Hbond.Weighted>
0.0000

> <Gold.Chemscore.DEClash.Weighted>
0.1087

> <Gold.Chemscore.DEInternal.Weighted>
0.1594

> <Gold.Chemscore.Rot.Weighted>
2.5600

> <Gold.Chemscore.Internal.Correction.Weighted>
   9.000000E+99

> <Gold.Protein.RotatedTorsions>
[ 6907 6896 6895 6894 ] final -124.76 input  -60.11 | X-H torsion
[ 7974 7965 7964 7962 ] final  -61.77 input  175.53 | X-H torsion
[ 8008 7997 7996 7995 ] final   77.42 input   59.86 | X-H torsion
[ 10167 10162 10161 10158 ] final -139.69 input  -65.29 | X-H torsion
[ 10718 10713 10712 10709 ] final   80.35 input   66.30 | X-H torsion
[ 10763 10752 10751 10750 ] final -130.49 input  -60.55 | X-H torsion
[ 11005 11000 10999 10996 ] final   -5.17 input  -57.11 | X-H torsion

> <Gold.Protein.ActiveResidues>
 VAL166  LYS551  ARG553  GLY616  TRP617  ASP618  TYR619  PRO620  LYS621  CYS622 
 ASP623  PHE694  ASN695  SER759  ASP760  ASP761  ALA762  ILE779  LEU786  VAL792 
 PHE793  MET794  SER795  GLU796  ALA797  LYS798  CYS799  TRP800  GLU811  SER814 

> <Gold.Protein.RotatedAtoms>
  150.8800  133.7386  159.2934 H   0  0  0  0  0  0  0  0  0  0  0  0  # atno 6907 bound_to 6896
  151.4970  135.1058  159.9828 H   0  0  0  0  0  0  0  0  0  0  0  0  # atno 6908 bound_to 6896
  152.4753  133.8078  159.7043 H   0  0  0  0  0  0  0  0  0  0  0  0  # atno 6909 bound_to 6896
  145.7995  140.8663  143.0239 H   0  0  0  0  0  0  0  0  0  0  0  0  # atno 7974 bound_to 7965
  155.8413  140.3462  155.5634 H   0  0  0  0  0  0  0  0  0  0  0  0  # atno 8008 bound_to 7997
  155.8137  140.0902  157.1908 H   0  0  0  0  0  0  0  0  0  0  0  0  # atno 8009 bound_to 7997
  154.4005  140.1443  156.3405 H   0  0  0  0  0  0  0  0  0  0  0  0  # atno 8010 bound_to 7997
  139.8354  143.7391  152.2665 H   0  0  0  0  0  0  0  0  0  0  0  0  # atno 10167 bound_to 10162
  157.6803  130.9955  150.2066 H   0  0  0  0  0  0  0  0  0  0  0  0  # atno 10718 bound_to 10713
  154.8755  135.3861  154.4092 H   0  0  0  0  0  0  0  0  0  0  0  0  # atno 10763 bound_to 10752
  153.4807  135.7030  153.5945 H   0  0  0  0  0  0  0  0  0  0  0  0  # atno 10764 bound_to 10752
  153.4361  135.3867  155.2167 H   0  0  0  0  0  0  0  0  0  0  0  0  # atno 10765 bound_to 10752
  140.6883  133.9094  155.8600 H   0  0  0  0  0  0  0  0  0  0  0  0  # atno 11005 bound_to 11000
  144.6771  140.0238  143.7483 LP  0  0  0  0  0  0  0  0  0  0  0  0  # atno 17320 bound_to 7965
  145.9893  139.3002  143.0994 LP  0  0  0  0  0  0  0  0  0  0  0  0  # atno 17321 bound_to 7965
  139.7612  144.7506  151.0361 LP  0  0  0  0  0  0  0  0  0  0  0  0  # atno 17342 bound_to 10162
  140.7803  143.4749  151.0096 LP  0  0  0  0  0  0  0  0  0  0  0  0  # atno 17343 bound_to 10162
  156.2745  130.3726  149.7997 LP  0  0  0  0  0  0  0  0  0  0  0  0  # atno 17370 bound_to 10713
  156.5704  130.8422  151.3355 LP  0  0  0  0  0  0  0  0  0  0  0  0  # atno 17371 bound_to 10713
  141.0262  134.0820  157.4065 LP  0  0  0  0  0  0  0  0  0  0  0  0  # atno 17394 bound_to 11000
  139.8931  135.0128  156.6881 LP  0  0  0  0  0  0  0  0  0  0  0  0  # atno 17395 bound_to 11000

$$$$
