AV-unprocessed.smi:1224|AV-procd|sdf|5135|dock6
  -GOLD-   22720 4193D 1   1.00000     0.00000
 Structure written by MMmdl.
 44 46  0  0  0  0  0  0  0  0  2 V2000
  152.2789  143.7207  160.4938 C   0  0  0  0  0  0  0  0  0  0  0  0
  152.0016  142.7093  159.3944 C   0  0  0  0  0  0  0  0  0  0  0  0
  151.0467  143.0343  158.4044 C   0  0  0  0  0  0  0  0  0  0  0  0
  150.8167  142.0902  157.4107 C   0  0  0  0  0  0  0  0  0  0  0  0
  149.9555  142.1079  156.3111 N   0  3  0  0  0  0  0  0  0  0  0  0
  150.0839  140.9447  155.6144 C   0  0  0  0  0  0  0  0  0  0  0  0
  151.0100  140.1829  156.2572 N   0  0  0  0  0  0  0  0  0  0  0  0
  151.5237  138.8450  155.9354 C   0  0  0  0  0  0  0  0  0  0  0  0
  150.7228  138.1481  154.8151 C   0  0  1  0  0  0  0  0  0  0  0  0
  151.5068  137.1056  154.2715 O   0  0  0  0  0  0  0  0  0  0  0  0
  149.4060  137.5394  155.3213 C   0  0  0  0  0  0  0  0  0  0  0  0
  149.2309  136.1709  154.8378 N   0  0  0  0  0  0  0  0  0  0  0  0
  148.8130  135.2244  155.8687 C   0  0  0  0  0  0  0  0  0  0  0  0
  148.8410  133.8064  155.3986 C   0  0  0  0  0  0  0  0  0  0  0  0
  149.6003  132.7734  155.8871 C   0  0  0  0  0  0  0  0  0  0  0  0
  149.3840  131.5440  155.1984 C   0  0  0  0  0  0  0  0  0  0  0  0
  148.4615  131.6548  154.1921 C   0  0  0  0  0  0  0  0  0  0  0  0
  147.8387  133.2774  154.0709 S   0  0  0  0  0  0  0  0  0  0  0  0
  151.4981  140.8584  157.3799 C   0  0  0  0  0  0  0  0  0  0  0  0
  152.4421  140.5216  158.3465 C   0  0  0  0  0  0  0  0  0  0  0  0
  152.6900  141.4685  159.3661 C   0  0  0  0  0  0  0  0  0  0  0  0
  153.7146  141.1298  160.4355 C   0  0  0  0  0  0  0  0  0  0  0  0
  151.6778  144.6217  160.3680 H   0  0  0  0  0  0  0  0  0  0  0  0
  153.3281  144.0165  160.4861 H   0  0  0  0  0  0  0  0  0  0  0  0
  152.0449  143.2979  161.4711 H   0  0  0  0  0  0  0  0  0  0  0  0
  150.5191  143.9768  158.4193 H   0  0  0  0  0  0  0  0  0  0  0  0
  149.5459  140.6740  154.7171 H   0  0  0  0  0  0  0  0  0  0  0  0
  152.5682  138.9569  155.6407 H   0  0  0  0  0  0  0  0  0  0  0  0
  151.5238  138.2507  156.8501 H   0  0  0  0  0  0  0  0  0  0  0  0
  150.5103  138.8520  154.0094 H   0  0  0  0  0  0  0  0  0  0  0  0
  151.2290  136.9558  153.3809 H   0  0  0  0  0  0  0  0  0  0  0  0
  149.4075  137.5362  156.4122 H   0  0  0  0  0  0  0  0  0  0  0  0
  148.5673  138.1657  155.0147 H   0  0  0  0  0  0  0  0  0  0  0  0
  150.0863  135.8444  154.4003 H   0  0  0  0  0  0  0  0  0  0  0  0
  149.4829  135.3143  156.7240 H   0  0  0  0  0  0  0  0  0  0  0  0
  147.8204  135.4831  156.2394 H   0  0  0  0  0  0  0  0  0  0  0  0
  150.2985  132.8583  156.7066 H   0  0  0  0  0  0  0  0  0  0  0  0
  149.9049  130.6353  155.4612 H   0  0  0  0  0  0  0  0  0  0  0  0
  148.1112  130.8872  153.5181 H   0  0  0  0  0  0  0  0  0  0  0  0
  152.9654  139.5770  158.3219 H   0  0  0  0  0  0  0  0  0  0  0  0
  154.1275  140.1309  160.2905 H   0  0  0  0  0  0  0  0  0  0  0  0
  153.2605  141.1606  161.4262 H   0  0  0  0  0  0  0  0  0  0  0  0
  154.5417  141.8396  160.4108 H   0  0  0  0  0  0  0  0  0  0  0  0
  149.3277  142.8582  156.0516 H   0  0  0  0  0  0  0  0  0  0  0  0
  1  2  1  0  0  0  0
  1 23  1  0  0  0  0
  1 24  1  0  0  0  0
  1 25  1  0  0  0  0
  2 21  1  0  0  0  0
  2  3  2  0  0  0  0
  3  4  1  0  0  0  0
  3 26  1  0  0  0  0
  4 19  2  0  0  0  0
  4  5  1  0  0  0  0
  5  6  2  0  0  0  0
  5 44  1  0  0  0  0
  6  7  1  0  0  0  0
  6 27  1  0  0  0  0
  7  8  1  0  0  0  0
  7 19  1  0  0  0  0
  8  9  1  0  0  0  0
  8 28  1  0  0  0  0
  8 29  1  0  0  0  0
  9 10  1  0  0  0  0
  9 11  1  0  0  0  0
  9 30  1  0  0  0  0
 10 31  1  0  0  0  0
 11 12  1  0  0  0  0
 11 32  1  0  0  0  0
 11 33  1  0  0  0  0
 12 13  1  0  0  0  0
 12 34  1  0  0  0  0
 13 14  1  0  0  0  0
 13 35  1  0  0  0  0
 13 36  1  0  0  0  0
 14 18  1  0  0  0  0
 14 15  2  0  0  0  0
 15 16  1  0  0  0  0
 15 37  1  0  0  0  0
 16 17  2  0  0  0  0
 16 38  1  0  0  0  0
 17 18  1  0  0  0  0
 17 39  1  0  0  0  0
 19 20  1  0  0  0  0
 20 21  2  0  0  0  0
 20 40  1  0  0  0  0
 21 22  1  0  0  0  0
 22 41  1  0  0  0  0
 22 42  1  0  0  0  0
 22 43  1  0  0  0  0
M  CHG  1   5   1
M  END
> <s_m_source_file>
AV-unprocessed.smi

> <i_m_source_file_index>
1224

> <i_lp_mmshare_version>
43012

> <i_f3d_flags>
0

> <s_epik_input>
W0NIM11jKFtjSF0xKWMoW0NIM10pW2NIXWMoYzEyKW4oW2NIXW4yKVtDSDJdW0NASF0oW09IXSlbQ0gyXVtOSF1bQ0gyXWMzW2NIXVtjSF1bY0hdczM=

> <s_epik_cmdline>
J2VwaWtfcHl0aG9uJywgJy1waCcsICc3LjAnLCAnLXRuJywgJzgnLCAnLW1hJywgJzIwMCcsICctbWV0YWxfYmluZGluZycsICctaW1hZScsICc8aW5maWxlLm1hZT4nLCAnLW9tYWUnLCAnPG91dGZpbGUubWFlPic=

> <r_epik_Ionization_Penalty>
2.3772

> <r_epik_Ionization_Penalty_Charging>
0.996291

> <r_epik_Ionization_Penalty_Neutral>
1.38091

> <r_epik_State_Penalty>
2.60954

> <r_epik_Charging_Adjusted_Penalty>
3.60583

> <i_epik_Tot_Q>
1

> <i_epik_Tot_abs_Q>
1

> <r_epik_Metal_State_Penalty>
6.5861

> <b_epik_Metal_Only>
0

> <s_lp_Force_Field>
OPLS_2005

> <r_lp_Energy>
14.7648

> <b_lp_Chiralities_Consistent>
1

> <s_lp_Variant>
AV-unprocessed.smi:1224-8

> <Gold.Version>
5.8.1

> <Gold.Id.Protein>
6NUR|6NUR_protein|mol2

> <Gold.PLP.Fitness>
61.3286

> <Gold.PLP.PLP>
-49.1394

> <Gold.PLP.part.hbond>
-4.0018

> <Gold.PLP.part.metal>
0.0000

> <Gold.PLP.part.buried>
-4.7237

> <Gold.PLP.part.nonpolar>
-41.0301

> <Gold.PLP.part.repulsive>
0.0999

> <Gold.PLP.ligand.clash>
0.0000

> <Gold.PLP.ligand.torsion>
1.2810

> <Gold.PLP.Chemscore.Hbond>
3.8920

> <Gold.PLP.Chemscore.CHOScore>
1.0000

> <Gold.PLP.Chemscore.Metal>
0.0000

> <Gold.Chemscore.Hbonds>
donor molecule, donor type, donor heavy atom, donor atom, acceptor molecule, acceptor atom, score
      L1  H     5    44       P1  8028  2.00
      L1  H    10    31       P1  7949  0.76
      P1  H 10752 10763       L1    10  0.51

> <Gold.PLP.Chemscore.Internal.Correction>
0.0752

> <Gold.Rescore>
     Score         DG    S(hbond)    S(metal)    S(lipo)     H(rot)  DE(clash)    DE(int)     intcor
     18.79     -20.18       1.94        0.00     122.74       2.40       0.21       1.18       ----

> <Gold.Chemscore.Fitness>
18.7915

> <Gold.Chemscore.DG>
-20.1781

> <Gold.Chemscore.ZeroCoef>
-5.4800

> <Gold.Chemscore.Hbond>
1.9399

> <Gold.Chemscore.Metal>
0.0000

> <Gold.Chemscore.Lipo>
122.7393

> <Gold.Chemscore.Internal_Hbond>
0.0000

> <Gold.Chemscore.DEClash>
0.2095

> <Gold.Chemscore.DEInternal>
1.1771

> <Gold.Chemscore.Rot>
2.3990

> <Gold.Chemscore.Internal.Correction>
   9.000000E+99

> <Gold.Chemscore.Hbonds>
donor molecule, donor type, donor heavy atom, donor atom, acceptor molecule, acceptor atom, score
      L1  H     5    44       P1  8028  0.97
      L1  H    10    31       P1  7949  0.46
      P1  H 10752 10763       L1    10  0.03

> <Gold.Chemscore.Hbond.Weighted>
-6.4791

> <Gold.Chemscore.Metal.Weighted>
-0.0000

> <Gold.Chemscore.Lipo.Weighted>
-14.3605

> <Gold.Chemscore.Internal_Hbond.Weighted>
0.0000

> <Gold.Chemscore.DEClash.Weighted>
0.2095

> <Gold.Chemscore.DEInternal.Weighted>
1.1771

> <Gold.Chemscore.Rot.Weighted>
6.1415

> <Gold.Chemscore.Internal.Correction.Weighted>
   9.000000E+99

> <Gold.Protein.RotatedTorsions>
[ 6907 6896 6895 6894 ] final  -50.30 input  -60.11 | X-H torsion
[ 7974 7965 7964 7962 ] final   22.59 input  175.53 | X-H torsion
[ 8008 7997 7996 7995 ] final   51.89 input   59.86 | X-H torsion
[ 10167 10162 10161 10158 ] final   93.50 input  -65.29 | X-H torsion
[ 10718 10713 10712 10709 ] final -137.56 input   66.30 | X-H torsion
[ 10763 10752 10751 10750 ] final   29.04 input  -60.55 | X-H torsion
[ 11005 11000 10999 10996 ] final -161.30 input  -57.11 | X-H torsion

> <Gold.Protein.ActiveResidues>
 VAL166  LYS551  ARG553  GLY616  TRP617  ASP618  TYR619  PRO620  LYS621  CYS622 
 ASP623  PHE694  ASN695  SER759  ASP760  ASP761  ALA762  ILE779  LEU786  VAL792 
 PHE793  MET794  SER795  GLU796  ALA797  LYS798  CYS799  TRP800  GLU811  SER814 

> <Gold.Protein.RotatedAtoms>
  150.8720  134.8096  159.7161 H   0  0  0  0  0  0  0  0  0  0  0  0  # atno 6907 bound_to 6896
  152.4721  134.4931  159.9711 H   0  0  0  0  0  0  0  0  0  0  0  0  # atno 6908 bound_to 6896
  151.5018  133.3464  159.2906 H   0  0  0  0  0  0  0  0  0  0  0  0  # atno 6909 bound_to 6896
  146.2022  139.7863  142.8753 H   0  0  0  0  0  0  0  0  0  0  0  0  # atno 7974 bound_to 7965
  155.4428  140.3455  155.4292 H   0  0  0  0  0  0  0  0  0  0  0  0  # atno 8008 bound_to 7997
  156.1268  140.1503  156.9154 H   0  0  0  0  0  0  0  0  0  0  0  0  # atno 8009 bound_to 7997
  154.4864  140.0854  156.7476 H   0  0  0  0  0  0  0  0  0  0  0  0  # atno 8010 bound_to 7997
  139.8173  144.6747  150.9563 H   0  0  0  0  0  0  0  0  0  0  0  0  # atno 10167 bound_to 10162
  156.2894  130.7366  151.1388 H   0  0  0  0  0  0  0  0  0  0  0  0  # atno 10718 bound_to 10713
  153.0454  135.6498  154.0830 H   0  0  0  0  0  0  0  0  0  0  0  0  # atno 10763 bound_to 10752
  154.0529  135.2894  155.3339 H   0  0  0  0  0  0  0  0  0  0  0  0  # atno 10764 bound_to 10752
  154.6708  135.5357  153.8202 H   0  0  0  0  0  0  0  0  0  0  0  0  # atno 10765 bound_to 10752
  140.6220  134.4741  157.5224 H   0  0  0  0  0  0  0  0  0  0  0  0  # atno 11005 bound_to 11000
  145.3445  141.0295  143.3373 LP  0  0  0  0  0  0  0  0  0  0  0  0  # atno 17320 bound_to 7965
  144.8709  139.5040  143.6768 LP  0  0  0  0  0  0  0  0  0  0  0  0  # atno 17321 bound_to 7965
  140.7815  143.4126  151.0969 LP  0  0  0  0  0  0  0  0  0  0  0  0  # atno 17342 bound_to 10162
  139.7788  143.8385  152.3134 LP  0  0  0  0  0  0  0  0  0  0  0  0  # atno 17343 bound_to 10162
  157.7338  131.0587  150.5557 LP  0  0  0  0  0  0  0  0  0  0  0  0  # atno 17370 bound_to 10713
  156.5672  130.4270  149.6036 LP  0  0  0  0  0  0  0  0  0  0  0  0  # atno 17371 bound_to 10713
  139.9150  134.8266  156.1398 LP  0  0  0  0  0  0  0  0  0  0  0  0  # atno 17394 bound_to 11000
  141.0736  133.6785  156.2190 LP  0  0  0  0  0  0  0  0  0  0  0  0  # atno 17395 bound_to 11000

$$$$
