AV-unprocessed.smi:3202|AV-procd|sdf|12245|dock2
  -GOLD-   2272018 83D 1   1.00000     0.00000
 Structure written by MMmdl.
 43 44  0  0  0  0  0  0  0  0  2 V2000
  145.6481  143.1036  154.5073 C   0  0  0  0  0  0  0  0  0  0  0  0
  146.9585  142.3730  154.5031 C   0  0  0  0  0  0  0  0  0  0  0  0
  147.9168  142.2753  155.5543 C   0  0  0  0  0  0  0  0  0  0  0  0
  148.9161  141.5041  155.0300 C   0  0  0  0  0  0  0  0  0  0  0  0
  150.2075  141.0292  155.6148 C   0  0  0  0  0  0  0  0  0  0  0  0
  150.3754  141.3487  157.1125 C   0  0  2  0  0  0  0  0  0  0  0  0
  149.1474  140.9418  157.9434 C   0  0  0  0  0  0  0  0  0  0  0  0
  150.6336  142.7955  157.2850 N   0  3  0  0  0  0  0  0  0  0  0  0
  150.7696  143.2590  158.6848 C   0  0  2  0  0  0  0  0  0  0  0  0
  150.1159  144.6240  158.9394 C   0  0  0  0  0  0  0  0  0  0  0  0
  150.8636  145.2159  160.1409 C   0  0  0  0  0  0  0  0  0  0  0  0
  152.0701  144.2995  160.3955 C   0  0  0  0  0  0  0  0  0  0  0  0
  152.2360  143.4288  159.1361 C   0  0  0  0  0  0  0  0  0  0  0  0
  152.8889  142.0757  159.4758 C   0  0  0  0  0  0  0  0  0  0  0  0
  153.1029  144.1740  158.0943 C   0  0  0  0  0  0  0  0  0  0  0  0
  148.5239  141.1871  153.7495 N   0  0  0  0  0  0  0  0  0  0  0  0
  147.3321  141.7152  153.4159 N   0  0  0  0  0  0  0  0  0  0  0  0
  149.0512  140.6213  153.0995 H   0  0  0  0  0  0  0  0  0  0  0  0
  145.4351  143.5249  155.4900 H   0  0  0  0  0  0  0  0  0  0  0  0
  144.8249  142.4374  154.2475 H   0  0  0  0  0  0  0  0  0  0  0  0
  145.6538  143.9235  153.7887 H   0  0  0  0  0  0  0  0  0  0  0  0
  147.8749  142.7080  156.5430 H   0  0  0  0  0  0  0  0  0  0  0  0
  151.0400  141.4602  155.0565 H   0  0  0  0  0  0  0  0  0  0  0  0
  150.2781  139.9507  155.4678 H   0  0  0  0  0  0  0  0  0  0  0  0
  151.2310  140.7821  157.4837 H   0  0  0  0  0  0  0  0  0  0  0  0
  148.9633  139.8687  157.8863 H   0  0  0  0  0  0  0  0  0  0  0  0
  148.2475  141.4520  157.5983 H   0  0  0  0  0  0  0  0  0  0  0  0
  149.2867  141.1889  158.9963 H   0  0  0  0  0  0  0  0  0  0  0  0
  151.4948  143.0123  156.8040 H   0  0  0  0  0  0  0  0  0  0  0  0
  150.2942  142.5240  159.3375 H   0  0  0  0  0  0  0  0  0  0  0  0
  150.2452  145.2770  158.0749 H   0  0  0  0  0  0  0  0  0  0  0  0
  149.0447  144.5392  159.1244 H   0  0  0  0  0  0  0  0  0  0  0  0
  151.1882  146.2330  159.9183 H   0  0  0  0  0  0  0  0  0  0  0  0
  150.2250  145.2644  161.0235 H   0  0  0  0  0  0  0  0  0  0  0  0
  152.9707  144.8634  160.6422 H   0  0  0  0  0  0  0  0  0  0  0  0
  151.8497  143.6686  161.2581 H   0  0  0  0  0  0  0  0  0  0  0  0
  153.8968  142.2126  159.8694 H   0  0  0  0  0  0  0  0  0  0  0  0
  152.9636  141.4393  158.5935 H   0  0  0  0  0  0  0  0  0  0  0  0
  152.3166  141.5289  160.2260 H   0  0  0  0  0  0  0  0  0  0  0  0
  154.1019  144.3698  158.4856 H   0  0  0  0  0  0  0  0  0  0  0  0
  152.6729  145.1355  157.8137 H   0  0  0  0  0  0  0  0  0  0  0  0
  153.2282  143.5903  157.1819 H   0  0  0  0  0  0  0  0  0  0  0  0
  149.8868  143.3154  156.8465 H   0  0  0  0  0  0  0  0  0  0  0  0
  1 19  1  0  0  0  0
  1 20  1  0  0  0  0
  1 21  1  0  0  0  0
  1  2  1  0  0  0  0
  2 17  2  0  0  0  0
  2  3  1  0  0  0  0
  3  4  2  0  0  0  0
  3 22  1  0  0  0  0
  4 16  1  0  0  0  0
  4  5  1  0  0  0  0
  5  6  1  0  0  0  0
  5 23  1  0  0  0  0
  5 24  1  0  0  0  0
  6  7  1  0  0  0  0
  6  8  1  0  0  0  0
  6 25  1  0  0  0  0
  7 26  1  0  0  0  0
  7 27  1  0  0  0  0
  7 28  1  0  0  0  0
  8  9  1  0  0  0  0
  8 29  1  0  0  0  0
  8 43  1  0  0  0  0
  9 13  1  0  0  0  0
  9 10  1  0  0  0  0
  9 30  1  0  0  0  0
 10 11  1  0  0  0  0
 10 31  1  0  0  0  0
 10 32  1  0  0  0  0
 11 12  1  0  0  0  0
 11 33  1  0  0  0  0
 11 34  1  0  0  0  0
 12 13  1  0  0  0  0
 12 35  1  0  0  0  0
 12 36  1  0  0  0  0
 13 14  1  0  0  0  0
 13 15  1  0  0  0  0
 14 37  1  0  0  0  0
 14 38  1  0  0  0  0
 14 39  1  0  0  0  0
 15 40  1  0  0  0  0
 15 41  1  0  0  0  0
 15 42  1  0  0  0  0
 16 17  1  0  0  0  0
 16 18  1  0  0  0  0
M  CHG  1   8   1
M  END
> <s_m_source_file>
AV-unprocessed.smi

> <i_m_source_file_index>
3202

> <i_lp_mmshare_version>
43012

> <i_f3d_flags>
0

> <s_epik_input>
W0NIM11jMVtjSF1jKG5bbkhdMSlbQ0gyXVtDQEhdKFtDSDNdKVtOSF1bQ0BASF0oQzIoW0NIM10pW0NIM10pW0NIMl1bQ0gyXVtDSDJdMg==

> <s_epik_cmdline>
J2VwaWtfcHl0aG9uJywgJy1waCcsICc3LjAnLCAnLXRuJywgJzgnLCAnLW1hJywgJzIwMCcsICctbWV0YWxfYmluZGluZycsICctaW1hZScsICc8aW5maWxlLm1hZT4nLCAnLW9tYWUnLCAnPG91dGZpbGUubWFlPic=

> <r_lp_tautomer_probability>
0.5

> <r_epik_Ionization_Penalty>
0.000449684

> <r_epik_Ionization_Penalty_Charging>
0.000404963

> <r_epik_Ionization_Penalty_Neutral>
4.47208e-05

> <r_epik_State_Penalty>
0.41068

> <r_epik_Charging_Adjusted_Penalty>
0.411085

> <i_epik_Tot_Q>
1

> <i_epik_Tot_abs_Q>
1

> <r_epik_Metal_State_Penalty>
0.410687

> <b_epik_Metal_Only>
0

> <s_lp_Force_Field>
OPLS_2005

> <r_lp_Energy>
32.3092

> <b_lp_Chiralities_Consistent>
1

> <s_lp_Variant>
AV-unprocessed.smi:3202-5

> <Gold.Version>
5.8.1

> <Gold.Id.Protein>
6NUR|6NUR_protein|mol2

> <Gold.PLP.Fitness>
44.9202

> <Gold.PLP.PLP>
-37.3362

> <Gold.PLP.part.hbond>
-2.0000

> <Gold.PLP.part.metal>
0.0000

> <Gold.PLP.part.buried>
-0.3349

> <Gold.PLP.part.nonpolar>
-35.0004

> <Gold.PLP.part.repulsive>
0.3773

> <Gold.PLP.ligand.clash>
0.0000

> <Gold.PLP.ligand.torsion>
0.6771

> <Gold.PLP.Chemscore.Hbond>
2.9760

> <Gold.PLP.Chemscore.CHOScore>
0.0000

> <Gold.PLP.Chemscore.Metal>
0.0000

> <Gold.Chemscore.Hbonds>
donor molecule, donor type, donor heavy atom, donor atom, acceptor molecule, acceptor atom, score
      L1  H     8    43       P1  8028  1.72
      L1  H    16    18       P1  7957  0.83

> <Gold.PLP.Chemscore.Internal.Correction>
0.0102

> <Gold.Rescore>
     Score         DG    S(hbond)    S(metal)    S(lipo)     H(rot)  DE(clash)    DE(int)     intcor
     18.93     -20.83       1.82        0.00     111.07       1.46       0.41       1.48       ----

> <Gold.Chemscore.Fitness>
18.9348

> <Gold.Chemscore.DG>
-20.8300

> <Gold.Chemscore.ZeroCoef>
-5.4800

> <Gold.Chemscore.Hbond>
1.8238

> <Gold.Chemscore.Metal>
0.0000

> <Gold.Chemscore.Lipo>
111.0681

> <Gold.Chemscore.Internal_Hbond>
0.0000

> <Gold.Chemscore.DEClash>
0.4103

> <Gold.Chemscore.DEInternal>
1.4850

> <Gold.Chemscore.Rot>
1.4596

> <Gold.Chemscore.Internal.Correction>
   9.000000E+99

> <Gold.Chemscore.Hbonds>
donor molecule, donor type, donor heavy atom, donor atom, acceptor molecule, acceptor atom, score
      L1  H     8    43       P1  8028  0.84
      L1  H    16    18       P1  7957  0.79

> <Gold.Chemscore.Hbond.Weighted>
-6.0916

> <Gold.Chemscore.Metal.Weighted>
-0.0000

> <Gold.Chemscore.Lipo.Weighted>
-12.9950

> <Gold.Chemscore.Internal_Hbond.Weighted>
0.0000

> <Gold.Chemscore.DEClash.Weighted>
0.4103

> <Gold.Chemscore.DEInternal.Weighted>
1.4850

> <Gold.Chemscore.Rot.Weighted>
3.7365

> <Gold.Chemscore.Internal.Correction.Weighted>
   9.000000E+99

> <Gold.Protein.RotatedTorsions>
[ 6907 6896 6895 6894 ] final  175.89 input  -60.11 | X-H torsion
[ 7974 7965 7964 7962 ] final -150.33 input  175.53 | X-H torsion
[ 8008 7997 7996 7995 ] final -125.60 input   59.86 | X-H torsion
[ 10167 10162 10161 10158 ] final -120.86 input  -65.29 | X-H torsion
[ 10718 10713 10712 10709 ] final  -76.70 input   66.30 | X-H torsion
[ 10763 10752 10751 10750 ] final  -97.43 input  -60.55 | X-H torsion
[ 11005 11000 10999 10996 ] final   31.02 input  -57.11 | X-H torsion

> <Gold.Protein.ActiveResidues>
 VAL166  LYS551  ARG553  GLY616  TRP617  ASP618  TYR619  PRO620  LYS621  CYS622 
 ASP623  PHE694  ASN695  SER759  ASP760  ASP761  ALA762  ILE779  LEU786  VAL792 
 PHE793  MET794  SER795  GLU796  ALA797  LYS798  CYS799  TRP800  GLU811  SER814 

> <Gold.Protein.RotatedAtoms>
  151.7289  133.3317  159.3334 H   0  0  0  0  0  0  0  0  0  0  0  0  # atno 6907 bound_to 6896
  150.7621  134.6381  159.6232 H   0  0  0  0  0  0  0  0  0  0  0  0  # atno 6908 bound_to 6896
  152.3604  134.6882  160.0260 H   0  0  0  0  0  0  0  0  0  0  0  0  # atno 6909 bound_to 6896
  144.7914  140.4946  143.5770 H   0  0  0  0  0  0  0  0  0  0  0  0  # atno 7974 bound_to 7965
  155.2160  140.0420  157.2941 H   0  0  0  0  0  0  0  0  0  0  0  0  # atno 8008 bound_to 7997
  154.5981  140.2444  155.7801 H   0  0  0  0  0  0  0  0  0  0  0  0  # atno 8009 bound_to 7997
  156.2303  140.2940  156.0180 H   0  0  0  0  0  0  0  0  0  0  0  0  # atno 8010 bound_to 7997
  140.0312  143.5246  152.2175 H   0  0  0  0  0  0  0  0  0  0  0  0  # atno 10167 bound_to 10162
  156.0167  130.4472  150.3234 H   0  0  0  0  0  0  0  0  0  0  0  0  # atno 10718 bound_to 10713
  154.7327  135.5047  153.8990 H   0  0  0  0  0  0  0  0  0  0  0  0  # atno 10763 bound_to 10752
  153.0965  135.6673  153.9761 H   0  0  0  0  0  0  0  0  0  0  0  0  # atno 10764 bound_to 10752
  153.9559  135.3053  155.3415 H   0  0  0  0  0  0  0  0  0  0  0  0  # atno 10765 bound_to 10752
  140.2883  134.2893  155.7782 H   0  0  0  0  0  0  0  0  0  0  0  0  # atno 11005 bound_to 11000
  145.5785  139.1487  143.3249 LP  0  0  0  0  0  0  0  0  0  0  0  0  # atno 17320 bound_to 7965
  146.2167  140.5915  142.9035 LP  0  0  0  0  0  0  0  0  0  0  0  0  # atno 17321 bound_to 7965
  139.6075  144.7600  151.3029 LP  0  0  0  0  0  0  0  0  0  0  0  0  # atno 17342 bound_to 10162
  140.7301  143.6889  150.7938 LP  0  0  0  0  0  0  0  0  0  0  0  0  # atno 17343 bound_to 10162
  157.1333  131.0277  151.2959 LP  0  0  0  0  0  0  0  0  0  0  0  0  # atno 17370 bound_to 10713
  157.4532  130.7610  149.7170 LP  0  0  0  0  0  0  0  0  0  0  0  0  # atno 17371 bound_to 10713
  141.2151  133.7569  156.9586 LP  0  0  0  0  0  0  0  0  0  0  0  0  # atno 17394 bound_to 11000
  140.1219  134.9411  157.2215 LP  0  0  0  0  0  0  0  0  0  0  0  0  # atno 17395 bound_to 11000

$$$$
