AV-unprocessed.smi:184|AV-procd|sdf|1462|dock7
  -GOLD-   2262019273D 1   1.00000     0.00000
 Structure written by MMmdl.
 54 58  0  0  0  0  0  0  0  0  1 V2000
  154.9313  139.9478  161.5292 O   0  0  0  0  0  0  0  0  0  0  0  0
  154.2334  140.5437  160.7120 C   0  0  0  0  0  0  0  0  0  0  0  0
  153.7558  139.8099  159.4457 C   0  0  0  0  0  0  0  0  0  0  0  0
  152.8930  140.5957  158.5471 N   0  0  0  0  0  0  0  0  0  0  0  0
  152.2621  139.7886  157.6604 C   0  0  0  0  0  0  0  0  0  0  0  0
  152.4507  139.9634  156.3254 N   0  0  0  0  0  0  0  0  0  0  0  0
  151.8104  139.1810  155.4515 C   0  0  0  0  0  0  0  0  0  0  0  0
  150.9492  138.1901  155.6932 N   0  0  0  0  0  0  0  0  0  0  0  0
  150.7499  138.0205  157.0317 C   0  0  0  0  0  0  0  0  0  0  0  0
  151.3576  138.7748  158.0742 C   0  0  0  0  0  0  0  0  0  0  0  0
  150.9125  138.3253  159.3104 N   0  0  0  0  0  0  0  0  0  0  0  0
  150.0882  137.3570  159.0153 C   0  0  0  0  0  0  0  0  0  0  0  0
  149.9382  137.0991  157.6705 N   0  0  0  0  0  0  0  0  0  0  0  0
  149.0896  136.0811  157.0673 C   0  0  0  0  0  0  0  0  0  0  0  0
  149.7299  134.6666  157.0221 C   0  0  0  0  0  0  0  0  0  0  0  0
  150.1549  134.3483  158.3345 O   0  0  0  0  0  0  0  0  0  0  0  0
  148.7102  133.5896  156.6003 C   0  0  0  0  0  0  0  0  0  0  0  0
  148.4202  133.6408  155.0893 C   0  0  0  0  0  0  0  0  0  0  0  0
  149.6337  133.5196  154.3548 O   0  0  0  0  0  0  0  0  0  0  0  0
  150.5506  134.5771  154.6134 C   0  0  0  0  0  0  0  0  0  0  0  0
  150.9611  134.5622  156.0963 C   0  0  0  0  0  0  0  0  0  0  0  0
  152.1295  141.7059  159.1304 C   0  0  2  0  0  0  0  0  0  0  0  0
  151.3979  142.5820  158.0828 C   0  0  0  0  0  0  0  0  0  0  0  0
  150.6316  143.7320  158.7592 C   0  0  0  0  0  0  0  0  0  0  0  0
  151.5564  144.5911  159.6362 C   0  0  0  0  0  0  0  0  0  0  0  0
  152.3191  143.7307  160.6565 C   0  0  0  0  0  0  0  0  0  0  0  0
  153.0868  142.6007  159.9489 C   0  0  1  0  0  0  0  0  0  0  0  0
  153.8594  141.8181  160.9052 N   0  0  0  0  0  0  0  0  0  0  0  0
  154.6380  139.4856  158.8920 H   0  0  0  0  0  0  0  0  0  0  0  0
  153.2361  138.9052  159.7682 H   0  0  0  0  0  0  0  0  0  0  0  0
  152.0160  139.3782  154.4099 H   0  0  0  0  0  0  0  0  0  0  0  0
  149.5669  136.7950  159.7768 H   0  0  0  0  0  0  0  0  0  0  0  0
  148.1538  136.0503  157.6274 H   0  0  0  0  0  0  0  0  0  0  0  0
  148.8233  136.4168  156.0654 H   0  0  0  0  0  0  0  0  0  0  0  0
  149.5240  133.7591  158.7192 H   0  0  0  0  0  0  0  0  0  0  0  0
  149.1025  132.5992  156.8366 H   0  0  0  0  0  0  0  0  0  0  0  0
  147.7837  133.6930  157.1662 H   0  0  0  0  0  0  0  0  0  0  0  0
  147.7615  132.8180  154.8110 H   0  0  0  0  0  0  0  0  0  0  0  0
  147.9043  134.5610  154.8126 H   0  0  0  0  0  0  0  0  0  0  0  0
  151.4293  134.4399  153.9832 H   0  0  0  0  0  0  0  0  0  0  0  0
  150.1077  135.5323  154.3312 H   0  0  0  0  0  0  0  0  0  0  0  0
  151.6826  135.3536  156.2994 H   0  0  0  0  0  0  0  0  0  0  0  0
  151.4849  133.6251  156.2913 H   0  0  0  0  0  0  0  0  0  0  0  0
  151.3865  141.2800  159.8082 H   0  0  0  0  0  0  0  0  0  0  0  0
  152.1196  142.9883  157.3726 H   0  0  0  0  0  0  0  0  0  0  0  0
  150.6904  141.9959  157.4973 H   0  0  0  0  0  0  0  0  0  0  0  0
  150.1541  144.3556  158.0026 H   0  0  0  0  0  0  0  0  0  0  0  0
  149.8280  143.3211  159.3718 H   0  0  0  0  0  0  0  0  0  0  0  0
  152.2691  145.1201  159.0023 H   0  0  0  0  0  0  0  0  0  0  0  0
  150.9756  145.3560  160.1525 H   0  0  0  0  0  0  0  0  0  0  0  0
  153.0084  144.3586  161.2223 H   0  0  0  0  0  0  0  0  0  0  0  0
  151.6185  143.3091  161.3788 H   0  0  0  0  0  0  0  0  0  0  0  0
  153.8114  143.0528  159.2688 H   0  0  0  0  0  0  0  0  0  0  0  0
  154.1642  142.2841  161.7477 H   0  0  0  0  0  0  0  0  0  0  0  0
  1  2  2  0  0  0  0
  2 28  1  0  0  0  0
  2  3  1  0  0  0  0
  3  4  1  0  0  0  0
  3 29  1  0  0  0  0
  3 30  1  0  0  0  0
  4  5  1  0  0  0  0
  4 22  1  0  0  0  0
  5 10  1  0  0  0  0
  5  6  2  0  0  0  0
  6  7  1  0  0  0  0
  7  8  2  0  0  0  0
  7 31  1  0  0  0  0
  8  9  1  0  0  0  0
  9 13  1  0  0  0  0
  9 10  2  0  0  0  0
 10 11  1  0  0  0  0
 11 12  2  0  0  0  0
 12 13  1  0  0  0  0
 12 32  1  0  0  0  0
 13 14  1  0  0  0  0
 14 15  1  0  0  0  0
 14 33  1  0  0  0  0
 14 34  1  0  0  0  0
 15 21  1  0  0  0  0
 15 16  1  0  0  0  0
 15 17  1  0  0  0  0
 16 35  1  0  0  0  0
 17 18  1  0  0  0  0
 17 36  1  0  0  0  0
 17 37  1  0  0  0  0
 18 19  1  0  0  0  0
 18 38  1  0  0  0  0
 18 39  1  0  0  0  0
 19 20  1  0  0  0  0
 20 21  1  0  0  0  0
 20 40  1  0  0  0  0
 20 41  1  0  0  0  0
 21 42  1  0  0  0  0
 21 43  1  0  0  0  0
 22 27  1  0  0  0  0
 22 23  1  0  0  0  0
 22 44  1  0  0  0  0
 23 24  1  0  0  0  0
 23 45  1  0  0  0  0
 23 46  1  0  0  0  0
 24 25  1  0  0  0  0
 24 47  1  0  0  0  0
 24 48  1  0  0  0  0
 25 26  1  0  0  0  0
 25 49  1  0  0  0  0
 25 50  1  0  0  0  0
 26 27  1  0  0  0  0
 26 51  1  0  0  0  0
 26 52  1  0  0  0  0
 27 28  1  0  0  0  0
 27 53  1  0  0  0  0
 28 54  1  0  0  0  0
M  END
> <s_m_source_file>
AV-unprocessed.smi

> <i_m_source_file_index>
184

> <i_lp_mmshare_version>
43012

> <i_f3d_flags>
0

> <s_epik_input>
W0NIMl0xW0NIMl1bQ0gyXVtDSDJdW0NASF0oW0NASF0xMilbTkhdQyg9TylbQ0gyXU4yYyhuW2NIXW4zKWMoYzM0KW5bY0hdbjRbQ0gyXUM1KFtPSF0pW0NIMl1bQ0gyXU9bQ0gyXVtDSDJdNQ==

> <s_epik_cmdline>
J2VwaWtfcHl0aG9uJywgJy1waCcsICc3LjAnLCAnLXRuJywgJzgnLCAnLW1hJywgJzIwMCcsICctbWV0YWxfYmluZGluZycsICctaW1hZScsICc8aW5maWxlLm1hZT4nLCAnLW9tYWUnLCAnPG91dGZpbGUubWFlPic=

> <r_lp_tautomer_probability>
1

> <r_epik_Ionization_Penalty>
0.000822761

> <r_epik_Ionization_Penalty_Charging>
0

> <r_epik_Ionization_Penalty_Neutral>
0.000822761

> <r_epik_State_Penalty>
0.000403048

> <r_epik_Charging_Adjusted_Penalty>
0.000403048

> <i_epik_Tot_Q>
0

> <i_epik_Tot_abs_Q>
0

> <r_epik_Metal_State_Penalty>
-0

> <b_epik_Metal_Only>
0

> <s_lp_Force_Field>
OPLS_2005

> <r_lp_Energy>
34.5881

> <b_lp_Chiralities_Consistent>
1

> <s_lp_Variant>
AV-unprocessed.smi:184-2

> <Gold.Version>
5.8.1

> <Gold.Id.Protein>
6NUR|6NUR_protein|mol2

> <Gold.PLP.Fitness>
46.4859

> <Gold.PLP.PLP>
-41.3735

> <Gold.PLP.part.hbond>
-3.5733

> <Gold.PLP.part.metal>
0.0000

> <Gold.PLP.part.buried>
-7.0850

> <Gold.PLP.part.nonpolar>
-30.3676

> <Gold.PLP.part.repulsive>
0.1641

> <Gold.PLP.ligand.clash>
0.0000

> <Gold.PLP.ligand.torsion>
0.6328

> <Gold.PLP.Chemscore.Hbond>
2.0000

> <Gold.PLP.Chemscore.CHOScore>
0.0000

> <Gold.PLP.Chemscore.Metal>
0.0000

> <Gold.Chemscore.Hbonds>
donor molecule, donor type, donor heavy atom, donor atom, acceptor molecule, acceptor atom, score
      P1  H  7997  8010       L1     6  0.90

> <Gold.PLP.Chemscore.Internal.Correction>
0.3780

> <Gold.Rescore>
     Score         DG    S(hbond)    S(metal)    S(lipo)     H(rot)  DE(clash)    DE(int)     intcor
     16.81     -17.36       1.89        0.00      95.06       2.17       0.00       0.55       ----

> <Gold.Chemscore.Fitness>
16.8062

> <Gold.Chemscore.DG>
-17.3585

> <Gold.Chemscore.ZeroCoef>
-5.4800

> <Gold.Chemscore.Hbond>
1.8892

> <Gold.Chemscore.Metal>
0.0000

> <Gold.Chemscore.Lipo>
95.0579

> <Gold.Chemscore.Internal_Hbond>
0.0000

> <Gold.Chemscore.DEClash>
0.0021

> <Gold.Chemscore.DEInternal>
0.5502

> <Gold.Chemscore.Rot>
2.1693

> <Gold.Chemscore.Internal.Correction>
   9.000000E+99

> <Gold.Chemscore.Hbonds>
donor molecule, donor type, donor heavy atom, donor atom, acceptor molecule, acceptor atom, score
      P1  H  7997  8010       L1     6  0.18

> <Gold.Chemscore.Hbond.Weighted>
-6.3101

> <Gold.Chemscore.Metal.Weighted>
-0.0000

> <Gold.Chemscore.Lipo.Weighted>
-11.1218

> <Gold.Chemscore.Internal_Hbond.Weighted>
0.0000

> <Gold.Chemscore.DEClash.Weighted>
0.0021

> <Gold.Chemscore.DEInternal.Weighted>
0.5502

> <Gold.Chemscore.Rot.Weighted>
5.5533

> <Gold.Chemscore.Internal.Correction.Weighted>
   9.000000E+99

> <Gold.Protein.RotatedTorsions>
[ 6907 6896 6895 6894 ] final   22.29 input  -60.11 | X-H torsion
[ 7974 7965 7964 7962 ] final -132.25 input  175.53 | X-H torsion
[ 8008 7997 7996 7995 ] final   77.89 input   59.86 | X-H torsion
[ 10167 10162 10161 10158 ] final  -84.79 input  -65.29 | X-H torsion
[ 10718 10713 10712 10709 ] final   96.62 input   66.30 | X-H torsion
[ 10763 10752 10751 10750 ] final  -19.63 input  -60.55 | X-H torsion
[ 11005 11000 10999 10996 ] final   29.03 input  -57.11 | X-H torsion

> <Gold.Protein.ActiveResidues>
 VAL166  LYS551  ARG553  GLY616  TRP617  ASP618  TYR619  PRO620  LYS621  CYS622 
 ASP623  PHE694  ASN695  SER759  ASP760  ASP761  ALA762  ILE779  LEU786  VAL792 
 PHE793  MET794  SER795  GLU796  ALA797  LYS798  CYS799  TRP800  GLU811  SER814 

> <Gold.Protein.RotatedAtoms>
  151.9248  135.0282  160.0524 H   0  0  0  0  0  0  0  0  0  0  0  0  # atno 6907 bound_to 6896
  152.2169  133.4949  159.5149 H   0  0  0  0  0  0  0  0  0  0  0  0  # atno 6908 bound_to 6896
  150.6990  134.1311  159.4112 H   0  0  0  0  0  0  0  0  0  0  0  0  # atno 6909 bound_to 6896
  144.9303  140.7120  143.4910 H   0  0  0  0  0  0  0  0  0  0  0  0  # atno 7974 bound_to 7965
  155.8479  140.3459  155.5674 H   0  0  0  0  0  0  0  0  0  0  0  0  # atno 8008 bound_to 7997
  155.8069  140.0893  157.1945 H   0  0  0  0  0  0  0  0  0  0  0  0  # atno 8009 bound_to 7997
  154.4007  140.1455  156.3328 H   0  0  0  0  0  0  0  0  0  0  0  0  # atno 8010 bound_to 7997
  140.4099  143.2627  151.9031 H   0  0  0  0  0  0  0  0  0  0  0  0  # atno 10167 bound_to 10162
  157.6924  131.0584  150.4519 H   0  0  0  0  0  0  0  0  0  0  0  0  # atno 10718 bound_to 10713
  153.6079  135.6997  153.5358 H   0  0  0  0  0  0  0  0  0  0  0  0  # atno 10763 bound_to 10752
  153.3042  135.4120  155.1279 H   0  0  0  0  0  0  0  0  0  0  0  0  # atno 10764 bound_to 10752
  154.8569  135.3656  154.5616 H   0  0  0  0  0  0  0  0  0  0  0  0  # atno 10765 bound_to 10752
  140.3093  134.2668  155.7737 H   0  0  0  0  0  0  0  0  0  0  0  0  # atno 11005 bound_to 11000
  145.3153  139.1805  143.4617 LP  0  0  0  0  0  0  0  0  0  0  0  0  # atno 17320 bound_to 7965
  146.3244  140.3163  142.8630 LP  0  0  0  0  0  0  0  0  0  0  0  0  # atno 17321 bound_to 7965
  139.4783  144.5547  151.8331 LP  0  0  0  0  0  0  0  0  0  0  0  0  # atno 17342 bound_to 10162
  140.4649  144.1669  150.5910 LP  0  0  0  0  0  0  0  0  0  0  0  0  # atno 17343 bound_to 10162
  156.4869  130.4086  149.6429 LP  0  0  0  0  0  0  0  0  0  0  0  0  # atno 17370 bound_to 10713
  156.3453  130.7404  151.2355 LP  0  0  0  0  0  0  0  0  0  0  0  0  # atno 17371 bound_to 10713
  141.2111  133.7697  156.9883 LP  0  0  0  0  0  0  0  0  0  0  0  0  # atno 17394 bound_to 11000
  140.1039  134.9518  157.1965 LP  0  0  0  0  0  0  0  0  0  0  0  0  # atno 17395 bound_to 11000

$$$$
