AV-unprocessed.smi:1265|AV-procd|sdf|5320|dock2
  -GOLD-   22720 4443D 1   1.00000     0.00000
 Structure written by MMmdl.
 45 47  0  0  0  0  0  0  0  0  2 V2000
  145.7956  133.6921  154.0539 O   0  0  0  0  0  0  0  0  0  0  0  0
  146.5562  134.2363  153.2556 C   0  0  0  0  0  0  0  0  0  0  0  0
  147.5496  135.0555  153.6310 N   0  0  0  0  0  0  0  0  0  0  0  0
  147.8541  135.4451  155.0086 C   0  0  0  0  0  0  0  0  0  0  0  0
  149.3843  135.5765  155.2997 C   0  0  2  0  0  0  0  0  0  0  0  0
  149.8815  136.8704  154.7005 N   0  3  0  0  0  0  0  0  0  0  0  0
  149.1203  138.0779  155.1297 C   0  0  0  0  0  0  0  0  0  0  0  0
  149.5633  139.3174  154.3384 C   0  0  0  0  0  0  0  0  0  0  0  0
  150.9543  139.5220  154.5331 O   0  0  0  0  0  0  0  0  0  0  0  0
  151.7146  138.4318  154.0347 C   0  0  0  0  0  0  0  0  0  0  0  0
  151.3450  137.1374  154.7815 C   0  0  0  0  0  0  0  0  0  0  0  0
  150.1359  134.3216  154.7718 C   0  0  0  0  0  0  0  0  0  0  0  0
  149.7672  133.1248  155.6535 C   0  0  0  0  0  0  0  0  0  0  0  0
  149.5499  133.7576  157.3346 S   0  0  0  0  0  0  0  0  0  0  0  0
  149.6323  135.4969  156.8245 C   0  0  0  0  0  0  0  0  0  0  0  0
  146.5211  134.1007  151.9177 N   0  0  0  0  0  0  0  0  0  0  0  0
  145.6468  133.3269  151.1031 C   0  0  0  0  0  0  0  0  0  0  0  0
  146.1969  132.7411  149.9435 C   0  0  0  0  0  0  0  0  0  0  0  0
  145.3656  131.9680  149.1085 C   0  0  0  0  0  0  0  0  0  0  0  0
  144.0574  131.7541  149.3590 N   0  0  0  0  0  0  0  0  0  0  0  0
  143.5302  132.3150  150.4674 C   0  0  0  0  0  0  0  0  0  0  0  0
  144.2728  133.1050  151.3680 C   0  0  0  0  0  0  0  0  0  0  0  0
  148.1159  135.4709  152.9060 H   0  0  0  0  0  0  0  0  0  0  0  0
  147.3560  136.3989  155.1777 H   0  0  0  0  0  0  0  0  0  0  0  0
  147.3621  134.7688  155.7075 H   0  0  0  0  0  0  0  0  0  0  0  0
  148.0504  137.9397  154.9845 H   0  0  0  0  0  0  0  0  0  0  0  0
  149.2763  138.2633  156.1931 H   0  0  0  0  0  0  0  0  0  0  0  0
  149.3374  139.2076  153.2763 H   0  0  0  0  0  0  0  0  0  0  0  0
  149.0260  140.1985  154.6892 H   0  0  0  0  0  0  0  0  0  0  0  0
  151.5490  138.3206  152.9616 H   0  0  0  0  0  0  0  0  0  0  0  0
  152.7740  138.6508  154.1690 H   0  0  0  0  0  0  0  0  0  0  0  0
  151.6558  137.2032  155.8247 H   0  0  0  0  0  0  0  0  0  0  0  0
  151.9155  136.3368  154.3131 H   0  0  0  0  0  0  0  0  0  0  0  0
  149.9551  134.1242  153.7159 H   0  0  0  0  0  0  0  0  0  0  0  0
  151.2131  134.4332  154.8887 H   0  0  0  0  0  0  0  0  0  0  0  0
  148.8346  132.6679  155.3226 H   0  0  0  0  0  0  0  0  0  0  0  0
  150.5347  132.3510  155.6290 H   0  0  0  0  0  0  0  0  0  0  0  0
  150.6339  135.8518  157.0687 H   0  0  0  0  0  0  0  0  0  0  0  0
  148.9269  136.0942  157.4032 H   0  0  0  0  0  0  0  0  0  0  0  0
  147.2202  134.6206  151.4081 H   0  0  0  0  0  0  0  0  0  0  0  0
  147.2385  132.8777  149.6920 H   0  0  0  0  0  0  0  0  0  0  0  0
  145.7638  131.5086  148.2159 H   0  0  0  0  0  0  0  0  0  0  0  0
  142.4812  132.1287  150.6438 H   0  0  0  0  0  0  0  0  0  0  0  0
  143.7680  133.5152  152.2274 H   0  0  0  0  0  0  0  0  0  0  0  0
  149.7010  136.7730  153.7117 H   0  0  0  0  0  0  0  0  0  0  0  0
  1  2  2  0  0  0  0
  2  3  1  0  0  0  0
  2 16  1  0  0  0  0
  3  4  1  0  0  0  0
  3 23  1  0  0  0  0
  4  5  1  0  0  0  0
  4 24  1  0  0  0  0
  4 25  1  0  0  0  0
  5 15  1  0  0  0  0
  5  6  1  0  0  0  0
  5 12  1  0  0  0  0
  6 11  1  0  0  0  0
  6  7  1  0  0  0  0
  6 45  1  0  0  0  0
  7  8  1  0  0  0  0
  7 26  1  0  0  0  0
  7 27  1  0  0  0  0
  8  9  1  0  0  0  0
  8 28  1  0  0  0  0
  8 29  1  0  0  0  0
  9 10  1  0  0  0  0
 10 11  1  0  0  0  0
 10 30  1  0  0  0  0
 10 31  1  0  0  0  0
 11 32  1  0  0  0  0
 11 33  1  0  0  0  0
 12 13  1  0  0  0  0
 12 34  1  0  0  0  0
 12 35  1  0  0  0  0
 13 14  1  0  0  0  0
 13 36  1  0  0  0  0
 13 37  1  0  0  0  0
 14 15  1  0  0  0  0
 15 38  1  0  0  0  0
 15 39  1  0  0  0  0
 16 17  1  0  0  0  0
 16 40  1  0  0  0  0
 17 22  1  0  0  0  0
 17 18  2  0  0  0  0
 18 19  1  0  0  0  0
 18 41  1  0  0  0  0
 19 20  2  0  0  0  0
 19 42  1  0  0  0  0
 20 21  1  0  0  0  0
 21 22  2  0  0  0  0
 21 43  1  0  0  0  0
 22 44  1  0  0  0  0
M  CHG  1   6   1
M  END
> <s_m_source_file>
AV-unprocessed.smi

> <i_m_source_file_index>
1265

> <i_lp_mmshare_version>
43012

> <i_f3d_flags>
0

> <s_epik_input>
W2NIXTFbY0hdbltjSF1bY0hdYzFbTkhdQyg9TylbTkhdW0NIMl1bQ0BdMihbQ0gyXVtDSDJdU1tDSDJdMilOM1tDSDJdW0NIMl1PW0NIMl1bQ0gyXTM=

> <s_epik_cmdline>
J2VwaWtfcHl0aG9uJywgJy1waCcsICc3LjAnLCAnLXRuJywgJzgnLCAnLW1hJywgJzIwMCcsICctbWV0YWxfYmluZGluZycsICctaW1hZScsICc8aW5maWxlLm1hZT4nLCAnLW9tYWUnLCAnPG91dGZpbGUubWFlPic=

> <r_epik_Ionization_Penalty>
2.1318

> <r_epik_Ionization_Penalty_Charging>
2.03219

> <r_epik_Ionization_Penalty_Neutral>
0.0996087

> <r_epik_State_Penalty>
2.24194

> <r_epik_Charging_Adjusted_Penalty>
4.27413

> <i_epik_Tot_Q>
1

> <i_epik_Tot_abs_Q>
1

> <r_epik_Metal_State_Penalty>
2.2363

> <b_epik_Metal_Only>
0

> <s_lp_Force_Field>
OPLS_2005

> <r_lp_Energy>
49.924

> <b_lp_Chiralities_Consistent>
1

> <s_lp_Variant>
AV-unprocessed.smi:1265-6

> <Gold.Version>
5.8.1

> <Gold.Id.Protein>
6NUR|6NUR_protein|mol2

> <Gold.PLP.Fitness>
48.5538

> <Gold.PLP.PLP>
-31.6771

> <Gold.PLP.part.hbond>
-4.4820

> <Gold.PLP.part.metal>
0.0000

> <Gold.PLP.part.buried>
-2.6279

> <Gold.PLP.part.nonpolar>
-24.2919

> <Gold.PLP.part.repulsive>
0.4728

> <Gold.PLP.ligand.clash>
0.0000

> <Gold.PLP.ligand.torsion>
0.6534

> <Gold.PLP.Chemscore.Hbond>
4.8625

> <Gold.PLP.Chemscore.CHOScore>
1.1552

> <Gold.PLP.Chemscore.Metal>
0.0000

> <Gold.Chemscore.Hbonds>
donor molecule, donor type, donor heavy atom, donor atom, acceptor molecule, acceptor atom, score
      L1  H     3    23       P1  7948  0.98
      L1  H     6    45       P1  7948  1.98
      L1  H    16    40       P1  7948  0.16
      P1  H  7989  7998       L1     9  0.95
      P1  H 10785 10796       L1    20  0.67
      L1  C    21    43       P1 10186  0.01
      L1  C    21    43       P1 10952  0.70

> <Gold.PLP.Chemscore.Internal.Correction>
0.1306

> <Gold.Rescore>
     Score         DG    S(hbond)    S(metal)    S(lipo)     H(rot)  DE(clash)    DE(int)     intcor
     20.58     -23.36       3.24        0.00      92.79       1.49       1.49       1.29       ----

> <Gold.Chemscore.Fitness>
20.5799

> <Gold.Chemscore.DG>
-23.3566

> <Gold.Chemscore.ZeroCoef>
-5.4800

> <Gold.Chemscore.Hbond>
3.2407

> <Gold.Chemscore.Metal>
0.0000

> <Gold.Chemscore.Lipo>
92.7934

> <Gold.Chemscore.Internal_Hbond>
0.0000

> <Gold.Chemscore.DEClash>
1.4916

> <Gold.Chemscore.DEInternal>
1.2851

> <Gold.Chemscore.Rot>
1.4860

> <Gold.Chemscore.Internal.Correction>
   9.000000E+99

> <Gold.Chemscore.Hbonds>
donor molecule, donor type, donor heavy atom, donor atom, acceptor molecule, acceptor atom, score
      L1  H     3    23       P1  7948  0.92
      L1  H     6    45       P1  7948  0.60
      L1  H    16    40       P1  7948  0.08
      P1  H  7989  7998       L1     9  0.18
      P1  H 10785 10796       L1    20  0.60

> <Gold.Chemscore.Hbond.Weighted>
-10.8240

> <Gold.Chemscore.Metal.Weighted>
-0.0000

> <Gold.Chemscore.Lipo.Weighted>
-10.8568

> <Gold.Chemscore.Internal_Hbond.Weighted>
0.0000

> <Gold.Chemscore.DEClash.Weighted>
1.4916

> <Gold.Chemscore.DEInternal.Weighted>
1.2851

> <Gold.Chemscore.Rot.Weighted>
3.8042

> <Gold.Chemscore.Internal.Correction.Weighted>
   9.000000E+99

> <Gold.Protein.RotatedTorsions>
[ 6907 6896 6895 6894 ] final  -53.86 input  -60.11 | X-H torsion
[ 7974 7965 7964 7962 ] final  161.68 input  175.53 | X-H torsion
[ 8008 7997 7996 7995 ] final  174.01 input   59.86 | X-H torsion
[ 10167 10162 10161 10158 ] final -155.21 input  -65.29 | X-H torsion
[ 10718 10713 10712 10709 ] final  -70.56 input   66.30 | X-H torsion
[ 10763 10752 10751 10750 ] final  154.28 input  -60.55 | X-H torsion
[ 11005 11000 10999 10996 ] final   48.20 input  -57.11 | X-H torsion

> <Gold.Protein.ActiveResidues>
 VAL166  LYS551  ARG553  GLY616  TRP617  ASP618  TYR619  PRO620  LYS621  CYS622 
 ASP623  PHE694  ASN695  SER759  ASP760  ASP761  ALA762  ILE779  LEU786  VAL792 
 PHE793  MET794  SER795  GLU796  ALA797  LYS798  CYS799  TRP800  GLU811  SER814 

> <Gold.Protein.RotatedAtoms>
  150.8389  134.7673  159.6915 H   0  0  0  0  0  0  0  0  0  0  0  0  # atno 6907 bound_to 6896
  152.4480  134.5451  159.9860 H   0  0  0  0  0  0  0  0  0  0  0  0  # atno 6908 bound_to 6896
  151.5595  133.3367  159.3004 H   0  0  0  0  0  0  0  0  0  0  0  0  # atno 6909 bound_to 6896
  144.7674  139.7932  143.6310 H   0  0  0  0  0  0  0  0  0  0  0  0  # atno 7974 bound_to 7965
  156.1017  140.1445  156.9458 H   0  0  0  0  0  0  0  0  0  0  0  0  # atno 8008 bound_to 7997
  154.4707  140.0911  156.7182 H   0  0  0  0  0  0  0  0  0  0  0  0  # atno 8009 bound_to 7997
  155.4748  140.3443  155.4333 H   0  0  0  0  0  0  0  0  0  0  0  0  # atno 8010 bound_to 7997
  139.6950  143.9358  152.2402 H   0  0  0  0  0  0  0  0  0  0  0  0  # atno 10167 bound_to 10162
  156.0402  130.4334  150.2314 H   0  0  0  0  0  0  0  0  0  0  0  0  # atno 10718 bound_to 10713
  154.1498  135.2816  155.3138 H   0  0  0  0  0  0  0  0  0  0  0  0  # atno 10763 bound_to 10752
  154.6225  135.5462  153.7594 H   0  0  0  0  0  0  0  0  0  0  0  0  # atno 10764 bound_to 10752
  153.0224  135.6442  154.1643 H   0  0  0  0  0  0  0  0  0  0  0  0  # atno 10765 bound_to 10752
  140.1211  134.4828  155.8596 H   0  0  0  0  0  0  0  0  0  0  0  0  # atno 11005 bound_to 11000
  146.1792  139.4977  142.9877 LP  0  0  0  0  0  0  0  0  0  0  0  0  # atno 17320 bound_to 7965
  145.6429  141.0280  143.1802 LP  0  0  0  0  0  0  0  0  0  0  0  0  # atno 17321 bound_to 7965
  139.9184  144.6814  150.8487 LP  0  0  0  0  0  0  0  0  0  0  0  0  # atno 17342 bound_to 10162
  140.7693  143.3392  151.2243 LP  0  0  0  0  0  0  0  0  0  0  0  0  # atno 17343 bound_to 10162
  157.0410  131.0035  151.3283 LP  0  0  0  0  0  0  0  0  0  0  0  0  # atno 17370 bound_to 10713
  157.5209  130.7997  149.7808 LP  0  0  0  0  0  0  0  0  0  0  0  0  # atno 17371 bound_to 10713
  141.2152  133.6761  156.6891 LP  0  0  0  0  0  0  0  0  0  0  0  0  # atno 17394 bound_to 11000
  140.2964  134.8199  157.4060 LP  0  0  0  0  0  0  0  0  0  0  0  0  # atno 17395 bound_to 11000

$$$$
