AV-unprocessed.smi:290|AV-procd|sdf|2240|dock6
  -GOLD-   2262022113D 1   1.00000     0.00000
 Structure written by MMmdl.
 59 62  0  0  0  0  0  0  0  0  2 V2000
  152.1024  140.0923  157.6511 C   0  0  0  0  0  0  0  0  0  0  0  0
  151.6191  139.8948  156.2052 C   0  0  1  0  0  0  0  0  0  0  0  0
  152.7274  139.7039  155.3264 O   0  0  0  0  0  0  0  0  0  0  0  0
  152.5950  138.4704  154.6343 C   0  0  0  0  0  0  0  0  0  0  0  0
  151.0927  138.2250  154.5909 C   0  0  0  0  0  0  0  0  0  0  0  0
  150.6392  138.7240  155.9557 C   0  0  1  0  0  0  0  0  0  0  0  0
  150.8428  137.6840  156.8996 O   0  0  0  0  0  0  0  0  0  0  0  0
  149.1538  139.1535  156.0111 C   0  0  0  0  0  0  0  0  0  0  0  0
  148.2419  138.1586  155.4666 N   0  0  0  0  0  0  0  0  0  0  0  0
  147.8872  136.9633  156.0468 C   0  0  0  0  0  0  0  0  0  0  0  0
  147.0551  136.2369  155.3533 N   0  0  0  0  0  0  0  0  0  0  0  0
  146.7982  136.9912  154.2123 C   0  0  0  0  0  0  0  0  0  0  0  0
  145.9952  136.8107  153.0447 C   0  0  0  0  0  0  0  0  0  0  0  0
  145.2080  135.7322  152.7857 N   0  0  0  0  0  0  0  0  0  0  0  0
  143.8862  135.8884  152.2035 C   0  0  0  0  0  0  0  0  0  0  0  0
  143.7011  134.6495  151.3385 C   0  0  0  0  0  0  0  0  0  0  0  0
  144.5029  133.5570  152.0647 C   0  0  1  0  0  0  0  0  0  0  0  0
  144.8980  132.4430  151.1452 N   0  3  2  0  0  0  0  0  0  0  0  0
  146.0790  131.7022  151.6616 C   0  0  0  0  0  0  0  0  0  0  0  0
  145.0622  132.8465  149.7183 C   0  0  0  0  0  0  0  0  0  0  0  0
  143.7799  132.7213  148.8734 C   0  0  0  0  0  0  0  0  0  0  0  0
  143.5699  133.9010  148.1262 O   0  0  0  0  0  0  0  0  0  0  0  0
  145.6741  134.3509  152.7050 C   0  0  2  0  0  0  0  0  0  0  0  0
  146.0464  133.8349  154.1130 C   0  0  0  0  0  0  0  0  0  0  0  0
  146.0225  137.8024  152.1158 N   0  0  0  0  0  0  0  0  0  0  0  0
  146.7665  138.8947  152.3052 C   0  0  0  0  0  0  0  0  0  0  0  0
  147.5533  139.1966  153.3376 N   0  0  0  0  0  0  0  0  0  0  0  0
  147.5420  138.2062  154.2737 C   0  0  0  0  0  0  0  0  0  0  0  0
  143.8783  133.1500  152.8625 H   0  0  0  0  0  0  0  0  0  0  0  0
  146.5325  134.3220  152.0349 H   0  0  0  0  0  0  0  0  0  0  0  0
  151.2610  140.2249  158.3312 H   0  0  0  0  0  0  0  0  0  0  0  0
  152.7341  140.9771  157.7288 H   0  0  0  0  0  0  0  0  0  0  0  0
  152.6890  139.2418  157.9995 H   0  0  0  0  0  0  0  0  0  0  0  0
  151.1473  140.8222  155.8778 H   0  0  0  0  0  0  0  0  0  0  0  0
  153.0451  138.5160  153.6426 H   0  0  0  0  0  0  0  0  0  0  0  0
  153.0983  137.6867  155.2021 H   0  0  0  0  0  0  0  0  0  0  0  0
  150.6569  138.8386  153.8016 H   0  0  0  0  0  0  0  0  0  0  0  0
  150.8310  137.1853  154.3896 H   0  0  0  0  0  0  0  0  0  0  0  0
  150.8292  136.8577  156.4417 H   0  0  0  0  0  0  0  0  0  0  0  0
  148.8600  139.3610  157.0411 H   0  0  0  0  0  0  0  0  0  0  0  0
  149.0078  140.0841  155.4609 H   0  0  0  0  0  0  0  0  0  0  0  0
  148.2743  136.6424  157.0034 H   0  0  0  0  0  0  0  0  0  0  0  0
  143.1468  135.9208  153.0047 H   0  0  0  0  0  0  0  0  0  0  0  0
  143.7901  136.7978  151.6088 H   0  0  0  0  0  0  0  0  0  0  0  0
  142.6471  134.4027  151.2095 H   0  0  0  0  0  0  0  0  0  0  0  0
  144.1282  134.8341  150.3513 H   0  0  0  0  0  0  0  0  0  0  0  0
  146.9781  132.3171  151.6073 H   0  0  0  0  0  0  0  0  0  0  0  0
  146.2564  130.7840  151.1045 H   0  0  0  0  0  0  0  0  0  0  0  0
  145.9456  131.3931  152.6972 H   0  0  0  0  0  0  0  0  0  0  0  0
  145.3647  133.8900  149.6571 H   0  0  0  0  0  0  0  0  0  0  0  0
  145.8616  132.2570  149.2675 H   0  0  0  0  0  0  0  0  0  0  0  0
  143.8878  131.8930  148.1726 H   0  0  0  0  0  0  0  0  0  0  0  0
  142.9007  132.4942  149.4749 H   0  0  0  0  0  0  0  0  0  0  0  0
  144.3917  134.3635  148.0552 H   0  0  0  0  0  0  0  0  0  0  0  0
  146.3684  132.7956  154.1072 H   0  0  0  0  0  0  0  0  0  0  0  0
  145.1947  133.9040  154.7907 H   0  0  0  0  0  0  0  0  0  0  0  0
  146.8549  134.4155  154.5554 H   0  0  0  0  0  0  0  0  0  0  0  0
  146.7264  139.6311  151.5162 H   0  0  0  0  0  0  0  0  0  0  0  0
  144.1254  131.7920  151.1532 H   0  0  0  0  0  0  0  0  0  0  0  0
  1  2  1  0  0  0  0
  1 31  1  0  0  0  0
  1 32  1  0  0  0  0
  1 33  1  0  0  0  0
  2  6  1  0  0  0  0
  2  3  1  0  0  0  0
  2 34  1  0  0  0  0
  3  4  1  0  0  0  0
  4  5  1  0  0  0  0
  4 35  1  0  0  0  0
  4 36  1  0  0  0  0
  5  6  1  0  0  0  0
  5 37  1  0  0  0  0
  5 38  1  0  0  0  0
  6  7  1  0  0  0  0
  6  8  1  0  0  0  0
  7 39  1  0  0  0  0
  8  9  1  0  0  0  0
  8 40  1  0  0  0  0
  8 41  1  0  0  0  0
  9 28  1  0  0  0  0
  9 10  1  0  0  0  0
 10 11  2  0  0  0  0
 10 42  1  0  0  0  0
 11 12  1  0  0  0  0
 12 28  2  0  0  0  0
 12 13  1  0  0  0  0
 13 14  1  0  0  0  0
 13 25  2  0  0  0  0
 14 23  1  0  0  0  0
 14 15  1  0  0  0  0
 15 16  1  0  0  0  0
 15 43  1  0  0  0  0
 15 44  1  0  0  0  0
 16 17  1  0  0  0  0
 16 45  1  0  0  0  0
 16 46  1  0  0  0  0
 17 29  1  0  0  0  0
 17 18  1  0  0  0  0
 17 23  1  0  0  0  0
 18 19  1  0  0  0  0
 18 20  1  0  0  0  0
 18 59  1  0  0  0  0
 19 47  1  0  0  0  0
 19 48  1  0  0  0  0
 19 49  1  0  0  0  0
 20 21  1  0  0  0  0
 20 50  1  0  0  0  0
 20 51  1  0  0  0  0
 21 22  1  0  0  0  0
 21 52  1  0  0  0  0
 21 53  1  0  0  0  0
 22 54  1  0  0  0  0
 23 30  1  0  0  0  0
 23 24  1  0  0  0  0
 24 55  1  0  0  0  0
 24 56  1  0  0  0  0
 24 57  1  0  0  0  0
 25 26  1  0  0  0  0
 26 27  2  0  0  0  0
 26 58  1  0  0  0  0
 27 28  1  0  0  0  0
M  CHG  1  18   1
M  END
> <s_m_source_file>
AV-unprocessed.smi

> <i_m_source_file_index>
290

> <i_lp_mmshare_version>
43012

> <i_f3d_flags>
0

> <s_epik_input>
W0NIMl0xW0NIMl1PW0NAQEhdKFtDSDNdKVtDQEBdMShbT0hdKVtDSDJdbihbY0hdbjIpYyhjMjMpbltjSF1uYzNONFtDSDJdW0NIMl1bQ0BIXShbQ0BIXTRbQ0gzXSlOKFtDSDNdKVtDSDJdW0NIMl1bT0hd

> <s_epik_cmdline>
J2VwaWtfcHl0aG9uJywgJy1waCcsICc3LjAnLCAnLXRuJywgJzgnLCAnLW1hJywgJzIwMCcsICctbWV0YWxfYmluZGluZycsICctaW1hZScsICc8aW5maWxlLm1hZT4nLCAnLW9tYWUnLCAnPG91dGZpbGUubWFlPic=

> <r_lp_tautomer_probability>
1

> <r_epik_Ionization_Penalty>
0.0036983

> <r_epik_Ionization_Penalty_Charging>
0.0032725

> <r_epik_Ionization_Penalty_Neutral>
0.000425798

> <r_epik_State_Penalty>
-0

> <r_epik_Charging_Adjusted_Penalty>
0.0032725

> <i_epik_Tot_Q>
1

> <i_epik_Tot_abs_Q>
1

> <r_epik_Metal_State_Penalty>
-0

> <b_epik_Metal_Only>
0

> <s_lp_Force_Field>
OPLS_2005

> <r_lp_Energy>
64.7492

> <b_lp_Chiralities_Consistent>
1

> <s_lp_Variant>
AV-unprocessed.smi:290-26

> <Gold.Version>
5.8.1

> <Gold.Id.Protein>
6NUR|6NUR_protein|mol2

> <Gold.PLP.Fitness>
43.9015

> <Gold.PLP.PLP>
-39.3478

> <Gold.PLP.part.hbond>
-5.9242

> <Gold.PLP.part.metal>
0.0000

> <Gold.PLP.part.buried>
-4.8224

> <Gold.PLP.part.nonpolar>
-30.8616

> <Gold.PLP.part.repulsive>
1.2890

> <Gold.PLP.ligand.clash>
0.0000

> <Gold.PLP.ligand.torsion>
2.5191

> <Gold.PLP.Chemscore.Hbond>
3.0962

> <Gold.PLP.Chemscore.CHOScore>
0.0000

> <Gold.PLP.Chemscore.Metal>
0.0000

> <Gold.Chemscore.Hbonds>
donor molecule, donor type, donor heavy atom, donor atom, acceptor molecule, acceptor atom, score
      L1  H    22    54       P1  7921  1.00
      P1  H  7989  7998       L1     3  0.02
      P1  H  7997  8010       L1     3  1.00
      P1  H 10192 10197       L1    22  0.52
      L1  C    26    58       P1  7957  0.04

> <Gold.PLP.Chemscore.Internal.Correction>
0.3032

> <Gold.Rescore>
     Score         DG    S(hbond)    S(metal)    S(lipo)     H(rot)  DE(clash)    DE(int)     intcor
     10.82     -15.62       2.61        0.00      85.56       3.35       0.16       4.65       ----

> <Gold.Chemscore.Fitness>
10.8157

> <Gold.Chemscore.DG>
-15.6207

> <Gold.Chemscore.ZeroCoef>
-5.4800

> <Gold.Chemscore.Hbond>
2.6079

> <Gold.Chemscore.Metal>
0.0000

> <Gold.Chemscore.Lipo>
85.5613

> <Gold.Chemscore.Internal_Hbond>
0.0000

> <Gold.Chemscore.DEClash>
0.1568

> <Gold.Chemscore.DEInternal>
4.6482

> <Gold.Chemscore.Rot>
3.3518

> <Gold.Chemscore.Internal.Correction>
   9.000000E+99

> <Gold.Chemscore.Hbonds>
donor molecule, donor type, donor heavy atom, donor atom, acceptor molecule, acceptor atom, score
      L1  H    22    54       P1  7921  1.00
      P1  H  7997  8010       L1     3  0.85
      P1  H 10192 10197       L1    22  0.31

> <Gold.Chemscore.Hbond.Weighted>
-8.7105

> <Gold.Chemscore.Metal.Weighted>
-0.0000

> <Gold.Chemscore.Lipo.Weighted>
-10.0107

> <Gold.Chemscore.Internal_Hbond.Weighted>
0.0000

> <Gold.Chemscore.DEClash.Weighted>
0.1568

> <Gold.Chemscore.DEInternal.Weighted>
4.6482

> <Gold.Chemscore.Rot.Weighted>
8.5806

> <Gold.Chemscore.Internal.Correction.Weighted>
   9.000000E+99

> <Gold.Protein.RotatedTorsions>
[ 6907 6896 6895 6894 ] final   97.64 input  -60.11 | X-H torsion
[ 7974 7965 7964 7962 ] final -112.64 input  175.53 | X-H torsion
[ 8008 7997 7996 7995 ] final   93.33 input   59.86 | X-H torsion
[ 10167 10162 10161 10158 ] final  172.30 input  -65.29 | X-H torsion
[ 10718 10713 10712 10709 ] final   82.76 input   66.30 | X-H torsion
[ 10763 10752 10751 10750 ] final   36.95 input  -60.55 | X-H torsion
[ 11005 11000 10999 10996 ] final  102.27 input  -57.11 | X-H torsion

> <Gold.Protein.ActiveResidues>
 VAL166  LYS551  ARG553  GLY616  TRP617  ASP618  TYR619  PRO620  LYS621  CYS622 
 ASP623  PHE694  ASN695  SER759  ASP760  ASP761  ALA762  ILE779  LEU786  VAL792 
 PHE793  MET794  SER795  GLU796  ALA797  LYS798  CYS799  TRP800  GLU811  SER814 

> <Gold.Protein.RotatedAtoms>
  152.5421  134.0702  159.8190 H   0  0  0  0  0  0  0  0  0  0  0  0  # atno 6907 bound_to 6896
  151.0818  133.5377  159.2627 H   0  0  0  0  0  0  0  0  0  0  0  0  # atno 6908 bound_to 6896
  151.2201  135.0524  159.9000 H   0  0  0  0  0  0  0  0  0  0  0  0  # atno 6909 bound_to 6896
  145.1416  140.8781  143.3699 H   0  0  0  0  0  0  0  0  0  0  0  0  # atno 7974 bound_to 7965
  156.0455  140.3314  155.7291 H   0  0  0  0  0  0  0  0  0  0  0  0  # atno 8008 bound_to 7997
  155.5680  140.0625  157.2831 H   0  0  0  0  0  0  0  0  0  0  0  0  # atno 8009 bound_to 7997
  154.4412  140.1865  156.0839 H   0  0  0  0  0  0  0  0  0  0  0  0  # atno 8010 bound_to 7997
  139.5072  144.3389  152.0038 H   0  0  0  0  0  0  0  0  0  0  0  0  # atno 10167 bound_to 10162
  157.6864  131.0062  150.2423 H   0  0  0  0  0  0  0  0  0  0  0  0  # atno 10718 bound_to 10713
  153.0056  135.6291  154.2067 H   0  0  0  0  0  0  0  0  0  0  0  0  # atno 10763 bound_to 10752
  154.1811  135.2813  155.3053 H   0  0  0  0  0  0  0  0  0  0  0  0  # atno 10764 bound_to 10752
  154.5834  135.5640  153.7267 H   0  0  0  0  0  0  0  0  0  0  0  0  # atno 10765 bound_to 10752
  139.8777  134.9217  156.5032 H   0  0  0  0  0  0  0  0  0  0  0  0  # atno 11005 bound_to 11000
  145.0526  139.3169  143.5921 LP  0  0  0  0  0  0  0  0  0  0  0  0  # atno 17320 bound_to 7965
  146.3504  139.9940  142.8683 LP  0  0  0  0  0  0  0  0  0  0  0  0  # atno 17321 bound_to 7965
  140.2827  144.3841  150.6113 LP  0  0  0  0  0  0  0  0  0  0  0  0  # atno 17342 bound_to 10162
  140.6006  143.2167  151.7080 LP  0  0  0  0  0  0  0  0  0  0  0  0  # atno 17343 bound_to 10162
  156.3035  130.3762  149.7728 LP  0  0  0  0  0  0  0  0  0  0  0  0  # atno 17370 bound_to 10713
  156.5350  130.8275  151.3250 LP  0  0  0  0  0  0  0  0  0  0  0  0  # atno 17371 bound_to 10713
  140.8574  133.8086  155.9230 LP  0  0  0  0  0  0  0  0  0  0  0  0  # atno 17394 bound_to 11000
  140.9084  134.2292  157.5001 LP  0  0  0  0  0  0  0  0  0  0  0  0  # atno 17395 bound_to 11000

$$$$
