AV-unprocessed.smi:3170|AV-procd|sdf|12107|dock1
  -GOLD-   2272017543D 1   1.00000     0.00000
 Structure written by MMmdl.
 36 37  0  0  0  0  0  0  0  0  2 V2000
  147.4051  134.7923  155.7484 O   0  0  0  0  0  0  0  0  0  0  0  0
  147.7281  135.2311  154.6443 C   0  0  0  0  0  0  0  0  0  0  0  0
  147.0678  134.9666  153.5081 N   0  0  0  0  0  0  0  0  0  0  0  0
  145.8954  134.1036  153.3933 C   0  0  0  0  0  0  0  0  0  0  0  0
  146.1622  132.8609  152.5233 C   0  0  0  0  0  0  0  0  0  0  0  0
  145.3149  132.8101  151.3278 N   0  0  0  0  0  0  0  0  0  0  0  0
  145.6321  132.2658  150.1097 C   0  0  0  0  0  0  0  0  0  0  0  0
  144.5356  132.4417  149.3058 C   0  0  0  0  0  0  0  0  0  0  0  0
  143.5982  133.0898  150.0646 N   0  3  0  0  0  0  0  0  0  0  0  0
  144.0752  133.3163  151.2929 C   0  0  0  0  0  0  0  0  0  0  0  0
  148.7786  136.0358  154.4337 N   0  0  0  0  0  0  0  0  0  0  0  0
  149.6973  136.5005  155.4674 C   0  0  0  0  0  0  0  0  0  0  0  0
  150.6621  137.5813  154.9428 C   0  0  2  0  0  0  0  0  0  0  0  0
  151.6257  138.1045  155.9875 C   0  0  0  0  0  0  0  0  0  0  0  0
  152.0889  139.4114  155.3526 C   0  0  0  0  0  0  0  0  0  0  0  0
  150.9650  139.9042  154.6296 O   0  0  0  0  0  0  0  0  0  0  0  0
  149.9889  138.8763  154.4807 C   0  0  0  0  0  0  0  0  0  0  0  0
  147.4154  135.3746  152.6523 H   0  0  0  0  0  0  0  0  0  0  0  0
  145.6341  133.7817  154.4015 H   0  0  0  0  0  0  0  0  0  0  0  0
  145.0335  134.6613  153.0226 H   0  0  0  0  0  0  0  0  0  0  0  0
  147.2092  132.8124  152.2192 H   0  0  0  0  0  0  0  0  0  0  0  0
  145.9586  131.9564  153.0978 H   0  0  0  0  0  0  0  0  0  0  0  0
  146.5868  131.8002  149.9129 H   0  0  0  0  0  0  0  0  0  0  0  0
  144.3568  132.1608  148.2781 H   0  0  0  0  0  0  0  0  0  0  0  0
  143.5564  133.8027  152.0997 H   0  0  0  0  0  0  0  0  0  0  0  0
  148.9624  136.3448  153.4900 H   0  0  0  0  0  0  0  0  0  0  0  0
  149.1030  136.8967  156.2914 H   0  0  0  0  0  0  0  0  0  0  0  0
  150.2592  135.6568  155.8716 H   0  0  0  0  0  0  0  0  0  0  0  0
  151.2475  137.1787  154.1142 H   0  0  0  0  0  0  0  0  0  0  0  0
  151.1036  138.3083  156.9237 H   0  0  0  0  0  0  0  0  0  0  0  0
  152.4476  137.4186  156.1956 H   0  0  0  0  0  0  0  0  0  0  0  0
  152.4392  140.1344  156.0895 H   0  0  0  0  0  0  0  0  0  0  0  0
  152.9006  139.2239  154.6485 H   0  0  0  0  0  0  0  0  0  0  0  0
  149.6331  138.8139  153.4520 H   0  0  0  0  0  0  0  0  0  0  0  0
  149.1370  139.1200  155.1170 H   0  0  0  0  0  0  0  0  0  0  0  0
  142.6759  133.3578  149.7449 H   0  0  0  0  0  0  0  0  0  0  0  0
  1  2  2  0  0  0  0
  2  3  1  0  0  0  0
  2 11  1  0  0  0  0
  3  4  1  0  0  0  0
  3 18  1  0  0  0  0
  4  5  1  0  0  0  0
  4 19  1  0  0  0  0
  4 20  1  0  0  0  0
  5  6  1  0  0  0  0
  5 21  1  0  0  0  0
  5 22  1  0  0  0  0
  6 10  1  0  0  0  0
  6  7  1  0  0  0  0
  7  8  2  0  0  0  0
  7 23  1  0  0  0  0
  8  9  1  0  0  0  0
  8 24  1  0  0  0  0
  9 10  2  0  0  0  0
  9 36  1  0  0  0  0
 10 25  1  0  0  0  0
 11 12  1  0  0  0  0
 11 26  1  0  0  0  0
 12 13  1  0  0  0  0
 12 27  1  0  0  0  0
 12 28  1  0  0  0  0
 13 17  1  0  0  0  0
 13 14  1  0  0  0  0
 13 29  1  0  0  0  0
 14 15  1  0  0  0  0
 14 30  1  0  0  0  0
 14 31  1  0  0  0  0
 15 16  1  0  0  0  0
 15 32  1  0  0  0  0
 15 33  1  0  0  0  0
 16 17  1  0  0  0  0
 17 34  1  0  0  0  0
 17 35  1  0  0  0  0
M  CHG  1   9   1
M  END
> <s_m_source_file>
AV-unprocessed.smi

> <i_m_source_file_index>
3170

> <i_lp_mmshare_version>
43012

> <i_f3d_flags>
0

> <s_epik_input>
W0NIMl0xT1tDSDJdW0NIMl1bQ0BIXTFbQ0gyXVtOSF1DKD1PKVtOSF1bQ0gyXVtDSDJdbjJbY0hdW2NIXW5bY0hdMg==

> <s_epik_cmdline>
J2VwaWtfcHl0aG9uJywgJy1waCcsICc3LjAnLCAnLXRuJywgJzgnLCAnLW1hJywgJzIwMCcsICctbWV0YWxfYmluZGluZycsICctaW1hZScsICc8aW5maWxlLm1hZT4nLCAnLW9tYWUnLCAnPG91dGZpbGUubWFlPic=

> <r_lp_tautomer_probability>
1

> <r_epik_Ionization_Penalty>
0.255699

> <r_epik_Ionization_Penalty_Charging>
0

> <r_epik_Ionization_Penalty_Neutral>
0.255699

> <r_epik_State_Penalty>
0.247169

> <r_epik_Charging_Adjusted_Penalty>
0.247169

> <i_epik_Tot_Q>
1

> <i_epik_Tot_abs_Q>
1

> <r_epik_Metal_State_Penalty>
0.536793

> <b_epik_Metal_Only>
0

> <s_lp_Force_Field>
OPLS_2005

> <r_lp_Energy>
19.7141

> <b_lp_Chiralities_Consistent>
1

> <s_lp_Variant>
AV-unprocessed.smi:3170-1

> <Gold.Version>
5.8.1

> <Gold.Id.Protein>
6NUR|6NUR_protein|mol2

> <Gold.PLP.Fitness>
45.9994

> <Gold.PLP.PLP>
-29.8136

> <Gold.PLP.part.hbond>
-4.0000

> <Gold.PLP.part.metal>
0.0000

> <Gold.PLP.part.buried>
-5.0460

> <Gold.PLP.part.nonpolar>
-21.0674

> <Gold.PLP.part.repulsive>
0.1728

> <Gold.PLP.ligand.clash>
0.0000

> <Gold.PLP.ligand.torsion>
0.7950

> <Gold.PLP.Chemscore.Hbond>
4.9120

> <Gold.PLP.Chemscore.CHOScore>
1.0000

> <Gold.PLP.Chemscore.Metal>
0.0000

> <Gold.Chemscore.Hbonds>
donor molecule, donor type, donor heavy atom, donor atom, acceptor molecule, acceptor atom, score
      L1  H     3    18       P1  7948  0.88
      L1  H     9    36       P1 10186  2.00
      L1  H    11    26       P1  7948  1.00
      P1  H  7989  7998       L1    16  1.00
      L1  C     7    23       P1 10747  0.87

> <Gold.PLP.Chemscore.Internal.Correction>
0.0398

> <Gold.Rescore>
     Score         DG    S(hbond)    S(metal)    S(lipo)     H(rot)  DE(clash)    DE(int)     intcor
     18.67     -19.46       3.83        0.00      61.13       2.33       0.07       0.72       ----

> <Gold.Chemscore.Fitness>
18.6651

> <Gold.Chemscore.DG>
-19.4607

> <Gold.Chemscore.ZeroCoef>
-5.4800

> <Gold.Chemscore.Hbond>
3.8295

> <Gold.Chemscore.Metal>
0.0000

> <Gold.Chemscore.Lipo>
61.1265

> <Gold.Chemscore.Internal_Hbond>
0.0000

> <Gold.Chemscore.DEClash>
0.0727

> <Gold.Chemscore.DEInternal>
0.7229

> <Gold.Chemscore.Rot>
2.3288

> <Gold.Chemscore.Internal.Correction>
   9.000000E+99

> <Gold.Chemscore.Hbonds>
donor molecule, donor type, donor heavy atom, donor atom, acceptor molecule, acceptor atom, score
      L1  H     3    18       P1  7948  0.86
      L1  H     9    36       P1 10186  0.97
      L1  H    11    26       P1  7948  0.97
      P1  H  7989  7998       L1    16  0.39

> <Gold.Chemscore.Hbond.Weighted>
-12.7906

> <Gold.Chemscore.Metal.Weighted>
-0.0000

> <Gold.Chemscore.Lipo.Weighted>
-7.1518

> <Gold.Chemscore.Internal_Hbond.Weighted>
0.0000

> <Gold.Chemscore.DEClash.Weighted>
0.0727

> <Gold.Chemscore.DEInternal.Weighted>
0.7229

> <Gold.Chemscore.Rot.Weighted>
5.9617

> <Gold.Chemscore.Internal.Correction.Weighted>
   9.000000E+99

> <Gold.Protein.RotatedTorsions>
[ 6907 6896 6895 6894 ] final -114.42 input  -60.11 | X-H torsion
[ 7974 7965 7964 7962 ] final -138.06 input  175.53 | X-H torsion
[ 8008 7997 7996 7995 ] final   78.11 input   59.86 | X-H torsion
[ 10167 10162 10161 10158 ] final -162.89 input  -65.29 | X-H torsion
[ 10718 10713 10712 10709 ] final   43.51 input   66.30 | X-H torsion
[ 10763 10752 10751 10750 ] final  116.68 input  -60.55 | X-H torsion
[ 11005 11000 10999 10996 ] final  161.32 input  -57.11 | X-H torsion

> <Gold.Protein.ActiveResidues>
 VAL166  LYS551  ARG553  GLY616  TRP617  ASP618  TYR619  PRO620  LYS621  CYS622 
 ASP623  PHE694  ASN695  SER759  ASP760  ASP761  ALA762  ILE779  LEU786  VAL792 
 PHE793  MET794  SER795  GLU796  ALA797  LYS798  CYS799  TRP800  GLU811  SER814 

> <Gold.Protein.RotatedAtoms>
  150.7901  133.8803  159.3283 H   0  0  0  0  0  0  0  0  0  0  0  0  # atno 6907 bound_to 6896
  151.6643  135.0983  160.0195 H   0  0  0  0  0  0  0  0  0  0  0  0  # atno 6908 bound_to 6896
  152.3973  133.6727  159.6322 H   0  0  0  0  0  0  0  0  0  0  0  0  # atno 6909 bound_to 6896
  144.8789  140.6478  143.5218 H   0  0  0  0  0  0  0  0  0  0  0  0  # atno 7974 bound_to 7965
  155.8511  140.3458  155.5694 H   0  0  0  0  0  0  0  0  0  0  0  0  # atno 8008 bound_to 7997
  155.8037  140.0889  157.1962 H   0  0  0  0  0  0  0  0  0  0  0  0  # atno 8009 bound_to 7997
  154.4008  140.1461  156.3291 H   0  0  0  0  0  0  0  0  0  0  0  0  # atno 8010 bound_to 7997
  139.6360  144.0350  152.2054 H   0  0  0  0  0  0  0  0  0  0  0  0  # atno 10167 bound_to 10162
  157.4167  130.7945  149.7479 H   0  0  0  0  0  0  0  0  0  0  0  0  # atno 10718 bound_to 10713
  153.5408  135.3559  155.2717 H   0  0  0  0  0  0  0  0  0  0  0  0  # atno 10763 bound_to 10752
  154.8717  135.4090  154.3046 H   0  0  0  0  0  0  0  0  0  0  0  0  # atno 10764 bound_to 10752
  153.3753  135.7066  153.6675 H   0  0  0  0  0  0  0  0  0  0  0  0  # atno 10765 bound_to 10752
  140.2146  134.8241  157.3157 H   0  0  0  0  0  0  0  0  0  0  0  0  # atno 11005 bound_to 11000
  145.3990  139.1601  143.4187 LP  0  0  0  0  0  0  0  0  0  0  0  0  # atno 17320 bound_to 7965
  146.2981  140.4086  142.8714 LP  0  0  0  0  0  0  0  0  0  0  0  0  # atno 17321 bound_to 7965
  140.0027  144.6281  150.7716 LP  0  0  0  0  0  0  0  0  0  0  0  0  # atno 17342 bound_to 10162
  140.7465  143.2892  151.3378 LP  0  0  0  0  0  0  0  0  0  0  0  0  # atno 17343 bound_to 10162
  155.9867  130.3972  150.3198 LP  0  0  0  0  0  0  0  0  0  0  0  0  # atno 17370 bound_to 10713
  157.1342  131.0279  151.2956 LP  0  0  0  0  0  0  0  0  0  0  0  0  # atno 17371 bound_to 10713
  140.1914  134.4367  155.7714 LP  0  0  0  0  0  0  0  0  0  0  0  0  # atno 17394 bound_to 11000
  141.2225  133.7029  156.8033 LP  0  0  0  0  0  0  0  0  0  0  0  0  # atno 17395 bound_to 11000

$$$$
