AV-unprocessed.smi:667|AV-procd|sdf|3255|dock5
  -GOLD-   22720 0203D 1   1.00000     0.00000
 Structure written by MMmdl.
 48 49  0  0  0  0  0  0  0  0  1 V2000
  148.1050  136.8078  162.8453 C   0  0  0  0  0  0  0  0  0  0  0  0
  147.3659  135.6803  162.1829 C   0  0  0  0  0  0  0  0  0  0  0  0
  146.4016  135.0715  162.8518 N   0  0  0  0  0  0  0  0  0  0  0  0
  145.9298  134.1367  162.0034 N   0  0  0  0  0  0  0  0  0  0  0  0
  144.8367  133.2816  162.4226 C   0  0  0  0  0  0  0  0  0  0  0  0
  146.6007  134.1511  160.7967 C   0  0  0  0  0  0  0  0  0  0  0  0
  146.2558  133.2139  159.6845 C   0  0  0  0  0  0  0  0  0  0  0  0
  147.5406  135.1446  160.8716 C   0  0  0  0  0  0  0  0  0  0  0  0
  148.5123  135.5959  159.8093 C   0  0  0  0  0  0  0  0  0  0  0  0
  148.0639  136.9616  159.2930 C   0  0  0  0  0  0  0  0  0  0  0  0
  147.2142  137.6042  159.9092 O   0  0  0  0  0  0  0  0  0  0  0  0
  148.6878  137.4110  158.1931 N   0  0  0  0  0  0  0  0  0  0  0  0
  148.6143  138.7734  157.6745 C   0  0  0  0  0  0  0  0  0  0  0  0
  149.3388  138.9236  156.3179 C   0  0  2  0  0  0  0  0  0  0  0  0
  150.6045  138.0967  156.1766 C   0  0  0  0  0  0  0  0  0  0  0  0
  151.3202  138.7726  155.0055 C   0  0  0  0  0  0  0  0  0  0  0  0
  150.7896  140.0928  154.9132 O   0  0  0  0  0  0  0  0  0  0  0  0
  149.8844  140.3221  155.9862 C   0  0  1  0  0  0  0  0  0  0  0  0
  148.8424  141.4059  155.6335 C   0  0  0  0  0  0  0  0  0  0  0  0
  147.7373  141.5619  156.6926 C   0  0  0  0  0  0  0  0  0  0  0  0
  148.2360  141.1448  154.2463 C   0  0  0  0  0  0  0  0  0  0  0  0
  148.6560  137.4070  162.1210 H   0  0  0  0  0  0  0  0  0  0  0  0
  148.8207  136.4286  163.5747 H   0  0  0  0  0  0  0  0  0  0  0  0
  147.4188  137.4765  163.3663 H   0  0  0  0  0  0  0  0  0  0  0  0
  145.1438  132.2374  162.3617 H   0  0  0  0  0  0  0  0  0  0  0  0
  143.9781  133.4400  161.7697 H   0  0  0  0  0  0  0  0  0  0  0  0
  144.5441  133.5041  163.4498 H   0  0  0  0  0  0  0  0  0  0  0  0
  146.8666  133.4033  158.8021 H   0  0  0  0  0  0  0  0  0  0  0  0
  145.2111  133.3246  159.3940 H   0  0  0  0  0  0  0  0  0  0  0  0
  146.4158  132.1790  159.9865 H   0  0  0  0  0  0  0  0  0  0  0  0
  149.5302  135.6669  160.1935 H   0  0  0  0  0  0  0  0  0  0  0  0
  148.5523  134.8924  158.9771 H   0  0  0  0  0  0  0  0  0  0  0  0
  149.3590  136.7977  157.7539 H   0  0  0  0  0  0  0  0  0  0  0  0
  147.5627  139.0367  157.5588 H   0  0  0  0  0  0  0  0  0  0  0  0
  149.0243  139.4890  158.3888 H   0  0  0  0  0  0  0  0  0  0  0  0
  148.6564  138.6030  155.5307 H   0  0  0  0  0  0  0  0  0  0  0  0
  151.2198  138.1731  157.0734 H   0  0  0  0  0  0  0  0  0  0  0  0
  150.4051  137.0403  155.9954 H   0  0  0  0  0  0  0  0  0  0  0  0
  152.4004  138.7961  155.1528 H   0  0  0  0  0  0  0  0  0  0  0  0
  151.1169  138.2503  154.0703 H   0  0  0  0  0  0  0  0  0  0  0  0
  150.4905  140.6769  156.8201 H   0  0  0  0  0  0  0  0  0  0  0  0
  149.3689  142.3589  155.5695 H   0  0  0  0  0  0  0  0  0  0  0  0
  147.1924  140.6292  156.8405 H   0  0  0  0  0  0  0  0  0  0  0  0
  147.0148  142.3206  156.3907 H   0  0  0  0  0  0  0  0  0  0  0  0
  148.1395  141.8723  157.6560 H   0  0  0  0  0  0  0  0  0  0  0  0
  147.6834  140.2051  154.2248 H   0  0  0  0  0  0  0  0  0  0  0  0
  149.0115  141.0908  153.4826 H   0  0  0  0  0  0  0  0  0  0  0  0
  147.5498  141.9420  153.9596 H   0  0  0  0  0  0  0  0  0  0  0  0
  1  2  1  0  0  0  0
  1 22  1  0  0  0  0
  1 23  1  0  0  0  0
  1 24  1  0  0  0  0
  2  8  1  0  0  0  0
  2  3  2  0  0  0  0
  3  4  1  0  0  0  0
  4  5  1  0  0  0  0
  4  6  1  0  0  0  0
  5 25  1  0  0  0  0
  5 26  1  0  0  0  0
  5 27  1  0  0  0  0
  6  7  1  0  0  0  0
  6  8  2  0  0  0  0
  7 28  1  0  0  0  0
  7 29  1  0  0  0  0
  7 30  1  0  0  0  0
  8  9  1  0  0  0  0
  9 10  1  0  0  0  0
  9 31  1  0  0  0  0
  9 32  1  0  0  0  0
 10 11  2  0  0  0  0
 10 12  1  0  0  0  0
 12 13  1  0  0  0  0
 12 33  1  0  0  0  0
 13 14  1  0  0  0  0
 13 34  1  0  0  0  0
 13 35  1  0  0  0  0
 14 18  1  0  0  0  0
 14 15  1  0  0  0  0
 14 36  1  0  0  0  0
 15 16  1  0  0  0  0
 15 37  1  0  0  0  0
 15 38  1  0  0  0  0
 16 17  1  0  0  0  0
 16 39  1  0  0  0  0
 16 40  1  0  0  0  0
 17 18  1  0  0  0  0
 18 19  1  0  0  0  0
 18 41  1  0  0  0  0
 19 20  1  0  0  0  0
 19 21  1  0  0  0  0
 19 42  1  0  0  0  0
 20 43  1  0  0  0  0
 20 44  1  0  0  0  0
 20 45  1  0  0  0  0
 21 46  1  0  0  0  0
 21 47  1  0  0  0  0
 21 48  1  0  0  0  0
M  END
> <s_m_source_file>
AV-unprocessed.smi

> <i_m_source_file_index>
667

> <i_lp_mmshare_version>
43012

> <i_f3d_flags>
0

> <s_epik_input>
W0NIM11jMW5uKFtDSDNdKWMoW0NIM10pYzFbQ0gyXUMoPU8pW05IXVtDSDJdW0NAQEhdMltDSDJdW0NIMl1PW0NASF0yW0NIXShbQ0gzXSlbQ0gzXQ==

> <s_epik_cmdline>
J2VwaWtfcHl0aG9uJywgJy1waCcsICc3LjAnLCAnLXRuJywgJzgnLCAnLW1hJywgJzIwMCcsICctbWV0YWxfYmluZGluZycsICctaW1hZScsICc8aW5maWxlLm1hZT4nLCAnLW9tYWUnLCAnPG91dGZpbGUubWFlPic=

> <r_lp_tautomer_probability>
1

> <r_epik_Ionization_Penalty>
0.00315488

> <r_epik_Ionization_Penalty_Charging>
0

> <r_epik_Ionization_Penalty_Neutral>
0.00315488

> <r_epik_State_Penalty>
0.00222269

> <r_epik_Charging_Adjusted_Penalty>
0.00222269

> <i_epik_Tot_Q>
0

> <i_epik_Tot_abs_Q>
0

> <r_epik_Metal_State_Penalty>
-0

> <b_epik_Metal_Only>
0

> <s_lp_Force_Field>
OPLS_2005

> <r_lp_Energy>
14.51

> <b_lp_Chiralities_Consistent>
1

> <s_lp_Variant>
AV-unprocessed.smi:667-1

> <Gold.Version>
5.8.1

> <Gold.Id.Protein>
6NUR|6NUR_protein|mol2

> <Gold.PLP.Fitness>
36.0902

> <Gold.PLP.PLP>
-31.4828

> <Gold.PLP.part.hbond>
-2.0000

> <Gold.PLP.part.metal>
0.0000

> <Gold.PLP.part.buried>
-2.7814

> <Gold.PLP.part.nonpolar>
-27.8693

> <Gold.PLP.part.repulsive>
0.1668

> <Gold.PLP.ligand.clash>
0.0000

> <Gold.PLP.ligand.torsion>
0.6378

> <Gold.PLP.Chemscore.Hbond>
1.9440

> <Gold.PLP.Chemscore.CHOScore>
0.0000

> <Gold.PLP.Chemscore.Metal>
0.0000

> <Gold.Chemscore.Hbonds>
donor molecule, donor type, donor heavy atom, donor atom, acceptor molecule, acceptor atom, score
      P1  H  6934  6947       L1    11  0.94
      P1  H  7989  7998       L1    17  1.00

> <Gold.PLP.Chemscore.Internal.Correction>
0.0510

> <Gold.Rescore>
     Score         DG    S(hbond)    S(metal)    S(lipo)     H(rot)  DE(clash)    DE(int)     intcor
     15.97     -17.52       1.87        0.00      82.87       1.52       0.10       1.45       ----

> <Gold.Chemscore.Fitness>
15.9718

> <Gold.Chemscore.DG>
-17.5186

> <Gold.Chemscore.ZeroCoef>
-5.4800

> <Gold.Chemscore.Hbond>
1.8675

> <Gold.Chemscore.Metal>
0.0000

> <Gold.Chemscore.Lipo>
82.8684

> <Gold.Chemscore.Internal_Hbond>
0.0000

> <Gold.Chemscore.DEClash>
0.1000

> <Gold.Chemscore.DEInternal>
1.4469

> <Gold.Chemscore.Rot>
1.5213

> <Gold.Chemscore.Internal.Correction>
   9.000000E+99

> <Gold.Chemscore.Hbonds>
donor molecule, donor type, donor heavy atom, donor atom, acceptor molecule, acceptor atom, score
      P1  H  6934  6947       L1    11  0.91
      P1  H  7989  7998       L1    17  0.55

> <Gold.Chemscore.Hbond.Weighted>
-6.2375

> <Gold.Chemscore.Metal.Weighted>
-0.0000

> <Gold.Chemscore.Lipo.Weighted>
-9.6956

> <Gold.Chemscore.Internal_Hbond.Weighted>
0.0000

> <Gold.Chemscore.DEClash.Weighted>
0.1000

> <Gold.Chemscore.DEInternal.Weighted>
1.4469

> <Gold.Chemscore.Rot.Weighted>
3.8945

> <Gold.Chemscore.Internal.Correction.Weighted>
   9.000000E+99

> <Gold.Protein.RotatedTorsions>
[ 6907 6896 6895 6894 ] final  -98.11 input  -60.11 | X-H torsion
[ 7974 7965 7964 7962 ] final  -86.89 input  175.53 | X-H torsion
[ 8008 7997 7996 7995 ] final -163.59 input   59.86 | X-H torsion
[ 10167 10162 10161 10158 ] final -118.58 input  -65.29 | X-H torsion
[ 10718 10713 10712 10709 ] final  166.96 input   66.30 | X-H torsion
[ 10763 10752 10751 10750 ] final -102.96 input  -60.55 | X-H torsion
[ 11005 11000 10999 10996 ] final  -12.35 input  -57.11 | X-H torsion

> <Gold.Protein.ActiveResidues>
 VAL166  LYS551  ARG553  GLY616  TRP617  ASP618  TYR619  PRO620  LYS621  CYS622 
 ASP623  PHE694  ASN695  SER759  ASP760  ASP761  ALA762  ILE779  LEU786  VAL792 
 PHE793  MET794  SER795  GLU796  ALA797  LYS798  CYS799  TRP800  GLU811  SER814 

> <Gold.Protein.RotatedAtoms>
  150.7036  134.1245  159.4046 H   0  0  0  0  0  0  0  0  0  0  0  0  # atno 6907 bound_to 6896
  151.9232  135.0287  160.0533 H   0  0  0  0  0  0  0  0  0  0  0  0  # atno 6908 bound_to 6896
  152.2239  133.4969  159.5214 H   0  0  0  0  0  0  0  0  0  0  0  0  # atno 6909 bound_to 6896
  145.4739  140.9559  143.1902 H   0  0  0  0  0  0  0  0  0  0  0  0  # atno 7974 bound_to 7965
  155.8234  140.0923  157.1835 H   0  0  0  0  0  0  0  0  0  0  0  0  # atno 8008 bound_to 7997
  154.3979  140.1432  156.3588 H   0  0  0  0  0  0  0  0  0  0  0  0  # atno 8009 bound_to 7997
  155.8242  140.3445  155.5535 H   0  0  0  0  0  0  0  0  0  0  0  0  # atno 8010 bound_to 7997
  140.0559  143.5015  152.2057 H   0  0  0  0  0  0  0  0  0  0  0  0  # atno 10167 bound_to 10162
  157.0583  131.0333  151.2656 H   0  0  0  0  0  0  0  0  0  0  0  0  # atno 10718 bound_to 10713
  154.7772  135.4841  153.9770 H   0  0  0  0  0  0  0  0  0  0  0  0  # atno 10763 bound_to 10752
  153.1445  135.6779  153.8983 H   0  0  0  0  0  0  0  0  0  0  0  0  # atno 10764 bound_to 10752
  153.8647  135.3151  155.3418 H   0  0  0  0  0  0  0  0  0  0  0  0  # atno 10765 bound_to 10752
  140.7648  133.8486  155.9156 H   0  0  0  0  0  0  0  0  0  0  0  0  # atno 11005 bound_to 11000
  144.7929  139.6292  143.7105 LP  0  0  0  0  0  0  0  0  0  0  0  0  # atno 17320 bound_to 7965
  146.2381  139.5945  142.9510 LP  0  0  0  0  0  0  0  0  0  0  0  0  # atno 17321 bound_to 7965
  139.5924  144.7555  151.3369 LP  0  0  0  0  0  0  0  0  0  0  0  0  # atno 17342 bound_to 10162
  140.7195  143.7175  150.7721 LP  0  0  0  0  0  0  0  0  0  0  0  0  # atno 17343 bound_to 10162
  157.4975  130.7859  149.7570 LP  0  0  0  0  0  0  0  0  0  0  0  0  # atno 17370 bound_to 10713
  155.9986  130.3893  150.2695 LP  0  0  0  0  0  0  0  0  0  0  0  0  # atno 17371 bound_to 10713
  140.9629  134.1632  157.4639 LP  0  0  0  0  0  0  0  0  0  0  0  0  # atno 17394 bound_to 11000
  139.8765  134.9951  156.5728 LP  0  0  0  0  0  0  0  0  0  0  0  0  # atno 17395 bound_to 11000

$$$$
