AV-unprocessed.smi:138|AV-procd|sdf|1179|dock4
  -GOLD-   2262018333D 1   1.00000     0.00000
 Structure written by MMmdl.
 52 55  0  0  0  0  0  0  0  0  1 V2000
  143.3545  137.5502  159.1280 C   0  0  0  0  0  0  0  0  0  0  0  0
  144.7762  137.2305  159.4648 C   0  0  0  0  0  0  0  0  0  0  0  0
  145.8927  137.3319  158.6888 C   0  0  0  0  0  0  0  0  0  0  0  0
  147.0170  136.9171  159.4553 C   0  0  0  0  0  0  0  0  0  0  0  0
  148.4453  136.8752  159.0516 C   0  0  0  0  0  0  0  0  0  0  0  0
  149.2930  136.2031  159.6415 O   0  0  0  0  0  0  0  0  0  0  0  0
  148.8236  137.7386  157.8333 C   0  0  0  0  0  0  0  0  0  0  0  0
  149.7730  138.7964  158.1574 N   0  0  0  0  0  0  0  0  0  0  0  0
  151.0703  138.4153  158.5826 C   0  0  0  0  0  0  0  0  0  0  0  0
  151.4050  137.2338  158.6865 O   0  0  0  0  0  0  0  0  0  0  0  0
  151.9660  139.5305  158.8692 C   0  0  0  0  0  0  0  0  0  0  0  0
  153.2185  139.2854  159.2901 F   0  0  0  0  0  0  0  0  0  0  0  0
  151.5597  140.8095  158.7177 C   0  0  0  0  0  0  0  0  0  0  0  0
  150.2887  141.1524  158.2861 N   0  0  0  0  0  0  0  0  0  0  0  0
  149.8635  142.5929  158.1060 C   0  0  2  0  0  0  0  0  0  0  0  0
  150.7357  143.2829  157.0423 C   0  0  0  0  0  0  0  0  0  0  0  0
  151.1476  144.5661  157.7347 C   0  0  0  0  0  0  0  0  0  0  0  0
  151.1778  144.1380  159.1942 C   0  0  0  0  0  0  0  0  0  0  0  0
  150.0381  143.2943  159.3043 O   0  0  0  0  0  0  0  0  0  0  0  0
  149.3530  140.1378  157.9894 C   0  0  0  0  0  0  0  0  0  0  0  0
  148.2219  140.4215  157.5871 O   0  0  0  0  0  0  0  0  0  0  0  0
  146.5532  136.5489  160.6975 C   0  0  0  0  0  0  0  0  0  0  0  0
  147.2921  136.0188  161.8955 C   0  0  0  0  0  0  0  0  0  0  0  0
  145.1721  136.7581  160.7112 N   0  0  0  0  0  0  0  0  0  0  0  0
  144.2769  136.5188  161.8394 C   0  0  0  0  0  0  0  0  0  0  0  0
  143.4288  135.3022  161.6545 C   0  0  0  0  0  0  0  0  0  0  0  0
  143.2923  134.1349  162.3542 C   0  0  0  0  0  0  0  0  0  0  0  0
  142.3120  133.3669  161.6677 C   0  0  0  0  0  0  0  0  0  0  0  0
  141.9217  134.1235  160.5999 C   0  0  0  0  0  0  0  0  0  0  0  0
  142.5919  135.3072  160.5782 O   0  0  0  0  0  0  0  0  0  0  0  0
  143.2555  137.8120  158.0744 H   0  0  0  0  0  0  0  0  0  0  0  0
  142.9956  138.3960  159.7144 H   0  0  0  0  0  0  0  0  0  0  0  0
  142.7023  136.6983  159.3194 H   0  0  0  0  0  0  0  0  0  0  0  0
  145.8982  137.6802  157.6665 H   0  0  0  0  0  0  0  0  0  0  0  0
  149.2559  137.1264  157.0403 H   0  0  0  0  0  0  0  0  0  0  0  0
  147.9402  138.2022  157.3921 H   0  0  0  0  0  0  0  0  0  0  0  0
  152.2741  141.5846  158.9475 H   0  0  0  0  0  0  0  0  0  0  0  0
  148.7999  142.5642  157.8625 H   0  0  0  0  0  0  0  0  0  0  0  0
  151.6133  142.6730  156.8210 H   0  0  0  0  0  0  0  0  0  0  0  0
  150.1755  143.4471  156.1215 H   0  0  0  0  0  0  0  0  0  0  0  0
  152.1040  144.9543  157.3834 H   0  0  0  0  0  0  0  0  0  0  0  0
  150.3880  145.3345  157.5853 H   0  0  0  0  0  0  0  0  0  0  0  0
  152.0856  143.5746  159.4135 H   0  0  0  0  0  0  0  0  0  0  0  0
  151.1201  144.9811  159.8829 H   0  0  0  0  0  0  0  0  0  0  0  0
  147.9521  135.2001  161.6089 H   0  0  0  0  0  0  0  0  0  0  0  0
  146.6347  135.6277  162.6686 H   0  0  0  0  0  0  0  0  0  0  0  0
  147.9040  136.8013  162.3444 H   0  0  0  0  0  0  0  0  0  0  0  0
  144.8684  136.4362  162.7511 H   0  0  0  0  0  0  0  0  0  0  0  0
  143.6401  137.3894  161.9924 H   0  0  0  0  0  0  0  0  0  0  0  0
  143.8331  133.8664  163.2494 H   0  0  0  0  0  0  0  0  0  0  0  0
  141.9396  132.3856  161.9224 H   0  0  0  0  0  0  0  0  0  0  0  0
  141.2138  133.9794  159.7970 H   0  0  0  0  0  0  0  0  0  0  0  0
  1  2  1  0  0  0  0
  1 31  1  0  0  0  0
  1 32  1  0  0  0  0
  1 33  1  0  0  0  0
  2 24  1  0  0  0  0
  2  3  2  0  0  0  0
  3  4  1  0  0  0  0
  3 34  1  0  0  0  0
  4  5  1  0  0  0  0
  4 22  2  0  0  0  0
  5  6  2  0  0  0  0
  5  7  1  0  0  0  0
  7  8  1  0  0  0  0
  7 35  1  0  0  0  0
  7 36  1  0  0  0  0
  8 20  1  0  0  0  0
  8  9  1  0  0  0  0
  9 10  2  0  0  0  0
  9 11  1  0  0  0  0
 11 12  1  0  0  0  0
 11 13  2  0  0  0  0
 13 14  1  0  0  0  0
 13 37  1  0  0  0  0
 14 15  1  0  0  0  0
 14 20  1  0  0  0  0
 15 19  1  0  0  0  0
 15 16  1  0  0  0  0
 15 38  1  0  0  0  0
 16 17  1  0  0  0  0
 16 39  1  0  0  0  0
 16 40  1  0  0  0  0
 17 18  1  0  0  0  0
 17 41  1  0  0  0  0
 17 42  1  0  0  0  0
 18 19  1  0  0  0  0
 18 43  1  0  0  0  0
 18 44  1  0  0  0  0
 20 21  2  0  0  0  0
 22 23  1  0  0  0  0
 22 24  1  0  0  0  0
 23 45  1  0  0  0  0
 23 46  1  0  0  0  0
 23 47  1  0  0  0  0
 24 25  1  0  0  0  0
 25 26  1  0  0  0  0
 25 48  1  0  0  0  0
 25 49  1  0  0  0  0
 26 30  1  0  0  0  0
 26 27  2  0  0  0  0
 27 28  1  0  0  0  0
 27 50  1  0  0  0  0
 28 29  2  0  0  0  0
 28 51  1  0  0  0  0
 29 30  1  0  0  0  0
 29 52  1  0  0  0  0
M  END
> <s_m_source_file>
AV-unprocessed.smi

> <i_m_source_file_index>
138

> <i_lp_mmshare_version>
43012

> <i_f3d_flags>
0

> <s_epik_input>
bzFbY0hdW2NIXVtjSF1jMVtDSDJdbjJjKFtDSDNdKWMoW2NIXWMyW0NIM10pQyg9TylbQ0gyXW4zYyg9TyljKEYpW2NIXW4oYzM9TylbQ0BASF00W0NIMl1bQ0gyXVtDSDJdTzQ=

> <s_epik_cmdline>
J2VwaWtfcHl0aG9uJywgJy1waCcsICc3LjAnLCAnLXRuJywgJzgnLCAnLW1hJywgJzIwMCcsICctbWV0YWxfYmluZGluZycsICctaW1hZScsICc8aW5maWxlLm1hZT4nLCAnLW9tYWUnLCAnPG91dGZpbGUubWFlPic=

> <r_lp_tautomer_probability>
1

> <r_epik_Ionization_Penalty>
5.03107e-09

> <r_epik_Ionization_Penalty_Charging>
5.01743e-09

> <r_epik_Ionization_Penalty_Neutral>
1.36377e-11

> <r_epik_State_Penalty>
-0

> <r_epik_Charging_Adjusted_Penalty>
5.01743e-09

> <i_epik_Tot_Q>
0

> <i_epik_Tot_abs_Q>
0

> <r_epik_Metal_State_Penalty>
-0

> <b_epik_Metal_Only>
0

> <s_epik_Chemistry_Notes>
This compound contains an acetal/aminal-like group ( X-CH(R)-Y where X, Y are N, S, or O) that may be acid/base labile, releasing an aldehyde.

> <s_lp_Force_Field>
OPLS_2005

> <r_lp_Energy>
38.6842

> <b_lp_Chiralities_Consistent>
1

> <s_lp_Variant>
AV-unprocessed.smi:138-1

> <Gold.Version>
5.8.1

> <Gold.Id.Protein>
6NUR|6NUR_protein|mol2

> <Gold.PLP.Fitness>
49.6975

> <Gold.PLP.PLP>
-47.3679

> <Gold.PLP.part.hbond>
-2.3467

> <Gold.PLP.part.metal>
0.0000

> <Gold.PLP.part.buried>
-7.8943

> <Gold.PLP.part.nonpolar>
-36.2047

> <Gold.PLP.part.repulsive>
0.0320

> <Gold.PLP.ligand.clash>
0.0000

> <Gold.PLP.ligand.torsion>
0.3606

> <Gold.PLP.Chemscore.Hbond>
1.0000

> <Gold.PLP.Chemscore.CHOScore>
0.0000

> <Gold.PLP.Chemscore.Metal>
0.0000

> <Gold.Chemscore.Hbonds>
donor molecule, donor type, donor heavy atom, donor atom, acceptor molecule, acceptor atom, score
      P1  H  6896  6909       L1     6  0.84

> <Gold.PLP.Chemscore.Internal.Correction>
0.0507

> <Gold.Rescore>
     Score         DG    S(hbond)    S(metal)    S(lipo)     H(rot)  DE(clash)    DE(int)     intcor
     12.33     -15.50       0.97        0.00     101.60       2.00       0.02       3.15       ----

> <Gold.Chemscore.Fitness>
12.3279

> <Gold.Chemscore.DG>
-15.4982

> <Gold.Chemscore.ZeroCoef>
-5.4800

> <Gold.Chemscore.Hbond>
0.9702

> <Gold.Chemscore.Metal>
0.0000

> <Gold.Chemscore.Lipo>
101.5975

> <Gold.Chemscore.Internal_Hbond>
0.0000

> <Gold.Chemscore.DEClash>
0.0171

> <Gold.Chemscore.DEInternal>
3.1532

> <Gold.Chemscore.Rot>
1.9958

> <Gold.Chemscore.Internal.Correction>
   9.000000E+99

> <Gold.Chemscore.Hbonds>
donor molecule, donor type, donor heavy atom, donor atom, acceptor molecule, acceptor atom, score
      P1  H  6896  6909       L1     6  0.82

> <Gold.Chemscore.Hbond.Weighted>
-3.2405

> <Gold.Chemscore.Metal.Weighted>
-0.0000

> <Gold.Chemscore.Lipo.Weighted>
-11.8869

> <Gold.Chemscore.Internal_Hbond.Weighted>
0.0000

> <Gold.Chemscore.DEClash.Weighted>
0.0171

> <Gold.Chemscore.DEInternal.Weighted>
3.1532

> <Gold.Chemscore.Rot.Weighted>
5.1092

> <Gold.Chemscore.Internal.Correction.Weighted>
   9.000000E+99

> <Gold.Protein.RotatedTorsions>
[ 6907 6896 6895 6894 ] final   53.78 input  -60.11 | X-H torsion
[ 7974 7965 7964 7962 ] final  121.30 input  175.53 | X-H torsion
[ 8008 7997 7996 7995 ] final  -43.65 input   59.86 | X-H torsion
[ 10167 10162 10161 10158 ] final   62.32 input  -65.29 | X-H torsion
[ 10718 10713 10712 10709 ] final  129.57 input   66.30 | X-H torsion
[ 10763 10752 10751 10750 ] final -106.80 input  -60.55 | X-H torsion
[ 11005 11000 10999 10996 ] final  152.15 input  -57.11 | X-H torsion

> <Gold.Protein.ActiveResidues>
 VAL166  LYS551  ARG553  GLY616  TRP617  ASP618  TYR619  PRO620  LYS621  CYS622 
 ASP623  PHE694  ASN695  SER759  ASP760  ASP761  ALA762  ILE779  LEU786  VAL792 
 PHE793  MET794  SER795  GLU796  ALA797  LYS798  CYS799  TRP800  GLU811  SER814 

> <Gold.Protein.RotatedAtoms>
  152.3372  134.7183  160.0273 H   0  0  0  0  0  0  0  0  0  0  0  0  # atno 6907 bound_to 6896
  151.7580  133.3326  159.3418 H   0  0  0  0  0  0  0  0  0  0  0  0  # atno 6908 bound_to 6896
  150.7457  134.6064  159.6108 H   0  0  0  0  0  0  0  0  0  0  0  0  # atno 6909 bound_to 6896
  145.1209  139.3390  143.4715 H   0  0  0  0  0  0  0  0  0  0  0  0  # atno 7974 bound_to 7965
  154.3997  140.1442  156.3554 H   0  0  0  0  0  0  0  0  0  0  0  0  # atno 8008 bound_to 7997
  155.8230  140.3468  155.5505 H   0  0  0  0  0  0  0  0  0  0  0  0  # atno 8009 bound_to 7997
  155.8268  140.0906  157.1807 H   0  0  0  0  0  0  0  0  0  0  0  0  # atno 8010 bound_to 7997
  140.1452  144.4516  150.6789 H   0  0  0  0  0  0  0  0  0  0  0  0  # atno 10167 bound_to 10162
  157.5142  131.1097  150.9249 H   0  0  0  0  0  0  0  0  0  0  0  0  # atno 10718 bound_to 10713
  154.8035  135.4698  154.0335 H   0  0  0  0  0  0  0  0  0  0  0  0  # atno 10763 bound_to 10752
  153.1822  135.6842  153.8470 H   0  0  0  0  0  0  0  0  0  0  0  0  # atno 10764 bound_to 10752
  153.8017  135.3229  155.3368 H   0  0  0  0  0  0  0  0  0  0  0  0  # atno 10765 bound_to 10752
  140.1282  134.8819  157.2166 H   0  0  0  0  0  0  0  0  0  0  0  0  # atno 11005 bound_to 11000
  146.3521  140.1168  142.8602 LP  0  0  0  0  0  0  0  0  0  0  0  0  # atno 17320 bound_to 7965
  145.0742  140.9176  143.4864 LP  0  0  0  0  0  0  0  0  0  0  0  0  # atno 17321 bound_to 7965
  140.6736  143.2296  151.5563 LP  0  0  0  0  0  0  0  0  0  0  0  0  # atno 17342 bound_to 10162
  139.5452  144.2539  152.1429 LP  0  0  0  0  0  0  0  0  0  0  0  0  # atno 17343 bound_to 10162
  156.9879  130.5552  149.5301 LP  0  0  0  0  0  0  0  0  0  0  0  0  # atno 17370 bound_to 10713
  156.0309  130.5400  150.8531 LP  0  0  0  0  0  0  0  0  0  0  0  0  # atno 17371 bound_to 10713
  140.2877  134.3277  155.7324 LP  0  0  0  0  0  0  0  0  0  0  0  0  # atno 17394 bound_to 11000
  141.2165  133.7516  156.9457 LP  0  0  0  0  0  0  0  0  0  0  0  0  # atno 17395 bound_to 11000

$$$$
