AV-unprocessed.smi:16|AV-procd|sdf|94|dock1
  -GOLD-   2262015233D 1   1.00000     0.00000
 Structure written by MMmdl.
 60 64  0  0  0  0  0  0  0  0  2 V2000
  147.4900  131.7646  156.6687 C   0  0  0  0  0  0  0  0  0  0  0  0
  148.8706  131.6383  157.3271 C   0  0  0  0  0  0  0  0  0  0  0  0
  149.0840  130.3046  157.9486 N   0  3  2  0  0  0  0  0  0  0  0  0
  150.2479  130.2212  158.8704 C   0  0  0  0  0  0  0  0  0  0  0  0
  151.5808  130.1420  158.1096 C   0  0  0  0  0  0  0  0  0  0  0  0
  151.5791  128.9540  157.1275 C   0  0  2  0  0  0  0  0  0  0  0  0
  152.8052  128.8411  156.4045 O   0  0  0  0  0  0  0  0  0  0  0  0
  153.0107  129.8557  155.4260 C   0  0  0  0  0  0  0  0  0  0  0  0
  151.8471  129.8584  154.4266 C   0  0  0  0  0  0  0  0  0  0  0  0
  150.5714  130.0021  155.1189 N   0  0  0  0  0  0  0  0  0  0  0  0
  149.5743  130.1936  154.2227 C   0  0  0  0  0  0  0  0  0  0  0  0
  149.1125  129.1583  153.4729 N   0  0  0  0  0  0  0  0  0  0  0  0
  148.1370  129.3626  152.5825 C   0  0  0  0  0  0  0  0  0  0  0  0
  147.5006  130.4982  152.2882 N   0  0  0  0  0  0  0  0  0  0  0  0
  147.9685  131.5417  153.0328 C   0  0  0  0  0  0  0  0  0  0  0  0
  148.9979  131.4739  154.0123 C   0  0  0  0  0  0  0  0  0  0  0  0
  149.2107  132.7258  154.5727 N   0  0  0  0  0  0  0  0  0  0  0  0
  148.3568  133.4957  153.9550 C   0  0  0  0  0  0  0  0  0  0  0  0
  147.5686  132.8689  153.0144 N   0  0  0  0  0  0  0  0  0  0  0  0
  146.5613  133.4894  152.1996 C   0  0  0  0  0  0  0  0  0  0  0  0
  145.1887  132.8468  151.9901 C   0  0  0  0  0  0  0  0  0  0  0  0
  145.1325  133.4550  150.5691 C   0  0  0  0  0  0  0  0  0  0  0  0
  144.5627  132.5088  149.4973 C   0  0  0  0  0  0  0  0  0  0  0  0
  143.1715  132.3121  149.6454 O   0  0  0  0  0  0  0  0  0  0  0  0
  144.3937  134.8083  150.5008 C   0  0  0  0  0  0  0  0  0  0  0  0
  144.2589  135.2792  149.1754 O   0  0  0  0  0  0  0  0  0  0  0  0
  146.6747  133.5171  150.6752 C   0  0  0  0  0  0  0  0  0  0  0  0
  150.3656  128.9951  156.1682 C   0  0  2  0  0  0  0  0  0  0  0  0
  149.0514  129.1717  156.9829 C   0  0  0  0  0  0  0  0  0  0  0  0
  151.4997  128.0441  157.7241 H   0  0  0  0  0  0  0  0  0  0  0  0
  150.3173  128.0277  155.6653 H   0  0  0  0  0  0  0  0  0  0  0  0
  147.4066  132.7135  156.1384 H   0  0  0  0  0  0  0  0  0  0  0  0
  146.6828  131.7323  157.3996 H   0  0  0  0  0  0  0  0  0  0  0  0
  147.3233  130.9664  155.9447 H   0  0  0  0  0  0  0  0  0  0  0  0
  149.6189  131.7898  156.5483 H   0  0  0  0  0  0  0  0  0  0  0  0
  149.0169  132.4374  158.0531 H   0  0  0  0  0  0  0  0  0  0  0  0
  150.2563  131.0607  159.5644 H   0  0  0  0  0  0  0  0  0  0  0  0
  150.1310  129.3274  159.4847 H   0  0  0  0  0  0  0  0  0  0  0  0
  151.7531  131.0844  157.5925 H   0  0  0  0  0  0  0  0  0  0  0  0
  152.4021  130.0303  158.8181 H   0  0  0  0  0  0  0  0  0  0  0  0
  153.1289  130.8338  155.8913 H   0  0  0  0  0  0  0  0  0  0  0  0
  153.9454  129.6503  154.9042 H   0  0  0  0  0  0  0  0  0  0  0  0
  151.9858  130.6689  153.7094 H   0  0  0  0  0  0  0  0  0  0  0  0
  151.8463  128.9263  153.8591 H   0  0  0  0  0  0  0  0  0  0  0  0
  147.8222  128.4929  152.0246 H   0  0  0  0  0  0  0  0  0  0  0  0
  148.2801  134.5516  154.1715 H   0  0  0  0  0  0  0  0  0  0  0  0
  146.4407  134.5061  152.5783 H   0  0  0  0  0  0  0  0  0  0  0  0
  145.2254  131.7565  151.9886 H   0  0  0  0  0  0  0  0  0  0  0  0
  144.4170  133.2037  152.6728 H   0  0  0  0  0  0  0  0  0  0  0  0
  144.7268  132.9139  148.4983 H   0  0  0  0  0  0  0  0  0  0  0  0
  145.0616  131.5394  149.5196 H   0  0  0  0  0  0  0  0  0  0  0  0
  142.7351  133.1404  149.5174 H   0  0  0  0  0  0  0  0  0  0  0  0
  143.4020  134.7384  150.9488 H   0  0  0  0  0  0  0  0  0  0  0  0
  144.9249  135.5744  151.0662 H   0  0  0  0  0  0  0  0  0  0  0  0
  145.0423  135.0582  148.6955 H   0  0  0  0  0  0  0  0  0  0  0  0
  147.1303  134.4238  150.2765 H   0  0  0  0  0  0  0  0  0  0  0  0
  147.1610  132.6298  150.2670 H   0  0  0  0  0  0  0  0  0  0  0  0
  148.8960  128.2650  157.5687 H   0  0  0  0  0  0  0  0  0  0  0  0
  148.1717  129.2455  156.3441 H   0  0  0  0  0  0  0  0  0  0  0  0
  148.2682  130.1698  158.5288 H   0  0  0  0  0  0  0  0  0  0  0  0
  1  2  1  0  0  0  0
  1 32  1  0  0  0  0
  1 33  1  0  0  0  0
  1 34  1  0  0  0  0
  2  3  1  0  0  0  0
  2 35  1  0  0  0  0
  2 36  1  0  0  0  0
  3 29  1  0  0  0  0
  3  4  1  0  0  0  0
  3 60  1  0  0  0  0
  4  5  1  0  0  0  0
  4 37  1  0  0  0  0
  4 38  1  0  0  0  0
  5  6  1  0  0  0  0
  5 39  1  0  0  0  0
  5 40  1  0  0  0  0
  6 30  1  0  0  0  0
  6 28  1  0  0  0  0
  6  7  1  0  0  0  0
  7  8  1  0  0  0  0
  8  9  1  0  0  0  0
  8 41  1  0  0  0  0
  8 42  1  0  0  0  0
  9 10  1  0  0  0  0
  9 43  1  0  0  0  0
  9 44  1  0  0  0  0
 10 11  1  0  0  0  0
 10 28  1  0  0  0  0
 11 16  1  0  0  0  0
 11 12  2  0  0  0  0
 12 13  1  0  0  0  0
 13 14  2  0  0  0  0
 13 45  1  0  0  0  0
 14 15  1  0  0  0  0
 15 19  1  0  0  0  0
 15 16  2  0  0  0  0
 16 17  1  0  0  0  0
 17 18  2  0  0  0  0
 18 19  1  0  0  0  0
 18 46  1  0  0  0  0
 19 20  1  0  0  0  0
 20 27  1  0  0  0  0
 20 21  1  0  0  0  0
 20 47  1  0  0  0  0
 21 22  1  0  0  0  0
 21 48  1  0  0  0  0
 21 49  1  0  0  0  0
 22 23  1  0  0  0  0
 22 25  1  0  0  0  0
 22 27  1  0  0  0  0
 23 24  1  0  0  0  0
 23 50  1  0  0  0  0
 23 51  1  0  0  0  0
 24 52  1  0  0  0  0
 25 26  1  0  0  0  0
 25 53  1  0  0  0  0
 25 54  1  0  0  0  0
 26 55  1  0  0  0  0
 27 56  1  0  0  0  0
 27 57  1  0  0  0  0
 28 31  1  0  0  0  0
 28 29  1  0  0  0  0
 29 58  1  0  0  0  0
 29 59  1  0  0  0  0
M  CHG  1   3   1
M  END
> <s_m_source_file>
AV-unprocessed.smi

> <i_m_source_file_index>
16

> <i_lp_mmshare_version>
43012

> <i_f3d_flags>
0

> <s_epik_input>
W0NIM11bQ0gyXU4oW0NIMl1bQ0gyXTEpW0NIMl1bQ0BASF0oW0NAQEhdMTIpTihbQ0gyXVtDSDJdTzIpYyhuW2NIXW4zKWMoYzM0KW5bY0hdbjRbQ0hdKFtDSDJdNSlbQ0gyXUM1KFtDSDJdW09IXSlbQ0gyXVtPSF0=

> <s_epik_cmdline>
J2VwaWtfcHl0aG9uJywgJy1waCcsICc3LjAnLCAnLXRuJywgJzgnLCAnLW1hJywgJzIwMCcsICctbWV0YWxfYmluZGluZycsICctaW1hZScsICc8aW5maWxlLm1hZT4nLCAnLW9tYWUnLCAnPG91dGZpbGUubWFlPic=

> <r_lp_tautomer_probability>
1

> <r_epik_Ionization_Penalty>
0.0135603

> <r_epik_Ionization_Penalty_Charging>
0.0131385

> <r_epik_Ionization_Penalty_Neutral>
0.000421734

> <r_epik_State_Penalty>
0.0102091

> <r_epik_Charging_Adjusted_Penalty>
0.0233476

> <i_epik_Tot_Q>
1

> <i_epik_Tot_abs_Q>
1

> <r_epik_Metal_State_Penalty>
0.0103746

> <b_epik_Metal_Only>
0

> <s_lp_Force_Field>
OPLS_2005

> <r_lp_Energy>
67.696

> <b_lp_Chiralities_Consistent>
1

> <s_lp_Variant>
AV-unprocessed.smi:16-8

> <Gold.Version>
5.8.1

> <Gold.Id.Protein>
6NUR|6NUR_protein|mol2

> <Gold.PLP.Fitness>
47.6945

> <Gold.PLP.PLP>
-39.5103

> <Gold.PLP.part.hbond>
-3.3751

> <Gold.PLP.part.metal>
0.0000

> <Gold.PLP.part.buried>
-6.5598

> <Gold.PLP.part.nonpolar>
-29.7521

> <Gold.PLP.part.repulsive>
0.9650

> <Gold.PLP.ligand.clash>
0.0000

> <Gold.PLP.ligand.torsion>
0.7446

> <Gold.PLP.Chemscore.Hbond>
1.9920

> <Gold.PLP.Chemscore.CHOScore>
0.9630

> <Gold.PLP.Chemscore.Metal>
0.0000

> <Gold.Chemscore.Hbonds>
donor molecule, donor type, donor heavy atom, donor atom, acceptor molecule, acceptor atom, score
      L1  H    24    52       P1 10186  0.70
      L1  H    26    55       P1  7921  1.00
      P1  H 10785 10796       L1    24  0.14
      L1  C    18    46       P1  7948  0.04

> <Gold.PLP.Chemscore.Internal.Correction>
0.8086

> <Gold.Rescore>
     Score         DG    S(hbond)    S(metal)    S(lipo)     H(rot)  DE(clash)    DE(int)     intcor
     11.09     -12.14       1.97        0.00      73.49       3.33       0.04       1.01       ----

> <Gold.Chemscore.Fitness>
11.0882

> <Gold.Chemscore.DG>
-12.1403

> <Gold.Chemscore.ZeroCoef>
-5.4800

> <Gold.Chemscore.Hbond>
1.9683

> <Gold.Chemscore.Metal>
0.0000

> <Gold.Chemscore.Lipo>
73.4915

> <Gold.Chemscore.Internal_Hbond>
0.0000

> <Gold.Chemscore.DEClash>
0.0375

> <Gold.Chemscore.DEInternal>
1.0146

> <Gold.Chemscore.Rot>
3.3251

> <Gold.Chemscore.Internal.Correction>
   9.000000E+99

> <Gold.Chemscore.Hbonds>
donor molecule, donor type, donor heavy atom, donor atom, acceptor molecule, acceptor atom, score
      L1  H    24    52       P1 10186  0.69
      L1  H    26    55       P1  7921  0.93
      P1  H 10785 10796       L1    24  0.02

> <Gold.Chemscore.Hbond.Weighted>
-6.5740

> <Gold.Chemscore.Metal.Weighted>
-0.0000

> <Gold.Chemscore.Lipo.Weighted>
-8.5985

> <Gold.Chemscore.Internal_Hbond.Weighted>
0.0000

> <Gold.Chemscore.DEClash.Weighted>
0.0375

> <Gold.Chemscore.DEInternal.Weighted>
1.0146

> <Gold.Chemscore.Rot.Weighted>
8.5122

> <Gold.Chemscore.Internal.Correction.Weighted>
   9.000000E+99

> <Gold.Protein.RotatedTorsions>
[ 6907 6896 6895 6894 ] final -167.11 input  -60.11 | X-H torsion
[ 7974 7965 7964 7962 ] final  -41.09 input  175.53 | X-H torsion
[ 8008 7997 7996 7995 ] final    4.23 input   59.86 | X-H torsion
[ 10167 10162 10161 10158 ] final  -58.15 input  -65.29 | X-H torsion
[ 10718 10713 10712 10709 ] final  175.73 input   66.30 | X-H torsion
[ 10763 10752 10751 10750 ] final  -95.94 input  -60.55 | X-H torsion
[ 11005 11000 10999 10996 ] final -137.96 input  -57.11 | X-H torsion

> <Gold.Protein.ActiveResidues>
 VAL166  LYS551  ARG553  GLY616  TRP617  ASP618  TYR619  PRO620  LYS621  CYS622 
 ASP623  PHE694  ASN695  SER759  ASP760  ASP761  ALA762  ILE779  LEU786  VAL792 
 PHE793  MET794  SER795  GLU796  ALA797  LYS798  CYS799  TRP800  GLU811  SER814 

> <Gold.Protein.RotatedAtoms>
  151.4543  133.3609  159.2799 H   0  0  0  0  0  0  0  0  0  0  0  0  # atno 6907 bound_to 6896
  150.9069  134.8486  159.7409 H   0  0  0  0  0  0  0  0  0  0  0  0  # atno 6908 bound_to 6896
  152.4911  134.4469  159.9614 H   0  0  0  0  0  0  0  0  0  0  0  0  # atno 6909 bound_to 6896
  146.0243  140.6810  142.9163 H   0  0  0  0  0  0  0  0  0  0  0  0  # atno 7974 bound_to 7965
  154.7134  140.2697  155.6608 H   0  0  0  0  0  0  0  0  0  0  0  0  # atno 8008 bound_to 7997
  156.2802  140.2749  156.1707 H   0  0  0  0  0  0  0  0  0  0  0  0  # atno 8009 bound_to 7997
  155.0604  140.0371  157.2564 H   0  0  0  0  0  0  0  0  0  0  0  0  # atno 8010 bound_to 7997
  140.6215  143.2421  151.5470 H   0  0  0  0  0  0  0  0  0  0  0  0  # atno 10167 bound_to 10162
  156.9306  130.9970  151.2988 H   0  0  0  0  0  0  0  0  0  0  0  0  # atno 10718 bound_to 10713
  154.7194  135.5102  153.8788 H   0  0  0  0  0  0  0  0  0  0  0  0  # atno 10763 bound_to 10752
  153.0849  135.6642  153.9978 H   0  0  0  0  0  0  0  0  0  0  0  0  # atno 10764 bound_to 10752
  153.9804  135.3029  155.3400 H   0  0  0  0  0  0  0  0  0  0  0  0  # atno 10765 bound_to 10752
  140.8661  134.2108  157.4679 H   0  0  0  0  0  0  0  0  0  0  0  0  # atno 11005 bound_to 11000
  144.7003  140.3623  143.7161 LP  0  0  0  0  0  0  0  0  0  0  0  0  # atno 17320 bound_to 7965
  145.7142  139.1692  143.2521 LP  0  0  0  0  0  0  0  0  0  0  0  0  # atno 17321 bound_to 7965
  139.5442  144.2565  152.1411 LP  0  0  0  0  0  0  0  0  0  0  0  0  # atno 17342 bound_to 10162
  140.1786  144.4866  150.6540 LP  0  0  0  0  0  0  0  0  0  0  0  0  # atno 17343 bound_to 10162
  157.5849  130.8403  149.8575 LP  0  0  0  0  0  0  0  0  0  0  0  0  # atno 17370 bound_to 10713
  156.0449  130.3730  150.1343 LP  0  0  0  0  0  0  0  0  0  0  0  0  # atno 17371 bound_to 10713
  139.8709  134.9753  156.4877 LP  0  0  0  0  0  0  0  0  0  0  0  0  # atno 17394 bound_to 11000
  140.8627  133.8048  155.9281 LP  0  0  0  0  0  0  0  0  0  0  0  0  # atno 17395 bound_to 11000

$$$$
