AV-unprocessed.smi:765|AV-procd|sdf|3647|dock1
  -GOLD-   22720 1 53D 1   1.00000     0.00000
 Structure written by MMmdl.
 39 40  0  0  0  0  0  0  0  0  1 V2000
  147.2614  141.4256  156.6532 C   0  0  0  0  0  0  0  0  0  0  0  0
  148.7342  141.0548  156.8769 C   0  0  2  0  0  0  0  0  0  0  0  0
  149.5265  141.0822  155.5572 C   0  0  0  0  0  0  0  0  0  0  0  0
  150.9946  140.6845  155.7675 C   0  0  0  0  0  0  0  0  0  0  0  0
  151.1017  139.3091  156.4486 C   0  0  0  0  0  0  0  0  0  0  0  0
  150.3382  139.2549  157.7954 C   0  0  1  0  0  0  0  0  0  0  0  0
  150.3516  137.8784  158.3256 C   0  0  0  0  0  0  0  0  0  0  0  0
  150.3609  136.7991  158.7426 N   0  0  0  0  0  0  0  0  0  0  0  0
  150.9275  140.1861  158.7618 N   0  0  0  0  0  0  0  0  0  0  0  0
  152.2170  140.2733  159.1288 C   0  0  0  0  0  0  0  0  0  0  0  0
  153.0826  139.4838  158.7506 O   0  0  0  0  0  0  0  0  0  0  0  0
  152.5707  141.4555  160.0451 C   0  0  1  0  0  0  0  0  0  0  0  0
  154.0134  141.3904  160.5873 C   0  0  0  0  0  0  0  0  0  0  0  0
  152.2963  142.7143  159.3593 N   0  0  0  0  0  0  0  0  0  0  0  0
  152.3881  143.9950  159.8666 C   0  0  0  0  0  0  0  0  0  0  0  0
  151.9804  144.8554  158.8879 C   0  0  0  0  0  0  0  0  0  0  0  0
  151.6416  143.9985  157.8046 C   0  0  0  0  0  0  0  0  0  0  0  0
  151.8218  142.7201  158.0915 N   0  0  0  0  0  0  0  0  0  0  0  0
  148.8697  139.6749  157.5579 C   0  0  0  0  0  0  0  0  0  0  0  0
  146.7705  140.7168  155.9855 H   0  0  0  0  0  0  0  0  0  0  0  0
  147.1690  142.4180  156.2109 H   0  0  0  0  0  0  0  0  0  0  0  0
  146.7104  141.4321  157.5941 H   0  0  0  0  0  0  0  0  0  0  0  0
  149.1591  141.8101  157.5393 H   0  0  0  0  0  0  0  0  0  0  0  0
  149.0679  140.4013  154.8388 H   0  0  0  0  0  0  0  0  0  0  0  0
  149.4779  142.0768  155.1127 H   0  0  0  0  0  0  0  0  0  0  0  0
  151.5118  140.6629  154.8079 H   0  0  0  0  0  0  0  0  0  0  0  0
  151.5000  141.4405  156.3696 H   0  0  0  0  0  0  0  0  0  0  0  0
  150.6967  138.5511  155.7763 H   0  0  0  0  0  0  0  0  0  0  0  0
  152.1513  139.0484  156.5859 H   0  0  0  0  0  0  0  0  0  0  0  0
  150.2978  140.8772  159.1423 H   0  0  0  0  0  0  0  0  0  0  0  0
  151.9004  141.4050  160.9048 H   0  0  0  0  0  0  0  0  0  0  0  0
  154.1786  140.4747  161.1560 H   0  0  0  0  0  0  0  0  0  0  0  0
  154.2150  142.2288  161.2549 H   0  0  0  0  0  0  0  0  0  0  0  0
  154.7544  141.4206  159.7873 H   0  0  0  0  0  0  0  0  0  0  0  0
  152.7283  144.1861  160.8736 H   0  0  0  0  0  0  0  0  0  0  0  0
  151.9264  145.9326  158.9397 H   0  0  0  0  0  0  0  0  0  0  0  0
  151.2666  144.2645  156.8274 H   0  0  0  0  0  0  0  0  0  0  0  0
  148.3296  139.6765  158.5060 H   0  0  0  0  0  0  0  0  0  0  0  0
  148.3798  138.9228  156.9369 H   0  0  0  0  0  0  0  0  0  0  0  0
  1  2  1  0  0  0  0
  1 20  1  0  0  0  0
  1 21  1  0  0  0  0
  1 22  1  0  0  0  0
  2 19  1  0  0  0  0
  2  3  1  0  0  0  0
  2 23  1  0  0  0  0
  3  4  1  0  0  0  0
  3 24  1  0  0  0  0
  3 25  1  0  0  0  0
  4  5  1  0  0  0  0
  4 26  1  0  0  0  0
  4 27  1  0  0  0  0
  5  6  1  0  0  0  0
  5 28  1  0  0  0  0
  5 29  1  0  0  0  0
  6  7  1  0  0  0  0
  6  9  1  0  0  0  0
  6 19  1  0  0  0  0
  7  8  3  0  0  0  0
  9 10  1  0  0  0  0
  9 30  1  0  0  0  0
 10 11  2  0  0  0  0
 10 12  1  0  0  0  0
 12 13  1  0  0  0  0
 12 14  1  0  0  0  0
 12 31  1  0  0  0  0
 13 32  1  0  0  0  0
 13 33  1  0  0  0  0
 13 34  1  0  0  0  0
 14 18  1  0  0  0  0
 14 15  1  0  0  0  0
 15 16  2  0  0  0  0
 15 35  1  0  0  0  0
 16 17  1  0  0  0  0
 16 36  1  0  0  0  0
 17 18  2  0  0  0  0
 17 37  1  0  0  0  0
 19 38  1  0  0  0  0
 19 39  1  0  0  0  0
M  END
> <s_m_source_file>
AV-unprocessed.smi

> <i_m_source_file_index>
765

> <i_lp_mmshare_version>
43012

> <i_f3d_flags>
0

> <s_epik_input>
W0NIM11bQ0BASF0oW0NIMl0xKVtDSDJdW0NIMl1bQ0gyXVtDQEBdMShDI04pW05IXUMoPU8pW0NASF0oW0NIM10pbjJbY0hdW2NIXVtjSF1uMg==

> <s_epik_cmdline>
J2VwaWtfcHl0aG9uJywgJy1waCcsICc3LjAnLCAnLXRuJywgJzgnLCAnLW1hJywgJzIwMCcsICctbWV0YWxfYmluZGluZycsICctaW1hZScsICc8aW5maWxlLm1hZT4nLCAnLW9tYWUnLCAnPG91dGZpbGUubWFlPic=

> <r_lp_tautomer_probability>
1

> <r_epik_Ionization_Penalty>
2.71142e-05

> <r_epik_Ionization_Penalty_Charging>
0

> <r_epik_Ionization_Penalty_Neutral>
2.71142e-05

> <r_epik_State_Penalty>
-0

> <r_epik_Charging_Adjusted_Penalty>
0

> <i_epik_Tot_Q>
0

> <i_epik_Tot_abs_Q>
0

> <r_epik_Metal_State_Penalty>
-0

> <b_epik_Metal_Only>
0

> <s_lp_Force_Field>
OPLS_2005

> <r_lp_Energy>
11.2171

> <b_lp_Chiralities_Consistent>
1

> <s_lp_Variant>
AV-unprocessed.smi:765-5

> <Gold.Version>
5.8.1

> <Gold.Id.Protein>
6NUR|6NUR_protein|mol2

> <Gold.PLP.Fitness>
47.3017

> <Gold.PLP.PLP>
-38.6263

> <Gold.PLP.part.hbond>
-2.0000

> <Gold.PLP.part.metal>
0.0000

> <Gold.PLP.part.buried>
-4.2303

> <Gold.PLP.part.nonpolar>
-32.5943

> <Gold.PLP.part.repulsive>
0.2141

> <Gold.PLP.ligand.clash>
0.0000

> <Gold.PLP.ligand.torsion>
0.2108

> <Gold.PLP.Chemscore.Hbond>
1.9913

> <Gold.PLP.Chemscore.CHOScore>
1.0000

> <Gold.PLP.Chemscore.Metal>
0.0000

> <Gold.Chemscore.Hbonds>
donor molecule, donor type, donor heavy atom, donor atom, acceptor molecule, acceptor atom, score
      P1  H  6896  6907       L1     8  0.62
      P1  H  7997  8008       L1    11  0.19
      L1  C    17    37       P1  8028  0.68

> <Gold.PLP.Chemscore.Internal.Correction>
0.1232

> <Gold.Rescore>
     Score         DG    S(hbond)    S(metal)    S(lipo)     H(rot)  DE(clash)    DE(int)     intcor
     16.72     -18.37       1.96        0.00      85.35       1.42       0.03       1.63       ----

> <Gold.Chemscore.Fitness>
16.7159

> <Gold.Chemscore.DG>
-18.3726

> <Gold.Chemscore.ZeroCoef>
-5.4800

> <Gold.Chemscore.Hbond>
1.9574

> <Gold.Chemscore.Metal>
0.0000

> <Gold.Chemscore.Lipo>
85.3474

> <Gold.Chemscore.Internal_Hbond>
0.0000

> <Gold.Chemscore.DEClash>
0.0310

> <Gold.Chemscore.DEInternal>
1.6257

> <Gold.Chemscore.Rot>
1.4183

> <Gold.Chemscore.Internal.Correction>
   9.000000E+99

> <Gold.Chemscore.Hbonds>
donor molecule, donor type, donor heavy atom, donor atom, acceptor molecule, acceptor atom, score
      P1  H  6896  6907       L1     8  0.61
      P1  H  7997  8008       L1    11  0.21

> <Gold.Chemscore.Hbond.Weighted>
-6.5378

> <Gold.Chemscore.Metal.Weighted>
-0.0000

> <Gold.Chemscore.Lipo.Weighted>
-9.9856

> <Gold.Chemscore.Internal_Hbond.Weighted>
0.0000

> <Gold.Chemscore.DEClash.Weighted>
0.0310

> <Gold.Chemscore.DEInternal.Weighted>
1.6257

> <Gold.Chemscore.Rot.Weighted>
3.6309

> <Gold.Chemscore.Internal.Correction.Weighted>
   9.000000E+99

> <Gold.Protein.RotatedTorsions>
[ 6907 6896 6895 6894 ] final  -25.29 input  -60.11 | X-H torsion
[ 7974 7965 7964 7962 ] final  -47.24 input  175.53 | X-H torsion
[ 8008 7997 7996 7995 ] final  -94.85 input   59.86 | X-H torsion
[ 10167 10162 10161 10158 ] final  -96.21 input  -65.29 | X-H torsion
[ 10718 10713 10712 10709 ] final  -45.08 input   66.30 | X-H torsion
[ 10763 10752 10751 10750 ] final  -55.12 input  -60.55 | X-H torsion
[ 11005 11000 10999 10996 ] final -111.62 input  -57.11 | X-H torsion

> <Gold.Protein.ActiveResidues>
 VAL166  LYS551  ARG553  GLY616  TRP617  ASP618  TYR619  PRO620  LYS621  CYS622 
 ASP623  PHE694  ASN695  SER759  ASP760  ASP761  ALA762  ILE779  LEU786  VAL792 
 PHE793  MET794  SER795  GLU796  ALA797  LYS798  CYS799  TRP800  GLU811  SER814 

> <Gold.Protein.RotatedAtoms>
  151.1773  135.0345  159.8777 H   0  0  0  0  0  0  0  0  0  0  0  0  # atno 6907 bound_to 6896
  152.5446  134.1102  159.8365 H   0  0  0  0  0  0  0  0  0  0  0  0  # atno 6908 bound_to 6896
  151.1215  133.5054  159.2634 H   0  0  0  0  0  0  0  0  0  0  0  0  # atno 6909 bound_to 6896
  145.9636  140.7454  142.9445 H   0  0  0  0  0  0  0  0  0  0  0  0  # atno 7974 bound_to 7965
  154.7538  140.0485  157.0916 H   0  0  0  0  0  0  0  0  0  0  0  0  # atno 8008 bound_to 7997
  155.0024  140.3126  155.4843 H   0  0  0  0  0  0  0  0  0  0  0  0  # atno 8009 bound_to 7997
  156.2890  140.2199  156.5134 H   0  0  0  0  0  0  0  0  0  0  0  0  # atno 8010 bound_to 7997
  140.2962  143.3191  152.0295 H   0  0  0  0  0  0  0  0  0  0  0  0  # atno 10167 bound_to 10162
  156.2319  130.4173  149.8864 H   0  0  0  0  0  0  0  0  0  0  0  0  # atno 10718 bound_to 10713
  154.1857  135.6436  153.5046 H   0  0  0  0  0  0  0  0  0  0  0  0  # atno 10763 bound_to 10752
  153.0048  135.5416  154.6467 H   0  0  0  0  0  0  0  0  0  0  0  0  # atno 10764 bound_to 10752
  154.5843  135.2928  155.0673 H   0  0  0  0  0  0  0  0  0  0  0  0  # atno 10765 bound_to 10752
  141.0724  133.9358  157.2459 H   0  0  0  0  0  0  0  0  0  0  0  0  # atno 11005 bound_to 11000
  144.6820  140.2632  143.7316 LP  0  0  0  0  0  0  0  0  0  0  0  0  # atno 17320 bound_to 7965
  145.8005  139.1962  143.2051 LP  0  0  0  0  0  0  0  0  0  0  0  0  # atno 17321 bound_to 7965
  139.4926  144.6489  151.6718 LP  0  0  0  0  0  0  0  0  0  0  0  0  # atno 17342 bound_to 10162
  140.5690  144.0140  150.6207 LP  0  0  0  0  0  0  0  0  0  0  0  0  # atno 17343 bound_to 10162
  156.6475  130.8730  151.3525 LP  0  0  0  0  0  0  0  0  0  0  0  0  # atno 17370 bound_to 10713
  157.7137  130.9471  150.1179 LP  0  0  0  0  0  0  0  0  0  0  0  0  # atno 17371 bound_to 10713
  139.9537  135.0170  156.9066 LP  0  0  0  0  0  0  0  0  0  0  0  0  # atno 17394 bound_to 11000
  140.5646  134.0502  155.7410 LP  0  0  0  0  0  0  0  0  0  0  0  0  # atno 17395 bound_to 11000

$$$$
