AV-unprocessed.smi:273|AV-procd|sdf|2057|dock8
  -GOLD-   2262021303D 1   1.00000     0.00000
 Structure written by MMmdl.
 59 62  0  0  0  0  0  0  0  0  1 V2000
  146.7225  136.0460  163.0453 C   0  0  0  0  0  0  0  0  0  0  0  0
  145.6021  135.4387  162.1910 C   0  0  0  0  0  0  0  0  0  0  0  0
  145.7881  135.7390  160.7763 N   0  0  0  0  0  0  0  0  0  0  0  0
  145.9102  136.9703  160.2563 C   0  0  0  0  0  0  0  0  0  0  0  0
  145.8588  137.9915  160.9416 O   0  0  0  0  0  0  0  0  0  0  0  0
  146.1278  137.0474  158.7333 C   0  0  0  0  0  0  0  0  0  0  0  0
  147.4002  136.2991  158.2761 C   0  0  0  0  0  0  0  0  0  0  0  0
  148.6981  137.0719  158.5772 C   0  0  0  0  0  0  0  0  0  0  0  0
  148.6323  138.4334  158.0477 N   0  0  0  0  0  0  0  0  0  0  0  0
  149.8323  139.0627  157.9569 C   0  0  0  0  0  0  0  0  0  0  0  0
  150.9735  138.3330  157.8297 N   0  0  0  0  0  0  0  0  0  0  0  0
  152.1590  138.9414  157.7314 C   0  0  0  0  0  0  0  0  0  0  0  0
  152.4294  140.2477  157.7402 N   0  0  0  0  0  0  0  0  0  0  0  0
  151.2909  140.9861  157.8720 C   0  0  0  0  0  0  0  0  0  0  0  0
  149.9649  140.4803  157.9881 C   0  0  0  0  0  0  0  0  0  0  0  0
  149.0692  141.5352  158.1246 N   0  0  0  0  0  0  0  0  0  0  0  0
  149.8204  142.6015  158.0802 C   0  0  0  0  0  0  0  0  0  0  0  0
  151.1666  142.3632  157.9207 N   0  0  0  0  0  0  0  0  0  0  0  0
  152.2253  143.3561  157.8455 C   0  0  0  0  0  0  0  0  0  0  0  0
  152.4451  144.1345  159.1688 C   0  0  1  0  0  0  0  0  0  0  0  0
  151.3766  145.2433  159.3516 C   0  0  0  0  0  0  0  0  0  0  0  0
  151.7920  146.2284  160.2740 O   0  0  0  0  0  0  0  0  0  0  0  0
  152.4861  143.1525  160.3726 C   0  0  1  0  0  0  0  0  0  0  0  0
  153.6112  142.1313  160.3282 C   0  0  0  0  0  0  0  0  0  0  0  0
  153.6734  141.6460  161.7721 C   0  0  0  0  0  0  0  0  0  0  0  0
  153.2900  142.7603  162.5683 O   0  0  0  0  0  0  0  0  0  0  0  0
  152.7622  143.7906  161.7394 C   0  0  0  0  0  0  0  0  0  0  0  0
  147.4868  139.2230  158.5035 C   0  0  0  0  0  0  0  0  0  0  0  0
  146.1604  138.4992  158.2051 C   0  0  0  0  0  0  0  0  0  0  0  0
  146.5904  135.7900  164.0966 H   0  0  0  0  0  0  0  0  0  0  0  0
  146.7355  137.1336  162.9694 H   0  0  0  0  0  0  0  0  0  0  0  0
  147.6996  135.6761  162.7337 H   0  0  0  0  0  0  0  0  0  0  0  0
  145.5950  134.3552  162.3112 H   0  0  0  0  0  0  0  0  0  0  0  0
  144.6284  135.7948  162.5315 H   0  0  0  0  0  0  0  0  0  0  0  0
  145.8399  134.9518  160.1460 H   0  0  0  0  0  0  0  0  0  0  0  0
  145.2746  136.5522  158.2665 H   0  0  0  0  0  0  0  0  0  0  0  0
  147.4466  135.3111  158.7362 H   0  0  0  0  0  0  0  0  0  0  0  0
  147.3379  136.1245  157.2013 H   0  0  0  0  0  0  0  0  0  0  0  0
  148.8740  137.1206  159.6519 H   0  0  0  0  0  0  0  0  0  0  0  0
  149.5399  136.5225  158.1578 H   0  0  0  0  0  0  0  0  0  0  0  0
  153.0126  138.2876  157.6296 H   0  0  0  0  0  0  0  0  0  0  0  0
  149.4089  143.5973  158.1588 H   0  0  0  0  0  0  0  0  0  0  0  0
  153.1485  142.8573  157.5478 H   0  0  0  0  0  0  0  0  0  0  0  0
  151.9647  144.0356  157.0343 H   0  0  0  0  0  0  0  0  0  0  0  0
  153.4194  144.6204  159.0964 H   0  0  0  0  0  0  0  0  0  0  0  0
  151.1814  145.7708  158.4189 H   0  0  0  0  0  0  0  0  0  0  0  0
  150.4267  144.8165  159.6748 H   0  0  0  0  0  0  0  0  0  0  0  0
  151.6519  147.0801  159.8891 H   0  0  0  0  0  0  0  0  0  0  0  0
  151.5389  142.6133  160.4287 H   0  0  0  0  0  0  0  0  0  0  0  0
  153.4287  141.3146  159.6297 H   0  0  0  0  0  0  0  0  0  0  0  0
  154.5514  142.6126  160.0543 H   0  0  0  0  0  0  0  0  0  0  0  0
  152.9551  140.8414  161.9342 H   0  0  0  0  0  0  0  0  0  0  0  0
  154.6625  141.2787  162.0470 H   0  0  0  0  0  0  0  0  0  0  0  0
  153.5144  144.5761  161.6550 H   0  0  0  0  0  0  0  0  0  0  0  0
  151.8679  144.2244  162.1869 H   0  0  0  0  0  0  0  0  0  0  0  0
  147.5833  139.4201  159.5713 H   0  0  0  0  0  0  0  0  0  0  0  0
  147.4826  140.1921  158.0027 H   0  0  0  0  0  0  0  0  0  0  0  0
  146.0062  138.4823  157.1256 H   0  0  0  0  0  0  0  0  0  0  0  0
  145.3286  139.0731  158.6152 H   0  0  0  0  0  0  0  0  0  0  0  0
  1  2  1  0  0  0  0
  1 30  1  0  0  0  0
  1 31  1  0  0  0  0
  1 32  1  0  0  0  0
  2  3  1  0  0  0  0
  2 33  1  0  0  0  0
  2 34  1  0  0  0  0
  3  4  1  0  0  0  0
  3 35  1  0  0  0  0
  4  5  2  0  0  0  0
  4  6  1  0  0  0  0
  6 29  1  0  0  0  0
  6  7  1  0  0  0  0
  6 36  1  0  0  0  0
  7  8  1  0  0  0  0
  7 37  1  0  0  0  0
  7 38  1  0  0  0  0
  8  9  1  0  0  0  0
  8 39  1  0  0  0  0
  8 40  1  0  0  0  0
  9 10  1  0  0  0  0
  9 28  1  0  0  0  0
 10 15  1  0  0  0  0
 10 11  2  0  0  0  0
 11 12  1  0  0  0  0
 12 13  2  0  0  0  0
 12 41  1  0  0  0  0
 13 14  1  0  0  0  0
 14 18  1  0  0  0  0
 14 15  2  0  0  0  0
 15 16  1  0  0  0  0
 16 17  2  0  0  0  0
 17 18  1  0  0  0  0
 17 42  1  0  0  0  0
 18 19  1  0  0  0  0
 19 20  1  0  0  0  0
 19 43  1  0  0  0  0
 19 44  1  0  0  0  0
 20 21  1  0  0  0  0
 20 23  1  0  0  0  0
 20 45  1  0  0  0  0
 21 22  1  0  0  0  0
 21 46  1  0  0  0  0
 21 47  1  0  0  0  0
 22 48  1  0  0  0  0
 23 27  1  0  0  0  0
 23 24  1  0  0  0  0
 23 49  1  0  0  0  0
 24 25  1  0  0  0  0
 24 50  1  0  0  0  0
 24 51  1  0  0  0  0
 25 26  1  0  0  0  0
 25 52  1  0  0  0  0
 25 53  1  0  0  0  0
 26 27  1  0  0  0  0
 27 54  1  0  0  0  0
 27 55  1  0  0  0  0
 28 29  1  0  0  0  0
 28 56  1  0  0  0  0
 28 57  1  0  0  0  0
 29 58  1  0  0  0  0
 29 59  1  0  0  0  0
M  END
> <s_m_source_file>
AV-unprocessed.smi

> <i_m_source_file_index>
273

> <i_lp_mmshare_version>
43012

> <i_f3d_flags>
0

> <s_epik_input>
W0NIM11bQ0gyXVtOSF1DKD1PKVtDSF0xW0NIMl1bQ0gyXU4oW0NIMl1bQ0gyXTEpYyhuW2NIXW4yKWMoYzIzKW5bY0hdbjNbQ0gyXVtDQEhdKFtDSDJdW09IXSlbQ0BASF00W0NIMl1bQ0gyXU9bQ0gyXTQ=

> <s_epik_cmdline>
J2VwaWtfcHl0aG9uJywgJy1waCcsICc3LjAnLCAnLXRuJywgJzgnLCAnLW1hJywgJzIwMCcsICctbWV0YWxfYmluZGluZycsICctaW1hZScsICc8aW5maWxlLm1hZT4nLCAnLW9tYWUnLCAnPG91dGZpbGUubWFlPic=

> <r_lp_tautomer_probability>
1

> <r_epik_Ionization_Penalty>
0.00226556

> <r_epik_Ionization_Penalty_Charging>
0

> <r_epik_Ionization_Penalty_Neutral>
0.00226556

> <r_epik_State_Penalty>
0.00139883

> <r_epik_Charging_Adjusted_Penalty>
0.00139883

> <i_epik_Tot_Q>
0

> <i_epik_Tot_abs_Q>
0

> <r_epik_Metal_State_Penalty>
-0

> <b_epik_Metal_Only>
0

> <s_lp_Force_Field>
OPLS_2005

> <r_lp_Energy>
41.2023

> <b_lp_Chiralities_Consistent>
1

> <s_lp_Variant>
AV-unprocessed.smi:273-4

> <Gold.Version>
5.8.1

> <Gold.Id.Protein>
6NUR|6NUR_protein|mol2

> <Gold.PLP.Fitness>
53.5925

> <Gold.PLP.PLP>
-49.9638

> <Gold.PLP.part.hbond>
-4.6288

> <Gold.PLP.part.metal>
0.0000

> <Gold.PLP.part.buried>
-5.6110

> <Gold.PLP.part.nonpolar>
-38.8066

> <Gold.PLP.part.repulsive>
0.1373

> <Gold.PLP.ligand.clash>
0.0000

> <Gold.PLP.ligand.torsion>
0.9049

> <Gold.PLP.Chemscore.Hbond>
1.4880

> <Gold.PLP.Chemscore.CHOScore>
0.1256

> <Gold.PLP.Chemscore.Metal>
0.0000

> <Gold.Chemscore.Hbonds>
donor molecule, donor type, donor heavy atom, donor atom, acceptor molecule, acceptor atom, score
      P1  H  6934  6947       L1     5  0.96
      P1  H  7997  8009       L1    13  0.43
      L1  C    17    42       P1  8028  0.25
      L1  C    17    42       P1  8029  0.01

> <Gold.PLP.Chemscore.Internal.Correction>
0.5978

> <Gold.Rescore>
     Score         DG    S(hbond)    S(metal)    S(lipo)     H(rot)  DE(clash)    DE(int)     intcor
     11.31     -15.28       1.73        0.00     104.83       3.22       1.63       2.35       ----

> <Gold.Chemscore.Fitness>
11.3057

> <Gold.Chemscore.DG>
-15.2829

> <Gold.Chemscore.ZeroCoef>
-5.4800

> <Gold.Chemscore.Hbond>
1.7342

> <Gold.Chemscore.Metal>
0.0000

> <Gold.Chemscore.Lipo>
104.8315

> <Gold.Chemscore.Internal_Hbond>
0.0000

> <Gold.Chemscore.DEClash>
1.6265

> <Gold.Chemscore.DEInternal>
2.3507

> <Gold.Chemscore.Rot>
3.2244

> <Gold.Chemscore.Internal.Correction>
   9.000000E+99

> <Gold.Chemscore.Hbonds>
donor molecule, donor type, donor heavy atom, donor atom, acceptor molecule, acceptor atom, score
      P1  H  6934  6947       L1     5  0.90
      P1  H  7997  8009       L1    13  0.06

> <Gold.Chemscore.Hbond.Weighted>
-5.7921

> <Gold.Chemscore.Metal.Weighted>
-0.0000

> <Gold.Chemscore.Lipo.Weighted>
-12.2653

> <Gold.Chemscore.Internal_Hbond.Weighted>
0.0000

> <Gold.Chemscore.DEClash.Weighted>
1.6265

> <Gold.Chemscore.DEInternal.Weighted>
2.3507

> <Gold.Chemscore.Rot.Weighted>
8.2545

> <Gold.Chemscore.Internal.Correction.Weighted>
   9.000000E+99

> <Gold.Protein.RotatedTorsions>
[ 6907 6896 6895 6894 ] final -179.38 input  -60.11 | X-H torsion
[ 7974 7965 7964 7962 ] final -162.33 input  175.53 | X-H torsion
[ 8008 7997 7996 7995 ] final  169.69 input   59.86 | X-H torsion
[ 10167 10162 10161 10158 ] final -153.06 input  -65.29 | X-H torsion
[ 10718 10713 10712 10709 ] final   19.75 input   66.30 | X-H torsion
[ 10763 10752 10751 10750 ] final  -86.03 input  -60.55 | X-H torsion
[ 11005 11000 10999 10996 ] final  160.05 input  -57.11 | X-H torsion

> <Gold.Protein.ActiveResidues>
 VAL166  LYS551  ARG553  GLY616  TRP617  ASP618  TYR619  PRO620  LYS621  CYS622 
 ASP623  PHE694  ASN695  SER759  ASP760  ASP761  ALA762  ILE779  LEU786  VAL792 
 PHE793  MET794  SER795  GLU796  ALA797  LYS798  CYS799  TRP800  GLU811  SER814 

> <Gold.Protein.RotatedAtoms>
  151.6525  133.3320  159.3154 H   0  0  0  0  0  0  0  0  0  0  0  0  # atno 6907 bound_to 6896
  150.7953  134.7012  159.6560 H   0  0  0  0  0  0  0  0  0  0  0  0  # atno 6908 bound_to 6896
  152.4039  134.6244  160.0110 H   0  0  0  0  0  0  0  0  0  0  0  0  # atno 6909 bound_to 6896
  144.7361  140.3268  143.6160 H   0  0  0  0  0  0  0  0  0  0  0  0  # atno 7974 bound_to 7965
  156.1434  140.1557  156.8885 H   0  0  0  0  0  0  0  0  0  0  0  0  # atno 8008 bound_to 7997
  154.5007  140.0826  156.7830 H   0  0  0  0  0  0  0  0  0  0  0  0  # atno 8009 bound_to 7997
  155.4035  140.3415  155.4261 H   0  0  0  0  0  0  0  0  0  0  0  0  # atno 8010 bound_to 7997
  139.7129  143.9080  152.2475 H   0  0  0  0  0  0  0  0  0  0  0  0  # atno 10167 bound_to 10162
  157.1148  130.6524  149.5907 H   0  0  0  0  0  0  0  0  0  0  0  0  # atno 10718 bound_to 10713
  154.6178  135.5464  153.7542 H   0  0  0  0  0  0  0  0  0  0  0  0  # atno 10763 bound_to 10752
  153.0224  135.6405  154.1485 H   0  0  0  0  0  0  0  0  0  0  0  0  # atno 10764 bound_to 10752
  154.1420  135.2908  155.3138 H   0  0  0  0  0  0  0  0  0  0  0  0  # atno 10765 bound_to 10752
  140.2022  134.8329  157.3030 H   0  0  0  0  0  0  0  0  0  0  0  0  # atno 11005 bound_to 11000
  145.7513  139.1794  143.2320 LP  0  0  0  0  0  0  0  0  0  0  0  0  # atno 17320 bound_to 7965
  146.1059  140.7488  142.9527 LP  0  0  0  0  0  0  0  0  0  0  0  0  # atno 17321 bound_to 7965
  139.8954  144.6942  150.8724 LP  0  0  0  0  0  0  0  0  0  0  0  0  # atno 17342 bound_to 10162
  140.7737  143.3554  151.1932 LP  0  0  0  0  0  0  0  0  0  0  0  0  # atno 17343 bound_to 10162
  155.9842  130.4865  150.6971 LP  0  0  0  0  0  0  0  0  0  0  0  0  # atno 17370 bound_to 10713
  157.4528  131.0874  151.0828 LP  0  0  0  0  0  0  0  0  0  0  0  0  # atno 17371 bound_to 10713
  140.2042  134.4217  155.7646 LP  0  0  0  0  0  0  0  0  0  0  0  0  # atno 17394 bound_to 11000
  141.2227  133.7086  156.8233 LP  0  0  0  0  0  0  0  0  0  0  0  0  # atno 17395 bound_to 11000

$$$$
