AV-unprocessed.smi:3164|AV-procd|sdf|12084|dock8
  -GOLD-   2272017513D 1   1.00000     0.00000
 Structure written by MMmdl.
 39 40  0  0  0  0  0  0  0  0  2 V2000
  152.8641  142.7315  161.9510 C   0  0  0  0  0  0  0  0  0  0  0  0
  152.7817  143.5126  160.7259 N   0  0  0  0  0  0  0  0  0  0  0  0
  152.0473  144.7544  160.9300 C   0  0  0  0  0  0  0  0  0  0  0  0
  151.9474  145.5744  159.6329 C   0  0  0  0  0  0  0  0  0  0  0  0
  151.3579  144.7772  158.6095 O   0  0  0  0  0  0  0  0  0  0  0  0
  152.0836  143.5797  158.3416 C   0  0  2  0  0  0  0  0  0  0  0  0
  151.3601  142.8340  157.2103 C   0  0  0  0  0  0  0  0  0  0  0  0
  149.9085  142.7436  157.4641 N   0  3  0  0  0  0  0  0  0  0  0  0
  149.2569  141.5808  156.8280 C   0  0  0  0  0  0  0  0  0  0  0  0
  149.7222  141.3947  155.3750 C   0  0  0  0  0  0  0  0  0  0  0  0
  150.5638  140.1460  155.1767 C   0  0  0  0  0  0  0  0  0  0  0  0
  151.8451  140.0387  155.7593 C   0  0  0  0  0  0  0  0  0  0  0  0
  152.5854  138.8608  155.5390 C   0  0  0  0  0  0  0  0  0  0  0  0
  152.0203  137.8430  154.7469 C   0  0  0  0  0  0  0  0  0  0  0  0
  150.7340  138.0477  154.2092 C   0  0  0  0  0  0  0  0  0  0  0  0
  150.0162  139.1735  154.4141 N   0  0  0  0  0  0  0  0  0  0  0  0
  152.1694  142.7542  159.6434 C   0  0  0  0  0  0  0  0  0  0  0  0
  153.3562  143.3015  162.7398 H   0  0  0  0  0  0  0  0  0  0  0  0
  153.4415  141.8205  161.7908 H   0  0  0  0  0  0  0  0  0  0  0  0
  151.8723  142.4472  162.3056 H   0  0  0  0  0  0  0  0  0  0  0  0
  151.0423  144.5345  161.2940 H   0  0  0  0  0  0  0  0  0  0  0  0
  152.5350  145.3518  161.7013 H   0  0  0  0  0  0  0  0  0  0  0  0
  151.3351  146.4622  159.7914 H   0  0  0  0  0  0  0  0  0  0  0  0
  152.9333  145.9168  159.3147 H   0  0  0  0  0  0  0  0  0  0  0  0
  153.0867  143.8516  158.0066 H   0  0  0  0  0  0  0  0  0  0  0  0
  151.5419  143.3248  156.2532 H   0  0  0  0  0  0  0  0  0  0  0  0
  151.7586  141.8216  157.1306 H   0  0  0  0  0  0  0  0  0  0  0  0
  149.7617  142.6835  158.4620 H   0  0  0  0  0  0  0  0  0  0  0  0
  149.4895  140.6846  157.4041 H   0  0  0  0  0  0  0  0  0  0  0  0
  148.1739  141.7089  156.8605 H   0  0  0  0  0  0  0  0  0  0  0  0
  148.8587  141.3607  154.7092 H   0  0  0  0  0  0  0  0  0  0  0  0
  150.3074  142.2617  155.0653 H   0  0  0  0  0  0  0  0  0  0  0  0
  152.2532  140.8361  156.3630 H   0  0  0  0  0  0  0  0  0  0  0  0
  153.5687  138.7405  155.9694 H   0  0  0  0  0  0  0  0  0  0  0  0
  152.5587  136.9260  154.5573 H   0  0  0  0  0  0  0  0  0  0  0  0
  150.2698  137.2881  153.5975 H   0  0  0  0  0  0  0  0  0  0  0  0
  152.7455  141.8456  159.4647 H   0  0  0  0  0  0  0  0  0  0  0  0
  151.1683  142.4354  159.9384 H   0  0  0  0  0  0  0  0  0  0  0  0
  149.4679  143.5858  157.1226 H   0  0  0  0  0  0  0  0  0  0  0  0
  1  2  1  0  0  0  0
  1 18  1  0  0  0  0
  1 19  1  0  0  0  0
  1 20  1  0  0  0  0
  2 17  1  0  0  0  0
  2  3  1  0  0  0  0
  3  4  1  0  0  0  0
  3 21  1  0  0  0  0
  3 22  1  0  0  0  0
  4  5  1  0  0  0  0
  4 23  1  0  0  0  0
  4 24  1  0  0  0  0
  5  6  1  0  0  0  0
  6  7  1  0  0  0  0
  6 17  1  0  0  0  0
  6 25  1  0  0  0  0
  7  8  1  0  0  0  0
  7 26  1  0  0  0  0
  7 27  1  0  0  0  0
  8  9  1  0  0  0  0
  8 28  1  0  0  0  0
  8 39  1  0  0  0  0
  9 10  1  0  0  0  0
  9 29  1  0  0  0  0
  9 30  1  0  0  0  0
 10 11  1  0  0  0  0
 10 31  1  0  0  0  0
 10 32  1  0  0  0  0
 11 16  1  0  0  0  0
 11 12  2  0  0  0  0
 12 13  1  0  0  0  0
 12 33  1  0  0  0  0
 13 14  2  0  0  0  0
 13 34  1  0  0  0  0
 14 15  1  0  0  0  0
 14 35  1  0  0  0  0
 15 16  2  0  0  0  0
 15 36  1  0  0  0  0
 17 37  1  0  0  0  0
 17 38  1  0  0  0  0
M  CHG  1   8   1
M  END
> <s_m_source_file>
AV-unprocessed.smi

> <i_m_source_file_index>
3164

> <i_lp_mmshare_version>
43012

> <i_f3d_flags>
0

> <s_epik_input>
W0NIM11OMVtDSDJdW0NIMl1PW0NASF0oW0NIMl0xKVtDSDJdW05IXVtDSDJdW0NIMl1jMltjSF1bY0hdW2NIXVtjSF1uMg==

> <s_epik_cmdline>
J2VwaWtfcHl0aG9uJywgJy1waCcsICc3LjAnLCAnLXRuJywgJzgnLCAnLW1hJywgJzIwMCcsICctbWV0YWxfYmluZGluZycsICctaW1hZScsICc8aW5maWxlLm1hZT4nLCAnLW9tYWUnLCAnPG91dGZpbGUubWFlPic=

> <r_epik_Ionization_Penalty>
0.584284

> <r_epik_Ionization_Penalty_Charging>
0.00270218

> <r_epik_Ionization_Penalty_Neutral>
0.581582

> <r_epik_State_Penalty>
0.593163

> <r_epik_Charging_Adjusted_Penalty>
0.595865

> <i_epik_Tot_Q>
1

> <i_epik_Tot_abs_Q>
1

> <r_epik_Metal_State_Penalty>
0.593163

> <b_epik_Metal_Only>
0

> <s_lp_Force_Field>
OPLS_2005

> <r_lp_Energy>
23.4824

> <b_lp_Chiralities_Consistent>
1

> <s_lp_Variant>
AV-unprocessed.smi:3164-6

> <Gold.Version>
5.8.1

> <Gold.Id.Protein>
6NUR|6NUR_protein|mol2

> <Gold.PLP.Fitness>
50.6720

> <Gold.PLP.PLP>
-42.7093

> <Gold.PLP.part.hbond>
-1.0000

> <Gold.PLP.part.metal>
0.0000

> <Gold.PLP.part.buried>
-3.5896

> <Gold.PLP.part.nonpolar>
-38.5664

> <Gold.PLP.part.repulsive>
0.3644

> <Gold.PLP.ligand.clash>
0.0000

> <Gold.PLP.ligand.torsion>
0.6911

> <Gold.PLP.Chemscore.Hbond>
2.0000

> <Gold.PLP.Chemscore.CHOScore>
1.1050

> <Gold.PLP.Chemscore.Metal>
0.0000

> <Gold.Chemscore.Hbonds>
donor molecule, donor type, donor heavy atom, donor atom, acceptor molecule, acceptor atom, score
      L1  H     8    39       P1  8028  2.00
      L1  C    15    36       P1  7948  0.89
      L1  C    15    36       P1  7949  0.22

> <Gold.PLP.Chemscore.Internal.Correction>
0.0299

> <Gold.Rescore>
     Score         DG    S(hbond)    S(metal)    S(lipo)     H(rot)  DE(clash)    DE(int)     intcor
     17.67     -18.48       0.91        0.00     119.46       1.57       0.12       0.69       ----

> <Gold.Chemscore.Fitness>
17.6676

> <Gold.Chemscore.DG>
-18.4794

> <Gold.Chemscore.ZeroCoef>
-5.4800

> <Gold.Chemscore.Hbond>
0.9128

> <Gold.Chemscore.Metal>
0.0000

> <Gold.Chemscore.Lipo>
119.4577

> <Gold.Chemscore.Internal_Hbond>
0.0000

> <Gold.Chemscore.DEClash>
0.1239

> <Gold.Chemscore.DEInternal>
0.6879

> <Gold.Chemscore.Rot>
1.5726

> <Gold.Chemscore.Internal.Correction>
   9.000000E+99

> <Gold.Chemscore.Hbonds>
donor molecule, donor type, donor heavy atom, donor atom, acceptor molecule, acceptor atom, score
      L1  H     8    39       P1  8028  0.82

> <Gold.Chemscore.Hbond.Weighted>
-3.0488

> <Gold.Chemscore.Metal.Weighted>
-0.0000

> <Gold.Chemscore.Lipo.Weighted>
-13.9765

> <Gold.Chemscore.Internal_Hbond.Weighted>
0.0000

> <Gold.Chemscore.DEClash.Weighted>
0.1239

> <Gold.Chemscore.DEInternal.Weighted>
0.6879

> <Gold.Chemscore.Rot.Weighted>
4.0259

> <Gold.Chemscore.Internal.Correction.Weighted>
   9.000000E+99

> <Gold.Protein.RotatedTorsions>
[ 6907 6896 6895 6894 ] final   55.24 input  -60.11 | X-H torsion
[ 7974 7965 7964 7962 ] final  -72.76 input  175.53 | X-H torsion
[ 8008 7997 7996 7995 ] final -113.67 input   59.86 | X-H torsion
[ 10167 10162 10161 10158 ] final  -20.88 input  -65.29 | X-H torsion
[ 10718 10713 10712 10709 ] final -165.61 input   66.30 | X-H torsion
[ 10763 10752 10751 10750 ] final  172.85 input  -60.55 | X-H torsion
[ 11005 11000 10999 10996 ] final  126.26 input  -57.11 | X-H torsion

> <Gold.Protein.ActiveResidues>
 VAL166  LYS551  ARG553  GLY616  TRP617  ASP618  TYR619  PRO620  LYS621  CYS622 
 ASP623  PHE694  ASN695  SER759  ASP760  ASP761  ALA762  ILE779  LEU786  VAL792 
 PHE793  MET794  SER795  GLU796  ALA797  LYS798  CYS799  TRP800  GLU811  SER814 

> <Gold.Protein.RotatedAtoms>
  152.3519  134.6994  160.0233 H   0  0  0  0  0  0  0  0  0  0  0  0  # atno 6907 bound_to 6896
  151.7345  133.3314  159.3357 H   0  0  0  0  0  0  0  0  0  0  0  0  # atno 6908 bound_to 6896
  150.7546  134.6267  159.6209 H   0  0  0  0  0  0  0  0  0  0  0  0  # atno 6909 bound_to 6896
  145.6609  140.9253  143.0934 H   0  0  0  0  0  0  0  0  0  0  0  0  # atno 7974 bound_to 7965
  155.0243  140.0393  157.2449 H   0  0  0  0  0  0  0  0  0  0  0  0  # atno 8008 bound_to 7997
  154.7351  140.2738  155.6398 H   0  0  0  0  0  0  0  0  0  0  0  0  # atno 8009 bound_to 7997
  156.2851  140.2676  156.2062 H   0  0  0  0  0  0  0  0  0  0  0  0  # atno 8010 bound_to 7997
  140.7279  143.4680  151.0286 H   0  0  0  0  0  0  0  0  0  0  0  0  # atno 10167 bound_to 10162
  156.6559  130.9026  151.3021 H   0  0  0  0  0  0  0  0  0  0  0  0  # atno 10718 bound_to 10713
  154.4318  135.2760  155.1907 H   0  0  0  0  0  0  0  0  0  0  0  0  # atno 10763 bound_to 10752
  154.3810  135.6087  153.5794 H   0  0  0  0  0  0  0  0  0  0  0  0  # atno 10764 bound_to 10752
  152.9836  135.5880  154.4631 H   0  0  0  0  0  0  0  0  0  0  0  0  # atno 10765 bound_to 10752
  139.9447  134.9631  156.8681 H   0  0  0  0  0  0  0  0  0  0  0  0  # atno 11005 bound_to 11000
  144.7089  139.8448  143.7421 LP  0  0  0  0  0  0  0  0  0  0  0  0  # atno 17320 bound_to 7965
  146.1126  139.4133  143.0278 LP  0  0  0  0  0  0  0  0  0  0  0  0  # atno 17321 bound_to 7965
  139.8370  143.7615  152.3180 LP  0  0  0  0  0  0  0  0  0  0  0  0  # atno 17342 bound_to 10162
  139.7750  144.7464  151.0169 LP  0  0  0  0  0  0  0  0  0  0  0  0  # atno 17343 bound_to 10162
  157.7125  130.9458  150.1140 LP  0  0  0  0  0  0  0  0  0  0  0  0  # atno 17370 bound_to 10713
  156.2048  130.3662  149.8743 LP  0  0  0  0  0  0  0  0  0  0  0  0  # atno 17371 bound_to 10713
  140.5863  134.0304  155.7483 LP  0  0  0  0  0  0  0  0  0  0  0  0  # atno 17394 bound_to 11000
  141.1094  133.9641  157.2938 LP  0  0  0  0  0  0  0  0  0  0  0  0  # atno 17395 bound_to 11000

$$$$
