AV-unprocessed.smi:618|AV-procd|sdf|3077|dock5
  -GOLD-   22720 0 03D 1   1.00000     0.00000
 Structure written by MMmdl.
 41 43  0  0  0  0  0  0  0  0  2 V2000
  152.6404  140.2816  157.4174 O   0  0  0  0  0  0  0  0  0  0  0  0
  151.8695  140.9253  156.7069 C   0  0  0  0  0  0  0  0  0  0  0  0
  151.3844  140.4682  155.5439 N   0  0  0  0  0  0  0  0  0  0  0  0
  151.7008  139.1711  154.9508 C   0  0  0  0  0  0  0  0  0  0  0  0
  150.4519  138.3049  154.6879 C   0  0  1  0  0  0  0  0  0  0  0  0
  150.7363  136.7910  154.6873 C   0  0  0  0  0  0  0  0  0  0  0  0
  149.5011  136.0066  154.4353 N   0  3  1  0  0  0  0  0  0  0  0  0
  149.6837  134.5672  154.7261 C   0  0  0  0  0  0  0  0  0  0  0  0
  149.1391  134.3320  156.1473 C   0  0  0  0  0  0  0  0  0  0  0  0
  148.5372  135.6713  156.5887 C   0  0  0  0  0  0  0  0  0  0  0  0
  148.3614  136.4343  155.2759 C   0  0  1  0  0  0  0  0  0  0  0  0
  148.2285  137.9663  155.3945 C   0  0  0  0  0  0  0  0  0  0  0  0
  149.4780  138.5738  155.6879 O   0  0  0  0  0  0  0  0  0  0  0  0
  151.3938  142.1526  156.9794 N   0  0  0  0  0  0  0  0  0  0  0  0
  151.6565  142.9884  158.0997 C   0  0  0  0  0  0  0  0  0  0  0  0
  152.1659  142.5363  159.3419 C   0  0  0  0  0  0  0  0  0  0  0  0
  152.3913  143.4755  160.3667 C   0  0  0  0  0  0  0  0  0  0  0  0
  152.1062  144.8310  160.1130 C   0  0  0  0  0  0  0  0  0  0  0  0
  151.6315  145.2779  158.9317 N   0  0  0  0  0  0  0  0  0  0  0  0
  151.4177  144.3719  157.9541 C   0  0  0  0  0  0  0  0  0  0  0  0
  150.7482  141.0603  155.0302 H   0  0  0  0  0  0  0  0  0  0  0  0
  152.2716  139.3006  154.0297 H   0  0  0  0  0  0  0  0  0  0  0  0
  152.3615  138.6490  155.6430 H   0  0  0  0  0  0  0  0  0  0  0  0
  150.0498  138.5970  153.7158 H   0  0  0  0  0  0  0  0  0  0  0  0
  151.4759  136.5451  153.9246 H   0  0  0  0  0  0  0  0  0  0  0  0
  151.1615  136.4933  155.6471 H   0  0  0  0  0  0  0  0  0  0  0  0
  149.0931  133.9958  154.0091 H   0  0  0  0  0  0  0  0  0  0  0  0
  150.7209  134.2460  154.6174 H   0  0  0  0  0  0  0  0  0  0  0  0
  148.3785  133.5504  156.1340 H   0  0  0  0  0  0  0  0  0  0  0  0
  149.9251  134.0138  156.8330 H   0  0  0  0  0  0  0  0  0  0  0  0
  147.6003  135.5526  157.1338 H   0  0  0  0  0  0  0  0  0  0  0  0
  149.2371  136.1964  157.2405 H   0  0  0  0  0  0  0  0  0  0  0  0
  147.4549  136.0547  154.8007 H   0  0  0  0  0  0  0  0  0  0  0  0
  147.8363  138.3834  154.4657 H   0  0  0  0  0  0  0  0  0  0  0  0
  147.5136  138.2249  156.1759 H   0  0  0  0  0  0  0  0  0  0  0  0
  150.7224  142.5201  156.3214 H   0  0  0  0  0  0  0  0  0  0  0  0
  152.3991  141.5007  159.5308 H   0  0  0  0  0  0  0  0  0  0  0  0
  152.7774  143.1633  161.3256 H   0  0  0  0  0  0  0  0  0  0  0  0
  152.2684  145.5767  160.8772 H   0  0  0  0  0  0  0  0  0  0  0  0
  151.0398  144.7673  157.0224 H   0  0  0  0  0  0  0  0  0  0  0  0
  149.2559  136.1282  153.4629 H   0  0  0  0  0  0  0  0  0  0  0  0
  1  2  2  0  0  0  0
  2  3  1  0  0  0  0
  2 14  1  0  0  0  0
  3  4  1  0  0  0  0
  3 21  1  0  0  0  0
  4  5  1  0  0  0  0
  4 22  1  0  0  0  0
  4 23  1  0  0  0  0
  5 13  1  0  0  0  0
  5  6  1  0  0  0  0
  5 24  1  0  0  0  0
  6  7  1  0  0  0  0
  6 25  1  0  0  0  0
  6 26  1  0  0  0  0
  7 11  1  0  0  0  0
  7  8  1  0  0  0  0
  7 41  1  0  0  0  0
  8  9  1  0  0  0  0
  8 27  1  0  0  0  0
  8 28  1  0  0  0  0
  9 10  1  0  0  0  0
  9 29  1  0  0  0  0
  9 30  1  0  0  0  0
 10 11  1  0  0  0  0
 10 31  1  0  0  0  0
 10 32  1  0  0  0  0
 11 12  1  0  0  0  0
 11 33  1  0  0  0  0
 12 13  1  0  0  0  0
 12 34  1  0  0  0  0
 12 35  1  0  0  0  0
 14 15  1  0  0  0  0
 14 36  1  0  0  0  0
 15 20  1  0  0  0  0
 15 16  2  0  0  0  0
 16 17  1  0  0  0  0
 16 37  1  0  0  0  0
 17 18  2  0  0  0  0
 17 38  1  0  0  0  0
 18 19  1  0  0  0  0
 18 39  1  0  0  0  0
 19 20  2  0  0  0  0
 20 40  1  0  0  0  0
M  CHG  1   7   1
M  END
> <s_m_source_file>
AV-unprocessed.smi

> <i_m_source_file_index>
618

> <i_lp_mmshare_version>
43012

> <i_f3d_flags>
0

> <s_epik_input>
W2NIXTFuW2NIXVtjSF1bY0hdYzFbTkhdQyg9TylbTkhdW0NIMl1bQ0BIXShbQ0gyXTIpT1tDSDJdW0NAQEhdKE4yMylbQ0gyXVtDSDJdW0NIMl0z

> <s_epik_cmdline>
J2VwaWtfcHl0aG9uJywgJy1waCcsICc3LjAnLCAnLXRuJywgJzgnLCAnLW1hJywgJzIwMCcsICctbWV0YWxfYmluZGluZycsICctaW1hZScsICc8aW5maWxlLm1hZT4nLCAnLW9tYWUnLCAnPG91dGZpbGUubWFlPic=

> <r_epik_Ionization_Penalty>
0.111044

> <r_epik_Ionization_Penalty_Charging>
0.10673

> <r_epik_Ionization_Penalty_Neutral>
0.00431361

> <r_epik_State_Penalty>
0.0978747

> <r_epik_Charging_Adjusted_Penalty>
0.204605

> <i_epik_Tot_Q>
1

> <i_epik_Tot_abs_Q>
1

> <r_epik_Metal_State_Penalty>
0.0947591

> <b_epik_Metal_Only>
0

> <s_lp_Force_Field>
OPLS_2005

> <r_lp_Energy>
41.8914

> <b_lp_Chiralities_Consistent>
1

> <s_lp_Variant>
AV-unprocessed.smi:618-4

> <Gold.Version>
5.8.1

> <Gold.Id.Protein>
6NUR|6NUR_protein|mol2

> <Gold.PLP.Fitness>
43.7273

> <Gold.PLP.PLP>
-32.5439

> <Gold.PLP.part.hbond>
-2.0000

> <Gold.PLP.part.metal>
0.0000

> <Gold.PLP.part.buried>
-4.0891

> <Gold.PLP.part.nonpolar>
-26.4858

> <Gold.PLP.part.repulsive>
0.9995

> <Gold.PLP.ligand.clash>
0.0000

> <Gold.PLP.ligand.torsion>
0.4086

> <Gold.PLP.Chemscore.Hbond>
3.0000

> <Gold.PLP.Chemscore.CHOScore>
1.0000

> <Gold.PLP.Chemscore.Metal>
0.0000

> <Gold.Chemscore.Hbonds>
donor molecule, donor type, donor heavy atom, donor atom, acceptor molecule, acceptor atom, score
      L1  H     7    41       P1  7948  2.00
      P1  H  7997  8010       L1     1  0.98
      L1  C    20    40       P1  8028  1.00

> <Gold.PLP.Chemscore.Internal.Correction>
0.0007

> <Gold.Rescore>
     Score         DG    S(hbond)    S(metal)    S(lipo)     H(rot)  DE(clash)    DE(int)     intcor
     17.78     -19.24       1.91        0.00      90.89       1.27       0.02       1.44       ----

> <Gold.Chemscore.Fitness>
17.7767

> <Gold.Chemscore.DG>
-19.2372

> <Gold.Chemscore.ZeroCoef>
-5.4800

> <Gold.Chemscore.Hbond>
1.9050

> <Gold.Chemscore.Metal>
0.0000

> <Gold.Chemscore.Lipo>
90.8907

> <Gold.Chemscore.Internal_Hbond>
0.0000

> <Gold.Chemscore.DEClash>
0.0207

> <Gold.Chemscore.DEInternal>
1.4398

> <Gold.Chemscore.Rot>
1.2656

> <Gold.Chemscore.Internal.Correction>
   9.000000E+99

> <Gold.Chemscore.Hbonds>
donor molecule, donor type, donor heavy atom, donor atom, acceptor molecule, acceptor atom, score
      L1  H     7    41       P1  7948  0.81
      P1  H  7997  8010       L1     1  0.86

> <Gold.Chemscore.Hbond.Weighted>
-6.3628

> <Gold.Chemscore.Metal.Weighted>
-0.0000

> <Gold.Chemscore.Lipo.Weighted>
-10.6342

> <Gold.Chemscore.Internal_Hbond.Weighted>
0.0000

> <Gold.Chemscore.DEClash.Weighted>
0.0207

> <Gold.Chemscore.DEInternal.Weighted>
1.4398

> <Gold.Chemscore.Rot.Weighted>
3.2399

> <Gold.Chemscore.Internal.Correction.Weighted>
   9.000000E+99

> <Gold.Protein.RotatedTorsions>
[ 6907 6896 6895 6894 ] final  155.93 input  -60.11 | X-H torsion
[ 7974 7965 7964 7962 ] final  123.78 input  175.53 | X-H torsion
[ 8008 7997 7996 7995 ] final   52.65 input   59.86 | X-H torsion
[ 10167 10162 10161 10158 ] final   69.26 input  -65.29 | X-H torsion
[ 10718 10713 10712 10709 ] final    5.53 input   66.30 | X-H torsion
[ 10763 10752 10751 10750 ] final  172.88 input  -60.55 | X-H torsion
[ 11005 11000 10999 10996 ] final -171.86 input  -57.11 | X-H torsion

> <Gold.Protein.ActiveResidues>
 VAL166  LYS551  ARG553  GLY616  TRP617  ASP618  TYR619  PRO620  LYS621  CYS622 
 ASP623  PHE694  ASN695  SER759  ASP760  ASP761  ALA762  ILE779  LEU786  VAL792 
 PHE793  MET794  SER795  GLU796  ALA797  LYS798  CYS799  TRP800  GLU811  SER814 

> <Gold.Protein.RotatedAtoms>
  152.0371  133.3961  159.4321 H   0  0  0  0  0  0  0  0  0  0  0  0  # atno 6907 bound_to 6896
  150.6878  134.3456  159.4896 H   0  0  0  0  0  0  0  0  0  0  0  0  # atno 6908 bound_to 6896
  152.1250  134.9177  160.0612 H   0  0  0  0  0  0  0  0  0  0  0  0  # atno 6909 bound_to 6896
  145.0920  139.3580  143.4856 H   0  0  0  0  0  0  0  0  0  0  0  0  # atno 7974 bound_to 7965
  155.4552  140.3459  155.4306 H   0  0  0  0  0  0  0  0  0  0  0  0  # atno 8008 bound_to 7997
  156.1195  140.1483  156.9254 H   0  0  0  0  0  0  0  0  0  0  0  0  # atno 8009 bound_to 7997
  154.4813  140.0869  156.7363 H   0  0  0  0  0  0  0  0  0  0  0  0  # atno 8010 bound_to 7997
  140.0697  144.5163  150.7236 H   0  0  0  0  0  0  0  0  0  0  0  0  # atno 10167 bound_to 10162
  156.9088  130.5748  149.5647 H   0  0  0  0  0  0  0  0  0  0  0  0  # atno 10718 bound_to 10713
  154.4322  135.2760  155.1905 H   0  0  0  0  0  0  0  0  0  0  0  0  # atno 10763 bound_to 10752
  154.3806  135.6088  153.5792 H   0  0  0  0  0  0  0  0  0  0  0  0  # atno 10764 bound_to 10752
  152.9836  135.5879  154.4635 H   0  0  0  0  0  0  0  0  0  0  0  0  # atno 10765 bound_to 10752
  140.5034  134.5871  157.4995 H   0  0  0  0  0  0  0  0  0  0  0  0  # atno 11005 bound_to 11000
  146.3531  140.0758  142.8620 LP  0  0  0  0  0  0  0  0  0  0  0  0  # atno 17320 bound_to 7965
  145.1055  140.9372  143.4687 LP  0  0  0  0  0  0  0  0  0  0  0  0  # atno 17321 bound_to 7965
  140.7131  143.2522  151.4518 LP  0  0  0  0  0  0  0  0  0  0  0  0  # atno 17342 bound_to 10162
  139.5843  144.1639  152.2009 LP  0  0  0  0  0  0  0  0  0  0  0  0  # atno 17343 bound_to 10162
  156.0546  130.5610  150.9064 LP  0  0  0  0  0  0  0  0  0  0  0  0  # atno 17370 bound_to 10713
  157.5981  131.0942  150.9007 LP  0  0  0  0  0  0  0  0  0  0  0  0  # atno 17371 bound_to 10713
  139.9700  134.7309  156.0061 LP  0  0  0  0  0  0  0  0  0  0  0  0  # atno 17394 bound_to 11000
  141.1423  133.6562  156.3766 LP  0  0  0  0  0  0  0  0  0  0  0  0  # atno 17395 bound_to 11000

$$$$
