AV-unprocessed.smi:2790|AV-procd|sdf|10766|dock5
  -GOLD-   2272015203D 1   1.00000     0.00000
 Structure written by MMmdl.
 46 47  0  0  0  0  0  0  0  0  2 V2000
  148.0719  138.5070  153.7227 C   0  0  0  0  0  0  0  0  0  0  0  0
  149.2560  137.6968  154.0930 N   0  3  0  0  0  0  0  0  0  0  0  0
  150.4782  138.5254  154.1804 C   0  0  0  0  0  0  0  0  0  0  0  0
  149.0433  136.8770  155.3129 C   0  0  0  0  0  0  0  0  0  0  0  0
  148.1401  135.6638  155.0707 C   0  0  0  0  0  0  0  0  0  0  0  0
  147.6442  135.0533  156.0180 O   0  0  0  0  0  0  0  0  0  0  0  0
  147.9239  135.3346  153.7904 N   0  0  0  0  0  0  0  0  0  0  0  0
  147.1059  134.2080  153.3510 C   0  0  0  0  0  0  0  0  0  0  0  0
  145.7999  134.6622  152.6499 C   0  0  0  0  0  0  0  0  0  0  0  0
  145.3975  133.5934  151.6055 C   0  0  0  0  0  0  0  0  0  0  0  0
  146.1424  132.4045  151.4011 C   0  0  0  0  0  0  0  0  0  0  0  0
  145.6960  131.4656  150.4503 C   0  0  0  0  0  0  0  0  0  0  0  0
  144.5740  131.6235  149.7201 N   0  0  0  0  0  0  0  0  0  0  0  0
  143.8500  132.7423  149.9230 C   0  0  0  0  0  0  0  0  0  0  0  0
  144.2102  133.7415  150.8481 C   0  0  0  0  0  0  0  0  0  0  0  0
  144.7027  134.8383  153.7397 C   0  0  0  0  0  0  0  0  0  0  0  0
  143.3945  135.4316  153.1873 C   0  0  0  0  0  0  0  0  0  0  0  0
  143.6470  136.8056  152.5525 C   0  0  0  0  0  0  0  0  0  0  0  0
  144.7380  136.7225  151.4766 C   0  0  0  0  0  0  0  0  0  0  0  0
  146.0250  136.0772  152.0320 C   0  0  0  0  0  0  0  0  0  0  0  0
  147.8446  139.2431  154.4950 H   0  0  0  0  0  0  0  0  0  0  0  0
  147.1912  137.8803  153.5801 H   0  0  0  0  0  0  0  0  0  0  0  0
  148.2495  139.0387  152.7873 H   0  0  0  0  0  0  0  0  0  0  0  0
  150.4044  139.2451  154.9968 H   0  0  0  0  0  0  0  0  0  0  0  0
  150.6390  139.0755  153.2527 H   0  0  0  0  0  0  0  0  0  0  0  0
  151.3569  137.9024  154.3503 H   0  0  0  0  0  0  0  0  0  0  0  0
  150.0005  136.4888  155.6636 H   0  0  0  0  0  0  0  0  0  0  0  0
  148.6441  137.4988  156.1162 H   0  0  0  0  0  0  0  0  0  0  0  0
  148.3639  135.8883  153.0694 H   0  0  0  0  0  0  0  0  0  0  0  0
  147.7000  133.5991  152.6673 H   0  0  0  0  0  0  0  0  0  0  0  0
  146.8785  133.5738  154.2097 H   0  0  0  0  0  0  0  0  0  0  0  0
  147.0450  132.1878  151.9493 H   0  0  0  0  0  0  0  0  0  0  0  0
  146.2541  130.5572  150.2774 H   0  0  0  0  0  0  0  0  0  0  0  0
  142.9490  132.8414  149.3360 H   0  0  0  0  0  0  0  0  0  0  0  0
  143.5652  134.5979  150.9679 H   0  0  0  0  0  0  0  0  0  0  0  0
  144.4932  133.9042  154.2585 H   0  0  0  0  0  0  0  0  0  0  0  0
  145.0741  135.5088  154.5165 H   0  0  0  0  0  0  0  0  0  0  0  0
  142.9548  134.7564  152.4523 H   0  0  0  0  0  0  0  0  0  0  0  0
  142.6643  135.5280  153.9910 H   0  0  0  0  0  0  0  0  0  0  0  0
  142.7244  137.1962  152.1221 H   0  0  0  0  0  0  0  0  0  0  0  0
  143.9518  137.5125  153.3252 H   0  0  0  0  0  0  0  0  0  0  0  0
  144.3608  136.1590  150.6241 H   0  0  0  0  0  0  0  0  0  0  0  0
  144.9600  137.7220  151.1023 H   0  0  0  0  0  0  0  0  0  0  0  0
  146.4161  136.7405  152.8050 H   0  0  0  0  0  0  0  0  0  0  0  0
  146.7991  136.0622  151.2654 H   0  0  0  0  0  0  0  0  0  0  0  0
  149.4108  137.0429  153.3381 H   0  0  0  0  0  0  0  0  0  0  0  0
  1  2  1  0  0  0  0
  1 21  1  0  0  0  0
  1 22  1  0  0  0  0
  1 23  1  0  0  0  0
  2  3  1  0  0  0  0
  2  4  1  0  0  0  0
  2 46  1  0  0  0  0
  3 24  1  0  0  0  0
  3 25  1  0  0  0  0
  3 26  1  0  0  0  0
  4  5  1  0  0  0  0
  4 27  1  0  0  0  0
  4 28  1  0  0  0  0
  5  6  2  0  0  0  0
  5  7  1  0  0  0  0
  7  8  1  0  0  0  0
  7 29  1  0  0  0  0
  8  9  1  0  0  0  0
  8 30  1  0  0  0  0
  8 31  1  0  0  0  0
  9 20  1  0  0  0  0
  9 10  1  0  0  0  0
  9 16  1  0  0  0  0
 10 15  1  0  0  0  0
 10 11  2  0  0  0  0
 11 12  1  0  0  0  0
 11 32  1  0  0  0  0
 12 13  2  0  0  0  0
 12 33  1  0  0  0  0
 13 14  1  0  0  0  0
 14 15  2  0  0  0  0
 14 34  1  0  0  0  0
 15 35  1  0  0  0  0
 16 17  1  0  0  0  0
 16 36  1  0  0  0  0
 16 37  1  0  0  0  0
 17 18  1  0  0  0  0
 17 38  1  0  0  0  0
 17 39  1  0  0  0  0
 18 19  1  0  0  0  0
 18 40  1  0  0  0  0
 18 41  1  0  0  0  0
 19 20  1  0  0  0  0
 19 42  1  0  0  0  0
 19 43  1  0  0  0  0
 20 44  1  0  0  0  0
 20 45  1  0  0  0  0
M  CHG  1   2   1
M  END
> <s_m_source_file>
AV-unprocessed.smi

> <i_m_source_file_index>
2790

> <i_lp_mmshare_version>
43012

> <i_f3d_flags>
0

> <s_epik_input>
W0NIM11OKFtDSDNdKVtDSDJdQyg9TylbTkhdW0NIMl1DMShbQ0gyXVtDSDJdW0NIMl1bQ0gyXVtDSDJdMSljMltjSF1bY0hdbltjSF1bY0hdMg==

> <s_epik_cmdline>
J2VwaWtfcHl0aG9uJywgJy1waCcsICc3LjAnLCAnLXRuJywgJzgnLCAnLW1hJywgJzIwMCcsICctbWV0YWxfYmluZGluZycsICctaW1hZScsICc8aW5maWxlLm1hZT4nLCAnLW9tYWUnLCAnPG91dGZpbGUubWFlPic=

> <r_epik_Ionization_Penalty>
0.089928

> <r_epik_Ionization_Penalty_Charging>
0.0368445

> <r_epik_Ionization_Penalty_Neutral>
0.0530835

> <r_epik_State_Penalty>
0.0777876

> <r_epik_Charging_Adjusted_Penalty>
0.114632

> <i_epik_Tot_Q>
1

> <i_epik_Tot_abs_Q>
1

> <r_epik_Metal_State_Penalty>
0.0848697

> <b_epik_Metal_Only>
0

> <s_lp_Force_Field>
OPLS_2005

> <r_lp_Energy>
21.8656

> <b_lp_Chiralities_Consistent>
1

> <s_lp_Variant>
AV-unprocessed.smi:2790-1

> <Gold.Version>
5.8.1

> <Gold.Id.Protein>
6NUR|6NUR_protein|mol2

> <Gold.PLP.Fitness>
38.3124

> <Gold.PLP.PLP>
-27.4020

> <Gold.PLP.part.hbond>
-2.8588

> <Gold.PLP.part.metal>
0.0000

> <Gold.PLP.part.buried>
-0.3870

> <Gold.PLP.part.nonpolar>
-24.1328

> <Gold.PLP.part.repulsive>
0.1644

> <Gold.PLP.ligand.clash>
2.1072

> <Gold.PLP.ligand.torsion>
0.9681

> <Gold.PLP.Chemscore.Hbond>
3.1445

> <Gold.PLP.Chemscore.CHOScore>
1.8182

> <Gold.PLP.Chemscore.Metal>
0.0000

> <Gold.Chemscore.Hbonds>
donor molecule, donor type, donor heavy atom, donor atom, acceptor molecule, acceptor atom, score
      L1  H     2    46       P1  7948  2.00
      L1  H     7    29       P1  7948  0.62
      P1  H 10785 10796       L1    13  0.23
      L1  C    12    33       P1 10747  0.37
      L1  C    14    34       P1 10186  1.00

> <Gold.PLP.Chemscore.Internal.Correction>
0.0657

> <Gold.Rescore>
     Score         DG    S(hbond)    S(metal)    S(lipo)     H(rot)  DE(clash)    DE(int)     intcor
     15.39     -18.02       2.32        0.00      77.24       1.65       0.02       2.61       ----

> <Gold.Chemscore.Fitness>
15.3934

> <Gold.Chemscore.DG>
-18.0221

> <Gold.Chemscore.ZeroCoef>
-5.4800

> <Gold.Chemscore.Hbond>
2.3176

> <Gold.Chemscore.Metal>
0.0000

> <Gold.Chemscore.Lipo>
77.2428

> <Gold.Chemscore.Internal_Hbond>
0.0000

> <Gold.Chemscore.DEClash>
0.0200

> <Gold.Chemscore.DEInternal>
2.6086

> <Gold.Chemscore.Rot>
1.6547

> <Gold.Chemscore.Internal.Correction>
   9.000000E+99

> <Gold.Chemscore.Hbonds>
donor molecule, donor type, donor heavy atom, donor atom, acceptor molecule, acceptor atom, score
      L1  H     2    46       P1  7948  0.91
      L1  H     7    29       P1  7948  0.62
      P1  H 10785 10796       L1    13  0.15

> <Gold.Chemscore.Hbond.Weighted>
-7.7407

> <Gold.Chemscore.Metal.Weighted>
-0.0000

> <Gold.Chemscore.Lipo.Weighted>
-9.0374

> <Gold.Chemscore.Internal_Hbond.Weighted>
0.0000

> <Gold.Chemscore.DEClash.Weighted>
0.0200

> <Gold.Chemscore.DEInternal.Weighted>
2.6086

> <Gold.Chemscore.Rot.Weighted>
4.2361

> <Gold.Chemscore.Internal.Correction.Weighted>
   9.000000E+99

> <Gold.Protein.RotatedTorsions>
[ 6907 6896 6895 6894 ] final -132.95 input  -60.11 | X-H torsion
[ 7974 7965 7964 7962 ] final   83.41 input  175.53 | X-H torsion
[ 8008 7997 7996 7995 ] final   62.10 input   59.86 | X-H torsion
[ 10167 10162 10161 10158 ] final   70.84 input  -65.29 | X-H torsion
[ 10718 10713 10712 10709 ] final   85.59 input   66.30 | X-H torsion
[ 10763 10752 10751 10750 ] final  -16.65 input  -60.55 | X-H torsion
[ 11005 11000 10999 10996 ] final    1.16 input  -57.11 | X-H torsion

> <Gold.Protein.ActiveResidues>
 VAL166  LYS551  ARG553  GLY616  TRP617  ASP618  TYR619  PRO620  LYS621  CYS622 
 ASP623  PHE694  ASN695  SER759  ASP760  ASP761  ALA762  ILE779  LEU786  VAL792 
 PHE793  MET794  SER795  GLU796  ALA797  LYS798  CYS799  TRP800  GLU811  SER814 

> <Gold.Protein.RotatedAtoms>
  150.9684  133.6370  159.2742 H   0  0  0  0  0  0  0  0  0  0  0  0  # atno 6907 bound_to 6896
  151.3668  135.0914  159.9462 H   0  0  0  0  0  0  0  0  0  0  0  0  # atno 6908 bound_to 6896
  152.5174  133.9246  159.7605 H   0  0  0  0  0  0  0  0  0  0  0  0  # atno 6909 bound_to 6896
  145.6123  139.2370  143.2185 H   0  0  0  0  0  0  0  0  0  0  0  0  # atno 7974 bound_to 7965
  155.6090  140.3495  155.4616 H   0  0  0  0  0  0  0  0  0  0  0  0  # atno 8008 bound_to 7997
  156.0169  140.1245  157.0421 H   0  0  0  0  0  0  0  0  0  0  0  0  # atno 8009 bound_to 7997
  154.4301  140.1070  156.5895 H   0  0  0  0  0  0  0  0  0  0  0  0  # atno 8010 bound_to 7997
  140.0526  144.5299  150.7352 H   0  0  0  0  0  0  0  0  0  0  0  0  # atno 10167 bound_to 10162
  157.6917  131.0181  150.2846 H   0  0  0  0  0  0  0  0  0  0  0  0  # atno 10718 bound_to 10713
  153.5617  135.7009  153.5544 H   0  0  0  0  0  0  0  0  0  0  0  0  # atno 10763 bound_to 10752
  153.3423  135.4017  155.1581 H   0  0  0  0  0  0  0  0  0  0  0  0  # atno 10764 bound_to 10752
  154.8647  135.3745  154.5135 H   0  0  0  0  0  0  0  0  0  0  0  0  # atno 10765 bound_to 10752
  140.6186  133.9682  155.8213 H   0  0  0  0  0  0  0  0  0  0  0  0  # atno 11005 bound_to 11000
  146.1495  140.6946  142.9329 LP  0  0  0  0  0  0  0  0  0  0  0  0  # atno 17320 bound_to 7965
  144.7265  140.4539  143.6969 LP  0  0  0  0  0  0  0  0  0  0  0  0  # atno 17321 bound_to 7965
  140.7209  143.2588  151.4280 LP  0  0  0  0  0  0  0  0  0  0  0  0  # atno 17342 bound_to 10162
  139.5943  144.1431  152.2125 LP  0  0  0  0  0  0  0  0  0  0  0  0  # atno 17343 bound_to 10162
  156.3387  130.3812  149.7428 LP  0  0  0  0  0  0  0  0  0  0  0  0  # atno 17370 bound_to 10713
  156.4944  130.8100  151.3107 LP  0  0  0  0  0  0  0  0  0  0  0  0  # atno 17371 bound_to 10713
  141.0758  134.0136  157.3459 LP  0  0  0  0  0  0  0  0  0  0  0  0  # atno 17394 bound_to 11000
  139.9163  135.0197  156.7892 LP  0  0  0  0  0  0  0  0  0  0  0  0  # atno 17395 bound_to 11000

$$$$
