AV-unprocessed.smi:1821|AV-procd|sdf|7386|dock8
  -GOLD-   22720 9 53D 1   1.00000     0.00000
 Structure written by MMmdl.
 35 37  0  0  0  0  0  0  0  0  1 V2000
  152.4284  139.3800  158.9551 C   0  0  0  0  0  0  0  0  0  0  0  0
  152.2154  140.8469  159.1558 C   0  0  0  0  0  0  0  0  0  0  0  0
  152.6510  141.4858  160.2420 N   0  0  0  0  0  0  0  0  0  0  0  0
  152.2462  142.7864  160.0107 C   0  0  0  0  0  0  0  0  0  0  0  0
  152.4067  143.9518  160.7939 C   0  0  0  0  0  0  0  0  0  0  0  0
  151.9004  145.1892  160.3447 C   0  0  0  0  0  0  0  0  0  0  0  0
  151.2280  145.2793  159.1085 C   0  0  0  0  0  0  0  0  0  0  0  0
  151.0581  144.1306  158.3119 C   0  0  0  0  0  0  0  0  0  0  0  0
  151.5652  142.8981  158.7653 C   0  0  0  0  0  0  0  0  0  0  0  0
  151.5675  141.6099  158.2408 N   0  0  0  0  0  0  0  0  0  0  0  0
  150.9877  141.1990  156.9694 C   0  0  0  0  0  0  0  0  0  0  0  0
  149.5843  140.5793  157.1289 C   0  0  2  0  0  0  0  0  0  0  0  0
  149.6814  139.1773  157.2959 O   0  0  0  0  0  0  0  0  0  0  0  0
  148.6697  140.9673  155.9719 C   0  0  0  0  0  0  0  0  0  0  0  0
  147.5202  141.7636  156.1929 C   0  0  0  0  0  0  0  0  0  0  0  0
  147.2082  142.1935  157.4393 F   0  0  0  0  0  0  0  0  0  0  0  0
  146.6813  142.1145  155.1177 C   0  0  0  0  0  0  0  0  0  0  0  0
  146.9767  141.6703  153.8158 C   0  0  0  0  0  0  0  0  0  0  0  0
  148.1114  140.8698  153.5895 C   0  0  0  0  0  0  0  0  0  0  0  0
  148.9543  140.5169  154.6613 C   0  0  0  0  0  0  0  0  0  0  0  0
  150.0371  139.7390  154.4204 F   0  0  0  0  0  0  0  0  0  0  0  0
  152.8803  138.9342  159.8417 H   0  0  0  0  0  0  0  0  0  0  0  0
  153.0923  139.2089  158.1075 H   0  0  0  0  0  0  0  0  0  0  0  0
  151.4785  138.8795  158.7671 H   0  0  0  0  0  0  0  0  0  0  0  0
  152.9206  143.8935  161.7420 H   0  0  0  0  0  0  0  0  0  0  0  0
  152.0293  146.0735  160.9516 H   0  0  0  0  0  0  0  0  0  0  0  0
  150.8431  146.2308  158.7720 H   0  0  0  0  0  0  0  0  0  0  0  0
  150.5439  144.1953  157.3646 H   0  0  0  0  0  0  0  0  0  0  0  0
  150.9311  142.0797  156.3283 H   0  0  0  0  0  0  0  0  0  0  0  0
  151.6623  140.5053  156.4681 H   0  0  0  0  0  0  0  0  0  0  0  0
  149.1496  140.9525  158.0562 H   0  0  0  0  0  0  0  0  0  0  0  0
  149.7368  138.7762  156.4421 H   0  0  0  0  0  0  0  0  0  0  0  0
  145.8075  142.7247  155.2933 H   0  0  0  0  0  0  0  0  0  0  0  0
  146.3317  141.9400  152.9927 H   0  0  0  0  0  0  0  0  0  0  0  0
  148.3358  140.5243  152.5911 H   0  0  0  0  0  0  0  0  0  0  0  0
  1  2  1  0  0  0  0
  1 22  1  0  0  0  0
  1 23  1  0  0  0  0
  1 24  1  0  0  0  0
  2 10  1  0  0  0  0
  2  3  2  0  0  0  0
  3  4  1  0  0  0  0
  4  9  2  0  0  0  0
  4  5  1  0  0  0  0
  5  6  2  0  0  0  0
  5 25  1  0  0  0  0
  6  7  1  0  0  0  0
  6 26  1  0  0  0  0
  7  8  2  0  0  0  0
  7 27  1  0  0  0  0
  8  9  1  0  0  0  0
  8 28  1  0  0  0  0
  9 10  1  0  0  0  0
 10 11  1  0  0  0  0
 11 12  1  0  0  0  0
 11 29  1  0  0  0  0
 11 30  1  0  0  0  0
 12 13  1  0  0  0  0
 12 14  1  0  0  0  0
 12 31  1  0  0  0  0
 13 32  1  0  0  0  0
 14 20  1  0  0  0  0
 14 15  2  0  0  0  0
 15 16  1  0  0  0  0
 15 17  1  0  0  0  0
 17 18  2  0  0  0  0
 17 33  1  0  0  0  0
 18 19  1  0  0  0  0
 18 34  1  0  0  0  0
 19 20  2  0  0  0  0
 19 35  1  0  0  0  0
 20 21  1  0  0  0  0
M  END
> <s_m_source_file>
AV-unprocessed.smi

> <i_m_source_file_index>
1821

> <i_lp_mmshare_version>
43012

> <i_f3d_flags>
0

> <s_epik_input>
W2NIXTFbY0hdW2NIXVtjSF1jKGMxMiluKGMobjIpW0NIM10pW0NIMl1bQ0BIXShbT0hdKWMzYyhGKVtjSF1bY0hdW2NIXWMzRg==

> <s_epik_cmdline>
J2VwaWtfcHl0aG9uJywgJy1waCcsICc3LjAnLCAnLXRuJywgJzgnLCAnLW1hJywgJzIwMCcsICctbWV0YWxfYmluZGluZycsICctaW1hZScsICc8aW5maWxlLm1hZT4nLCAnLW9tYWUnLCAnPG91dGZpbGUubWFlPic=

> <r_epik_Ionization_Penalty>
0.129663

> <r_epik_Ionization_Penalty_Charging>
0

> <r_epik_Ionization_Penalty_Neutral>
0.129663

> <r_epik_State_Penalty>
0.119073

> <r_epik_Charging_Adjusted_Penalty>
0.119073

> <i_epik_Tot_Q>
0

> <i_epik_Tot_abs_Q>
0

> <r_epik_Metal_State_Penalty>
0.000131867

> <b_epik_Metal_Only>
0

> <s_lp_Force_Field>
OPLS_2005

> <r_lp_Energy>
13.297

> <b_lp_Chiralities_Consistent>
1

> <s_lp_Variant>
AV-unprocessed.smi:1821-1

> <Gold.Version>
5.8.1

> <Gold.Id.Protein>
6NUR|6NUR_protein|mol2

> <Gold.PLP.Fitness>
44.0101

> <Gold.PLP.PLP>
-45.5545

> <Gold.PLP.part.hbond>
0.0000

> <Gold.PLP.part.metal>
0.0000

> <Gold.PLP.part.buried>
-4.7671

> <Gold.PLP.part.nonpolar>
-40.0806

> <Gold.PLP.part.repulsive>
0.0000

> <Gold.PLP.ligand.clash>
0.0000

> <Gold.PLP.ligand.torsion>
0.7885

> <Gold.PLP.Chemscore.Hbond>
0.0000

> <Gold.PLP.Chemscore.CHOScore>
0.0000

> <Gold.PLP.Chemscore.Metal>
0.0000

> <Gold.PLP.Chemscore.Internal.Correction>
0.0326

> <Gold.Rescore>
     Score         DG    S(hbond)    S(metal)    S(lipo)     H(rot)  DE(clash)    DE(int)     intcor
     11.53     -14.65       0.00        0.00     119.62       1.88       1.28       1.84       ----

> <Gold.Chemscore.Fitness>
11.5303

> <Gold.Chemscore.DG>
-14.6522

> <Gold.Chemscore.ZeroCoef>
-5.4800

> <Gold.Chemscore.Hbond>
0.0000

> <Gold.Chemscore.Metal>
0.0000

> <Gold.Chemscore.Lipo>
119.6151

> <Gold.Chemscore.Internal_Hbond>
0.0000

> <Gold.Chemscore.DEClash>
1.2814

> <Gold.Chemscore.DEInternal>
1.8405

> <Gold.Chemscore.Rot>
1.8839

> <Gold.Chemscore.Internal.Correction>
   9.000000E+99

> <Gold.Chemscore.Hbond.Weighted>
-0.0000

> <Gold.Chemscore.Metal.Weighted>
-0.0000

> <Gold.Chemscore.Lipo.Weighted>
-13.9950

> <Gold.Chemscore.Internal_Hbond.Weighted>
0.0000

> <Gold.Chemscore.DEClash.Weighted>
1.2814

> <Gold.Chemscore.DEInternal.Weighted>
1.8405

> <Gold.Chemscore.Rot.Weighted>
4.8227

> <Gold.Chemscore.Internal.Correction.Weighted>
   9.000000E+99

> <Gold.Protein.RotatedTorsions>
[ 6907 6896 6895 6894 ] final  176.21 input  -60.11 | X-H torsion
[ 7974 7965 7964 7962 ] final  -54.78 input  175.53 | X-H torsion
[ 8008 7997 7996 7995 ] final  126.65 input   59.86 | X-H torsion
[ 10167 10162 10161 10158 ] final   52.42 input  -65.29 | X-H torsion
[ 10718 10713 10712 10709 ] final  -81.56 input   66.30 | X-H torsion
[ 10763 10752 10751 10750 ] final -100.27 input  -60.55 | X-H torsion
[ 11005 11000 10999 10996 ] final  135.89 input  -57.11 | X-H torsion

> <Gold.Protein.ActiveResidues>
 VAL166  LYS551  ARG553  GLY616  TRP617  ASP618  TYR619  PRO620  LYS621  CYS622 
 ASP623  PHE694  ASN695  SER759  ASP760  ASP761  ALA762  ILE779  LEU786  VAL792 
 PHE793  MET794  SER795  GLU796  ALA797  LYS798  CYS799  TRP800  GLU811  SER814 

> <Gold.Protein.RotatedAtoms>
  151.7239  133.3315  159.3322 H   0  0  0  0  0  0  0  0  0  0  0  0  # atno 6907 bound_to 6896
  150.7641  134.6424  159.6253 H   0  0  0  0  0  0  0  0  0  0  0  0  # atno 6908 bound_to 6896
  152.3635  134.6841  160.0251 H   0  0  0  0  0  0  0  0  0  0  0  0  # atno 6909 bound_to 6896
  145.8817  140.8139  142.9836 H   0  0  0  0  0  0  0  0  0  0  0  0  # atno 7974 bound_to 7965
  156.2869  140.2688  156.2145 H   0  0  0  0  0  0  0  0  0  0  0  0  # atno 8008 bound_to 7997
  155.0231  140.0386  157.2463 H   0  0  0  0  0  0  0  0  0  0  0  0  # atno 8009 bound_to 7997
  154.7419  140.2726  155.6371 H   0  0  0  0  0  0  0  0  0  0  0  0  # atno 8010 bound_to 7997
  140.2515  144.3473  150.6346 H   0  0  0  0  0  0  0  0  0  0  0  0  # atno 10167 bound_to 10162
  156.0048  130.4607  150.3971 H   0  0  0  0  0  0  0  0  0  0  0  0  # atno 10718 bound_to 10713
  154.7565  135.4941  153.9385 H   0  0  0  0  0  0  0  0  0  0  0  0  # atno 10763 bound_to 10752
  153.1202  135.6730  153.9357 H   0  0  0  0  0  0  0  0  0  0  0  0  # atno 10764 bound_to 10752
  153.9091  135.3101  155.3427 H   0  0  0  0  0  0  0  0  0  0  0  0  # atno 10765 bound_to 10752
  140.0010  134.9478  157.0071 H   0  0  0  0  0  0  0  0  0  0  0  0  # atno 11005 bound_to 11000
  144.6727  140.1394  143.7438 LP  0  0  0  0  0  0  0  0  0  0  0  0  # atno 17320 bound_to 7965
  145.9015  139.2433  143.1490 LP  0  0  0  0  0  0  0  0  0  0  0  0  # atno 17321 bound_to 7965
  140.6037  143.2167  151.7023 LP  0  0  0  0  0  0  0  0  0  0  0  0  # atno 17342 bound_to 10162
  139.5045  144.3753  152.0430 LP  0  0  0  0  0  0  0  0  0  0  0  0  # atno 17343 bound_to 10162
  157.2042  131.0445  151.2634 LP  0  0  0  0  0  0  0  0  0  0  0  0  # atno 17370 bound_to 10713
  157.3948  130.7301  149.6723 LP  0  0  0  0  0  0  0  0  0  0  0  0  # atno 17371 bound_to 10713
  140.4728  134.1368  155.7205 LP  0  0  0  0  0  0  0  0  0  0  0  0  # atno 17394 bound_to 11000
  141.1641  133.8736  157.1764 LP  0  0  0  0  0  0  0  0  0  0  0  0  # atno 17395 bound_to 11000

$$$$
