AV-unprocessed.smi:72|AV-procd|sdf|748|dock9
  -GOLD-   2262017 83D 1   1.00000     0.00000
 Structure written by MMmdl.
 29 30  0  0  0  0  0  0  0  0  1 V2000
  152.5208  140.0676  159.2964 N   0  0  0  0  0  0  0  0  0  0  0  0
  151.8045  140.0122  158.1190 C   0  0  0  0  0  0  0  0  0  0  0  0
  150.4091  139.9600  158.2400 N   0  0  0  0  0  0  0  0  0  0  0  0
  149.7318  139.9055  157.1369 C   0  0  0  0  0  0  0  0  0  0  0  0
  150.3950  139.9014  155.8435 N   0  0  0  0  0  0  0  0  0  0  0  0
  149.6293  139.8355  154.5325 C   0  0  1  0  0  0  0  0  0  0  0  0
  148.6599  138.8287  154.5920 O   0  0  0  0  0  0  0  0  0  0  0  0
  147.3579  139.4020  154.6671 C   0  0  2  0  0  0  0  0  0  0  0  0
  146.2840  138.4101  154.1877 C   0  0  0  0  0  0  0  0  0  0  0  0
  144.9972  138.9590  154.3772 O   0  0  0  0  0  0  0  0  0  0  0  0
  147.4983  140.6811  153.8323 C   0  0  2  0  0  0  0  0  0  0  0  0
  147.3958  140.4030  152.4470 O   0  0  0  0  0  0  0  0  0  0  0  0
  148.9036  141.1568  154.1770 C   0  0  1  0  0  0  0  0  0  0  0  0
  148.8414  142.0847  155.2468 O   0  0  0  0  0  0  0  0  0  0  0  0
  151.8150  139.9592  155.7966 C   0  0  0  0  0  0  0  0  0  0  0  0
  152.3962  139.9676  154.7113 O   0  0  0  0  0  0  0  0  0  0  0  0
  152.4982  140.0142  157.0171 N   0  0  0  0  0  0  0  0  0  0  0  0
  150.3619  139.5340  153.7825 H   0  0  0  0  0  0  0  0  0  0  0  0
  147.1575  139.6970  155.6987 H   0  0  0  0  0  0  0  0  0  0  0  0
  146.7325  141.4165  154.0834 H   0  0  0  0  0  0  0  0  0  0  0  0
  149.4018  141.6366  153.3333 H   0  0  0  0  0  0  0  0  0  0  0  0
  153.5292  140.1083  159.3307 H   0  0  0  0  0  0  0  0  0  0  0  0
  152.0910  140.0745  160.2100 H   0  0  0  0  0  0  0  0  0  0  0  0
  148.6431  139.8604  157.1149 H   0  0  0  0  0  0  0  0  0  0  0  0
  146.4009  138.2168  153.1209 H   0  0  0  0  0  0  0  0  0  0  0  0
  146.3661  137.4534  154.7042 H   0  0  0  0  0  0  0  0  0  0  0  0
  144.7240  139.3715  153.5721 H   0  0  0  0  0  0  0  0  0  0  0  0
  148.2532  140.4878  152.0591 H   0  0  0  0  0  0  0  0  0  0  0  0
  148.6630  142.9411  154.8890 H   0  0  0  0  0  0  0  0  0  0  0  0
  1  2  1  0  0  0  0
  1 22  1  0  0  0  0
  1 23  1  0  0  0  0
  2 17  2  0  0  0  0
  2  3  1  0  0  0  0
  3  4  2  0  0  0  0
  4  5  1  0  0  0  0
  4 24  1  0  0  0  0
  5  6  1  0  0  0  0
  5 15  1  0  0  0  0
  6 18  1  0  0  0  0
  6 13  1  0  0  0  0
  6  7  1  0  0  0  0
  7  8  1  0  0  0  0
  8 19  1  0  0  0  0
  8  9  1  0  0  0  0
  8 11  1  0  0  0  0
  9 10  1  0  0  0  0
  9 25  1  0  0  0  0
  9 26  1  0  0  0  0
 10 27  1  0  0  0  0
 11 20  1  0  0  0  0
 11 12  1  0  0  0  0
 11 13  1  0  0  0  0
 12 28  1  0  0  0  0
 13 21  1  0  0  0  0
 13 14  1  0  0  0  0
 14 29  1  0  0  0  0
 15 16  2  0  0  0  0
 15 17  1  0  0  0  0
M  END
> <s_m_source_file>
AV-unprocessed.smi

> <i_m_source_file_index>
72

> <i_lp_mmshare_version>
43012

> <i_f3d_flags>
0

> <s_epik_input>
W05IMl1jMW5bY0hdbihjKD1PKW4xKVtDQEBIXTJPW0NASF0oW0NIMl1bT0hdKVtDQEBIXShbT0hdKVtDQEhdMltPSF0=

> <s_epik_cmdline>
J2VwaWtfcHl0aG9uJywgJy1waCcsICc3LjAnLCAnLXRuJywgJzgnLCAnLW1hJywgJzIwMCcsICctbWV0YWxfYmluZGluZycsICctaW1hZScsICc8aW5maWxlLm1hZT4nLCAnLW9tYWUnLCAnPG91dGZpbGUubWFlPic=

> <r_lp_tautomer_probability>
4.77166e-05

> <r_epik_Ionization_Penalty>
1.3546

> <r_epik_Ionization_Penalty_Charging>
1.46833e-10

> <r_epik_Ionization_Penalty_Neutral>
1.3546

> <r_epik_State_Penalty>
3.51908

> <r_epik_Charging_Adjusted_Penalty>
3.51908

> <i_epik_Tot_Q>
0

> <i_epik_Tot_abs_Q>
0

> <r_epik_Metal_State_Penalty>
3.44088

> <b_epik_Metal_Only>
1

> <s_epik_Chemistry_Notes>
This compound contains an acetal/aminal-like group ( X-CH(R)-Y where X, Y are N, S, or O) that may be acid/base labile, releasing an aldehyde.

> <s_lp_Force_Field>
OPLS_2005

> <r_lp_Energy>
33.7939

> <b_lp_Chiralities_Consistent>
1

> <s_lp_Variant>
AV-unprocessed.smi:72-86

> <Gold.Version>
5.8.1

> <Gold.Id.Protein>
6NUR|6NUR_protein|mol2

> <Gold.PLP.Fitness>
35.3523

> <Gold.PLP.PLP>
-22.9048

> <Gold.PLP.part.hbond>
-4.8384

> <Gold.PLP.part.metal>
0.0000

> <Gold.PLP.part.buried>
-3.0345

> <Gold.PLP.part.nonpolar>
-14.4306

> <Gold.PLP.part.repulsive>
0.3147

> <Gold.PLP.ligand.clash>
0.0000

> <Gold.PLP.ligand.torsion>
0.3140

> <Gold.PLP.Chemscore.Hbond>
4.3440

> <Gold.PLP.Chemscore.CHOScore>
0.0000

> <Gold.PLP.Chemscore.Metal>
0.0000

> <Gold.Chemscore.Hbonds>
donor molecule, donor type, donor heavy atom, donor atom, acceptor molecule, acceptor atom, score
      L1  H    10    27       P1 10175  1.00
      L1  H    12    28       P1  7957  1.00
      L1  H    14    29       P1  8028  0.64
      P1  H  7989  7998       L1    16  0.61
      P1  H  7997  8009       L1    17  1.00

> <Gold.PLP.Chemscore.Internal.Correction>
0.0434

> <Gold.Rescore>
     Score         DG    S(hbond)    S(metal)    S(lipo)     H(rot)  DE(clash)    DE(int)     intcor
     11.74     -12.42       4.53        0.00      18.95       4.06       0.10       0.58       ----

> <Gold.Chemscore.Fitness>
11.7431

> <Gold.Chemscore.DG>
-12.4228

> <Gold.Chemscore.ZeroCoef>
-5.4800

> <Gold.Chemscore.Hbond>
4.5269

> <Gold.Chemscore.Metal>
0.0000

> <Gold.Chemscore.Lipo>
18.9450

> <Gold.Chemscore.Internal_Hbond>
0.0000

> <Gold.Chemscore.DEClash>
0.1025

> <Gold.Chemscore.DEInternal>
0.5771

> <Gold.Chemscore.Rot>
4.0600

> <Gold.Chemscore.Internal.Correction>
   9.000000E+99

> <Gold.Chemscore.Hbonds>
donor molecule, donor type, donor heavy atom, donor atom, acceptor molecule, acceptor atom, score
      L1  H    10    27       P1 10175  0.98
      L1  H    12    28       P1  7957  0.99
      L1  H    14    29       P1  8028  0.64
      P1  H  7989  7998       L1    16  0.57
      P1  H  7997  8009       L1    17  0.65

> <Gold.Chemscore.Hbond.Weighted>
-15.1198

> <Gold.Chemscore.Metal.Weighted>
-0.0000

> <Gold.Chemscore.Lipo.Weighted>
-2.2166

> <Gold.Chemscore.Internal_Hbond.Weighted>
0.0000

> <Gold.Chemscore.DEClash.Weighted>
0.1025

> <Gold.Chemscore.DEInternal.Weighted>
0.5771

> <Gold.Chemscore.Rot.Weighted>
10.3936

> <Gold.Chemscore.Internal.Correction.Weighted>
   9.000000E+99

> <Gold.Protein.RotatedTorsions>
[ 6907 6896 6895 6894 ] final  -55.54 input  -60.11 | X-H torsion
[ 7974 7965 7964 7962 ] final -162.72 input  175.53 | X-H torsion
[ 8008 7997 7996 7995 ] final  179.53 input   59.86 | X-H torsion
[ 10167 10162 10161 10158 ] final   30.20 input  -65.29 | X-H torsion
[ 10718 10713 10712 10709 ] final -132.13 input   66.30 | X-H torsion
[ 10763 10752 10751 10750 ] final    6.59 input  -60.55 | X-H torsion
[ 11005 11000 10999 10996 ] final  114.52 input  -57.11 | X-H torsion

> <Gold.Protein.ActiveResidues>
 VAL166  LYS551  ARG553  GLY616  TRP617  ASP618  TYR619  PRO620  LYS621  CYS622 
 ASP623  PHE694  ASN695  SER759  ASP760  ASP761  ALA762  ILE779  LEU786  VAL792 
 PHE793  MET794  SER795  GLU796  ALA797  LYS798  CYS799  TRP800  GLU811  SER814 

> <Gold.Protein.RotatedAtoms>
  150.8243  134.7466  159.6798 H   0  0  0  0  0  0  0  0  0  0  0  0  # atno 6907 bound_to 6896
  152.4355  134.5690  159.9925 H   0  0  0  0  0  0  0  0  0  0  0  0  # atno 6908 bound_to 6896
  151.5867  133.3334  159.3055 H   0  0  0  0  0  0  0  0  0  0  0  0  # atno 6909 bound_to 6896
  144.7348  140.3211  143.6170 H   0  0  0  0  0  0  0  0  0  0  0  0  # atno 7974 bound_to 7965
  156.0424  140.1306  157.0141 H   0  0  0  0  0  0  0  0  0  0  0  0  # atno 8008 bound_to 7997
  154.4397  140.1027  156.6326 H   0  0  0  0  0  0  0  0  0  0  0  0  # atno 8009 bound_to 7997
  155.5647  140.3465  155.4502 H   0  0  0  0  0  0  0  0  0  0  0  0  # atno 8010 bound_to 7997
  140.4699  144.0778  150.6234 H   0  0  0  0  0  0  0  0  0  0  0  0  # atno 10167 bound_to 10162
  156.2314  130.7040  151.0862 H   0  0  0  0  0  0  0  0  0  0  0  0  # atno 10718 bound_to 10713
  153.2460  135.6908  153.7731 H   0  0  0  0  0  0  0  0  0  0  0  0  # atno 10763 bound_to 10752
  153.6843  135.3323  155.3187 H   0  0  0  0  0  0  0  0  0  0  0  0  # atno 10764 bound_to 10752
  154.8375  135.4530  154.1400 H   0  0  0  0  0  0  0  0  0  0  0  0  # atno 10765 bound_to 10752
  139.8983  134.9569  156.6905 H   0  0  0  0  0  0  0  0  0  0  0  0  # atno 11005 bound_to 11000
  145.7568  139.1811  143.2290 LP  0  0  0  0  0  0  0  0  0  0  0  0  # atno 17320 bound_to 7965
  146.1018  140.7535  142.9545 LP  0  0  0  0  0  0  0  0  0  0  0  0  # atno 17321 bound_to 7965
  140.3990  143.2713  151.9970 LP  0  0  0  0  0  0  0  0  0  0  0  0  # atno 17342 bound_to 10162
  139.4817  144.6014  151.7599 LP  0  0  0  0  0  0  0  0  0  0  0  0  # atno 17343 bound_to 10162
  157.7134  131.0722  150.6415 LP  0  0  0  0  0  0  0  0  0  0  0  0  # atno 17370 bound_to 10713
  156.6483  130.4478  149.5728 LP  0  0  0  0  0  0  0  0  0  0  0  0  # atno 17371 bound_to 10713
  140.7229  133.9125  155.8159 LP  0  0  0  0  0  0  0  0  0  0  0  0  # atno 17394 bound_to 11000
  141.0213  134.0884  157.4117 LP  0  0  0  0  0  0  0  0  0  0  0  0  # atno 17395 bound_to 11000

$$$$
