AV-unprocessed.smi:1936|AV-procd|sdf|7832|dock5
  -GOLD-   22720 9583D 1   1.00000     0.00000
 Structure written by MMmdl.
 39 40  0  0  0  0  0  0  0  0  2 V2000
  146.9808  139.7779  151.3910 C   0  0  0  0  0  0  0  0  0  0  0  0
  147.0628  138.4102  152.0818 C   0  0  1  0  0  0  0  0  0  0  0  0
  146.8162  138.5261  153.6037 C   0  0  0  0  0  0  0  0  0  0  0  0
  147.9657  139.1256  154.3287 N   0  3  0  0  0  0  0  0  0  0  0  0
  149.2344  138.3814  154.1452 C   0  0  0  0  0  0  0  0  0  0  0  0
  150.3442  139.0109  155.0023 C   0  0  0  0  0  0  0  0  0  0  0  0
  150.4962  140.3808  154.6496 O   0  0  0  0  0  0  0  0  0  0  0  0
  149.3096  141.1277  154.8887 C   0  0  0  0  0  0  0  0  0  0  0  0
  148.1598  140.5642  154.0362 C   0  0  0  0  0  0  0  0  0  0  0  0
  146.0908  137.5017  151.4750 N   0  0  0  0  0  0  0  0  0  0  0  0
  145.7045  136.3148  151.9699 C   0  0  0  0  0  0  0  0  0  0  0  0
  146.2066  135.7928  152.9648 O   0  0  0  0  0  0  0  0  0  0  0  0
  144.5238  135.6453  151.2697 C   0  0  0  0  0  0  0  0  0  0  0  0
  144.8885  134.3088  150.8326 N   0  0  0  0  0  0  0  0  0  0  0  0
  144.1071  133.3786  150.1797 C   0  0  0  0  0  0  0  0  0  0  0  0
  144.8823  132.2753  149.9648 C   0  0  0  0  0  0  0  0  0  0  0  0
  146.1396  132.6292  150.5288 C   0  0  0  0  0  0  0  0  0  0  0  0
  146.1425  133.8490  151.0415 N   0  0  0  0  0  0  0  0  0  0  0  0
  147.7134  140.4705  151.8066 H   0  0  0  0  0  0  0  0  0  0  0  0
  145.9940  140.2269  151.5098 H   0  0  0  0  0  0  0  0  0  0  0  0
  147.1806  139.6909  150.3223 H   0  0  0  0  0  0  0  0  0  0  0  0
  148.0714  138.0300  151.9139 H   0  0  0  0  0  0  0  0  0  0  0  0
  145.9079  139.0941  153.8103 H   0  0  0  0  0  0  0  0  0  0  0  0
  146.6405  137.5219  153.9928 H   0  0  0  0  0  0  0  0  0  0  0  0
  149.1062  137.3364  154.4260 H   0  0  0  0  0  0  0  0  0  0  0  0
  149.5213  138.3966  153.0926 H   0  0  0  0  0  0  0  0  0  0  0  0
  150.1154  138.9175  156.0654 H   0  0  0  0  0  0  0  0  0  0  0  0
  151.2892  138.4946  154.8323 H   0  0  0  0  0  0  0  0  0  0  0  0
  149.0583  141.0971  155.9497 H   0  0  0  0  0  0  0  0  0  0  0  0
  149.4905  142.1722  154.6342 H   0  0  0  0  0  0  0  0  0  0  0  0
  148.3752  140.6983  152.9749 H   0  0  0  0  0  0  0  0  0  0  0  0
  147.2433  141.1143  154.2530 H   0  0  0  0  0  0  0  0  0  0  0  0
  145.6163  137.8371  150.6485 H   0  0  0  0  0  0  0  0  0  0  0  0
  143.6606  135.5860  151.9348 H   0  0  0  0  0  0  0  0  0  0  0  0
  144.2240  136.2348  150.4021 H   0  0  0  0  0  0  0  0  0  0  0  0
  143.0764  133.5776  149.9249 H   0  0  0  0  0  0  0  0  0  0  0  0
  144.5949  131.3542  149.4797 H   0  0  0  0  0  0  0  0  0  0  0  0
  147.0451  132.0425  150.5753 H   0  0  0  0  0  0  0  0  0  0  0  0
  147.7346  139.0717  155.3109 H   0  0  0  0  0  0  0  0  0  0  0  0
  1  2  1  0  0  0  0
  1 19  1  0  0  0  0
  1 20  1  0  0  0  0
  1 21  1  0  0  0  0
  2  3  1  0  0  0  0
  2 10  1  0  0  0  0
  2 22  1  0  0  0  0
  3  4  1  0  0  0  0
  3 23  1  0  0  0  0
  3 24  1  0  0  0  0
  4  9  1  0  0  0  0
  4  5  1  0  0  0  0
  4 39  1  0  0  0  0
  5  6  1  0  0  0  0
  5 25  1  0  0  0  0
  5 26  1  0  0  0  0
  6  7  1  0  0  0  0
  6 27  1  0  0  0  0
  6 28  1  0  0  0  0
  7  8  1  0  0  0  0
  8  9  1  0  0  0  0
  8 29  1  0  0  0  0
  8 30  1  0  0  0  0
  9 31  1  0  0  0  0
  9 32  1  0  0  0  0
 10 11  1  0  0  0  0
 10 33  1  0  0  0  0
 11 12  2  0  0  0  0
 11 13  1  0  0  0  0
 13 14  1  0  0  0  0
 13 34  1  0  0  0  0
 13 35  1  0  0  0  0
 14 18  1  0  0  0  0
 14 15  1  0  0  0  0
 15 16  2  0  0  0  0
 15 36  1  0  0  0  0
 16 17  1  0  0  0  0
 16 37  1  0  0  0  0
 17 18  2  0  0  0  0
 17 38  1  0  0  0  0
M  CHG  1   4   1
M  END
> <s_m_source_file>
AV-unprocessed.smi

> <i_m_source_file_index>
1936

> <i_lp_mmshare_version>
43012

> <i_f3d_flags>
0

> <s_epik_input>
W0NIMl0xW0NIMl1PW0NIMl1bQ0gyXU4xW0NIMl1bQ0BASF0oW0NIM10pW05IXUMoPU8pW0NIMl1uMltjSF1bY0hdW2NIXW4y

> <s_epik_cmdline>
J2VwaWtfcHl0aG9uJywgJy1waCcsICc3LjAnLCAnLXRuJywgJzgnLCAnLW1hJywgJzIwMCcsICctbWV0YWxfYmluZGluZycsICctaW1hZScsICc8aW5maWxlLm1hZT4nLCAnLW9tYWUnLCAnPG91dGZpbGUubWFlPic=

> <r_lp_tautomer_probability>
1

> <r_epik_Ionization_Penalty>
0.748405

> <r_epik_Ionization_Penalty_Charging>
0.748396

> <r_epik_Ionization_Penalty_Neutral>
9.02181e-06

> <r_epik_State_Penalty>
0.775162

> <r_epik_Charging_Adjusted_Penalty>
1.52356

> <i_epik_Tot_Q>
1

> <i_epik_Tot_abs_Q>
1

> <r_epik_Metal_State_Penalty>
0.775167

> <b_epik_Metal_Only>
0

> <s_lp_Force_Field>
OPLS_2005

> <r_lp_Energy>
20.1582

> <b_lp_Chiralities_Consistent>
1

> <s_lp_Variant>
AV-unprocessed.smi:1936-4

> <Gold.Version>
5.8.1

> <Gold.Id.Protein>
6NUR|6NUR_protein|mol2

> <Gold.PLP.Fitness>
44.0673

> <Gold.PLP.PLP>
-32.8232

> <Gold.PLP.part.hbond>
-2.2906

> <Gold.PLP.part.metal>
0.0000

> <Gold.PLP.part.buried>
-0.4191

> <Gold.PLP.part.nonpolar>
-31.1777

> <Gold.PLP.part.repulsive>
1.4818

> <Gold.PLP.ligand.clash>
0.0000

> <Gold.PLP.ligand.torsion>
0.3209

> <Gold.PLP.Chemscore.Hbond>
1.9440

> <Gold.PLP.Chemscore.CHOScore>
2.0000

> <Gold.PLP.Chemscore.Metal>
0.0000

> <Gold.Chemscore.Hbonds>
donor molecule, donor type, donor heavy atom, donor atom, acceptor molecule, acceptor atom, score
      L1  H    10    33       P1 10171  0.89
      P1  H  7989  7998       L1     7  1.00
      L1  C    15    36       P1 10186  1.00
      L1  C    17    38       P1 10747  1.00

> <Gold.PLP.Chemscore.Internal.Correction>
0.0539

> <Gold.Rescore>
     Score         DG    S(hbond)    S(metal)    S(lipo)     H(rot)  DE(clash)    DE(int)     intcor
     11.74     -16.80       1.79        0.00      88.10       1.93       1.84       3.23       ----

> <Gold.Chemscore.Fitness>
11.7397

> <Gold.Chemscore.DG>
-16.8037

> <Gold.Chemscore.ZeroCoef>
-5.4800

> <Gold.Chemscore.Hbond>
1.7867

> <Gold.Chemscore.Metal>
0.0000

> <Gold.Chemscore.Lipo>
88.0960

> <Gold.Chemscore.Internal_Hbond>
0.0000

> <Gold.Chemscore.DEClash>
1.8361

> <Gold.Chemscore.DEInternal>
3.2279

> <Gold.Chemscore.Rot>
1.9340

> <Gold.Chemscore.Internal.Correction>
   9.000000E+99

> <Gold.Chemscore.Hbonds>
donor molecule, donor type, donor heavy atom, donor atom, acceptor molecule, acceptor atom, score
      L1  H    10    33       P1 10171  0.80
      P1  H  7989  7998       L1     7  0.95

> <Gold.Chemscore.Hbond.Weighted>
-5.9675

> <Gold.Chemscore.Metal.Weighted>
-0.0000

> <Gold.Chemscore.Lipo.Weighted>
-10.3072

> <Gold.Chemscore.Internal_Hbond.Weighted>
0.0000

> <Gold.Chemscore.DEClash.Weighted>
1.8361

> <Gold.Chemscore.DEInternal.Weighted>
3.2279

> <Gold.Chemscore.Rot.Weighted>
4.9510

> <Gold.Chemscore.Internal.Correction.Weighted>
   9.000000E+99

> <Gold.Protein.RotatedTorsions>
[ 6907 6896 6895 6894 ] final   90.48 input  -60.11 | X-H torsion
[ 7974 7965 7964 7962 ] final  -21.40 input  175.53 | X-H torsion
[ 8008 7997 7996 7995 ] final  -96.56 input   59.86 | X-H torsion
[ 10167 10162 10161 10158 ] final   99.44 input  -65.29 | X-H torsion
[ 10718 10713 10712 10709 ] final    5.32 input   66.30 | X-H torsion
[ 10763 10752 10751 10750 ] final   41.24 input  -60.55 | X-H torsion
[ 11005 11000 10999 10996 ] final  -43.15 input  -57.11 | X-H torsion

> <Gold.Protein.ActiveResidues>
 VAL166  LYS551  ARG553  GLY616  TRP617  ASP618  TYR619  PRO620  LYS621  CYS622 
 ASP623  PHE694  ASN695  SER759  ASP760  ASP761  ALA762  ILE779  LEU786  VAL792 
 PHE793  MET794  SER795  GLU796  ALA797  LYS798  CYS799  TRP800  GLU811  SER814 

> <Gold.Protein.RotatedAtoms>
  152.5445  134.1804  159.8633 H   0  0  0  0  0  0  0  0  0  0  0  0  # atno 6907 bound_to 6896
  151.1807  133.4719  159.2601 H   0  0  0  0  0  0  0  0  0  0  0  0  # atno 6908 bound_to 6896
  151.1181  135.0076  159.8581 H   0  0  0  0  0  0  0  0  0  0  0  0  # atno 6909 bound_to 6896
  146.1735  140.4335  142.8523 H   0  0  0  0  0  0  0  0  0  0  0  0  # atno 7974 bound_to 7965
  154.7761  140.0470  157.1090 H   0  0  0  0  0  0  0  0  0  0  0  0  # atno 8008 bound_to 7997
  154.9761  140.3095  155.4947 H   0  0  0  0  0  0  0  0  0  0  0  0  # atno 8009 bound_to 7997
  156.2929  140.2244  156.4857 H   0  0  0  0  0  0  0  0  0  0  0  0  # atno 8010 bound_to 7997
  139.7617  144.6952  151.0283 H   0  0  0  0  0  0  0  0  0  0  0  0  # atno 10167 bound_to 10162
  156.9056  130.5737  149.5647 H   0  0  0  0  0  0  0  0  0  0  0  0  # atno 10718 bound_to 10713
  152.9913  135.6167  154.2756 H   0  0  0  0  0  0  0  0  0  0  0  0  # atno 10763 bound_to 10752
  154.2487  135.2786  155.2827 H   0  0  0  0  0  0  0  0  0  0  0  0  # atno 10764 bound_to 10752
  154.5306  135.5789  153.6814 H   0  0  0  0  0  0  0  0  0  0  0  0  # atno 10765 bound_to 10752
  141.0364  133.6798  156.2694 H   0  0  0  0  0  0  0  0  0  0  0  0  # atno 11005 bound_to 11000
  144.8200  140.6533  143.6359 LP  0  0  0  0  0  0  0  0  0  0  0  0  # atno 17320 bound_to 7965
  145.4275  139.1554  143.4040 LP  0  0  0  0  0  0  0  0  0  0  0  0  # atno 17321 bound_to 7965
  140.7807  143.4689  151.0173 LP  0  0  0  0  0  0  0  0  0  0  0  0  # atno 17342 bound_to 10162
  139.8375  143.7608  152.3180 LP  0  0  0  0  0  0  0  0  0  0  0  0  # atno 17343 bound_to 10162
  156.0561  130.5622  150.9093 LP  0  0  0  0  0  0  0  0  0  0  0  0  # atno 17370 bound_to 10713
  157.5999  131.0941  150.8977 LP  0  0  0  0  0  0  0  0  0  0  0  0  # atno 17371 bound_to 10713
  140.6313  134.5260  157.5560 LP  0  0  0  0  0  0  0  0  0  0  0  0  # atno 17394 bound_to 11000
  139.9244  134.8085  156.1113 LP  0  0  0  0  0  0  0  0  0  0  0  0  # atno 17395 bound_to 11000

$$$$
