AV-unprocessed.smi:3338|AV-procd|sdf|12876|dock10
  -GOLD-   2272019283D 1   1.00000     0.00000
 Structure written by MMmdl.
 44 45  0  0  0  0  0  0  0  0  2 V2000
  146.3316  132.6623  154.3657 C   0  0  0  0  0  0  0  0  0  0  0  0
  146.5393  133.6667  153.2233 C   0  0  1  0  0  0  0  0  0  0  0  0
  145.7834  133.2385  151.9544 C   0  0  0  0  0  0  0  0  0  0  0  0
  145.9866  134.2728  150.8401 C   0  0  0  0  0  0  0  0  0  0  0  0
  145.5860  135.6789  151.3142 C   0  0  0  0  0  0  0  0  0  0  0  0
  146.3350  136.0666  152.5376 N   0  3  1  0  0  0  0  0  0  0  0  0
  146.0663  137.4719  152.9361 C   0  0  0  0  0  0  0  0  0  0  0  0
  146.6791  138.4876  151.9582 C   0  0  0  0  0  0  0  0  0  0  0  0
  147.7544  139.2314  152.5987 N   0  0  0  0  0  0  0  0  0  0  0  0
  147.6628  139.7950  153.8131 C   0  0  0  0  0  0  0  0  0  0  0  0
  146.6363  139.7486  154.4920 O   0  0  0  0  0  0  0  0  0  0  0  0
  148.9189  140.5211  154.3265 C   0  0  1  0  0  0  0  0  0  0  0  0
  148.6788  141.2847  155.6446 C   0  0  0  0  0  0  0  0  0  0  0  0
  150.0427  139.5974  154.4365 N   0  0  0  0  0  0  0  0  0  0  0  0
  150.0355  138.2276  154.2686 C   0  0  0  0  0  0  0  0  0  0  0  0
  151.3062  137.7801  154.4902 C   0  0  0  0  0  0  0  0  0  0  0  0
  152.0331  138.9638  154.7961 C   0  0  0  0  0  0  0  0  0  0  0  0
  151.2750  140.0474  154.7698 N   0  0  0  0  0  0  0  0  0  0  0  0
  146.1198  135.0907  153.6401 C   0  0  0  0  0  0  0  0  0  0  0  0
  145.2809  132.5971  154.6505 H   0  0  0  0  0  0  0  0  0  0  0  0
  146.8991  132.9506  155.2509 H   0  0  0  0  0  0  0  0  0  0  0  0
  146.6603  131.6639  154.0759 H   0  0  0  0  0  0  0  0  0  0  0  0
  147.6058  133.6839  152.9923 H   0  0  0  0  0  0  0  0  0  0  0  0
  146.1289  132.2597  151.6192 H   0  0  0  0  0  0  0  0  0  0  0  0
  144.7190  133.1362  152.1708 H   0  0  0  0  0  0  0  0  0  0  0  0
  147.0315  134.2745  150.5267 H   0  0  0  0  0  0  0  0  0  0  0  0
  145.4013  133.9944  149.9632 H   0  0  0  0  0  0  0  0  0  0  0  0
  145.7868  136.3933  150.5148 H   0  0  0  0  0  0  0  0  0  0  0  0
  144.5140  135.7182  151.5144 H   0  0  0  0  0  0  0  0  0  0  0  0
  144.9881  137.6376  152.9591 H   0  0  0  0  0  0  0  0  0  0  0  0
  146.4261  137.6433  153.9521 H   0  0  0  0  0  0  0  0  0  0  0  0
  147.0821  137.9908  151.0757 H   0  0  0  0  0  0  0  0  0  0  0  0
  145.9132  139.1853  151.6156 H   0  0  0  0  0  0  0  0  0  0  0  0
  148.6281  139.3115  152.0986 H   0  0  0  0  0  0  0  0  0  0  0  0
  149.1844  141.2611  153.5699 H   0  0  0  0  0  0  0  0  0  0  0  0
  147.8813  142.0207  155.5352 H   0  0  0  0  0  0  0  0  0  0  0  0
  149.5769  141.8217  155.9507 H   0  0  0  0  0  0  0  0  0  0  0  0
  148.4019  140.6151  156.4599 H   0  0  0  0  0  0  0  0  0  0  0  0
  149.1358  137.6902  154.0071 H   0  0  0  0  0  0  0  0  0  0  0  0
  151.6629  136.7619  154.4410 H   0  0  0  0  0  0  0  0  0  0  0  0
  153.0809  139.0667  155.0372 H   0  0  0  0  0  0  0  0  0  0  0  0
  145.0693  135.1036  153.9360 H   0  0  0  0  0  0  0  0  0  0  0  0
  146.6957  135.3825  154.5176 H   0  0  0  0  0  0  0  0  0  0  0  0
  147.3138  136.0224  152.2917 H   0  0  0  0  0  0  0  0  0  0  0  0
  1  2  1  0  0  0  0
  1 20  1  0  0  0  0
  1 21  1  0  0  0  0
  1 22  1  0  0  0  0
  2 19  1  0  0  0  0
  2  3  1  0  0  0  0
  2 23  1  0  0  0  0
  3  4  1  0  0  0  0
  3 24  1  0  0  0  0
  3 25  1  0  0  0  0
  4  5  1  0  0  0  0
  4 26  1  0  0  0  0
  4 27  1  0  0  0  0
  5  6  1  0  0  0  0
  5 28  1  0  0  0  0
  5 29  1  0  0  0  0
  6  7  1  0  0  0  0
  6 19  1  0  0  0  0
  6 44  1  0  0  0  0
  7  8  1  0  0  0  0
  7 30  1  0  0  0  0
  7 31  1  0  0  0  0
  8  9  1  0  0  0  0
  8 32  1  0  0  0  0
  8 33  1  0  0  0  0
  9 10  1  0  0  0  0
  9 34  1  0  0  0  0
 10 11  2  0  0  0  0
 10 12  1  0  0  0  0
 12 13  1  0  0  0  0
 12 14  1  0  0  0  0
 12 35  1  0  0  0  0
 13 36  1  0  0  0  0
 13 37  1  0  0  0  0
 13 38  1  0  0  0  0
 14 18  1  0  0  0  0
 14 15  1  0  0  0  0
 15 16  2  0  0  0  0
 15 39  1  0  0  0  0
 16 17  1  0  0  0  0
 16 40  1  0  0  0  0
 17 18  2  0  0  0  0
 17 41  1  0  0  0  0
 19 42  1  0  0  0  0
 19 43  1  0  0  0  0
M  CHG  1   6   1
M  END
> <s_m_source_file>
AV-unprocessed.smi

> <i_m_source_file_index>
3338

> <i_lp_mmshare_version>
43012

> <i_f3d_flags>
0

> <s_epik_input>
W0NIM11bQ0BASF0xW0NIMl1bQ0gyXVtDSDJdTihbQ0gyXTEpW0NIMl1bQ0gyXVtOSF1DKD1PKVtDQEhdKFtDSDNdKW4yW2NIXVtjSF1bY0hdbjI=

> <s_epik_cmdline>
J2VwaWtfcHl0aG9uJywgJy1waCcsICc3LjAnLCAnLXRuJywgJzgnLCAnLW1hJywgJzIwMCcsICctbWV0YWxfYmluZGluZycsICctaW1hZScsICc8aW5maWxlLm1hZT4nLCAnLW9tYWUnLCAnPG91dGZpbGUubWFlPic=

> <r_lp_tautomer_probability>
1

> <r_epik_Ionization_Penalty>
0.00225707

> <r_epik_Ionization_Penalty_Charging>
0.00223709

> <r_epik_Ionization_Penalty_Neutral>
1.99775e-05

> <r_epik_State_Penalty>
0.00153978

> <r_epik_Charging_Adjusted_Penalty>
0.00377687

> <i_epik_Tot_Q>
1

> <i_epik_Tot_abs_Q>
1

> <r_epik_Metal_State_Penalty>
-0

> <b_epik_Metal_Only>
0

> <s_lp_Force_Field>
OPLS_2005

> <r_lp_Energy>
20.7823

> <b_lp_Chiralities_Consistent>
1

> <s_lp_Variant>
AV-unprocessed.smi:3338-8

> <Gold.Version>
5.8.1

> <Gold.Id.Protein>
6NUR|6NUR_protein|mol2

> <Gold.PLP.Fitness>
49.0142

> <Gold.PLP.PLP>
-35.6636

> <Gold.PLP.part.hbond>
-2.9547

> <Gold.PLP.part.metal>
0.0000

> <Gold.PLP.part.buried>
-3.5457

> <Gold.PLP.part.nonpolar>
-30.1173

> <Gold.PLP.part.repulsive>
0.2586

> <Gold.PLP.ligand.clash>
0.0000

> <Gold.PLP.ligand.torsion>
0.6115

> <Gold.PLP.Chemscore.Hbond>
4.0000

> <Gold.PLP.Chemscore.CHOScore>
0.8122

> <Gold.PLP.Chemscore.Metal>
0.0000

> <Gold.Chemscore.Hbonds>
donor molecule, donor type, donor heavy atom, donor atom, acceptor molecule, acceptor atom, score
      L1  H     6    44       P1  7948  2.00
      L1  H     9    34       P1  7957  0.98
      P1  H  7989  7998       L1    18  1.00
      L1  C    15    39       P1  7948  0.72

> <Gold.PLP.Chemscore.Internal.Correction>
0.1370

> <Gold.Rescore>
     Score         DG    S(hbond)    S(metal)    S(lipo)     H(rot)  DE(clash)    DE(int)     intcor
     16.37     -18.51       2.73        0.00      71.86       1.76       0.04       2.10       ----

> <Gold.Chemscore.Fitness>
16.3691

> <Gold.Chemscore.DG>
-18.5069

> <Gold.Chemscore.ZeroCoef>
-5.4800

> <Gold.Chemscore.Hbond>
2.7297

> <Gold.Chemscore.Metal>
0.0000

> <Gold.Chemscore.Lipo>
71.8603

> <Gold.Chemscore.Internal_Hbond>
0.0000

> <Gold.Chemscore.DEClash>
0.0398

> <Gold.Chemscore.DEInternal>
2.0981

> <Gold.Chemscore.Rot>
1.7570

> <Gold.Chemscore.Internal.Correction>
   9.000000E+99

> <Gold.Chemscore.Hbonds>
donor molecule, donor type, donor heavy atom, donor atom, acceptor molecule, acceptor atom, score
      L1  H     6    44       P1  7948  1.00
      L1  H     9    34       P1  7957  0.90
      P1  H  7989  7998       L1    18  0.19

> <Gold.Chemscore.Hbond.Weighted>
-9.1171

> <Gold.Chemscore.Metal.Weighted>
-0.0000

> <Gold.Chemscore.Lipo.Weighted>
-8.4077

> <Gold.Chemscore.Internal_Hbond.Weighted>
0.0000

> <Gold.Chemscore.DEClash.Weighted>
0.0398

> <Gold.Chemscore.DEInternal.Weighted>
2.0981

> <Gold.Chemscore.Rot.Weighted>
4.4979

> <Gold.Chemscore.Internal.Correction.Weighted>
   9.000000E+99

> <Gold.Protein.RotatedTorsions>
[ 6907 6896 6895 6894 ] final   -3.01 input  -60.11 | X-H torsion
[ 7974 7965 7964 7962 ] final   10.35 input  175.53 | X-H torsion
[ 8008 7997 7996 7995 ] final  -91.39 input   59.86 | X-H torsion
[ 10167 10162 10161 10158 ] final   24.52 input  -65.29 | X-H torsion
[ 10718 10713 10712 10709 ] final  -69.60 input   66.30 | X-H torsion
[ 10763 10752 10751 10750 ] final  -66.59 input  -60.55 | X-H torsion
[ 11005 11000 10999 10996 ] final   24.19 input  -57.11 | X-H torsion

> <Gold.Protein.ActiveResidues>
 VAL166  LYS551  ARG553  GLY616  TRP617  ASP618  TYR619  PRO620  LYS621  CYS622 
 ASP623  PHE694  ASN695  SER759  ASP760  ASP761  ALA762  ILE779  LEU786  VAL792 
 PHE793  MET794  SER795  GLU796  ALA797  LYS798  CYS799  TRP800  GLU811  SER814 

> <Gold.Protein.RotatedAtoms>
  151.5207  135.1067  159.9877 H   0  0  0  0  0  0  0  0  0  0  0  0  # atno 6907 bound_to 6896
  152.4622  133.7842  159.6877 H   0  0  0  0  0  0  0  0  0  0  0  0  # atno 6908 bound_to 6896
  150.8589  133.7609  159.3024 H   0  0  0  0  0  0  0  0  0  0  0  0  # atno 6909 bound_to 6896
  146.2389  139.9647  142.8454 H   0  0  0  0  0  0  0  0  0  0  0  0  # atno 7974 bound_to 7965
  154.7102  140.0520  157.0542 H   0  0  0  0  0  0  0  0  0  0  0  0  # atno 8008 bound_to 7997
  155.0566  140.3185  155.4655 H   0  0  0  0  0  0  0  0  0  0  0  0  # atno 8009 bound_to 7997
  156.2787  140.2106  156.5692 H   0  0  0  0  0  0  0  0  0  0  0  0  # atno 8010 bound_to 7997
  140.5182  144.0047  150.6404 H   0  0  0  0  0  0  0  0  0  0  0  0  # atno 10167 bound_to 10162
  156.0447  130.4316  150.2172 H   0  0  0  0  0  0  0  0  0  0  0  0  # atno 10718 bound_to 10713
  154.3621  135.6113  153.5696 H   0  0  0  0  0  0  0  0  0  0  0  0  # atno 10763 bound_to 10752
  152.9793  135.5817  154.4621 H   0  0  0  0  0  0  0  0  0  0  0  0  # atno 10764 bound_to 10752
  154.4360  135.2849  155.1858 H   0  0  0  0  0  0  0  0  0  0  0  0  # atno 10765 bound_to 10752
  140.3614  134.2121  155.7672 H   0  0  0  0  0  0  0  0  0  0  0  0  # atno 11005 bound_to 11000
  145.1738  140.9734  143.4306 LP  0  0  0  0  0  0  0  0  0  0  0  0  # atno 17320 bound_to 7965
  145.0004  139.3603  143.6170 LP  0  0  0  0  0  0  0  0  0  0  0  0  # atno 17321 bound_to 7965
  140.3389  143.3032  152.0609 LP  0  0  0  0  0  0  0  0  0  0  0  0  # atno 17342 bound_to 10162
  139.4915  144.6457  151.6784 LP  0  0  0  0  0  0  0  0  0  0  0  0  # atno 17343 bound_to 10162
  157.0263  130.9994  151.3325 LP  0  0  0  0  0  0  0  0  0  0  0  0  # atno 17370 bound_to 10713
  157.5309  130.8058  149.7915 LP  0  0  0  0  0  0  0  0  0  0  0  0  # atno 17371 bound_to 10713
  141.1983  133.8039  157.0590 LP  0  0  0  0  0  0  0  0  0  0  0  0  # atno 17394 bound_to 11000
  140.0623  134.9748  157.1326 LP  0  0  0  0  0  0  0  0  0  0  0  0  # atno 17395 bound_to 11000

$$$$
