AV-unprocessed.smi:2319|AV-procd|sdf|9278|dock6
  -GOLD-   2272012503D 1   1.00000     0.00000
 Structure written by MMmdl.
 46 47  0  0  0  0  0  0  0  0  1 V2000
  152.7818  138.7200  154.7789 C   0  0  0  0  0  0  0  0  0  0  0  0
  151.3757  138.1660  154.5269 C   0  0  0  0  0  0  0  0  0  0  0  0
  150.3144  139.2152  154.5829 C   0  0  0  0  0  0  0  0  0  0  0  0
  150.6577  140.4159  155.1189 O   0  0  0  0  0  0  0  0  0  0  0  0
  149.5431  141.2676  155.0778 N   0  0  0  0  0  0  0  0  0  0  0  0
  148.5575  140.5783  154.5220 C   0  0  0  0  0  0  0  0  0  0  0  0
  147.2366  141.2554  154.2842 C   0  0  0  0  0  0  0  0  0  0  0  0
  149.0014  139.2579  154.2176 C   0  0  0  0  0  0  0  0  0  0  0  0
  148.3019  138.1930  153.5973 N   0  0  0  0  0  0  0  0  0  0  0  0
  147.1442  137.6501  154.0019 C   0  0  0  0  0  0  0  0  0  0  0  0
  146.5125  138.0010  154.9980 O   0  0  0  0  0  0  0  0  0  0  0  0
  146.7694  136.6462  153.1979 N   0  0  0  0  0  0  0  0  0  0  0  0
  145.5875  135.8091  153.3937 C   0  0  1  0  0  0  0  0  0  0  0  0
  144.8168  135.6189  152.1024 C   0  0  0  0  0  0  0  0  0  0  0  0
  144.0480  134.3139  152.3447 C   0  0  0  0  0  0  0  0  0  0  0  0
  142.6654  134.5687  152.9688 C   0  0  0  0  0  0  0  0  0  0  0  0
  143.9286  133.4628  151.0710 C   0  0  0  0  0  0  0  0  0  0  0  0
  144.8183  133.5897  153.3032 O   0  0  0  0  0  0  0  0  0  0  0  0
  145.9131  134.3562  153.8029 C   0  0  0  0  0  0  0  0  0  0  0  0
  147.1867  133.7812  153.1476 C   0  0  0  0  0  0  0  0  0  0  0  0
  145.9583  134.1744  155.3282 C   0  0  0  0  0  0  0  0  0  0  0  0
  153.5269  137.9255  154.7364 H   0  0  0  0  0  0  0  0  0  0  0  0
  152.8491  139.1886  155.7613 H   0  0  0  0  0  0  0  0  0  0  0  0
  153.0503  139.4679  154.0318 H   0  0  0  0  0  0  0  0  0  0  0  0
  151.3478  137.6790  153.5517 H   0  0  0  0  0  0  0  0  0  0  0  0
  151.1598  137.3886  155.2601 H   0  0  0  0  0  0  0  0  0  0  0  0
  146.7654  140.8918  153.3709 H   0  0  0  0  0  0  0  0  0  0  0  0
  147.3536  142.3347  154.1817 H   0  0  0  0  0  0  0  0  0  0  0  0
  146.5506  141.0759  155.1119 H   0  0  0  0  0  0  0  0  0  0  0  0
  148.7795  137.7313  152.8374 H   0  0  0  0  0  0  0  0  0  0  0  0
  147.3540  136.4273  152.4048 H   0  0  0  0  0  0  0  0  0  0  0  0
  144.9151  136.2640  154.1240 H   0  0  0  0  0  0  0  0  0  0  0  0
  144.1672  136.4631  151.8681 H   0  0  0  0  0  0  0  0  0  0  0  0
  145.5104  135.5007  151.2683 H   0  0  0  0  0  0  0  0  0  0  0  0
  142.0244  135.1329  152.2910 H   0  0  0  0  0  0  0  0  0  0  0  0
  142.7437  135.1331  153.8985 H   0  0  0  0  0  0  0  0  0  0  0  0
  142.1596  133.6304  153.1987 H   0  0  0  0  0  0  0  0  0  0  0  0
  143.3629  133.9856  150.2991 H   0  0  0  0  0  0  0  0  0  0  0  0
  143.4216  132.5192  151.2739 H   0  0  0  0  0  0  0  0  0  0  0  0
  144.9108  133.2245  150.6611 H   0  0  0  0  0  0  0  0  0  0  0  0
  148.0857  134.2831  153.5067 H   0  0  0  0  0  0  0  0  0  0  0  0
  147.1612  133.8793  152.0623 H   0  0  0  0  0  0  0  0  0  0  0  0
  147.2957  132.7205  153.3745 H   0  0  0  0  0  0  0  0  0  0  0  0
  146.7800  134.7383  155.7701 H   0  0  0  0  0  0  0  0  0  0  0  0
  146.0955  133.1265  155.5960 H   0  0  0  0  0  0  0  0  0  0  0  0
  145.0331  134.5136  155.7947 H   0  0  0  0  0  0  0  0  0  0  0  0
  1  2  1  0  0  0  0
  1 22  1  0  0  0  0
  1 23  1  0  0  0  0
  1 24  1  0  0  0  0
  2  3  1  0  0  0  0
  2 25  1  0  0  0  0
  2 26  1  0  0  0  0
  3  8  2  0  0  0  0
  3  4  1  0  0  0  0
  4  5  1  0  0  0  0
  5  6  2  0  0  0  0
  6  7  1  0  0  0  0
  6  8  1  0  0  0  0
  7 27  1  0  0  0  0
  7 28  1  0  0  0  0
  7 29  1  0  0  0  0
  8  9  1  0  0  0  0
  9 10  1  0  0  0  0
  9 30  1  0  0  0  0
 10 11  2  0  0  0  0
 10 12  1  0  0  0  0
 12 13  1  0  0  0  0
 12 31  1  0  0  0  0
 13 19  1  0  0  0  0
 13 14  1  0  0  0  0
 13 32  1  0  0  0  0
 14 15  1  0  0  0  0
 14 33  1  0  0  0  0
 14 34  1  0  0  0  0
 15 16  1  0  0  0  0
 15 17  1  0  0  0  0
 15 18  1  0  0  0  0
 16 35  1  0  0  0  0
 16 36  1  0  0  0  0
 16 37  1  0  0  0  0
 17 38  1  0  0  0  0
 17 39  1  0  0  0  0
 17 40  1  0  0  0  0
 18 19  1  0  0  0  0
 19 20  1  0  0  0  0
 19 21  1  0  0  0  0
 20 41  1  0  0  0  0
 20 42  1  0  0  0  0
 20 43  1  0  0  0  0
 21 44  1  0  0  0  0
 21 45  1  0  0  0  0
 21 46  1  0  0  0  0
M  END
> <s_m_source_file>
AV-unprocessed.smi

> <i_m_source_file_index>
2319

> <i_lp_mmshare_version>
43012

> <i_f3d_flags>
0

> <s_epik_input>
W0NIM11bQ0gyXWMxb25jKFtDSDNdKWMxW05IXUMoPU8pW05IXVtDQEBIXShDKE8yKShbQ0gzXSlbQ0gzXSlbQ0gyXUMyKFtDSDNdKVtDSDNd

> <s_epik_cmdline>
J2VwaWtfcHl0aG9uJywgJy1waCcsICc3LjAnLCAnLXRuJywgJzgnLCAnLW1hJywgJzIwMCcsICctbWV0YWxfYmluZGluZycsICctaW1hZScsICc8aW5maWxlLm1hZT4nLCAnLW9tYWUnLCAnPG91dGZpbGUubWFlPic=

> <r_lp_tautomer_probability>
1

> <r_epik_Ionization_Penalty>
3.17207e-05

> <r_epik_Ionization_Penalty_Charging>
0

> <r_epik_Ionization_Penalty_Neutral>
3.17207e-05

> <r_epik_State_Penalty>
-0

> <r_epik_Charging_Adjusted_Penalty>
0

> <i_epik_Tot_Q>
0

> <i_epik_Tot_abs_Q>
0

> <r_epik_Metal_State_Penalty>
-0

> <b_epik_Metal_Only>
0

> <s_lp_Force_Field>
OPLS_2005

> <r_lp_Energy>
19.7342

> <b_lp_Chiralities_Consistent>
1

> <s_lp_Variant>
AV-unprocessed.smi:2319-2

> <Gold.Version>
5.8.1

> <Gold.Id.Protein>
6NUR|6NUR_protein|mol2

> <Gold.PLP.Fitness>
39.8156

> <Gold.PLP.PLP>
-33.1682

> <Gold.PLP.part.hbond>
-4.8831

> <Gold.PLP.part.metal>
0.0000

> <Gold.PLP.part.buried>
-1.2134

> <Gold.PLP.part.nonpolar>
-26.9037

> <Gold.PLP.part.repulsive>
0.4664

> <Gold.PLP.ligand.clash>
0.0000

> <Gold.PLP.ligand.torsion>
0.7943

> <Gold.PLP.Chemscore.Hbond>
2.6540

> <Gold.PLP.Chemscore.CHOScore>
0.0000

> <Gold.PLP.Chemscore.Metal>
0.0000

> <Gold.Chemscore.Hbonds>
donor molecule, donor type, donor heavy atom, donor atom, acceptor molecule, acceptor atom, score
      L1  H     9    30       P1  7948  0.96
      L1  H    12    31       P1  7948  0.93
      P1  H  7989  7998       L1     4  0.55

> <Gold.PLP.Chemscore.Internal.Correction>
0.2740

> <Gold.Rescore>
     Score         DG    S(hbond)    S(metal)    S(lipo)     H(rot)  DE(clash)    DE(int)     intcor
     16.43     -17.46       1.86        0.00      74.69       1.16       0.05       0.97       ----

> <Gold.Chemscore.Fitness>
16.4346

> <Gold.Chemscore.DG>
-17.4583

> <Gold.Chemscore.ZeroCoef>
-5.4800

> <Gold.Chemscore.Hbond>
1.8583

> <Gold.Chemscore.Metal>
0.0000

> <Gold.Chemscore.Lipo>
74.6900

> <Gold.Chemscore.Internal_Hbond>
0.0000

> <Gold.Chemscore.DEClash>
0.0540

> <Gold.Chemscore.DEInternal>
0.9697

> <Gold.Chemscore.Rot>
1.1590

> <Gold.Chemscore.Internal.Correction>
   9.000000E+99

> <Gold.Chemscore.Hbonds>
donor molecule, donor type, donor heavy atom, donor atom, acceptor molecule, acceptor atom, score
      L1  H     9    30       P1  7948  0.92
      L1  H    12    31       P1  7948  0.90
      P1  H  7989  7998       L1     4  0.01

> <Gold.Chemscore.Hbond.Weighted>
-6.2067

> <Gold.Chemscore.Metal.Weighted>
-0.0000

> <Gold.Chemscore.Lipo.Weighted>
-8.7387

> <Gold.Chemscore.Internal_Hbond.Weighted>
0.0000

> <Gold.Chemscore.DEClash.Weighted>
0.0540

> <Gold.Chemscore.DEInternal.Weighted>
0.9697

> <Gold.Chemscore.Rot.Weighted>
2.9671

> <Gold.Chemscore.Internal.Correction.Weighted>
   9.000000E+99

> <Gold.Protein.RotatedTorsions>
[ 6907 6896 6895 6894 ] final   40.98 input  -60.11 | X-H torsion
[ 7974 7965 7964 7962 ] final  178.62 input  175.53 | X-H torsion
[ 8008 7997 7996 7995 ] final  -85.33 input   59.86 | X-H torsion
[ 10167 10162 10161 10158 ] final  165.49 input  -65.29 | X-H torsion
[ 10718 10713 10712 10709 ] final  179.16 input   66.30 | X-H torsion
[ 10763 10752 10751 10750 ] final  -53.75 input  -60.55 | X-H torsion
[ 11005 11000 10999 10996 ] final   58.61 input  -57.11 | X-H torsion

> <Gold.Protein.ActiveResidues>
 VAL166  LYS551  ARG553  GLY616  TRP617  ASP618  TYR619  PRO620  LYS621  CYS622 
 ASP623  PHE694  ASN695  SER759  ASP760  ASP761  ALA762  ILE779  LEU786  VAL792 
 PHE793  MET794  SER795  GLU796  ALA797  LYS798  CYS799  TRP800  GLU811  SER814 

> <Gold.Protein.RotatedAtoms>
  152.1894  134.8685  160.0518 H   0  0  0  0  0  0  0  0  0  0  0  0  # atno 6907 bound_to 6896
  151.9579  133.3681  159.4032 H   0  0  0  0  0  0  0  0  0  0  0  0  # atno 6908 bound_to 6896
  150.6932  134.4195  159.5242 H   0  0  0  0  0  0  0  0  0  0  0  0  # atno 6909 bound_to 6896
  144.7154  140.0425  143.6437 H   0  0  0  0  0  0  0  0  0  0  0  0  # atno 7974 bound_to 7965
  154.6395  140.0593  156.9829 H   0  0  0  0  0  0  0  0  0  0  0  0  # atno 8008 bound_to 7997
  155.1539  140.3276  155.4407 H   0  0  0  0  0  0  0  0  0  0  0  0  # atno 8009 bound_to 7997
  156.2524  140.1942  156.6649 H   0  0  0  0  0  0  0  0  0  0  0  0  # atno 8010 bound_to 7997
  139.4907  144.4127  151.9281 H   0  0  0  0  0  0  0  0  0  0  0  0  # atno 10167 bound_to 10162
  156.8798  130.9812  151.3063 H   0  0  0  0  0  0  0  0  0  0  0  0  # atno 10718 bound_to 10713
  154.1638  135.6470  153.4992 H   0  0  0  0  0  0  0  0  0  0  0  0  # atno 10763 bound_to 10752
  153.0103  135.5367  154.6683 H   0  0  0  0  0  0  0  0  0  0  0  0  # atno 10764 bound_to 10752
  154.6004  135.2943  155.0513 H   0  0  0  0  0  0  0  0  0  0  0  0  # atno 10765 bound_to 10752
  140.0365  134.5936  155.9437 H   0  0  0  0  0  0  0  0  0  0  0  0  # atno 11005 bound_to 11000
  146.0012  139.3092  143.0927 LP  0  0  0  0  0  0  0  0  0  0  0  0  # atno 17320 bound_to 7965
  145.8791  140.9373  143.0610 LP  0  0  0  0  0  0  0  0  0  0  0  0  # atno 17321 bound_to 7965
  140.3568  144.3021  150.5940 LP  0  0  0  0  0  0  0  0  0  0  0  0  # atno 17342 bound_to 10162
  140.5437  143.2218  151.8042 LP  0  0  0  0  0  0  0  0  0  0  0  0  # atno 17343 bound_to 10162
  157.6147  130.8609  149.9008 LP  0  0  0  0  0  0  0  0  0  0  0  0  # atno 17370 bound_to 10713
  156.0683  130.3689  150.0831 LP  0  0  0  0  0  0  0  0  0  0  0  0  # atno 17371 bound_to 10713
  141.1860  133.6556  156.5221 LP  0  0  0  0  0  0  0  0  0  0  0  0  # atno 17394 bound_to 11000
  140.4139  134.7247  157.4852 LP  0  0  0  0  0  0  0  0  0  0  0  0  # atno 17395 bound_to 11000

$$$$
