AV-unprocessed.smi:2265|AV-procd|sdf|9143|dock3
  -GOLD-   2272012353D 1   1.00000     0.00000
 Structure written by MMmdl.
 36 37  0  0  0  0  0  0  0  0  1 V2000
  146.5020  137.9446  151.4725 C   0  0  0  0  0  0  0  0  0  0  0  0
  146.5714  139.2043  152.3425 C   0  0  0  0  0  0  0  0  0  0  0  0
  147.6226  139.0934  153.4551 C   0  0  0  0  0  0  0  0  0  0  0  0
  147.6902  140.3398  154.3147 C   0  0  2  0  0  0  0  0  0  0  0  0
  147.1814  141.6559  153.7892 C   0  0  0  0  0  0  0  0  0  0  0  0
  148.6679  141.4501  153.9964 C   0  0  1  0  0  0  0  0  0  0  0  0
  149.2674  142.1661  155.0816 N   0  0  0  0  0  0  0  0  0  0  0  0
  150.0967  141.6833  156.0242 C   0  0  0  0  0  0  0  0  0  0  0  0
  150.4576  140.5068  156.0020 O   0  0  0  0  0  0  0  0  0  0  0  0
  150.5008  142.6081  156.9232 N   0  0  0  0  0  0  0  0  0  0  0  0
  151.3755  142.4454  158.0043 C   0  0  0  0  0  0  0  0  0  0  0  0
  152.2267  141.4619  158.0941 N   0  0  0  0  0  0  0  0  0  0  0  0
  153.0797  141.3278  159.1897 C   0  0  0  0  0  0  0  0  0  0  0  0
  153.0497  142.2150  160.2004 C   0  0  0  0  0  0  0  0  0  0  0  0
  152.1583  143.2971  160.1765 N   0  0  0  0  0  0  0  0  0  0  0  0
  152.1670  144.2337  161.3006 C   0  0  0  0  0  0  0  0  0  0  0  0
  151.3052  143.4791  159.1320 C   0  0  0  0  0  0  0  0  0  0  0  0
  150.5069  144.4159  159.0645 O   0  0  0  0  0  0  0  0  0  0  0  0
  145.7470  138.0515  150.6934 H   0  0  0  0  0  0  0  0  0  0  0  0
  146.2444  137.0682  152.0679 H   0  0  0  0  0  0  0  0  0  0  0  0
  147.4579  137.7502  150.9849 H   0  0  0  0  0  0  0  0  0  0  0  0
  146.7962  140.0647  151.7110 H   0  0  0  0  0  0  0  0  0  0  0  0
  145.5914  139.3918  152.7826 H   0  0  0  0  0  0  0  0  0  0  0  0
  147.3949  138.2435  154.0991 H   0  0  0  0  0  0  0  0  0  0  0  0
  148.6051  138.9029  153.0213 H   0  0  0  0  0  0  0  0  0  0  0  0
  147.5145  140.1490  155.3721 H   0  0  0  0  0  0  0  0  0  0  0  0
  146.8184  141.6861  152.7636 H   0  0  0  0  0  0  0  0  0  0  0  0
  146.6509  142.3001  154.4878 H   0  0  0  0  0  0  0  0  0  0  0  0
  149.2463  141.3548  153.0784 H   0  0  0  0  0  0  0  0  0  0  0  0
  149.1119  143.1639  155.0885 H   0  0  0  0  0  0  0  0  0  0  0  0
  150.1379  143.5390  156.7775 H   0  0  0  0  0  0  0  0  0  0  0  0
  153.7545  140.4845  159.1796 H   0  0  0  0  0  0  0  0  0  0  0  0
  153.6902  142.1531  161.0679 H   0  0  0  0  0  0  0  0  0  0  0  0
  151.1754  144.3046  161.7501 H   0  0  0  0  0  0  0  0  0  0  0  0
  152.4602  145.2290  160.9641 H   0  0  0  0  0  0  0  0  0  0  0  0
  152.8603  143.9352  162.0874 H   0  0  0  0  0  0  0  0  0  0  0  0
  1  2  1  0  0  0  0
  1 19  1  0  0  0  0
  1 20  1  0  0  0  0
  1 21  1  0  0  0  0
  2  3  1  0  0  0  0
  2 22  1  0  0  0  0
  2 23  1  0  0  0  0
  3  4  1  0  0  0  0
  3 24  1  0  0  0  0
  3 25  1  0  0  0  0
  4  6  1  0  0  0  0
  4  5  1  0  0  0  0
  4 26  1  0  0  0  0
  5  6  1  0  0  0  0
  5 27  1  0  0  0  0
  5 28  1  0  0  0  0
  6  7  1  0  0  0  0
  6 29  1  0  0  0  0
  7  8  1  0  0  0  0
  7 30  1  0  0  0  0
  8  9  2  0  0  0  0
  8 10  1  0  0  0  0
 10 11  1  0  0  0  0
 10 31  1  0  0  0  0
 11 17  1  0  0  0  0
 11 12  2  0  0  0  0
 12 13  1  0  0  0  0
 13 14  2  0  0  0  0
 13 32  1  0  0  0  0
 14 15  1  0  0  0  0
 14 33  1  0  0  0  0
 15 16  1  0  0  0  0
 15 17  1  0  0  0  0
 16 34  1  0  0  0  0
 16 35  1  0  0  0  0
 16 36  1  0  0  0  0
 17 18  2  0  0  0  0
M  END
> <s_m_source_file>
AV-unprocessed.smi

> <i_m_source_file_index>
2265

> <i_lp_mmshare_version>
43012

> <i_f3d_flags>
0

> <s_epik_input>
W0NIM11bQ0gyXVtDSDJdW0NAQEhdMVtDSDJdW0NASF0xW05IXUMoPU8pW05IXWMybltjSF1bY0hdbihbQ0gzXSljMj1P

> <s_epik_cmdline>
J2VwaWtfcHl0aG9uJywgJy1waCcsICc3LjAnLCAnLXRuJywgJzgnLCAnLW1hJywgJzIwMCcsICctbWV0YWxfYmluZGluZycsICctaW1hZScsICc8aW5maWxlLm1hZT4nLCAnLW9tYWUnLCAnPG91dGZpbGUubWFlPic=

> <r_lp_tautomer_probability>
1

> <r_epik_Ionization_Penalty>
0.000728552

> <r_epik_Ionization_Penalty_Charging>
1.67739e-07

> <r_epik_Ionization_Penalty_Neutral>
0.000728385

> <r_epik_State_Penalty>
-0

> <r_epik_Charging_Adjusted_Penalty>
1.67739e-07

> <i_epik_Tot_Q>
0

> <i_epik_Tot_abs_Q>
0

> <r_epik_Metal_State_Penalty>
-0

> <b_epik_Metal_Only>
0

> <s_lp_Force_Field>
OPLS_2005

> <r_lp_Energy>
43.0048

> <b_lp_Chiralities_Consistent>
1

> <s_lp_Variant>
AV-unprocessed.smi:2265-1

> <Gold.Version>
5.8.1

> <Gold.Id.Protein>
6NUR|6NUR_protein|mol2

> <Gold.PLP.Fitness>
42.2765

> <Gold.PLP.PLP>
-37.2260

> <Gold.PLP.part.hbond>
-2.0000

> <Gold.PLP.part.metal>
0.0000

> <Gold.PLP.part.buried>
0.4628

> <Gold.PLP.part.nonpolar>
-35.6913

> <Gold.PLP.part.repulsive>
0.4222

> <Gold.PLP.ligand.clash>
0.0000

> <Gold.PLP.ligand.torsion>
0.6490

> <Gold.PLP.Chemscore.Hbond>
1.9204

> <Gold.PLP.Chemscore.CHOScore>
0.0000

> <Gold.PLP.Chemscore.Metal>
0.0000

> <Gold.Chemscore.Hbonds>
donor molecule, donor type, donor heavy atom, donor atom, acceptor molecule, acceptor atom, score
      L1  H     7    30       P1  8028  1.00
      L1  H    10    31       P1  8028  0.92

> <Gold.PLP.Chemscore.Internal.Correction>
0.5872

> <Gold.Rescore>
     Score         DG    S(hbond)    S(metal)    S(lipo)     H(rot)  DE(clash)    DE(int)     intcor
     14.62     -17.21       1.92        0.00      77.48       1.46       0.69       1.90       ----

> <Gold.Chemscore.Fitness>
14.6214

> <Gold.Chemscore.DG>
-17.2145

> <Gold.Chemscore.ZeroCoef>
-5.4800

> <Gold.Chemscore.Hbond>
1.9186

> <Gold.Chemscore.Metal>
0.0000

> <Gold.Chemscore.Lipo>
77.4801

> <Gold.Chemscore.Internal_Hbond>
0.0000

> <Gold.Chemscore.DEClash>
0.6935

> <Gold.Chemscore.DEInternal>
1.8996

> <Gold.Chemscore.Rot>
1.4604

> <Gold.Chemscore.Internal.Correction>
   9.000000E+99

> <Gold.Chemscore.Hbonds>
donor molecule, donor type, donor heavy atom, donor atom, acceptor molecule, acceptor atom, score
      L1  H     7    30       P1  8028  1.00
      L1  H    10    31       P1  8028  0.83

> <Gold.Chemscore.Hbond.Weighted>
-6.4081

> <Gold.Chemscore.Metal.Weighted>
-0.0000

> <Gold.Chemscore.Lipo.Weighted>
-9.0652

> <Gold.Chemscore.Internal_Hbond.Weighted>
0.0000

> <Gold.Chemscore.DEClash.Weighted>
0.6935

> <Gold.Chemscore.DEInternal.Weighted>
1.8996

> <Gold.Chemscore.Rot.Weighted>
3.7387

> <Gold.Chemscore.Internal.Correction.Weighted>
   9.000000E+99

> <Gold.Protein.RotatedTorsions>
[ 6907 6896 6895 6894 ] final  131.64 input  -60.11 | X-H torsion
[ 7974 7965 7964 7962 ] final  -95.51 input  175.53 | X-H torsion
[ 8008 7997 7996 7995 ] final   50.19 input   59.86 | X-H torsion
[ 10167 10162 10161 10158 ] final  -84.84 input  -65.29 | X-H torsion
[ 10718 10713 10712 10709 ] final   87.93 input   66.30 | X-H torsion
[ 10763 10752 10751 10750 ] final -170.11 input  -60.55 | X-H torsion
[ 11005 11000 10999 10996 ] final -150.69 input  -57.11 | X-H torsion

> <Gold.Protein.ActiveResidues>
 VAL166  LYS551  ARG553  GLY616  TRP617  ASP618  TYR619  PRO620  LYS621  CYS622 
 ASP623  PHE694  ASN695  SER759  ASP760  ASP761  ALA762  ILE779  LEU786  VAL792 
 PHE793  MET794  SER795  GLU796  ALA797  LYS798  CYS799  TRP800  GLU811  SER814 

> <Gold.Protein.RotatedAtoms>
  152.3405  133.6061  159.5872 H   0  0  0  0  0  0  0  0  0  0  0  0  # atno 6907 bound_to 6896
  150.7476  133.9729  159.3560 H   0  0  0  0  0  0  0  0  0  0  0  0  # atno 6908 bound_to 6896
  151.7594  135.0814  160.0394 H   0  0  0  0  0  0  0  0  0  0  0  0  # atno 6909 bound_to 6896
  145.3590  140.9489  143.2511 H   0  0  0  0  0  0  0  0  0  0  0  0  # atno 7974 bound_to 7965
  155.4146  140.3444  155.4266 H   0  0  0  0  0  0  0  0  0  0  0  0  # atno 8008 bound_to 7997
  156.1429  140.1547  156.8924 H   0  0  0  0  0  0  0  0  0  0  0  0  # atno 8009 bound_to 7997
  154.4986  140.0821  156.7730 H   0  0  0  0  0  0  0  0  0  0  0  0  # atno 8010 bound_to 7997
  140.4094  143.2629  151.9038 H   0  0  0  0  0  0  0  0  0  0  0  0  # atno 10167 bound_to 10162
  157.6945  131.0275  150.3197 H   0  0  0  0  0  0  0  0  0  0  0  0  # atno 10718 bound_to 10713
  154.6451  135.2904  155.0056 H   0  0  0  0  0  0  0  0  0  0  0  0  # atno 10763 bound_to 10752
  154.1169  135.6554  153.4899 H   0  0  0  0  0  0  0  0  0  0  0  0  # atno 10764 bound_to 10752
  153.0346  135.5278  154.7335 H   0  0  0  0  0  0  0  0  0  0  0  0  # atno 10765 bound_to 10752
  140.7375  134.3552  157.5154 H   0  0  0  0  0  0  0  0  0  0  0  0  # atno 11005 bound_to 11000
  144.8660  139.5107  143.6790 LP  0  0  0  0  0  0  0  0  0  0  0  0  # atno 17320 bound_to 7965
  146.2935  139.7209  142.9143 LP  0  0  0  0  0  0  0  0  0  0  0  0  # atno 17321 bound_to 7965
  139.4783  144.5553  151.8324 LP  0  0  0  0  0  0  0  0  0  0  0  0  # atno 17342 bound_to 10162
  140.4654  144.1662  150.5911 LP  0  0  0  0  0  0  0  0  0  0  0  0  # atno 17343 bound_to 10162
  156.3686  130.3859  149.7193 LP  0  0  0  0  0  0  0  0  0  0  0  0  # atno 17370 bound_to 10713
  156.4615  130.7954  151.2974 LP  0  0  0  0  0  0  0  0  0  0  0  0  # atno 17371 bound_to 10713
  139.8813  134.9059  156.2910 LP  0  0  0  0  0  0  0  0  0  0  0  0  # atno 17394 bound_to 11000
  140.9866  133.7234  156.0751 LP  0  0  0  0  0  0  0  0  0  0  0  0  # atno 17395 bound_to 11000

$$$$
