AV-unprocessed.smi:1695|AV-procd|sdf|6790|dock10
  -GOLD-   22720 7553D 1   1.00000     0.00000
 Structure written by MMmdl.
 51 53  0  0  0  0  0  0  0  0  2 V2000
  152.3295  143.4706  161.0979 C   0  0  0  0  0  0  0  0  0  0  0  0
  151.9813  142.7649  159.7993 C   0  0  0  0  0  0  0  0  0  0  0  0
  152.5716  141.5119  159.5186 C   0  0  0  0  0  0  0  0  0  0  0  0
  152.2742  140.8232  158.3224 C   0  0  0  0  0  0  0  0  0  0  0  0
  152.7293  139.6045  157.8493 N   0  0  0  0  0  0  0  0  0  0  0  0
  152.0910  139.5122  156.6866 C   0  0  0  0  0  0  0  0  0  0  0  0
  151.2800  140.5327  156.3462 N   0  0  0  0  0  0  0  0  0  0  0  0
  150.4897  140.6603  155.1352 C   0  0  0  0  0  0  0  0  0  0  0  0
  149.5891  139.4345  154.8909 C   0  0  1  0  0  0  0  0  0  0  0  0
  148.7365  139.6930  153.7916 O   0  0  0  0  0  0  0  0  0  0  0  0
  150.4165  138.1700  154.5881 C   0  0  0  0  0  0  0  0  0  0  0  0
  149.6132  136.9240  154.6859 N   0  3  1  0  0  0  0  0  0  0  0  0
  150.4615  135.7247  154.9046 C   0  0  0  0  0  0  0  0  0  0  0  0
  149.6267  134.4306  154.8488 C   0  0  0  0  0  0  0  0  0  0  0  0
  148.4266  134.4356  155.8192 C   0  0  1  0  0  0  0  0  0  0  0  0
  148.8400  134.1789  157.2806 C   0  0  0  0  0  0  0  0  0  0  0  0
  148.3567  133.0779  157.8614 N   0  0  0  0  0  0  0  0  0  0  0  0
  149.5806  134.9542  157.8814 O   0  0  0  0  0  0  0  0  0  0  0  0
  147.6293  135.7459  155.6443 C   0  0  0  0  0  0  0  0  0  0  0  0
  148.5129  137.0077  155.6824 C   0  0  0  0  0  0  0  0  0  0  0  0
  151.3646  141.4282  157.4065 C   0  0  0  0  0  0  0  0  0  0  0  0
  150.7701  142.6738  157.6746 C   0  0  0  0  0  0  0  0  0  0  0  0
  151.0770  143.3476  158.8754 C   0  0  0  0  0  0  0  0  0  0  0  0
  150.4298  144.6920  159.1574 C   0  0  0  0  0  0  0  0  0  0  0  0
  153.0300  142.8852  161.6940 H   0  0  0  0  0  0  0  0  0  0  0  0
  151.4340  143.6313  161.6982 H   0  0  0  0  0  0  0  0  0  0  0  0
  152.7896  144.4380  160.8952 H   0  0  0  0  0  0  0  0  0  0  0  0
  153.2599  141.0673  160.2223 H   0  0  0  0  0  0  0  0  0  0  0  0
  152.2252  138.6558  156.0419 H   0  0  0  0  0  0  0  0  0  0  0  0
  149.8904  141.5698  155.2025 H   0  0  0  0  0  0  0  0  0  0  0  0
  151.1740  140.7990  154.2972 H   0  0  0  0  0  0  0  0  0  0  0  0
  148.9680  139.2811  155.7728 H   0  0  0  0  0  0  0  0  0  0  0  0
  149.2501  139.6557  152.9985 H   0  0  0  0  0  0  0  0  0  0  0  0
  150.8292  138.2645  153.5822 H   0  0  0  0  0  0  0  0  0  0  0  0
  151.2730  138.1000  155.2606 H   0  0  0  0  0  0  0  0  0  0  0  0
  151.2295  135.6769  154.1314 H   0  0  0  0  0  0  0  0  0  0  0  0
  150.9871  135.8130  155.8559 H   0  0  0  0  0  0  0  0  0  0  0  0
  149.2558  134.2943  153.8319 H   0  0  0  0  0  0  0  0  0  0  0  0
  150.2694  133.5715  155.0464 H   0  0  0  0  0  0  0  0  0  0  0  0
  147.7704  133.6131  155.5286 H   0  0  0  0  0  0  0  0  0  0  0  0
  148.5961  132.8627  158.8187 H   0  0  0  0  0  0  0  0  0  0  0  0
  147.7501  132.4613  157.3398 H   0  0  0  0  0  0  0  0  0  0  0  0
  147.1037  135.7127  154.6890 H   0  0  0  0  0  0  0  0  0  0  0  0
  146.8520  135.8197  156.4066 H   0  0  0  0  0  0  0  0  0  0  0  0
  148.9292  137.1612  156.6785 H   0  0  0  0  0  0  0  0  0  0  0  0
  147.8844  137.8735  155.4787 H   0  0  0  0  0  0  0  0  0  0  0  0
  150.0828  143.1063  156.9626 H   0  0  0  0  0  0  0  0  0  0  0  0
  149.7464  144.9808  158.3583 H   0  0  0  0  0  0  0  0  0  0  0  0
  151.1892  145.4693  159.2468 H   0  0  0  0  0  0  0  0  0  0  0  0
  149.8604  144.6551  160.0862 H   0  0  0  0  0  0  0  0  0  0  0  0
  149.1827  136.7997  153.7803 H   0  0  0  0  0  0  0  0  0  0  0  0
  1  2  1  0  0  0  0
  1 25  1  0  0  0  0
  1 26  1  0  0  0  0
  1 27  1  0  0  0  0
  2 23  1  0  0  0  0
  2  3  2  0  0  0  0
  3  4  1  0  0  0  0
  3 28  1  0  0  0  0
  4 21  2  0  0  0  0
  4  5  1  0  0  0  0
  5  6  2  0  0  0  0
  6  7  1  0  0  0  0
  6 29  1  0  0  0  0
  7  8  1  0  0  0  0
  7 21  1  0  0  0  0
  8  9  1  0  0  0  0
  8 30  1  0  0  0  0
  8 31  1  0  0  0  0
  9 10  1  0  0  0  0
  9 11  1  0  0  0  0
  9 32  1  0  0  0  0
 10 33  1  0  0  0  0
 11 12  1  0  0  0  0
 11 34  1  0  0  0  0
 11 35  1  0  0  0  0
 12 20  1  0  0  0  0
 12 13  1  0  0  0  0
 12 51  1  0  0  0  0
 13 14  1  0  0  0  0
 13 36  1  0  0  0  0
 13 37  1  0  0  0  0
 14 15  1  0  0  0  0
 14 38  1  0  0  0  0
 14 39  1  0  0  0  0
 15 16  1  0  0  0  0
 15 19  1  0  0  0  0
 15 40  1  0  0  0  0
 16 17  1  0  0  0  0
 16 18  2  0  0  0  0
 17 41  1  0  0  0  0
 17 42  1  0  0  0  0
 19 20  1  0  0  0  0
 19 43  1  0  0  0  0
 19 44  1  0  0  0  0
 20 45  1  0  0  0  0
 20 46  1  0  0  0  0
 21 22  1  0  0  0  0
 22 23  2  0  0  0  0
 22 47  1  0  0  0  0
 23 24  1  0  0  0  0
 24 48  1  0  0  0  0
 24 49  1  0  0  0  0
 24 50  1  0  0  0  0
M  CHG  1  12   1
M  END
> <s_m_source_file>
AV-unprocessed.smi

> <i_m_source_file_index>
1695

> <i_lp_mmshare_version>
43012

> <i_f3d_flags>
0

> <s_epik_input>
W0NIM11jKFtjSF0xKWMoW0NIM10pW2NIXWMoYzEyKW4oW2NIXW4yKVtDSDJdW0NASF0oW09IXSlbQ0gyXU4zW0NIMl1bQ0gyXVtDSF0oQyg9TylbTkgyXSlbQ0gyXVtDSDJdMw==

> <s_epik_cmdline>
J2VwaWtfcHl0aG9uJywgJy1waCcsICc3LjAnLCAnLXRuJywgJzgnLCAnLW1hJywgJzIwMCcsICctbWV0YWxfYmluZGluZycsICctaW1hZScsICc8aW5maWxlLm1hZT4nLCAnLW9tYWUnLCAnPG91dGZpbGUubWFlPic=

> <r_epik_Ionization_Penalty>
0.113899

> <r_epik_Ionization_Penalty_Charging>
0.0258844

> <r_epik_Ionization_Penalty_Neutral>
0.0880147

> <r_epik_State_Penalty>
0.0974403

> <r_epik_Charging_Adjusted_Penalty>
0.123325

> <i_epik_Tot_Q>
1

> <i_epik_Tot_abs_Q>
1

> <r_epik_Metal_State_Penalty>
0.0851148

> <b_epik_Metal_Only>
0

> <s_lp_Force_Field>
OPLS_2005

> <r_lp_Energy>
15.764

> <b_lp_Chiralities_Consistent>
1

> <s_lp_Variant>
AV-unprocessed.smi:1695-2

> <Gold.Version>
5.8.1

> <Gold.Id.Protein>
6NUR|6NUR_protein|mol2

> <Gold.PLP.Fitness>
54.5887

> <Gold.PLP.PLP>
-40.5894

> <Gold.PLP.part.hbond>
-4.0000

> <Gold.PLP.part.metal>
0.0000

> <Gold.PLP.part.buried>
-3.2828

> <Gold.PLP.part.nonpolar>
-33.8898

> <Gold.PLP.part.repulsive>
0.0855

> <Gold.PLP.ligand.clash>
0.0000

> <Gold.PLP.ligand.torsion>
0.4611

> <Gold.PLP.Chemscore.Hbond>
4.9440

> <Gold.PLP.Chemscore.CHOScore>
0.0000

> <Gold.PLP.Chemscore.Metal>
0.0000

> <Gold.Chemscore.Hbonds>
donor molecule, donor type, donor heavy atom, donor atom, acceptor molecule, acceptor atom, score
      L1  H    10    33       P1  7957  1.00
      L1  H    12    51       P1  7948  2.00
      P1  H  6896  6907       L1    18  1.00
      P1  H  7997  8010       L1     5  0.68

> <Gold.PLP.Chemscore.Internal.Correction>
0.0895

> <Gold.Rescore>
     Score         DG    S(hbond)    S(metal)    S(lipo)     H(rot)  DE(clash)    DE(int)     intcor
     19.21     -20.93       2.95        0.00     110.08       2.85       0.09       1.63       ----

> <Gold.Chemscore.Fitness>
19.2078

> <Gold.Chemscore.DG>
-20.9258

> <Gold.Chemscore.ZeroCoef>
-5.4800

> <Gold.Chemscore.Hbond>
2.9499

> <Gold.Chemscore.Metal>
0.0000

> <Gold.Chemscore.Lipo>
110.0842

> <Gold.Chemscore.Internal_Hbond>
0.0000

> <Gold.Chemscore.DEClash>
0.0901

> <Gold.Chemscore.DEInternal>
1.6279

> <Gold.Chemscore.Rot>
2.8464

> <Gold.Chemscore.Internal.Correction>
   9.000000E+99

> <Gold.Chemscore.Hbonds>
donor molecule, donor type, donor heavy atom, donor atom, acceptor molecule, acceptor atom, score
      L1  H    10    33       P1  7957  0.97
      L1  H    12    51       P1  7948  0.95
      P1  H  6896  6907       L1    18  0.86
      P1  H  7997  8010       L1     5  0.04

> <Gold.Chemscore.Hbond.Weighted>
-9.8527

> <Gold.Chemscore.Metal.Weighted>
-0.0000

> <Gold.Chemscore.Lipo.Weighted>
-12.8798

> <Gold.Chemscore.Internal_Hbond.Weighted>
0.0000

> <Gold.Chemscore.DEClash.Weighted>
0.0901

> <Gold.Chemscore.DEInternal.Weighted>
1.6279

> <Gold.Chemscore.Rot.Weighted>
7.2867

> <Gold.Chemscore.Internal.Correction.Weighted>
   9.000000E+99

> <Gold.Protein.RotatedTorsions>
[ 6907 6896 6895 6894 ] final  -96.92 input  -60.11 | X-H torsion
[ 7974 7965 7964 7962 ] final   46.74 input  175.53 | X-H torsion
[ 8008 7997 7996 7995 ] final   31.47 input   59.86 | X-H torsion
[ 10167 10162 10161 10158 ] final  161.83 input  -65.29 | X-H torsion
[ 10718 10713 10712 10709 ] final -111.01 input   66.30 | X-H torsion
[ 10763 10752 10751 10750 ] final -158.48 input  -60.55 | X-H torsion
[ 11005 11000 10999 10996 ] final  100.75 input  -57.11 | X-H torsion

> <Gold.Protein.ActiveResidues>
 VAL166  LYS551  ARG553  GLY616  TRP617  ASP618  TYR619  PRO620  LYS621  CYS622 
 ASP623  PHE694  ASN695  SER759  ASP760  ASP761  ALA762  ILE779  LEU786  VAL792 
 PHE793  MET794  SER795  GLU796  ALA797  LYS798  CYS799  TRP800  GLU811  SER814 

> <Gold.Protein.RotatedAtoms>
  150.7002  134.1428  159.4111 H   0  0  0  0  0  0  0  0  0  0  0  0  # atno 6907 bound_to 6896
  151.9412  135.0210  160.0545 H   0  0  0  0  0  0  0  0  0  0  0  0  # atno 6908 bound_to 6896
  152.2092  133.4863  159.5137 H   0  0  0  0  0  0  0  0  0  0  0  0  # atno 6909 bound_to 6896
  146.0362  139.4823  142.9807 H   0  0  0  0  0  0  0  0  0  0  0  0  # atno 7974 bound_to 7965
  155.1070  140.3235  155.4532 H   0  0  0  0  0  0  0  0  0  0  0  0  # atno 8008 bound_to 7997
  156.2701  140.2051  156.6142 H   0  0  0  0  0  0  0  0  0  0  0  0  # atno 8009 bound_to 7997
  154.6785  140.0529  157.0228 H   0  0  0  0  0  0  0  0  0  0  0  0  # atno 8010 bound_to 7997
  139.4853  144.4498  151.8845 H   0  0  0  0  0  0  0  0  0  0  0  0  # atno 10167 bound_to 10162
  156.0623  130.5845  150.8315 H   0  0  0  0  0  0  0  0  0  0  0  0  # atno 10718 bound_to 10713
  154.7553  135.3103  154.8482 H   0  0  0  0  0  0  0  0  0  0  0  0  # atno 10763 bound_to 10752
  153.9257  135.6791  153.4751 H   0  0  0  0  0  0  0  0  0  0  0  0  # atno 10764 bound_to 10752
  153.1150  135.4849  154.9029 H   0  0  0  0  0  0  0  0  0  0  0  0  # atno 10765 bound_to 10752
  139.8771  134.9154  156.4803 H   0  0  0  0  0  0  0  0  0  0  0  0  # atno 11005 bound_to 11000
  145.6960  141.0150  143.1529 LP  0  0  0  0  0  0  0  0  0  0  0  0  # atno 17320 bound_to 7965
  144.7053  139.8589  143.7432 LP  0  0  0  0  0  0  0  0  0  0  0  0  # atno 17321 bound_to 7965
  140.3954  144.2562  150.5896 LP  0  0  0  0  0  0  0  0  0  0  0  0  # atno 17342 bound_to 10162
  140.5107  143.2291  151.8539 LP  0  0  0  0  0  0  0  0  0  0  0  0  # atno 17343 bound_to 10162
  157.5640  131.0946  150.9517 LP  0  0  0  0  0  0  0  0  0  0  0  0  # atno 17370 bound_to 10713
  156.9748  130.5504  149.5292 LP  0  0  0  0  0  0  0  0  0  0  0  0  # atno 17371 bound_to 10713
  140.8732  133.7973  155.9387 LP  0  0  0  0  0  0  0  0  0  0  0  0  # atno 17394 bound_to 11000
  140.8931  134.2471  157.5083 LP  0  0  0  0  0  0  0  0  0  0  0  0  # atno 17395 bound_to 11000

$$$$
