AV-unprocessed.smi:52|AV-procd|sdf|509|dock1
  -GOLD-   2262016383D 1   1.00000     0.00000
 Structure written by MMmdl.
 27 28  0  0  0  0  0  0  0  0  3 V2000
  150.3963  134.7435  157.5098 O   0  0  0  0  0  0  0  0  0  0  0  0
  150.3992  134.7726  156.2593 C   0  0  0  0  0  0  0  0  0  0  0  0
  151.2732  135.3922  155.6140 O   0  5  0  0  0  0  0  0  0  0  0  0
  149.3309  134.0532  155.5192 C   0  0  0  0  0  0  0  0  0  0  0  0
  148.2904  133.3423  156.0616 C   0  0  0  0  0  0  0  0  0  0  0  0
  147.5164  132.8362  155.0524 O   0  0  0  0  0  0  0  0  0  0  0  0
  148.1284  133.2648  153.9154 C   0  0  0  0  0  0  0  0  0  0  0  0
  147.5317  132.9112  152.5934 C   0  0  0  0  0  0  0  0  0  0  0  0
  146.9847  134.1922  152.0872 N   0  3  2  0  0  0  0  0  0  0  0  0
  146.0759  134.8714  153.0332 C   0  0  0  0  0  0  0  0  0  0  0  0
  145.2026  135.7714  152.1655 C   0  0  0  0  0  0  0  0  0  0  0  0
  144.9867  134.9155  150.9212 C   0  0  1  0  0  0  0  0  0  0  0  0
  144.7021  135.7047  149.7856 O   0  0  0  0  0  0  0  0  0  0  0  0
  146.2939  134.1227  150.7736 C   0  0  0  0  0  0  0  0  0  0  0  0
  149.2186  133.9947  154.1358 N   0  0  0  0  0  0  0  0  0  0  0  0
  144.1603  134.2253  151.0969 H   0  0  0  0  0  0  0  0  0  0  0  0
  147.9823  133.1214  157.0732 H   0  0  0  0  0  0  0  0  0  0  0  0
  148.2816  132.4900  151.9224 H   0  0  0  0  0  0  0  0  0  0  0  0
  146.7378  132.1780  152.7413 H   0  0  0  0  0  0  0  0  0  0  0  0
  145.4512  134.1328  153.5387 H   0  0  0  0  0  0  0  0  0  0  0  0
  146.6273  135.4258  153.7931 H   0  0  0  0  0  0  0  0  0  0  0  0
  144.2701  136.0597  152.6520 H   0  0  0  0  0  0  0  0  0  0  0  0
  145.7501  136.6819  151.9148 H   0  0  0  0  0  0  0  0  0  0  0  0
  145.1321  135.3233  149.0349 H   0  0  0  0  0  0  0  0  0  0  0  0
  146.9512  134.5648  150.0235 H   0  0  0  0  0  0  0  0  0  0  0  0
  146.0857  133.0972  150.4636 H   0  0  0  0  0  0  0  0  0  0  0  0
  147.7691  134.8155  151.9578 H   0  0  0  0  0  0  0  0  0  0  0  0
  1  2  2  0  0  0  0
  2  3  1  0  0  0  0
  2  4  1  0  0  0  0
  4 15  1  0  0  0  0
  4  5  2  0  0  0  0
  5  6  1  0  0  0  0
  5 17  1  0  0  0  0
  6  7  1  0  0  0  0
  7  8  1  0  0  0  0
  7 15  2  0  0  0  0
  8  9  1  0  0  0  0
  8 18  1  0  0  0  0
  8 19  1  0  0  0  0
  9 14  1  0  0  0  0
  9 10  1  0  0  0  0
  9 27  1  0  0  0  0
 10 11  1  0  0  0  0
 10 20  1  0  0  0  0
 10 21  1  0  0  0  0
 11 12  1  0  0  0  0
 11 22  1  0  0  0  0
 11 23  1  0  0  0  0
 12 16  1  0  0  0  0
 12 13  1  0  0  0  0
 12 14  1  0  0  0  0
 13 24  1  0  0  0  0
 14 25  1  0  0  0  0
 14 26  1  0  0  0  0
M  CHG  1   3  -1
M  CHG  1   9   1
M  END
> <s_m_source_file>
AV-unprocessed.smi

> <i_m_source_file_index>
52

> <i_lp_mmshare_version>
43012

> <i_f3d_flags>
0

> <s_epik_input>
Tz1DKFtPSF0pYzFbY0hdb2MobjEpW0NIMl1OMltDSDJdW0NIMl1bQ0BIXShbT0hdKVtDSDJdMg==

> <s_epik_cmdline>
J2VwaWtfcHl0aG9uJywgJy1waCcsICc3LjAnLCAnLXRuJywgJzgnLCAnLW1hJywgJzIwMCcsICctbWV0YWxfYmluZGluZycsICctaW1hZScsICc8aW5maWxlLm1hZT4nLCAnLW9tYWUnLCAnPG91dGZpbGUubWFlPic=

> <r_epik_Ionization_Penalty>
0.0376014

> <r_epik_Ionization_Penalty_Charging>
0.0376013

> <r_epik_Ionization_Penalty_Neutral>
1.78687e-08

> <r_epik_State_Penalty>
0.0314164

> <r_epik_Charging_Adjusted_Penalty>
0.0690177

> <i_epik_Tot_Q>
0

> <i_epik_Tot_abs_Q>
2

> <r_epik_Metal_State_Penalty>
0.0314164

> <b_epik_Metal_Only>
0

> <s_lp_Force_Field>
OPLS_2005

> <r_lp_Energy>
21.0877

> <b_lp_Chiralities_Consistent>
1

> <s_lp_Variant>
AV-unprocessed.smi:52-3

> <Gold.Version>
5.8.1

> <Gold.Id.Protein>
6NUR|6NUR_protein|mol2

> <Gold.PLP.Fitness>
39.8490

> <Gold.PLP.PLP>
-21.3215

> <Gold.PLP.part.hbond>
-5.0000

> <Gold.PLP.part.metal>
0.0000

> <Gold.PLP.part.buried>
-3.9567

> <Gold.PLP.part.nonpolar>
-12.7360

> <Gold.PLP.part.repulsive>
0.2683

> <Gold.PLP.ligand.clash>
0.0000

> <Gold.PLP.ligand.torsion>
0.1160

> <Gold.PLP.Chemscore.Hbond>
6.2480

> <Gold.PLP.Chemscore.CHOScore>
0.0000

> <Gold.PLP.Chemscore.Metal>
0.0000

> <Gold.Chemscore.Hbonds>
donor molecule, donor type, donor heavy atom, donor atom, acceptor molecule, acceptor atom, score
      L1  H     9    27       P1  7948  2.00
      L1  H    13    24       P1  7921  1.00
      P1  H  6896  6908       L1     1  1.25
      P1  H 10752 10764       L1     3  2.00

> <Gold.PLP.Chemscore.Internal.Correction>
0.0156

> <Gold.Rescore>
     Score         DG    S(hbond)    S(metal)    S(lipo)     H(rot)  DE(clash)    DE(int)     intcor
     15.44     -15.85       3.51        0.00      32.13       1.99       0.22       0.19       ----

> <Gold.Chemscore.Fitness>
15.4410

> <Gold.Chemscore.DG>
-15.8530

> <Gold.Chemscore.ZeroCoef>
-5.4800

> <Gold.Chemscore.Hbond>
3.5068

> <Gold.Chemscore.Metal>
0.0000

> <Gold.Chemscore.Lipo>
32.1312

> <Gold.Chemscore.Internal_Hbond>
0.0000

> <Gold.Chemscore.DEClash>
0.2243

> <Gold.Chemscore.DEInternal>
0.1877

> <Gold.Chemscore.Rot>
1.9919

> <Gold.Chemscore.Internal.Correction>
   9.000000E+99

> <Gold.Chemscore.Hbonds>
donor molecule, donor type, donor heavy atom, donor atom, acceptor molecule, acceptor atom, score
      L1  H     9    27       P1  7948  0.55
      L1  H    13    24       P1  7921  1.00
      P1  H  6896  6908       L1     1  0.61
      P1  H 10752 10764       L1     3  0.99

> <Gold.Chemscore.Hbond.Weighted>
-11.7128

> <Gold.Chemscore.Metal.Weighted>
-0.0000

> <Gold.Chemscore.Lipo.Weighted>
-3.7594

> <Gold.Chemscore.Internal_Hbond.Weighted>
0.0000

> <Gold.Chemscore.DEClash.Weighted>
0.2243

> <Gold.Chemscore.DEInternal.Weighted>
0.1877

> <Gold.Chemscore.Rot.Weighted>
5.0991

> <Gold.Chemscore.Internal.Correction.Weighted>
   9.000000E+99

> <Gold.Protein.RotatedTorsions>
[ 6907 6896 6895 6894 ] final  140.46 input  -60.11 | X-H torsion
[ 7974 7965 7964 7962 ] final   95.70 input  175.53 | X-H torsion
[ 8008 7997 7996 7995 ] final   54.50 input   59.86 | X-H torsion
[ 10167 10162 10161 10158 ] final   32.99 input  -65.29 | X-H torsion
[ 10718 10713 10712 10709 ] final  -92.94 input   66.30 | X-H torsion
[ 10763 10752 10751 10750 ] final  -45.04 input  -60.55 | X-H torsion
[ 11005 11000 10999 10996 ] final  -91.77 input  -57.11 | X-H torsion

> <Gold.Protein.ActiveResidues>
 VAL166  LYS551  ARG553  GLY616  TRP617  ASP618  TYR619  PRO620  LYS621  CYS622 
 ASP623  PHE694  ASN695  SER759  ASP760  ASP761  ALA762  ILE779  LEU786  VAL792 
 PHE793  MET794  SER795  GLU796  ALA797  LYS798  CYS799  TRP800  GLU811  SER814 

> <Gold.Protein.RotatedAtoms>
  152.2427  133.5149  159.5279 H   0  0  0  0  0  0  0  0  0  0  0  0  # atno 6907 bound_to 6896
  150.7069  134.1067  159.3994 H   0  0  0  0  0  0  0  0  0  0  0  0  # atno 6908 bound_to 6896
  151.8987  135.0387  160.0555 H   0  0  0  0  0  0  0  0  0  0  0  0  # atno 6909 bound_to 6896
  145.4488  139.2295  143.3051 H   0  0  0  0  0  0  0  0  0  0  0  0  # atno 7974 bound_to 7965
  155.4857  140.3470  155.4347 H   0  0  0  0  0  0  0  0  0  0  0  0  # atno 8008 bound_to 7997
  156.1010  140.1435  156.9496 H   0  0  0  0  0  0  0  0  0  0  0  0  # atno 8009 bound_to 7997
  154.4694  140.0906  156.7082 H   0  0  0  0  0  0  0  0  0  0  0  0  # atno 8010 bound_to 7997
  140.4448  144.1134  150.6180 H   0  0  0  0  0  0  0  0  0  0  0  0  # atno 10167 bound_to 10162
  156.0007  130.5007  150.5701 H   0  0  0  0  0  0  0  0  0  0  0  0  # atno 10718 bound_to 10713
  154.0220  135.6668  153.4773 H   0  0  0  0  0  0  0  0  0  0  0  0  # atno 10763 bound_to 10752
  153.0576  135.5047  154.8014 H   0  0  0  0  0  0  0  0  0  0  0  0  # atno 10764 bound_to 10752
  154.6931  135.3065  154.9415 H   0  0  0  0  0  0  0  0  0  0  0  0  # atno 10765 bound_to 10752
  141.1537  133.7777  156.9926 H   0  0  0  0  0  0  0  0  0  0  0  0  # atno 11005 bound_to 11000
  146.2516  140.5244  142.8891 LP  0  0  0  0  0  0  0  0  0  0  0  0  # atno 17320 bound_to 7965
  144.8075  140.6326  143.6437 LP  0  0  0  0  0  0  0  0  0  0  0  0  # atno 17321 bound_to 7965
  140.4276  143.2583  151.9637 LP  0  0  0  0  0  0  0  0  0  0  0  0  # atno 17342 bound_to 10162
  139.4792  144.5774  151.7989 LP  0  0  0  0  0  0  0  0  0  0  0  0  # atno 17343 bound_to 10162
  157.3598  131.0748  151.1646 LP  0  0  0  0  0  0  0  0  0  0  0  0  # atno 17370 bound_to 10713
  157.2435  130.6580  149.5900 LP  0  0  0  0  0  0  0  0  0  0  0  0  # atno 17371 bound_to 10713
  140.0993  134.9545  157.1897 LP  0  0  0  0  0  0  0  0  0  0  0  0  # atno 17394 bound_to 11000
  140.3340  134.2777  155.7223 LP  0  0  0  0  0  0  0  0  0  0  0  0  # atno 17395 bound_to 11000

$$$$
