AV-unprocessed.smi:3303|AV-procd|sdf|12667|dock10
  -GOLD-   2272019 03D 1   1.00000     0.00000
 Structure written by MMmdl.
 45 46  0  0  0  0  0  0  0  0  3 V2000
  147.1665  140.0192  153.2603 C   0  0  0  0  0  0  0  0  0  0  0  0
  147.1428  139.9912  154.8034 C   0  0  2  0  0  0  0  0  0  0  0  0
  145.7870  139.4737  155.3276 C   0  0  0  0  0  0  0  0  0  0  0  0
  144.7042  140.4691  155.1132 N   0  3  1  0  0  0  0  0  0  0  0  0
  143.3582  139.9237  155.4018 C   0  0  0  0  0  0  0  0  0  0  0  0
  144.9769  141.7944  155.7425 C   0  0  1  0  0  0  0  0  0  0  0  0
  144.8653  141.7811  157.2827 C   0  0  0  0  0  0  0  0  0  0  0  0
  146.3340  142.3527  155.2600 C   0  0  0  0  0  0  0  0  0  0  0  0
  147.4857  141.3450  155.4688 C   0  0  2  0  0  0  0  0  0  0  0  0
  148.7875  141.8632  154.9860 N   0  3  0  0  0  0  0  0  0  0  0  0
  149.9832  141.2525  155.6038 C   0  0  0  0  0  0  0  0  0  0  0  0
  149.7838  141.0663  157.1143 C   0  0  0  0  0  0  0  0  0  0  0  0
  150.9307  141.6449  157.9208 C   0  0  0  0  0  0  0  0  0  0  0  0
  151.7583  140.8099  158.7013 C   0  0  0  0  0  0  0  0  0  0  0  0
  152.8085  141.4003  159.4310 C   0  0  0  0  0  0  0  0  0  0  0  0
  152.9876  142.7948  159.3540 C   0  0  0  0  0  0  0  0  0  0  0  0
  152.1058  143.5406  158.5468 C   0  0  0  0  0  0  0  0  0  0  0  0
  151.0959  142.9845  157.8428 N   0  0  0  0  0  0  0  0  0  0  0  0
  146.4263  140.7058  152.8502 H   0  0  0  0  0  0  0  0  0  0  0  0
  146.9525  139.0311  152.8522 H   0  0  0  0  0  0  0  0  0  0  0  0
  148.1425  140.3156  152.8763 H   0  0  0  0  0  0  0  0  0  0  0  0
  147.9031  139.2717  155.1113 H   0  0  0  0  0  0  0  0  0  0  0  0
  145.5304  138.5420  154.8211 H   0  0  0  0  0  0  0  0  0  0  0  0
  145.8596  139.2305  156.3883 H   0  0  0  0  0  0  0  0  0  0  0  0
  143.2729  139.5919  156.4371 H   0  0  0  0  0  0  0  0  0  0  0  0
  143.1517  139.0673  154.7590 H   0  0  0  0  0  0  0  0  0  0  0  0
  142.5873  140.6714  155.2126 H   0  0  0  0  0  0  0  0  0  0  0  0
  144.2084  142.4783  155.3792 H   0  0  0  0  0  0  0  0  0  0  0  0
  145.0810  142.7684  157.6919 H   0  0  0  0  0  0  0  0  0  0  0  0
  145.5589  141.0805  157.7464 H   0  0  0  0  0  0  0  0  0  0  0  0
  143.8601  141.5201  157.6130 H   0  0  0  0  0  0  0  0  0  0  0  0
  146.2614  142.6134  154.2036 H   0  0  0  0  0  0  0  0  0  0  0  0
  146.5400  143.2883  155.7796 H   0  0  0  0  0  0  0  0  0  0  0  0
  147.5964  141.1603  156.5382 H   0  0  0  0  0  0  0  0  0  0  0  0
  148.8406  141.6817  153.9936 H   0  0  0  0  0  0  0  0  0  0  0  0
  150.1865  140.2878  155.1391 H   0  0  0  0  0  0  0  0  0  0  0  0
  150.8502  141.8889  155.4215 H   0  0  0  0  0  0  0  0  0  0  0  0
  148.8511  141.5373  157.4282 H   0  0  0  0  0  0  0  0  0  0  0  0
  149.6869  140.0059  157.3525 H   0  0  0  0  0  0  0  0  0  0  0  0
  151.5975  139.7426  158.7410 H   0  0  0  0  0  0  0  0  0  0  0  0
  153.4647  140.7944  160.0382 H   0  0  0  0  0  0  0  0  0  0  0  0
  153.7830  143.2813  159.8992 H   0  0  0  0  0  0  0  0  0  0  0  0
  152.2142  144.6120  158.4650 H   0  0  0  0  0  0  0  0  0  0  0  0
  148.8162  142.8630  155.1277 H   0  0  0  0  0  0  0  0  0  0  0  0
  144.7030  140.6481  154.1188 H   0  0  0  0  0  0  0  0  0  0  0  0
  1  2  1  0  0  0  0
  1 19  1  0  0  0  0
  1 20  1  0  0  0  0
  1 21  1  0  0  0  0
  2  9  1  0  0  0  0
  2  3  1  0  0  0  0
  2 22  1  0  0  0  0
  3  4  1  0  0  0  0
  3 23  1  0  0  0  0
  3 24  1  0  0  0  0
  4  5  1  0  0  0  0
  4  6  1  0  0  0  0
  4 45  1  0  0  0  0
  5 25  1  0  0  0  0
  5 26  1  0  0  0  0
  5 27  1  0  0  0  0
  6  7  1  0  0  0  0
  6  8  1  0  0  0  0
  6 28  1  0  0  0  0
  7 29  1  0  0  0  0
  7 30  1  0  0  0  0
  7 31  1  0  0  0  0
  8  9  1  0  0  0  0
  8 32  1  0  0  0  0
  8 33  1  0  0  0  0
  9 10  1  0  0  0  0
  9 34  1  0  0  0  0
 10 11  1  0  0  0  0
 10 35  1  0  0  0  0
 10 44  1  0  0  0  0
 11 12  1  0  0  0  0
 11 36  1  0  0  0  0
 11 37  1  0  0  0  0
 12 13  1  0  0  0  0
 12 38  1  0  0  0  0
 12 39  1  0  0  0  0
 13 18  1  0  0  0  0
 13 14  2  0  0  0  0
 14 15  1  0  0  0  0
 14 40  1  0  0  0  0
 15 16  2  0  0  0  0
 15 41  1  0  0  0  0
 16 17  1  0  0  0  0
 16 42  1  0  0  0  0
 17 18  2  0  0  0  0
 17 43  1  0  0  0  0
M  CHG  1   4   1
M  CHG  1  10   1
M  END
> <s_m_source_file>
AV-unprocessed.smi

> <i_m_source_file_index>
3303

> <i_lp_mmshare_version>
43012

> <i_f3d_flags>
0

> <s_epik_input>
W0NIM11bQ0BASF0xW0NIMl1OKFtDSDNdKVtDQEBIXShbQ0gzXSlbQ0gyXVtDQEhdMVtOSF1bQ0gyXVtDSDJdYzJbY0hdW2NIXVtjSF1bY0hdbjI=

> <s_epik_cmdline>
J2VwaWtfcHl0aG9uJywgJy1waCcsICc3LjAnLCAnLXRuJywgJzgnLCAnLW1hJywgJzIwMCcsICctbWV0YWxfYmluZGluZycsICctaW1hZScsICc8aW5maWxlLm1hZT4nLCAnLW9tYWUnLCAnPG91dGZpbGUubWFlPic=

> <r_epik_Ionization_Penalty>
0.0769462

> <r_epik_Ionization_Penalty_Charging>
0.0759813

> <r_epik_Ionization_Penalty_Neutral>
0.000964829

> <r_epik_State_Penalty>
0.0654373

> <r_epik_Charging_Adjusted_Penalty>
0.141419

> <i_epik_Tot_Q>
2

> <i_epik_Tot_abs_Q>
2

> <r_epik_Metal_State_Penalty>
0.0656439

> <b_epik_Metal_Only>
0

> <s_lp_Force_Field>
OPLS_2005

> <r_lp_Energy>
31.612

> <b_lp_Chiralities_Consistent>
1

> <s_lp_Variant>
AV-unprocessed.smi:3303-11

> <Gold.Version>
5.8.1

> <Gold.Id.Protein>
6NUR|6NUR_protein|mol2

> <Gold.PLP.Fitness>
43.0383

> <Gold.PLP.PLP>
-32.3995

> <Gold.PLP.part.hbond>
-2.0000

> <Gold.PLP.part.metal>
0.0000

> <Gold.PLP.part.buried>
-4.8280

> <Gold.PLP.part.nonpolar>
-27.6899

> <Gold.PLP.part.repulsive>
1.1074

> <Gold.PLP.ligand.clash>
0.0000

> <Gold.PLP.ligand.torsion>
0.6649

> <Gold.PLP.Chemscore.Hbond>
3.9840

> <Gold.PLP.Chemscore.CHOScore>
0.0000

> <Gold.PLP.Chemscore.Metal>
0.0000

> <Gold.Chemscore.Hbonds>
donor molecule, donor type, donor heavy atom, donor atom, acceptor molecule, acceptor atom, score
      L1  H     4    45       P1 10175  1.79
      L1  H    10    44       P1  8028  2.00

> <Gold.PLP.Chemscore.Internal.Correction>
0.0166

> <Gold.Rescore>
     Score         DG    S(hbond)    S(metal)    S(lipo)     H(rot)  DE(clash)    DE(int)     intcor
     18.34     -19.03       1.93        0.00      90.92       1.37       0.10       0.59       ----

> <Gold.Chemscore.Fitness>
18.3429

> <Gold.Chemscore.DG>
-19.0324

> <Gold.Chemscore.ZeroCoef>
-5.4800

> <Gold.Chemscore.Hbond>
1.9261

> <Gold.Chemscore.Metal>
0.0000

> <Gold.Chemscore.Lipo>
90.9196

> <Gold.Chemscore.Internal_Hbond>
0.0000

> <Gold.Chemscore.DEClash>
0.0978

> <Gold.Chemscore.DEInternal>
0.5917

> <Gold.Chemscore.Rot>
1.3744

> <Gold.Chemscore.Internal.Correction>
   9.000000E+99

> <Gold.Chemscore.Hbonds>
donor molecule, donor type, donor heavy atom, donor atom, acceptor molecule, acceptor atom, score
      L1  H     4    45       P1 10175  0.86
      L1  H    10    44       P1  8028  1.00

> <Gold.Chemscore.Hbond.Weighted>
-6.4332

> <Gold.Chemscore.Metal.Weighted>
-0.0000

> <Gold.Chemscore.Lipo.Weighted>
-10.6376

> <Gold.Chemscore.Internal_Hbond.Weighted>
0.0000

> <Gold.Chemscore.DEClash.Weighted>
0.0978

> <Gold.Chemscore.DEInternal.Weighted>
0.5917

> <Gold.Chemscore.Rot.Weighted>
3.5185

> <Gold.Chemscore.Internal.Correction.Weighted>
   9.000000E+99

> <Gold.Protein.RotatedTorsions>
[ 6907 6896 6895 6894 ] final  -59.74 input  -60.11 | X-H torsion
[ 7974 7965 7964 7962 ] final  -30.42 input  175.53 | X-H torsion
[ 8008 7997 7996 7995 ] final -157.03 input   59.86 | X-H torsion
[ 10167 10162 10161 10158 ] final  155.12 input  -65.29 | X-H torsion
[ 10718 10713 10712 10709 ] final  -38.88 input   66.30 | X-H torsion
[ 10763 10752 10751 10750 ] final  150.54 input  -60.55 | X-H torsion
[ 11005 11000 10999 10996 ] final   27.27 input  -57.11 | X-H torsion

> <Gold.Protein.ActiveResidues>
 VAL166  LYS551  ARG553  GLY616  TRP617  ASP618  TYR619  PRO620  LYS621  CYS622 
 ASP623  PHE694  ASN695  SER759  ASP760  ASP761  ALA762  ILE779  LEU786  VAL792 
 PHE793  MET794  SER795  GLU796  ALA797  LYS798  CYS799  TRP800  GLU811  SER814 

> <Gold.Protein.RotatedAtoms>
  150.7908  134.6929  159.6506 H   0  0  0  0  0  0  0  0  0  0  0  0  # atno 6907 bound_to 6896
  152.4013  134.6279  160.0077 H   0  0  0  0  0  0  0  0  0  0  0  0  # atno 6908 bound_to 6896
  151.6549  133.3282  159.3197 H   0  0  0  0  0  0  0  0  0  0  0  0  # atno 6909 bound_to 6896
  146.1144  140.5538  142.8763 H   0  0  0  0  0  0  0  0  0  0  0  0  # atno 7974 bound_to 7965
  155.7262  140.0796  157.2309 H   0  0  0  0  0  0  0  0  0  0  0  0  # atno 8008 bound_to 7997
  154.4039  140.1604  156.2511 H   0  0  0  0  0  0  0  0  0  0  0  0  # atno 8009 bound_to 7997
  155.9151  140.3401  155.6132 H   0  0  0  0  0  0  0  0  0  0  0  0  # atno 8010 bound_to 7997
  139.4822  144.5126  151.8000 H   0  0  0  0  0  0  0  0  0  0  0  0  # atno 10167 bound_to 10162
  156.2988  130.4237  149.8164 H   0  0  0  0  0  0  0  0  0  0  0  0  # atno 10718 bound_to 10713
  154.0891  135.2854  155.3275 H   0  0  0  0  0  0  0  0  0  0  0  0  # atno 10763 bound_to 10752
  154.6632  135.5327  153.8047 H   0  0  0  0  0  0  0  0  0  0  0  0  # atno 10764 bound_to 10752
  153.0420  135.6539  154.1061 H   0  0  0  0  0  0  0  0  0  0  0  0  # atno 10765 bound_to 10752
  140.3281  134.2469  155.7706 H   0  0  0  0  0  0  0  0  0  0  0  0  # atno 11005 bound_to 11000
  144.7540  140.5261  143.6782 LP  0  0  0  0  0  0  0  0  0  0  0  0  # atno 17320 bound_to 7965
  145.5597  139.1479  143.3348 LP  0  0  0  0  0  0  0  0  0  0  0  0  # atno 17321 bound_to 7965
  140.4631  144.1693  150.5908 LP  0  0  0  0  0  0  0  0  0  0  0  0  # atno 17342 bound_to 10162
  140.4463  143.2505  151.9407 LP  0  0  0  0  0  0  0  0  0  0  0  0  # atno 17343 bound_to 10162
  156.5550  130.8358  151.3311 LP  0  0  0  0  0  0  0  0  0  0  0  0  # atno 17370 bound_to 10713
  157.7362  130.9775  150.2125 LP  0  0  0  0  0  0  0  0  0  0  0  0  # atno 17371 bound_to 10713
  141.2070  133.7817  157.0143 LP  0  0  0  0  0  0  0  0  0  0  0  0  # atno 17394 bound_to 11000
  140.0884  134.9607  157.1737 LP  0  0  0  0  0  0  0  0  0  0  0  0  # atno 17395 bound_to 11000

$$$$
