AV-unprocessed.smi:3259|AV-procd|sdf|12475|dock2
  -GOLD-   2272018373D 1   1.00000     0.00000
 Structure written by MMmdl.
 39 40  0  0  0  0  0  0  0  0  1 V2000
  149.1158  132.1238  158.4556 C   0  0  0  0  0  0  0  0  0  0  0  0
  149.6136  133.2045  157.6775 O   0  0  0  0  0  0  0  0  0  0  0  0
  150.0756  132.8812  156.3650 C   0  0  2  0  0  0  0  0  0  0  0  0
  151.3329  132.0022  156.4540 C   0  0  0  0  0  0  0  0  0  0  0  0
  150.1211  134.1126  155.4414 C   0  0  0  0  0  0  0  0  0  0  0  0
  149.4965  133.2222  154.3696 C   0  0  2  0  0  0  0  0  0  0  0  0
  148.5428  133.9383  153.5301 N   0  0  0  0  0  0  0  0  0  0  0  0
  147.4605  133.3807  152.9667 C   0  0  0  0  0  0  0  0  0  0  0  0
  147.1568  132.1968  153.1102 O   0  0  0  0  0  0  0  0  0  0  0  0
  146.5806  134.3005  152.1189 C   0  0  0  0  0  0  0  0  0  0  0  0
  145.5793  133.5451  151.3870 N   0  0  0  0  0  0  0  0  0  0  0  0
  145.7689  132.5127  150.4916 C   0  0  0  0  0  0  0  0  0  0  0  0
  144.5349  132.1102  150.0672 C   0  0  0  0  0  0  0  0  0  0  0  0
  143.6407  132.9681  150.7664 C   0  0  0  0  0  0  0  0  0  0  0  0
  144.2683  133.8261  151.5545 N   0  0  0  0  0  0  0  0  0  0  0  0
  148.8637  132.3847  155.5105 C   0  0  0  0  0  0  0  0  0  0  0  0
  148.7680  130.8768  155.2570 C   0  0  0  0  0  0  0  0  0  0  0  0
  147.4663  132.8181  155.9979 C   0  0  0  0  0  0  0  0  0  0  0  0
  148.8868  132.4841  159.4583 H   0  0  0  0  0  0  0  0  0  0  0  0
  149.8459  131.3203  158.5535 H   0  0  0  0  0  0  0  0  0  0  0  0
  148.1947  131.7140  158.0421 H   0  0  0  0  0  0  0  0  0  0  0  0
  151.6334  131.6227  155.4777 H   0  0  0  0  0  0  0  0  0  0  0  0
  151.1689  131.1414  157.1027 H   0  0  0  0  0  0  0  0  0  0  0  0
  152.1882  132.5531  156.8439 H   0  0  0  0  0  0  0  0  0  0  0  0
  149.4740  134.9298  155.7659 H   0  0  0  0  0  0  0  0  0  0  0  0
  151.1238  134.4688  155.2034 H   0  0  0  0  0  0  0  0  0  0  0  0
  150.2555  132.6744  153.8063 H   0  0  0  0  0  0  0  0  0  0  0  0
  148.7195  134.9183  153.3640 H   0  0  0  0  0  0  0  0  0  0  0  0
  146.0855  135.0367  152.7541 H   0  0  0  0  0  0  0  0  0  0  0  0
  147.1967  134.8534  151.4084 H   0  0  0  0  0  0  0  0  0  0  0  0
  146.7548  132.1535  150.2362 H   0  0  0  0  0  0  0  0  0  0  0  0
  144.3057  131.3229  149.3645 H   0  0  0  0  0  0  0  0  0  0  0  0
  142.5618  132.9926  150.7247 H   0  0  0  0  0  0  0  0  0  0  0  0
  147.9498  130.6362  154.5775 H   0  0  0  0  0  0  0  0  0  0  0  0
  148.5991  130.3272  156.1835 H   0  0  0  0  0  0  0  0  0  0  0  0
  149.6755  130.4791  154.8034 H   0  0  0  0  0  0  0  0  0  0  0  0
  146.6957  132.6003  155.2578 H   0  0  0  0  0  0  0  0  0  0  0  0
  147.4133  133.8862  156.2086 H   0  0  0  0  0  0  0  0  0  0  0  0
  147.1864  132.2987  156.9151 H   0  0  0  0  0  0  0  0  0  0  0  0
  1  2  1  0  0  0  0
  1 19  1  0  0  0  0
  1 20  1  0  0  0  0
  1 21  1  0  0  0  0
  2  3  1  0  0  0  0
  3 16  1  0  0  0  0
  3  4  1  0  0  0  0
  3  5  1  0  0  0  0
  4 22  1  0  0  0  0
  4 23  1  0  0  0  0
  4 24  1  0  0  0  0
  5  6  1  0  0  0  0
  5 25  1  0  0  0  0
  5 26  1  0  0  0  0
  6  7  1  0  0  0  0
  6 16  1  0  0  0  0
  6 27  1  0  0  0  0
  7  8  1  0  0  0  0
  7 28  1  0  0  0  0
  8  9  2  0  0  0  0
  8 10  1  0  0  0  0
 10 11  1  0  0  0  0
 10 29  1  0  0  0  0
 10 30  1  0  0  0  0
 11 15  1  0  0  0  0
 11 12  1  0  0  0  0
 12 13  2  0  0  0  0
 12 31  1  0  0  0  0
 13 14  1  0  0  0  0
 13 32  1  0  0  0  0
 14 15  2  0  0  0  0
 14 33  1  0  0  0  0
 16 17  1  0  0  0  0
 16 18  1  0  0  0  0
 17 34  1  0  0  0  0
 17 35  1  0  0  0  0
 17 36  1  0  0  0  0
 18 37  1  0  0  0  0
 18 38  1  0  0  0  0
 18 39  1  0  0  0  0
M  END
> <s_m_source_file>
AV-unprocessed.smi

> <i_m_source_file_index>
3259

> <i_lp_mmshare_version>
43012

> <i_f3d_flags>
0

> <s_epik_input>
W0NIM11PW0NAQF0xKFtDSDNdKVtDSDJdW0NASF0oQzEoW0NIM10pW0NIM10pW05IXUMoPU8pW0NIMl1uMltjSF1bY0hdW2NIXW4y

> <s_epik_cmdline>
J2VwaWtfcHl0aG9uJywgJy1waCcsICc3LjAnLCAnLXRuJywgJzgnLCAnLW1hJywgJzIwMCcsICctbWV0YWxfYmluZGluZycsICctaW1hZScsICc8aW5maWxlLm1hZT4nLCAnLW9tYWUnLCAnPG91dGZpbGUubWFlPic=

> <r_lp_tautomer_probability>
1

> <r_epik_Ionization_Penalty>
1.78399e-05

> <r_epik_Ionization_Penalty_Charging>
0

> <r_epik_Ionization_Penalty_Neutral>
1.78399e-05

> <r_epik_State_Penalty>
-0

> <r_epik_Charging_Adjusted_Penalty>
0

> <i_epik_Tot_Q>
0

> <i_epik_Tot_abs_Q>
0

> <r_epik_Metal_State_Penalty>
-0

> <b_epik_Metal_Only>
0

> <s_lp_Force_Field>
OPLS_2005

> <r_lp_Energy>
24.0627

> <b_lp_Chiralities_Consistent>
1

> <s_lp_Variant>
AV-unprocessed.smi:3259-4

> <Gold.Version>
5.8.1

> <Gold.Id.Protein>
6NUR|6NUR_protein|mol2

> <Gold.PLP.Fitness>
37.8503

> <Gold.PLP.PLP>
-28.6166

> <Gold.PLP.part.hbond>
-1.6385

> <Gold.PLP.part.metal>
0.0000

> <Gold.PLP.part.buried>
-2.8923

> <Gold.PLP.part.nonpolar>
-24.3514

> <Gold.PLP.part.repulsive>
0.2371

> <Gold.PLP.ligand.clash>
0.0000

> <Gold.PLP.ligand.torsion>
0.4475

> <Gold.PLP.Chemscore.Hbond>
1.2525

> <Gold.PLP.Chemscore.CHOScore>
1.9977

> <Gold.PLP.Chemscore.Metal>
0.0000

> <Gold.Chemscore.Hbonds>
donor molecule, donor type, donor heavy atom, donor atom, acceptor molecule, acceptor atom, score
      L1  H     7    28       P1  7948  0.80
      P1  H  6896  6908       L1     2  0.42
      L1  C    12    31       P1 10747  0.92
      L1  C    14    33       P1 10186  1.00

> <Gold.PLP.Chemscore.Internal.Correction>
0.3780

> <Gold.Rescore>
     Score         DG    S(hbond)    S(metal)    S(lipo)     H(rot)  DE(clash)    DE(int)     intcor
      8.78     -11.51       0.47        0.00      72.96       1.60       0.51       2.22       ----

> <Gold.Chemscore.Fitness>
8.7754

> <Gold.Chemscore.DG>
-11.5078

> <Gold.Chemscore.ZeroCoef>
-5.4800

> <Gold.Chemscore.Hbond>
0.4723

> <Gold.Chemscore.Metal>
0.0000

> <Gold.Chemscore.Lipo>
72.9608

> <Gold.Chemscore.Internal_Hbond>
0.0000

> <Gold.Chemscore.DEClash>
0.5118

> <Gold.Chemscore.DEInternal>
2.2206

> <Gold.Chemscore.Rot>
1.5962

> <Gold.Chemscore.Internal.Correction>
   9.000000E+99

> <Gold.Chemscore.Hbonds>
donor molecule, donor type, donor heavy atom, donor atom, acceptor molecule, acceptor atom, score
      L1  H     7    28       P1  7948  0.43
      P1  H  6896  6908       L1     2  0.01

> <Gold.Chemscore.Hbond.Weighted>
-1.5776

> <Gold.Chemscore.Metal.Weighted>
-0.0000

> <Gold.Chemscore.Lipo.Weighted>
-8.5364

> <Gold.Chemscore.Internal_Hbond.Weighted>
0.0000

> <Gold.Chemscore.DEClash.Weighted>
0.5118

> <Gold.Chemscore.DEInternal.Weighted>
2.2206

> <Gold.Chemscore.Rot.Weighted>
4.0862

> <Gold.Chemscore.Internal.Correction.Weighted>
   9.000000E+99

> <Gold.Protein.RotatedTorsions>
[ 6907 6896 6895 6894 ] final  116.46 input  -60.11 | X-H torsion
[ 7974 7965 7964 7962 ] final -111.42 input  175.53 | X-H torsion
[ 8008 7997 7996 7995 ] final   -5.39 input   59.86 | X-H torsion
[ 10167 10162 10161 10158 ] final   37.03 input  -65.29 | X-H torsion
[ 10718 10713 10712 10709 ] final  -36.97 input   66.30 | X-H torsion
[ 10763 10752 10751 10750 ] final   46.58 input  -60.55 | X-H torsion
[ 11005 11000 10999 10996 ] final  101.77 input  -57.11 | X-H torsion

> <Gold.Protein.ActiveResidues>
 VAL166  LYS551  ARG553  GLY616  TRP617  ASP618  TYR619  PRO620  LYS621  CYS622 
 ASP623  PHE694  ASN695  SER759  ASP760  ASP761  ALA762  ILE779  LEU786  VAL792 
 PHE793  MET794  SER795  GLU796  ALA797  LYS798  CYS799  TRP800  GLU811  SER814 

> <Gold.Protein.RotatedAtoms>
  152.4676  133.7958  159.6925 H   0  0  0  0  0  0  0  0  0  0  0  0  # atno 6907 bound_to 6896
  150.8649  133.7580  159.2986 H   0  0  0  0  0  0  0  0  0  0  0  0  # atno 6908 bound_to 6896
  151.5134  135.1069  159.9912 H   0  0  0  0  0  0  0  0  0  0  0  0  # atno 6909 bound_to 6896
  145.1563  140.8855  143.3617 H   0  0  0  0  0  0  0  0  0  0  0  0  # atno 7974 bound_to 7965
  154.6044  140.2459  155.7751 H   0  0  0  0  0  0  0  0  0  0  0  0  # atno 8008 bound_to 7997
  156.2331  140.2959  156.0192 H   0  0  0  0  0  0  0  0  0  0  0  0  # atno 8009 bound_to 7997
  155.2157  140.0398  157.2931 H   0  0  0  0  0  0  0  0  0  0  0  0  # atno 8010 bound_to 7997
  140.4072  144.1643  150.6137 H   0  0  0  0  0  0  0  0  0  0  0  0  # atno 10167 bound_to 10162
  156.3206  130.4265  149.7964 H   0  0  0  0  0  0  0  0  0  0  0  0  # atno 10718 bound_to 10713
  152.9809  135.6003  154.3622 H   0  0  0  0  0  0  0  0  0  0  0  0  # atno 10763 bound_to 10752
  154.3303  135.2768  155.2477 H   0  0  0  0  0  0  0  0  0  0  0  0  # atno 10764 bound_to 10752
  154.4604  135.5967  153.6307 H   0  0  0  0  0  0  0  0  0  0  0  0  # atno 10765 bound_to 10752
  139.8774  134.9196  156.4956 H   0  0  0  0  0  0  0  0  0  0  0  0  # atno 11005 bound_to 11000
  145.0378  139.3286  143.5992 LP  0  0  0  0  0  0  0  0  0  0  0  0  # atno 17320 bound_to 7965
  146.3488  139.9740  142.8703 LP  0  0  0  0  0  0  0  0  0  0  0  0  # atno 17321 bound_to 7965
  140.4677  143.2424  151.9132 LP  0  0  0  0  0  0  0  0  0  0  0  0  # atno 17342 bound_to 10162
  139.4783  144.5402  151.8539 LP  0  0  0  0  0  0  0  0  0  0  0  0  # atno 17343 bound_to 10162
  156.5273  130.8242  151.3225 LP  0  0  0  0  0  0  0  0  0  0  0  0  # atno 17370 bound_to 10713
  157.7411  130.9863  150.2422 LP  0  0  0  0  0  0  0  0  0  0  0  0  # atno 17371 bound_to 10713
  140.8626  133.8048  155.9281 LP  0  0  0  0  0  0  0  0  0  0  0  0  # atno 17394 bound_to 11000
  140.9034  134.2351  157.5029 LP  0  0  0  0  0  0  0  0  0  0  0  0  # atno 17395 bound_to 11000

$$$$
