AV-unprocessed.smi:2938|AV-procd|sdf|11260|dock5
  -GOLD-   2272016153D 1   1.00000     0.00000
 Structure written by MMmdl.
 26 27  0  0  0  0  0  0  0  0  2 V2000
  151.8503  139.5741  155.0158 N   0  0  0  0  0  0  0  0  0  0  0  0
  152.0888  139.1614  156.0706 C   0  0  0  0  0  0  0  0  0  0  0  0
  152.3917  138.6400  157.4019 C   0  0  0  0  0  0  0  0  0  0  0  0
  152.4770  137.2481  157.6595 C   0  0  0  0  0  0  0  0  0  0  0  0
  152.2850  136.2966  156.6959 O   0  5  0  0  0  0  0  0  0  0  0  0
  152.7569  136.7642  158.8885 N   0  0  0  0  0  0  0  0  0  0  0  0
  152.9511  137.6584  159.8561 C   0  0  0  0  0  0  0  0  0  0  0  0
  153.2345  137.1580  161.1022 N   0  0  0  0  0  0  0  0  0  0  0  0
  152.8987  138.9855  159.7415 N   0  0  0  0  0  0  0  0  0  0  0  0
  152.6189  139.4927  158.5151 C   0  0  0  0  0  0  0  0  0  0  0  0
  152.5596  140.8921  158.3892 N   0  0  0  0  0  0  0  0  0  0  0  0
  151.2592  141.3840  157.9526 C   0  0  0  0  0  0  0  0  0  0  0  0
  151.3280  142.9013  157.7074 C   0  0  0  0  0  0  0  0  0  0  0  0
  151.7904  143.5561  158.8859 O   0  0  0  0  0  0  0  0  0  0  0  0
  153.0942  143.1210  159.2626 C   0  0  0  0  0  0  0  0  0  0  0  0
  153.0711  141.6097  159.5499 C   0  0  0  0  0  0  0  0  0  0  0  0
  153.2879  136.1618  161.2539 H   0  0  0  0  0  0  0  0  0  0  0  0
  153.3928  137.7864  161.8760 H   0  0  0  0  0  0  0  0  0  0  0  0
  150.9571  140.8695  157.0395 H   0  0  0  0  0  0  0  0  0  0  0  0
  150.5074  141.1648  158.7121 H   0  0  0  0  0  0  0  0  0  0  0  0
  151.9884  143.1303  156.8692 H   0  0  0  0  0  0  0  0  0  0  0  0
  150.3412  143.2863  157.4502 H   0  0  0  0  0  0  0  0  0  0  0  0
  153.8094  143.3559  158.4726 H   0  0  0  0  0  0  0  0  0  0  0  0
  153.4093  143.6685  160.1510 H   0  0  0  0  0  0  0  0  0  0  0  0
  152.4413  141.4072  160.4173 H   0  0  0  0  0  0  0  0  0  0  0  0
  154.0754  141.2574  159.7886 H   0  0  0  0  0  0  0  0  0  0  0  0
  1  2  3  0  0  0  0
  2  3  1  0  0  0  0
  3 10  1  0  0  0  0
  3  4  2  0  0  0  0
  4  5  1  0  0  0  0
  4  6  1  0  0  0  0
  6  7  2  0  0  0  0
  7  8  1  0  0  0  0
  7  9  1  0  0  0  0
  8 17  1  0  0  0  0
  8 18  1  0  0  0  0
  9 10  2  0  0  0  0
 10 11  1  0  0  0  0
 11 16  1  0  0  0  0
 11 12  1  0  0  0  0
 12 13  1  0  0  0  0
 12 19  1  0  0  0  0
 12 20  1  0  0  0  0
 13 14  1  0  0  0  0
 13 21  1  0  0  0  0
 13 22  1  0  0  0  0
 14 15  1  0  0  0  0
 15 16  1  0  0  0  0
 15 23  1  0  0  0  0
 15 24  1  0  0  0  0
 16 25  1  0  0  0  0
 16 26  1  0  0  0  0
M  CHG  1   5  -1
M  END
> <s_m_source_file>
AV-unprocessed.smi

> <i_m_source_file_index>
2938

> <i_lp_mmshare_version>
43012

> <i_f3d_flags>
0

> <s_epik_input>
TiNDYzFjKFtPSF0pbmMoW05IMl0pbmMxTjJbQ0gyXVtDSDJdT1tDSDJdW0NIMl0y

> <s_epik_cmdline>
J2VwaWtfcHl0aG9uJywgJy1waCcsICc3LjAnLCAnLXRuJywgJzgnLCAnLW1hJywgJzIwMCcsICctbWV0YWxfYmluZGluZycsICctaW1hZScsICc8aW5maWxlLm1hZT4nLCAnLW9tYWUnLCAnPG91dGZpbGUubWFlPic=

> <r_lp_tautomer_probability>
1

> <r_epik_Ionization_Penalty>
0.00503702

> <r_epik_Ionization_Penalty_Charging>
2.31924e-12

> <r_epik_Ionization_Penalty_Neutral>
0.00503702

> <r_epik_State_Penalty>
-0

> <r_epik_Charging_Adjusted_Penalty>
2.31924e-12

> <i_epik_Tot_Q>
-1

> <i_epik_Tot_abs_Q>
1

> <r_epik_Metal_State_Penalty>
-0

> <b_epik_Metal_Only>
0

> <s_lp_Force_Field>
OPLS_2005

> <r_lp_Energy>
14.7587

> <b_lp_Chiralities_Consistent>
1

> <s_lp_Variant>
AV-unprocessed.smi:2938-1

> <Gold.Version>
5.8.1

> <Gold.Id.Protein>
6NUR|6NUR_protein|mol2

> <Gold.PLP.Fitness>
34.1744

> <Gold.PLP.PLP>
-23.9940

> <Gold.PLP.part.hbond>
-2.7510

> <Gold.PLP.part.metal>
0.0000

> <Gold.PLP.part.buried>
-5.4164

> <Gold.PLP.part.nonpolar>
-16.5725

> <Gold.PLP.part.repulsive>
0.1536

> <Gold.PLP.ligand.clash>
0.0000

> <Gold.PLP.ligand.torsion>
0.1212

> <Gold.PLP.Chemscore.Hbond>
3.4354

> <Gold.PLP.Chemscore.CHOScore>
0.0000

> <Gold.PLP.Chemscore.Metal>
0.0000

> <Gold.Chemscore.Hbonds>
donor molecule, donor type, donor heavy atom, donor atom, acceptor molecule, acceptor atom, score
      P1  H  6896  6907       L1     6  0.56
      P1  H  7989  7998       L1     1  1.00
      P1  H 10752 10764       L1     5  1.92

> <Gold.PLP.Chemscore.Internal.Correction>
0.1165

> <Gold.Rescore>
     Score         DG    S(hbond)    S(metal)    S(lipo)     H(rot)  DE(clash)    DE(int)     intcor
     14.19     -14.46       1.99        0.00      41.84       1.00       0.00       0.27       ----

> <Gold.Chemscore.Fitness>
14.1885

> <Gold.Chemscore.DG>
-14.4604

> <Gold.Chemscore.ZeroCoef>
-5.4800

> <Gold.Chemscore.Hbond>
1.9896

> <Gold.Chemscore.Metal>
0.0000

> <Gold.Chemscore.Lipo>
41.8377

> <Gold.Chemscore.Internal_Hbond>
0.0000

> <Gold.Chemscore.DEClash>
0.0000

> <Gold.Chemscore.DEInternal>
0.2719

> <Gold.Chemscore.Rot>
1.0000

> <Gold.Chemscore.Internal.Correction>
   9.000000E+99

> <Gold.Chemscore.Hbonds>
donor molecule, donor type, donor heavy atom, donor atom, acceptor molecule, acceptor atom, score
      P1  H  6896  6907       L1     6  0.16
      P1  H  7989  7998       L1     1  0.91
      P1  H 10752 10764       L1     5  0.90

> <Gold.Chemscore.Hbond.Weighted>
-6.6454

> <Gold.Chemscore.Metal.Weighted>
-0.0000

> <Gold.Chemscore.Lipo.Weighted>
-4.8950

> <Gold.Chemscore.Internal_Hbond.Weighted>
0.0000

> <Gold.Chemscore.DEClash.Weighted>
0.0000

> <Gold.Chemscore.DEInternal.Weighted>
0.2719

> <Gold.Chemscore.Rot.Weighted>
2.5600

> <Gold.Chemscore.Internal.Correction.Weighted>
   9.000000E+99

> <Gold.Protein.RotatedTorsions>
[ 6907 6896 6895 6894 ] final   23.72 input  -60.11 | X-H torsion
[ 7974 7965 7964 7962 ] final  -52.68 input  175.53 | X-H torsion
[ 8008 7997 7996 7995 ] final  -57.24 input   59.86 | X-H torsion
[ 10167 10162 10161 10158 ] final  158.79 input  -65.29 | X-H torsion
[ 10718 10713 10712 10709 ] final -102.11 input   66.30 | X-H torsion
[ 10763 10752 10751 10750 ] final   -3.47 input  -60.55 | X-H torsion
[ 11005 11000 10999 10996 ] final  -69.51 input  -57.11 | X-H torsion

> <Gold.Protein.ActiveResidues>
 VAL166  LYS551  ARG553  GLY616  TRP617  ASP618  TYR619  PRO620  LYS621  CYS622 
 ASP623  PHE694  ASN695  SER759  ASP760  ASP761  ALA762  ILE779  LEU786  VAL792 
 PHE793  MET794  SER795  GLU796  ALA797  LYS798  CYS799  TRP800  GLU811  SER814 

> <Gold.Protein.RotatedAtoms>
  151.9467  135.0188  160.0539 H   0  0  0  0  0  0  0  0  0  0  0  0  # atno 6907 bound_to 6896
  152.1989  133.4822  159.5056 H   0  0  0  0  0  0  0  0  0  0  0  0  # atno 6908 bound_to 6896
  150.6950  134.1533  159.4191 H   0  0  0  0  0  0  0  0  0  0  0  0  # atno 6909 bound_to 6896
  145.9053  140.7960  142.9722 H   0  0  0  0  0  0  0  0  0  0  0  0  # atno 7974 bound_to 7965
  154.4260  140.1111  156.5766 H   0  0  0  0  0  0  0  0  0  0  0  0  # atno 8008 bound_to 7997
  155.6157  140.3494  155.4617 H   0  0  0  0  0  0  0  0  0  0  0  0  # atno 8009 bound_to 7997
  156.0064  140.1210  157.0486 H   0  0  0  0  0  0  0  0  0  0  0  0  # atno 8010 bound_to 7997
  139.4828  144.4791  151.8469 H   0  0  0  0  0  0  0  0  0  0  0  0  # atno 10167 bound_to 10162
  156.0217  130.5405  150.7061 H   0  0  0  0  0  0  0  0  0  0  0  0  # atno 10718 bound_to 10713
  153.3718  135.6995  153.6632 H   0  0  0  0  0  0  0  0  0  0  0  0  # atno 10763 bound_to 10752
  153.5279  135.3598  155.2663 H   0  0  0  0  0  0  0  0  0  0  0  0  # atno 10764 bound_to 10752
  154.8682  135.4173  154.2998 H   0  0  0  0  0  0  0  0  0  0  0  0  # atno 10765 bound_to 10752
  141.1555  133.6766  156.6610 H   0  0  0  0  0  0  0  0  0  0  0  0  # atno 11005 bound_to 11000
  144.6739  140.1741  143.7412 LP  0  0  0  0  0  0  0  0  0  0  0  0  # atno 17320 bound_to 7965
  145.8740  139.2287  143.1644 LP  0  0  0  0  0  0  0  0  0  0  0  0  # atno 17321 bound_to 7965
  140.4266  144.2172  150.5887 LP  0  0  0  0  0  0  0  0  0  0  0  0  # atno 17342 bound_to 10162
  140.4821  143.2375  151.8940 LP  0  0  0  0  0  0  0  0  0  0  0  0  # atno 17343 bound_to 10162
  157.4710  131.0893  151.0642 LP  0  0  0  0  0  0  0  0  0  0  0  0  # atno 17370 bound_to 10713
  157.1103  130.6019  149.5480 LP  0  0  0  0  0  0  0  0  0  0  0  0  # atno 17371 bound_to 10713
  140.3248  134.7978  157.4280 LP  0  0  0  0  0  0  0  0  0  0  0  0  # atno 17394 bound_to 11000
  140.1067  134.5401  155.8303 LP  0  0  0  0  0  0  0  0  0  0  0  0  # atno 17395 bound_to 11000

$$$$
