AV-unprocessed.smi:1172|AV-procd|sdf|4943|dock1
  -GOLD-   22720 3523D 1   1.00000     0.00000
 Structure written by MMmdl.
 36 37  0  0  0  0  0  0  0  0  1 V2000
  149.5040  131.2527  157.6659 N   0  0  0  0  0  0  0  0  0  0  0  0
  150.7740  131.4027  157.2801 C   0  0  0  0  0  0  0  0  0  0  0  0
  151.6736  131.6723  158.0729 O   0  0  0  0  0  0  0  0  0  0  0  0
  151.0790  131.2222  155.7917 C   0  0  0  0  0  0  0  0  0  0  0  0
  150.3336  132.1728  154.9856 N   0  0  0  0  0  0  0  0  0  0  0  0
  149.4121  131.9100  153.9905 C   0  0  0  0  0  0  0  0  0  0  0  0
  148.9977  133.1304  153.5374 C   0  0  0  0  0  0  0  0  0  0  0  0
  148.0595  133.4446  152.5216 N   0  0  0  0  0  0  0  0  0  0  0  0
  147.0673  132.6687  152.0443 C   0  0  0  0  0  0  0  0  0  0  0  0
  146.8861  131.5077  152.4135 O   0  0  0  0  0  0  0  0  0  0  0  0
  146.3097  133.2593  151.0845 N   0  0  0  0  0  0  0  0  0  0  0  0
  146.0501  134.7041  150.9478 C   0  0  0  0  0  0  0  0  0  0  0  0
  144.6227  135.0005  151.4439 C   0  0  0  0  0  0  0  0  0  0  0  0
  143.5883  134.1568  150.6753 C   0  0  0  0  0  0  0  0  0  0  0  0
  143.9737  132.6635  150.6611 C   0  0  1  0  0  0  0  0  0  0  0  0
  143.1074  131.9612  149.7958 O   0  0  0  0  0  0  0  0  0  0  0  0
  145.4329  132.4783  150.2010 C   0  0  0  0  0  0  0  0  0  0  0  0
  149.7078  134.0895  154.3049 C   0  0  0  0  0  0  0  0  0  0  0  0
  150.5119  133.5039  155.1789 N   0  0  0  0  0  0  0  0  0  0  0  0
  149.2617  131.3639  158.6398 H   0  0  0  0  0  0  0  0  0  0  0  0
  148.7910  131.0295  156.9867 H   0  0  0  0  0  0  0  0  0  0  0  0
  152.1441  131.3579  155.5982 H   0  0  0  0  0  0  0  0  0  0  0  0
  150.8257  130.2057  155.4860 H   0  0  0  0  0  0  0  0  0  0  0  0
  149.1486  130.9018  153.7070 H   0  0  0  0  0  0  0  0  0  0  0  0
  148.1356  134.3698  152.1250 H   0  0  0  0  0  0  0  0  0  0  0  0
  146.7626  135.3363  151.4774 H   0  0  0  0  0  0  0  0  0  0  0  0
  146.1434  134.9857  149.8979 H   0  0  0  0  0  0  0  0  0  0  0  0
  144.5546  134.7818  152.5105 H   0  0  0  0  0  0  0  0  0  0  0  0
  144.3974  136.0610  151.3298 H   0  0  0  0  0  0  0  0  0  0  0  0
  142.5967  134.2901  151.1093 H   0  0  0  0  0  0  0  0  0  0  0  0
  143.5287  134.5259  149.6502 H   0  0  0  0  0  0  0  0  0  0  0  0
  143.8567  132.2494  151.6636 H   0  0  0  0  0  0  0  0  0  0  0  0
  142.3222  132.4727  149.6755 H   0  0  0  0  0  0  0  0  0  0  0  0
  145.5552  132.8278  149.1743 H   0  0  0  0  0  0  0  0  0  0  0  0
  145.6923  131.4184  150.1827 H   0  0  0  0  0  0  0  0  0  0  0  0
  149.6680  135.1678  154.2594 H   0  0  0  0  0  0  0  0  0  0  0  0
  1  2  1  0  0  0  0
  1 20  1  0  0  0  0
  1 21  1  0  0  0  0
  2  3  2  0  0  0  0
  2  4  1  0  0  0  0
  4  5  1  0  0  0  0
  4 22  1  0  0  0  0
  4 23  1  0  0  0  0
  5 19  1  0  0  0  0
  5  6  1  0  0  0  0
  6  7  2  0  0  0  0
  6 24  1  0  0  0  0
  7  8  1  0  0  0  0
  7 18  1  0  0  0  0
  8  9  1  0  0  0  0
  8 25  1  0  0  0  0
  9 10  2  0  0  0  0
  9 11  1  0  0  0  0
 11 17  1  0  0  0  0
 11 12  1  0  0  0  0
 12 13  1  0  0  0  0
 12 26  1  0  0  0  0
 12 27  1  0  0  0  0
 13 14  1  0  0  0  0
 13 28  1  0  0  0  0
 13 29  1  0  0  0  0
 14 15  1  0  0  0  0
 14 30  1  0  0  0  0
 14 31  1  0  0  0  0
 15 16  1  0  0  0  0
 15 17  1  0  0  0  0
 15 32  1  0  0  0  0
 16 33  1  0  0  0  0
 17 34  1  0  0  0  0
 17 35  1  0  0  0  0
 18 19  2  0  0  0  0
 18 36  1  0  0  0  0
M  END
> <s_m_source_file>
AV-unprocessed.smi

> <i_m_source_file_index>
1172

> <i_lp_mmshare_version>
43012

> <i_f3d_flags>
0

> <s_epik_input>
W05IMl1DKD1PKVtDSDJdbjFbY0hdYyhbY0hdbjEpW05IXUMoPU8pTjJbQ0gyXVtDSDJdW0NIMl1bQ0BASF0oW09IXSlbQ0gyXTI=

> <s_epik_cmdline>
J2VwaWtfcHl0aG9uJywgJy1waCcsICc3LjAnLCAnLXRuJywgJzgnLCAnLW1hJywgJzIwMCcsICctbWV0YWxfYmluZGluZycsICctaW1hZScsICc8aW5maWxlLm1hZT4nLCAnLW9tYWUnLCAnPG91dGZpbGUubWFlPic=

> <r_lp_tautomer_probability>
1

> <r_epik_Ionization_Penalty>
4.44977e-05

> <r_epik_Ionization_Penalty_Charging>
0

> <r_epik_Ionization_Penalty_Neutral>
4.44977e-05

> <r_epik_State_Penalty>
-0

> <r_epik_Charging_Adjusted_Penalty>
0

> <i_epik_Tot_Q>
0

> <i_epik_Tot_abs_Q>
0

> <r_epik_Metal_State_Penalty>
-0

> <b_epik_Metal_Only>
0

> <s_lp_Force_Field>
OPLS_2005

> <r_lp_Energy>
33.3056

> <b_lp_Chiralities_Consistent>
1

> <s_lp_Variant>
AV-unprocessed.smi:1172-1

> <Gold.Version>
5.8.1

> <Gold.Id.Protein>
6NUR|6NUR_protein|mol2

> <Gold.PLP.Fitness>
42.5533

> <Gold.PLP.PLP>
-31.7309

> <Gold.PLP.part.hbond>
-4.5421

> <Gold.PLP.part.metal>
0.0000

> <Gold.PLP.part.buried>
-0.8143

> <Gold.PLP.part.nonpolar>
-27.1040

> <Gold.PLP.part.repulsive>
0.2374

> <Gold.PLP.ligand.clash>
0.0000

> <Gold.PLP.ligand.torsion>
0.3260

> <Gold.PLP.Chemscore.Hbond>
3.1825

> <Gold.PLP.Chemscore.CHOScore>
0.6129

> <Gold.PLP.Chemscore.Metal>
0.0000

> <Gold.Chemscore.Hbonds>
donor molecule, donor type, donor heavy atom, donor atom, acceptor molecule, acceptor atom, score
      L1  H     8    25       P1  7948  0.70
      L1  H    16    33       P1 10186  0.21
      P1  H  6896  6907       L1     3  1.00
      P1  H 10785 10796       L1    16  0.81
      L1  C    18    36       P1  7948  0.39

> <Gold.PLP.Chemscore.Internal.Correction>
0.0881

> <Gold.Rescore>
     Score         DG    S(hbond)    S(metal)    S(lipo)     H(rot)  DE(clash)    DE(int)     intcor
     13.13     -16.08       2.78        0.00      59.41       2.20       1.59       1.35       ----

> <Gold.Chemscore.Fitness>
13.1332

> <Gold.Chemscore.DG>
-16.0781

> <Gold.Chemscore.ZeroCoef>
-5.4800

> <Gold.Chemscore.Hbond>
2.7756

> <Gold.Chemscore.Metal>
0.0000

> <Gold.Chemscore.Lipo>
59.4092

> <Gold.Chemscore.Internal_Hbond>
0.0000

> <Gold.Chemscore.DEClash>
1.5940

> <Gold.Chemscore.DEInternal>
1.3509

> <Gold.Chemscore.Rot>
2.1966

> <Gold.Chemscore.Internal.Correction>
   9.000000E+99

> <Gold.Chemscore.Hbonds>
donor molecule, donor type, donor heavy atom, donor atom, acceptor molecule, acceptor atom, score
      L1  H     8    25       P1  7948  0.07
      L1  H    16    33       P1 10186  0.23
      P1  H  6896  6907       L1     3  0.95
      P1  H 10785 10796       L1    16  0.74

> <Gold.Chemscore.Hbond.Weighted>
-9.2704

> <Gold.Chemscore.Metal.Weighted>
-0.0000

> <Gold.Chemscore.Lipo.Weighted>
-6.9509

> <Gold.Chemscore.Internal_Hbond.Weighted>
0.0000

> <Gold.Chemscore.DEClash.Weighted>
1.5940

> <Gold.Chemscore.DEInternal.Weighted>
1.3509

> <Gold.Chemscore.Rot.Weighted>
5.6232

> <Gold.Chemscore.Internal.Correction.Weighted>
   9.000000E+99

> <Gold.Protein.RotatedTorsions>
[ 6907 6896 6895 6894 ] final -177.41 input  -60.11 | X-H torsion
[ 7974 7965 7964 7962 ] final  -59.71 input  175.53 | X-H torsion
[ 8008 7997 7996 7995 ] final  -50.10 input   59.86 | X-H torsion
[ 10167 10162 10161 10158 ] final -136.09 input  -65.29 | X-H torsion
[ 10718 10713 10712 10709 ] final  127.79 input   66.30 | X-H torsion
[ 10763 10752 10751 10750 ] final   96.58 input  -60.55 | X-H torsion
[ 11005 11000 10999 10996 ] final  -67.33 input  -57.11 | X-H torsion

> <Gold.Protein.ActiveResidues>
 VAL166  LYS551  ARG553  GLY616  TRP617  ASP618  TYR619  PRO620  LYS621  CYS622 
 ASP623  PHE694  ASN695  SER759  ASP760  ASP761  ALA762  ILE779  LEU786  VAL792 
 PHE793  MET794  SER795  GLU796  ALA797  LYS798  CYS799  TRP800  GLU811  SER814 

> <Gold.Protein.RotatedAtoms>
  151.6205  133.3339  159.3086 H   0  0  0  0  0  0  0  0  0  0  0  0  # atno 6907 bound_to 6896
  150.8108  134.7266  159.6698 H   0  0  0  0  0  0  0  0  0  0  0  0  # atno 6908 bound_to 6896
  152.4205  134.5969  160.0041 H   0  0  0  0  0  0  0  0  0  0  0  0  # atno 6909 bound_to 6896
  145.8242  140.8521  143.0117 H   0  0  0  0  0  0  0  0  0  0  0  0  # atno 7974 bound_to 7965
  154.4056  140.1280  156.4611 H   0  0  0  0  0  0  0  0  0  0  0  0  # atno 8008 bound_to 7997
  155.7271  140.3492  155.5023 H   0  0  0  0  0  0  0  0  0  0  0  0  # atno 8009 bound_to 7997
  155.9161  140.1044  157.1233 H   0  0  0  0  0  0  0  0  0  0  0  0  # atno 8010 bound_to 7997
  139.8713  143.6954  152.2639 H   0  0  0  0  0  0  0  0  0  0  0  0  # atno 10167 bound_to 10162
  157.5302  131.1098  150.9021 H   0  0  0  0  0  0  0  0  0  0  0  0  # atno 10718 bound_to 10713
  153.2667  135.4213  155.0947 H   0  0  0  0  0  0  0  0  0  0  0  0  # atno 10763 bound_to 10752
  154.8441  135.3462  154.6301 H   0  0  0  0  0  0  0  0  0  0  0  0  # atno 10764 bound_to 10752
  153.6721  135.7043  153.5201 H   0  0  0  0  0  0  0  0  0  0  0  0  # atno 10765 bound_to 10752
  141.1505  133.6717  156.6275 H   0  0  0  0  0  0  0  0  0  0  0  0  # atno 11005 bound_to 11000
  144.6745  140.0578  143.7477 LP  0  0  0  0  0  0  0  0  0  0  0  0  # atno 17320 bound_to 7965
  145.9641  139.2822  143.1138 LP  0  0  0  0  0  0  0  0  0  0  0  0  # atno 17321 bound_to 7965
  139.7281  144.7588  151.0845 LP  0  0  0  0  0  0  0  0  0  0  0  0  # atno 17342 bound_to 10162
  140.7760  143.5122  150.9638 LP  0  0  0  0  0  0  0  0  0  0  0  0  # atno 17343 bound_to 10162
  156.9605  130.5453  149.5286 LP  0  0  0  0  0  0  0  0  0  0  0  0  # atno 17370 bound_to 10713
  156.0416  130.5498  150.8785 LP  0  0  0  0  0  0  0  0  0  0  0  0  # atno 17371 bound_to 10713
  140.3492  134.7783  157.4454 LP  0  0  0  0  0  0  0  0  0  0  0  0  # atno 17394 bound_to 11000
  140.0874  134.5647  155.8478 LP  0  0  0  0  0  0  0  0  0  0  0  0  # atno 17395 bound_to 11000

$$$$
