AV-unprocessed.smi:33|AV-procd|sdf|202|dock3
  -GOLD-   2262015483D 1   1.00000     0.00000
 Structure written by MMmdl.
 67 72  0  0  0  0  0  0  0  0  1 V2000
  153.0782  139.9999  158.3616 O   0  0  0  0  0  0  0  0  0  0  0  0
  152.3566  140.9789  158.1594 C   0  0  0  0  0  0  0  0  0  0  0  0
  151.5709  141.1140  157.0730 O   0  0  0  0  0  0  0  0  0  0  0  0
  151.6517  140.1671  156.0198 C   0  0  0  0  0  0  0  0  0  0  0  0
  150.5171  139.1453  156.1548 C   0  0  1  0  0  0  0  0  0  0  0  0
  149.8491  139.3214  157.3951 O   0  0  0  0  0  0  0  0  0  0  0  0
  148.5980  138.7106  157.3281 C   0  0  2  0  0  0  0  0  0  0  0  0
  148.7523  137.3080  157.8436 N   0  0  0  0  0  0  0  0  0  0  0  0
  149.8738  136.6524  158.3149 C   0  0  0  0  0  0  0  0  0  0  0  0
  149.6772  135.4299  158.7295 N   0  0  0  0  0  0  0  0  0  0  0  0
  148.3142  135.2335  158.5574 C   0  0  0  0  0  0  0  0  0  0  0  0
  147.4310  134.1497  158.8106 C   0  0  0  0  0  0  0  0  0  0  0  0
  147.8483  132.9668  159.3187 N   0  0  0  0  0  0  0  0  0  0  0  0
  147.1624  132.4672  160.5204 C   0  0  0  0  0  0  0  0  0  0  0  0
  147.1759  131.2598  160.7679 O   0  0  0  0  0  0  0  0  0  0  0  0
  146.3987  133.4052  161.4126 C   0  0  0  0  0  0  0  0  0  0  0  0
  145.1790  132.9909  161.9917 C   0  0  0  0  0  0  0  0  0  0  0  0
  144.4611  133.8605  162.8355 C   0  0  0  0  0  0  0  0  0  0  0  0
  144.9671  135.1430  163.1205 C   0  0  0  0  0  0  0  0  0  0  0  0
  146.1974  135.5513  162.5712 C   0  0  0  0  0  0  0  0  0  0  0  0
  146.9163  134.6821  161.7280 C   0  0  0  0  0  0  0  0  0  0  0  0
  148.9530  132.2961  158.6183 C   0  0  0  0  0  0  0  0  0  0  0  0
  149.6817  131.5174  159.2362 O   0  0  0  0  0  0  0  0  0  0  0  0
  149.2251  132.5870  157.1700 C   0  0  0  0  0  0  0  0  0  0  0  0
  150.5550  132.6552  156.6999 C   0  0  0  0  0  0  0  0  0  0  0  0
  150.8146  132.9139  155.3401 C   0  0  0  0  0  0  0  0  0  0  0  0
  149.7467  133.0856  154.4388 C   0  0  0  0  0  0  0  0  0  0  0  0
  148.4184  132.9892  154.8953 C   0  0  0  0  0  0  0  0  0  0  0  0
  148.1578  132.7333  156.2553 C   0  0  0  0  0  0  0  0  0  0  0  0
  146.1137  134.3204  158.5273 N   0  0  0  0  0  0  0  0  0  0  0  0
  145.6892  135.4829  158.0229 C   0  0  0  0  0  0  0  0  0  0  0  0
  146.3989  136.5756  157.7297 N   0  0  0  0  0  0  0  0  0  0  0  0
  147.7231  136.4064  158.0142 C   0  0  0  0  0  0  0  0  0  0  0  0
  148.1637  138.7331  155.8486 C   0  0  1  0  0  0  0  0  0  0  0  0
  147.0296  139.5487  155.6365 O   0  0  0  0  0  0  0  0  0  0  0  0
  149.3841  139.3180  155.1423 C   0  0  2  0  0  0  0  0  0  0  0  0
  149.6409  138.6760  154.0021 F   0  0  0  0  0  0  0  0  0  0  0  0
  152.2665  142.1397  159.0916 C   0  0  0  0  0  0  0  0  0  0  0  0
  152.6930  141.9859  160.4314 C   0  0  0  0  0  0  0  0  0  0  0  0
  152.6235  143.0639  161.3352 C   0  0  0  0  0  0  0  0  0  0  0  0
  152.1257  144.3092  160.9100 C   0  0  0  0  0  0  0  0  0  0  0  0
  151.6968  144.4750  159.5801 C   0  0  0  0  0  0  0  0  0  0  0  0
  151.7661  143.3980  158.6745 C   0  0  0  0  0  0  0  0  0  0  0  0
  151.5634  140.6871  155.0649 H   0  0  0  0  0  0  0  0  0  0  0  0
  152.6210  139.6668  156.0313 H   0  0  0  0  0  0  0  0  0  0  0  0
  150.9211  138.1331  156.1156 H   0  0  0  0  0  0  0  0  0  0  0  0
  147.8866  139.1854  158.0051 H   0  0  0  0  0  0  0  0  0  0  0  0
  150.8545  137.1039  158.3454 H   0  0  0  0  0  0  0  0  0  0  0  0
  144.7802  132.0094  161.7788 H   0  0  0  0  0  0  0  0  0  0  0  0
  143.5220  133.5429  163.2644 H   0  0  0  0  0  0  0  0  0  0  0  0
  144.4150  135.8101  163.7660 H   0  0  0  0  0  0  0  0  0  0  0  0
  146.5905  136.5316  162.7967 H   0  0  0  0  0  0  0  0  0  0  0  0
  147.8609  135.0055  161.3152 H   0  0  0  0  0  0  0  0  0  0  0  0
  151.3817  132.5251  157.3834 H   0  0  0  0  0  0  0  0  0  0  0  0
  151.8337  132.9797  154.9886 H   0  0  0  0  0  0  0  0  0  0  0  0
  149.9469  133.2833  153.3960 H   0  0  0  0  0  0  0  0  0  0  0  0
  147.5989  133.1102  154.2025 H   0  0  0  0  0  0  0  0  0  0  0  0
  147.1345  132.6566  156.5943 H   0  0  0  0  0  0  0  0  0  0  0  0
  144.6292  135.5473  157.8262 H   0  0  0  0  0  0  0  0  0  0  0  0
  147.9321  137.7284  155.4955 H   0  0  0  0  0  0  0  0  0  0  0  0
  146.4850  139.1411  154.9802 H   0  0  0  0  0  0  0  0  0  0  0  0
  149.2384  140.3742  154.9090 H   0  0  0  0  0  0  0  0  0  0  0  0
  153.0798  141.0395  160.7813 H   0  0  0  0  0  0  0  0  0  0  0  0
  152.9530  142.9340  162.3556 H   0  0  0  0  0  0  0  0  0  0  0  0
  152.0728  145.1357  161.6033 H   0  0  0  0  0  0  0  0  0  0  0  0
  151.3136  145.4305  159.2533 H   0  0  0  0  0  0  0  0  0  0  0  0
  151.4283  143.5591  157.6610 H   0  0  0  0  0  0  0  0  0  0  0  0
  1  2  2  0  0  0  0
  2  3  1  0  0  0  0
  2 38  1  0  0  0  0
  3  4  1  0  0  0  0
  4  5  1  0  0  0  0
  4 44  1  0  0  0  0
  4 45  1  0  0  0  0
  5 36  1  0  0  0  0
  5  6  1  0  0  0  0
  5 46  1  0  0  0  0
  6  7  1  0  0  0  0
  7  8  1  0  0  0  0
  7 34  1  0  0  0  0
  7 47  1  0  0  0  0
  8 33  1  0  0  0  0
  8  9  1  0  0  0  0
  9 10  2  0  0  0  0
  9 48  1  0  0  0  0
 10 11  1  0  0  0  0
 11 33  2  0  0  0  0
 11 12  1  0  0  0  0
 12 13  1  0  0  0  0
 12 30  2  0  0  0  0
 13 14  1  0  0  0  0
 13 22  1  0  0  0  0
 14 15  2  0  0  0  0
 14 16  1  0  0  0  0
 16 21  1  0  0  0  0
 16 17  2  0  0  0  0
 17 18  1  0  0  0  0
 17 49  1  0  0  0  0
 18 19  2  0  0  0  0
 18 50  1  0  0  0  0
 19 20  1  0  0  0  0
 19 51  1  0  0  0  0
 20 21  2  0  0  0  0
 20 52  1  0  0  0  0
 21 53  1  0  0  0  0
 22 23  2  0  0  0  0
 22 24  1  0  0  0  0
 24 29  1  0  0  0  0
 24 25  2  0  0  0  0
 25 26  1  0  0  0  0
 25 54  1  0  0  0  0
 26 27  2  0  0  0  0
 26 55  1  0  0  0  0
 27 28  1  0  0  0  0
 27 56  1  0  0  0  0
 28 29  2  0  0  0  0
 28 57  1  0  0  0  0
 29 58  1  0  0  0  0
 30 31  1  0  0  0  0
 31 32  2  0  0  0  0
 31 59  1  0  0  0  0
 32 33  1  0  0  0  0
 34 35  1  0  0  0  0
 34 36  1  0  0  0  0
 34 60  1  0  0  0  0
 35 61  1  0  0  0  0
 36 37  1  0  0  0  0
 36 62  1  0  0  0  0
 38 43  1  0  0  0  0
 38 39  2  0  0  0  0
 39 40  1  0  0  0  0
 39 63  1  0  0  0  0
 40 41  2  0  0  0  0
 40 64  1  0  0  0  0
 41 42  1  0  0  0  0
 41 65  1  0  0  0  0
 42 43  2  0  0  0  0
 42 66  1  0  0  0  0
 43 67  1  0  0  0  0
M  END
> <s_m_source_file>
AV-unprocessed.smi

> <i_m_source_file_index>
33

> <i_lp_mmshare_version>
43012

> <i_f3d_flags>
0

> <s_epik_input>
W2NIXTFbY0hdW2NIXVtjSF1bY0hdYzFDKD1PKU9bQ0gyXVtDQEBIXTJPW0NASF0oW0NAQEhdKFtPSF0pW0NAQEhdMkYpbihbY0hdbjMpYyhjMzQpbltjSF1uYzROKEMoPU8pYzVbY0hdW2NIXVtjSF1bY0hdW2NIXTUpQyg9TyljNltjSF1bY0hdW2NIXVtjSF1bY0hdNg==

> <s_epik_cmdline>
J2VwaWtfcHl0aG9uJywgJy1waCcsICc3LjAnLCAnLXRuJywgJzgnLCAnLW1hJywgJzIwMCcsICctbWV0YWxfYmluZGluZycsICctaW1hZScsICc8aW5maWxlLm1hZT4nLCAnLW9tYWUnLCAnPG91dGZpbGUubWFlPic=

> <r_lp_tautomer_probability>
1

> <r_epik_Ionization_Penalty>
0.00067664

> <r_epik_Ionization_Penalty_Charging>
0

> <r_epik_Ionization_Penalty_Neutral>
0.00067664

> <r_epik_State_Penalty>
0.000428095

> <r_epik_Charging_Adjusted_Penalty>
0.000428095

> <i_epik_Tot_Q>
0

> <i_epik_Tot_abs_Q>
0

> <r_epik_Metal_State_Penalty>
-0

> <b_epik_Metal_Only>
0

> <s_epik_Chemistry_Notes>
This compound has an ester and may undergo hydrolysis at high or low pH. This compound contains an acetal/aminal-like group ( X-CH(R)-Y where X, Y are N, S, or O) that may be acid/base labile, releasing an aldehyde.

> <s_lp_Force_Field>
OPLS_2005

> <r_lp_Energy>
69.1038

> <b_lp_Chiralities_Consistent>
1

> <s_lp_Variant>
AV-unprocessed.smi:33-4

> <Gold.Version>
5.8.1

> <Gold.Id.Protein>
6NUR|6NUR_protein|mol2

> <Gold.PLP.Fitness>
58.6401

> <Gold.PLP.PLP>
-56.5066

> <Gold.PLP.part.hbond>
-2.4018

> <Gold.PLP.part.metal>
0.0000

> <Gold.PLP.part.buried>
-6.0541

> <Gold.PLP.part.nonpolar>
-46.9657

> <Gold.PLP.part.repulsive>
0.0127

> <Gold.PLP.ligand.clash>
0.0000

> <Gold.PLP.ligand.torsion>
3.7990

> <Gold.PLP.Chemscore.Hbond>
2.0000

> <Gold.PLP.Chemscore.CHOScore>
0.0000

> <Gold.PLP.Chemscore.Metal>
0.0000

> <Gold.Chemscore.Hbonds>
donor molecule, donor type, donor heavy atom, donor atom, acceptor molecule, acceptor atom, score
      P1  H  6896  6907       L1    10  1.00
      P1  H  7997  8010       L1     1  1.00

> <Gold.PLP.Chemscore.Internal.Correction>
3.7316

> <Gold.Rescore>
     Score         DG    S(hbond)    S(metal)    S(lipo)     H(rot)  DE(clash)    DE(int)     intcor
     16.08     -23.34       1.88        0.00     154.30       2.52       0.56       6.70       ----

> <Gold.Chemscore.Fitness>
16.0788

> <Gold.Chemscore.DG>
-23.3432

> <Gold.Chemscore.ZeroCoef>
-5.4800

> <Gold.Chemscore.Hbond>
1.8781

> <Gold.Chemscore.Metal>
0.0000

> <Gold.Chemscore.Lipo>
154.3040

> <Gold.Chemscore.Internal_Hbond>
0.0000

> <Gold.Chemscore.DEClash>
0.5624

> <Gold.Chemscore.DEInternal>
6.7020

> <Gold.Chemscore.Rot>
2.5247

> <Gold.Chemscore.Internal.Correction>
   9.000000E+99

> <Gold.Chemscore.Hbonds>
donor molecule, donor type, donor heavy atom, donor atom, acceptor molecule, acceptor atom, score
      P1  H  6896  6907       L1    10  0.95
      P1  H  7997  8010       L1     1  0.60

> <Gold.Chemscore.Hbond.Weighted>
-6.2729

> <Gold.Chemscore.Metal.Weighted>
-0.0000

> <Gold.Chemscore.Lipo.Weighted>
-18.0536

> <Gold.Chemscore.Internal_Hbond.Weighted>
0.0000

> <Gold.Chemscore.DEClash.Weighted>
0.5624

> <Gold.Chemscore.DEInternal.Weighted>
6.7020

> <Gold.Chemscore.Rot.Weighted>
6.4633

> <Gold.Chemscore.Internal.Correction.Weighted>
   9.000000E+99

> <Gold.Protein.RotatedTorsions>
[ 6907 6896 6895 6894 ] final  -83.51 input  -60.11 | X-H torsion
[ 7974 7965 7964 7962 ] final  104.13 input  175.53 | X-H torsion
[ 8008 7997 7996 7995 ] final   36.01 input   59.86 | X-H torsion
[ 10167 10162 10161 10158 ] final -156.21 input  -65.29 | X-H torsion
[ 10718 10713 10712 10709 ] final   74.15 input   66.30 | X-H torsion
[ 10763 10752 10751 10750 ] final  165.36 input  -60.55 | X-H torsion
[ 11005 11000 10999 10996 ] final  -66.75 input  -57.11 | X-H torsion

> <Gold.Protein.ActiveResidues>
 VAL166  LYS551  ARG553  GLY616  TRP617  ASP618  TYR619  PRO620  LYS621  CYS622 
 ASP623  PHE694  ASN695  SER759  ASP760  ASP761  ALA762  ILE779  LEU786  VAL792 
 PHE793  MET794  SER795  GLU796  ALA797  LYS798  CYS799  TRP800  GLU811  SER814 

> <Gold.Protein.RotatedAtoms>
  150.6885  134.3501  159.4904 H   0  0  0  0  0  0  0  0  0  0  0  0  # atno 6907 bound_to 6896
  152.1343  134.9108  160.0566 H   0  0  0  0  0  0  0  0  0  0  0  0  # atno 6908 bound_to 6896
  152.0266  133.3885  159.4317 H   0  0  0  0  0  0  0  0  0  0  0  0  # atno 6909 bound_to 6896
  145.3368  139.2472  143.3631 H   0  0  0  0  0  0  0  0  0  0  0  0  # atno 7974 bound_to 7965
  155.1803  140.3299  155.4376 H   0  0  0  0  0  0  0  0  0  0  0  0  # atno 8008 bound_to 7997
  156.2479  140.1928  156.6852 H   0  0  0  0  0  0  0  0  0  0  0  0  # atno 8009 bound_to 7997
  154.6275  140.0587  156.9678 H   0  0  0  0  0  0  0  0  0  0  0  0  # atno 8010 bound_to 7997
  139.6869  143.9487  152.2365 H   0  0  0  0  0  0  0  0  0  0  0  0  # atno 10167 bound_to 10162
  157.6579  130.9664  150.1170 H   0  0  0  0  0  0  0  0  0  0  0  0  # atno 10718 bound_to 10713
  154.3229  135.2755  155.2511 H   0  0  0  0  0  0  0  0  0  0  0  0  # atno 10763 bound_to 10752
  154.4856  135.5847  153.6425 H   0  0  0  0  0  0  0  0  0  0  0  0  # atno 10764 bound_to 10752
  152.9874  135.6122  154.3415 H   0  0  0  0  0  0  0  0  0  0  0  0  # atno 10765 bound_to 10752
  141.1490  133.6705  156.6187 H   0  0  0  0  0  0  0  0  0  0  0  0  # atno 11005 bound_to 11000
  146.3023  140.3957  142.8699 LP  0  0  0  0  0  0  0  0  0  0  0  0  # atno 17320 bound_to 7965
  144.8821  140.7414  143.5980 LP  0  0  0  0  0  0  0  0  0  0  0  0  # atno 17321 bound_to 7965
  139.9292  144.6752  150.8381 LP  0  0  0  0  0  0  0  0  0  0  0  0  # atno 17342 bound_to 10162
  140.7670  143.3320  151.2389 LP  0  0  0  0  0  0  0  0  0  0  0  0  # atno 17343 bound_to 10162
  156.2051  130.3663  149.8739 LP  0  0  0  0  0  0  0  0  0  0  0  0  # atno 17370 bound_to 10713
  156.6632  130.8790  151.3550 LP  0  0  0  0  0  0  0  0  0  0  0  0  # atno 17371 bound_to 10713
  140.3557  134.7730  157.4499 LP  0  0  0  0  0  0  0  0  0  0  0  0  # atno 17394 bound_to 11000
  140.0825  134.5712  155.8526 LP  0  0  0  0  0  0  0  0  0  0  0  0  # atno 17395 bound_to 11000

$$$$
