AV-unprocessed.smi:2448|AV-procd|sdf|9655|dock4
  -GOLD-   2272013293D 1   1.00000     0.00000
 Structure written by MMmdl.
 38 39  0  0  0  0  0  0  0  0  2 V2000
  145.2882  133.2333  153.3258 O   0  0  0  0  0  0  0  0  0  0  0  0
  146.1364  133.2197  152.1896 C   0  0  1  0  0  0  0  0  0  0  0  0
  147.5557  132.8220  152.6426 C   0  0  0  0  0  0  0  0  0  0  0  0
  148.1578  133.8329  153.5408 N   0  3  0  0  0  0  0  0  0  0  0  0
  149.2555  133.3375  154.4050 C   0  0  2  0  0  0  0  0  0  0  0  0
  148.8369  132.0494  155.1501 C   0  0  0  0  0  0  0  0  0  0  0  0
  149.9983  131.1255  155.4684 C   0  0  0  0  0  0  0  0  0  0  0  0
  150.5524  131.0835  156.7649 C   0  0  0  0  0  0  0  0  0  0  0  0
  151.6128  130.1888  157.0133 C   0  0  0  0  0  0  0  0  0  0  0  0
  152.1260  129.3689  156.0713 N   0  0  0  0  0  0  0  0  0  0  0  0
  151.5952  129.4191  154.8308 C   0  0  0  0  0  0  0  0  0  0  0  0
  150.5329  130.2760  154.4783 C   0  0  0  0  0  0  0  0  0  0  0  0
  149.6810  134.4459  155.3872 C   0  0  0  0  0  0  0  0  0  0  0  0
  150.6941  134.0142  156.1388 F   0  0  0  0  0  0  0  0  0  0  0  0
  150.0709  135.5358  154.7253 F   0  0  0  0  0  0  0  0  0  0  0  0
  148.6676  134.7645  156.1920 F   0  0  0  0  0  0  0  0  0  0  0  0
  145.5536  132.2073  151.1897 C   0  0  0  0  0  0  0  0  0  0  0  0
  144.3056  132.8346  150.5604 C   0  0  0  0  0  0  0  0  0  0  0  0
  144.5972  134.6167  150.4310 S   0  0  0  0  0  0  0  0  0  0  0  0
  146.0756  134.5836  151.4787 C   0  0  0  0  0  0  0  0  0  0  0  0
  144.4131  133.4638  153.0545 H   0  0  0  0  0  0  0  0  0  0  0  0
  147.5213  131.8527  153.1400 H   0  0  0  0  0  0  0  0  0  0  0  0
  148.2039  132.7021  151.7734 H   0  0  0  0  0  0  0  0  0  0  0  0
  148.5307  134.5699  152.9591 H   0  0  0  0  0  0  0  0  0  0  0  0
  150.1225  133.1146  153.7801 H   0  0  0  0  0  0  0  0  0  0  0  0
  148.3496  132.3073  156.0909 H   0  0  0  0  0  0  0  0  0  0  0  0
  148.0938  131.5028  154.5677 H   0  0  0  0  0  0  0  0  0  0  0  0
  150.1744  131.7145  157.5560 H   0  0  0  0  0  0  0  0  0  0  0  0
  152.0573  130.1276  157.9957 H   0  0  0  0  0  0  0  0  0  0  0  0
  152.0264  128.7533  154.0979 H   0  0  0  0  0  0  0  0  0  0  0  0
  150.1391  130.2750  153.4723 H   0  0  0  0  0  0  0  0  0  0  0  0
  146.2828  132.0168  150.4009 H   0  0  0  0  0  0  0  0  0  0  0  0
  145.3315  131.2450  151.6533 H   0  0  0  0  0  0  0  0  0  0  0  0
  144.0754  132.4028  149.5861 H   0  0  0  0  0  0  0  0  0  0  0  0
  143.4402  132.6773  151.2052 H   0  0  0  0  0  0  0  0  0  0  0  0
  146.0800  135.4238  152.1742 H   0  0  0  0  0  0  0  0  0  0  0  0
  146.9381  134.7018  150.8214 H   0  0  0  0  0  0  0  0  0  0  0  0
  147.4379  134.2243  154.1313 H   0  0  0  0  0  0  0  0  0  0  0  0
  1  2  1  0  0  0  0
  1 21  1  0  0  0  0
  2 20  1  0  0  0  0
  2  3  1  0  0  0  0
  2 17  1  0  0  0  0
  3  4  1  0  0  0  0
  3 22  1  0  0  0  0
  3 23  1  0  0  0  0
  4  5  1  0  0  0  0
  4 24  1  0  0  0  0
  4 38  1  0  0  0  0
  5  6  1  0  0  0  0
  5 13  1  0  0  0  0
  5 25  1  0  0  0  0
  6  7  1  0  0  0  0
  6 26  1  0  0  0  0
  6 27  1  0  0  0  0
  7 12  1  0  0  0  0
  7  8  2  0  0  0  0
  8  9  1  0  0  0  0
  8 28  1  0  0  0  0
  9 10  2  0  0  0  0
  9 29  1  0  0  0  0
 10 11  1  0  0  0  0
 11 12  2  0  0  0  0
 11 30  1  0  0  0  0
 12 31  1  0  0  0  0
 13 14  1  0  0  0  0
 13 15  1  0  0  0  0
 13 16  1  0  0  0  0
 17 18  1  0  0  0  0
 17 32  1  0  0  0  0
 17 33  1  0  0  0  0
 18 19  1  0  0  0  0
 18 34  1  0  0  0  0
 18 35  1  0  0  0  0
 19 20  1  0  0  0  0
 20 36  1  0  0  0  0
 20 37  1  0  0  0  0
M  CHG  1   4   1
M  END
> <s_m_source_file>
AV-unprocessed.smi

> <i_m_source_file_index>
2448

> <i_lp_mmshare_version>
43012

> <i_f3d_flags>
0

> <s_epik_input>
W0NIMl0xU1tDSDJdW0NIMl1bQ0BAXTEoW09IXSlbQ0gyXVtOSF1bQ0BASF0oQyhGKShGKUYpW0NIMl1jMltjSF1bY0hdbltjSF1bY0hdMg==

> <s_epik_cmdline>
J2VwaWtfcHl0aG9uJywgJy1waCcsICc3LjAnLCAnLXRuJywgJzgnLCAnLW1hJywgJzIwMCcsICctbWV0YWxfYmluZGluZycsICctaW1hZScsICc8aW5maWxlLm1hZT4nLCAnLW9tYWUnLCAnPG91dGZpbGUubWFlPic=

> <r_epik_Ionization_Penalty>
1.19945

> <r_epik_Ionization_Penalty_Charging>
1.19892

> <r_epik_Ionization_Penalty_Neutral>
0.000532129

> <r_epik_State_Penalty>
0.752927

> <r_epik_Charging_Adjusted_Penalty>
1.95185

> <i_epik_Tot_Q>
1

> <i_epik_Tot_abs_Q>
1

> <r_epik_Metal_State_Penalty>
0.804507

> <b_epik_Metal_Only>
0

> <s_lp_Force_Field>
OPLS_2005

> <r_lp_Energy>
24.3965

> <b_lp_Chiralities_Consistent>
1

> <s_lp_Variant>
AV-unprocessed.smi:2448-5

> <Gold.Version>
5.8.1

> <Gold.Id.Protein>
6NUR|6NUR_protein|mol2

> <Gold.PLP.Fitness>
41.1067

> <Gold.PLP.PLP>
-32.9964

> <Gold.PLP.part.hbond>
-1.0954

> <Gold.PLP.part.metal>
0.0000

> <Gold.PLP.part.buried>
-3.9179

> <Gold.PLP.part.nonpolar>
-28.4268

> <Gold.PLP.part.repulsive>
0.0245

> <Gold.PLP.ligand.clash>
0.0000

> <Gold.PLP.ligand.torsion>
0.7525

> <Gold.PLP.Chemscore.Hbond>
2.0000

> <Gold.PLP.Chemscore.CHOScore>
1.0000

> <Gold.PLP.Chemscore.Metal>
0.0000

> <Gold.Chemscore.Hbonds>
donor molecule, donor type, donor heavy atom, donor atom, acceptor molecule, acceptor atom, score
      L1  H     4    24       P1  7948  2.00
      L1  C    11    30       P1 10737  0.91

> <Gold.PLP.Chemscore.Internal.Correction>
0.6153

> <Gold.Rescore>
     Score         DG    S(hbond)    S(metal)    S(lipo)     H(rot)  DE(clash)    DE(int)     intcor
      9.32     -10.28       0.60        0.00      76.05       2.39       0.23       0.72       ----

> <Gold.Chemscore.Fitness>
9.3247

> <Gold.Chemscore.DG>
-10.2766

> <Gold.Chemscore.ZeroCoef>
-5.4800

> <Gold.Chemscore.Hbond>
0.6013

> <Gold.Chemscore.Metal>
0.0000

> <Gold.Chemscore.Lipo>
76.0505

> <Gold.Chemscore.Internal_Hbond>
0.0000

> <Gold.Chemscore.DEClash>
0.2313

> <Gold.Chemscore.DEInternal>
0.7206

> <Gold.Chemscore.Rot>
2.3866

> <Gold.Chemscore.Internal.Correction>
   9.000000E+99

> <Gold.Chemscore.Hbonds>
donor molecule, donor type, donor heavy atom, donor atom, acceptor molecule, acceptor atom, score
      L1  H     4    24       P1  7948  0.25

> <Gold.Chemscore.Hbond.Weighted>
-2.0084

> <Gold.Chemscore.Metal.Weighted>
-0.0000

> <Gold.Chemscore.Lipo.Weighted>
-8.8979

> <Gold.Chemscore.Internal_Hbond.Weighted>
0.0000

> <Gold.Chemscore.DEClash.Weighted>
0.2313

> <Gold.Chemscore.DEInternal.Weighted>
0.7206

> <Gold.Chemscore.Rot.Weighted>
6.1096

> <Gold.Chemscore.Internal.Correction.Weighted>
   9.000000E+99

> <Gold.Protein.RotatedTorsions>
[ 6907 6896 6895 6894 ] final -133.79 input  -60.11 | X-H torsion
[ 7974 7965 7964 7962 ] final   13.59 input  175.53 | X-H torsion
[ 8008 7997 7996 7995 ] final  -41.80 input   59.86 | X-H torsion
[ 10167 10162 10161 10158 ] final  -80.55 input  -65.29 | X-H torsion
[ 10718 10713 10712 10709 ] final -115.99 input   66.30 | X-H torsion
[ 10763 10752 10751 10750 ] final  164.26 input  -60.55 | X-H torsion
[ 11005 11000 10999 10996 ] final -146.72 input  -57.11 | X-H torsion

> <Gold.Protein.ActiveResidues>
 VAL166  LYS551  ARG553  GLY616  TRP617  ASP618  TYR619  PRO620  LYS621  CYS622 
 ASP623  PHE694  ASN695  SER759  ASP760  ASP761  ALA762  ILE779  LEU786  VAL792 
 PHE793  MET794  SER795  GLU796  ALA797  LYS798  CYS799  TRP800  GLU811  SER814 

> <Gold.Protein.RotatedAtoms>
  150.9781  133.6274  159.2726 H   0  0  0  0  0  0  0  0  0  0  0  0  # atno 6907 bound_to 6896
  151.3538  135.0889  159.9421 H   0  0  0  0  0  0  0  0  0  0  0  0  # atno 6908 bound_to 6896
  152.5206  133.9368  159.7662 H   0  0  0  0  0  0  0  0  0  0  0  0  # atno 6909 bound_to 6896
  146.2325  139.9165  142.8516 H   0  0  0  0  0  0  0  0  0  0  0  0  # atno 7974 bound_to 7965
  154.4002  140.1490  156.3250 H   0  0  0  0  0  0  0  0  0  0  0  0  # atno 8008 bound_to 7997
  155.8495  140.3458  155.5663 H   0  0  0  0  0  0  0  0  0  0  0  0  # atno 8009 bound_to 7997
  155.8000  140.0869  157.1953 H   0  0  0  0  0  0  0  0  0  0  0  0  # atno 8010 bound_to 7997
  140.4493  143.2488  151.8512 H   0  0  0  0  0  0  0  0  0  0  0  0  # atno 10167 bound_to 10162
  156.0933  130.6111  150.8977 H   0  0  0  0  0  0  0  0  0  0  0  0  # atno 10718 bound_to 10713
  154.3062  135.2758  155.2588 H   0  0  0  0  0  0  0  0  0  0  0  0  # atno 10763 bound_to 10752
  154.5003  135.5810  153.6529 H   0  0  0  0  0  0  0  0  0  0  0  0  # atno 10764 bound_to 10752
  152.9894  135.6156  154.3236 H   0  0  0  0  0  0  0  0  0  0  0  0  # atno 10765 bound_to 10752
  140.7791  134.3100  157.5051 H   0  0  0  0  0  0  0  0  0  0  0  0  # atno 11005 bound_to 11000
  145.2178  140.9922  143.4063 LP  0  0  0  0  0  0  0  0  0  0  0  0  # atno 17320 bound_to 7965
  144.9636  139.3954  143.6343 LP  0  0  0  0  0  0  0  0  0  0  0  0  # atno 17321 bound_to 7965
  139.4795  144.5139  151.8895 LP  0  0  0  0  0  0  0  0  0  0  0  0  # atno 17342 bound_to 10162
  140.4226  144.2223  150.5887 LP  0  0  0  0  0  0  0  0  0  0  0  0  # atno 17343 bound_to 10162
  157.6087  131.0937  150.8833 LP  0  0  0  0  0  0  0  0  0  0  0  0  # atno 17370 bound_to 10713
  156.8976  130.5235  149.5284 LP  0  0  0  0  0  0  0  0  0  0  0  0  # atno 17371 bound_to 10713
  139.8745  134.9307  156.3510 LP  0  0  0  0  0  0  0  0  0  0  0  0  # atno 17394 bound_to 11000
  140.9500  133.7457  156.0259 LP  0  0  0  0  0  0  0  0  0  0  0  0  # atno 17395 bound_to 11000

$$$$
