AV-unprocessed.smi:460|AV-procd|sdf|2626|dock4
  -GOLD-   2262023 33D 1   1.00000     0.00000
 Structure written by MMmdl.
 46 48  0  0  0  0  0  0  0  0  1 V2000
  146.8287  141.9970  154.2936 C   0  0  0  0  0  0  0  0  0  0  0  0
  147.3915  140.5702  154.3486 C   0  0  0  0  0  0  0  0  0  0  0  0
  148.9174  140.5206  154.5563 C   0  0  2  0  0  0  0  0  0  0  0  0
  149.5497  141.2124  153.4974 O   0  0  0  0  0  0  0  0  0  0  0  0
  149.4160  139.1048  154.6755 C   0  0  0  0  0  0  0  0  0  0  0  0
  148.6108  138.0614  154.4614 N   0  0  0  0  0  0  0  0  0  0  0  0
  149.4384  136.9810  154.6893 C   0  0  0  0  0  0  0  0  0  0  0  0
  149.1742  135.5941  154.6248 C   0  0  0  0  0  0  0  0  0  0  0  0
  150.1921  134.6597  154.9065 C   0  0  0  0  0  0  0  0  0  0  0  0
  151.4852  135.0982  155.2573 C   0  0  0  0  0  0  0  0  0  0  0  0
  151.7692  136.4758  155.3272 C   0  0  0  0  0  0  0  0  0  0  0  0
  150.7499  137.4053  155.0428 C   0  0  0  0  0  0  0  0  0  0  0  0
  150.6954  138.7965  155.0176 N   0  0  0  0  0  0  0  0  0  0  0  0
  151.8046  139.6956  155.3040 C   0  0  0  0  0  0  0  0  0  0  0  0
  151.3937  140.8344  156.2453 C   0  0  0  0  0  0  0  0  0  0  0  0
  152.0077  140.6205  157.5078 O   0  0  0  0  0  0  0  0  0  0  0  0
  152.0282  141.6608  158.4142 C   0  0  0  0  0  0  0  0  0  0  0  0
  151.3427  142.8869  158.2185 C   0  0  0  0  0  0  0  0  0  0  0  0
  151.4082  143.9049  159.1869 C   0  0  0  0  0  0  0  0  0  0  0  0
  152.1574  143.7109  160.3594 C   0  0  0  0  0  0  0  0  0  0  0  0
  152.8417  142.4992  160.5640 C   0  0  0  0  0  0  0  0  0  0  0  0
  152.7826  141.4655  159.5949 C   0  0  0  0  0  0  0  0  0  0  0  0
  153.4272  140.2529  159.7319 O   0  0  0  0  0  0  0  0  0  0  0  0
  154.2572  140.0556  160.8673 C   0  0  0  0  0  0  0  0  0  0  0  0
  145.7443  141.9802  154.1824 H   0  0  0  0  0  0  0  0  0  0  0  0
  147.2384  142.5551  153.4515 H   0  0  0  0  0  0  0  0  0  0  0  0
  147.0601  142.5467  155.2065 H   0  0  0  0  0  0  0  0  0  0  0  0
  146.9014  140.0500  155.1724 H   0  0  0  0  0  0  0  0  0  0  0  0
  147.1169  140.0250  153.4445 H   0  0  0  0  0  0  0  0  0  0  0  0
  149.1593  141.0703  155.4635 H   0  0  0  0  0  0  0  0  0  0  0  0
  149.5476  140.6565  152.7335 H   0  0  0  0  0  0  0  0  0  0  0  0
  148.1862  135.2490  154.3577 H   0  0  0  0  0  0  0  0  0  0  0  0
  149.9797  133.6020  154.8533 H   0  0  0  0  0  0  0  0  0  0  0  0
  152.2595  134.3761  155.4717 H   0  0  0  0  0  0  0  0  0  0  0  0
  152.7597  136.8113  155.5961 H   0  0  0  0  0  0  0  0  0  0  0  0
  152.6130  139.1207  155.7564 H   0  0  0  0  0  0  0  0  0  0  0  0
  152.2070  140.0843  154.3687 H   0  0  0  0  0  0  0  0  0  0  0  0
  151.7130  141.7922  155.8343 H   0  0  0  0  0  0  0  0  0  0  0  0
  150.3077  140.8512  156.3521 H   0  0  0  0  0  0  0  0  0  0  0  0
  150.7567  143.0734  157.3316 H   0  0  0  0  0  0  0  0  0  0  0  0
  150.8825  144.8352  159.0297 H   0  0  0  0  0  0  0  0  0  0  0  0
  152.2077  144.4923  161.1036 H   0  0  0  0  0  0  0  0  0  0  0  0
  153.4066  142.3875  161.4768 H   0  0  0  0  0  0  0  0  0  0  0  0
  154.6840  139.0534  160.8309 H   0  0  0  0  0  0  0  0  0  0  0  0
  153.6908  140.1380  161.7957 H   0  0  0  0  0  0  0  0  0  0  0  0
  155.0851  140.7655  160.8835 H   0  0  0  0  0  0  0  0  0  0  0  0
  1  2  1  0  0  0  0
  1 25  1  0  0  0  0
  1 26  1  0  0  0  0
  1 27  1  0  0  0  0
  2  3  1  0  0  0  0
  2 28  1  0  0  0  0
  2 29  1  0  0  0  0
  3  4  1  0  0  0  0
  3  5  1  0  0  0  0
  3 30  1  0  0  0  0
  4 31  1  0  0  0  0
  5 13  1  0  0  0  0
  5  6  2  0  0  0  0
  6  7  1  0  0  0  0
  7 12  2  0  0  0  0
  7  8  1  0  0  0  0
  8  9  2  0  0  0  0
  8 32  1  0  0  0  0
  9 10  1  0  0  0  0
  9 33  1  0  0  0  0
 10 11  2  0  0  0  0
 10 34  1  0  0  0  0
 11 12  1  0  0  0  0
 11 35  1  0  0  0  0
 12 13  1  0  0  0  0
 13 14  1  0  0  0  0
 14 15  1  0  0  0  0
 14 36  1  0  0  0  0
 14 37  1  0  0  0  0
 15 16  1  0  0  0  0
 15 38  1  0  0  0  0
 15 39  1  0  0  0  0
 16 17  1  0  0  0  0
 17 22  1  0  0  0  0
 17 18  2  0  0  0  0
 18 19  1  0  0  0  0
 18 40  1  0  0  0  0
 19 20  2  0  0  0  0
 19 41  1  0  0  0  0
 20 21  1  0  0  0  0
 20 42  1  0  0  0  0
 21 22  2  0  0  0  0
 21 43  1  0  0  0  0
 22 23  1  0  0  0  0
 23 24  1  0  0  0  0
 24 44  1  0  0  0  0
 24 45  1  0  0  0  0
 24 46  1  0  0  0  0
M  END
> <s_m_source_file>
AV-unprocessed.smi

> <i_m_source_file_index>
460

> <i_lp_mmshare_version>
43012

> <i_f3d_flags>
0

> <s_epik_input>
W2NIXTFbY0hdW2NIXVtjSF1jKGMxMiluKGMobjIpW0NAQEhdKFtPSF0pW0NIMl1bQ0gzXSlbQ0gyXVtDSDJdT2MzW2NIXVtjSF1bY0hdW2NIXWMzT1tDSDNd

> <s_epik_cmdline>
J2VwaWtfcHl0aG9uJywgJy1waCcsICc3LjAnLCAnLXRuJywgJzgnLCAnLW1hJywgJzIwMCcsICctbWV0YWxfYmluZGluZycsICctaW1hZScsICc8aW5maWxlLm1hZT4nLCAnLW9tYWUnLCAnPG91dGZpbGUubWFlPic=

> <r_lp_tautomer_probability>
1

> <r_epik_Ionization_Penalty>
0.0507825

> <r_epik_Ionization_Penalty_Charging>
0

> <r_epik_Ionization_Penalty_Neutral>
0.0507825

> <r_epik_State_Penalty>
0.0434615

> <r_epik_Charging_Adjusted_Penalty>
0.0434615

> <i_epik_Tot_Q>
0

> <i_epik_Tot_abs_Q>
0

> <r_epik_Metal_State_Penalty>
4.50935e-05

> <b_epik_Metal_Only>
0

> <s_lp_Force_Field>
OPLS_2005

> <r_lp_Energy>
20.8142

> <b_lp_Chiralities_Consistent>
1

> <s_lp_Variant>
AV-unprocessed.smi:460-1

> <Gold.Version>
5.8.1

> <Gold.Id.Protein>
6NUR|6NUR_protein|mol2

> <Gold.PLP.Fitness>
54.4907

> <Gold.PLP.PLP>
-49.8019

> <Gold.PLP.part.hbond>
-2.4593

> <Gold.PLP.part.metal>
0.0000

> <Gold.PLP.part.buried>
-5.5599

> <Gold.PLP.part.nonpolar>
-41.0002

> <Gold.PLP.part.repulsive>
0.1200

> <Gold.PLP.ligand.clash>
0.0000

> <Gold.PLP.ligand.torsion>
0.7160

> <Gold.PLP.Chemscore.Hbond>
1.9952

> <Gold.PLP.Chemscore.CHOScore>
0.0000

> <Gold.PLP.Chemscore.Metal>
0.0000

> <Gold.Chemscore.Hbonds>
donor molecule, donor type, donor heavy atom, donor atom, acceptor molecule, acceptor atom, score
      L1  H     4    31       P1  7957  1.00
      P1  H  7989  7998       L1     4  0.03
      P1  H  8011  8017       L1     4  0.10

> <Gold.PLP.Chemscore.Internal.Correction>
0.1351

> <Gold.Rescore>
     Score         DG    S(hbond)    S(metal)    S(lipo)     H(rot)  DE(clash)    DE(int)     intcor
     17.84     -18.52       1.10        0.00     131.72       2.36       0.19       0.49       ----

> <Gold.Chemscore.Fitness>
17.8429

> <Gold.Chemscore.DG>
-18.5189

> <Gold.Chemscore.ZeroCoef>
-5.4800

> <Gold.Chemscore.Hbond>
1.0975

> <Gold.Chemscore.Metal>
0.0000

> <Gold.Chemscore.Lipo>
131.7221

> <Gold.Chemscore.Internal_Hbond>
0.0000

> <Gold.Chemscore.DEClash>
0.1905

> <Gold.Chemscore.DEInternal>
0.4855

> <Gold.Chemscore.Rot>
2.3587

> <Gold.Chemscore.Internal.Correction>
   9.000000E+99

> <Gold.Chemscore.Hbonds>
donor molecule, donor type, donor heavy atom, donor atom, acceptor molecule, acceptor atom, score
      L1  H     4    31       P1  7957  1.00

> <Gold.Chemscore.Hbond.Weighted>
-3.6658

> <Gold.Chemscore.Metal.Weighted>
-0.0000

> <Gold.Chemscore.Lipo.Weighted>
-15.4115

> <Gold.Chemscore.Internal_Hbond.Weighted>
0.0000

> <Gold.Chemscore.DEClash.Weighted>
0.1905

> <Gold.Chemscore.DEInternal.Weighted>
0.4855

> <Gold.Chemscore.Rot.Weighted>
6.0384

> <Gold.Chemscore.Internal.Correction.Weighted>
   9.000000E+99

> <Gold.Protein.RotatedTorsions>
[ 6907 6896 6895 6894 ] final  112.44 input  -60.11 | X-H torsion
[ 7974 7965 7964 7962 ] final   57.76 input  175.53 | X-H torsion
[ 8008 7997 7996 7995 ] final  -38.88 input   59.86 | X-H torsion
[ 10167 10162 10161 10158 ] final   31.45 input  -65.29 | X-H torsion
[ 10718 10713 10712 10709 ] final  -32.97 input   66.30 | X-H torsion
[ 10763 10752 10751 10750 ] final  100.09 input  -60.55 | X-H torsion
[ 11005 11000 10999 10996 ] final -108.41 input  -57.11 | X-H torsion

> <Gold.Protein.ActiveResidues>
 VAL166  LYS551  ARG553  GLY616  TRP617  ASP618  TYR619  PRO620  LYS621  CYS622 
 ASP623  PHE694  ASN695  SER759  ASP760  ASP761  ALA762  ILE779  LEU786  VAL792 
 PHE793  MET794  SER795  GLU796  ALA797  LYS798  CYS799  TRP800  GLU811  SER814 

> <Gold.Protein.RotatedAtoms>
  152.4916  133.8516  159.7204 H   0  0  0  0  0  0  0  0  0  0  0  0  # atno 6907 bound_to 6896
  150.9051  133.7059  159.2875 H   0  0  0  0  0  0  0  0  0  0  0  0  # atno 6908 bound_to 6896
  151.4487  135.1032  159.9743 H   0  0  0  0  0  0  0  0  0  0  0  0  # atno 6909 bound_to 6896
  145.9255  139.3764  143.0452 H   0  0  0  0  0  0  0  0  0  0  0  0  # atno 7974 bound_to 7965
  154.4030  140.1566  156.2772 H   0  0  0  0  0  0  0  0  0  0  0  0  # atno 8008 bound_to 7997
  155.8902  140.3439  155.5928 H   0  0  0  0  0  0  0  0  0  0  0  0  # atno 8009 bound_to 7997
  155.7568  140.0812  157.2165 H   0  0  0  0  0  0  0  0  0  0  0  0  # atno 8010 bound_to 7997
  140.4587  144.0939  150.6208 H   0  0  0  0  0  0  0  0  0  0  0  0  # atno 10167 bound_to 10162
  156.3683  130.4335  149.7566 H   0  0  0  0  0  0  0  0  0  0  0  0  # atno 10718 bound_to 10713
  153.3096  135.4091  155.1324 H   0  0  0  0  0  0  0  0  0  0  0  0  # atno 10763 bound_to 10752
  154.8572  135.3561  154.5742 H   0  0  0  0  0  0  0  0  0  0  0  0  # atno 10764 bound_to 10752
  153.6170  135.7066  153.5383 H   0  0  0  0  0  0  0  0  0  0  0  0  # atno 10765 bound_to 10752
  141.0903  133.9067  157.2091 H   0  0  0  0  0  0  0  0  0  0  0  0  # atno 11005 bound_to 11000
  145.8494  140.9537  143.0758 LP  0  0  0  0  0  0  0  0  0  0  0  0  # atno 17320 bound_to 7965
  144.6758  140.0387  143.7481 LP  0  0  0  0  0  0  0  0  0  0  0  0  # atno 17321 bound_to 7965
  140.4119  143.2652  151.9822 LP  0  0  0  0  0  0  0  0  0  0  0  0  # atno 17342 bound_to 10162
  139.4804  144.5907  151.7776 LP  0  0  0  0  0  0  0  0  0  0  0  0  # atno 17343 bound_to 10162
  156.4703  130.7993  151.3011 LP  0  0  0  0  0  0  0  0  0  0  0  0  # atno 17370 bound_to 10713
  157.7481  131.0038  150.3051 LP  0  0  0  0  0  0  0  0  0  0  0  0  # atno 17371 bound_to 10713
  139.9728  135.0123  156.9554 LP  0  0  0  0  0  0  0  0  0  0  0  0  # atno 17394 bound_to 11000
  140.5268  134.0853  155.7305 LP  0  0  0  0  0  0  0  0  0  0  0  0  # atno 17395 bound_to 11000

$$$$
