AV-unprocessed.smi:207|AV-procd|sdf|1604|dock8
  -GOLD-   2262019523D 1   1.00000     0.00000
 Structure written by MMmdl.
 56 59  0  0  0  0  0  0  0  0  2 V2000
  142.9191  135.1441  153.0584 C   0  0  0  0  0  0  0  0  0  0  0  0
  144.2630  134.5510  152.5756 C   0  0  0  0  0  0  0  0  0  0  0  0
  144.6662  135.2275  151.2440 C   0  0  0  0  0  0  0  0  0  0  0  0
  145.3020  134.9068  153.6698 C   0  0  0  0  0  0  0  0  0  0  0  0
  146.5717  134.2172  153.4782 N   0  0  0  0  0  0  0  0  0  0  0  0
  147.6239  134.7453  154.1518 C   0  0  0  0  0  0  0  0  0  0  0  0
  148.7689  134.0262  154.2952 N   0  0  0  0  0  0  0  0  0  0  0  0
  149.8086  134.5397  154.9594 C   0  0  0  0  0  0  0  0  0  0  0  0
  149.9176  135.7343  155.5436 N   0  0  0  0  0  0  0  0  0  0  0  0
  148.7746  136.4638  155.3966 C   0  0  0  0  0  0  0  0  0  0  0  0
  147.5906  136.0473  154.7254 C   0  0  0  0  0  0  0  0  0  0  0  0
  146.6377  137.0576  154.7757 N   0  0  0  0  0  0  0  0  0  0  0  0
  147.2240  138.0154  155.4409 C   0  0  0  0  0  0  0  0  0  0  0  0
  148.5146  137.7494  155.8400 N   0  0  0  0  0  0  0  0  0  0  0  0
  149.4003  138.6335  156.5820 C   0  0  0  0  0  0  0  0  0  0  0  0
  150.3270  139.5075  155.7082 C   0  0  0  0  0  0  0  0  0  0  0  0
  149.5067  140.3056  154.6772 C   0  0  0  0  0  0  0  0  0  0  0  0
  149.0967  139.5046  153.5865 O   0  0  0  0  0  0  0  0  0  0  0  0
  151.4332  140.2810  156.4434 C   0  0  0  0  0  0  0  0  0  0  0  0
  152.4367  139.3095  156.0826 O   0  0  0  0  0  0  0  0  0  0  0  0
  151.5209  138.7343  155.1277 C   0  0  0  0  0  0  0  0  0  0  0  0
  146.4541  132.7677  153.4100 C   0  0  0  0  0  0  0  0  0  0  0  0
  145.4774  132.3709  152.2978 C   0  0  0  0  0  0  0  0  0  0  0  0
  144.1601  133.0564  152.4304 N   0  3  2  0  0  0  0  0  0  0  0  0
  143.1894  132.5725  151.4070 C   0  0  0  0  0  0  0  0  0  0  0  0
  143.8067  132.5498  149.9990 C   0  0  0  0  0  0  0  0  0  0  0  0
  142.8248  132.1917  149.0495 O   0  0  0  0  0  0  0  0  0  0  0  0
  143.0307  136.1971  153.3202 H   0  0  0  0  0  0  0  0  0  0  0  0
  142.5537  134.6272  153.9466 H   0  0  0  0  0  0  0  0  0  0  0  0
  142.1345  135.1020  152.3047 H   0  0  0  0  0  0  0  0  0  0  0  0
  144.7544  136.3075  151.3675 H   0  0  0  0  0  0  0  0  0  0  0  0
  143.9303  135.0569  150.4584 H   0  0  0  0  0  0  0  0  0  0  0  0
  145.6286  134.8709  150.8774 H   0  0  0  0  0  0  0  0  0  0  0  0
  145.4394  135.9874  153.7124 H   0  0  0  0  0  0  0  0  0  0  0  0
  144.9183  134.6152  154.6490 H   0  0  0  0  0  0  0  0  0  0  0  0
  150.6781  133.9030  155.0321 H   0  0  0  0  0  0  0  0  0  0  0  0
  146.7255  138.9489  155.6562 H   0  0  0  0  0  0  0  0  0  0  0  0
  148.7757  139.2637  157.2167 H   0  0  0  0  0  0  0  0  0  0  0  0
  149.9917  138.0266  157.2686 H   0  0  0  0  0  0  0  0  0  0  0  0
  148.6028  140.7127  155.1310 H   0  0  0  0  0  0  0  0  0  0  0  0
  150.0697  141.1597  154.2999 H   0  0  0  0  0  0  0  0  0  0  0  0
  149.4496  139.8760  152.7922 H   0  0  0  0  0  0  0  0  0  0  0  0
  151.6498  141.2605  156.0136 H   0  0  0  0  0  0  0  0  0  0  0  0
  151.2951  140.3539  157.5213 H   0  0  0  0  0  0  0  0  0  0  0  0
  151.4407  137.6510  155.2262 H   0  0  0  0  0  0  0  0  0  0  0  0
  151.7826  139.0091  154.1047 H   0  0  0  0  0  0  0  0  0  0  0  0
  147.4284  132.3165  153.2165 H   0  0  0  0  0  0  0  0  0  0  0  0
  146.1043  132.3868  154.3706 H   0  0  0  0  0  0  0  0  0  0  0  0
  145.9167  132.6066  151.3278 H   0  0  0  0  0  0  0  0  0  0  0  0
  145.3433  131.2898  152.3178 H   0  0  0  0  0  0  0  0  0  0  0  0
  142.8193  131.5736  151.6257 H   0  0  0  0  0  0  0  0  0  0  0  0
  142.3051  133.2114  151.4154 H   0  0  0  0  0  0  0  0  0  0  0  0
  144.1816  133.5411  149.7437 H   0  0  0  0  0  0  0  0  0  0  0  0
  144.6511  131.8647  149.9304 H   0  0  0  0  0  0  0  0  0  0  0  0
  142.1342  132.8375  149.0711 H   0  0  0  0  0  0  0  0  0  0  0  0
  143.7825  132.7470  153.3150 H   0  0  0  0  0  0  0  0  0  0  0  0
  1  2  1  0  0  0  0
  1 28  1  0  0  0  0
  1 29  1  0  0  0  0
  1 30  1  0  0  0  0
  2 24  1  0  0  0  0
  2  3  1  0  0  0  0
  2  4  1  0  0  0  0
  3 31  1  0  0  0  0
  3 32  1  0  0  0  0
  3 33  1  0  0  0  0
  4  5  1  0  0  0  0
  4 34  1  0  0  0  0
  4 35  1  0  0  0  0
  5  6  1  0  0  0  0
  5 22  1  0  0  0  0
  6 11  1  0  0  0  0
  6  7  2  0  0  0  0
  7  8  1  0  0  0  0
  8  9  2  0  0  0  0
  8 36  1  0  0  0  0
  9 10  1  0  0  0  0
 10 14  1  0  0  0  0
 10 11  2  0  0  0  0
 11 12  1  0  0  0  0
 12 13  2  0  0  0  0
 13 14  1  0  0  0  0
 13 37  1  0  0  0  0
 14 15  1  0  0  0  0
 15 16  1  0  0  0  0
 15 38  1  0  0  0  0
 15 39  1  0  0  0  0
 16 21  1  0  0  0  0
 16 17  1  0  0  0  0
 16 19  1  0  0  0  0
 17 18  1  0  0  0  0
 17 40  1  0  0  0  0
 17 41  1  0  0  0  0
 18 42  1  0  0  0  0
 19 20  1  0  0  0  0
 19 43  1  0  0  0  0
 19 44  1  0  0  0  0
 20 21  1  0  0  0  0
 21 45  1  0  0  0  0
 21 46  1  0  0  0  0
 22 23  1  0  0  0  0
 22 47  1  0  0  0  0
 22 48  1  0  0  0  0
 23 24  1  0  0  0  0
 23 49  1  0  0  0  0
 23 50  1  0  0  0  0
 24 25  1  0  0  0  0
 24 56  1  0  0  0  0
 25 26  1  0  0  0  0
 25 51  1  0  0  0  0
 25 52  1  0  0  0  0
 26 27  1  0  0  0  0
 26 53  1  0  0  0  0
 26 54  1  0  0  0  0
 27 55  1  0  0  0  0
M  CHG  1  24   1
M  END
> <s_m_source_file>
AV-unprocessed.smi

> <i_m_source_file_index>
207

> <i_lp_mmshare_version>
43012

> <i_f3d_flags>
0

> <s_epik_input>
W09IXVtDSDJdW0NIMl1OMVtDSDJdW0NIMl1OKFtDSDJdQzEoW0NIM10pW0NIM10pYyhuW2NIXW4yKWMoYzIzKW5bY0hdbjNbQ0gyXUM0KFtDSDJdW09IXSlbQ0gyXU9bQ0gyXTQ=

> <s_epik_cmdline>
J2VwaWtfcHl0aG9uJywgJy1waCcsICc3LjAnLCAnLXRuJywgJzgnLCAnLW1hJywgJzIwMCcsICctbWV0YWxfYmluZGluZycsICctaW1hZScsICc8aW5maWxlLm1hZT4nLCAnLW9tYWUnLCAnPG91dGZpbGUubWFlPic=

> <r_lp_tautomer_probability>
1

> <r_epik_Ionization_Penalty>
0.416568

> <r_epik_Ionization_Penalty_Charging>
0.416506

> <r_epik_Ionization_Penalty_Neutral>
6.2219e-05

> <r_epik_State_Penalty>
0.419386

> <r_epik_Charging_Adjusted_Penalty>
0.835892

> <i_epik_Tot_Q>
1

> <i_epik_Tot_abs_Q>
1

> <r_epik_Metal_State_Penalty>
0.420232

> <b_epik_Metal_Only>
0

> <s_lp_Force_Field>
OPLS_2005

> <r_lp_Energy>
56.1561

> <b_lp_Chiralities_Consistent>
1

> <s_lp_Variant>
AV-unprocessed.smi:207-3

> <Gold.Version>
5.8.1

> <Gold.Id.Protein>
6NUR|6NUR_protein|mol2

> <Gold.PLP.Fitness>
49.5549

> <Gold.PLP.PLP>
-34.9591

> <Gold.PLP.part.hbond>
-5.4817

> <Gold.PLP.part.metal>
0.0000

> <Gold.PLP.part.buried>
-6.5543

> <Gold.PLP.part.nonpolar>
-25.2686

> <Gold.PLP.part.repulsive>
0.3883

> <Gold.PLP.ligand.clash>
0.0000

> <Gold.PLP.ligand.torsion>
1.4839

> <Gold.PLP.Chemscore.Hbond>
5.5825

> <Gold.PLP.Chemscore.CHOScore>
0.0000

> <Gold.PLP.Chemscore.Metal>
0.0000

> <Gold.Chemscore.Hbonds>
donor molecule, donor type, donor heavy atom, donor atom, acceptor molecule, acceptor atom, score
      L1  H    18    42       P1  7957  1.00
      L1  H    24    56       P1 10957  1.76
      L1  H    27    55       P1 10186  1.00
      P1  H  7997  8008       L1    20  0.88
      P1  H 10785 10796       L1    27  0.81

> <Gold.PLP.Chemscore.Internal.Correction>
0.8160

> <Gold.Rescore>
     Score         DG    S(hbond)    S(metal)    S(lipo)     H(rot)  DE(clash)    DE(int)     intcor
     13.99     -18.26       4.34        0.00      68.51       3.80       0.01       4.25       ----

> <Gold.Chemscore.Fitness>
13.9903

> <Gold.Chemscore.DG>
-18.2556

> <Gold.Chemscore.ZeroCoef>
-5.4800

> <Gold.Chemscore.Hbond>
4.3374

> <Gold.Chemscore.Metal>
0.0000

> <Gold.Chemscore.Lipo>
68.5138

> <Gold.Chemscore.Internal_Hbond>
0.0000

> <Gold.Chemscore.DEClash>
0.0123

> <Gold.Chemscore.DEInternal>
4.2531

> <Gold.Chemscore.Rot>
3.7997

> <Gold.Chemscore.Internal.Correction>
   9.000000E+99

> <Gold.Chemscore.Hbonds>
donor molecule, donor type, donor heavy atom, donor atom, acceptor molecule, acceptor atom, score
      L1  H    18    42       P1  7957  0.98
      L1  H    24    56       P1 10957  0.38
      L1  H    27    55       P1 10186  0.97
      P1  H  7997  8008       L1    20  0.62
      P1  H 10785 10796       L1    27  0.32

> <Gold.Chemscore.Hbond.Weighted>
-14.4868

> <Gold.Chemscore.Metal.Weighted>
-0.0000

> <Gold.Chemscore.Lipo.Weighted>
-8.0161

> <Gold.Chemscore.Internal_Hbond.Weighted>
0.0000

> <Gold.Chemscore.DEClash.Weighted>
0.0123

> <Gold.Chemscore.DEInternal.Weighted>
4.2531

> <Gold.Chemscore.Rot.Weighted>
9.7273

> <Gold.Chemscore.Internal.Correction.Weighted>
   9.000000E+99

> <Gold.Protein.RotatedTorsions>
[ 6907 6896 6895 6894 ] final -145.88 input  -60.11 | X-H torsion
[ 7974 7965 7964 7962 ] final -167.71 input  175.53 | X-H torsion
[ 8008 7997 7996 7995 ] final  -44.93 input   59.86 | X-H torsion
[ 10167 10162 10161 10158 ] final  136.39 input  -65.29 | X-H torsion
[ 10718 10713 10712 10709 ] final  -83.16 input   66.30 | X-H torsion
[ 10763 10752 10751 10750 ] final   85.98 input  -60.55 | X-H torsion
[ 11005 11000 10999 10996 ] final -160.72 input  -57.11 | X-H torsion

> <Gold.Protein.ActiveResidues>
 VAL166  LYS551  ARG553  GLY616  TRP617  ASP618  TYR619  PRO620  LYS621  CYS622 
 ASP623  PHE694  ASN695  SER759  ASP760  ASP761  ALA762  ILE779  LEU786  VAL792 
 PHE793  MET794  SER795  GLU796  ALA797  LYS798  CYS799  TRP800  GLU811  SER814 

> <Gold.Protein.RotatedAtoms>
  151.1339  133.5018  159.2598 H   0  0  0  0  0  0  0  0  0  0  0  0  # atno 6907 bound_to 6896
  151.1728  135.0325  159.8769 H   0  0  0  0  0  0  0  0  0  0  0  0  # atno 6908 bound_to 6896
  152.5460  134.1200  159.8448 H   0  0  0  0  0  0  0  0  0  0  0  0  # atno 6909 bound_to 6896
  144.7217  140.2477  143.6283 H   0  0  0  0  0  0  0  0  0  0  0  0  # atno 7974 bound_to 7965
  154.3999  140.1409  156.3764 H   0  0  0  0  0  0  0  0  0  0  0  0  # atno 8008 bound_to 7997
  155.8044  140.3475  155.5401 H   0  0  0  0  0  0  0  0  0  0  0  0  # atno 8009 bound_to 7997
  155.8450  140.0932  157.1701 H   0  0  0  0  0  0  0  0  0  0  0  0  # atno 8010 bound_to 7997
  139.5182  144.6467  151.5419 H   0  0  0  0  0  0  0  0  0  0  0  0  # atno 10167 bound_to 10162
  156.0022  130.4657  150.4216 H   0  0  0  0  0  0  0  0  0  0  0  0  # atno 10718 bound_to 10713
  153.1526  135.4597  154.9658 H   0  0  0  0  0  0  0  0  0  0  0  0  # atno 10763 bound_to 10752
  154.7836  135.3196  154.7937 H   0  0  0  0  0  0  0  0  0  0  0  0  # atno 10764 bound_to 10752
  153.8440  135.6927  153.4854 H   0  0  0  0  0  0  0  0  0  0  0  0  # atno 10765 bound_to 10752
  140.6284  134.4677  157.5228 H   0  0  0  0  0  0  0  0  0  0  0  0  # atno 11005 bound_to 11000
  145.8258  139.2064  143.1911 LP  0  0  0  0  0  0  0  0  0  0  0  0  # atno 17320 bound_to 7965
  146.0474  140.8104  142.9798 LP  0  0  0  0  0  0  0  0  0  0  0  0  # atno 17321 bound_to 7965
  140.6255  143.9177  150.6561 LP  0  0  0  0  0  0  0  0  0  0  0  0  # atno 17342 bound_to 10162
  140.2464  143.3625  152.1443 LP  0  0  0  0  0  0  0  0  0  0  0  0  # atno 17343 bound_to 10162
  157.2271  131.0496  151.2513 LP  0  0  0  0  0  0  0  0  0  0  0  0  # atno 17370 bound_to 10713
  157.3746  130.7199  149.6588 LP  0  0  0  0  0  0  0  0  0  0  0  0  # atno 17371 bound_to 10713
  139.9125  134.8314  156.1477 LP  0  0  0  0  0  0  0  0  0  0  0  0  # atno 17394 bound_to 11000
  141.0693  133.6804  156.2107 LP  0  0  0  0  0  0  0  0  0  0  0  0  # atno 17395 bound_to 11000

$$$$
