AV-unprocessed.smi:3009|AV-procd|sdf|11452|dock3
  -GOLD-   2272016383D 1   1.00000     0.00000
 Structure written by MMmdl.
 44 45  0  0  0  0  0  0  0  0  2 V2000
  144.1432  132.9419  149.4541 C   0  0  0  0  0  0  0  0  0  0  0  0
  144.9186  132.8331  150.7776 C   0  0  0  0  0  0  0  0  0  0  0  0
  144.4520  133.9158  151.7623 C   0  0  0  0  0  0  0  0  0  0  0  0
  146.4446  132.9211  150.5580 C   0  0  0  0  0  0  0  0  0  0  0  0
  147.2283  132.1749  151.5761 N   0  3  2  0  0  0  0  0  0  0  0  0
  146.4672  131.0798  152.2269 C   0  0  0  0  0  0  0  0  0  0  0  0
  147.3498  130.3437  153.2477 C   0  0  0  0  0  0  0  0  0  0  0  0
  147.8476  131.2721  154.2018 O   0  0  0  0  0  0  0  0  0  0  0  0
  148.6690  132.2702  153.6046 C   0  0  2  0  0  0  0  0  0  0  0  0
  149.2286  133.1673  154.7229 C   0  0  0  0  0  0  0  0  0  0  0  0
  149.4591  134.5324  154.2629 N   0  0  0  0  0  0  0  0  0  0  0  0
  150.1451  135.4649  154.9380 C   0  0  0  0  0  0  0  0  0  0  0  0
  150.6545  135.2670  156.0413 O   0  0  0  0  0  0  0  0  0  0  0  0
  150.1921  136.6230  154.2601 N   0  0  0  0  0  0  0  0  0  0  0  0
  150.8447  137.8209  154.6459 C   0  0  0  0  0  0  0  0  0  0  0  0
  150.4517  139.1240  154.2363 C   0  0  0  0  0  0  0  0  0  0  0  0
  151.2468  140.0522  154.7485 N   0  0  0  0  0  0  0  0  0  0  0  0
  152.1451  139.3539  155.4792 N   0  0  0  0  0  0  0  0  0  0  0  0
  151.9398  137.9924  155.4454 C   0  0  0  0  0  0  0  0  0  0  0  0
  147.8196  133.0713  152.5987 C   0  0  0  0  0  0  0  0  0  0  0  0
  152.8844  139.8156  155.9896 H   0  0  0  0  0  0  0  0  0  0  0  0
  144.3498  133.8866  148.9502 H   0  0  0  0  0  0  0  0  0  0  0  0
  143.0676  132.8864  149.6242 H   0  0  0  0  0  0  0  0  0  0  0  0
  144.4048  132.1347  148.7698 H   0  0  0  0  0  0  0  0  0  0  0  0
  144.6749  131.8734  151.2316 H   0  0  0  0  0  0  0  0  0  0  0  0
  144.6568  134.9162  151.3796 H   0  0  0  0  0  0  0  0  0  0  0  0
  144.9570  133.8172  152.7236 H   0  0  0  0  0  0  0  0  0  0  0  0
  143.3799  133.8438  151.9477 H   0  0  0  0  0  0  0  0  0  0  0  0
  146.6690  132.5241  149.5667 H   0  0  0  0  0  0  0  0  0  0  0  0
  146.7725  133.9619  150.5477 H   0  0  0  0  0  0  0  0  0  0  0  0
  145.5882  131.4908  152.7260 H   0  0  0  0  0  0  0  0  0  0  0  0
  146.1092  130.3670  151.4852 H   0  0  0  0  0  0  0  0  0  0  0  0
  146.7675  129.5826  153.7672 H   0  0  0  0  0  0  0  0  0  0  0  0
  148.1760  129.8298  152.7535 H   0  0  0  0  0  0  0  0  0  0  0  0
  149.4959  131.7921  153.0758 H   0  0  0  0  0  0  0  0  0  0  0  0
  148.5485  133.1803  155.5762 H   0  0  0  0  0  0  0  0  0  0  0  0
  150.1737  132.7649  155.0885 H   0  0  0  0  0  0  0  0  0  0  0  0
  149.0712  134.7823  153.3648 H   0  0  0  0  0  0  0  0  0  0  0  0
  149.7172  136.6496  153.3697 H   0  0  0  0  0  0  0  0  0  0  0  0
  149.6326  139.4213  153.5979 H   0  0  0  0  0  0  0  0  0  0  0  0
  152.5747  137.2990  155.9767 H   0  0  0  0  0  0  0  0  0  0  0  0
  148.4439  133.8206  152.1102 H   0  0  0  0  0  0  0  0  0  0  0  0
  147.0224  133.6063  153.1177 H   0  0  0  0  0  0  0  0  0  0  0  0
  148.0049  131.7503  151.0892 H   0  0  0  0  0  0  0  0  0  0  0  0
  1  2  1  0  0  0  0
  1 22  1  0  0  0  0
  1 23  1  0  0  0  0
  1 24  1  0  0  0  0
  2  3  1  0  0  0  0
  2  4  1  0  0  0  0
  2 25  1  0  0  0  0
  3 26  1  0  0  0  0
  3 27  1  0  0  0  0
  3 28  1  0  0  0  0
  4  5  1  0  0  0  0
  4 29  1  0  0  0  0
  4 30  1  0  0  0  0
  5 20  1  0  0  0  0
  5  6  1  0  0  0  0
  5 44  1  0  0  0  0
  6  7  1  0  0  0  0
  6 31  1  0  0  0  0
  6 32  1  0  0  0  0
  7  8  1  0  0  0  0
  7 33  1  0  0  0  0
  7 34  1  0  0  0  0
  8  9  1  0  0  0  0
  9 10  1  0  0  0  0
  9 20  1  0  0  0  0
  9 35  1  0  0  0  0
 10 11  1  0  0  0  0
 10 36  1  0  0  0  0
 10 37  1  0  0  0  0
 11 12  1  0  0  0  0
 11 38  1  0  0  0  0
 12 13  2  0  0  0  0
 12 14  1  0  0  0  0
 14 15  1  0  0  0  0
 14 39  1  0  0  0  0
 15 19  2  0  0  0  0
 15 16  1  0  0  0  0
 16 17  2  0  0  0  0
 16 40  1  0  0  0  0
 17 18  1  0  0  0  0
 18 21  1  0  0  0  0
 18 19  1  0  0  0  0
 19 41  1  0  0  0  0
 20 42  1  0  0  0  0
 20 43  1  0  0  0  0
M  CHG  1   5   1
M  END
> <s_m_source_file>
AV-unprocessed.smi

> <i_m_source_file_index>
3009

> <i_lp_mmshare_version>
43012

> <i_f3d_flags>
0

> <s_epik_input>
W0NIM11bQ0hdKFtDSDNdKVtDSDJdTjFbQ0gyXVtDSDJdT1tDQEhdKFtDSDJdMSlbQ0gyXVtOSF1DKD1PKVtOSF1jMltjSF1uW25IXVtjSF0y

> <s_epik_cmdline>
J2VwaWtfcHl0aG9uJywgJy1waCcsICc3LjAnLCAnLXRuJywgJzgnLCAnLW1hJywgJzIwMCcsICctbWV0YWxfYmluZGluZycsICctaW1hZScsICc8aW5maWxlLm1hZT4nLCAnLW9tYWUnLCAnPG91dGZpbGUubWFlPic=

> <r_lp_tautomer_probability>
0.5

> <r_epik_Ionization_Penalty>
0.0974064

> <r_epik_Ionization_Penalty_Charging>
0.0973651

> <r_epik_Ionization_Penalty_Neutral>
4.13573e-05

> <r_epik_State_Penalty>
0.0874853

> <r_epik_Charging_Adjusted_Penalty>
0.18485

> <i_epik_Tot_Q>
1

> <i_epik_Tot_abs_Q>
1

> <r_epik_Metal_State_Penalty>
0.0874855

> <b_epik_Metal_Only>
0

> <s_lp_Force_Field>
OPLS_2005

> <r_lp_Energy>
20.2975

> <b_lp_Chiralities_Consistent>
1

> <s_lp_Variant>
AV-unprocessed.smi:3009-4

> <Gold.Version>
5.8.1

> <Gold.Id.Protein>
6NUR|6NUR_protein|mol2

> <Gold.PLP.Fitness>
49.3199

> <Gold.PLP.PLP>
-37.7890

> <Gold.PLP.part.hbond>
-4.9470

> <Gold.PLP.part.metal>
0.0000

> <Gold.PLP.part.buried>
-4.8975

> <Gold.PLP.part.nonpolar>
-28.6434

> <Gold.PLP.part.repulsive>
0.4607

> <Gold.PLP.ligand.clash>
0.0000

> <Gold.PLP.ligand.torsion>
1.4670

> <Gold.PLP.Chemscore.Hbond>
3.8024

> <Gold.PLP.Chemscore.CHOScore>
0.9988

> <Gold.PLP.Chemscore.Metal>
0.0000

> <Gold.Chemscore.Hbonds>
donor molecule, donor type, donor heavy atom, donor atom, acceptor molecule, acceptor atom, score
      L1  H     5    44       P1 10747  1.00
      L1  H    11    38       P1  7948  0.71
      L1  H    14    39       P1  7948  1.00
      P1  H  7989  7998       L1    17  1.00
      L1  C    16    40       P1  7957  1.00

> <Gold.PLP.Chemscore.Internal.Correction>
0.0614

> <Gold.Rescore>
     Score         DG    S(hbond)    S(metal)    S(lipo)     H(rot)  DE(clash)    DE(int)     intcor
     17.19     -19.60       2.66        0.00      84.04       1.80       0.02       2.40       ----

> <Gold.Chemscore.Fitness>
17.1862

> <Gold.Chemscore.DG>
-19.6046

> <Gold.Chemscore.ZeroCoef>
-5.4800

> <Gold.Chemscore.Hbond>
2.6618

> <Gold.Chemscore.Metal>
0.0000

> <Gold.Chemscore.Lipo>
84.0402

> <Gold.Chemscore.Internal_Hbond>
0.0000

> <Gold.Chemscore.DEClash>
0.0222

> <Gold.Chemscore.DEInternal>
2.3962

> <Gold.Chemscore.Rot>
1.7963

> <Gold.Chemscore.Internal.Correction>
   9.000000E+99

> <Gold.Chemscore.Hbonds>
donor molecule, donor type, donor heavy atom, donor atom, acceptor molecule, acceptor atom, score
      L1  H     5    44       P1 10747  0.95
      L1  H    11    38       P1  7948  0.10
      L1  H    14    39       P1  7948  0.40
      P1  H  7989  7998       L1    17  0.33

> <Gold.Chemscore.Hbond.Weighted>
-8.8903

> <Gold.Chemscore.Metal.Weighted>
-0.0000

> <Gold.Chemscore.Lipo.Weighted>
-9.8327

> <Gold.Chemscore.Internal_Hbond.Weighted>
0.0000

> <Gold.Chemscore.DEClash.Weighted>
0.0222

> <Gold.Chemscore.DEInternal.Weighted>
2.3962

> <Gold.Chemscore.Rot.Weighted>
4.5985

> <Gold.Chemscore.Internal.Correction.Weighted>
   9.000000E+99

> <Gold.Protein.RotatedTorsions>
[ 6907 6896 6895 6894 ] final -164.35 input  -60.11 | X-H torsion
[ 7974 7965 7964 7962 ] final -162.28 input  175.53 | X-H torsion
[ 8008 7997 7996 7995 ] final  -86.98 input   59.86 | X-H torsion
[ 10167 10162 10161 10158 ] final -150.45 input  -65.29 | X-H torsion
[ 10718 10713 10712 10709 ] final  177.21 input   66.30 | X-H torsion
[ 10763 10752 10751 10750 ] final  -49.49 input  -60.55 | X-H torsion
[ 11005 11000 10999 10996 ] final  -59.52 input  -57.11 | X-H torsion

> <Gold.Protein.ActiveResidues>
 VAL166  LYS551  ARG553  GLY616  TRP617  ASP618  TYR619  PRO620  LYS621  CYS622 
 ASP623  PHE694  ASN695  SER759  ASP760  ASP761  ALA762  ILE779  LEU786  VAL792 
 PHE793  MET794  SER795  GLU796  ALA797  LYS798  CYS799  TRP800  GLU811  SER814 

> <Gold.Protein.RotatedAtoms>
  151.4104  133.3729  159.2743 H   0  0  0  0  0  0  0  0  0  0  0  0  # atno 6907 bound_to 6896
  150.9367  134.8780  159.7597 H   0  0  0  0  0  0  0  0  0  0  0  0  # atno 6908 bound_to 6896
  152.5053  134.4052  159.9482 H   0  0  0  0  0  0  0  0  0  0  0  0  # atno 6909 bound_to 6896
  144.7363  140.3275  143.6159 H   0  0  0  0  0  0  0  0  0  0  0  0  # atno 7974 bound_to 7965
  154.6580  140.0571  157.0031 H   0  0  0  0  0  0  0  0  0  0  0  0  # atno 8008 bound_to 7997
  155.1271  140.3253  155.4464 H   0  0  0  0  0  0  0  0  0  0  0  0  # atno 8009 bound_to 7997
  156.2606  140.1987  156.6391 H   0  0  0  0  0  0  0  0  0  0  0  0  # atno 8010 bound_to 7997
  139.7353  143.8745  152.2547 H   0  0  0  0  0  0  0  0  0  0  0  0  # atno 10167 bound_to 10162
  156.9087  130.9903  151.3024 H   0  0  0  0  0  0  0  0  0  0  0  0  # atno 10718 bound_to 10713
  154.0949  135.6572  153.4858 H   0  0  0  0  0  0  0  0  0  0  0  0  # atno 10763 bound_to 10752
  153.0309  135.5211  154.7344 H   0  0  0  0  0  0  0  0  0  0  0  0  # atno 10764 bound_to 10752
  154.6478  135.2997  154.9993 H   0  0  0  0  0  0  0  0  0  0  0  0  # atno 10765 bound_to 10752
  141.1251  133.6617  156.5084 H   0  0  0  0  0  0  0  0  0  0  0  0  # atno 11005 bound_to 11000
  145.7505  139.1792  143.2324 LP  0  0  0  0  0  0  0  0  0  0  0  0  # atno 17320 bound_to 7965
  146.1064  140.7481  142.9524 LP  0  0  0  0  0  0  0  0  0  0  0  0  # atno 17321 bound_to 7965
  139.8680  144.7083  150.9021 LP  0  0  0  0  0  0  0  0  0  0  0  0  # atno 17342 bound_to 10162
  140.7778  143.3762  151.1560 LP  0  0  0  0  0  0  0  0  0  0  0  0  # atno 17343 bound_to 10162
  157.5981  130.8492  149.8759 LP  0  0  0  0  0  0  0  0  0  0  0  0  # atno 17370 bound_to 10713
  156.0546  130.3711  150.1121 LP  0  0  0  0  0  0  0  0  0  0  0  0  # atno 17371 bound_to 10713
  140.4389  134.7034  157.4981 LP  0  0  0  0  0  0  0  0  0  0  0  0  # atno 17394 bound_to 11000
  140.0243  134.6501  155.9195 LP  0  0  0  0  0  0  0  0  0  0  0  0  # atno 17395 bound_to 11000

$$$$
