AV-unprocessed.smi:1517|AV-procd|sdf|6121|dock4
  -GOLD-   22720 6253D 1   1.00000     0.00000
 Structure written by MMmdl.
 42 44  0  0  0  0  0  0  0  0  2 V2000
  148.2138  139.7030  153.5368 O   0  0  0  0  0  0  0  0  0  0  0  0
  147.8900  140.7496  154.4269 C   0  0  0  0  0  0  0  0  0  0  0  0
  149.1435  141.5771  154.7398 C   0  0  0  0  0  0  0  0  0  0  0  0
  149.9841  140.9231  155.7297 N   0  0  0  0  0  0  0  0  0  0  0  0
  150.5647  141.6922  156.7432 C   0  0  0  0  0  0  0  0  0  0  0  0
  150.5946  143.0508  156.7985 N   0  3  0  0  0  0  0  0  0  0  0  0
  151.2608  143.4290  157.9680 C   0  0  0  0  0  0  0  0  0  0  0  0
  151.5493  144.6895  158.4822 C   0  0  0  0  0  0  0  0  0  0  0  0
  152.2466  144.7294  159.7077 C   0  0  0  0  0  0  0  0  0  0  0  0
  152.6285  143.5478  160.3759 C   0  0  0  0  0  0  0  0  0  0  0  0
  152.3317  142.2740  159.8481 C   0  0  0  0  0  0  0  0  0  0  0  0
  151.6446  142.2408  158.6352 C   0  0  0  0  0  0  0  0  0  0  0  0
  151.1932  141.1843  157.8350 N   0  0  0  0  0  0  0  0  0  0  0  0
  151.4327  139.7964  158.2571 C   0  0  0  0  0  0  0  0  0  0  0  0
  152.3277  139.0195  157.2721 C   0  0  1  0  0  0  0  0  0  0  0  0
  153.5742  138.7376  157.8808 O   0  0  0  0  0  0  0  0  0  0  0  0
  151.6247  137.7683  156.7629 C   0  0  0  0  0  0  0  0  0  0  0  0
  151.2027  136.7631  157.6623 C   0  0  0  0  0  0  0  0  0  0  0  0
  150.5461  135.6119  157.1863 C   0  0  0  0  0  0  0  0  0  0  0  0
  150.3016  135.4594  155.8086 C   0  0  0  0  0  0  0  0  0  0  0  0
  149.6698  134.3528  155.3506 F   0  0  0  0  0  0  0  0  0  0  0  0
  150.7107  136.4607  154.9076 C   0  0  0  0  0  0  0  0  0  0  0  0
  151.3679  137.6130  155.3816 C   0  0  0  0  0  0  0  0  0  0  0  0
  151.7460  138.5723  154.5022 F   0  0  0  0  0  0  0  0  0  0  0  0
  148.8254  140.0317  152.8954 H   0  0  0  0  0  0  0  0  0  0  0  0
  147.0875  141.3659  154.0195 H   0  0  0  0  0  0  0  0  0  0  0  0
  147.5126  140.2956  155.3435 H   0  0  0  0  0  0  0  0  0  0  0  0
  149.7321  141.6865  153.8281 H   0  0  0  0  0  0  0  0  0  0  0  0
  148.8732  142.5821  155.0672 H   0  0  0  0  0  0  0  0  0  0  0  0
  149.9449  139.9176  155.8207 H   0  0  0  0  0  0  0  0  0  0  0  0
  151.2572  145.5971  157.9744 H   0  0  0  0  0  0  0  0  0  0  0  0
  152.4928  145.6863  160.1448 H   0  0  0  0  0  0  0  0  0  0  0  0
  153.1602  143.6195  161.3136 H   0  0  0  0  0  0  0  0  0  0  0  0
  152.6272  141.3749  160.3691 H   0  0  0  0  0  0  0  0  0  0  0  0
  151.8893  139.8225  159.2475 H   0  0  0  0  0  0  0  0  0  0  0  0
  150.4671  139.3040  158.3786 H   0  0  0  0  0  0  0  0  0  0  0  0
  152.5502  139.6578  156.4166 H   0  0  0  0  0  0  0  0  0  0  0  0
  153.5471  137.8585  158.2272 H   0  0  0  0  0  0  0  0  0  0  0  0
  151.3770  136.8705  158.7230 H   0  0  0  0  0  0  0  0  0  0  0  0
  150.2284  134.8467  157.8792 H   0  0  0  0  0  0  0  0  0  0  0  0
  150.5183  136.3459  153.8509 H   0  0  0  0  0  0  0  0  0  0  0  0
  150.1923  143.6627  156.1004 H   0  0  0  0  0  0  0  0  0  0  0  0
  1  2  1  0  0  0  0
  1 25  1  0  0  0  0
  2  3  1  0  0  0  0
  2 26  1  0  0  0  0
  2 27  1  0  0  0  0
  3  4  1  0  0  0  0
  3 28  1  0  0  0  0
  3 29  1  0  0  0  0
  4  5  1  0  0  0  0
  4 30  1  0  0  0  0
  5 13  1  0  0  0  0
  5  6  2  0  0  0  0
  6  7  1  0  0  0  0
  6 42  1  0  0  0  0
  7 12  2  0  0  0  0
  7  8  1  0  0  0  0
  8  9  2  0  0  0  0
  8 31  1  0  0  0  0
  9 10  1  0  0  0  0
  9 32  1  0  0  0  0
 10 11  2  0  0  0  0
 10 33  1  0  0  0  0
 11 12  1  0  0  0  0
 11 34  1  0  0  0  0
 12 13  1  0  0  0  0
 13 14  1  0  0  0  0
 14 15  1  0  0  0  0
 14 35  1  0  0  0  0
 14 36  1  0  0  0  0
 15 16  1  0  0  0  0
 15 17  1  0  0  0  0
 15 37  1  0  0  0  0
 16 38  1  0  0  0  0
 17 23  1  0  0  0  0
 17 18  2  0  0  0  0
 18 19  1  0  0  0  0
 18 39  1  0  0  0  0
 19 20  2  0  0  0  0
 19 40  1  0  0  0  0
 20 21  1  0  0  0  0
 20 22  1  0  0  0  0
 22 23  2  0  0  0  0
 22 41  1  0  0  0  0
 23 24  1  0  0  0  0
M  CHG  1   6   1
M  END
> <s_m_source_file>
AV-unprocessed.smi

> <i_m_source_file_index>
1517

> <i_lp_mmshare_version>
43012

> <i_f3d_flags>
0

> <s_epik_input>
W09IXVtDSDJdW0NIMl1bTkhdYyhuMSluKGMoYzEyKVtjSF1bY0hdW2NIXVtjSF0yKVtDSDJdW0NASF0oW09IXSljM1tjSF1bY0hdYyhGKVtjSF1jM0Y=

> <s_epik_cmdline>
J2VwaWtfcHl0aG9uJywgJy1waCcsICc3LjAnLCAnLXRuJywgJzgnLCAnLW1hJywgJzIwMCcsICctbWV0YWxfYmluZGluZycsICctaW1hZScsICc8aW5maWxlLm1hZT4nLCAnLW9tYWUnLCAnPG91dGZpbGUubWFlPic=

> <r_epik_Ionization_Penalty>
0.0688096

> <r_epik_Ionization_Penalty_Charging>
0.0688055

> <r_epik_Ionization_Penalty_Neutral>
4.12262e-06

> <r_epik_State_Penalty>
0.0602293

> <r_epik_Charging_Adjusted_Penalty>
0.129035

> <i_epik_Tot_Q>
1

> <i_epik_Tot_abs_Q>
1

> <r_epik_Metal_State_Penalty>
2.77411

> <b_epik_Metal_Only>
0

> <s_lp_Force_Field>
OPLS_2005

> <r_lp_Energy>
23.6459

> <b_lp_Chiralities_Consistent>
1

> <s_lp_Variant>
AV-unprocessed.smi:1517-2

> <Gold.Version>
5.8.1

> <Gold.Id.Protein>
6NUR|6NUR_protein|mol2

> <Gold.PLP.Fitness>
58.7757

> <Gold.PLP.PLP>
-48.6735

> <Gold.PLP.part.hbond>
-3.0000

> <Gold.PLP.part.metal>
0.0000

> <Gold.PLP.part.buried>
-6.8973

> <Gold.PLP.part.nonpolar>
-39.7143

> <Gold.PLP.part.repulsive>
0.1568

> <Gold.PLP.ligand.clash>
0.0000

> <Gold.PLP.ligand.torsion>
0.9625

> <Gold.PLP.Chemscore.Hbond>
3.9840

> <Gold.PLP.Chemscore.CHOScore>
0.0000

> <Gold.PLP.Chemscore.Metal>
0.0000

> <Gold.Chemscore.Hbonds>
donor molecule, donor type, donor heavy atom, donor atom, acceptor molecule, acceptor atom, score
      L1  H     1    25       P1  7957  1.00
      L1  H     6    42       P1  8028  1.92
      P1  H  7997  8008       L1    16  0.80

> <Gold.PLP.Chemscore.Internal.Correction>
0.0751

> <Gold.Rescore>
     Score         DG    S(hbond)    S(metal)    S(lipo)     H(rot)  DE(clash)    DE(int)     intcor
     19.27     -20.26       2.79        0.00     118.63       3.29       0.04       0.95       ----

> <Gold.Chemscore.Fitness>
19.2718

> <Gold.Chemscore.DG>
-20.2576

> <Gold.Chemscore.ZeroCoef>
-5.4800

> <Gold.Chemscore.Hbond>
2.7887

> <Gold.Chemscore.Metal>
0.0000

> <Gold.Chemscore.Lipo>
118.6254

> <Gold.Chemscore.Internal_Hbond>
0.0000

> <Gold.Chemscore.DEClash>
0.0382

> <Gold.Chemscore.DEInternal>
0.9475

> <Gold.Chemscore.Rot>
3.2874

> <Gold.Chemscore.Internal.Correction>
   9.000000E+99

> <Gold.Chemscore.Hbonds>
donor molecule, donor type, donor heavy atom, donor atom, acceptor molecule, acceptor atom, score
      L1  H     1    25       P1  7957  0.96
      L1  H     6    42       P1  8028  0.92
      P1  H  7997  8008       L1    16  0.12

> <Gold.Chemscore.Hbond.Weighted>
-9.3142

> <Gold.Chemscore.Metal.Weighted>
-0.0000

> <Gold.Chemscore.Lipo.Weighted>
-13.8792

> <Gold.Chemscore.Internal_Hbond.Weighted>
0.0000

> <Gold.Chemscore.DEClash.Weighted>
0.0382

> <Gold.Chemscore.DEInternal.Weighted>
0.9475

> <Gold.Chemscore.Rot.Weighted>
8.4158

> <Gold.Chemscore.Internal.Correction.Weighted>
   9.000000E+99

> <Gold.Protein.RotatedTorsions>
[ 6907 6896 6895 6894 ] final  -57.46 input  -60.11 | X-H torsion
[ 7974 7965 7964 7962 ] final  -59.98 input  175.53 | X-H torsion
[ 8008 7997 7996 7995 ] final  -79.70 input   59.86 | X-H torsion
[ 10167 10162 10161 10158 ] final -106.75 input  -65.29 | X-H torsion
[ 10718 10713 10712 10709 ] final  -10.90 input   66.30 | X-H torsion
[ 10763 10752 10751 10750 ] final  171.35 input  -60.55 | X-H torsion
[ 11005 11000 10999 10996 ] final  -87.31 input  -57.11 | X-H torsion

> <Gold.Protein.ActiveResidues>
 VAL166  LYS551  ARG553  GLY616  TRP617  ASP618  TYR619  PRO620  LYS621  CYS622 
 ASP623  PHE694  ASN695  SER759  ASP760  ASP761  ALA762  ILE779  LEU786  VAL792 
 PHE793  MET794  SER795  GLU796  ALA797  LYS798  CYS799  TRP800  GLU811  SER814 

> <Gold.Protein.RotatedAtoms>
  150.8084  134.7224  159.6665 H   0  0  0  0  0  0  0  0  0  0  0  0  # atno 6907 bound_to 6896
  152.4204  134.5962  159.9997 H   0  0  0  0  0  0  0  0  0  0  0  0  # atno 6908 bound_to 6896
  151.6179  133.3304  159.3117 H   0  0  0  0  0  0  0  0  0  0  0  0  # atno 6909 bound_to 6896
  145.8210  140.8540  143.0132 H   0  0  0  0  0  0  0  0  0  0  0  0  # atno 7974 bound_to 7965
  154.5811  140.0674  156.9105 H   0  0  0  0  0  0  0  0  0  0  0  0  # atno 8008 bound_to 7997
  155.2461  140.3348  155.4269 H   0  0  0  0  0  0  0  0  0  0  0  0  # atno 8009 bound_to 7997
  156.2190  140.1790  156.7507 H   0  0  0  0  0  0  0  0  0  0  0  0  # atno 8010 bound_to 7997
  140.1844  143.3941  152.1256 H   0  0  0  0  0  0  0  0  0  0  0  0  # atno 10167 bound_to 10162
  156.6668  130.4997  149.6013 H   0  0  0  0  0  0  0  0  0  0  0  0  # atno 10718 bound_to 10713
  154.4107  135.2756  155.2039 H   0  0  0  0  0  0  0  0  0  0  0  0  # atno 10763 bound_to 10752
  154.4026  135.6041  153.5909 H   0  0  0  0  0  0  0  0  0  0  0  0  # atno 10764 bound_to 10752
  152.9831  135.5930  154.4388 H   0  0  0  0  0  0  0  0  0  0  0  0  # atno 10765 bound_to 10752
  141.1618  133.7504  156.9288 H   0  0  0  0  0  0  0  0  0  0  0  0  # atno 11005 bound_to 11000
  144.6748  140.0533  143.7478 LP  0  0  0  0  0  0  0  0  0  0  0  0  # atno 17320 bound_to 7965
  145.9675  139.2845  143.1119 LP  0  0  0  0  0  0  0  0  0  0  0  0  # atno 17321 bound_to 7965
  139.5282  144.7128  151.5151 LP  0  0  0  0  0  0  0  0  0  0  0  0  # atno 17342 bound_to 10162
  140.6498  143.8720  150.6774 LP  0  0  0  0  0  0  0  0  0  0  0  0  # atno 17343 bound_to 10162
  156.1969  130.6595  151.1124 LP  0  0  0  0  0  0  0  0  0  0  0  0  # atno 17370 bound_to 10713
  157.7091  131.0743  150.6564 LP  0  0  0  0  0  0  0  0  0  0  0  0  # atno 17371 bound_to 10713
  140.1400  134.9299  157.2454 LP  0  0  0  0  0  0  0  0  0  0  0  0  # atno 17394 bound_to 11000
  140.2848  134.3309  155.7332 LP  0  0  0  0  0  0  0  0  0  0  0  0  # atno 17395 bound_to 11000

$$$$
