AV-unprocessed.smi:1831|AV-procd|sdf|7456|dock3
  -GOLD-   22720 9143D 1   1.00000     0.00000
 Structure written by MMmdl.
 41 42  0  0  0  0  0  0  0  0  2 V2000
  150.9832  142.2256  156.4473 C   0  0  0  0  0  0  0  0  0  0  0  0
  150.5117  141.0973  155.5948 C   0  0  0  0  0  0  0  0  0  0  0  0
  151.3457  140.2065  155.0433 N   0  0  0  0  0  0  0  0  0  0  0  0
  150.6761  139.2500  154.2917 N   0  0  0  0  0  0  0  0  0  0  0  0
  149.3546  139.4469  154.2965 C   0  0  0  0  0  0  0  0  0  0  0  0
  148.5426  138.5414  153.5687 N   0  0  0  0  0  0  0  0  0  0  0  0
  147.2080  138.5635  153.4221 C   0  0  0  0  0  0  0  0  0  0  0  0
  146.4519  139.4061  153.9052 O   0  0  0  0  0  0  0  0  0  0  0  0
  146.7856  137.5377  152.6683 N   0  0  0  0  0  0  0  0  0  0  0  0
  145.3939  137.2490  152.3343 C   0  0  0  0  0  0  0  0  0  0  0  0
  145.1390  135.7398  152.1526 C   0  0  2  0  0  0  0  0  0  0  0  0
  146.2302  134.8211  152.6994 C   0  0  0  0  0  0  0  0  0  0  0  0
  146.0057  133.5344  151.9145 C   0  0  0  0  0  0  0  0  0  0  0  0
  145.6443  133.9750  150.5490 N   0  3  1  0  0  0  0  0  0  0  0  0
  144.8886  132.9859  149.7292 C   0  0  0  0  0  0  0  0  0  0  0  0
  143.6564  132.4448  150.4795 C   0  0  0  0  0  0  0  0  0  0  0  0
  145.7898  131.8083  149.3106 C   0  0  0  0  0  0  0  0  0  0  0  0
  145.0062  135.3103  150.6819 C   0  0  0  0  0  0  0  0  0  0  0  0
  148.8100  140.8392  155.2320 S   0  0  0  0  0  0  0  0  0  0  0  0
  152.0057  142.0515  156.7843 H   0  0  0  0  0  0  0  0  0  0  0  0
  150.3411  142.3265  157.3223 H   0  0  0  0  0  0  0  0  0  0  0  0
  150.9541  143.1566  155.8811 H   0  0  0  0  0  0  0  0  0  0  0  0
  149.0365  137.7875  153.1139 H   0  0  0  0  0  0  0  0  0  0  0  0
  147.4789  136.8949  152.3138 H   0  0  0  0  0  0  0  0  0  0  0  0
  144.7764  137.6249  153.1506 H   0  0  0  0  0  0  0  0  0  0  0  0
  145.0869  137.8009  151.4440 H   0  0  0  0  0  0  0  0  0  0  0  0
  144.2066  135.4801  152.6571 H   0  0  0  0  0  0  0  0  0  0  0  0
  147.2186  135.2244  152.4733 H   0  0  0  0  0  0  0  0  0  0  0  0
  146.1624  134.6738  153.7779 H   0  0  0  0  0  0  0  0  0  0  0  0
  146.8877  132.8930  151.9157 H   0  0  0  0  0  0  0  0  0  0  0  0
  145.1771  132.9774  152.3556 H   0  0  0  0  0  0  0  0  0  0  0  0
  144.5390  133.4898  148.8268 H   0  0  0  0  0  0  0  0  0  0  0  0
  143.1408  131.6884  149.8869 H   0  0  0  0  0  0  0  0  0  0  0  0
  142.9279  133.2277  150.6904 H   0  0  0  0  0  0  0  0  0  0  0  0
  143.9391  131.9845  151.4269 H   0  0  0  0  0  0  0  0  0  0  0  0
  145.2299  131.0776  148.7259 H   0  0  0  0  0  0  0  0  0  0  0  0
  146.1953  131.2917  150.1814 H   0  0  0  0  0  0  0  0  0  0  0  0
  146.6291  132.1286  148.6940 H   0  0  0  0  0  0  0  0  0  0  0  0
  143.9536  135.2971  150.3968 H   0  0  0  0  0  0  0  0  0  0  0  0
  145.5193  136.0018  150.0125 H   0  0  0  0  0  0  0  0  0  0  0  0
  146.5214  134.1367  150.0749 H   0  0  0  0  0  0  0  0  0  0  0  0
  1  2  1  0  0  0  0
  1 20  1  0  0  0  0
  1 21  1  0  0  0  0
  1 22  1  0  0  0  0
  2 19  1  0  0  0  0
  2  3  2  0  0  0  0
  3  4  1  0  0  0  0
  4  5  2  0  0  0  0
  5  6  1  0  0  0  0
  5 19  1  0  0  0  0
  6  7  1  0  0  0  0
  6 23  1  0  0  0  0
  7  8  2  0  0  0  0
  7  9  1  0  0  0  0
  9 10  1  0  0  0  0
  9 24  1  0  0  0  0
 10 11  1  0  0  0  0
 10 25  1  0  0  0  0
 10 26  1  0  0  0  0
 11 18  1  0  0  0  0
 11 12  1  0  0  0  0
 11 27  1  0  0  0  0
 12 13  1  0  0  0  0
 12 28  1  0  0  0  0
 12 29  1  0  0  0  0
 13 14  1  0  0  0  0
 13 30  1  0  0  0  0
 13 31  1  0  0  0  0
 14 15  1  0  0  0  0
 14 18  1  0  0  0  0
 14 41  1  0  0  0  0
 15 16  1  0  0  0  0
 15 17  1  0  0  0  0
 15 32  1  0  0  0  0
 16 33  1  0  0  0  0
 16 34  1  0  0  0  0
 16 35  1  0  0  0  0
 17 36  1  0  0  0  0
 17 37  1  0  0  0  0
 17 38  1  0  0  0  0
 18 39  1  0  0  0  0
 18 40  1  0  0  0  0
M  CHG  1  14   1
M  END
> <s_m_source_file>
AV-unprocessed.smi

> <i_m_source_file_index>
1831

> <i_lp_mmshare_version>
43012

> <i_f3d_flags>
0

> <s_epik_input>
W0NIM11jMW5uYyhzMSlbTkhdQyg9TylbTkhdW0NIMl1bQ0BASF0yW0NIMl1bQ0gyXU4oW0NIMl0yKVtDSF0oW0NIM10pW0NIM10=

> <s_epik_cmdline>
J2VwaWtfcHl0aG9uJywgJy1waCcsICc3LjAnLCAnLXRuJywgJzgnLCAnLW1hJywgJzIwMCcsICctbWV0YWxfYmluZGluZycsICctaW1hZScsICc8aW5maWxlLm1hZT4nLCAnLW9tYWUnLCAnPG91dGZpbGUubWFlPic=

> <r_lp_tautomer_probability>
1

> <r_epik_Ionization_Penalty>
0.00080807

> <r_epik_Ionization_Penalty_Charging>
0.000218981

> <r_epik_Ionization_Penalty_Neutral>
0.00058909

> <r_epik_State_Penalty>
-0

> <r_epik_Charging_Adjusted_Penalty>
0.000218981

> <i_epik_Tot_Q>
1

> <i_epik_Tot_abs_Q>
1

> <r_epik_Metal_State_Penalty>
0.236062

> <b_epik_Metal_Only>
0

> <s_lp_Force_Field>
OPLS_2005

> <r_lp_Energy>
28.9112

> <b_lp_Chiralities_Consistent>
1

> <s_lp_Variant>
AV-unprocessed.smi:1831-1

> <Gold.Version>
5.8.1

> <Gold.Id.Protein>
6NUR|6NUR_protein|mol2

> <Gold.PLP.Fitness>
39.9055

> <Gold.PLP.PLP>
-35.4438

> <Gold.PLP.part.hbond>
-5.8625

> <Gold.PLP.part.metal>
0.0000

> <Gold.PLP.part.buried>
-2.9621

> <Gold.PLP.part.nonpolar>
-27.4278

> <Gold.PLP.part.repulsive>
0.5111

> <Gold.PLP.ligand.clash>
0.0000

> <Gold.PLP.ligand.torsion>
0.9784

> <Gold.PLP.Chemscore.Hbond>
2.1260

> <Gold.PLP.Chemscore.CHOScore>
0.0000

> <Gold.PLP.Chemscore.Metal>
0.0000

> <Gold.Chemscore.Hbonds>
donor molecule, donor type, donor heavy atom, donor atom, acceptor molecule, acceptor atom, score
      L1  H     6    23       P1  7948  0.98
      L1  H     9    24       P1  7948  1.00
      P1  H  7989  7998       L1     3  0.15

> <Gold.PLP.Chemscore.Internal.Correction>
0.0406

> <Gold.Rescore>
     Score         DG    S(hbond)    S(metal)    S(lipo)     H(rot)  DE(clash)    DE(int)     intcor
     15.01     -17.11       1.91        0.00      78.56       1.54       0.47       1.63       ----

> <Gold.Chemscore.Fitness>
15.0117

> <Gold.Chemscore.DG>
-17.1134

> <Gold.Chemscore.ZeroCoef>
-5.4800

> <Gold.Chemscore.Hbond>
1.9112

> <Gold.Chemscore.Metal>
0.0000

> <Gold.Chemscore.Lipo>
78.5595

> <Gold.Chemscore.Internal_Hbond>
0.0000

> <Gold.Chemscore.DEClash>
0.4747

> <Gold.Chemscore.DEInternal>
1.6270

> <Gold.Chemscore.Rot>
1.5396

> <Gold.Chemscore.Internal.Correction>
   9.000000E+99

> <Gold.Chemscore.Hbonds>
donor molecule, donor type, donor heavy atom, donor atom, acceptor molecule, acceptor atom, score
      L1  H     6    23       P1  7948  0.90
      L1  H     9    24       P1  7948  1.00

> <Gold.Chemscore.Hbond.Weighted>
-6.3833

> <Gold.Chemscore.Metal.Weighted>
-0.0000

> <Gold.Chemscore.Lipo.Weighted>
-9.1915

> <Gold.Chemscore.Internal_Hbond.Weighted>
0.0000

> <Gold.Chemscore.DEClash.Weighted>
0.4747

> <Gold.Chemscore.DEInternal.Weighted>
1.6270

> <Gold.Chemscore.Rot.Weighted>
3.9413

> <Gold.Chemscore.Internal.Correction.Weighted>
   9.000000E+99

> <Gold.Protein.RotatedTorsions>
[ 6907 6896 6895 6894 ] final  131.49 input  -60.11 | X-H torsion
[ 7974 7965 7964 7962 ] final   70.31 input  175.53 | X-H torsion
[ 8008 7997 7996 7995 ] final  -32.89 input   59.86 | X-H torsion
[ 10167 10162 10161 10158 ] final   72.73 input  -65.29 | X-H torsion
[ 10718 10713 10712 10709 ] final -154.47 input   66.30 | X-H torsion
[ 10763 10752 10751 10750 ] final -151.96 input  -60.55 | X-H torsion
[ 11005 11000 10999 10996 ] final  -98.14 input  -57.11 | X-H torsion

> <Gold.Protein.ActiveResidues>
 VAL166  LYS551  ARG553  GLY616  TRP617  ASP618  TYR619  PRO620  LYS621  CYS622 
 ASP623  PHE694  ASN695  SER759  ASP760  ASP761  ALA762  ILE779  LEU786  VAL792 
 PHE793  MET794  SER795  GLU796  ALA797  LYS798  CYS799  TRP800  GLU811  SER814 

> <Gold.Protein.RotatedAtoms>
  152.3421  133.6079  159.5883 H   0  0  0  0  0  0  0  0  0  0  0  0  # atno 6907 bound_to 6896
  150.7485  133.9706  159.3553 H   0  0  0  0  0  0  0  0  0  0  0  0  # atno 6908 bound_to 6896
  151.7569  135.0820  160.0390 H   0  0  0  0  0  0  0  0  0  0  0  0  # atno 6909 bound_to 6896
  145.7797  139.2882  143.1273 H   0  0  0  0  0  0  0  0  0  0  0  0  # atno 7974 bound_to 7965
  154.4166  140.1725  156.1800 H   0  0  0  0  0  0  0  0  0  0  0  0  # atno 8008 bound_to 7997
  155.9690  140.3387  155.6535 H   0  0  0  0  0  0  0  0  0  0  0  0  # atno 8009 bound_to 7997
  155.6650  140.0705  157.2531 H   0  0  0  0  0  0  0  0  0  0  0  0  # atno 8010 bound_to 7997
  140.0322  144.5457  150.7498 H   0  0  0  0  0  0  0  0  0  0  0  0  # atno 10167 bound_to 10162
  156.4997  130.8386  151.2604 H   0  0  0  0  0  0  0  0  0  0  0  0  # atno 10718 bound_to 10713
  154.8025  135.3247  154.7515 H   0  0  0  0  0  0  0  0  0  0  0  0  # atno 10763 bound_to 10752
  153.8180  135.6890  153.4835 H   0  0  0  0  0  0  0  0  0  0  0  0  # atno 10764 bound_to 10752
  153.1750  135.4608  154.9896 H   0  0  0  0  0  0  0  0  0  0  0  0  # atno 10765 bound_to 10752
  141.1355  133.8223  157.0800 H   0  0  0  0  0  0  0  0  0  0  0  0  # atno 11005 bound_to 11000
  146.0086  140.8455  142.9982 LP  0  0  0  0  0  0  0  0  0  0  0  0  # atno 17320 bound_to 7965
  144.6798  140.2457  143.7338 LP  0  0  0  0  0  0  0  0  0  0  0  0  # atno 17321 bound_to 7965
  140.7297  143.2675  151.3995 LP  0  0  0  0  0  0  0  0  0  0  0  0  # atno 17342 bound_to 10162
  139.6069  144.1179  152.2258 LP  0  0  0  0  0  0  0  0  0  0  0  0  # atno 17343 bound_to 10162
  157.7464  130.9986  150.2857 LP  0  0  0  0  0  0  0  0  0  0  0  0  # atno 17370 bound_to 10713
  156.3344  130.3805  149.7462 LP  0  0  0  0  0  0  0  0  0  0  0  0  # atno 17371 bound_to 10713
  140.0457  134.9831  157.1045 LP  0  0  0  0  0  0  0  0  0  0  0  0  # atno 17394 bound_to 11000
  140.4066  134.2026  155.7163 LP  0  0  0  0  0  0  0  0  0  0  0  0  # atno 17395 bound_to 11000

$$$$
