AV-unprocessed.smi:837|AV-procd|sdf|3903|dock7
  -GOLD-   22720 1363D 1   1.00000     0.00000
 Structure written by MMmdl.
 48 50  0  0  0  0  0  0  0  0  2 V2000
  152.2207  138.5282  159.0073 C   0  0  0  0  0  0  0  0  0  0  0  0
  151.8145  140.0178  159.0439 C   0  0  1  0  0  0  0  0  0  0  0  0
  152.9136  140.8665  159.7199 C   0  0  0  0  0  0  0  0  0  0  0  0
  152.4924  142.3359  159.8689 C   0  0  0  0  0  0  0  0  0  0  0  0
  152.1112  142.9432  158.5129 C   0  0  0  0  0  0  0  0  0  0  0  0
  151.0096  142.1195  157.8233 C   0  0  0  0  0  0  0  0  0  0  0  0
  151.3901  140.6238  157.6661 C   0  0  1  0  0  0  0  0  0  0  0  0
  152.4345  140.4759  156.6642 N   0  5  0  0  0  0  0  0  0  0  0  0
  151.9467  139.7639  155.6222 C   0  0  0  0  0  0  0  0  0  0  0  0
  152.5487  139.4622  154.5921 O   0  0  0  0  0  0  0  0  0  0  0  0
  150.6683  139.4012  155.8396 N   0  0  0  0  0  0  0  0  0  0  0  0
  149.8423  138.6382  154.8946 C   0  0  0  0  0  0  0  0  0  0  0  0
  150.4384  137.2639  154.5627 C   0  0  0  0  0  0  0  0  0  0  0  0
  151.6174  137.1540  154.2234 O   0  0  0  0  0  0  0  0  0  0  0  0
  149.5975  136.2216  154.6386 N   0  0  0  0  0  0  0  0  0  0  0  0
  149.9550  134.8354  154.3555 C   0  0  0  0  0  0  0  0  0  0  0  0
  148.8950  133.8365  154.8573 C   0  0  0  0  0  0  0  0  0  0  0  0
  147.9542  133.3597  153.7644 C   0  0  0  0  0  0  0  0  0  0  0  0
  147.6745  131.9879  153.5931 C   0  0  0  0  0  0  0  0  0  0  0  0
  146.8020  131.5982  152.5587 C   0  0  0  0  0  0  0  0  0  0  0  0
  146.2451  132.5993  151.7380 C   0  0  0  0  0  0  0  0  0  0  0  0
  146.5058  133.9152  151.8929 N   0  0  0  0  0  0  0  0  0  0  0  0
  147.3424  134.2806  152.8878 C   0  0  0  0  0  0  0  0  0  0  0  0
  150.2404  139.8627  157.0199 C   0  0  0  0  0  0  0  0  0  0  0  0
  149.1251  139.7182  157.5231 O   0  0  0  0  0  0  0  0  0  0  0  0
  153.1017  138.3682  158.3856 H   0  0  0  0  0  0  0  0  0  0  0  0
  151.4207  137.8966  158.6216 H   0  0  0  0  0  0  0  0  0  0  0  0
  152.4585  138.1669  160.0078 H   0  0  0  0  0  0  0  0  0  0  0  0
  150.9412  140.0744  159.6961 H   0  0  0  0  0  0  0  0  0  0  0  0
  153.1456  140.4585  160.7042 H   0  0  0  0  0  0  0  0  0  0  0  0
  153.8364  140.8083  159.1410 H   0  0  0  0  0  0  0  0  0  0  0  0
  151.6462  142.4070  160.5535 H   0  0  0  0  0  0  0  0  0  0  0  0
  153.3033  142.9106  160.3175 H   0  0  0  0  0  0  0  0  0  0  0  0
  151.7745  143.9712  158.6485 H   0  0  0  0  0  0  0  0  0  0  0  0
  152.9926  142.9915  157.8722 H   0  0  0  0  0  0  0  0  0  0  0  0
  150.0971  142.2030  158.4157 H   0  0  0  0  0  0  0  0  0  0  0  0
  150.7766  142.5627  156.8533 H   0  0  0  0  0  0  0  0  0  0  0  0
  148.8364  138.5191  155.3011 H   0  0  0  0  0  0  0  0  0  0  0  0
  149.7193  139.1919  153.9625 H   0  0  0  0  0  0  0  0  0  0  0  0
  148.6440  136.4006  154.9182 H   0  0  0  0  0  0  0  0  0  0  0  0
  150.1273  134.7011  153.2866 H   0  0  0  0  0  0  0  0  0  0  0  0
  150.9076  134.6346  154.8467 H   0  0  0  0  0  0  0  0  0  0  0  0
  149.3848  132.9725  155.3082 H   0  0  0  0  0  0  0  0  0  0  0  0
  148.3062  134.2962  155.6520 H   0  0  0  0  0  0  0  0  0  0  0  0
  148.1231  131.2466  154.2382 H   0  0  0  0  0  0  0  0  0  0  0  0
  146.5664  130.5568  152.3969 H   0  0  0  0  0  0  0  0  0  0  0  0
  145.5732  132.3360  150.9347 H   0  0  0  0  0  0  0  0  0  0  0  0
  147.5334  135.3393  152.9843 H   0  0  0  0  0  0  0  0  0  0  0  0
  1  2  1  0  0  0  0
  1 26  1  0  0  0  0
  1 27  1  0  0  0  0
  1 28  1  0  0  0  0
  2  7  1  0  0  0  0
  2  3  1  0  0  0  0
  2 29  1  0  0  0  0
  3  4  1  0  0  0  0
  3 30  1  0  0  0  0
  3 31  1  0  0  0  0
  4  5  1  0  0  0  0
  4 32  1  0  0  0  0
  4 33  1  0  0  0  0
  5  6  1  0  0  0  0
  5 34  1  0  0  0  0
  5 35  1  0  0  0  0
  6  7  1  0  0  0  0
  6 36  1  0  0  0  0
  6 37  1  0  0  0  0
  7 24  1  0  0  0  0
  7  8  1  0  0  0  0
  8  9  1  0  0  0  0
  9 10  2  0  0  0  0
  9 11  1  0  0  0  0
 11 12  1  0  0  0  0
 11 24  1  0  0  0  0
 12 13  1  0  0  0  0
 12 38  1  0  0  0  0
 12 39  1  0  0  0  0
 13 14  2  0  0  0  0
 13 15  1  0  0  0  0
 15 16  1  0  0  0  0
 15 40  1  0  0  0  0
 16 17  1  0  0  0  0
 16 41  1  0  0  0  0
 16 42  1  0  0  0  0
 17 18  1  0  0  0  0
 17 43  1  0  0  0  0
 17 44  1  0  0  0  0
 18 23  1  0  0  0  0
 18 19  2  0  0  0  0
 19 20  1  0  0  0  0
 19 45  1  0  0  0  0
 20 21  2  0  0  0  0
 20 46  1  0  0  0  0
 21 22  1  0  0  0  0
 21 47  1  0  0  0  0
 22 23  2  0  0  0  0
 23 48  1  0  0  0  0
 24 25  2  0  0  0  0
M  CHG  1   8  -1
M  END
> <s_m_source_file>
AV-unprocessed.smi

> <i_m_source_file_index>
837

> <i_lp_mmshare_version>
43012

> <i_f3d_flags>
0

> <s_epik_input>
W0NIMl0xW0NIMl1bQ0gyXVtDSDJdW0NAQEhdKFtDSDNdKVtDQEBdMTJbTkhdQyg9TylOKEMyPU8pW0NIMl1DKD1PKVtOSF1bQ0gyXVtDSDJdYzNbY0hdW2NIXVtjSF1uW2NIXTM=

> <s_epik_cmdline>
J2VwaWtfcHl0aG9uJywgJy1waCcsICc3LjAnLCAnLXRuJywgJzgnLCAnLW1hJywgJzIwMCcsICctbWV0YWxfYmluZGluZycsICctaW1hZScsICc8aW5maWxlLm1hZT4nLCAnLW9tYWUnLCAnPG91dGZpbGUubWFlPic=

> <r_lp_tautomer_probability>
1

> <r_epik_Ionization_Penalty>
6.03002

> <r_epik_Ionization_Penalty_Charging>
6.01728

> <r_epik_Ionization_Penalty_Neutral>
0.0127382

> <r_epik_State_Penalty>
6.02713

> <r_epik_Charging_Adjusted_Penalty>
12.0444

> <i_epik_Tot_Q>
-1

> <i_epik_Tot_abs_Q>
1

> <r_epik_Metal_State_Penalty>
1.99078

> <b_epik_Metal_Only>
1

> <s_lp_Force_Field>
OPLS_2005

> <r_lp_Energy>
20.5142

> <b_lp_Chiralities_Consistent>
1

> <s_lp_Variant>
AV-unprocessed.smi:837-12

> <Gold.Version>
5.8.1

> <Gold.Id.Protein>
6NUR|6NUR_protein|mol2

> <Gold.PLP.Fitness>
49.8015

> <Gold.PLP.PLP>
-38.5197

> <Gold.PLP.part.hbond>
-3.9150

> <Gold.PLP.part.metal>
0.0000

> <Gold.PLP.part.buried>
-1.3379

> <Gold.PLP.part.nonpolar>
-33.3811

> <Gold.PLP.part.repulsive>
0.5647

> <Gold.PLP.ligand.clash>
0.0000

> <Gold.PLP.ligand.torsion>
0.5965

> <Gold.PLP.Chemscore.Hbond>
3.1956

> <Gold.PLP.Chemscore.CHOScore>
0.9527

> <Gold.PLP.Chemscore.Metal>
0.0000

> <Gold.Chemscore.Hbonds>
donor molecule, donor type, donor heavy atom, donor atom, acceptor molecule, acceptor atom, score
      P1  H  7989  7998       L1    10  0.44
      P1  H  7997  8009       L1     8  1.86
      P1  H 10752 10765       L1    14  1.00
      L1  C    23    48       P1  7948  0.73

> <Gold.PLP.Chemscore.Internal.Correction>
0.0297

> <Gold.Rescore>
     Score         DG    S(hbond)    S(metal)    S(lipo)     H(rot)  DE(clash)    DE(int)     intcor
     13.90     -17.01       1.78        0.00      87.19       1.81       0.23       2.87       ----

> <Gold.Chemscore.Fitness>
13.9005

> <Gold.Chemscore.DG>
-17.0094

> <Gold.Chemscore.ZeroCoef>
-5.4800

> <Gold.Chemscore.Hbond>
1.7843

> <Gold.Chemscore.Metal>
0.0000

> <Gold.Chemscore.Lipo>
87.1883

> <Gold.Chemscore.Internal_Hbond>
0.0000

> <Gold.Chemscore.DEClash>
0.2349

> <Gold.Chemscore.DEInternal>
2.8741

> <Gold.Chemscore.Rot>
1.8090

> <Gold.Chemscore.Internal.Correction>
   9.000000E+99

> <Gold.Chemscore.Hbonds>
donor molecule, donor type, donor heavy atom, donor atom, acceptor molecule, acceptor atom, score
      P1  H  7989  7998       L1    10  0.06
      P1  H  7997  8009       L1     8  0.23
      P1  H 10752 10765       L1    14  0.96

> <Gold.Chemscore.Hbond.Weighted>
-5.9594

> <Gold.Chemscore.Metal.Weighted>
-0.0000

> <Gold.Chemscore.Lipo.Weighted>
-10.2010

> <Gold.Chemscore.Internal_Hbond.Weighted>
0.0000

> <Gold.Chemscore.DEClash.Weighted>
0.2349

> <Gold.Chemscore.DEInternal.Weighted>
2.8741

> <Gold.Chemscore.Rot.Weighted>
4.6310

> <Gold.Chemscore.Internal.Correction.Weighted>
   9.000000E+99

> <Gold.Protein.RotatedTorsions>
[ 6907 6896 6895 6894 ] final  139.41 input  -60.11 | X-H torsion
[ 7974 7965 7964 7962 ] final -102.41 input  175.53 | X-H torsion
[ 8008 7997 7996 7995 ] final -168.03 input   59.86 | X-H torsion
[ 10167 10162 10161 10158 ] final  160.80 input  -65.29 | X-H torsion
[ 10718 10713 10712 10709 ] final   -4.36 input   66.30 | X-H torsion
[ 10763 10752 10751 10750 ] final  157.94 input  -60.55 | X-H torsion
[ 11005 11000 10999 10996 ] final    5.70 input  -57.11 | X-H torsion

> <Gold.Protein.ActiveResidues>
 VAL166  LYS551  ARG553  GLY616  TRP617  ASP618  TYR619  PRO620  LYS621  CYS622 
 ASP623  PHE694  ASN695  SER759  ASP760  ASP761  ALA762  ILE779  LEU786  VAL792 
 PHE793  MET794  SER795  GLU796  ALA797  LYS798  CYS799  TRP800  GLU811  SER814 

> <Gold.Protein.RotatedAtoms>
  152.2552  133.5249  159.5348 H   0  0  0  0  0  0  0  0  0  0  0  0  # atno 6907 bound_to 6896
  150.7106  134.0905  159.3939 H   0  0  0  0  0  0  0  0  0  0  0  0  # atno 6908 bound_to 6896
  151.8824  135.0448  160.0541 H   0  0  0  0  0  0  0  0  0  0  0  0  # atno 6909 bound_to 6896
  145.2691  140.9293  143.2997 H   0  0  0  0  0  0  0  0  0  0  0  0  # atno 7974 bound_to 7965
  155.8859  140.1016  157.1453 H   0  0  0  0  0  0  0  0  0  0  0  0  # atno 8008 bound_to 7997
  154.4010  140.1320  156.4318 H   0  0  0  0  0  0  0  0  0  0  0  0  # atno 8009 bound_to 7997
  155.7590  140.3463  155.5190 H   0  0  0  0  0  0  0  0  0  0  0  0  # atno 8010 bound_to 7997
  139.4843  144.4599  151.8719 H   0  0  0  0  0  0  0  0  0  0  0  0  # atno 10167 bound_to 10162
  156.7624  130.5274  149.5782 H   0  0  0  0  0  0  0  0  0  0  0  0  # atno 10718 bound_to 10713
  154.2082  135.2787  155.2967 H   0  0  0  0  0  0  0  0  0  0  0  0  # atno 10763 bound_to 10752
  154.5800  135.5592  153.7179 H   0  0  0  0  0  0  0  0  0  0  0  0  # atno 10764 bound_to 10752
  153.0071  135.6342  154.2221 H   0  0  0  0  0  0  0  0  0  0  0  0  # atno 10765 bound_to 10752
  140.5678  134.0131  155.7996 H   0  0  0  0  0  0  0  0  0  0  0  0  # atno 11005 bound_to 11000
  144.9351  139.4253  143.6476 LP  0  0  0  0  0  0  0  0  0  0  0  0  # atno 17320 bound_to 7965
  146.3252  139.8282  142.8913 LP  0  0  0  0  0  0  0  0  0  0  0  0  # atno 17321 bound_to 7965
  140.4060  144.2431  150.5890 LP  0  0  0  0  0  0  0  0  0  0  0  0  # atno 17342 bound_to 10162
  140.5012  143.2317  151.8676 LP  0  0  0  0  0  0  0  0  0  0  0  0  # atno 17343 bound_to 10162
  156.1330  130.6192  151.0361 LP  0  0  0  0  0  0  0  0  0  0  0  0  # atno 17370 bound_to 10713
  157.6728  131.0857  150.7569 LP  0  0  0  0  0  0  0  0  0  0  0  0  # atno 17371 bound_to 10713
  141.1075  133.9670  157.2971 LP  0  0  0  0  0  0  0  0  0  0  0  0  # atno 17394 bound_to 11000
  139.9376  135.0195  156.8607 LP  0  0  0  0  0  0  0  0  0  0  0  0  # atno 17395 bound_to 11000

$$$$
