AV-unprocessed.smi:3217|AV-procd|sdf|12290|dock4
  -GOLD-   2272018133D 1   1.00000     0.00000
 Structure written by MMmdl.
 34 35  0  0  0  0  0  0  0  0  1 V2000
  145.5619  134.2184  153.7583 C   0  0  0  0  0  0  0  0  0  0  0  0
  145.3921  135.3181  152.7001 C   0  0  1  0  0  0  0  0  0  0  0  0
  146.5326  136.2299  152.7802 N   0  0  0  0  0  0  0  0  0  0  0  0
  146.5259  137.4535  153.3288 C   0  0  0  0  0  0  0  0  0  0  0  0
  145.5285  137.9693  153.8319 O   0  0  0  0  0  0  0  0  0  0  0  0
  147.7446  138.0164  153.2612 N   0  0  0  0  0  0  0  0  0  0  0  0
  148.1738  139.2811  153.7491 C   0  0  0  0  0  0  0  0  0  0  0  0
  147.3685  140.4459  153.7839 C   0  0  0  0  0  0  0  0  0  0  0  0
  147.9218  141.6403  154.2846 C   0  0  0  0  0  0  0  0  0  0  0  0
  149.2596  141.6303  154.7239 C   0  0  0  0  0  0  0  0  0  0  0  0
  150.0426  140.5320  154.6844 N   0  0  0  0  0  0  0  0  0  0  0  0
  149.5050  139.3903  154.2043 C   0  0  0  0  0  0  0  0  0  0  0  0
  145.2690  134.7363  151.2771 C   0  0  2  0  0  0  0  0  0  0  0  0
  144.0717  133.8061  151.0637 C   0  0  0  0  0  0  0  0  0  0  0  0
  144.5488  132.9445  149.9178 C   0  0  0  0  0  0  0  0  0  0  0  0
  146.0202  132.7563  150.2699 C   0  0  0  0  0  0  0  0  0  0  0  0
  146.4101  133.9392  150.9625 O   0  0  0  0  0  0  0  0  0  0  0  0
  144.7118  133.5358  153.7572 H   0  0  0  0  0  0  0  0  0  0  0  0
  145.6363  134.6463  154.7588 H   0  0  0  0  0  0  0  0  0  0  0  0
  146.4621  133.6293  153.5801 H   0  0  0  0  0  0  0  0  0  0  0  0
  144.4685  135.8531  152.9280 H   0  0  0  0  0  0  0  0  0  0  0  0
  147.4022  135.8935  152.3936 H   0  0  0  0  0  0  0  0  0  0  0  0
  148.4728  137.4406  152.8650 H   0  0  0  0  0  0  0  0  0  0  0  0
  146.3497  140.4561  153.4308 H   0  0  0  0  0  0  0  0  0  0  0  0
  147.3336  142.5449  154.3277 H   0  0  0  0  0  0  0  0  0  0  0  0
  149.7142  142.5297  155.1121 H   0  0  0  0  0  0  0  0  0  0  0  0
  150.1616  138.5324  154.1878 H   0  0  0  0  0  0  0  0  0  0  0  0
  145.2220  135.5436  150.5441 H   0  0  0  0  0  0  0  0  0  0  0  0
  143.9006  133.1884  151.9468 H   0  0  0  0  0  0  0  0  0  0  0  0
  143.1498  134.3430  150.8384 H   0  0  0  0  0  0  0  0  0  0  0  0
  144.0063  132.0026  149.8324 H   0  0  0  0  0  0  0  0  0  0  0  0
  144.4516  133.4848  148.9751 H   0  0  0  0  0  0  0  0  0  0  0  0
  146.1446  131.9060  150.9416 H   0  0  0  0  0  0  0  0  0  0  0  0
  146.6406  132.5857  149.3899 H   0  0  0  0  0  0  0  0  0  0  0  0
  1  2  1  0  0  0  0
  1 18  1  0  0  0  0
  1 19  1  0  0  0  0
  1 20  1  0  0  0  0
  2  3  1  0  0  0  0
  2 13  1  0  0  0  0
  2 21  1  0  0  0  0
  3  4  1  0  0  0  0
  3 22  1  0  0  0  0
  4  5  2  0  0  0  0
  4  6  1  0  0  0  0
  6  7  1  0  0  0  0
  6 23  1  0  0  0  0
  7 12  1  0  0  0  0
  7  8  2  0  0  0  0
  8  9  1  0  0  0  0
  8 24  1  0  0  0  0
  9 10  2  0  0  0  0
  9 25  1  0  0  0  0
 10 11  1  0  0  0  0
 10 26  1  0  0  0  0
 11 12  2  0  0  0  0
 12 27  1  0  0  0  0
 13 17  1  0  0  0  0
 13 14  1  0  0  0  0
 13 28  1  0  0  0  0
 14 15  1  0  0  0  0
 14 29  1  0  0  0  0
 14 30  1  0  0  0  0
 15 16  1  0  0  0  0
 15 31  1  0  0  0  0
 15 32  1  0  0  0  0
 16 17  1  0  0  0  0
 16 33  1  0  0  0  0
 16 34  1  0  0  0  0
M  END
> <s_m_source_file>
AV-unprocessed.smi

> <i_m_source_file_index>
3217

> <i_lp_mmshare_version>
43012

> <i_f3d_flags>
0

> <s_epik_input>
TzFbQ0gyXVtDSDJdW0NIMl1bQ0BIXTFbQ0BIXShbQ0gzXSlbTkhdQyg9TylbTkhdYzJbY0hdW2NIXVtjSF1uW2NIXTI=

> <s_epik_cmdline>
J2VwaWtfcHl0aG9uJywgJy1waCcsICc3LjAnLCAnLXRuJywgJzgnLCAnLW1hJywgJzIwMCcsICctbWV0YWxfYmluZGluZycsICctaW1hZScsICc8aW5maWxlLm1hZT4nLCAnLW9tYWUnLCAnPG91dGZpbGUubWFlPic=

> <r_epik_Ionization_Penalty>
0.00475451

> <r_epik_Ionization_Penalty_Charging>
0

> <r_epik_Ionization_Penalty_Neutral>
0.00475451

> <r_epik_State_Penalty>
0.00341814

> <r_epik_Charging_Adjusted_Penalty>
0.00341814

> <i_epik_Tot_Q>
0

> <i_epik_Tot_abs_Q>
0

> <r_epik_Metal_State_Penalty>
-0

> <b_epik_Metal_Only>
0

> <s_lp_Force_Field>
OPLS_2005

> <r_lp_Energy>
20.7148

> <b_lp_Chiralities_Consistent>
1

> <s_lp_Variant>
AV-unprocessed.smi:3217-2

> <Gold.Version>
5.8.1

> <Gold.Id.Protein>
6NUR|6NUR_protein|mol2

> <Gold.PLP.Fitness>
38.6371

> <Gold.PLP.PLP>
-27.8368

> <Gold.PLP.part.hbond>
-3.0000

> <Gold.PLP.part.metal>
0.0000

> <Gold.PLP.part.buried>
-1.3844

> <Gold.PLP.part.nonpolar>
-23.6111

> <Gold.PLP.part.repulsive>
0.5229

> <Gold.PLP.ligand.clash>
0.0000

> <Gold.PLP.ligand.torsion>
0.4123

> <Gold.PLP.Chemscore.Hbond>
2.8720

> <Gold.PLP.Chemscore.CHOScore>
1.0000

> <Gold.PLP.Chemscore.Metal>
0.0000

> <Gold.Chemscore.Hbonds>
donor molecule, donor type, donor heavy atom, donor atom, acceptor molecule, acceptor atom, score
      L1  H     3    22       P1  7948  0.99
      L1  H     6    23       P1  7948  1.00
      P1  H  7989  7998       L1    11  0.90
      L1  C    10    26       P1  8028  1.00

> <Gold.PLP.Chemscore.Internal.Correction>
0.0088

> <Gold.Rescore>
     Score         DG    S(hbond)    S(metal)    S(lipo)     H(rot)  DE(clash)    DE(int)     intcor
     16.66     -18.34       2.35        0.00      69.54       1.22       0.39       1.29       ----

> <Gold.Chemscore.Fitness>
16.6637

> <Gold.Chemscore.DG>
-18.3401

> <Gold.Chemscore.ZeroCoef>
-5.4800

> <Gold.Chemscore.Hbond>
2.3521

> <Gold.Chemscore.Metal>
0.0000

> <Gold.Chemscore.Lipo>
69.5444

> <Gold.Chemscore.Internal_Hbond>
0.0000

> <Gold.Chemscore.DEClash>
0.3861

> <Gold.Chemscore.DEInternal>
1.2904

> <Gold.Chemscore.Rot>
1.2236

> <Gold.Chemscore.Internal.Correction>
   9.000000E+99

> <Gold.Chemscore.Hbonds>
donor molecule, donor type, donor heavy atom, donor atom, acceptor molecule, acceptor atom, score
      L1  H     3    22       P1  7948  0.94
      L1  H     6    23       P1  7948  0.95
      P1  H  7989  7998       L1    11  0.30

> <Gold.Chemscore.Hbond.Weighted>
-7.8560

> <Gold.Chemscore.Metal.Weighted>
-0.0000

> <Gold.Chemscore.Lipo.Weighted>
-8.1367

> <Gold.Chemscore.Internal_Hbond.Weighted>
0.0000

> <Gold.Chemscore.DEClash.Weighted>
0.3861

> <Gold.Chemscore.DEInternal.Weighted>
1.2904

> <Gold.Chemscore.Rot.Weighted>
3.1325

> <Gold.Chemscore.Internal.Correction.Weighted>
   9.000000E+99

> <Gold.Protein.RotatedTorsions>
[ 6907 6896 6895 6894 ] final  178.51 input  -60.11 | X-H torsion
[ 7974 7965 7964 7962 ] final   85.95 input  175.53 | X-H torsion
[ 8008 7997 7996 7995 ] final -163.27 input   59.86 | X-H torsion
[ 10167 10162 10161 10158 ] final  116.41 input  -65.29 | X-H torsion
[ 10718 10713 10712 10709 ] final  -61.00 input   66.30 | X-H torsion
[ 10763 10752 10751 10750 ] final  -61.23 input  -60.55 | X-H torsion
[ 11005 11000 10999 10996 ] final  -53.53 input  -57.11 | X-H torsion

> <Gold.Protein.ActiveResidues>
 VAL166  LYS551  ARG553  GLY616  TRP617  ASP618  TYR619  PRO620  LYS621  CYS622 
 ASP623  PHE694  ASN695  SER759  ASP760  ASP761  ALA762  ILE779  LEU786  VAL792 
 PHE793  MET794  SER795  GLU796  ALA797  LYS798  CYS799  TRP800  GLU811  SER814 

> <Gold.Protein.RotatedAtoms>
  151.6866  133.3311  159.3232 H   0  0  0  0  0  0  0  0  0  0  0  0  # atno 6907 bound_to 6896
  150.7798  134.6734  159.6414 H   0  0  0  0  0  0  0  0  0  0  0  0  # atno 6908 bound_to 6896
  152.3852  134.6532  160.0180 H   0  0  0  0  0  0  0  0  0  0  0  0  # atno 6909 bound_to 6896
  145.5787  139.2322  143.2365 H   0  0  0  0  0  0  0  0  0  0  0  0  # atno 7974 bound_to 7965
  155.8188  140.0916  157.1861 H   0  0  0  0  0  0  0  0  0  0  0  0  # atno 8008 bound_to 7997
  154.3979  140.1440  156.3535 H   0  0  0  0  0  0  0  0  0  0  0  0  # atno 8009 bound_to 7997
  155.8288  140.3443  155.5561 H   0  0  0  0  0  0  0  0  0  0  0  0  # atno 8010 bound_to 7997
  139.6249  144.7107  151.2555 H   0  0  0  0  0  0  0  0  0  0  0  0  # atno 10167 bound_to 10162
  156.0951  130.4194  150.0933 H   0  0  0  0  0  0  0  0  0  0  0  0  # atno 10718 bound_to 10713
  154.2815  135.6271  153.5349 H   0  0  0  0  0  0  0  0  0  0  0  0  # atno 10763 bound_to 10752
  152.9865  135.5634  154.5491 H   0  0  0  0  0  0  0  0  0  0  0  0  # atno 10764 bound_to 10752
  154.5082  135.2875  155.1340 H   0  0  0  0  0  0  0  0  0  0  0  0  # atno 10765 bound_to 10752
  141.0981  133.6621  156.4186 H   0  0  0  0  0  0  0  0  0  0  0  0  # atno 11005 bound_to 11000
  146.1732  140.6613  142.9223 LP  0  0  0  0  0  0  0  0  0  0  0  0  # atno 17320 bound_to 7965
  144.7404  140.4926  143.6873 LP  0  0  0  0  0  0  0  0  0  0  0  0  # atno 17321 bound_to 7965
  140.7404  143.6587  150.8183 LP  0  0  0  0  0  0  0  0  0  0  0  0  # atno 17342 bound_to 10162
  140.0203  143.5549  152.2803 LP  0  0  0  0  0  0  0  0  0  0  0  0  # atno 17343 bound_to 10162
  156.8933  130.9596  151.3585 LP  0  0  0  0  0  0  0  0  0  0  0  0  # atno 17370 bound_to 10713
  157.6111  130.8583  149.8952 LP  0  0  0  0  0  0  0  0  0  0  0  0  # atno 17371 bound_to 10713
  140.5091  134.6412  157.5277 LP  0  0  0  0  0  0  0  0  0  0  0  0  # atno 17394 bound_to 11000
  139.9823  134.7117  155.9836 LP  0  0  0  0  0  0  0  0  0  0  0  0  # atno 17395 bound_to 11000

$$$$
