AV-unprocessed.smi:1512|AV-procd|sdf|6101|dock4
  -GOLD-   22720 6233D 1   1.00000     0.00000
 Structure written by MMmdl.
 44 46  0  0  0  0  0  0  0  0  3 V2000
  150.9819  140.5446  157.5377 C   0  0  0  0  0  0  0  0  0  0  0  0
  150.9271  141.9194  156.8505 C   0  0  1  0  0  0  0  0  0  0  0  0
  149.7235  141.9727  156.0223 N   0  0  0  0  0  0  0  0  0  0  0  0
  149.4161  141.1324  155.0224 C   0  0  0  0  0  0  0  0  0  0  0  0
  150.1004  140.1547  154.7184 O   0  0  0  0  0  0  0  0  0  0  0  0
  148.1283  141.4476  154.2502 C   0  0  0  0  0  0  0  0  0  0  0  0
  147.2976  140.2521  154.0267 N   0  0  0  0  0  0  0  0  0  0  0  0
  147.1707  139.8009  152.6998 C   0  0  0  0  0  0  0  0  0  0  0  0
  146.4293  138.7295  152.3837 C   0  0  0  0  0  0  0  0  0  0  0  0
  145.7515  138.0301  153.4477 C   0  0  0  0  0  0  0  0  0  0  0  0
  145.8583  138.4449  154.7312 C   0  0  0  0  0  0  0  0  0  0  0  0
  145.1557  137.6967  155.7486 N   0  3  0  0  0  0  0  0  0  0  0  0
  145.2621  138.0447  156.9206 O   0  0  0  0  0  0  0  0  0  0  0  0
  144.4857  136.7273  155.4048 O   0  5  0  0  0  0  0  0  0  0  0  0
  146.6706  139.6307  155.0744 C   0  0  0  0  0  0  0  0  0  0  0  0
  146.7809  140.0553  156.2265 O   0  0  0  0  0  0  0  0  0  0  0  0
  150.9126  143.0983  157.8555 C   0  0  2  0  0  0  0  0  0  0  0  0
  151.7523  144.3211  157.4022 C   0  0  0  0  0  0  0  0  0  0  0  0
  152.6775  144.5826  158.6027 C   0  0  1  0  0  0  0  0  0  0  0  0
  151.8500  145.1072  159.7901 C   0  0  0  0  0  0  0  0  0  0  0  0
  151.0843  143.8523  160.2486 C   0  0  0  0  0  0  0  0  0  0  0  0
  151.5430  142.7848  159.2363 C   0  0  2  0  0  0  0  0  0  0  0  0
  153.0082  143.1638  159.0436 C   0  0  0  0  0  0  0  0  0  0  0  0
  151.8992  140.4128  158.1101 H   0  0  0  0  0  0  0  0  0  0  0  0
  150.9473  139.7399  156.8025 H   0  0  0  0  0  0  0  0  0  0  0  0
  150.1412  140.4073  158.2188 H   0  0  0  0  0  0  0  0  0  0  0  0
  151.8148  142.0138  156.2232 H   0  0  0  0  0  0  0  0  0  0  0  0
  149.0919  142.7406  156.1983 H   0  0  0  0  0  0  0  0  0  0  0  0
  147.5783  142.2077  154.8065 H   0  0  0  0  0  0  0  0  0  0  0  0
  148.3707  141.9139  153.2930 H   0  0  0  0  0  0  0  0  0  0  0  0
  147.7025  140.3825  151.9607 H   0  0  0  0  0  0  0  0  0  0  0  0
  146.3393  138.4006  151.3588 H   0  0  0  0  0  0  0  0  0  0  0  0
  145.1599  137.1600  153.2028 H   0  0  0  0  0  0  0  0  0  0  0  0
  149.8747  143.4065  157.9925 H   0  0  0  0  0  0  0  0  0  0  0  0
  152.3553  144.0930  156.5224 H   0  0  0  0  0  0  0  0  0  0  0  0
  151.1318  145.1840  157.1585 H   0  0  0  0  0  0  0  0  0  0  0  0
  153.5403  145.2040  158.3614 H   0  0  0  0  0  0  0  0  0  0  0  0
  152.4988  145.4732  160.5870 H   0  0  0  0  0  0  0  0  0  0  0  0
  151.1826  145.9193  159.5002 H   0  0  0  0  0  0  0  0  0  0  0  0
  151.3786  143.5748  161.2617 H   0  0  0  0  0  0  0  0  0  0  0  0
  150.0034  143.9967  160.2452 H   0  0  0  0  0  0  0  0  0  0  0  0
  151.3804  141.7690  159.5939 H   0  0  0  0  0  0  0  0  0  0  0  0
  153.5149  142.5779  158.2749 H   0  0  0  0  0  0  0  0  0  0  0  0
  153.5915  143.1229  159.9654 H   0  0  0  0  0  0  0  0  0  0  0  0
  1  2  1  0  0  0  0
  1 24  1  0  0  0  0
  1 25  1  0  0  0  0
  1 26  1  0  0  0  0
  2  3  1  0  0  0  0
  2 17  1  0  0  0  0
  2 27  1  0  0  0  0
  3  4  1  0  0  0  0
  3 28  1  0  0  0  0
  4  5  2  0  0  0  0
  4  6  1  0  0  0  0
  6  7  1  0  0  0  0
  6 29  1  0  0  0  0
  6 30  1  0  0  0  0
  7 15  1  0  0  0  0
  7  8  1  0  0  0  0
  8  9  2  0  0  0  0
  8 31  1  0  0  0  0
  9 10  1  0  0  0  0
  9 32  1  0  0  0  0
 10 11  2  0  0  0  0
 10 33  1  0  0  0  0
 11 12  1  0  0  0  0
 11 15  1  0  0  0  0
 12 13  2  0  0  0  0
 12 14  1  0  0  0  0
 15 16  2  0  0  0  0
 17 22  1  0  0  0  0
 17 18  1  0  0  0  0
 17 34  1  0  0  0  0
 18 19  1  0  0  0  0
 18 35  1  0  0  0  0
 18 36  1  0  0  0  0
 19 23  1  0  0  0  0
 19 20  1  0  0  0  0
 19 37  1  0  0  0  0
 20 21  1  0  0  0  0
 20 38  1  0  0  0  0
 20 39  1  0  0  0  0
 21 22  1  0  0  0  0
 21 40  1  0  0  0  0
 21 41  1  0  0  0  0
 22 23  1  0  0  0  0
 22 42  1  0  0  0  0
 23 43  1  0  0  0  0
 23 44  1  0  0  0  0
M  CHG  1  12   1
M  CHG  1  14  -1
M  END
> <s_m_source_file>
AV-unprocessed.smi

> <i_m_source_file_index>
1512

> <i_lp_mmshare_version>
43012

> <i_f3d_flags>
0

> <s_epik_input>
W0NIMl0xW0NIMl1bQ0BIXShbQ0gyXTIpW0NAQEhdKFtDSDJdW0NAQEhdMTIpW0NASF0oW0NIM10pW05IXUMoPU8pW0NIMl1uM1tjSF1bY0hdW2NIXWMoW04rXSg9TylbTy1dKWMzPU8=

> <s_epik_cmdline>
J2VwaWtfcHl0aG9uJywgJy1waCcsICc3LjAnLCAnLXRuJywgJzgnLCAnLW1hJywgJzIwMCcsICctbWV0YWxfYmluZGluZycsICctaW1hZScsICc8aW5maWxlLm1hZT4nLCAnLW9tYWUnLCAnPG91dGZpbGUubWFlPic=

> <r_lp_tautomer_probability>
1

> <r_epik_Ionization_Penalty>
2.17697e-08

> <r_epik_Ionization_Penalty_Charging>
1.42735e-10

> <r_epik_Ionization_Penalty_Neutral>
2.16269e-08

> <r_epik_State_Penalty>
-0

> <r_epik_Charging_Adjusted_Penalty>
1.42735e-10

> <i_epik_Tot_Q>
0

> <i_epik_Tot_abs_Q>
2

> <r_epik_Metal_State_Penalty>
-0

> <b_epik_Metal_Only>
0

> <s_lp_Force_Field>
OPLS_2005

> <r_lp_Energy>
64.6124

> <b_lp_Chiralities_Consistent>
1

> <s_lp_Variant>
AV-unprocessed.smi:1512-2

> <Gold.Version>
5.8.1

> <Gold.Id.Protein>
6NUR|6NUR_protein|mol2

> <Gold.PLP.Fitness>
50.1702

> <Gold.PLP.PLP>
-44.1231

> <Gold.PLP.part.hbond>
-2.0000

> <Gold.PLP.part.metal>
0.0000

> <Gold.PLP.part.buried>
-3.9804

> <Gold.PLP.part.nonpolar>
-39.4171

> <Gold.PLP.part.repulsive>
0.2182

> <Gold.PLP.ligand.clash>
0.0000

> <Gold.PLP.ligand.torsion>
1.2499

> <Gold.PLP.Chemscore.Hbond>
1.8640

> <Gold.PLP.Chemscore.CHOScore>
0.9662

> <Gold.PLP.Chemscore.Metal>
0.0000

> <Gold.Chemscore.Hbonds>
donor molecule, donor type, donor heavy atom, donor atom, acceptor molecule, acceptor atom, score
      L1  H     3    28       P1  8028  0.71
      P1  H  7989  7998       L1     5  0.88
      L1  C     8    31       P1  7957  0.99

> <Gold.PLP.Chemscore.Internal.Correction>
0.0565

> <Gold.Rescore>
     Score         DG    S(hbond)    S(metal)    S(lipo)     H(rot)  DE(clash)    DE(int)     intcor
     16.43     -20.68       1.51        0.00     125.09       1.75       0.15       4.10       ----

> <Gold.Chemscore.Fitness>
16.4320

> <Gold.Chemscore.DG>
-20.6798

> <Gold.Chemscore.ZeroCoef>
-5.4800

> <Gold.Chemscore.Hbond>
1.5084

> <Gold.Chemscore.Metal>
0.0000

> <Gold.Chemscore.Lipo>
125.0859

> <Gold.Chemscore.Internal_Hbond>
0.0000

> <Gold.Chemscore.DEClash>
0.1524

> <Gold.Chemscore.DEInternal>
4.0954

> <Gold.Chemscore.Rot>
1.7474

> <Gold.Chemscore.Internal.Correction>
   9.000000E+99

> <Gold.Chemscore.Hbonds>
donor molecule, donor type, donor heavy atom, donor atom, acceptor molecule, acceptor atom, score
      L1  H     3    28       P1  8028  0.69
      P1  H  7989  7998       L1     5  0.46

> <Gold.Chemscore.Hbond.Weighted>
-5.0381

> <Gold.Chemscore.Metal.Weighted>
-0.0000

> <Gold.Chemscore.Lipo.Weighted>
-14.6351

> <Gold.Chemscore.Internal_Hbond.Weighted>
0.0000

> <Gold.Chemscore.DEClash.Weighted>
0.1524

> <Gold.Chemscore.DEInternal.Weighted>
4.0954

> <Gold.Chemscore.Rot.Weighted>
4.4733

> <Gold.Chemscore.Internal.Correction.Weighted>
   9.000000E+99

> <Gold.Protein.RotatedTorsions>
[ 6907 6896 6895 6894 ] final -121.47 input  -60.11 | X-H torsion
[ 7974 7965 7964 7962 ] final  -57.61 input  175.53 | X-H torsion
[ 8008 7997 7996 7995 ] final -174.51 input   59.86 | X-H torsion
[ 10167 10162 10161 10158 ] final   -9.06 input  -65.29 | X-H torsion
[ 10718 10713 10712 10709 ] final  -42.17 input   66.30 | X-H torsion
[ 10763 10752 10751 10750 ] final  166.83 input  -60.55 | X-H torsion
[ 11005 11000 10999 10996 ] final -151.43 input  -57.11 | X-H torsion

> <Gold.Protein.ActiveResidues>
 VAL166  LYS551  ARG553  GLY616  TRP617  ASP618  TYR619  PRO620  LYS621  CYS622 
 ASP623  PHE694  ASN695  SER759  ASP760  ASP761  ALA762  ILE779  LEU786  VAL792 
 PHE793  MET794  SER795  GLU796  ALA797  LYS798  CYS799  TRP800  GLU811  SER814 

> <Gold.Protein.RotatedAtoms>
  150.8486  133.7822  159.3033 H   0  0  0  0  0  0  0  0  0  0  0  0  # atno 6907 bound_to 6896
  151.5501  135.1066  159.9957 H   0  0  0  0  0  0  0  0  0  0  0  0  # atno 6908 bound_to 6896
  152.4534  133.7632  159.6814 H   0  0  0  0  0  0  0  0  0  0  0  0  # atno 6909 bound_to 6896
  145.8491  140.8365  142.9995 H   0  0  0  0  0  0  0  0  0  0  0  0  # atno 7974 bound_to 7965
  155.9710  140.1163  157.0812 H   0  0  0  0  0  0  0  0  0  0  0  0  # atno 8008 bound_to 7997
  154.4156  140.1163  156.5374 H   0  0  0  0  0  0  0  0  0  0  0  0  # atno 8009 bound_to 7997
  155.6596  140.3473  155.4780 H   0  0  0  0  0  0  0  0  0  0  0  0  # atno 8010 bound_to 7997
  140.7077  143.5899  150.8904 H   0  0  0  0  0  0  0  0  0  0  0  0  # atno 10167 bound_to 10162
  156.2625  130.4198  149.8526 H   0  0  0  0  0  0  0  0  0  0  0  0  # atno 10718 bound_to 10713
  154.3448  135.2753  155.2403 H   0  0  0  0  0  0  0  0  0  0  0  0  # atno 10763 bound_to 10752
  154.4658  135.5895  153.6290 H   0  0  0  0  0  0  0  0  0  0  0  0  # atno 10764 bound_to 10752
  152.9854  135.6076  154.3653 H   0  0  0  0  0  0  0  0  0  0  0  0  # atno 10765 bound_to 10752
  140.7296  134.3636  157.5169 H   0  0  0  0  0  0  0  0  0  0  0  0  # atno 11005 bound_to 11000
  144.6730  140.0926  143.7464 LP  0  0  0  0  0  0  0  0  0  0  0  0  # atno 17320 bound_to 7965
  145.9378  139.2649  143.1286 LP  0  0  0  0  0  0  0  0  0  0  0  0  # atno 17321 bound_to 7965
  139.9625  143.6148  152.2998 LP  0  0  0  0  0  0  0  0  0  0  0  0  # atno 17342 bound_to 10162
  139.6705  144.7661  151.1791 LP  0  0  0  0  0  0  0  0  0  0  0  0  # atno 17343 bound_to 10162
  156.6037  130.8557  151.3438 LP  0  0  0  0  0  0  0  0  0  0  0  0  # atno 17370 bound_to 10713
  157.7255  130.9617  150.1619 LP  0  0  0  0  0  0  0  0  0  0  0  0  # atno 17371 bound_to 10713
  139.8829  134.9009  156.2800 LP  0  0  0  0  0  0  0  0  0  0  0  0  # atno 17394 bound_to 11000
  140.9932  133.7196  156.0846 LP  0  0  0  0  0  0  0  0  0  0  0  0  # atno 17395 bound_to 11000

$$$$
