AV-unprocessed.smi:100|AV-procd|sdf|912|dock7
  -GOLD-   2262017413D 1   1.00000     0.00000
 Structure written by MMmdl.
 31 33  0  0  0  0  0  0  0  0  1 V2000
  138.7429  136.6157  154.5682 N   0  0  0  0  0  0  0  0  0  0  0  0
  139.9292  136.9009  154.0133 C   0  0  0  0  0  0  0  0  0  0  0  0
  140.2213  138.1959  153.7522 N   0  0  0  0  0  0  0  0  0  0  0  0
  141.3946  138.5049  153.1918 C   0  0  0  0  0  0  0  0  0  0  0  0
  142.3875  137.6888  152.8295 N   0  0  0  0  0  0  0  0  0  0  0  0
  142.0983  136.3807  153.1000 C   0  0  0  0  0  0  0  0  0  0  0  0
  140.8883  135.9096  153.6836 C   0  0  0  0  0  0  0  0  0  0  0  0
  140.9210  134.5274  153.7940 N   0  0  0  0  0  0  0  0  0  0  0  0
  142.0834  134.2026  153.2968 C   0  0  0  0  0  0  0  0  0  0  0  0
  142.8745  135.2550  152.8828 N   0  0  0  0  0  0  0  0  0  0  0  0
  144.2355  135.1723  152.2436 C   0  0  1  0  0  0  0  0  0  0  0  0
  144.8834  134.0167  152.6822 O   0  0  0  0  0  0  0  0  0  0  0  0
  144.6051  132.9590  151.7771 C   0  0  2  0  0  0  0  0  0  0  0  0
  145.5940  131.8049  151.9975 C   0  0  0  0  0  0  0  0  0  0  0  0
  146.9126  132.2207  151.7127 O   0  0  0  0  0  0  0  0  0  0  0  0
  144.7374  133.6765  150.4358 C   0  0  1  0  0  0  0  0  0  0  0  0
  144.1022  133.0322  149.4561 F   0  0  0  0  0  0  0  0  0  0  0  0
  144.1024  135.0339  150.7101 C   0  0  2  0  0  0  0  0  0  0  0  0
  144.7867  136.0533  150.0110 O   0  0  0  0  0  0  0  0  0  0  0  0
  138.5000  135.6562  154.7695 H   0  0  0  0  0  0  0  0  0  0  0  0
  138.0944  137.3594  154.7819 H   0  0  0  0  0  0  0  0  0  0  0  0
  141.5626  139.5557  153.0074 H   0  0  0  0  0  0  0  0  0  0  0  0
  142.3999  133.1724  153.2207 H   0  0  0  0  0  0  0  0  0  0  0  0
  144.7473  136.0736  152.5837 H   0  0  0  0  0  0  0  0  0  0  0  0
  143.5788  132.6211  151.9354 H   0  0  0  0  0  0  0  0  0  0  0  0
  145.5407  131.4331  153.0211 H   0  0  0  0  0  0  0  0  0  0  0  0
  145.3469  130.9722  151.3386 H   0  0  0  0  0  0  0  0  0  0  0  0
  147.3524  131.5264  151.2464 H   0  0  0  0  0  0  0  0  0  0  0  0
  145.7876  133.7747  150.1561 H   0  0  0  0  0  0  0  0  0  0  0  0
  143.0533  135.0236  150.4129 H   0  0  0  0  0  0  0  0  0  0  0  0
  144.2302  136.8164  149.9761 H   0  0  0  0  0  0  0  0  0  0  0  0
  1  2  1  0  0  0  0
  1 20  1  0  0  0  0
  1 21  1  0  0  0  0
  2  7  1  0  0  0  0
  2  3  2  0  0  0  0
  3  4  1  0  0  0  0
  4  5  2  0  0  0  0
  4 22  1  0  0  0  0
  5  6  1  0  0  0  0
  6 10  1  0  0  0  0
  6  7  2  0  0  0  0
  7  8  1  0  0  0  0
  8  9  2  0  0  0  0
  9 10  1  0  0  0  0
  9 23  1  0  0  0  0
 10 11  1  0  0  0  0
 11 18  1  0  0  0  0
 11 12  1  0  0  0  0
 11 24  1  0  0  0  0
 12 13  1  0  0  0  0
 13 14  1  0  0  0  0
 13 16  1  0  0  0  0
 13 25  1  0  0  0  0
 14 15  1  0  0  0  0
 14 26  1  0  0  0  0
 14 27  1  0  0  0  0
 15 28  1  0  0  0  0
 16 17  1  0  0  0  0
 16 18  1  0  0  0  0
 16 29  1  0  0  0  0
 18 19  1  0  0  0  0
 18 30  1  0  0  0  0
 19 31  1  0  0  0  0
M  END
> <s_m_source_file>
AV-unprocessed.smi

> <i_m_source_file_index>
100

> <i_lp_mmshare_version>
43012

> <i_f3d_flags>
0

> <s_epik_input>
bjFbY0hdbmMoW05IMl0pYyhjMTIpbltjSF1uMltDQEBIXTNPW0NAQEhdKFtDSDJdW09IXSlbQ0BIXShGKVtDQEhdM1tPSF0=

> <s_epik_cmdline>
J2VwaWtfcHl0aG9uJywgJy1waCcsICc3LjAnLCAnLXRuJywgJzgnLCAnLW1hJywgJzIwMCcsICctbWV0YWxfYmluZGluZycsICctaW1hZScsICc8aW5maWxlLm1hZT4nLCAnLW9tYWUnLCAnPG91dGZpbGUubWFlPic=

> <r_lp_tautomer_probability>
1

> <r_epik_Ionization_Penalty>
0.000750324

> <r_epik_Ionization_Penalty_Charging>
0

> <r_epik_Ionization_Penalty_Neutral>
0.000750324

> <r_epik_State_Penalty>
-0

> <r_epik_Charging_Adjusted_Penalty>
0

> <i_epik_Tot_Q>
0

> <i_epik_Tot_abs_Q>
0

> <r_epik_Metal_State_Penalty>
-0

> <b_epik_Metal_Only>
0

> <s_epik_Chemistry_Notes>
This compound contains an acetal/aminal-like group ( X-CH(R)-Y where X, Y are N, S, or O) that may be acid/base labile, releasing an aldehyde.

> <s_lp_Force_Field>
OPLS_2005

> <r_lp_Energy>
30.8526

> <b_lp_Chiralities_Consistent>
1

> <s_lp_Variant>
AV-unprocessed.smi:100-16

> <Gold.Version>
5.8.1

> <Gold.Id.Protein>
6NUR|6NUR_protein|mol2

> <Gold.PLP.Fitness>
45.9349

> <Gold.PLP.PLP>
-30.9076

> <Gold.PLP.part.hbond>
-5.0000

> <Gold.PLP.part.metal>
0.0000

> <Gold.PLP.part.buried>
-4.0079

> <Gold.PLP.part.nonpolar>
-23.9459

> <Gold.PLP.part.repulsive>
1.4613

> <Gold.PLP.ligand.clash>
0.0000

> <Gold.PLP.ligand.torsion>
0.7506

> <Gold.PLP.Chemscore.Hbond>
2.9920

> <Gold.PLP.Chemscore.CHOScore>
2.5008

> <Gold.PLP.Chemscore.Metal>
0.0000

> <Gold.Chemscore.Hbonds>
donor molecule, donor type, donor heavy atom, donor atom, acceptor molecule, acceptor atom, score
      L1  H    15    28       P1 10747  0.99
      L1  H    19    31       P1 10171  1.00
      P1  H 11000 11005       L1     8  1.00
      L1  C     4    22       P1 10160  0.63
      L1  C     4    22       P1 10175  0.90
      L1  C     9    23       P1 10957  0.97

> <Gold.PLP.Chemscore.Internal.Correction>
0.0500

> <Gold.Rescore>
     Score         DG    S(hbond)    S(metal)    S(lipo)     H(rot)  DE(clash)    DE(int)     intcor
      8.10      -8.23       2.10        0.00      33.48       3.19       0.03       0.10       ----

> <Gold.Chemscore.Fitness>
8.0990

> <Gold.Chemscore.DG>
-8.2303

> <Gold.Chemscore.ZeroCoef>
-5.4800

> <Gold.Chemscore.Hbond>
2.0956

> <Gold.Chemscore.Metal>
0.0000

> <Gold.Chemscore.Lipo>
33.4834

> <Gold.Chemscore.Internal_Hbond>
0.0000

> <Gold.Chemscore.DEClash>
0.0312

> <Gold.Chemscore.DEInternal>
0.1000

> <Gold.Chemscore.Rot>
3.1901

> <Gold.Chemscore.Internal.Correction>
   9.000000E+99

> <Gold.Chemscore.Hbonds>
donor molecule, donor type, donor heavy atom, donor atom, acceptor molecule, acceptor atom, score
      L1  H    15    28       P1 10747  0.89
      L1  H    19    31       P1 10171  0.99
      P1  H 10995 11001       L1     8  0.01
      P1  H 11000 11005       L1     8  0.43

> <Gold.Chemscore.Hbond.Weighted>
-6.9994

> <Gold.Chemscore.Metal.Weighted>
-0.0000

> <Gold.Chemscore.Lipo.Weighted>
-3.9176

> <Gold.Chemscore.Internal_Hbond.Weighted>
0.0000

> <Gold.Chemscore.DEClash.Weighted>
0.0312

> <Gold.Chemscore.DEInternal.Weighted>
0.1000

> <Gold.Chemscore.Rot.Weighted>
8.1667

> <Gold.Chemscore.Internal.Correction.Weighted>
   9.000000E+99

> <Gold.Protein.RotatedTorsions>
[ 6907 6896 6895 6894 ] final   11.84 input  -60.11 | X-H torsion
[ 7974 7965 7964 7962 ] final   36.63 input  175.53 | X-H torsion
[ 8008 7997 7996 7995 ] final  -89.87 input   59.86 | X-H torsion
[ 10167 10162 10161 10158 ] final  -20.88 input  -65.29 | X-H torsion
[ 10718 10713 10712 10709 ] final -156.62 input   66.30 | X-H torsion
[ 10763 10752 10751 10750 ] final  -98.54 input  -60.55 | X-H torsion
[ 11005 11000 10999 10996 ] final   19.00 input  -57.11 | X-H torsion

> <Gold.Protein.ActiveResidues>
 VAL166  LYS551  ARG553  GLY616  TRP617  ASP618  TYR619  PRO620  LYS621  CYS622 
 ASP623  PHE694  ASN695  SER759  ASP760  ASP761  ALA762  ILE779  LEU786  VAL792 
 PHE793  MET794  SER795  GLU796  ALA797  LYS798  CYS799  TRP800  GLU811  SER814 

> <Gold.Protein.RotatedAtoms>
  151.7608  135.0810  160.0344 H   0  0  0  0  0  0  0  0  0  0  0  0  # atno 6907 bound_to 6896
  152.3354  133.6002  159.5847 H   0  0  0  0  0  0  0  0  0  0  0  0  # atno 6908 bound_to 6896
  150.7447  133.9719  159.3590 H   0  0  0  0  0  0  0  0  0  0  0  0  # atno 6909 bound_to 6896
  146.1197  139.5993  142.9298 H   0  0  0  0  0  0  0  0  0  0  0  0  # atno 7974 bound_to 7965
  154.6917  140.0537  157.0370 H   0  0  0  0  0  0  0  0  0  0  0  0  # atno 8008 bound_to 7997
  155.0807  140.3209  155.4583 H   0  0  0  0  0  0  0  0  0  0  0  0  # atno 8009 bound_to 7997
  156.2730  140.2065  156.5935 H   0  0  0  0  0  0  0  0  0  0  0  0  # atno 8010 bound_to 7997
  140.7279  143.4681  151.0285 H   0  0  0  0  0  0  0  0  0  0  0  0  # atno 10167 bound_to 10162
  156.5291  130.8512  151.2709 H   0  0  0  0  0  0  0  0  0  0  0  0  # atno 10718 bound_to 10713
  154.7423  135.5005  153.9144 H   0  0  0  0  0  0  0  0  0  0  0  0  # atno 10763 bound_to 10752
  153.1056  135.6696  153.9601 H   0  0  0  0  0  0  0  0  0  0  0  0  # atno 10764 bound_to 10752
  153.9375  135.3071  155.3423 H   0  0  0  0  0  0  0  0  0  0  0  0  # atno 10765 bound_to 10752
  140.4185  134.1543  155.7671 H   0  0  0  0  0  0  0  0  0  0  0  0  # atno 11005 bound_to 11000
  145.5493  141.0414  143.2287 LP  0  0  0  0  0  0  0  0  0  0  0  0  # atno 17320 bound_to 7965
  144.7585  139.7014  143.7244 LP  0  0  0  0  0  0  0  0  0  0  0  0  # atno 17321 bound_to 7965
  139.8370  143.7614  152.3180 LP  0  0  0  0  0  0  0  0  0  0  0  0  # atno 17342 bound_to 10162
  139.7749  144.7464  151.0170 LP  0  0  0  0  0  0  0  0  0  0  0  0  # atno 17343 bound_to 10162
  157.7425  130.9891  150.2519 LP  0  0  0  0  0  0  0  0  0  0  0  0  # atno 17370 bound_to 10713
  156.3077  130.3767  149.7691 LP  0  0  0  0  0  0  0  0  0  0  0  0  # atno 17371 bound_to 10713
  141.1793  133.8447  157.1313 LP  0  0  0  0  0  0  0  0  0  0  0  0  # atno 17394 bound_to 11000
  140.0217  134.9943  157.0604 LP  0  0  0  0  0  0  0  0  0  0  0  0  # atno 17395 bound_to 11000

$$$$
