AV-unprocessed.smi:2412|AV-procd|sdf|9533|dock7
  -GOLD-   2272013163D 1   1.00000     0.00000
 Structure written by MMmdl.
 38 39  0  0  0  0  0  0  0  0  2 V2000
  152.1610  144.8513  160.4939 C   0  0  0  0  0  0  0  0  0  0  0  0
  151.7850  144.0033  159.2913 C   0  0  0  0  0  0  0  0  0  0  0  0
  150.9778  144.5588  158.2744 C   0  0  0  0  0  0  0  0  0  0  0  0
  150.6388  143.8194  157.1977 N   0  3  0  0  0  0  0  0  0  0  0  0
  151.0447  142.5436  157.0318 C   0  0  0  0  0  0  0  0  0  0  0  0
  151.8533  141.9307  158.0092 C   0  0  0  0  0  0  0  0  0  0  0  0
  152.2244  142.6598  159.1681 C   0  0  0  0  0  0  0  0  0  0  0  0
  153.0568  142.1181  160.1884 N   0  0  0  0  0  0  0  0  0  0  0  0
  153.8322  141.0212  160.1423 C   0  0  0  0  0  0  0  0  0  0  0  0
  153.9162  140.2497  159.1869 O   0  0  0  0  0  0  0  0  0  0  0  0
  154.5077  140.8541  161.2891 N   0  0  0  0  0  0  0  0  0  0  0  0
  155.4686  139.7835  161.5499 C   0  0  0  0  0  0  0  0  0  0  0  0
  155.3999  139.2392  162.9894 C   0  0  0  0  0  0  0  0  0  0  0  0
  155.8577  139.9038  163.9212 O   0  0  0  0  0  0  0  0  0  0  0  0
  154.8222  138.0362  163.1872 N   0  0  0  0  0  0  0  0  0  0  0  0
  154.6669  137.3626  164.4765 C   0  0  0  0  0  0  0  0  0  0  0  0
  153.7786  136.1476  164.2051 C   0  0  0  0  0  0  0  0  0  0  0  0
  153.9941  135.8481  162.7284 C   0  0  0  0  0  0  0  0  0  0  0  0
  154.2768  137.2159  162.1073 C   0  0  0  0  0  0  0  0  0  0  0  0
  151.7089  145.8420  160.4368 H   0  0  0  0  0  0  0  0  0  0  0  0
  153.2428  144.9769  160.5479 H   0  0  0  0  0  0  0  0  0  0  0  0
  151.8203  144.3794  161.4159 H   0  0  0  0  0  0  0  0  0  0  0  0
  150.5960  145.5693  158.2876 H   0  0  0  0  0  0  0  0  0  0  0  0
  150.7193  142.0558  156.1244 H   0  0  0  0  0  0  0  0  0  0  0  0
  152.1851  140.9171  157.8427 H   0  0  0  0  0  0  0  0  0  0  0  0
  153.0200  142.5972  161.0763 H   0  0  0  0  0  0  0  0  0  0  0  0
  154.3774  141.5330  162.0245 H   0  0  0  0  0  0  0  0  0  0  0  0
  155.2622  138.9693  160.8549 H   0  0  0  0  0  0  0  0  0  0  0  0
  156.4780  140.1365  161.3327 H   0  0  0  0  0  0  0  0  0  0  0  0
  155.6478  137.0457  164.8340 H   0  0  0  0  0  0  0  0  0  0  0  0
  154.2187  138.0078  165.2330 H   0  0  0  0  0  0  0  0  0  0  0  0
  154.0139  135.2989  164.8478 H   0  0  0  0  0  0  0  0  0  0  0  0
  152.7341  136.4140  164.3733 H   0  0  0  0  0  0  0  0  0  0  0  0
  154.8678  135.2055  162.6112 H   0  0  0  0  0  0  0  0  0  0  0  0
  153.1438  135.3428  162.2697 H   0  0  0  0  0  0  0  0  0  0  0  0
  153.3534  137.6729  161.7480 H   0  0  0  0  0  0  0  0  0  0  0  0
  154.9647  137.1330  161.2641 H   0  0  0  0  0  0  0  0  0  0  0  0
  150.0558  144.2445  156.4761 H   0  0  0  0  0  0  0  0  0  0  0  0
  1  2  1  0  0  0  0
  1 20  1  0  0  0  0
  1 21  1  0  0  0  0
  1 22  1  0  0  0  0
  2  7  1  0  0  0  0
  2  3  2  0  0  0  0
  3  4  1  0  0  0  0
  3 23  1  0  0  0  0
  4  5  2  0  0  0  0
  4 38  1  0  0  0  0
  5  6  1  0  0  0  0
  5 24  1  0  0  0  0
  6  7  2  0  0  0  0
  6 25  1  0  0  0  0
  7  8  1  0  0  0  0
  8  9  1  0  0  0  0
  8 26  1  0  0  0  0
  9 10  2  0  0  0  0
  9 11  1  0  0  0  0
 11 12  1  0  0  0  0
 11 27  1  0  0  0  0
 12 13  1  0  0  0  0
 12 28  1  0  0  0  0
 12 29  1  0  0  0  0
 13 14  2  0  0  0  0
 13 15  1  0  0  0  0
 15 19  1  0  0  0  0
 15 16  1  0  0  0  0
 16 17  1  0  0  0  0
 16 30  1  0  0  0  0
 16 31  1  0  0  0  0
 17 18  1  0  0  0  0
 17 32  1  0  0  0  0
 17 33  1  0  0  0  0
 18 19  1  0  0  0  0
 18 34  1  0  0  0  0
 18 35  1  0  0  0  0
 19 36  1  0  0  0  0
 19 37  1  0  0  0  0
M  CHG  1   4   1
M  END
> <s_m_source_file>
AV-unprocessed.smi

> <i_m_source_file_index>
2412

> <i_lp_mmshare_version>
43012

> <i_f3d_flags>
0

> <s_epik_input>
W0NIM11jMVtjSF1uW2NIXVtjSF1jMVtOSF1DKD1PKVtOSF1bQ0gyXUMoPU8pTjJbQ0gyXVtDSDJdW0NIMl1bQ0gyXTI=

> <s_epik_cmdline>
J2VwaWtfcHl0aG9uJywgJy1waCcsICc3LjAnLCAnLXRuJywgJzgnLCAnLW1hJywgJzIwMCcsICctbWV0YWxfYmluZGluZycsICctaW1hZScsICc8aW5maWxlLm1hZT4nLCAnLW9tYWUnLCAnPG91dGZpbGUubWFlPic=

> <r_epik_Ionization_Penalty>
0.861722

> <r_epik_Ionization_Penalty_Charging>
0.861704

> <r_epik_Ionization_Penalty_Neutral>
1.84974e-05

> <r_epik_State_Penalty>
0.898238

> <r_epik_Charging_Adjusted_Penalty>
1.75994

> <i_epik_Tot_Q>
1

> <i_epik_Tot_abs_Q>
1

> <r_epik_Metal_State_Penalty>
1.0245

> <b_epik_Metal_Only>
0

> <s_lp_Force_Field>
OPLS_2005

> <r_lp_Energy>
33.6381

> <b_lp_Chiralities_Consistent>
1

> <s_lp_Variant>
AV-unprocessed.smi:2412-2

> <Gold.Version>
5.8.1

> <Gold.Id.Protein>
6NUR|6NUR_protein|mol2

> <Gold.PLP.Fitness>
49.5064

> <Gold.PLP.PLP>
-42.4127

> <Gold.PLP.part.hbond>
-2.8044

> <Gold.PLP.part.metal>
0.0000

> <Gold.PLP.part.buried>
-6.1690

> <Gold.PLP.part.nonpolar>
-33.2854

> <Gold.PLP.part.repulsive>
0.0556

> <Gold.PLP.ligand.clash>
0.0000

> <Gold.PLP.ligand.torsion>
0.3976

> <Gold.PLP.Chemscore.Hbond>
2.6292

> <Gold.PLP.Chemscore.CHOScore>
0.0000

> <Gold.PLP.Chemscore.Metal>
0.0000

> <Gold.Chemscore.Hbonds>
donor molecule, donor type, donor heavy atom, donor atom, acceptor molecule, acceptor atom, score
      L1  H     4    38       P1  8028  1.76
      P1  H  7997  8008       L1    10  0.59

> <Gold.PLP.Chemscore.Internal.Correction>
0.0013

> <Gold.Rescore>
     Score         DG    S(hbond)    S(metal)    S(lipo)     H(rot)  DE(clash)    DE(int)     intcor
     18.08     -19.87       1.64        0.00     104.15       1.28       0.12       1.67       ----

> <Gold.Chemscore.Fitness>
18.0769

> <Gold.Chemscore.DG>
-19.8722

> <Gold.Chemscore.ZeroCoef>
-5.4800

> <Gold.Chemscore.Hbond>
1.6407

> <Gold.Chemscore.Metal>
0.0000

> <Gold.Chemscore.Lipo>
104.1499

> <Gold.Chemscore.Internal_Hbond>
0.0000

> <Gold.Chemscore.DEClash>
0.1249

> <Gold.Chemscore.DEInternal>
1.6704

> <Gold.Chemscore.Rot>
1.2786

> <Gold.Chemscore.Internal.Correction>
   9.000000E+99

> <Gold.Chemscore.Hbonds>
donor molecule, donor type, donor heavy atom, donor atom, acceptor molecule, acceptor atom, score
      L1  H     4    38       P1  8028  0.85
      P1  H  7997  8008       L1    10  0.58

> <Gold.Chemscore.Hbond.Weighted>
-5.4799

> <Gold.Chemscore.Metal.Weighted>
-0.0000

> <Gold.Chemscore.Lipo.Weighted>
-12.1855

> <Gold.Chemscore.Internal_Hbond.Weighted>
0.0000

> <Gold.Chemscore.DEClash.Weighted>
0.1249

> <Gold.Chemscore.DEInternal.Weighted>
1.6704

> <Gold.Chemscore.Rot.Weighted>
3.2733

> <Gold.Chemscore.Internal.Correction.Weighted>
   9.000000E+99

> <Gold.Protein.RotatedTorsions>
[ 6907 6896 6895 6894 ] final  -58.29 input  -60.11 | X-H torsion
[ 7974 7965 7964 7962 ] final  -79.89 input  175.53 | X-H torsion
[ 8008 7997 7996 7995 ] final -109.96 input   59.86 | X-H torsion
[ 10167 10162 10161 10158 ] final   40.23 input  -65.29 | X-H torsion
[ 10718 10713 10712 10709 ] final -118.58 input   66.30 | X-H torsion
[ 10763 10752 10751 10750 ] final   83.48 input  -60.55 | X-H torsion
[ 11005 11000 10999 10996 ] final   38.69 input  -57.11 | X-H torsion

> <Gold.Protein.ActiveResidues>
 VAL166  LYS551  ARG553  GLY616  TRP617  ASP618  TYR619  PRO620  LYS621  CYS622 
 ASP623  PHE694  ASN695  SER759  ASP760  ASP761  ALA762  ILE779  LEU786  VAL792 
 PHE793  MET794  SER795  GLU796  ALA797  LYS798  CYS799  TRP800  GLU811  SER814 

> <Gold.Protein.RotatedAtoms>
  150.8019  134.7118  159.6607 H   0  0  0  0  0  0  0  0  0  0  0  0  # atno 6907 bound_to 6896
  152.4136  134.6078  160.0027 H   0  0  0  0  0  0  0  0  0  0  0  0  # atno 6908 bound_to 6896
  151.6313  133.3295  159.3145 H   0  0  0  0  0  0  0  0  0  0  0  0  # atno 6909 bound_to 6896
  145.5672  140.9472  143.1415 H   0  0  0  0  0  0  0  0  0  0  0  0  # atno 7974 bound_to 7965
  154.9673  140.0398  157.2218 H   0  0  0  0  0  0  0  0  0  0  0  0  # atno 8008 bound_to 7997
  154.7834  140.2823  155.6024 H   0  0  0  0  0  0  0  0  0  0  0  0  # atno 8009 bound_to 7997
  156.2939  140.2587  156.2665 H   0  0  0  0  0  0  0  0  0  0  0  0  # atno 8010 bound_to 7997
  140.3762  144.2040  150.6131 H   0  0  0  0  0  0  0  0  0  0  0  0  # atno 10167 bound_to 10162
  156.1117  130.6254  150.9309 H   0  0  0  0  0  0  0  0  0  0  0  0  # atno 10718 bound_to 10713
  153.1295  135.4689  154.9326 H   0  0  0  0  0  0  0  0  0  0  0  0  # atno 10763 bound_to 10752
  154.7651  135.3142  154.8304 H   0  0  0  0  0  0  0  0  0  0  0  0  # atno 10764 bound_to 10752
  153.8850  135.6890  153.4818 H   0  0  0  0  0  0  0  0  0  0  0  0  # atno 10765 bound_to 10752
  140.2101  134.3765  155.8053 H   0  0  0  0  0  0  0  0  0  0  0  0  # atno 11005 bound_to 11000
  144.7455  139.7333  143.7294 LP  0  0  0  0  0  0  0  0  0  0  0  0  # atno 17320 bound_to 7965
  146.1810  139.5002  142.9867 LP  0  0  0  0  0  0  0  0  0  0  0  0  # atno 17321 bound_to 7965
  140.4984  143.2325  151.8716 LP  0  0  0  0  0  0  0  0  0  0  0  0  # atno 17342 bound_to 10162
  139.4799  144.5088  151.8961 LP  0  0  0  0  0  0  0  0  0  0  0  0  # atno 17343 bound_to 10162
  157.6298  131.0922  150.8462 LP  0  0  0  0  0  0  0  0  0  0  0  0  # atno 17370 bound_to 10713
  156.8572  130.5100  149.5306 LP  0  0  0  0  0  0  0  0  0  0  0  0  # atno 17371 bound_to 10713
  141.2226  133.7139  156.8404 LP  0  0  0  0  0  0  0  0  0  0  0  0  # atno 17394 bound_to 11000
  140.1960  134.8932  157.3114 LP  0  0  0  0  0  0  0  0  0  0  0  0  # atno 17395 bound_to 11000

$$$$
