AV-unprocessed.smi:1802|AV-procd|sdf|7275|dock8
  -GOLD-   22720 8533D 1   1.00000     0.00000
 Structure written by MMmdl.
 40 41  0  0  0  0  0  0  0  0  3 V2000
  145.9962  132.4389  151.0201 C   0  0  0  0  0  0  0  0  0  0  0  0
  146.5726  133.6063  151.8337 C   0  0  2  0  0  0  0  0  0  0  0  0
  146.5419  133.3086  153.3423 C   0  0  0  0  0  0  0  0  0  0  0  0
  147.0981  134.5007  154.1303 C   0  0  0  0  0  0  0  0  0  0  0  0
  146.3468  135.7935  153.7751 C   0  0  0  0  0  0  0  0  0  0  0  0
  146.3966  136.0581  152.3140 N   0  3  2  0  0  0  0  0  0  0  0  0
  145.7970  137.3701  151.9615 C   0  0  0  0  0  0  0  0  0  0  0  0
  146.7962  138.5299  152.1080 C   0  0  0  0  0  0  0  0  0  0  0  0
  147.2155  138.7558  153.5662 C   0  0  0  0  0  0  0  0  0  0  0  0
  148.6635  138.6730  153.6979 N   0  0  0  0  0  0  0  0  0  0  0  0
  149.4232  139.5126  154.4133 C   0  0  0  0  0  0  0  0  0  0  0  0
  148.8990  140.4499  155.0189 O   0  0  0  0  0  0  0  0  0  0  0  0
  150.7408  139.2108  154.3848 N   0  5  0  0  0  0  0  0  0  0  0  0
  151.4439  139.1638  155.5285 C   0  0  0  0  0  0  0  0  0  0  0  0
  152.7597  138.8971  155.5536 N   0  0  0  0  0  0  0  0  0  0  0  0
  153.2909  138.8907  156.8364 N   0  0  0  0  0  0  0  0  0  0  0  0
  152.3555  139.1458  157.7508 C   0  0  0  0  0  0  0  0  0  0  0  0
  150.7411  139.4151  157.1289 S   0  0  0  0  0  0  0  0  0  0  0  0
  145.8305  134.9245  151.5340 C   0  0  0  0  0  0  0  0  0  0  0  0
  144.9496  132.2603  151.2689 H   0  0  0  0  0  0  0  0  0  0  0  0
  146.5456  131.5170  151.2126 H   0  0  0  0  0  0  0  0  0  0  0  0
  146.0547  132.6383  149.9497 H   0  0  0  0  0  0  0  0  0  0  0  0
  147.6148  133.7309  151.5348 H   0  0  0  0  0  0  0  0  0  0  0  0
  145.5190  133.1032  153.6618 H   0  0  0  0  0  0  0  0  0  0  0  0
  147.1240  132.4134  153.5645 H   0  0  0  0  0  0  0  0  0  0  0  0
  147.0223  134.3072  155.2007 H   0  0  0  0  0  0  0  0  0  0  0  0
  148.1600  134.6213  153.9122 H   0  0  0  0  0  0  0  0  0  0  0  0
  145.3070  135.7279  154.0994 H   0  0  0  0  0  0  0  0  0  0  0  0
  146.7970  136.6259  154.3173 H   0  0  0  0  0  0  0  0  0  0  0  0
  145.3864  137.3350  150.9512 H   0  0  0  0  0  0  0  0  0  0  0  0
  144.9564  137.5677  152.6281 H   0  0  0  0  0  0  0  0  0  0  0  0
  147.6830  138.3215  151.5076 H   0  0  0  0  0  0  0  0  0  0  0  0
  146.3682  139.4537  151.7190 H   0  0  0  0  0  0  0  0  0  0  0  0
  146.8808  139.7357  153.9095 H   0  0  0  0  0  0  0  0  0  0  0  0
  146.7469  138.0089  154.2090 H   0  0  0  0  0  0  0  0  0  0  0  0
  149.1304  137.9204  153.2135 H   0  0  0  0  0  0  0  0  0  0  0  0
  152.6170  139.1728  158.7980 H   0  0  0  0  0  0  0  0  0  0  0  0
  145.9014  135.1330  150.4671 H   0  0  0  0  0  0  0  0  0  0  0  0
  144.7687  134.8212  151.7636 H   0  0  0  0  0  0  0  0  0  0  0  0
  147.3759  136.1207  152.0749 H   0  0  0  0  0  0  0  0  0  0  0  0
  1  2  1  0  0  0  0
  1 20  1  0  0  0  0
  1 21  1  0  0  0  0
  1 22  1  0  0  0  0
  2 19  1  0  0  0  0
  2  3  1  0  0  0  0
  2 23  1  0  0  0  0
  3  4  1  0  0  0  0
  3 24  1  0  0  0  0
  3 25  1  0  0  0  0
  4  5  1  0  0  0  0
  4 26  1  0  0  0  0
  4 27  1  0  0  0  0
  5  6  1  0  0  0  0
  5 28  1  0  0  0  0
  5 29  1  0  0  0  0
  6  7  1  0  0  0  0
  6 19  1  0  0  0  0
  6 40  1  0  0  0  0
  7  8  1  0  0  0  0
  7 30  1  0  0  0  0
  7 31  1  0  0  0  0
  8  9  1  0  0  0  0
  8 32  1  0  0  0  0
  8 33  1  0  0  0  0
  9 10  1  0  0  0  0
  9 34  1  0  0  0  0
  9 35  1  0  0  0  0
 10 11  1  0  0  0  0
 10 36  1  0  0  0  0
 11 12  2  0  0  0  0
 11 13  1  0  0  0  0
 13 14  1  0  0  0  0
 14 18  1  0  0  0  0
 14 15  2  0  0  0  0
 15 16  1  0  0  0  0
 16 17  2  0  0  0  0
 17 18  1  0  0  0  0
 17 37  1  0  0  0  0
 19 38  1  0  0  0  0
 19 39  1  0  0  0  0
M  CHG  1   6   1
M  CHG  1  13  -1
M  END
> <s_m_source_file>
AV-unprocessed.smi

> <i_m_source_file_index>
1802

> <i_lp_mmshare_version>
43012

> <i_f3d_flags>
0

> <s_epik_input>
W0NIM11bQ0BASF0xW0NIMl1bQ0gyXVtDSDJdTihbQ0gyXTEpW0NIMl1bQ0gyXVtDSDJdW05IXUMoPU8pW05IXWMybm5bY0hdczI=

> <s_epik_cmdline>
J2VwaWtfcHl0aG9uJywgJy1waCcsICc3LjAnLCAnLXRuJywgJzgnLCAnLW1hJywgJzIwMCcsICctbWV0YWxfYmluZGluZycsICctaW1hZScsICc8aW5maWxlLm1hZT4nLCAnLW9tYWUnLCAnPG91dGZpbGUubWFlPic=

> <r_lp_tautomer_probability>
1

> <r_epik_Ionization_Penalty>
3.29702

> <r_epik_Ionization_Penalty_Charging>
3.26059

> <r_epik_Ionization_Penalty_Neutral>
0.0364294

> <r_epik_State_Penalty>
3.25788

> <r_epik_Charging_Adjusted_Penalty>
6.51847

> <i_epik_Tot_Q>
0

> <i_epik_Tot_abs_Q>
2

> <r_epik_Metal_State_Penalty>
0.477639

> <b_epik_Metal_Only>
1

> <s_lp_Force_Field>
OPLS_2005

> <r_lp_Energy>
10.8961

> <b_lp_Chiralities_Consistent>
1

> <s_lp_Variant>
AV-unprocessed.smi:1802-5

> <Gold.Version>
5.8.1

> <Gold.Id.Protein>
6NUR|6NUR_protein|mol2

> <Gold.PLP.Fitness>
40.5063

> <Gold.PLP.PLP>
-29.1408

> <Gold.PLP.part.hbond>
-5.6138

> <Gold.PLP.part.metal>
0.0000

> <Gold.PLP.part.buried>
-2.4753

> <Gold.PLP.part.nonpolar>
-23.0378

> <Gold.PLP.part.repulsive>
0.3180

> <Gold.PLP.ligand.clash>
0.0000

> <Gold.PLP.ligand.torsion>
1.2449

> <Gold.PLP.Chemscore.Hbond>
4.5972

> <Gold.PLP.Chemscore.CHOScore>
0.0000

> <Gold.PLP.Chemscore.Metal>
0.0000

> <Gold.Chemscore.Hbonds>
donor molecule, donor type, donor heavy atom, donor atom, acceptor molecule, acceptor atom, score
      L1  H     6    40       P1  7948  2.00
      L1  H    10    36       P1  7948  0.69
      P1  H  7989  7998       L1    13  0.89
      P1  H  7997  8008       L1    16  1.00

> <Gold.PLP.Chemscore.Internal.Correction>
0.0636

> <Gold.Rescore>
     Score         DG    S(hbond)    S(metal)    S(lipo)     H(rot)  DE(clash)    DE(int)     intcor
     13.85     -16.19       2.71        0.00      56.48       1.94       0.04       2.30       ----

> <Gold.Chemscore.Fitness>
13.8546

> <Gold.Chemscore.DG>
-16.1902

> <Gold.Chemscore.ZeroCoef>
-5.4800

> <Gold.Chemscore.Hbond>
2.7137

> <Gold.Chemscore.Metal>
0.0000

> <Gold.Chemscore.Lipo>
56.4836

> <Gold.Chemscore.Internal_Hbond>
0.0000

> <Gold.Chemscore.DEClash>
0.0383

> <Gold.Chemscore.DEInternal>
2.2972

> <Gold.Chemscore.Rot>
1.9383

> <Gold.Chemscore.Internal.Correction>
   9.000000E+99

> <Gold.Chemscore.Hbonds>
donor molecule, donor type, donor heavy atom, donor atom, acceptor molecule, acceptor atom, score
      L1  H     6    40       P1  7948  0.97
      L1  H    10    36       P1  7948  0.65
      P1  H  7989  7998       L1    13  0.11
      P1  H  7997  8008       L1    16  0.40

> <Gold.Chemscore.Hbond.Weighted>
-9.0636

> <Gold.Chemscore.Metal.Weighted>
-0.0000

> <Gold.Chemscore.Lipo.Weighted>
-6.6086

> <Gold.Chemscore.Internal_Hbond.Weighted>
0.0000

> <Gold.Chemscore.DEClash.Weighted>
0.0383

> <Gold.Chemscore.DEInternal.Weighted>
2.2972

> <Gold.Chemscore.Rot.Weighted>
4.9620

> <Gold.Chemscore.Internal.Correction.Weighted>
   9.000000E+99

> <Gold.Protein.RotatedTorsions>
[ 6907 6896 6895 6894 ] final   17.13 input  -60.11 | X-H torsion
[ 7974 7965 7964 7962 ] final   96.16 input  175.53 | X-H torsion
[ 8008 7997 7996 7995 ] final  -73.06 input   59.86 | X-H torsion
[ 10167 10162 10161 10158 ] final  -14.27 input  -65.29 | X-H torsion
[ 10718 10713 10712 10709 ] final  -22.13 input   66.30 | X-H torsion
[ 10763 10752 10751 10750 ] final -123.29 input  -60.55 | X-H torsion
[ 11005 11000 10999 10996 ] final  173.32 input  -57.11 | X-H torsion

> <Gold.Protein.ActiveResidues>
 VAL166  LYS551  ARG553  GLY616  TRP617  ASP618  TYR619  PRO620  LYS621  CYS622 
 ASP623  PHE694  ASN695  SER759  ASP760  ASP761  ALA762  ILE779  LEU786  VAL792 
 PHE793  MET794  SER795  GLU796  ALA797  LYS798  CYS799  TRP800  GLU811  SER814 

> <Gold.Protein.RotatedAtoms>
  151.8448  135.0578  160.0452 H   0  0  0  0  0  0  0  0  0  0  0  0  # atno 6907 bound_to 6896
  152.2781  133.5440  159.5489 H   0  0  0  0  0  0  0  0  0  0  0  0  # atno 6908 bound_to 6896
  150.7178  134.0519  159.3843 H   0  0  0  0  0  0  0  0  0  0  0  0  # atno 6909 bound_to 6896
  145.4425  139.2300  143.3084 H   0  0  0  0  0  0  0  0  0  0  0  0  # atno 7974 bound_to 7965
  154.5216  140.0786  156.8182 H   0  0  0  0  0  0  0  0  0  0  0  0  # atno 8008 bound_to 7997
  155.3564  140.3415  155.4222 H   0  0  0  0  0  0  0  0  0  0  0  0  # atno 8009 bound_to 7997
  156.1687  140.1612  156.8472 H   0  0  0  0  0  0  0  0  0  0  0  0  # atno 8010 bound_to 7997
  140.7198  143.5339  150.9488 H   0  0  0  0  0  0  0  0  0  0  0  0  # atno 10167 bound_to 10162
  156.5088  130.4605  149.6660 H   0  0  0  0  0  0  0  0  0  0  0  0  # atno 10718 bound_to 10713
  154.8705  135.4103  154.2919 H   0  0  0  0  0  0  0  0  0  0  0  0  # atno 10763 bound_to 10752
  153.3793  135.7011  153.6583 H   0  0  0  0  0  0  0  0  0  0  0  0  # atno 10764 bound_to 10752
  153.5412  135.3648  155.2690 H   0  0  0  0  0  0  0  0  0  0  0  0  # atno 10765 bound_to 10752
  140.3392  134.7291  157.4190 H   0  0  0  0  0  0  0  0  0  0  0  0  # atno 11005 bound_to 11000
  146.2548  140.5175  142.8878 LP  0  0  0  0  0  0  0  0  0  0  0  0  # atno 17320 bound_to 7965
  144.8112  140.6389  143.6414 LP  0  0  0  0  0  0  0  0  0  0  0  0  # atno 17321 bound_to 7965
  139.9060  143.6778  152.3123 LP  0  0  0  0  0  0  0  0  0  0  0  0  # atno 17342 bound_to 10162
  139.7144  144.7614  151.1058 LP  0  0  0  0  0  0  0  0  0  0  0  0  # atno 17343 bound_to 10162
  156.3261  130.7306  151.2227 LP  0  0  0  0  0  0  0  0  0  0  0  0  # atno 17370 bound_to 10713
  157.7453  131.0442  150.4784 LP  0  0  0  0  0  0  0  0  0  0  0  0  # atno 17371 bound_to 10713
  140.0795  134.5750  155.8555 LP  0  0  0  0  0  0  0  0  0  0  0  0  # atno 17394 bound_to 11000
  141.2043  133.6638  156.6113 LP  0  0  0  0  0  0  0  0  0  0  0  0  # atno 17395 bound_to 11000

$$$$
