AV-unprocessed.smi:1145|AV-procd|sdf|4883|dock5
  -GOLD-   22720 3453D 1   1.00000     0.00000
 Structure written by MMmdl.
 36 37  0  0  0  0  0  0  0  0  1 V2000
  151.6040  144.3841  157.2797 C   0  0  0  0  0  0  0  0  0  0  0  0
  151.5272  142.8558  157.3976 C   0  0  1  0  0  0  0  0  0  0  0  0
  151.0059  142.4254  158.7857 C   0  0  0  0  0  0  0  0  0  0  0  0
  152.0632  142.3128  159.7750 N   0  0  0  0  0  0  0  0  0  0  0  0
  152.2387  143.0474  160.9290 C   0  0  0  0  0  0  0  0  0  0  0  0
  153.3596  142.5721  161.5466 C   0  0  0  0  0  0  0  0  0  0  0  0
  153.8093  141.5371  160.6798 C   0  0  0  0  0  0  0  0  0  0  0  0
  153.0338  141.3870  159.6181 N   0  0  0  0  0  0  0  0  0  0  0  0
  150.6621  142.3409  156.3365 N   0  0  0  0  0  0  0  0  0  0  0  0
  150.6963  141.0977  155.8300 C   0  0  0  0  0  0  0  0  0  0  0  0
  151.5039  140.2410  156.1909 O   0  0  0  0  0  0  0  0  0  0  0  0
  149.6404  140.7658  154.7678 C   0  0  2  0  0  0  0  0  0  0  0  0
  148.2320  141.1204  155.2715 C   0  0  0  0  0  0  0  0  0  0  0  0
  147.1743  140.8486  154.1898 C   0  0  0  0  0  0  0  0  0  0  0  0
  147.3408  139.4856  153.5016 C   0  0  0  0  0  0  0  0  0  0  0  0
  146.4029  139.0121  152.8642 O   0  0  0  0  0  0  0  0  0  0  0  0
  148.5258  138.8550  153.5808 N   0  0  0  0  0  0  0  0  0  0  0  0
  149.6808  139.2732  154.3757 C   0  0  0  0  0  0  0  0  0  0  0  0
  152.2661  144.8030  158.0381 H   0  0  0  0  0  0  0  0  0  0  0  0
  150.6227  144.8432  157.4052 H   0  0  0  0  0  0  0  0  0  0  0  0
  151.9907  144.6837  156.3052 H   0  0  0  0  0  0  0  0  0  0  0  0
  152.5414  142.4732  157.2688 H   0  0  0  0  0  0  0  0  0  0  0  0
  150.2768  143.1488  159.1539 H   0  0  0  0  0  0  0  0  0  0  0  0
  150.4866  141.4683  158.7193 H   0  0  0  0  0  0  0  0  0  0  0  0
  151.5541  143.8321  161.2153 H   0  0  0  0  0  0  0  0  0  0  0  0
  153.7920  142.9106  162.4765 H   0  0  0  0  0  0  0  0  0  0  0  0
  154.6706  140.8946  160.7895 H   0  0  0  0  0  0  0  0  0  0  0  0
  149.9637  142.9750  155.9764 H   0  0  0  0  0  0  0  0  0  0  0  0
  149.8426  141.3619  153.8757 H   0  0  0  0  0  0  0  0  0  0  0  0
  147.9933  140.5407  156.1648 H   0  0  0  0  0  0  0  0  0  0  0  0
  148.1877  142.1698  155.5663 H   0  0  0  0  0  0  0  0  0  0  0  0
  146.1743  140.9207  154.6188 H   0  0  0  0  0  0  0  0  0  0  0  0
  147.2385  141.6161  153.4180 H   0  0  0  0  0  0  0  0  0  0  0  0
  148.6137  137.9757  153.0919 H   0  0  0  0  0  0  0  0  0  0  0  0
  150.5883  139.0575  153.8109 H   0  0  0  0  0  0  0  0  0  0  0  0
  149.7081  138.6393  155.2633 H   0  0  0  0  0  0  0  0  0  0  0  0
  1  2  1  0  0  0  0
  1 19  1  0  0  0  0
  1 20  1  0  0  0  0
  1 21  1  0  0  0  0
  2  3  1  0  0  0  0
  2  9  1  0  0  0  0
  2 22  1  0  0  0  0
  3  4  1  0  0  0  0
  3 23  1  0  0  0  0
  3 24  1  0  0  0  0
  4  8  1  0  0  0  0
  4  5  1  0  0  0  0
  5  6  2  0  0  0  0
  5 25  1  0  0  0  0
  6  7  1  0  0  0  0
  6 26  1  0  0  0  0
  7  8  2  0  0  0  0
  7 27  1  0  0  0  0
  9 10  1  0  0  0  0
  9 28  1  0  0  0  0
 10 11  2  0  0  0  0
 10 12  1  0  0  0  0
 12 18  1  0  0  0  0
 12 13  1  0  0  0  0
 12 29  1  0  0  0  0
 13 14  1  0  0  0  0
 13 30  1  0  0  0  0
 13 31  1  0  0  0  0
 14 15  1  0  0  0  0
 14 32  1  0  0  0  0
 14 33  1  0  0  0  0
 15 16  2  0  0  0  0
 15 17  1  0  0  0  0
 17 18  1  0  0  0  0
 17 34  1  0  0  0  0
 18 35  1  0  0  0  0
 18 36  1  0  0  0  0
M  END
> <s_m_source_file>
AV-unprocessed.smi

> <i_m_source_file_index>
1145

> <i_lp_mmshare_version>
43012

> <i_f3d_flags>
0

> <s_epik_input>
bjFbY0hdW2NIXVtjSF1uMVtDSDJdW0NAQEhdKFtDSDNdKVtOSF1DKD1PKVtDQEBIXTJbQ0gyXVtDSDJdQyg9TylbTkhdW0NIMl0y

> <s_epik_cmdline>
J2VwaWtfcHl0aG9uJywgJy1waCcsICc3LjAnLCAnLXRuJywgJzgnLCAnLW1hJywgJzIwMCcsICctbWV0YWxfYmluZGluZycsICctaW1hZScsICc8aW5maWxlLm1hZT4nLCAnLW9tYWUnLCAnPG91dGZpbGUubWFlPic=

> <r_lp_tautomer_probability>
1

> <r_epik_Ionization_Penalty>
0.000314064

> <r_epik_Ionization_Penalty_Charging>
0

> <r_epik_Ionization_Penalty_Neutral>
0.000314064

> <r_epik_State_Penalty>
-0

> <r_epik_Charging_Adjusted_Penalty>
0

> <i_epik_Tot_Q>
0

> <i_epik_Tot_abs_Q>
0

> <r_epik_Metal_State_Penalty>
-0

> <b_epik_Metal_Only>
0

> <s_lp_Force_Field>
OPLS_2005

> <r_lp_Energy>
11.8785

> <b_lp_Chiralities_Consistent>
1

> <s_lp_Variant>
AV-unprocessed.smi:1145-2

> <Gold.Version>
5.8.1

> <Gold.Id.Protein>
6NUR|6NUR_protein|mol2

> <Gold.PLP.Fitness>
41.5995

> <Gold.PLP.PLP>
-37.7640

> <Gold.PLP.part.hbond>
-2.7573

> <Gold.PLP.part.metal>
0.0000

> <Gold.PLP.part.buried>
-3.3934

> <Gold.PLP.part.nonpolar>
-31.4323

> <Gold.PLP.part.repulsive>
0.4385

> <Gold.PLP.ligand.clash>
0.0000

> <Gold.PLP.ligand.torsion>
0.7460

> <Gold.PLP.Chemscore.Hbond>
1.7713

> <Gold.PLP.Chemscore.CHOScore>
0.0000

> <Gold.PLP.Chemscore.Metal>
0.0000

> <Gold.Chemscore.Hbonds>
donor molecule, donor type, donor heavy atom, donor atom, acceptor molecule, acceptor atom, score
      L1  H     9    28       P1  8028  0.89
      L1  H    17    34       P1  7948  0.71

> <Gold.PLP.Chemscore.Internal.Correction>
0.0137

> <Gold.Rescore>
     Score         DG    S(hbond)    S(metal)    S(lipo)     H(rot)  DE(clash)    DE(int)     intcor
     16.67     -17.46       1.76        0.00      91.35       1.80       0.06       0.73       ----

> <Gold.Chemscore.Fitness>
16.6675

> <Gold.Chemscore.DG>
-17.4579

> <Gold.Chemscore.ZeroCoef>
-5.4800

> <Gold.Chemscore.Hbond>
1.7643

> <Gold.Chemscore.Metal>
0.0000

> <Gold.Chemscore.Lipo>
91.3544

> <Gold.Chemscore.Internal_Hbond>
0.0000

> <Gold.Chemscore.DEClash>
0.0559

> <Gold.Chemscore.DEInternal>
0.7344

> <Gold.Chemscore.Rot>
1.7982

> <Gold.Chemscore.Internal.Correction>
   9.000000E+99

> <Gold.Chemscore.Hbonds>
donor molecule, donor type, donor heavy atom, donor atom, acceptor molecule, acceptor atom, score
      L1  H     9    28       P1  8028  0.85
      L1  H    17    34       P1  7948  0.73

> <Gold.Chemscore.Hbond.Weighted>
-5.8929

> <Gold.Chemscore.Metal.Weighted>
-0.0000

> <Gold.Chemscore.Lipo.Weighted>
-10.6885

> <Gold.Chemscore.Internal_Hbond.Weighted>
0.0000

> <Gold.Chemscore.DEClash.Weighted>
0.0559

> <Gold.Chemscore.DEInternal.Weighted>
0.7344

> <Gold.Chemscore.Rot.Weighted>
4.6035

> <Gold.Chemscore.Internal.Correction.Weighted>
   9.000000E+99

> <Gold.Protein.RotatedTorsions>
[ 6907 6896 6895 6894 ] final -129.08 input  -60.11 | X-H torsion
[ 7974 7965 7964 7962 ] final  -82.88 input  175.53 | X-H torsion
[ 8008 7997 7996 7995 ] final  -78.68 input   59.86 | X-H torsion
[ 10167 10162 10161 10158 ] final   -3.15 input  -65.29 | X-H torsion
[ 10718 10713 10712 10709 ] final -122.44 input   66.30 | X-H torsion
[ 10763 10752 10751 10750 ] final  -63.76 input  -60.55 | X-H torsion
[ 11005 11000 10999 10996 ] final   41.74 input  -57.11 | X-H torsion

> <Gold.Protein.ActiveResidues>
 VAL166  LYS551  ARG553  GLY616  TRP617  ASP618  TYR619  PRO620  LYS621  CYS622 
 ASP623  PHE694  ASN695  SER759  ASP760  ASP761  ALA762  ILE779  LEU786  VAL792 
 PHE793  MET794  SER795  GLU796  ALA797  LYS798  CYS799  TRP800  GLU811  SER814 

> <Gold.Protein.RotatedAtoms>
  150.9248  133.6837  159.2823 H   0  0  0  0  0  0  0  0  0  0  0  0  # atno 6907 bound_to 6896
  151.4279  135.1005  159.9643 H   0  0  0  0  0  0  0  0  0  0  0  0  # atno 6908 bound_to 6896
  152.4997  133.8685  159.7341 H   0  0  0  0  0  0  0  0  0  0  0  0  # atno 6909 bound_to 6896
  145.5274  140.9525  143.1622 H   0  0  0  0  0  0  0  0  0  0  0  0  # atno 7974 bound_to 7965
  154.5712  140.0690  156.8968 H   0  0  0  0  0  0  0  0  0  0  0  0  # atno 8008 bound_to 7997
  155.2630  140.3360  155.4253 H   0  0  0  0  0  0  0  0  0  0  0  0  # atno 8009 bound_to 7997
  156.2120  140.1763  156.7659 H   0  0  0  0  0  0  0  0  0  0  0  0  # atno 8010 bound_to 7997
  140.6879  143.6573  150.8297 H   0  0  0  0  0  0  0  0  0  0  0  0  # atno 10167 bound_to 10162
  156.1419  130.6472  150.9783 H   0  0  0  0  0  0  0  0  0  0  0  0  # atno 10718 bound_to 10713
  154.3199  135.6198  153.5503 H   0  0  0  0  0  0  0  0  0  0  0  0  # atno 10763 bound_to 10752
  152.9821  135.5721  154.5081 H   0  0  0  0  0  0  0  0  0  0  0  0  # atno 10764 bound_to 10752
  154.4747  135.2860  155.1592 H   0  0  0  0  0  0  0  0  0  0  0  0  # atno 10765 bound_to 10752
  140.1806  134.4109  155.8203 H   0  0  0  0  0  0  0  0  0  0  0  0  # atno 11005 bound_to 11000
  144.7644  139.6880  143.7221 LP  0  0  0  0  0  0  0  0  0  0  0  0  # atno 17320 bound_to 7965
  146.2067  139.5395  142.9708 LP  0  0  0  0  0  0  0  0  0  0  0  0  # atno 17321 bound_to 7965
  140.0282  143.5471  152.2771 LP  0  0  0  0  0  0  0  0  0  0  0  0  # atno 17342 bound_to 10162
  139.6254  144.7636  151.2650 LP  0  0  0  0  0  0  0  0  0  0  0  0  # atno 17343 bound_to 10162
  157.6583  131.0885  150.7897 LP  0  0  0  0  0  0  0  0  0  0  0  0  # atno 17370 bound_to 10713
  156.7972  130.4909  149.5375 LP  0  0  0  0  0  0  0  0  0  0  0  0  # atno 17371 bound_to 10713
  141.2223  133.6998  156.7923 LP  0  0  0  0  0  0  0  0  0  0  0  0  # atno 17394 bound_to 11000
  140.2272  134.8713  157.3439 LP  0  0  0  0  0  0  0  0  0  0  0  0  # atno 17395 bound_to 11000

$$$$
