AV-unprocessed.smi:484|AV-procd|sdf|2687|dock10
  -GOLD-   2262023113D 1   1.00000     0.00000
 Structure written by MMmdl.
 46 48  0  0  0  0  0  0  0  0  1 V2000
  154.6255  132.0292  163.4484 C   0  0  0  0  0  0  0  0  0  0  0  0
  155.1527  133.0920  164.4186 C   0  0  0  0  0  0  0  0  0  0  0  0
  155.1537  134.4790  163.8042 C   0  0  0  0  0  0  0  0  0  0  0  0
  154.6127  135.5693  164.5140 C   0  0  0  0  0  0  0  0  0  0  0  0
  154.6089  136.8545  163.9393 C   0  0  0  0  0  0  0  0  0  0  0  0
  155.1434  137.0729  162.6533 C   0  0  0  0  0  0  0  0  0  0  0  0
  155.0989  138.3624  162.1694 O   0  0  0  0  0  0  0  0  0  0  0  0
  155.3510  138.5726  160.7856 C   0  0  0  0  0  0  0  0  0  0  0  0
  155.1302  140.0518  160.4318 C   0  0  2  0  0  0  0  0  0  0  0  0
  156.2165  140.8127  160.9208 O   0  0  0  0  0  0  0  0  0  0  0  0
  153.7773  140.6092  160.9203 C   0  0  0  0  0  0  0  0  0  0  0  0
  152.8689  140.9153  159.8237 N   0  0  0  0  0  0  0  0  0  0  0  0
  152.2997  140.0554  158.9421 C   0  0  0  0  0  0  0  0  0  0  0  0
  152.5424  138.5780  158.9961 C   0  0  0  0  0  0  0  0  0  0  0  0
  151.3573  137.8389  159.1998 O   0  0  0  0  0  0  0  0  0  0  0  0
  151.5028  140.6060  158.0257 N   0  0  0  0  0  0  0  0  0  0  0  0
  151.5557  141.9488  158.3450 C   0  0  0  0  0  0  0  0  0  0  0  0
  150.9224  143.0608  157.7449 C   0  0  0  0  0  0  0  0  0  0  0  0
  151.1283  144.3599  158.2536 C   0  0  0  0  0  0  0  0  0  0  0  0
  151.9684  144.5656  159.3671 C   0  0  0  0  0  0  0  0  0  0  0  0
  152.6092  143.4716  159.9797 C   0  0  0  0  0  0  0  0  0  0  0  0
  152.4007  142.1766  159.4680 C   0  0  0  0  0  0  0  0  0  0  0  0
  155.6861  135.9719  161.9436 C   0  0  0  0  0  0  0  0  0  0  0  0
  155.6894  134.6855  162.5173 C   0  0  0  0  0  0  0  0  0  0  0  0
  154.6350  131.0421  163.9108 H   0  0  0  0  0  0  0  0  0  0  0  0
  155.2378  131.9808  162.5473 H   0  0  0  0  0  0  0  0  0  0  0  0
  153.6003  132.2456  163.1462 H   0  0  0  0  0  0  0  0  0  0  0  0
  154.5446  133.1018  165.3237 H   0  0  0  0  0  0  0  0  0  0  0  0
  156.1652  132.8357  164.7326 H   0  0  0  0  0  0  0  0  0  0  0  0
  154.1972  135.4230  165.5004 H   0  0  0  0  0  0  0  0  0  0  0  0
  154.1905  137.6826  164.4924 H   0  0  0  0  0  0  0  0  0  0  0  0
  156.3646  138.2668  160.5198 H   0  0  0  0  0  0  0  0  0  0  0  0
  154.6571  137.9663  160.2010 H   0  0  0  0  0  0  0  0  0  0  0  0
  155.1730  140.1377  159.3460 H   0  0  0  0  0  0  0  0  0  0  0  0
  156.0879  141.7140  160.6673 H   0  0  0  0  0  0  0  0  0  0  0  0
  153.2960  139.8978  161.5914 H   0  0  0  0  0  0  0  0  0  0  0  0
  153.9262  141.5177  161.5046 H   0  0  0  0  0  0  0  0  0  0  0  0
  152.9982  138.2530  158.0602 H   0  0  0  0  0  0  0  0  0  0  0  0
  153.2546  138.3465  159.7876 H   0  0  0  0  0  0  0  0  0  0  0  0
  151.4508  136.9999  158.7754 H   0  0  0  0  0  0  0  0  0  0  0  0
  150.2773  142.9132  156.8915 H   0  0  0  0  0  0  0  0  0  0  0  0
  150.6392  145.2026  157.7870 H   0  0  0  0  0  0  0  0  0  0  0  0
  152.1207  145.5637  159.7506 H   0  0  0  0  0  0  0  0  0  0  0  0
  153.2546  143.6261  160.8314 H   0  0  0  0  0  0  0  0  0  0  0  0
  156.1054  136.0868  160.9558 H   0  0  0  0  0  0  0  0  0  0  0  0
  156.1047  133.8559  161.9637 H   0  0  0  0  0  0  0  0  0  0  0  0
  1  2  1  0  0  0  0
  1 25  1  0  0  0  0
  1 26  1  0  0  0  0
  1 27  1  0  0  0  0
  2  3  1  0  0  0  0
  2 28  1  0  0  0  0
  2 29  1  0  0  0  0
  3 24  1  0  0  0  0
  3  4  2  0  0  0  0
  4  5  1  0  0  0  0
  4 30  1  0  0  0  0
  5  6  2  0  0  0  0
  5 31  1  0  0  0  0
  6  7  1  0  0  0  0
  6 23  1  0  0  0  0
  7  8  1  0  0  0  0
  8  9  1  0  0  0  0
  8 32  1  0  0  0  0
  8 33  1  0  0  0  0
  9 10  1  0  0  0  0
  9 11  1  0  0  0  0
  9 34  1  0  0  0  0
 10 35  1  0  0  0  0
 11 12  1  0  0  0  0
 11 36  1  0  0  0  0
 11 37  1  0  0  0  0
 12 22  1  0  0  0  0
 12 13  1  0  0  0  0
 13 14  1  0  0  0  0
 13 16  2  0  0  0  0
 14 15  1  0  0  0  0
 14 38  1  0  0  0  0
 14 39  1  0  0  0  0
 15 40  1  0  0  0  0
 16 17  1  0  0  0  0
 17 22  2  0  0  0  0
 17 18  1  0  0  0  0
 18 19  2  0  0  0  0
 18 41  1  0  0  0  0
 19 20  1  0  0  0  0
 19 42  1  0  0  0  0
 20 21  2  0  0  0  0
 20 43  1  0  0  0  0
 21 22  1  0  0  0  0
 21 44  1  0  0  0  0
 23 24  2  0  0  0  0
 23 45  1  0  0  0  0
 24 46  1  0  0  0  0
M  END
> <s_m_source_file>
AV-unprocessed.smi

> <i_m_source_file_index>
484

> <i_lp_mmshare_version>
43012

> <i_f3d_flags>
0

> <s_epik_input>
W0NIM11bQ0gyXWMxW2NIXVtjSF1jKFtjSF1bY0hdMSlPW0NIMl1bQ0BIXShbT0hdKVtDSDJdbihjKG4yKVtDSDJdW09IXSljKGMyMylbY0hdW2NIXVtjSF1bY0hdMw==

> <s_epik_cmdline>
J2VwaWtfcHl0aG9uJywgJy1waCcsICc3LjAnLCAnLXRuJywgJzgnLCAnLW1hJywgJzIwMCcsICctbWV0YWxfYmluZGluZycsICctaW1hZScsICc8aW5maWxlLm1hZT4nLCAnLW9tYWUnLCAnPG91dGZpbGUubWFlPic=

> <r_lp_tautomer_probability>
1

> <r_epik_Ionization_Penalty>
0.0555463

> <r_epik_Ionization_Penalty_Charging>
0

> <r_epik_Ionization_Penalty_Neutral>
0.0555463

> <r_epik_State_Penalty>
0.0477854

> <r_epik_Charging_Adjusted_Penalty>
0.0477854

> <i_epik_Tot_Q>
0

> <i_epik_Tot_abs_Q>
0

> <r_epik_Metal_State_Penalty>
4.97632e-05

> <b_epik_Metal_Only>
0

> <s_lp_Force_Field>
OPLS_2005

> <r_lp_Energy>
15.7427

> <b_lp_Chiralities_Consistent>
1

> <s_lp_Variant>
AV-unprocessed.smi:484-1

> <Gold.Version>
5.8.1

> <Gold.Id.Protein>
6NUR|6NUR_protein|mol2

> <Gold.PLP.Fitness>
51.5063

> <Gold.PLP.PLP>
-53.7099

> <Gold.PLP.part.hbond>
-1.8033

> <Gold.PLP.part.metal>
0.0000

> <Gold.PLP.part.buried>
-3.2186

> <Gold.PLP.part.nonpolar>
-49.5562

> <Gold.PLP.part.repulsive>
0.0000

> <Gold.PLP.ligand.clash>
0.0000

> <Gold.PLP.ligand.torsion>
1.1271

> <Gold.PLP.Chemscore.Hbond>
0.0000

> <Gold.PLP.Chemscore.CHOScore>
0.0000

> <Gold.PLP.Chemscore.Metal>
0.0000

> <Gold.PLP.Chemscore.Internal.Correction>
0.0507

> <Gold.Rescore>
     Score         DG    S(hbond)    S(metal)    S(lipo)     H(rot)  DE(clash)    DE(int)     intcor
     14.13     -15.18       0.00        0.00     150.22       3.08       0.01       1.04       ----

> <Gold.Chemscore.Fitness>
14.1280

> <Gold.Chemscore.DG>
-15.1758

> <Gold.Chemscore.ZeroCoef>
-5.4800

> <Gold.Chemscore.Hbond>
0.0000

> <Gold.Chemscore.Metal>
0.0000

> <Gold.Chemscore.Lipo>
150.2249

> <Gold.Chemscore.Internal_Hbond>
0.0000

> <Gold.Chemscore.DEClash>
0.0060

> <Gold.Chemscore.DEInternal>
1.0418

> <Gold.Chemscore.Rot>
3.0783

> <Gold.Chemscore.Internal.Correction>
   9.000000E+99

> <Gold.Chemscore.Hbond.Weighted>
-0.0000

> <Gold.Chemscore.Metal.Weighted>
-0.0000

> <Gold.Chemscore.Lipo.Weighted>
-17.5763

> <Gold.Chemscore.Internal_Hbond.Weighted>
0.0000

> <Gold.Chemscore.DEClash.Weighted>
0.0060

> <Gold.Chemscore.DEInternal.Weighted>
1.0418

> <Gold.Chemscore.Rot.Weighted>
7.8805

> <Gold.Chemscore.Internal.Correction.Weighted>
   9.000000E+99

> <Gold.Protein.RotatedTorsions>
[ 6907 6896 6895 6894 ] final   36.29 input  -60.11 | X-H torsion
[ 7974 7965 7964 7962 ] final  -92.93 input  175.53 | X-H torsion
[ 8008 7997 7996 7995 ] final  -49.75 input   59.86 | X-H torsion
[ 10167 10162 10161 10158 ] final    7.18 input  -65.29 | X-H torsion
[ 10718 10713 10712 10709 ] final   87.01 input   66.30 | X-H torsion
[ 10763 10752 10751 10750 ] final -128.41 input  -60.55 | X-H torsion
[ 11005 11000 10999 10996 ] final  113.31 input  -57.11 | X-H torsion

> <Gold.Protein.ActiveResidues>
 VAL166  LYS551  ARG553  GLY616  TRP617  ASP618  TYR619  PRO620  LYS621  CYS622 
 ASP623  PHE694  ASN695  SER759  ASP760  ASP761  ALA762  ILE779  LEU786  VAL792 
 PHE793  MET794  SER795  GLU796  ALA797  LYS798  CYS799  TRP800  GLU811  SER814 

> <Gold.Protein.RotatedAtoms>
  152.1277  134.9158  160.0559 H   0  0  0  0  0  0  0  0  0  0  0  0  # atno 6907 bound_to 6896
  152.0274  133.3918  159.4291 H   0  0  0  0  0  0  0  0  0  0  0  0  # atno 6908 bound_to 6896
  150.6854  134.3479  159.4940 H   0  0  0  0  0  0  0  0  0  0  0  0  # atno 6909 bound_to 6896
  145.3933  140.9530  143.2328 H   0  0  0  0  0  0  0  0  0  0  0  0  # atno 7974 bound_to 7965
  154.4049  140.1289  156.4553 H   0  0  0  0  0  0  0  0  0  0  0  0  # atno 8008 bound_to 7997
  155.7326  140.3491  155.5047 H   0  0  0  0  0  0  0  0  0  0  0  0  # atno 8009 bound_to 7997
  155.9113  140.1036  157.1267 H   0  0  0  0  0  0  0  0  0  0  0  0  # atno 8010 bound_to 7997
  140.6386  143.7827  150.7395 H   0  0  0  0  0  0  0  0  0  0  0  0  # atno 10167 bound_to 10162
  157.6935  131.0238  150.3058 H   0  0  0  0  0  0  0  0  0  0  0  0  # atno 10718 bound_to 10713
  154.8756  135.3929  154.3753 H   0  0  0  0  0  0  0  0  0  0  0  0  # atno 10763 bound_to 10752
  153.4507  135.7028  153.6116 H   0  0  0  0  0  0  0  0  0  0  0  0  # atno 10764 bound_to 10752
  153.4656  135.3802  155.2331 H   0  0  0  0  0  0  0  0  0  0  0  0  # atno 10765 bound_to 10752
  139.8949  134.9547  156.6719 H   0  0  0  0  0  0  0  0  0  0  0  0  # atno 11005 bound_to 11000
  144.8425  139.5449  143.6894 LP  0  0  0  0  0  0  0  0  0  0  0  0  # atno 17320 bound_to 7965
  146.2787  139.6820  142.9244 LP  0  0  0  0  0  0  0  0  0  0  0  0  # atno 17321 bound_to 7965
  140.1453  143.4405  152.2167 LP  0  0  0  0  0  0  0  0  0  0  0  0  # atno 17342 bound_to 10162
  139.5596  144.7396  151.4194 LP  0  0  0  0  0  0  0  0  0  0  0  0  # atno 17343 bound_to 10162
  156.3567  130.3840  149.7284 LP  0  0  0  0  0  0  0  0  0  0  0  0  # atno 17370 bound_to 10713
  156.4744  130.8012  151.3028 LP  0  0  0  0  0  0  0  0  0  0  0  0  # atno 17371 bound_to 10713
  140.7367  133.9013  155.8249 LP  0  0  0  0  0  0  0  0  0  0  0  0  # atno 17394 bound_to 11000
  141.0110  134.1020  157.4221 LP  0  0  0  0  0  0  0  0  0  0  0  0  # atno 17395 bound_to 11000

$$$$
