AV-unprocessed.smi:2198|AV-procd|sdf|8911|dock2
  -GOLD-   2272012123D 1   1.00000     0.00000
 Structure written by MMmdl.
 43 44  0  0  0  0  0  0  0  0  1 V2000
  152.9388  138.6399  155.0001 C   0  0  0  0  0  0  0  0  0  0  0  0
  151.8847  137.8017  155.6919 C   0  0  0  0  0  0  0  0  0  0  0  0
  151.7972  136.5169  155.5811 N   0  0  0  0  0  0  0  0  0  0  0  0
  150.7774  135.8488  156.2730 C   0  0  0  0  0  0  0  0  0  0  0  0
  150.7418  134.3407  156.0947 C   0  0  0  0  0  0  0  0  0  0  0  0
  149.8822  136.5219  157.0539 C   0  0  0  0  0  0  0  0  0  0  0  0
  148.7640  135.8210  157.8239 C   0  0  0  0  0  0  0  0  0  0  0  0
  148.9037  135.8170  159.3482 C   0  0  0  0  0  0  0  0  0  0  0  0
  149.8179  136.4365  159.8926 O   0  0  0  0  0  0  0  0  0  0  0  0
  147.9867  135.1087  160.0242 N   0  0  0  0  0  0  0  0  0  0  0  0
  147.9329  134.9533  161.4768 C   0  0  2  0  0  0  0  0  0  0  0  0
  146.9120  133.8643  161.8579 C   0  0  0  0  0  0  0  0  0  0  0  0
  145.4620  134.3173  161.6144 C   0  0  0  0  0  0  0  0  0  0  0  0
  145.1607  135.6381  162.3393 C   0  0  0  0  0  0  0  0  0  0  0  0
  146.1502  136.7465  161.9320 C   0  0  1  0  0  0  0  0  0  0  0  0
  145.8463  138.0632  162.6607 C   0  0  0  0  0  0  0  0  0  0  0  0
  147.6034  136.2897  162.1776 C   0  0  0  0  0  0  0  0  0  0  0  0
  149.9907  137.9888  157.1723 C   0  0  0  0  0  0  0  0  0  0  0  0
  149.2421  138.6920  157.8492 O   0  0  0  0  0  0  0  0  0  0  0  0
  151.0021  138.5479  156.4709 N   0  0  0  0  0  0  0  0  0  0  0  0
  151.1192  139.5494  156.5207 H   0  0  0  0  0  0  0  0  0  0  0  0
  153.9332  138.3416  155.3324 H   0  0  0  0  0  0  0  0  0  0  0  0
  152.8125  139.7022  155.2130 H   0  0  0  0  0  0  0  0  0  0  0  0
  152.8812  138.4996  153.9206 H   0  0  0  0  0  0  0  0  0  0  0  0
  149.8153  134.0345  155.6089 H   0  0  0  0  0  0  0  0  0  0  0  0
  150.8119  133.8366  157.0587 H   0  0  0  0  0  0  0  0  0  0  0  0
  151.5722  133.9951  155.4776 H   0  0  0  0  0  0  0  0  0  0  0  0
  147.7953  136.2553  157.5746 H   0  0  0  0  0  0  0  0  0  0  0  0
  148.7024  134.7896  157.4752 H   0  0  0  0  0  0  0  0  0  0  0  0
  147.2714  134.6350  159.4919 H   0  0  0  0  0  0  0  0  0  0  0  0
  148.9146  134.6173  161.8155 H   0  0  0  0  0  0  0  0  0  0  0  0
  147.1152  132.9455  161.3064 H   0  0  0  0  0  0  0  0  0  0  0  0
  147.0325  133.6168  162.9133 H   0  0  0  0  0  0  0  0  0  0  0  0
  145.2862  134.4385  160.5448 H   0  0  0  0  0  0  0  0  0  0  0  0
  144.7712  133.5441  161.9519 H   0  0  0  0  0  0  0  0  0  0  0  0
  144.1392  135.9499  162.1189 H   0  0  0  0  0  0  0  0  0  0  0  0
  145.2084  135.4788  163.4176 H   0  0  0  0  0  0  0  0  0  0  0  0
  146.0277  136.9317  160.8639 H   0  0  0  0  0  0  0  0  0  0  0  0
  145.9482  137.9518  163.7406 H   0  0  0  0  0  0  0  0  0  0  0  0
  144.8299  138.4001  162.4554 H   0  0  0  0  0  0  0  0  0  0  0  0
  146.5258  138.8540  162.3417 H   0  0  0  0  0  0  0  0  0  0  0  0
  147.7642  136.1723  163.2502 H   0  0  0  0  0  0  0  0  0  0  0  0
  148.2997  137.0650  161.8552 H   0  0  0  0  0  0  0  0  0  0  0  0
  1  2  1  0  0  0  0
  1 22  1  0  0  0  0
  1 23  1  0  0  0  0
  1 24  1  0  0  0  0
  2 20  1  0  0  0  0
  2  3  2  0  0  0  0
  3  4  1  0  0  0  0
  4  5  1  0  0  0  0
  4  6  2  0  0  0  0
  5 25  1  0  0  0  0
  5 26  1  0  0  0  0
  5 27  1  0  0  0  0
  6  7  1  0  0  0  0
  6 18  1  0  0  0  0
  7  8  1  0  0  0  0
  7 28  1  0  0  0  0
  7 29  1  0  0  0  0
  8  9  2  0  0  0  0
  8 10  1  0  0  0  0
 10 11  1  0  0  0  0
 10 30  1  0  0  0  0
 11 17  1  0  0  0  0
 11 12  1  0  0  0  0
 11 31  1  0  0  0  0
 12 13  1  0  0  0  0
 12 32  1  0  0  0  0
 12 33  1  0  0  0  0
 13 14  1  0  0  0  0
 13 34  1  0  0  0  0
 13 35  1  0  0  0  0
 14 15  1  0  0  0  0
 14 36  1  0  0  0  0
 14 37  1  0  0  0  0
 15 16  1  0  0  0  0
 15 17  1  0  0  0  0
 15 38  1  0  0  0  0
 16 39  1  0  0  0  0
 16 40  1  0  0  0  0
 16 41  1  0  0  0  0
 17 42  1  0  0  0  0
 17 43  1  0  0  0  0
 18 19  2  0  0  0  0
 18 20  1  0  0  0  0
 20 21  1  0  0  0  0
M  END
> <s_m_source_file>
AV-unprocessed.smi

> <i_m_source_file_index>
2198

> <i_lp_mmshare_version>
43012

> <i_f3d_flags>
0

> <s_epik_input>
W0NIM11jMW5jKFtDSDNdKWMoYyg9TylbbkhdMSlbQ0gyXUMoPU8pW05IXVtDQEBIXTJbQ0gyXVtDSDJdW0NIMl1bQ0BASF0oW0NIM10pW0NIMl0y

> <s_epik_cmdline>
J2VwaWtfcHl0aG9uJywgJy1waCcsICc3LjAnLCAnLXRuJywgJzgnLCAnLW1hJywgJzIwMCcsICctbWV0YWxfYmluZGluZycsICctaW1hZScsICc8aW5maWxlLm1hZT4nLCAnLW9tYWUnLCAnPG91dGZpbGUubWFlPic=

> <r_lp_tautomer_probability>
0.839158

> <r_epik_Ionization_Penalty>
0.000372587

> <r_epik_Ionization_Penalty_Charging>
0.000337977

> <r_epik_Ionization_Penalty_Neutral>
3.46101e-05

> <r_epik_State_Penalty>
0.09125

> <r_epik_Charging_Adjusted_Penalty>
0.091588

> <i_epik_Tot_Q>
0

> <i_epik_Tot_abs_Q>
0

> <r_epik_Metal_State_Penalty>
0.25197

> <b_epik_Metal_Only>
0

> <s_lp_Force_Field>
OPLS_2005

> <r_lp_Energy>
10.2455

> <b_lp_Chiralities_Consistent>
1

> <s_lp_Variant>
AV-unprocessed.smi:2198-1

> <Gold.Version>
5.8.1

> <Gold.Id.Protein>
6NUR|6NUR_protein|mol2

> <Gold.PLP.Fitness>
34.6530

> <Gold.PLP.PLP>
-28.9959

> <Gold.PLP.part.hbond>
-2.0000

> <Gold.PLP.part.metal>
0.0000

> <Gold.PLP.part.buried>
-4.9097

> <Gold.PLP.part.nonpolar>
-21.3763

> <Gold.PLP.part.repulsive>
0.2105

> <Gold.PLP.ligand.clash>
0.0000

> <Gold.PLP.ligand.torsion>
0.1776

> <Gold.PLP.Chemscore.Hbond>
2.0000

> <Gold.PLP.Chemscore.CHOScore>
0.0000

> <Gold.PLP.Chemscore.Metal>
0.0000

> <Gold.Chemscore.Hbonds>
donor molecule, donor type, donor heavy atom, donor atom, acceptor molecule, acceptor atom, score
      P1  H  6896  6907       L1     9  0.65
      P1  H 10752 10764       L1     3  1.00

> <Gold.PLP.Chemscore.Internal.Correction>
0.0124

> <Gold.Rescore>
     Score         DG    S(hbond)    S(metal)    S(lipo)     H(rot)  DE(clash)    DE(int)     intcor
     15.52     -15.69       1.83        0.00      67.50       1.48       0.07       0.10       ----

> <Gold.Chemscore.Fitness>
15.5206

> <Gold.Chemscore.DG>
-15.6934

> <Gold.Chemscore.ZeroCoef>
-5.4800

> <Gold.Chemscore.Hbond>
1.8278

> <Gold.Chemscore.Metal>
0.0000

> <Gold.Chemscore.Lipo>
67.5006

> <Gold.Chemscore.Internal_Hbond>
0.0000

> <Gold.Chemscore.DEClash>
0.0712

> <Gold.Chemscore.DEInternal>
0.1015

> <Gold.Chemscore.Rot>
1.4801

> <Gold.Chemscore.Internal.Correction>
   9.000000E+99

> <Gold.Chemscore.Hbonds>
donor molecule, donor type, donor heavy atom, donor atom, acceptor molecule, acceptor atom, score
      P1  H  6896  6907       L1     9  0.06
      P1  H 10752 10764       L1     3  0.95

> <Gold.Chemscore.Hbond.Weighted>
-6.1049

> <Gold.Chemscore.Metal.Weighted>
-0.0000

> <Gold.Chemscore.Lipo.Weighted>
-7.8976

> <Gold.Chemscore.Internal_Hbond.Weighted>
0.0000

> <Gold.Chemscore.DEClash.Weighted>
0.0712

> <Gold.Chemscore.DEInternal.Weighted>
0.1015

> <Gold.Chemscore.Rot.Weighted>
3.7891

> <Gold.Chemscore.Internal.Correction.Weighted>
   9.000000E+99

> <Gold.Protein.RotatedTorsions>
[ 6907 6896 6895 6894 ] final  -36.72 input  -60.11 | X-H torsion
[ 7974 7965 7964 7962 ] final  -46.86 input  175.53 | X-H torsion
[ 8008 7997 7996 7995 ] final  -21.13 input   59.86 | X-H torsion
[ 10167 10162 10161 10158 ] final  -46.40 input  -65.29 | X-H torsion
[ 10718 10713 10712 10709 ] final   38.91 input   66.30 | X-H torsion
[ 10763 10752 10751 10750 ] final  -57.53 input  -60.55 | X-H torsion
[ 11005 11000 10999 10996 ] final   73.02 input  -57.11 | X-H torsion

> <Gold.Protein.ActiveResidues>
 VAL166  LYS551  ARG553  GLY616  TRP617  ASP618  TYR619  PRO620  LYS621  CYS622 
 ASP623  PHE694  ASN695  SER759  ASP760  ASP761  ALA762  ILE779  LEU786  VAL792 
 PHE793  MET794  SER795  GLU796  ALA797  LYS798  CYS799  TRP800  GLU811  SER814 

> <Gold.Protein.RotatedAtoms>
  151.0236  134.9487  159.8072 H   0  0  0  0  0  0  0  0  0  0  0  0  # atno 6907 bound_to 6896
  152.5330  134.2871  159.9039 H   0  0  0  0  0  0  0  0  0  0  0  0  # atno 6908 bound_to 6896
  151.2879  133.4137  159.2665 H   0  0  0  0  0  0  0  0  0  0  0  0  # atno 6909 bound_to 6896
  145.9676  140.7416  142.9426 H   0  0  0  0  0  0  0  0  0  0  0  0  # atno 7974 bound_to 7965
  154.4725  140.2043  155.9959 H   0  0  0  0  0  0  0  0  0  0  0  0  # atno 8008 bound_to 7997
  156.1034  140.3240  155.7944 H   0  0  0  0  0  0  0  0  0  0  0  0  # atno 8009 bound_to 7997
  155.4758  140.0535  157.2964 H   0  0  0  0  0  0  0  0  0  0  0  0  # atno 8010 bound_to 7997
  140.6819  143.2832  151.3778 H   0  0  0  0  0  0  0  0  0  0  0  0  # atno 10167 bound_to 10162
  157.3644  130.7667  149.7071 H   0  0  0  0  0  0  0  0  0  0  0  0  # atno 10718 bound_to 10713
  154.2239  135.6373  153.5153 H   0  0  0  0  0  0  0  0  0  0  0  0  # atno 10763 bound_to 10752
  152.9963  135.5503  154.6084 H   0  0  0  0  0  0  0  0  0  0  0  0  # atno 10764 bound_to 10752
  154.5551  135.2904  155.0946 H   0  0  0  0  0  0  0  0  0  0  0  0  # atno 10765 bound_to 10752
  139.9461  134.7311  156.0977 H   0  0  0  0  0  0  0  0  0  0  0  0  # atno 11005 bound_to 11000
  144.6829  140.2695  143.7308 LP  0  0  0  0  0  0  0  0  0  0  0  0  # atno 17320 bound_to 7965
  145.7952  139.1942  143.2080 LP  0  0  0  0  0  0  0  0  0  0  0  0  # atno 17321 bound_to 7965
  139.6147  144.1027  152.2334 LP  0  0  0  0  0  0  0  0  0  0  0  0  # atno 17342 bound_to 10162
  140.0452  144.5976  150.7379 LP  0  0  0  0  0  0  0  0  0  0  0  0  # atno 17343 bound_to 10162
  155.9743  130.4105  150.3932 LP  0  0  0  0  0  0  0  0  0  0  0  0  # atno 17370 bound_to 10713
  157.2013  131.0439  151.2648 LP  0  0  0  0  0  0  0  0  0  0  0  0  # atno 17371 bound_to 10713
  141.1111  133.6643  156.2982 LP  0  0  0  0  0  0  0  0  0  0  0  0  # atno 17394 bound_to 11000
  140.5832  134.5725  157.5484 LP  0  0  0  0  0  0  0  0  0  0  0  0  # atno 17395 bound_to 11000

$$$$
