AV-unprocessed.smi:2352|AV-procd|sdf|9378|dock6
  -GOLD-   2272013 03D 1   1.00000     0.00000
 Structure written by MMmdl.
 37 38  0  0  0  0  0  0  0  0  1 V2000
  155.1687  138.7356  165.9850 C   0  0  0  0  0  0  0  0  0  0  0  0
  155.0594  138.8149  164.4725 C   0  0  0  0  0  0  0  0  0  0  0  0
  155.7338  139.8831  163.8739 N   0  0  0  0  0  0  0  0  0  0  0  0
  155.6942  140.0327  162.5904 C   0  0  0  0  0  0  0  0  0  0  0  0
  154.9840  139.1450  161.7656 N   0  0  0  0  0  0  0  0  0  0  0  0
  155.0172  139.4284  160.3206 C   0  0  0  0  0  0  0  0  0  0  0  0
  153.6133  139.3690  159.6786 C   0  0  2  0  0  0  0  0  0  0  0  0
  153.7127  138.7081  158.4322 O   0  0  0  0  0  0  0  0  0  0  0  0
  153.0273  140.7642  159.5205 C   0  0  0  0  0  0  0  0  0  0  0  0
  151.8481  140.9728  158.7722 C   0  0  0  0  0  0  0  0  0  0  0  0
  151.3177  142.2694  158.6273 C   0  0  0  0  0  0  0  0  0  0  0  0
  151.9584  143.3742  159.2290 C   0  0  0  0  0  0  0  0  0  0  0  0
  151.3938  144.7783  159.0685 C   0  0  0  0  0  0  0  0  0  0  0  0
  151.2784  145.0943  157.7782 F   0  0  0  0  0  0  0  0  0  0  0  0
  150.1882  144.8333  159.6334 F   0  0  0  0  0  0  0  0  0  0  0  0
  152.1814  145.6837  159.6500 F   0  0  0  0  0  0  0  0  0  0  0  0
  153.1440  143.1658  159.9659 C   0  0  0  0  0  0  0  0  0  0  0  0
  153.6749  141.8694  160.1111 C   0  0  0  0  0  0  0  0  0  0  0  0
  154.3070  138.0713  162.2666 C   0  0  0  0  0  0  0  0  0  0  0  0
  153.6996  137.2897  161.5319 O   0  0  0  0  0  0  0  0  0  0  0  0
  154.3573  137.9164  163.7294 C   0  0  0  0  0  0  0  0  0  0  0  0
  153.6037  136.7340  164.3255 C   0  0  0  0  0  0  0  0  0  0  0  0
  154.1813  138.7970  166.4434 H   0  0  0  0  0  0  0  0  0  0  0  0
  155.7730  139.5517  166.3831 H   0  0  0  0  0  0  0  0  0  0  0  0
  155.6356  137.7974  166.2859 H   0  0  0  0  0  0  0  0  0  0  0  0
  156.2070  140.8461  162.0741 H   0  0  0  0  0  0  0  0  0  0  0  0
  155.4299  140.4303  160.1862 H   0  0  0  0  0  0  0  0  0  0  0  0
  155.7121  138.7784  159.7842 H   0  0  0  0  0  0  0  0  0  0  0  0
  152.9360  138.7868  160.3049 H   0  0  0  0  0  0  0  0  0  0  0  0
  154.0400  137.8342  158.5826 H   0  0  0  0  0  0  0  0  0  0  0  0
  151.3470  140.1387  158.3030 H   0  0  0  0  0  0  0  0  0  0  0  0
  150.4169  142.4103  158.0483 H   0  0  0  0  0  0  0  0  0  0  0  0
  153.6539  144.0019  160.4215 H   0  0  0  0  0  0  0  0  0  0  0  0
  154.5846  141.7281  160.6765 H   0  0  0  0  0  0  0  0  0  0  0  0
  154.0003  135.7979  163.9311 H   0  0  0  0  0  0  0  0  0  0  0  0
  152.5466  136.7909  164.0635 H   0  0  0  0  0  0  0  0  0  0  0  0
  153.6694  136.6864  165.4112 H   0  0  0  0  0  0  0  0  0  0  0  0
  1  2  1  0  0  0  0
  1 23  1  0  0  0  0
  1 24  1  0  0  0  0
  1 25  1  0  0  0  0
  2 21  2  0  0  0  0
  2  3  1  0  0  0  0
  3  4  2  0  0  0  0
  4  5  1  0  0  0  0
  4 26  1  0  0  0  0
  5  6  1  0  0  0  0
  5 19  1  0  0  0  0
  6  7  1  0  0  0  0
  6 27  1  0  0  0  0
  6 28  1  0  0  0  0
  7  8  1  0  0  0  0
  7  9  1  0  0  0  0
  7 29  1  0  0  0  0
  8 30  1  0  0  0  0
  9 18  1  0  0  0  0
  9 10  2  0  0  0  0
 10 11  1  0  0  0  0
 10 31  1  0  0  0  0
 11 12  2  0  0  0  0
 11 32  1  0  0  0  0
 12 13  1  0  0  0  0
 12 17  1  0  0  0  0
 13 14  1  0  0  0  0
 13 15  1  0  0  0  0
 13 16  1  0  0  0  0
 17 18  2  0  0  0  0
 17 33  1  0  0  0  0
 18 34  1  0  0  0  0
 19 20  2  0  0  0  0
 19 21  1  0  0  0  0
 21 22  1  0  0  0  0
 22 35  1  0  0  0  0
 22 36  1  0  0  0  0
 22 37  1  0  0  0  0
M  END
> <s_m_source_file>
AV-unprocessed.smi

> <i_m_source_file_index>
2352

> <i_lp_mmshare_version>
43012

> <i_f3d_flags>
0

> <s_epik_input>
W0NIM11jMW5bY0hdbihjKD1PKWMxW0NIM10pW0NIMl1bQ0BIXShbT0hdKWMyW2NIXVtjSF1jKEMoRikoRilGKVtjSF1bY0hdMg==

> <s_epik_cmdline>
J2VwaWtfcHl0aG9uJywgJy1waCcsICc3LjAnLCAnLXRuJywgJzgnLCAnLW1hJywgJzIwMCcsICctbWV0YWxfYmluZGluZycsICctaW1hZScsICc8aW5maWxlLm1hZT4nLCAnLW9tYWUnLCAnPG91dGZpbGUubWFlPic=

> <r_lp_tautomer_probability>
1

> <r_epik_Ionization_Penalty>
5.07001e-05

> <r_epik_Ionization_Penalty_Charging>
7.56727e-08

> <r_epik_Ionization_Penalty_Neutral>
5.06244e-05

> <r_epik_State_Penalty>
-0

> <r_epik_Charging_Adjusted_Penalty>
7.56727e-08

> <i_epik_Tot_Q>
0

> <i_epik_Tot_abs_Q>
0

> <r_epik_Metal_State_Penalty>
-0

> <b_epik_Metal_Only>
0

> <s_lp_Force_Field>
OPLS_2005

> <r_lp_Energy>
21.4473

> <b_lp_Chiralities_Consistent>
1

> <s_lp_Variant>
AV-unprocessed.smi:2352-1

> <Gold.Version>
5.8.1

> <Gold.Id.Protein>
6NUR|6NUR_protein|mol2

> <Gold.PLP.Fitness>
50.0537

> <Gold.PLP.PLP>
-49.1584

> <Gold.PLP.part.hbond>
-1.0000

> <Gold.PLP.part.metal>
0.0000

> <Gold.PLP.part.buried>
-6.4766

> <Gold.PLP.part.nonpolar>
-41.3651

> <Gold.PLP.part.repulsive>
0.0000

> <Gold.PLP.ligand.clash>
1.2989

> <Gold.PLP.ligand.torsion>
0.9135

> <Gold.PLP.Chemscore.Hbond>
1.0000

> <Gold.PLP.Chemscore.CHOScore>
0.0000

> <Gold.PLP.Chemscore.Metal>
0.0000

> <Gold.Chemscore.Hbonds>
donor molecule, donor type, donor heavy atom, donor atom, acceptor molecule, acceptor atom, score
      P1  H  7997  8008       L1     8  0.78

> <Gold.PLP.Chemscore.Internal.Correction>
1.0211

> <Gold.Rescore>
     Score         DG    S(hbond)    S(metal)    S(lipo)     H(rot)  DE(clash)    DE(int)     intcor
     12.69     -16.67       0.99        0.00     114.17       2.13       1.49       2.49       ----

> <Gold.Chemscore.Fitness>
12.6854

> <Gold.Chemscore.DG>
-16.6656

> <Gold.Chemscore.ZeroCoef>
-5.4800

> <Gold.Chemscore.Hbond>
0.9859

> <Gold.Chemscore.Metal>
0.0000

> <Gold.Chemscore.Lipo>
114.1661

> <Gold.Chemscore.Internal_Hbond>
0.0000

> <Gold.Chemscore.DEClash>
1.4935

> <Gold.Chemscore.DEInternal>
2.4867

> <Gold.Chemscore.Rot>
2.1347

> <Gold.Chemscore.Internal.Correction>
   9.000000E+99

> <Gold.Chemscore.Hbonds>
donor molecule, donor type, donor heavy atom, donor atom, acceptor molecule, acceptor atom, score
      P1  H  7997  8008       L1     8  0.32

> <Gold.Chemscore.Hbond.Weighted>
-3.2930

> <Gold.Chemscore.Metal.Weighted>
-0.0000

> <Gold.Chemscore.Lipo.Weighted>
-13.3574

> <Gold.Chemscore.Internal_Hbond.Weighted>
0.0000

> <Gold.Chemscore.DEClash.Weighted>
1.4935

> <Gold.Chemscore.DEInternal.Weighted>
2.4867

> <Gold.Chemscore.Rot.Weighted>
5.4649

> <Gold.Chemscore.Internal.Correction.Weighted>
   9.000000E+99

> <Gold.Protein.RotatedTorsions>
[ 6907 6896 6895 6894 ] final -111.65 input  -60.11 | X-H torsion
[ 7974 7965 7964 7962 ] final   41.87 input  175.53 | X-H torsion
[ 8008 7997 7996 7995 ] final -108.88 input   59.86 | X-H torsion
[ 10167 10162 10161 10158 ] final   25.08 input  -65.29 | X-H torsion
[ 10718 10713 10712 10709 ] final  -57.78 input   66.30 | X-H torsion
[ 10763 10752 10751 10750 ] final  -81.26 input  -60.55 | X-H torsion
[ 11005 11000 10999 10996 ] final   41.18 input  -57.11 | X-H torsion

> <Gold.Protein.ActiveResidues>
 VAL166  LYS551  ARG553  GLY616  TRP617  ASP618  TYR619  PRO620  LYS621  CYS622 
 ASP623  PHE694  ASN695  SER759  ASP760  ASP761  ALA762  ILE779  LEU786  VAL792 
 PHE793  MET794  SER795  GLU796  ALA797  LYS798  CYS799  TRP800  GLU811  SER814 

> <Gold.Protein.RotatedAtoms>
  150.7705  133.9204  159.3396 H   0  0  0  0  0  0  0  0  0  0  0  0  # atno 6907 bound_to 6896
  151.7091  135.0914  160.0274 H   0  0  0  0  0  0  0  0  0  0  0  0  # atno 6908 bound_to 6896
  152.3720  133.6393  159.6130 H   0  0  0  0  0  0  0  0  0  0  0  0  # atno 6909 bound_to 6896
  146.0787  139.5365  142.9551 H   0  0  0  0  0  0  0  0  0  0  0  0  # atno 7974 bound_to 7965
  154.9509  140.0401  157.2143 H   0  0  0  0  0  0  0  0  0  0  0  0  # atno 8008 bound_to 7997
  154.7979  140.2847  155.5921 H   0  0  0  0  0  0  0  0  0  0  0  0  # atno 8009 bound_to 7997
  156.2958  140.2561  156.2841 H   0  0  0  0  0  0  0  0  0  0  0  0  # atno 8010 bound_to 7997
  140.5135  144.0120  150.6383 H   0  0  0  0  0  0  0  0  0  0  0  0  # atno 10167 bound_to 10162
  156.1184  130.4168  150.0488 H   0  0  0  0  0  0  0  0  0  0  0  0  # atno 10718 bound_to 10713
  154.5613  135.5632  153.7010 H   0  0  0  0  0  0  0  0  0  0  0  0  # atno 10763 bound_to 10752
  153.0019  135.6274  154.2240 H   0  0  0  0  0  0  0  0  0  0  0  0  # atno 10764 bound_to 10752
  154.2178  135.2871  155.2915 H   0  0  0  0  0  0  0  0  0  0  0  0  # atno 10765 bound_to 10752
  140.1859  134.4046  155.8173 H   0  0  0  0  0  0  0  0  0  0  0  0  # atno 11005 bound_to 11000
  145.6258  141.0314  143.1890 LP  0  0  0  0  0  0  0  0  0  0  0  0  # atno 17320 bound_to 7965
  144.7279  139.7818  143.7358 LP  0  0  0  0  0  0  0  0  0  0  0  0  # atno 17321 bound_to 7965
  140.3450  143.2997  152.0548 LP  0  0  0  0  0  0  0  0  0  0  0  0  # atno 17342 bound_to 10162
  139.4903  144.6415  151.6866 LP  0  0  0  0  0  0  0  0  0  0  0  0  # atno 17343 bound_to 10162
  156.8432  130.9433  151.3630 LP  0  0  0  0  0  0  0  0  0  0  0  0  # atno 17370 bound_to 10713
  157.6368  130.8773  149.9373 LP  0  0  0  0  0  0  0  0  0  0  0  0  # atno 17371 bound_to 10713
  141.2225  133.7023  156.8012 LP  0  0  0  0  0  0  0  0  0  0  0  0  # atno 17394 bound_to 11000
  140.2214  134.8754  157.3381 LP  0  0  0  0  0  0  0  0  0  0  0  0  # atno 17395 bound_to 11000

$$$$
