AV-unprocessed.smi:235|AV-procd|sdf|1804|dock7
  -GOLD-   2262020383D 1   1.00000     0.00000
 Structure written by MMmdl.
 54 58  0  0  0  0  0  0  0  0  1 V2000
  152.6344  140.0010  157.8612 O   0  0  0  0  0  0  0  0  0  0  0  0
  151.6865  140.7805  157.7524 C   0  0  0  0  0  0  0  0  0  0  0  0
  151.6391  141.9759  158.3578 N   0  0  0  0  0  0  0  0  0  0  0  0
  152.6508  142.5154  159.2069 C   0  0  0  0  0  0  0  0  0  0  0  0
  152.2922  142.7662  160.6556 C   0  0  0  0  0  0  0  0  0  0  0  0
  152.4600  143.9280  159.7155 C   0  0  0  0  0  0  0  0  0  0  0  0
  150.4735  140.4143  156.8823 C   0  0  1  0  0  0  0  0  0  0  0  0
  150.3703  141.3235  155.6465 C   0  0  0  0  0  0  0  0  0  0  0  0
  149.6697  140.4502  154.6104 C   0  0  0  0  0  0  0  0  0  0  0  0
  150.2131  139.0531  154.9044 C   0  0  0  0  0  0  0  0  0  0  0  0
  150.5845  139.0679  156.3138 N   0  0  0  0  0  0  0  0  0  0  0  0
  150.4363  137.9421  157.0626 C   0  0  0  0  0  0  0  0  0  0  0  0
  150.1249  138.0547  158.3817 N   0  0  0  0  0  0  0  0  0  0  0  0
  149.9751  136.9656  159.1400 C   0  0  0  0  0  0  0  0  0  0  0  0
  150.0928  135.6841  158.7906 N   0  0  0  0  0  0  0  0  0  0  0  0
  150.4119  135.5607  157.4707 C   0  0  0  0  0  0  0  0  0  0  0  0
  150.6013  136.6251  156.5432 C   0  0  0  0  0  0  0  0  0  0  0  0
  150.9319  136.1061  155.2960 N   0  0  0  0  0  0  0  0  0  0  0  0
  150.9328  134.8137  155.4750 C   0  0  0  0  0  0  0  0  0  0  0  0
  150.6236  134.3988  156.7501 N   0  0  0  0  0  0  0  0  0  0  0  0
  150.5519  133.0270  157.2274 C   0  0  0  0  0  0  0  0  0  0  0  0
  151.9187  132.3081  157.2654 C   0  0  1  0  0  0  0  0  0  0  0  0
  152.5413  132.5591  158.5101 O   0  0  0  0  0  0  0  0  0  0  0  0
  151.8287  130.7819  157.0634 C   0  0  2  0  0  0  0  0  0  0  0  0
  153.1679  130.0975  156.7824 C   0  0  0  0  0  0  0  0  0  0  0  0
  152.7839  128.8624  155.9806 C   0  0  0  0  0  0  0  0  0  0  0  0
  151.3221  129.1049  155.5963 C   0  0  0  0  0  0  0  0  0  0  0  0
  151.0905  130.4740  155.8911 O   0  0  0  0  0  0  0  0  0  0  0  0
  150.8185  142.5455  158.2107 H   0  0  0  0  0  0  0  0  0  0  0  0
  153.6796  142.2138  159.0141 H   0  0  0  0  0  0  0  0  0  0  0  0
  151.2815  142.5238  160.9789 H   0  0  0  0  0  0  0  0  0  0  0  0
  153.0698  142.6053  161.3994 H   0  0  0  0  0  0  0  0  0  0  0  0
  153.3498  144.5437  159.8310 H   0  0  0  0  0  0  0  0  0  0  0  0
  151.5611  144.4617  159.4126 H   0  0  0  0  0  0  0  0  0  0  0  0
  149.5486  140.4882  157.4581 H   0  0  0  0  0  0  0  0  0  0  0  0
  149.8234  142.2445  155.8506 H   0  0  0  0  0  0  0  0  0  0  0  0
  151.3585  141.5998  155.2739 H   0  0  0  0  0  0  0  0  0  0  0  0
  148.5929  140.4711  154.7836 H   0  0  0  0  0  0  0  0  0  0  0  0
  149.8527  140.7711  153.5846 H   0  0  0  0  0  0  0  0  0  0  0  0
  149.4699  138.2894  154.6695 H   0  0  0  0  0  0  0  0  0  0  0  0
  151.1061  138.8554  154.3103 H   0  0  0  0  0  0  0  0  0  0  0  0
  149.7268  137.1474  160.1752 H   0  0  0  0  0  0  0  0  0  0  0  0
  151.1547  134.1220  154.6752 H   0  0  0  0  0  0  0  0  0  0  0  0
  150.1108  133.0382  158.2248 H   0  0  0  0  0  0  0  0  0  0  0  0
  149.8538  132.4760  156.5958 H   0  0  0  0  0  0  0  0  0  0  0  0
  152.5511  132.7371  156.4872 H   0  0  0  0  0  0  0  0  0  0  0  0
  153.4706  132.4160  158.4158 H   0  0  0  0  0  0  0  0  0  0  0  0
  151.3474  130.3030  157.9184 H   0  0  0  0  0  0  0  0  0  0  0  0
  153.8037  130.7418  156.1737 H   0  0  0  0  0  0  0  0  0  0  0  0
  153.7126  129.8567  157.6960 H   0  0  0  0  0  0  0  0  0  0  0  0
  153.4179  128.7651  155.0984 H   0  0  0  0  0  0  0  0  0  0  0  0
  152.8841  127.9499  156.5694 H   0  0  0  0  0  0  0  0  0  0  0  0
  151.1211  128.8870  154.5472 H   0  0  0  0  0  0  0  0  0  0  0  0
  150.6580  128.4904  156.2057 H   0  0  0  0  0  0  0  0  0  0  0  0
  1  2  2  0  0  0  0
  2  3  1  0  0  0  0
  2  7  1  0  0  0  0
  3  4  1  0  0  0  0
  3 29  1  0  0  0  0
  4  6  1  0  0  0  0
  4  5  1  0  0  0  0
  4 30  1  0  0  0  0
  5  6  1  0  0  0  0
  5 31  1  0  0  0  0
  5 32  1  0  0  0  0
  6 33  1  0  0  0  0
  6 34  1  0  0  0  0
  7 11  1  0  0  0  0
  7  8  1  0  0  0  0
  7 35  1  0  0  0  0
  8  9  1  0  0  0  0
  8 36  1  0  0  0  0
  8 37  1  0  0  0  0
  9 10  1  0  0  0  0
  9 38  1  0  0  0  0
  9 39  1  0  0  0  0
 10 11  1  0  0  0  0
 10 40  1  0  0  0  0
 10 41  1  0  0  0  0
 11 12  1  0  0  0  0
 12 17  1  0  0  0  0
 12 13  2  0  0  0  0
 13 14  1  0  0  0  0
 14 15  2  0  0  0  0
 14 42  1  0  0  0  0
 15 16  1  0  0  0  0
 16 20  1  0  0  0  0
 16 17  2  0  0  0  0
 17 18  1  0  0  0  0
 18 19  2  0  0  0  0
 19 20  1  0  0  0  0
 19 43  1  0  0  0  0
 20 21  1  0  0  0  0
 21 22  1  0  0  0  0
 21 44  1  0  0  0  0
 21 45  1  0  0  0  0
 22 23  1  0  0  0  0
 22 24  1  0  0  0  0
 22 46  1  0  0  0  0
 23 47  1  0  0  0  0
 24 28  1  0  0  0  0
 24 25  1  0  0  0  0
 24 48  1  0  0  0  0
 25 26  1  0  0  0  0
 25 49  1  0  0  0  0
 25 50  1  0  0  0  0
 26 27  1  0  0  0  0
 26 51  1  0  0  0  0
 26 52  1  0  0  0  0
 27 28  1  0  0  0  0
 27 53  1  0  0  0  0
 27 54  1  0  0  0  0
M  END
> <s_m_source_file>
AV-unprocessed.smi

> <i_m_source_file_index>
235

> <i_lp_mmshare_version>
43012

> <i_f3d_flags>
0

> <s_epik_input>
W0NIMl0xW0NIMl1bQ0hdMVtOSF1DKD1PKVtDQEBIXTJbQ0gyXVtDSDJdW0NIMl1OMmMobltjSF1uMyljKGMzNCluW2NIXW40W0NIMl1bQ0BIXShbT0hdKVtDQEBIXTVbQ0gyXVtDSDJdW0NIMl1PNQ==

> <s_epik_cmdline>
J2VwaWtfcHl0aG9uJywgJy1waCcsICc3LjAnLCAnLXRuJywgJzgnLCAnLW1hJywgJzIwMCcsICctbWV0YWxfYmluZGluZycsICctaW1hZScsICc8aW5maWxlLm1hZT4nLCAnLW9tYWUnLCAnPG91dGZpbGUubWFlPic=

> <r_lp_tautomer_probability>
1

> <r_epik_Ionization_Penalty>
0.000526714

> <r_epik_Ionization_Penalty_Charging>
0

> <r_epik_Ionization_Penalty_Neutral>
0.000526714

> <r_epik_State_Penalty>
0.000272704

> <r_epik_Charging_Adjusted_Penalty>
0.000272704

> <i_epik_Tot_Q>
0

> <i_epik_Tot_abs_Q>
0

> <r_epik_Metal_State_Penalty>
-0

> <b_epik_Metal_Only>
0

> <s_lp_Force_Field>
OPLS_2005

> <r_lp_Energy>
57.0845

> <b_lp_Chiralities_Consistent>
1

> <s_lp_Variant>
AV-unprocessed.smi:235-4

> <Gold.Version>
5.8.1

> <Gold.Id.Protein>
6NUR|6NUR_protein|mol2

> <Gold.PLP.Fitness>
54.0057

> <Gold.PLP.PLP>
-46.2419

> <Gold.PLP.part.hbond>
-3.0000

> <Gold.PLP.part.metal>
0.0000

> <Gold.PLP.part.buried>
-5.8217

> <Gold.PLP.part.nonpolar>
-38.0314

> <Gold.PLP.part.repulsive>
0.2688

> <Gold.PLP.ligand.clash>
0.0000

> <Gold.PLP.ligand.torsion>
0.8046

> <Gold.PLP.Chemscore.Hbond>
2.9920

> <Gold.PLP.Chemscore.CHOScore>
0.0218

> <Gold.PLP.Chemscore.Metal>
0.0000

> <Gold.Chemscore.Hbonds>
donor molecule, donor type, donor heavy atom, donor atom, acceptor molecule, acceptor atom, score
      P1  H  6896  6908       L1    23  0.41
      P1  H  6896  6909       L1    15  0.80
      P1  H  7997  8008       L1     1  0.80

> <Gold.PLP.Chemscore.Internal.Correction>
0.3315

> <Gold.Rescore>
     Score         DG    S(hbond)    S(metal)    S(lipo)     H(rot)  DE(clash)    DE(int)     intcor
     17.74     -19.41       2.76        0.00      98.76       2.68       0.03       1.63       ----

> <Gold.Chemscore.Fitness>
17.7439

> <Gold.Chemscore.DG>
-19.4076

> <Gold.Chemscore.ZeroCoef>
-5.4800

> <Gold.Chemscore.Hbond>
2.7614

> <Gold.Chemscore.Metal>
0.0000

> <Gold.Chemscore.Lipo>
98.7615

> <Gold.Chemscore.Internal_Hbond>
0.0000

> <Gold.Chemscore.DEClash>
0.0291

> <Gold.Chemscore.DEInternal>
1.6345

> <Gold.Chemscore.Rot>
2.6760

> <Gold.Chemscore.Internal.Correction>
   9.000000E+99

> <Gold.Chemscore.Hbonds>
donor molecule, donor type, donor heavy atom, donor atom, acceptor molecule, acceptor atom, score
      P1  H  6896  6908       L1    23  0.36
      P1  H  6896  6909       L1    15  0.56
      P1  H  7997  8008       L1     1  0.75

> <Gold.Chemscore.Hbond.Weighted>
-9.2231

> <Gold.Chemscore.Metal.Weighted>
-0.0000

> <Gold.Chemscore.Lipo.Weighted>
-11.5551

> <Gold.Chemscore.Internal_Hbond.Weighted>
0.0000

> <Gold.Chemscore.DEClash.Weighted>
0.0291

> <Gold.Chemscore.DEInternal.Weighted>
1.6345

> <Gold.Chemscore.Rot.Weighted>
6.8506

> <Gold.Chemscore.Internal.Correction.Weighted>
   9.000000E+99

> <Gold.Protein.RotatedTorsions>
[ 6907 6896 6895 6894 ] final   50.75 input  -60.11 | X-H torsion
[ 7974 7965 7964 7962 ] final   37.56 input  175.53 | X-H torsion
[ 8008 7997 7996 7995 ] final  -61.50 input   59.86 | X-H torsion
[ 10167 10162 10161 10158 ] final   -8.11 input  -65.29 | X-H torsion
[ 10718 10713 10712 10709 ] final  134.24 input   66.30 | X-H torsion
[ 10763 10752 10751 10750 ] final   82.47 input  -60.55 | X-H torsion
[ 11005 11000 10999 10996 ] final  168.29 input  -57.11 | X-H torsion

> <Gold.Protein.ActiveResidues>
 VAL166  LYS551  ARG553  GLY616  TRP617  ASP618  TYR619  PRO620  LYS621  CYS622 
 ASP623  PHE694  ASN695  SER759  ASP760  ASP761  ALA762  ILE779  LEU786  VAL792 
 PHE793  MET794  SER795  GLU796  ALA797  LYS798  CYS799  TRP800  GLU811  SER814 

> <Gold.Protein.RotatedAtoms>
  152.3052  134.7563  160.0348 H   0  0  0  0  0  0  0  0  0  0  0  0  # atno 6907 bound_to 6896
  151.8063  133.3371  159.3550 H   0  0  0  0  0  0  0  0  0  0  0  0  # atno 6908 bound_to 6896
  150.7293  134.5636  159.5899 H   0  0  0  0  0  0  0  0  0  0  0  0  # atno 6909 bound_to 6896
  146.1128  139.5879  142.9341 H   0  0  0  0  0  0  0  0  0  0  0  0  # atno 7974 bound_to 7965
  154.4451  140.1016  156.6441 H   0  0  0  0  0  0  0  0  0  0  0  0  # atno 8008 bound_to 7997
  155.5469  140.3485  155.4441 H   0  0  0  0  0  0  0  0  0  0  0  0  # atno 8009 bound_to 7997
  156.0557  140.1314  156.9989 H   0  0  0  0  0  0  0  0  0  0  0  0  # atno 8010 bound_to 7997
  140.7049  143.6005  150.8802 H   0  0  0  0  0  0  0  0  0  0  0  0  # atno 10167 bound_to 10162
  157.4693  131.1079  150.9823 H   0  0  0  0  0  0  0  0  0  0  0  0  # atno 10718 bound_to 10713
  153.1206  135.4727  154.9189 H   0  0  0  0  0  0  0  0  0  0  0  0  # atno 10763 bound_to 10752
  154.7571  135.3121  154.8451 H   0  0  0  0  0  0  0  0  0  0  0  0  # atno 10764 bound_to 10752
  153.9016  135.6874  153.4808 H   0  0  0  0  0  0  0  0  0  0  0  0  # atno 10765 bound_to 10752
  140.2857  134.7714  157.3796 H   0  0  0  0  0  0  0  0  0  0  0  0  # atno 11005 bound_to 11000
  145.5628  141.0402  143.2217 LP  0  0  0  0  0  0  0  0  0  0  0  0  # atno 17320 bound_to 7965
  144.7526  139.7154  143.7267 LP  0  0  0  0  0  0  0  0  0  0  0  0  # atno 17321 bound_to 7965
  139.9730  143.6036  152.2967 LP  0  0  0  0  0  0  0  0  0  0  0  0  # atno 17342 bound_to 10162
  139.6629  144.7662  151.1928 LP  0  0  0  0  0  0  0  0  0  0  0  0  # atno 17343 bound_to 10162
  157.0594  130.5819  149.5383 LP  0  0  0  0  0  0  0  0  0  0  0  0  # atno 17370 bound_to 10713
  156.0065  130.5152  150.7848 LP  0  0  0  0  0  0  0  0  0  0  0  0  # atno 17371 bound_to 10713
  140.1242  134.5179  155.8158 LP  0  0  0  0  0  0  0  0  0  0  0  0  # atno 17394 bound_to 11000
  141.2155  133.6767  156.6922 LP  0  0  0  0  0  0  0  0  0  0  0  0  # atno 17395 bound_to 11000

$$$$
