AV-unprocessed.smi:750|AV-procd|sdf|3588|dock10
  -GOLD-   22720 0583D 1   1.00000     0.00000
 Structure written by MMmdl.
 23 24  0  0  0  0  0  0  0  0  1 V2000
  149.5718  140.4070  156.6271 C   0  0  0  0  0  0  0  0  0  0  0  0
  150.7998  140.2119  157.5390 C   0  0  1  0  0  0  0  0  0  0  0  0
  151.3399  141.5419  158.0877 C   0  0  0  0  0  0  0  0  0  0  0  0
  152.4120  141.5568  159.0106 C   0  0  0  0  0  0  0  0  0  0  0  0
  152.8900  142.7879  159.4974 C   0  0  0  0  0  0  0  0  0  0  0  0
  152.2782  143.9706  159.0422 C   0  0  0  0  0  0  0  0  0  0  0  0
  151.2560  143.9808  158.1621 N   0  0  0  0  0  0  0  0  0  0  0  0
  150.8034  142.7949  157.7011 C   0  0  0  0  0  0  0  0  0  0  0  0
  150.4973  139.2264  158.5700 N   0  0  0  0  0  0  0  0  0  0  0  0
  151.2906  138.1480  158.5153 C   0  0  0  0  0  0  0  0  0  0  0  0
  151.2569  137.1857  159.2785 O   0  0  0  0  0  0  0  0  0  0  0  0
  152.1179  138.3014  157.4781 N   0  0  0  0  0  0  0  0  0  0  0  0
  151.9112  139.4446  156.8270 C   0  0  0  0  0  0  0  0  0  0  0  0
  152.5020  139.8297  155.8191 O   0  0  0  0  0  0  0  0  0  0  0  0
  149.7976  141.0371  155.7665 H   0  0  0  0  0  0  0  0  0  0  0  0
  148.7522  140.8764  157.1720 H   0  0  0  0  0  0  0  0  0  0  0  0
  149.2042  139.4551  156.2407 H   0  0  0  0  0  0  0  0  0  0  0  0
  152.8640  140.6368  159.3497 H   0  0  0  0  0  0  0  0  0  0  0  0
  153.7055  142.8238  160.2044 H   0  0  0  0  0  0  0  0  0  0  0  0
  152.6180  144.9333  159.3946 H   0  0  0  0  0  0  0  0  0  0  0  0
  149.9850  142.8660  157.0006 H   0  0  0  0  0  0  0  0  0  0  0  0
  149.7737  139.3635  159.2607 H   0  0  0  0  0  0  0  0  0  0  0  0
  152.8110  137.6191  157.2074 H   0  0  0  0  0  0  0  0  0  0  0  0
  1  2  1  0  0  0  0
  1 15  1  0  0  0  0
  1 16  1  0  0  0  0
  1 17  1  0  0  0  0
  2 13  1  0  0  0  0
  2  3  1  0  0  0  0
  2  9  1  0  0  0  0
  3  8  1  0  0  0  0
  3  4  2  0  0  0  0
  4  5  1  0  0  0  0
  4 18  1  0  0  0  0
  5  6  2  0  0  0  0
  5 19  1  0  0  0  0
  6  7  1  0  0  0  0
  6 20  1  0  0  0  0
  7  8  2  0  0  0  0
  8 21  1  0  0  0  0
  9 10  1  0  0  0  0
  9 22  1  0  0  0  0
 10 11  2  0  0  0  0
 10 12  1  0  0  0  0
 12 13  1  0  0  0  0
 12 23  1  0  0  0  0
 13 14  2  0  0  0  0
M  END
> <s_m_source_file>
AV-unprocessed.smi

> <i_m_source_file_index>
750

> <i_lp_mmshare_version>
43012

> <i_f3d_flags>
0

> <s_epik_input>
Tz1DMVtOSF1DKD1PKVtOSF1bQ0BAXTEoW0NIM10pYzJbY0hdW2NIXVtjSF1uW2NIXTI=

> <s_epik_cmdline>
J2VwaWtfcHl0aG9uJywgJy1waCcsICc3LjAnLCAnLXRuJywgJzgnLCAnLW1hJywgJzIwMCcsICctbWV0YWxfYmluZGluZycsICctaW1hZScsICc8aW5maWxlLm1hZT4nLCAnLW9tYWUnLCAnPG91dGZpbGUubWFlPic=

> <r_lp_tautomer_probability>
1

> <r_epik_Ionization_Penalty>
0.0296909

> <r_epik_Ionization_Penalty_Charging>
0

> <r_epik_Ionization_Penalty_Neutral>
0.0296909

> <r_epik_State_Penalty>
0.022996

> <r_epik_Charging_Adjusted_Penalty>
0.022996

> <i_epik_Tot_Q>
0

> <i_epik_Tot_abs_Q>
0

> <r_epik_Metal_State_Penalty>
0.427807

> <b_epik_Metal_Only>
0

> <s_lp_Force_Field>
OPLS_2005

> <r_lp_Energy>
18.5111

> <b_lp_Chiralities_Consistent>
1

> <s_lp_Variant>
AV-unprocessed.smi:750-1

> <Gold.Version>
5.8.1

> <Gold.Id.Protein>
6NUR|6NUR_protein|mol2

> <Gold.PLP.Fitness>
30.9336

> <Gold.PLP.PLP>
-22.8521

> <Gold.PLP.part.hbond>
-1.7137

> <Gold.PLP.part.metal>
0.0000

> <Gold.PLP.part.buried>
-4.1666

> <Gold.PLP.part.nonpolar>
-17.5415

> <Gold.PLP.part.repulsive>
0.3811

> <Gold.PLP.ligand.clash>
0.0000

> <Gold.PLP.ligand.torsion>
0.1100

> <Gold.PLP.Chemscore.Hbond>
1.7313

> <Gold.PLP.Chemscore.CHOScore>
0.9966

> <Gold.PLP.Chemscore.Metal>
0.0000

> <Gold.Chemscore.Hbonds>
donor molecule, donor type, donor heavy atom, donor atom, acceptor molecule, acceptor atom, score
      P1  H  6896  6907       L1    11  0.75
      P1  H  7997  8009       L1    14  1.00
      L1  C     8    21       P1  8028  0.99

> <Gold.PLP.Chemscore.Internal.Correction>
0.1182

> <Gold.Rescore>
     Score         DG    S(hbond)    S(metal)    S(lipo)     H(rot)  DE(clash)    DE(int)     intcor
     16.14     -16.20       1.98        0.00      57.15       1.00       0.00       0.06       ----

> <Gold.Chemscore.Fitness>
16.1423

> <Gold.Chemscore.DG>
-16.2035

> <Gold.Chemscore.ZeroCoef>
-5.4800

> <Gold.Chemscore.Hbond>
1.9752

> <Gold.Chemscore.Metal>
0.0000

> <Gold.Chemscore.Lipo>
57.1488

> <Gold.Chemscore.Internal_Hbond>
0.0000

> <Gold.Chemscore.DEClash>
0.0015

> <Gold.Chemscore.DEInternal>
0.0597

> <Gold.Chemscore.Rot>
1.0000

> <Gold.Chemscore.Internal.Correction>
   9.000000E+99

> <Gold.Chemscore.Hbonds>
donor molecule, donor type, donor heavy atom, donor atom, acceptor molecule, acceptor atom, score
      P1  H  6896  6907       L1    11  0.73
      P1  H  7997  8009       L1    14  0.78

> <Gold.Chemscore.Hbond.Weighted>
-6.5971

> <Gold.Chemscore.Metal.Weighted>
-0.0000

> <Gold.Chemscore.Lipo.Weighted>
-6.6864

> <Gold.Chemscore.Internal_Hbond.Weighted>
0.0000

> <Gold.Chemscore.DEClash.Weighted>
0.0015

> <Gold.Chemscore.DEInternal.Weighted>
0.0597

> <Gold.Chemscore.Rot.Weighted>
2.5600

> <Gold.Chemscore.Internal.Correction.Weighted>
   9.000000E+99

> <Gold.Protein.RotatedTorsions>
[ 6907 6896 6895 6894 ] final  -15.66 input  -60.11 | X-H torsion
[ 7974 7965 7964 7962 ] final  111.84 input  175.53 | X-H torsion
[ 8008 7997 7996 7995 ] final -153.63 input   59.86 | X-H torsion
[ 10167 10162 10161 10158 ] final   -0.28 input  -65.29 | X-H torsion
[ 10718 10713 10712 10709 ] final   63.46 input   66.30 | X-H torsion
[ 10763 10752 10751 10750 ] final  -69.68 input  -60.55 | X-H torsion
[ 11005 11000 10999 10996 ] final   70.14 input  -57.11 | X-H torsion

> <Gold.Protein.ActiveResidues>
 VAL166  LYS551  ARG553  GLY616  TRP617  ASP618  TYR619  PRO620  LYS621  CYS622 
 ASP623  PHE694  ASN695  SER759  ASP760  ASP761  ALA762  ILE779  LEU786  VAL792 
 PHE793  MET794  SER795  GLU796  ALA797  LYS798  CYS799  TRP800  GLU811  SER814 

> <Gold.Protein.RotatedAtoms>
  151.3205  135.0817  159.9303 H   0  0  0  0  0  0  0  0  0  0  0  0  # atno 6907 bound_to 6896
  152.5258  133.9644  159.7742 H   0  0  0  0  0  0  0  0  0  0  0  0  # atno 6908 bound_to 6896
  150.9964  133.6047  159.2731 H   0  0  0  0  0  0  0  0  0  0  0  0  # atno 6909 bound_to 6896
  145.2371  139.2794  143.4137 H   0  0  0  0  0  0  0  0  0  0  0  0  # atno 7974 bound_to 7965
  155.6738  140.0736  157.2510 H   0  0  0  0  0  0  0  0  0  0  0  0  # atno 8008 bound_to 7997
  154.4118  140.1694  156.1959 H   0  0  0  0  0  0  0  0  0  0  0  0  # atno 8009 bound_to 7997
  155.9594  140.3371  155.6480 H   0  0  0  0  0  0  0  0  0  0  0  0  # atno 8010 bound_to 7997
  140.6760  143.6914  150.8025 H   0  0  0  0  0  0  0  0  0  0  0  0  # atno 10167 bound_to 10162
  157.5973  130.9106  149.9719 H   0  0  0  0  0  0  0  0  0  0  0  0  # atno 10718 bound_to 10713
  154.4069  135.6018  153.5929 H   0  0  0  0  0  0  0  0  0  0  0  0  # atno 10763 bound_to 10752
  152.9789  135.5920  154.4117 H   0  0  0  0  0  0  0  0  0  0  0  0  # atno 10764 bound_to 10752
  154.3924  135.2842  155.2125 H   0  0  0  0  0  0  0  0  0  0  0  0  # atno 10765 bound_to 10752
  139.9614  134.7054  156.0637 H   0  0  0  0  0  0  0  0  0  0  0  0  # atno 11005 bound_to 11000
  146.3338  140.2723  142.8606 LP  0  0  0  0  0  0  0  0  0  0  0  0  # atno 17320 bound_to 7965
  144.9623  140.8287  143.5506 LP  0  0  0  0  0  0  0  0  0  0  0  0  # atno 17321 bound_to 7965
  140.0607  143.5158  152.2629 LP  0  0  0  0  0  0  0  0  0  0  0  0  # atno 17342 bound_to 10162
  139.6053  144.7594  151.3076 LP  0  0  0  0  0  0  0  0  0  0  0  0  # atno 17343 bound_to 10162
  156.1038  130.3654  150.0170 LP  0  0  0  0  0  0  0  0  0  0  0  0  # atno 17370 bound_to 10713
  156.8281  130.9382  151.3638 LP  0  0  0  0  0  0  0  0  0  0  0  0  # atno 17371 bound_to 10713
  141.1291  133.6591  156.3417 LP  0  0  0  0  0  0  0  0  0  0  0  0  # atno 17394 bound_to 11000
  140.5491  134.6045  157.5402 LP  0  0  0  0  0  0  0  0  0  0  0  0  # atno 17395 bound_to 11000

$$$$
