AV-unprocessed.smi:43|AV-procd|sdf|393|dock3
  -GOLD-   2262016243D 1   1.00000     0.00000
 Structure written by MMmdl.
 25 26  0  0  0  0  0  0  0  0  2 V2000
  148.8676  137.4016  158.6095 C   0  0  0  0  0  0  0  0  0  0  0  0
  150.3106  137.5463  158.6684 N   0  0  0  0  0  0  0  0  0  0  0  0
  151.0629  136.5580  159.2141 N   0  0  0  0  0  0  0  0  0  0  0  0
  152.3073  136.9221  159.1016 N   0  0  0  0  0  0  0  0  0  0  0  0
  152.4162  138.1514  158.4829 N   0  0  0  0  0  0  0  0  0  0  0  0
  151.1577  138.5011  158.2446 C   0  0  0  0  0  0  0  0  0  0  0  0
  150.7484  139.6905  157.6293 N   0  0  0  0  0  0  0  0  0  0  0  0
  149.4635  140.3747  157.7350 C   0  0  0  0  0  0  0  0  0  0  0  0
  149.7487  141.8606  157.5611 C   0  0  2  0  0  0  0  0  0  0  0  0
  148.6028  142.5935  157.1819 O   0  0  0  0  0  0  0  0  0  0  0  0
  150.8180  141.8464  156.4864 C   0  0  0  0  0  0  0  0  0  0  0  0
  151.5953  140.5546  156.7954 C   0  0  2  0  0  0  0  0  0  0  0  0
  152.0492  139.8400  155.5135 C   0  0  0  0  0  0  0  0  0  0  0  0
  153.2275  139.4237  155.4869 O   0  0  0  0  0  0  0  0  0  0  0  0
  151.2168  139.7242  154.5859 O   0  5  0  0  0  0  0  0  0  0  0  0
  150.1577  142.2717  158.4853 H   0  0  0  0  0  0  0  0  0  0  0  0
  152.4761  140.8075  157.3873 H   0  0  0  0  0  0  0  0  0  0  0  0
  148.5017  137.7088  157.6301 H   0  0  0  0  0  0  0  0  0  0  0  0
  148.4031  138.0120  159.3835 H   0  0  0  0  0  0  0  0  0  0  0  0
  148.5846  136.3603  158.7682 H   0  0  0  0  0  0  0  0  0  0  0  0
  148.8054  140.0060  156.9464 H   0  0  0  0  0  0  0  0  0  0  0  0
  148.9831  140.1918  158.6956 H   0  0  0  0  0  0  0  0  0  0  0  0
  148.8820  143.3500  156.6892 H   0  0  0  0  0  0  0  0  0  0  0  0
  150.3535  141.8034  155.4991 H   0  0  0  0  0  0  0  0  0  0  0  0
  151.4517  142.7332  156.5166 H   0  0  0  0  0  0  0  0  0  0  0  0
  1  2  1  0  0  0  0
  1 18  1  0  0  0  0
  1 19  1  0  0  0  0
  1 20  1  0  0  0  0
  2  6  1  0  0  0  0
  2  3  1  0  0  0  0
  3  4  2  0  0  0  0
  4  5  1  0  0  0  0
  5  6  2  0  0  0  0
  6  7  1  0  0  0  0
  7 12  1  0  0  0  0
  7  8  1  0  0  0  0
  8  9  1  0  0  0  0
  8 21  1  0  0  0  0
  8 22  1  0  0  0  0
  9 16  1  0  0  0  0
  9 10  1  0  0  0  0
  9 11  1  0  0  0  0
 10 23  1  0  0  0  0
 11 12  1  0  0  0  0
 11 24  1  0  0  0  0
 11 25  1  0  0  0  0
 12 17  1  0  0  0  0
 12 13  1  0  0  0  0
 13 14  2  0  0  0  0
 13 15  1  0  0  0  0
M  CHG  1  15  -1
M  END
> <s_m_source_file>
AV-unprocessed.smi

> <i_m_source_file_index>
43

> <i_lp_mmshare_version>
43012

> <i_f3d_flags>
0

> <s_epik_input>
W0NIM11uMW5ubmMxTjJbQ0gyXVtDQEhdKFtPSF0pW0NIMl1bQ0BIXTJDKD1PKVtPSF0=

> <s_epik_cmdline>
J2VwaWtfcHl0aG9uJywgJy1waCcsICc3LjAnLCAnLXRuJywgJzgnLCAnLW1hJywgJzIwMCcsICctbWV0YWxfYmluZGluZycsICctaW1hZScsICc8aW5maWxlLm1hZT4nLCAnLW9tYWUnLCAnPG91dGZpbGUubWFlPic=

> <r_lp_tautomer_probability>
1

> <r_epik_Ionization_Penalty>
0.000193127

> <r_epik_Ionization_Penalty_Charging>
0.000192933

> <r_epik_Ionization_Penalty_Neutral>
1.93728e-07

> <r_epik_State_Penalty>
-0

> <r_epik_Charging_Adjusted_Penalty>
0.000192933

> <i_epik_Tot_Q>
-1

> <i_epik_Tot_abs_Q>
1

> <r_epik_Metal_State_Penalty>
-0

> <b_epik_Metal_Only>
0

> <s_lp_Force_Field>
OPLS_2005

> <r_lp_Energy>
21.0116

> <b_lp_Chiralities_Consistent>
1

> <s_lp_Variant>
AV-unprocessed.smi:43-3

> <Gold.Version>
5.8.1

> <Gold.Id.Protein>
6NUR|6NUR_protein|mol2

> <Gold.PLP.Fitness>
36.4621

> <Gold.PLP.PLP>
-22.6780

> <Gold.PLP.part.hbond>
-4.9045

> <Gold.PLP.part.metal>
0.0000

> <Gold.PLP.part.buried>
-4.4680

> <Gold.PLP.part.nonpolar>
-13.9336

> <Gold.PLP.part.repulsive>
0.0831

> <Gold.PLP.ligand.clash>
0.0000

> <Gold.PLP.ligand.torsion>
0.6120

> <Gold.PLP.Chemscore.Hbond>
5.0000

> <Gold.PLP.Chemscore.CHOScore>
0.0000

> <Gold.PLP.Chemscore.Metal>
0.0000

> <Gold.Chemscore.Hbonds>
donor molecule, donor type, donor heavy atom, donor atom, acceptor molecule, acceptor atom, score
      L1  H    10    23       P1  8028  1.00
      P1  H  6896  6909       L1     3  1.00
      P1  H  7989  7998       L1    15  1.00
      P1  H  7997  8008       L1    14  1.95

> <Gold.PLP.Chemscore.Internal.Correction>
0.0080

> <Gold.Rescore>
     Score         DG    S(hbond)    S(metal)    S(lipo)     H(rot)  DE(clash)    DE(int)     intcor
     15.17     -16.19       3.67        0.00      23.66       1.69       0.00       1.02       ----

> <Gold.Chemscore.Fitness>
15.1695

> <Gold.Chemscore.DG>
-16.1869

> <Gold.Chemscore.ZeroCoef>
-5.4800

> <Gold.Chemscore.Hbond>
3.6712

> <Gold.Chemscore.Metal>
0.0000

> <Gold.Chemscore.Lipo>
23.6610

> <Gold.Chemscore.Internal_Hbond>
0.0000

> <Gold.Chemscore.DEClash>
0.0000

> <Gold.Chemscore.DEInternal>
1.0174

> <Gold.Chemscore.Rot>
1.6887

> <Gold.Chemscore.Internal.Correction>
   9.000000E+99

> <Gold.Chemscore.Hbonds>
donor molecule, donor type, donor heavy atom, donor atom, acceptor molecule, acceptor atom, score
      L1  H    10    23       P1  8028  0.85
      P1  H  6896  6909       L1     3  0.52
      P1  H  7989  7998       L1    15  0.50
      P1  H  7997  8008       L1    14  0.88

> <Gold.Chemscore.Hbond.Weighted>
-12.2617

> <Gold.Chemscore.Metal.Weighted>
-0.0000

> <Gold.Chemscore.Lipo.Weighted>
-2.7683

> <Gold.Chemscore.Internal_Hbond.Weighted>
0.0000

> <Gold.Chemscore.DEClash.Weighted>
0.0000

> <Gold.Chemscore.DEInternal.Weighted>
1.0174

> <Gold.Chemscore.Rot.Weighted>
4.3232

> <Gold.Chemscore.Internal.Correction.Weighted>
   9.000000E+99

> <Gold.Protein.RotatedTorsions>
[ 6907 6896 6895 6894 ] final   88.00 input  -60.11 | X-H torsion
[ 7974 7965 7964 7962 ] final -134.54 input  175.53 | X-H torsion
[ 8008 7997 7996 7995 ] final  -44.20 input   59.86 | X-H torsion
[ 10167 10162 10161 10158 ] final -150.49 input  -65.29 | X-H torsion
[ 10718 10713 10712 10709 ] final  140.76 input   66.30 | X-H torsion
[ 10763 10752 10751 10750 ] final   -1.78 input  -60.55 | X-H torsion
[ 11005 11000 10999 10996 ] final  136.20 input  -57.11 | X-H torsion

> <Gold.Protein.ActiveResidues>
 VAL166  LYS551  ARG553  GLY616  TRP617  ASP618  TYR619  PRO620  LYS621  CYS622 
 ASP623  PHE694  ASN695  SER759  ASP760  ASP761  ALA762  ILE779  LEU786  VAL792 
 PHE793  MET794  SER795  GLU796  ALA797  LYS798  CYS799  TRP800  GLU811  SER814 

> <Gold.Protein.RotatedAtoms>
  152.5419  134.2190  159.8779 H   0  0  0  0  0  0  0  0  0  0  0  0  # atno 6907 bound_to 6896
  151.2168  133.4518  159.2607 H   0  0  0  0  0  0  0  0  0  0  0  0  # atno 6908 bound_to 6896
  151.0844  134.9891  159.8428 H   0  0  0  0  0  0  0  0  0  0  0  0  # atno 6909 bound_to 6896
  144.9093  140.6875  143.5035 H   0  0  0  0  0  0  0  0  0  0  0  0  # atno 7974 bound_to 7965
  154.3997  140.1428  156.3644 H   0  0  0  0  0  0  0  0  0  0  0  0  # atno 8008 bound_to 7997
  155.8151  140.3471  155.5459 H   0  0  0  0  0  0  0  0  0  0  0  0  # atno 8009 bound_to 7997
  155.8346  140.0917  157.1762 H   0  0  0  0  0  0  0  0  0  0  0  0  # atno 8010 bound_to 7997
  139.7350  143.8750  152.2546 H   0  0  0  0  0  0  0  0  0  0  0  0  # atno 10167 bound_to 10162
  157.3996  131.1015  151.0565 H   0  0  0  0  0  0  0  0  0  0  0  0  # atno 10718 bound_to 10713
  153.3494  135.6985  153.6801 H   0  0  0  0  0  0  0  0  0  0  0  0  # atno 10763 bound_to 10752
  153.5534  135.3549  155.2770 H   0  0  0  0  0  0  0  0  0  0  0  0  # atno 10764 bound_to 10752
  154.8650  135.4232  154.2725 H   0  0  0  0  0  0  0  0  0  0  0  0  # atno 10765 bound_to 10752
  140.0030  134.9471  157.0114 H   0  0  0  0  0  0  0  0  0  0  0  0  # atno 11005 bound_to 11000
  145.3481  139.1714  143.4449 LP  0  0  0  0  0  0  0  0  0  0  0  0  # atno 17320 bound_to 7965
  146.3150  140.3530  142.8658 LP  0  0  0  0  0  0  0  0  0  0  0  0  # atno 17321 bound_to 7965
  139.8684  144.7081  150.9016 LP  0  0  0  0  0  0  0  0  0  0  0  0  # atno 17342 bound_to 10162
  140.7777  143.3758  151.1565 LP  0  0  0  0  0  0  0  0  0  0  0  0  # atno 17343 bound_to 10162
  157.1568  130.6208  149.5599 LP  0  0  0  0  0  0  0  0  0  0  0  0  # atno 17370 bound_to 10713
  155.9820  130.4830  150.6856 LP  0  0  0  0  0  0  0  0  0  0  0  0  # atno 17371 bound_to 10713
  140.4693  134.1403  155.7201 LP  0  0  0  0  0  0  0  0  0  0  0  0  # atno 17394 bound_to 11000
  141.1656  133.8709  157.1724 LP  0  0  0  0  0  0  0  0  0  0  0  0  # atno 17395 bound_to 11000

$$$$
