AV-unprocessed.smi:1745|AV-procd|sdf|7031|dock6
  -GOLD-   22720 8253D 1   1.00000     0.00000
 Structure written by MMmdl.
 47 49  0  0  0  0  0  0  0  0  1 V2000
  144.3343  137.1712  152.4767 C   0  0  0  0  0  0  0  0  0  0  0  0
  145.3108  135.9970  152.6408 C   0  0  2  0  0  0  0  0  0  0  0  0
  146.6155  136.5261  153.0355 N   0  0  0  0  0  0  0  0  0  0  0  0
  146.8428  137.4046  154.0228 C   0  0  0  0  0  0  0  0  0  0  0  0
  145.9579  137.8639  154.7442 O   0  0  0  0  0  0  0  0  0  0  0  0
  148.1478  137.7155  154.1001 N   0  0  0  0  0  0  0  0  0  0  0  0
  148.7854  138.6365  154.9739 C   0  0  0  0  0  0  0  0  0  0  0  0
  148.4049  138.8564  156.3178 C   0  0  0  0  0  0  0  0  0  0  0  0
  149.1249  139.7915  157.0857 C   0  0  0  0  0  0  0  0  0  0  0  0
  150.2129  140.4796  156.4992 C   0  0  0  0  0  0  0  0  0  0  0  0
  150.9409  141.4286  157.2493 N   0  0  0  0  0  0  0  0  0  0  0  0
  150.4007  142.7857  157.2577 C   0  0  0  0  0  0  0  0  0  0  0  0
  151.4367  143.7703  157.8277 C   0  0  0  0  0  0  0  0  0  0  0  0
  151.8618  143.3336  159.1145 O   0  0  0  0  0  0  0  0  0  0  0  0
  152.4874  142.0559  159.0605 C   0  0  0  0  0  0  0  0  0  0  0  0
  151.4860  141.0113  158.5395 C   0  0  0  0  0  0  0  0  0  0  0  0
  150.5812  140.2570  155.2136 N   0  0  0  0  0  0  0  0  0  0  0  0
  149.8908  139.3580  154.4822 C   0  0  0  0  0  0  0  0  0  0  0  0
  145.4306  135.1638  151.3477 C   0  0  1  0  0  0  0  0  0  0  0  0
  146.4092  133.9892  151.4206 C   0  0  0  0  0  0  0  0  0  0  0  0
  145.8781  133.0797  150.3373 C   0  0  0  0  0  0  0  0  0  0  0  0
  144.3711  133.2527  150.4981 C   0  0  0  0  0  0  0  0  0  0  0  0
  144.1780  134.5640  151.0232 O   0  0  0  0  0  0  0  0  0  0  0  0
  143.3357  136.8206  152.2154 H   0  0  0  0  0  0  0  0  0  0  0  0
  144.6624  137.8551  151.6930 H   0  0  0  0  0  0  0  0  0  0  0  0
  144.2478  137.7418  153.4021 H   0  0  0  0  0  0  0  0  0  0  0  0
  144.9181  135.3527  153.4298 H   0  0  0  0  0  0  0  0  0  0  0  0
  147.4084  136.2072  152.4985 H   0  0  0  0  0  0  0  0  0  0  0  0
  148.7429  137.3064  153.3948 H   0  0  0  0  0  0  0  0  0  0  0  0
  147.5859  138.3250  156.7768 H   0  0  0  0  0  0  0  0  0  0  0  0
  148.8261  139.9780  158.1062 H   0  0  0  0  0  0  0  0  0  0  0  0
  150.1129  143.1130  156.2598 H   0  0  0  0  0  0  0  0  0  0  0  0
  149.4972  142.7998  157.8684 H   0  0  0  0  0  0  0  0  0  0  0  0
  152.2957  143.8598  157.1606 H   0  0  0  0  0  0  0  0  0  0  0  0
  150.9993  144.7649  157.9176 H   0  0  0  0  0  0  0  0  0  0  0  0
  153.3718  142.0988  158.4228 H   0  0  0  0  0  0  0  0  0  0  0  0
  152.8279  141.7832  160.0595 H   0  0  0  0  0  0  0  0  0  0  0  0
  150.6702  140.8870  159.2530 H   0  0  0  0  0  0  0  0  0  0  0  0
  151.9874  140.0473  158.4436 H   0  0  0  0  0  0  0  0  0  0  0  0
  150.2292  139.2180  153.4658 H   0  0  0  0  0  0  0  0  0  0  0  0
  145.7141  135.8065  150.5123 H   0  0  0  0  0  0  0  0  0  0  0  0
  147.4457  134.2859  151.2582 H   0  0  0  0  0  0  0  0  0  0  0  0
  146.3424  133.4909  152.3890 H   0  0  0  0  0  0  0  0  0  0  0  0
  146.1968  133.4390  149.3579 H   0  0  0  0  0  0  0  0  0  0  0  0
  146.2028  132.0447  150.4457 H   0  0  0  0  0  0  0  0  0  0  0  0
  143.8360  133.1179  149.5579 H   0  0  0  0  0  0  0  0  0  0  0  0
  143.9789  132.5323  151.2168 H   0  0  0  0  0  0  0  0  0  0  0  0
  1  2  1  0  0  0  0
  1 24  1  0  0  0  0
  1 25  1  0  0  0  0
  1 26  1  0  0  0  0
  2  3  1  0  0  0  0
  2 19  1  0  0  0  0
  2 27  1  0  0  0  0
  3  4  1  0  0  0  0
  3 28  1  0  0  0  0
  4  5  2  0  0  0  0
  4  6  1  0  0  0  0
  6  7  1  0  0  0  0
  6 29  1  0  0  0  0
  7 18  1  0  0  0  0
  7  8  2  0  0  0  0
  8  9  1  0  0  0  0
  8 30  1  0  0  0  0
  9 10  2  0  0  0  0
  9 31  1  0  0  0  0
 10 11  1  0  0  0  0
 10 17  1  0  0  0  0
 11 16  1  0  0  0  0
 11 12  1  0  0  0  0
 12 13  1  0  0  0  0
 12 32  1  0  0  0  0
 12 33  1  0  0  0  0
 13 14  1  0  0  0  0
 13 34  1  0  0  0  0
 13 35  1  0  0  0  0
 14 15  1  0  0  0  0
 15 16  1  0  0  0  0
 15 36  1  0  0  0  0
 15 37  1  0  0  0  0
 16 38  1  0  0  0  0
 16 39  1  0  0  0  0
 17 18  2  0  0  0  0
 18 40  1  0  0  0  0
 19 23  1  0  0  0  0
 19 20  1  0  0  0  0
 19 41  1  0  0  0  0
 20 21  1  0  0  0  0
 20 42  1  0  0  0  0
 20 43  1  0  0  0  0
 21 22  1  0  0  0  0
 21 44  1  0  0  0  0
 21 45  1  0  0  0  0
 22 23  1  0  0  0  0
 22 46  1  0  0  0  0
 22 47  1  0  0  0  0
M  END
> <s_m_source_file>
AV-unprocessed.smi

> <i_m_source_file_index>
1745

> <i_lp_mmshare_version>
43012

> <i_f3d_flags>
0

> <s_epik_input>
TzFbQ0gyXVtDSDJdW0NIMl1bQ0BIXTFbQ0BIXShbQ0gzXSlbTkhdQyg9TylbTkhdYzJbY0hdW2NIXWMobltjSF0yKU4zW0NIMl1bQ0gyXU9bQ0gyXVtDSDJdMw==

> <s_epik_cmdline>
J2VwaWtfcHl0aG9uJywgJy1waCcsICc3LjAnLCAnLXRuJywgJzgnLCAnLW1hJywgJzIwMCcsICctbWV0YWxfYmluZGluZycsICctaW1hZScsICc8aW5maWxlLm1hZT4nLCAnLW9tYWUnLCAnPG91dGZpbGUubWFlPic=

> <r_lp_tautomer_probability>
1

> <r_epik_Ionization_Penalty>
0.00206005

> <r_epik_Ionization_Penalty_Charging>
0

> <r_epik_Ionization_Penalty_Neutral>
0.00206005

> <r_epik_State_Penalty>
0.00138459

> <r_epik_Charging_Adjusted_Penalty>
0.00138459

> <i_epik_Tot_Q>
0

> <i_epik_Tot_abs_Q>
0

> <r_epik_Metal_State_Penalty>
-0

> <b_epik_Metal_Only>
0

> <s_lp_Force_Field>
OPLS_2005

> <r_lp_Energy>
34.4703

> <b_lp_Chiralities_Consistent>
1

> <s_lp_Variant>
AV-unprocessed.smi:1745-3

> <Gold.Version>
5.8.1

> <Gold.Id.Protein>
6NUR|6NUR_protein|mol2

> <Gold.PLP.Fitness>
42.4032

> <Gold.PLP.PLP>
-32.5867

> <Gold.PLP.part.hbond>
-3.0000

> <Gold.PLP.part.metal>
0.0000

> <Gold.PLP.part.buried>
-4.5254

> <Gold.PLP.part.nonpolar>
-25.3437

> <Gold.PLP.part.repulsive>
0.3284

> <Gold.PLP.ligand.clash>
0.0000

> <Gold.PLP.ligand.torsion>
0.7496

> <Gold.PLP.Chemscore.Hbond>
2.6500

> <Gold.PLP.Chemscore.CHOScore>
1.0000

> <Gold.PLP.Chemscore.Metal>
0.0000

> <Gold.Chemscore.Hbonds>
donor molecule, donor type, donor heavy atom, donor atom, acceptor molecule, acceptor atom, score
      L1  H     3    28       P1  7948  1.00
      L1  H     6    29       P1  7948  1.00
      P1  H  7989  7998       L1    17  0.46
      L1  C    18    40       P1  7957  1.00

> <Gold.PLP.Chemscore.Internal.Correction>
0.3656

> <Gold.Rescore>
     Score         DG    S(hbond)    S(metal)    S(lipo)     H(rot)  DE(clash)    DE(int)     intcor
     15.85     -19.69       2.32        0.00      85.87       1.40       1.53       2.32       ----

> <Gold.Chemscore.Fitness>
15.8511

> <Gold.Chemscore.DG>
-19.6932

> <Gold.Chemscore.ZeroCoef>
-5.4800

> <Gold.Chemscore.Hbond>
2.3166

> <Gold.Chemscore.Metal>
0.0000

> <Gold.Chemscore.Lipo>
85.8721

> <Gold.Chemscore.Internal_Hbond>
0.0000

> <Gold.Chemscore.DEClash>
1.5271

> <Gold.Chemscore.DEInternal>
2.3150

> <Gold.Chemscore.Rot>
1.3950

> <Gold.Chemscore.Internal.Correction>
   9.000000E+99

> <Gold.Chemscore.Hbonds>
donor molecule, donor type, donor heavy atom, donor atom, acceptor molecule, acceptor atom, score
      L1  H     3    28       P1  7948  0.99
      L1  H     6    29       P1  7948  0.95
      P1  H  7989  7998       L1    17  0.02

> <Gold.Chemscore.Hbond.Weighted>
-7.7374

> <Gold.Chemscore.Metal.Weighted>
-0.0000

> <Gold.Chemscore.Lipo.Weighted>
-10.0470

> <Gold.Chemscore.Internal_Hbond.Weighted>
0.0000

> <Gold.Chemscore.DEClash.Weighted>
1.5271

> <Gold.Chemscore.DEInternal.Weighted>
2.3150

> <Gold.Chemscore.Rot.Weighted>
3.5712

> <Gold.Chemscore.Internal.Correction.Weighted>
   9.000000E+99

> <Gold.Protein.RotatedTorsions>
[ 6907 6896 6895 6894 ] final  -35.56 input  -60.11 | X-H torsion
[ 7974 7965 7964 7962 ] final   79.21 input  175.53 | X-H torsion
[ 8008 7997 7996 7995 ] final   20.23 input   59.86 | X-H torsion
[ 10167 10162 10161 10158 ] final  108.29 input  -65.29 | X-H torsion
[ 10718 10713 10712 10709 ] final  -81.60 input   66.30 | X-H torsion
[ 10763 10752 10751 10750 ] final   28.13 input  -60.55 | X-H torsion
[ 11005 11000 10999 10996 ] final    4.06 input  -57.11 | X-H torsion

> <Gold.Protein.ActiveResidues>
 VAL166  LYS551  ARG553  GLY616  TRP617  ASP618  TYR619  PRO620  LYS621  CYS622 
 ASP623  PHE694  ASN695  SER759  ASP760  ASP761  ALA762  ILE779  LEU786  VAL792 
 PHE793  MET794  SER795  GLU796  ALA797  LYS798  CYS799  TRP800  GLU811  SER814 

> <Gold.Protein.RotatedAtoms>
  151.0382  134.9588  159.8147 H   0  0  0  0  0  0  0  0  0  0  0  0  # atno 6907 bound_to 6896
  152.5359  134.2692  159.8975 H   0  0  0  0  0  0  0  0  0  0  0  0  # atno 6908 bound_to 6896
  151.2703  133.4216  159.2655 H   0  0  0  0  0  0  0  0  0  0  0  0  # atno 6909 bound_to 6896
  145.6672  139.2487  143.1889 H   0  0  0  0  0  0  0  0  0  0  0  0  # atno 7974 bound_to 7965
  154.9326  140.3042  155.5160 H   0  0  0  0  0  0  0  0  0  0  0  0  # atno 8008 bound_to 7997
  156.3002  140.2351  156.4324 H   0  0  0  0  0  0  0  0  0  0  0  0  # atno 8009 bound_to 7997
  154.8223  140.0422  157.1408 H   0  0  0  0  0  0  0  0  0  0  0  0  # atno 8010 bound_to 7997
  139.6858  144.7113  151.1434 H   0  0  0  0  0  0  0  0  0  0  0  0  # atno 10167 bound_to 10162
  156.0047  130.4609  150.3978 H   0  0  0  0  0  0  0  0  0  0  0  0  # atno 10718 bound_to 10713
  153.0511  135.6520  154.0692 H   0  0  0  0  0  0  0  0  0  0  0  0  # atno 10763 bound_to 10752
  154.0379  135.2906  155.3360 H   0  0  0  0  0  0  0  0  0  0  0  0  # atno 10764 bound_to 10752
  154.6800  135.5323  153.8317 H   0  0  0  0  0  0  0  0  0  0  0  0  # atno 10765 bound_to 10752
  140.5861  133.9967  155.8068 H   0  0  0  0  0  0  0  0  0  0  0  0  # atno 11005 bound_to 11000
  146.1076  140.7468  142.9519 LP  0  0  0  0  0  0  0  0  0  0  0  0  # atno 17320 bound_to 7965
  144.7069  140.3887  143.7111 LP  0  0  0  0  0  0  0  0  0  0  0  0  # atno 17321 bound_to 7965
  140.7667  143.5631  150.9077 LP  0  0  0  0  0  0  0  0  0  0  0  0  # atno 17342 bound_to 10162
  139.9306  143.6498  152.3077 LP  0  0  0  0  0  0  0  0  0  0  0  0  # atno 17343 bound_to 10162
  157.2049  131.0446  151.2631 LP  0  0  0  0  0  0  0  0  0  0  0  0  # atno 17370 bound_to 10713
  157.3942  130.7298  149.6719 LP  0  0  0  0  0  0  0  0  0  0  0  0  # atno 17371 bound_to 10713
  141.0965  133.9836  157.3152 LP  0  0  0  0  0  0  0  0  0  0  0  0  # atno 17394 bound_to 11000
  139.9295  135.0200  156.8351 LP  0  0  0  0  0  0  0  0  0  0  0  0  # atno 17395 bound_to 11000

$$$$
