AV-unprocessed.smi:3337|AV-procd|sdf|12866|dock1
  -GOLD-   2272019263D 1   1.00000     0.00000
 Structure written by MMmdl.
 46 47  0  0  0  0  0  0  0  0  2 V2000
  144.5991  132.1314  150.4242 C   0  0  0  0  0  0  0  0  0  0  0  0
  145.4024  132.6533  151.6238 C   0  0  1  0  0  0  0  0  0  0  0  0
  146.3145  131.5584  152.2052 C   0  0  0  0  0  0  0  0  0  0  0  0
  147.1545  132.1011  153.3746 C   0  0  1  0  0  0  0  0  0  0  0  0
  148.0874  131.0225  153.9425 C   0  0  0  0  0  0  0  0  0  0  0  0
  147.9443  133.3483  152.9235 C   0  0  0  0  0  0  0  0  0  0  0  0
  147.0542  134.4063  152.3771 N   0  3  2  0  0  0  0  0  0  0  0  0
  146.2955  135.1365  153.4281 C   0  0  0  0  0  0  0  0  0  0  0  0
  147.1990  135.6684  154.5568 C   0  0  0  0  0  0  0  0  0  0  0  0
  148.0340  136.7684  154.0900 N   0  0  0  0  0  0  0  0  0  0  0  0
  148.4453  137.7976  154.8486 C   0  0  0  0  0  0  0  0  0  0  0  0
  148.1405  137.9119  156.0363 O   0  0  0  0  0  0  0  0  0  0  0  0
  149.3145  138.8585  154.1506 C   0  0  1  0  0  0  0  0  0  0  0  0
  148.8103  140.2978  154.3826 C   0  0  0  0  0  0  0  0  0  0  0  0
  150.7155  138.7071  154.5259 N   0  0  0  0  0  0  0  0  0  0  0  0
  151.5162  137.6423  154.4423 C   0  0  0  0  0  0  0  0  0  0  0  0
  152.7372  137.8480  154.9151 N   0  0  0  0  0  0  0  0  0  0  0  0
  152.6128  139.1502  155.3091 C   0  0  0  0  0  0  0  0  0  0  0  0
  151.4191  139.7087  155.1102 N   0  0  0  0  0  0  0  0  0  0  0  0
  146.2339  133.8980  151.2432 C   0  0  0  0  0  0  0  0  0  0  0  0
  145.2557  131.8248  149.6091 H   0  0  0  0  0  0  0  0  0  0  0  0
  143.9257  132.8977  150.0387 H   0  0  0  0  0  0  0  0  0  0  0  0
  143.9912  131.2702  150.7031 H   0  0  0  0  0  0  0  0  0  0  0  0
  144.6804  132.9356  152.3903 H   0  0  0  0  0  0  0  0  0  0  0  0
  145.7123  130.7131  152.5407 H   0  0  0  0  0  0  0  0  0  0  0  0
  146.9748  131.1774  151.4248 H   0  0  0  0  0  0  0  0  0  0  0  0
  146.4742  132.3913  154.1765 H   0  0  0  0  0  0  0  0  0  0  0  0
  148.8014  130.6789  153.1931 H   0  0  0  0  0  0  0  0  0  0  0  0
  147.5217  130.1556  154.2854 H   0  0  0  0  0  0  0  0  0  0  0  0
  148.6540  131.4021  154.7933 H   0  0  0  0  0  0  0  0  0  0  0  0
  148.5380  133.7477  153.7467 H   0  0  0  0  0  0  0  0  0  0  0  0
  148.6582  133.0682  152.1475 H   0  0  0  0  0  0  0  0  0  0  0  0
  145.7154  135.9493  152.9919 H   0  0  0  0  0  0  0  0  0  0  0  0
  145.5701  134.4507  153.8680 H   0  0  0  0  0  0  0  0  0  0  0  0
  146.5997  135.9873  155.4116 H   0  0  0  0  0  0  0  0  0  0  0  0
  147.8699  134.8906  154.9192 H   0  0  0  0  0  0  0  0  0  0  0  0
  148.3261  136.7440  153.1236 H   0  0  0  0  0  0  0  0  0  0  0  0
  149.2482  138.6635  153.0791 H   0  0  0  0  0  0  0  0  0  0  0  0
  147.7838  140.4170  154.0341 H   0  0  0  0  0  0  0  0  0  0  0  0
  149.4233  141.0168  153.8386 H   0  0  0  0  0  0  0  0  0  0  0  0
  148.8358  140.5743  155.4376 H   0  0  0  0  0  0  0  0  0  0  0  0
  151.1985  136.6954  154.0308 H   0  0  0  0  0  0  0  0  0  0  0  0
  153.4244  139.7009  155.7617 H   0  0  0  0  0  0  0  0  0  0  0  0
  146.9140  133.6402  150.4300 H   0  0  0  0  0  0  0  0  0  0  0  0
  145.5896  134.6822  150.8483 H   0  0  0  0  0  0  0  0  0  0  0  0
  147.6759  135.0979  151.9827 H   0  0  0  0  0  0  0  0  0  0  0  0
  1  2  1  0  0  0  0
  1 21  1  0  0  0  0
  1 22  1  0  0  0  0
  1 23  1  0  0  0  0
  2 20  1  0  0  0  0
  2  3  1  0  0  0  0
  2 24  1  0  0  0  0
  3  4  1  0  0  0  0
  3 25  1  0  0  0  0
  3 26  1  0  0  0  0
  4  5  1  0  0  0  0
  4  6  1  0  0  0  0
  4 27  1  0  0  0  0
  5 28  1  0  0  0  0
  5 29  1  0  0  0  0
  5 30  1  0  0  0  0
  6  7  1  0  0  0  0
  6 31  1  0  0  0  0
  6 32  1  0  0  0  0
  7  8  1  0  0  0  0
  7 20  1  0  0  0  0
  7 46  1  0  0  0  0
  8  9  1  0  0  0  0
  8 33  1  0  0  0  0
  8 34  1  0  0  0  0
  9 10  1  0  0  0  0
  9 35  1  0  0  0  0
  9 36  1  0  0  0  0
 10 11  1  0  0  0  0
 10 37  1  0  0  0  0
 11 12  2  0  0  0  0
 11 13  1  0  0  0  0
 13 14  1  0  0  0  0
 13 15  1  0  0  0  0
 13 38  1  0  0  0  0
 14 39  1  0  0  0  0
 14 40  1  0  0  0  0
 14 41  1  0  0  0  0
 15 19  1  0  0  0  0
 15 16  1  0  0  0  0
 16 17  2  0  0  0  0
 16 42  1  0  0  0  0
 17 18  1  0  0  0  0
 18 19  2  0  0  0  0
 18 43  1  0  0  0  0
 20 44  1  0  0  0  0
 20 45  1  0  0  0  0
M  CHG  1   7   1
M  END
> <s_m_source_file>
AV-unprocessed.smi

> <i_m_source_file_index>
3337

> <i_lp_mmshare_version>
43012

> <i_f3d_flags>
0

> <s_epik_input>
W0NIM11bQ0BASF0xW0NIMl1bQ0BASF0oW0NIM10pW0NIMl1OKFtDSDJdMSlbQ0gyXVtDSDJdW05IXUMoPU8pW0NASF0oW0NIM10pbjJbY0hdbltjSF1uMg==

> <s_epik_cmdline>
J2VwaWtfcHl0aG9uJywgJy1waCcsICc3LjAnLCAnLXRuJywgJzgnLCAnLW1hJywgJzIwMCcsICctbWV0YWxfYmluZGluZycsICctaW1hZScsICc8aW5maWxlLm1hZT4nLCAnLW9tYWUnLCAnPG91dGZpbGUubWFlPic=

> <r_lp_tautomer_probability>
1

> <r_epik_Ionization_Penalty>
0.00175613

> <r_epik_Ionization_Penalty_Charging>
0.00174812

> <r_epik_Ionization_Penalty_Neutral>
8.01354e-06

> <r_epik_State_Penalty>
0.00118332

> <r_epik_Charging_Adjusted_Penalty>
0.00293143

> <i_epik_Tot_Q>
1

> <i_epik_Tot_abs_Q>
1

> <r_epik_Metal_State_Penalty>
-0

> <b_epik_Metal_Only>
0

> <s_lp_Force_Field>
OPLS_2005

> <r_lp_Energy>
23.9818

> <b_lp_Chiralities_Consistent>
1

> <s_lp_Variant>
AV-unprocessed.smi:3337-6

> <Gold.Version>
5.8.1

> <Gold.Id.Protein>
6NUR|6NUR_protein|mol2

> <Gold.PLP.Fitness>
49.5680

> <Gold.PLP.PLP>
-35.6713

> <Gold.PLP.part.hbond>
-3.8047

> <Gold.PLP.part.metal>
0.0000

> <Gold.PLP.part.buried>
-2.7442

> <Gold.PLP.part.nonpolar>
-29.0408

> <Gold.PLP.part.repulsive>
0.1222

> <Gold.PLP.ligand.clash>
0.0000

> <Gold.PLP.ligand.torsion>
0.5710

> <Gold.PLP.Chemscore.Hbond>
3.9533

> <Gold.PLP.Chemscore.CHOScore>
1.0000

> <Gold.PLP.Chemscore.Metal>
0.0000

> <Gold.Chemscore.Hbonds>
donor molecule, donor type, donor heavy atom, donor atom, acceptor molecule, acceptor atom, score
      L1  H     7    46       P1  7948  2.00
      L1  H    10    37       P1  7948  0.91
      P1  H  7989  7998       L1    19  0.90
      P1  H 10752 10765       L1    17  0.04
      L1  C    16    42       P1  7949  0.70

> <Gold.PLP.Chemscore.Internal.Correction>
0.1788

> <Gold.Rescore>
     Score         DG    S(hbond)    S(metal)    S(lipo)     H(rot)  DE(clash)    DE(int)     intcor
     14.08     -15.08       2.75        0.00      58.45       2.51       0.09       0.92       ----

> <Gold.Chemscore.Fitness>
14.0758

> <Gold.Chemscore.DG>
-15.0814

> <Gold.Chemscore.ZeroCoef>
-5.4800

> <Gold.Chemscore.Hbond>
2.7534

> <Gold.Chemscore.Metal>
0.0000

> <Gold.Chemscore.Lipo>
58.4458

> <Gold.Chemscore.Internal_Hbond>
0.0000

> <Gold.Chemscore.DEClash>
0.0879

> <Gold.Chemscore.DEInternal>
0.9177

> <Gold.Chemscore.Rot>
2.5129

> <Gold.Chemscore.Internal.Correction>
   9.000000E+99

> <Gold.Chemscore.Hbonds>
donor molecule, donor type, donor heavy atom, donor atom, acceptor molecule, acceptor atom, score
      L1  H     7    46       P1  7948  0.88
      L1  H    10    37       P1  7948  0.88
      P1  H  7989  7998       L1    19  0.09

> <Gold.Chemscore.Hbond.Weighted>
-9.1963

> <Gold.Chemscore.Metal.Weighted>
-0.0000

> <Gold.Chemscore.Lipo.Weighted>
-6.8382

> <Gold.Chemscore.Internal_Hbond.Weighted>
0.0000

> <Gold.Chemscore.DEClash.Weighted>
0.0879

> <Gold.Chemscore.DEInternal.Weighted>
0.9177

> <Gold.Chemscore.Rot.Weighted>
6.4331

> <Gold.Chemscore.Internal.Correction.Weighted>
   9.000000E+99

> <Gold.Protein.RotatedTorsions>
[ 6907 6896 6895 6894 ] final -173.85 input  -60.11 | X-H torsion
[ 7974 7965 7964 7962 ] final -113.93 input  175.53 | X-H torsion
[ 8008 7997 7996 7995 ] final  177.08 input   59.86 | X-H torsion
[ 10167 10162 10161 10158 ] final -126.91 input  -65.29 | X-H torsion
[ 10718 10713 10712 10709 ] final -158.37 input   66.30 | X-H torsion
[ 10763 10752 10751 10750 ] final -177.22 input  -60.55 | X-H torsion
[ 11005 11000 10999 10996 ] final  -90.86 input  -57.11 | X-H torsion

> <Gold.Protein.ActiveResidues>
 VAL166  LYS551  ARG553  GLY616  TRP617  ASP618  TYR619  PRO620  LYS621  CYS622 
 ASP623  PHE694  ASN695  SER759  ASP760  ASP761  ALA762  ILE779  LEU786  VAL792 
 PHE793  MET794  SER795  GLU796  ALA797  LYS798  CYS799  TRP800  GLU811  SER814 

> <Gold.Protein.RotatedAtoms>
  151.5628  133.3400  159.2974 H   0  0  0  0  0  0  0  0  0  0  0  0  # atno 6907 bound_to 6896
  150.8412  134.7708  159.6945 H   0  0  0  0  0  0  0  0  0  0  0  0  # atno 6908 bound_to 6896
  152.4479  134.5462  159.9905 H   0  0  0  0  0  0  0  0  0  0  0  0  # atno 6909 bound_to 6896
  145.1262  140.8698  143.3785 H   0  0  0  0  0  0  0  0  0  0  0  0  # atno 7974 bound_to 7965
  156.0695  140.1367  156.9845 H   0  0  0  0  0  0  0  0  0  0  0  0  # atno 8008 bound_to 7997
  154.4524  140.0974  156.6710 H   0  0  0  0  0  0  0  0  0  0  0  0  # atno 8009 bound_to 7997
  155.5250  140.3457  155.4416 H   0  0  0  0  0  0  0  0  0  0  0  0  # atno 8010 bound_to 7997
  139.9665  143.5893  152.2427 H   0  0  0  0  0  0  0  0  0  0  0  0  # atno 10167 bound_to 10162
  156.5532  130.8615  151.2786 H   0  0  0  0  0  0  0  0  0  0  0  0  # atno 10718 bound_to 10713
  154.5627  135.2821  155.0903 H   0  0  0  0  0  0  0  0  0  0  0  0  # atno 10763 bound_to 10752
  154.2306  135.6375  153.5178 H   0  0  0  0  0  0  0  0  0  0  0  0  # atno 10764 bound_to 10752
  153.0034  135.5536  154.6227 H   0  0  0  0  0  0  0  0  0  0  0  0  # atno 10765 bound_to 10752
  141.1557  133.7719  156.9798 H   0  0  0  0  0  0  0  0  0  0  0  0  # atno 11005 bound_to 11000
  145.0686  139.3049  143.5843 LP  0  0  0  0  0  0  0  0  0  0  0  0  # atno 17320 bound_to 7965
  146.3517  140.0153  142.8663 LP  0  0  0  0  0  0  0  0  0  0  0  0  # atno 17321 bound_to 7965
  139.6514  144.7661  151.2141 LP  0  0  0  0  0  0  0  0  0  0  0  0  # atno 17342 bound_to 10162
  140.7536  143.6155  150.8564 LP  0  0  0  0  0  0  0  0  0  0  0  0  # atno 17343 bound_to 10162
  157.7383  130.9811  150.2245 LP  0  0  0  0  0  0  0  0  0  0  0  0  # atno 17370 bound_to 10713
  156.2865  130.3740  149.7883 LP  0  0  0  0  0  0  0  0  0  0  0  0  # atno 17371 bound_to 10713
  140.1074  134.9498  157.2014 LP  0  0  0  0  0  0  0  0  0  0  0  0  # atno 17394 bound_to 11000
  140.3239  134.2886  155.7241 LP  0  0  0  0  0  0  0  0  0  0  0  0  # atno 17395 bound_to 11000

$$$$
