AV-unprocessed.smi:334|AV-procd|sdf|2364|dock1
  -GOLD-   2262022273D 1   1.00000     0.00000
 Structure written by MMmdl.
 44 46  0  0  0  0  0  0  0  0  3 V2000
  149.1854  141.5515  157.3505 C   0  0  0  0  0  0  0  0  0  0  0  0
  150.6739  141.5990  157.7372 C   0  0  2  0  0  0  0  0  0  0  0  0
  151.1386  140.2549  158.0748 N   0  0  0  0  0  0  0  0  0  0  0  0
  151.3437  139.2566  157.2021 C   0  0  0  0  0  0  0  0  0  0  0  0
  151.1463  139.3673  155.9912 O   0  0  0  0  0  0  0  0  0  0  0  0
  151.8352  137.9342  157.8086 C   0  0  0  0  0  0  0  0  0  0  0  0
  150.7967  136.8916  157.8699 N   0  0  0  0  0  0  0  0  0  0  0  0
  149.8335  137.0102  158.8911 C   0  0  0  0  0  0  0  0  0  0  0  0
  148.8339  136.1191  159.0397 C   0  0  0  0  0  0  0  0  0  0  0  0
  147.8488  136.2612  160.0895 N   0  3  0  0  0  0  0  0  0  0  0  0
  146.9213  135.4597  160.1384 O   0  0  0  0  0  0  0  0  0  0  0  0
  147.9685  137.1760  160.8989 O   0  5  0  0  0  0  0  0  0  0  0  0
  148.7743  135.0111  158.1062 C   0  0  0  0  0  0  0  0  0  0  0  0
  149.6893  134.8951  157.1238 C   0  0  0  0  0  0  0  0  0  0  0  0
  150.7720  135.8707  156.9594 C   0  0  0  0  0  0  0  0  0  0  0  0
  151.6052  135.7755  156.0582 O   0  0  0  0  0  0  0  0  0  0  0  0
  150.9421  142.5444  158.9319 C   0  0  1  0  0  0  0  0  0  0  0  0
  152.3807  142.4853  159.4959 C   0  0  0  0  0  0  0  0  0  0  0  0
  152.7856  143.9693  159.5704 C   0  0  1  0  0  0  0  0  0  0  0  0
  153.0627  144.4862  158.1467 C   0  0  0  0  0  0  0  0  0  0  0  0
  151.6504  144.5779  157.5409 C   0  0  0  0  0  0  0  0  0  0  0  0
  150.7522  144.0618  158.6840 C   0  0  2  0  0  0  0  0  0  0  0  0
  151.4614  144.6483  159.9008 C   0  0  0  0  0  0  0  0  0  0  0  0
  148.8268  142.5312  157.0349 H   0  0  0  0  0  0  0  0  0  0  0  0
  148.5678  141.2244  158.1876 H   0  0  0  0  0  0  0  0  0  0  0  0
  149.0125  140.8649  156.5211 H   0  0  0  0  0  0  0  0  0  0  0  0
  151.2459  141.9476  156.8767 H   0  0  0  0  0  0  0  0  0  0  0  0
  151.3236  140.0733  159.0506 H   0  0  0  0  0  0  0  0  0  0  0  0
  152.6966  137.5819  157.2379 H   0  0  0  0  0  0  0  0  0  0  0  0
  152.2227  138.1392  158.8078 H   0  0  0  0  0  0  0  0  0  0  0  0
  149.9617  137.8732  159.5287 H   0  0  0  0  0  0  0  0  0  0  0  0
  147.9958  134.2667  158.1874 H   0  0  0  0  0  0  0  0  0  0  0  0
  149.6260  134.0623  156.4390 H   0  0  0  0  0  0  0  0  0  0  0  0
  150.2571  142.2617  159.7340 H   0  0  0  0  0  0  0  0  0  0  0  0
  152.3837  142.0277  160.4859 H   0  0  0  0  0  0  0  0  0  0  0  0
  153.0646  141.9136  158.8670 H   0  0  0  0  0  0  0  0  0  0  0  0
  153.5959  144.1674  160.2725 H   0  0  0  0  0  0  0  0  0  0  0  0
  153.5338  145.4697  158.1721 H   0  0  0  0  0  0  0  0  0  0  0  0
  153.7143  143.8175  157.5829 H   0  0  0  0  0  0  0  0  0  0  0  0
  151.4082  145.6158  157.3095 H   0  0  0  0  0  0  0  0  0  0  0  0
  151.5483  144.0121  156.6160 H   0  0  0  0  0  0  0  0  0  0  0  0
  149.7083  144.3610  158.5866 H   0  0  0  0  0  0  0  0  0  0  0  0
  151.0349  144.3244  160.8520 H   0  0  0  0  0  0  0  0  0  0  0  0
  151.5178  145.7382  159.8876 H   0  0  0  0  0  0  0  0  0  0  0  0
  1  2  1  0  0  0  0
  1 24  1  0  0  0  0
  1 25  1  0  0  0  0
  1 26  1  0  0  0  0
  2  3  1  0  0  0  0
  2 17  1  0  0  0  0
  2 27  1  0  0  0  0
  3  4  1  0  0  0  0
  3 28  1  0  0  0  0
  4  5  2  0  0  0  0
  4  6  1  0  0  0  0
  6  7  1  0  0  0  0
  6 29  1  0  0  0  0
  6 30  1  0  0  0  0
  7 15  1  0  0  0  0
  7  8  1  0  0  0  0
  8  9  2  0  0  0  0
  8 31  1  0  0  0  0
  9 10  1  0  0  0  0
  9 13  1  0  0  0  0
 10 11  2  0  0  0  0
 10 12  1  0  0  0  0
 13 14  2  0  0  0  0
 13 32  1  0  0  0  0
 14 15  1  0  0  0  0
 14 33  1  0  0  0  0
 15 16  2  0  0  0  0
 17 22  1  0  0  0  0
 17 18  1  0  0  0  0
 17 34  1  0  0  0  0
 18 19  1  0  0  0  0
 18 35  1  0  0  0  0
 18 36  1  0  0  0  0
 19 23  1  0  0  0  0
 19 20  1  0  0  0  0
 19 37  1  0  0  0  0
 20 21  1  0  0  0  0
 20 38  1  0  0  0  0
 20 39  1  0  0  0  0
 21 22  1  0  0  0  0
 21 40  1  0  0  0  0
 21 41  1  0  0  0  0
 22 23  1  0  0  0  0
 22 42  1  0  0  0  0
 23 43  1  0  0  0  0
 23 44  1  0  0  0  0
M  CHG  1  10   1
M  CHG  1  12  -1
M  END
> <s_m_source_file>
AV-unprocessed.smi

> <i_m_source_file_index>
334

> <i_lp_mmshare_version>
43012

> <i_f3d_flags>
0

> <s_epik_input>
W0NIMl0xW0NIMl1bQ0BIXShbQ0gyXTIpW0NAQEhdKFtDSDJdW0NAQEhdMTIpW0NASF0oW0NIM10pW05IXUMoPU8pW0NIMl1uM1tjSF1jKFtOK10oPU8pW08tXSlbY0hdW2NIXWMzPU8=

> <s_epik_cmdline>
J2VwaWtfcHl0aG9uJywgJy1waCcsICc3LjAnLCAnLXRuJywgJzgnLCAnLW1hJywgJzIwMCcsICctbWV0YWxfYmluZGluZycsICctaW1hZScsICc8aW5maWxlLm1hZT4nLCAnLW9tYWUnLCAnPG91dGZpbGUubWFlPic=

> <r_lp_tautomer_probability>
1

> <r_epik_Ionization_Penalty>
2.17081e-08

> <r_epik_Ionization_Penalty_Charging>
8.1195e-11

> <r_epik_Ionization_Penalty_Neutral>
2.16269e-08

> <r_epik_State_Penalty>
-0

> <r_epik_Charging_Adjusted_Penalty>
8.1195e-11

> <i_epik_Tot_Q>
0

> <i_epik_Tot_abs_Q>
2

> <r_epik_Metal_State_Penalty>
-0

> <b_epik_Metal_Only>
0

> <s_lp_Force_Field>
OPLS_2005

> <r_lp_Energy>
62.3999

> <b_lp_Chiralities_Consistent>
1

> <s_lp_Variant>
AV-unprocessed.smi:334-3

> <Gold.Version>
5.8.1

> <Gold.Id.Protein>
6NUR|6NUR_protein|mol2

> <Gold.PLP.Fitness>
44.9550

> <Gold.PLP.PLP>
-38.0882

> <Gold.PLP.part.hbond>
-3.0000

> <Gold.PLP.part.metal>
0.0000

> <Gold.PLP.part.buried>
-6.6329

> <Gold.PLP.part.nonpolar>
-29.2025

> <Gold.PLP.part.repulsive>
0.1284

> <Gold.PLP.ligand.clash>
0.0000

> <Gold.PLP.ligand.torsion>
0.6710

> <Gold.PLP.Chemscore.Hbond>
2.7120

> <Gold.PLP.Chemscore.CHOScore>
0.0000

> <Gold.PLP.Chemscore.Metal>
0.0000

> <Gold.Chemscore.Hbonds>
donor molecule, donor type, donor heavy atom, donor atom, acceptor molecule, acceptor atom, score
      P1  H  6931  6943       L1    12  0.91
      P1  H  6934  6947       L1    12  0.77
      P1  H 10752 10764       L1    16  1.00

> <Gold.PLP.Chemscore.Internal.Correction>
0.0729

> <Gold.Rescore>
     Score         DG    S(hbond)    S(metal)    S(lipo)     H(rot)  DE(clash)    DE(int)     intcor
     21.56     -22.18       2.70        0.00     103.86       1.75       0.01       0.61       ----

> <Gold.Chemscore.Fitness>
21.5617

> <Gold.Chemscore.DG>
-22.1808

> <Gold.Chemscore.ZeroCoef>
-5.4800

> <Gold.Chemscore.Hbond>
2.7013

> <Gold.Chemscore.Metal>
0.0000

> <Gold.Chemscore.Lipo>
103.8622

> <Gold.Chemscore.Internal_Hbond>
0.0000

> <Gold.Chemscore.DEClash>
0.0089

> <Gold.Chemscore.DEInternal>
0.6102

> <Gold.Chemscore.Rot>
1.7474

> <Gold.Chemscore.Internal.Correction>
   9.000000E+99

> <Gold.Chemscore.Hbonds>
donor molecule, donor type, donor heavy atom, donor atom, acceptor molecule, acceptor atom, score
      P1  H  6931  6943       L1    12  0.88
      P1  H  6934  6947       L1    12  0.73
      P1  H 10752 10764       L1    16  0.98

> <Gold.Chemscore.Hbond.Weighted>
-9.0223

> <Gold.Chemscore.Metal.Weighted>
-0.0000

> <Gold.Chemscore.Lipo.Weighted>
-12.1519

> <Gold.Chemscore.Internal_Hbond.Weighted>
0.0000

> <Gold.Chemscore.DEClash.Weighted>
0.0089

> <Gold.Chemscore.DEInternal.Weighted>
0.6102

> <Gold.Chemscore.Rot.Weighted>
4.4733

> <Gold.Chemscore.Internal.Correction.Weighted>
   9.000000E+99

> <Gold.Protein.RotatedTorsions>
[ 6907 6896 6895 6894 ] final  -29.70 input  -60.11 | X-H torsion
[ 7974 7965 7964 7962 ] final   53.90 input  175.53 | X-H torsion
[ 8008 7997 7996 7995 ] final  101.17 input   59.86 | X-H torsion
[ 10167 10162 10161 10158 ] final  -92.59 input  -65.29 | X-H torsion
[ 10718 10713 10712 10709 ] final    6.68 input   66.30 | X-H torsion
[ 10763 10752 10751 10750 ] final  -19.64 input  -60.55 | X-H torsion
[ 11005 11000 10999 10996 ] final -116.27 input  -57.11 | X-H torsion

> <Gold.Protein.ActiveResidues>
 VAL166  LYS551  ARG553  GLY616  TRP617  ASP618  TYR619  PRO620  LYS621  CYS622 
 ASP623  PHE694  ASN695  SER759  ASP760  ASP761  ALA762  ILE779  LEU786  VAL792 
 PHE793  MET794  SER795  GLU796  ALA797  LYS798  CYS799  TRP800  GLU811  SER814 

> <Gold.Protein.RotatedAtoms>
  151.1156  135.0051  159.8514 H   0  0  0  0  0  0  0  0  0  0  0  0  # atno 6907 bound_to 6896
  152.5445  134.1784  159.8635 H   0  0  0  0  0  0  0  0  0  0  0  0  # atno 6908 bound_to 6896
  151.1838  133.4664  159.2627 H   0  0  0  0  0  0  0  0  0  0  0  0  # atno 6909 bound_to 6896
  145.9664  139.4107  143.0217 H   0  0  0  0  0  0  0  0  0  0  0  0  # atno 7974 bound_to 7965
  156.1274  140.3201  155.8297 H   0  0  0  0  0  0  0  0  0  0  0  0  # atno 8008 bound_to 7997
  155.4395  140.0524  157.3029 H   0  0  0  0  0  0  0  0  0  0  0  0  # atno 8009 bound_to 7997
  154.4873  140.2078  155.9640 H   0  0  0  0  0  0  0  0  0  0  0  0  # atno 8010 bound_to 7997
  140.3332  143.2983  151.9918 H   0  0  0  0  0  0  0  0  0  0  0  0  # atno 10167 bound_to 10162
  156.9257  130.5807  149.5648 H   0  0  0  0  0  0  0  0  0  0  0  0  # atno 10718 bound_to 10713
  153.6079  135.6997  153.5358 H   0  0  0  0  0  0  0  0  0  0  0  0  # atno 10763 bound_to 10752
  153.3041  135.4120  155.1278 H   0  0  0  0  0  0  0  0  0  0  0  0  # atno 10764 bound_to 10752
  154.8569  135.3656  154.5617 H   0  0  0  0  0  0  0  0  0  0  0  0  # atno 10765 bound_to 10752
  141.0433  133.9801  157.2959 H   0  0  0  0  0  0  0  0  0  0  0  0  # atno 11005 bound_to 11000
  145.7968  140.9789  143.1020 LP  0  0  0  0  0  0  0  0  0  0  0  0  # atno 17320 bound_to 7965
  144.6826  139.9751  143.7482 LP  0  0  0  0  0  0  0  0  0  0  0  0  # atno 17321 bound_to 7965
  139.4853  144.6217  151.7241 LP  0  0  0  0  0  0  0  0  0  0  0  0  # atno 17342 bound_to 10162
  140.5377  144.0629  150.6077 LP  0  0  0  0  0  0  0  0  0  0  0  0  # atno 17343 bound_to 10162
  156.0470  130.5545  150.8904 LP  0  0  0  0  0  0  0  0  0  0  0  0  # atno 17370 bound_to 10713
  157.5879  131.0945  150.9166 LP  0  0  0  0  0  0  0  0  0  0  0  0  # atno 17371 bound_to 10713
  139.9292  135.0200  156.8343 LP  0  0  0  0  0  0  0  0  0  0  0  0  # atno 17394 bound_to 11000
  140.6193  134.0008  155.7611 LP  0  0  0  0  0  0  0  0  0  0  0  0  # atno 17395 bound_to 11000

$$$$
