AV-unprocessed.smi:1444|AV-procd|sdf|5883|dock1
  -GOLD-   22720 5563D 1   1.00000     0.00000
 Structure written by MMmdl.
 44 45  0  0  0  0  0  0  0  0  2 V2000
  152.0276  145.7019  159.6401 C   0  0  0  0  0  0  0  0  0  0  0  0
  151.7141  144.4767  158.9866 O   0  0  0  0  0  0  0  0  0  0  0  0
  152.2663  143.3073  159.4742 C   0  0  0  0  0  0  0  0  0  0  0  0
  153.1870  143.3955  160.4665 N   0  0  0  0  0  0  0  0  0  0  0  0
  153.7272  142.2566  160.9450 C   0  0  0  0  0  0  0  0  0  0  0  0
  153.3793  140.9805  160.4668 C   0  0  0  0  0  0  0  0  0  0  0  0
  152.4248  140.8856  159.4374 C   0  0  0  0  0  0  0  0  0  0  0  0
  151.8492  142.0732  158.9208 C   0  0  0  0  0  0  0  0  0  0  0  0
  150.8760  142.1152  157.8817 N   0  0  0  0  0  0  0  0  0  0  0  0
  150.1644  141.1214  157.3235 C   0  0  0  0  0  0  0  0  0  0  0  0
  150.2168  139.9330  157.6366 O   0  0  0  0  0  0  0  0  0  0  0  0
  149.3555  141.5944  156.3640 N   0  0  0  0  0  0  0  0  0  0  0  0
  148.4617  140.8018  155.5185 C   0  0  2  0  0  0  0  0  0  0  0  0
  149.2756  139.6930  154.8377 C   0  0  0  0  0  0  0  0  0  0  0  0
  147.7398  141.6859  154.4757 C   0  0  0  0  0  0  0  0  0  0  0  0
  146.8481  142.7019  155.0901 N   0  3  0  0  0  0  0  0  0  0  0  0
  145.8361  143.2323  154.1472 C   0  0  0  0  0  0  0  0  0  0  0  0
  145.0004  144.3307  154.8268 C   0  0  0  0  0  0  0  0  0  0  0  0
  144.3911  143.8099  156.0019 O   0  0  0  0  0  0  0  0  0  0  0  0
  145.3544  143.3688  156.9514 C   0  0  0  0  0  0  0  0  0  0  0  0
  146.1985  142.2384  156.3405 C   0  0  0  0  0  0  0  0  0  0  0  0
  151.5167  146.5204  159.1333 H   0  0  0  0  0  0  0  0  0  0  0  0
  153.0982  145.9096  159.6070 H   0  0  0  0  0  0  0  0  0  0  0  0
  151.6944  145.6977  160.6789 H   0  0  0  0  0  0  0  0  0  0  0  0
  154.4578  142.3659  161.7327 H   0  0  0  0  0  0  0  0  0  0  0  0
  153.8356  140.0935  160.8804 H   0  0  0  0  0  0  0  0  0  0  0  0
  152.1628  139.9048  159.0766 H   0  0  0  0  0  0  0  0  0  0  0  0
  150.7119  143.0358  157.5004 H   0  0  0  0  0  0  0  0  0  0  0  0
  149.3804  142.5871  156.1810 H   0  0  0  0  0  0  0  0  0  0  0  0
  147.7212  140.3057  156.1475 H   0  0  0  0  0  0  0  0  0  0  0  0
  148.6355  139.0561  154.2265 H   0  0  0  0  0  0  0  0  0  0  0  0
  149.7648  139.0550  155.5747 H   0  0  0  0  0  0  0  0  0  0  0  0
  150.0491  140.1065  154.1894 H   0  0  0  0  0  0  0  0  0  0  0  0
  148.4998  142.1916  153.8777 H   0  0  0  0  0  0  0  0  0  0  0  0
  147.1664  141.0727  153.7788 H   0  0  0  0  0  0  0  0  0  0  0  0
  146.3282  143.6417  153.2642 H   0  0  0  0  0  0  0  0  0  0  0  0
  145.1883  142.4218  153.8091 H   0  0  0  0  0  0  0  0  0  0  0  0
  145.6201  145.1938  155.0759 H   0  0  0  0  0  0  0  0  0  0  0  0
  144.2209  144.6826  154.1505 H   0  0  0  0  0  0  0  0  0  0  0  0
  145.9864  144.2022  157.2628 H   0  0  0  0  0  0  0  0  0  0  0  0
  144.8361  143.0114  157.8415 H   0  0  0  0  0  0  0  0  0  0  0  0
  145.5670  141.3742  156.1292 H   0  0  0  0  0  0  0  0  0  0  0  0
  146.9481  141.9166  157.0628 H   0  0  0  0  0  0  0  0  0  0  0  0
  147.4378  143.4836  155.3394 H   0  0  0  0  0  0  0  0  0  0  0  0
  1  2  1  0  0  0  0
  1 22  1  0  0  0  0
  1 23  1  0  0  0  0
  1 24  1  0  0  0  0
  2  3  1  0  0  0  0
  3  8  1  0  0  0  0
  3  4  2  0  0  0  0
  4  5  1  0  0  0  0
  5  6  2  0  0  0  0
  5 25  1  0  0  0  0
  6  7  1  0  0  0  0
  6 26  1  0  0  0  0
  7  8  2  0  0  0  0
  7 27  1  0  0  0  0
  8  9  1  0  0  0  0
  9 10  1  0  0  0  0
  9 28  1  0  0  0  0
 10 11  2  0  0  0  0
 10 12  1  0  0  0  0
 12 13  1  0  0  0  0
 12 29  1  0  0  0  0
 13 14  1  0  0  0  0
 13 15  1  0  0  0  0
 13 30  1  0  0  0  0
 14 31  1  0  0  0  0
 14 32  1  0  0  0  0
 14 33  1  0  0  0  0
 15 16  1  0  0  0  0
 15 34  1  0  0  0  0
 15 35  1  0  0  0  0
 16 21  1  0  0  0  0
 16 17  1  0  0  0  0
 16 44  1  0  0  0  0
 17 18  1  0  0  0  0
 17 36  1  0  0  0  0
 17 37  1  0  0  0  0
 18 19  1  0  0  0  0
 18 38  1  0  0  0  0
 18 39  1  0  0  0  0
 19 20  1  0  0  0  0
 20 21  1  0  0  0  0
 20 40  1  0  0  0  0
 20 41  1  0  0  0  0
 21 42  1  0  0  0  0
 21 43  1  0  0  0  0
M  CHG  1  16   1
M  END
> <s_m_source_file>
AV-unprocessed.smi

> <i_m_source_file_index>
1444

> <i_lp_mmshare_version>
43012

> <i_f3d_flags>
0

> <s_epik_input>
W0NIM11PYzFuW2NIXVtjSF1bY0hdYzFbTkhdQyg9TylbTkhdW0NASF0oW0NIM10pW0NIMl1OMltDSDJdW0NIMl1PW0NIMl1bQ0gyXTI=

> <s_epik_cmdline>
J2VwaWtfcHl0aG9uJywgJy1waCcsICc3LjAnLCAnLXRuJywgJzgnLCAnLW1hJywgJzIwMCcsICctbWV0YWxfYmluZGluZycsICctaW1hZScsICc8aW5maWxlLm1hZT4nLCAnLW9tYWUnLCAnPG91dGZpbGUubWFlPic=

> <r_lp_tautomer_probability>
1

> <r_epik_Ionization_Penalty>
0.602604

> <r_epik_Ionization_Penalty_Charging>
0.602531

> <r_epik_Ionization_Penalty_Neutral>
7.37688e-05

> <r_epik_State_Penalty>
0.617039

> <r_epik_Charging_Adjusted_Penalty>
1.21957

> <i_epik_Tot_Q>
1

> <i_epik_Tot_abs_Q>
1

> <r_epik_Metal_State_Penalty>
0.617045

> <b_epik_Metal_Only>
0

> <s_lp_Force_Field>
OPLS_2005

> <r_lp_Energy>
24.7121

> <b_lp_Chiralities_Consistent>
1

> <s_lp_Variant>
AV-unprocessed.smi:1444-3

> <Gold.Version>
5.8.1

> <Gold.Id.Protein>
6NUR|6NUR_protein|mol2

> <Gold.PLP.Fitness>
47.5256

> <Gold.PLP.PLP>
-40.7525

> <Gold.PLP.part.hbond>
-1.2896

> <Gold.PLP.part.metal>
0.0000

> <Gold.PLP.part.buried>
-5.7887

> <Gold.PLP.part.nonpolar>
-32.9107

> <Gold.PLP.part.repulsive>
0.4755

> <Gold.PLP.ligand.clash>
0.0000

> <Gold.PLP.ligand.torsion>
0.3357

> <Gold.PLP.Chemscore.Hbond>
2.4550

> <Gold.PLP.Chemscore.CHOScore>
0.0000

> <Gold.PLP.Chemscore.Metal>
0.0000

> <Gold.Chemscore.Hbonds>
donor molecule, donor type, donor heavy atom, donor atom, acceptor molecule, acceptor atom, score
      L1  H    12    29       P1  8028  0.46
      L1  H    16    44       P1  8028  1.30

> <Gold.PLP.Chemscore.Internal.Correction>
0.0794

> <Gold.Rescore>
     Score         DG    S(hbond)    S(metal)    S(lipo)     H(rot)  DE(clash)    DE(int)     intcor
     12.45     -14.18       0.98        0.00      85.20       1.78       0.38       1.35       ----

> <Gold.Chemscore.Fitness>
12.4521

> <Gold.Chemscore.DG>
-14.1803

> <Gold.Chemscore.ZeroCoef>
-5.4800

> <Gold.Chemscore.Hbond>
0.9848

> <Gold.Chemscore.Metal>
0.0000

> <Gold.Chemscore.Lipo>
85.1967

> <Gold.Chemscore.Internal_Hbond>
0.0000

> <Gold.Chemscore.DEClash>
0.3792

> <Gold.Chemscore.DEInternal>
1.3490

> <Gold.Chemscore.Rot>
1.7801

> <Gold.Chemscore.Internal.Correction>
   9.000000E+99

> <Gold.Chemscore.Hbonds>
donor molecule, donor type, donor heavy atom, donor atom, acceptor molecule, acceptor atom, score
      L1  H    12    29       P1  8028  0.46
      L1  H    16    44       P1  8028  0.06

> <Gold.Chemscore.Hbond.Weighted>
-3.2893

> <Gold.Chemscore.Metal.Weighted>
-0.0000

> <Gold.Chemscore.Lipo.Weighted>
-9.9680

> <Gold.Chemscore.Internal_Hbond.Weighted>
0.0000

> <Gold.Chemscore.DEClash.Weighted>
0.3792

> <Gold.Chemscore.DEInternal.Weighted>
1.3490

> <Gold.Chemscore.Rot.Weighted>
4.5570

> <Gold.Chemscore.Internal.Correction.Weighted>
   9.000000E+99

> <Gold.Protein.RotatedTorsions>
[ 6907 6896 6895 6894 ] final  -20.98 input  -60.11 | X-H torsion
[ 7974 7965 7964 7962 ] final   24.03 input  175.53 | X-H torsion
[ 8008 7997 7996 7995 ] final -151.78 input   59.86 | X-H torsion
[ 10167 10162 10161 10158 ] final  178.78 input  -65.29 | X-H torsion
[ 10718 10713 10712 10709 ] final   84.33 input   66.30 | X-H torsion
[ 10763 10752 10751 10750 ] final  -14.60 input  -60.55 | X-H torsion
[ 11005 11000 10999 10996 ] final  146.31 input  -57.11 | X-H torsion

> <Gold.Protein.ActiveResidues>
 VAL166  LYS551  ARG553  GLY616  TRP617  ASP618  TYR619  PRO620  LYS621  CYS622 
 ASP623  PHE694  ASN695  SER759  ASP760  ASP761  ALA762  ILE779  LEU786  VAL792 
 PHE793  MET794  SER795  GLU796  ALA797  LYS798  CYS799  TRP800  GLU811  SER814 

> <Gold.Protein.RotatedAtoms>
  151.2402  135.0586  159.9021 H   0  0  0  0  0  0  0  0  0  0  0  0  # atno 6907 bound_to 6896
  152.5394  134.0443  159.8091 H   0  0  0  0  0  0  0  0  0  0  0  0  # atno 6908 bound_to 6896
  151.0635  133.5475  159.2664 H   0  0  0  0  0  0  0  0  0  0  0  0  # atno 6909 bound_to 6896
  146.1957  139.7662  142.8799 H   0  0  0  0  0  0  0  0  0  0  0  0  # atno 7974 bound_to 7965
  155.6448  140.0705  157.2606 H   0  0  0  0  0  0  0  0  0  0  0  0  # atno 8008 bound_to 7997
  154.4175  140.1744  156.1661 H   0  0  0  0  0  0  0  0  0  0  0  0  # atno 8009 bound_to 7997
  155.9826  140.3352  155.6680 H   0  0  0  0  0  0  0  0  0  0  0  0  # atno 8010 bound_to 7997
  139.5308  144.2639  152.0684 H   0  0  0  0  0  0  0  0  0  0  0  0  # atno 10167 bound_to 10162
  157.6896  131.0129  150.2657 H   0  0  0  0  0  0  0  0  0  0  0  0  # atno 10718 bound_to 10713
  153.5307  135.7014  153.5685 H   0  0  0  0  0  0  0  0  0  0  0  0  # atno 10763 bound_to 10752
  153.3694  135.3949  155.1777 H   0  0  0  0  0  0  0  0  0  0  0  0  # atno 10764 bound_to 10752
  154.8685  135.3808  154.4803 H   0  0  0  0  0  0  0  0  0  0  0  0  # atno 10765 bound_to 10752
  140.0783  134.9112  157.1459 H   0  0  0  0  0  0  0  0  0  0  0  0  # atno 11005 bound_to 11000
  145.3652  141.0333  143.3262 LP  0  0  0  0  0  0  0  0  0  0  0  0  # atno 17320 bound_to 7965
  144.8575  139.5227  143.6828 LP  0  0  0  0  0  0  0  0  0  0  0  0  # atno 17321 bound_to 7965
  140.2102  144.4570  150.6389 LP  0  0  0  0  0  0  0  0  0  0  0  0  # atno 17342 bound_to 10162
  140.6485  143.2219  151.6131 LP  0  0  0  0  0  0  0  0  0  0  0  0  # atno 17343 bound_to 10162
  156.3229  130.3788  149.7559 LP  0  0  0  0  0  0  0  0  0  0  0  0  # atno 17370 bound_to 10713
  156.5124  130.8178  151.3173 LP  0  0  0  0  0  0  0  0  0  0  0  0  # atno 17371 bound_to 10713
  140.3525  134.2583  155.7196 LP  0  0  0  0  0  0  0  0  0  0  0  0  # atno 17394 bound_to 11000
  141.2037  133.7904  157.0323 LP  0  0  0  0  0  0  0  0  0  0  0  0  # atno 17395 bound_to 11000

$$$$
