AV-unprocessed.smi:1056|AV-procd|sdf|4649|dock3
  -GOLD-   22720 3153D 1   1.00000     0.00000
 Structure written by MMmdl.
 45 47  0  0  0  0  0  0  0  0  4 V2000
  152.0695  143.3114  160.5905 C   0  0  0  0  0  0  0  0  0  0  0  0
  151.7772  142.4962  159.3422 C   0  0  0  0  0  0  0  0  0  0  0  0
  150.8679  143.0172  158.3947 C   0  0  0  0  0  0  0  0  0  0  0  0
  150.6212  142.2488  157.2632 C   0  0  0  0  0  0  0  0  0  0  0  0
  149.7907  142.4820  156.1654 N   0  3  0  0  0  0  0  0  0  0  0  0
  149.8798  141.4365  155.2980 C   0  0  0  0  0  0  0  0  0  0  0  0
  150.7528  140.5363  155.8268 N   0  0  0  0  0  0  0  0  0  0  0  0
  151.2053  139.2479  155.2835 C   0  0  0  0  0  0  0  0  0  0  0  0
  150.0399  138.3110  154.9105 C   0  0  1  0  0  0  0  0  0  0  0  0
  149.7094  138.5706  153.5611 O   0  0  0  0  0  0  0  0  0  0  0  0
  150.3796  136.8121  155.0669 C   0  0  0  0  0  0  0  0  0  0  0  0
  149.3228  135.9207  154.5237 N   0  3  1  0  0  0  0  0  0  0  0  0
  149.6299  134.4812  154.7245 C   0  0  0  0  0  0  0  0  0  0  0  0
  148.6816  133.6090  153.8800 C   0  0  0  0  0  0  0  0  0  0  0  0
  147.2927  134.0495  154.0557 N   0  5  0  0  0  0  0  0  0  0  0  0
  146.8776  135.2892  154.4626 C   0  0  0  0  0  0  0  0  0  0  0  0
  145.7138  135.6835  154.4737 O   0  0  0  0  0  0  0  0  0  0  0  0
  147.9541  136.2668  155.0058 C   0  0  0  0  0  0  0  0  0  0  0  0
  151.2436  141.0024  157.0536 C   0  0  0  0  0  0  0  0  0  0  0  0
  152.1413  140.4742  157.9794 C   0  0  0  0  0  0  0  0  0  0  0  0
  152.4046  141.2402  159.1377 C   0  0  0  0  0  0  0  0  0  0  0  0
  153.3806  140.6896  160.1639 C   0  0  0  0  0  0  0  0  0  0  0  0
  151.5529  144.2715  160.5700 H   0  0  0  0  0  0  0  0  0  0  0  0
  153.1375  143.5111  160.6792 H   0  0  0  0  0  0  0  0  0  0  0  0
  151.7418  142.7753  161.4813 H   0  0  0  0  0  0  0  0  0  0  0  0
  150.3867  143.9728  158.5441 H   0  0  0  0  0  0  0  0  0  0  0  0
  149.3547  141.3403  154.3584 H   0  0  0  0  0  0  0  0  0  0  0  0
  151.7977  139.4730  154.3954 H   0  0  0  0  0  0  0  0  0  0  0  0
  151.8877  138.7719  155.9875 H   0  0  0  0  0  0  0  0  0  0  0  0
  149.1805  138.5776  155.5246 H   0  0  0  0  0  0  0  0  0  0  0  0
  149.4870  137.7562  153.1361 H   0  0  0  0  0  0  0  0  0  0  0  0
  151.3253  136.6208  154.5575 H   0  0  0  0  0  0  0  0  0  0  0  0
  150.5422  136.5531  156.1134 H   0  0  0  0  0  0  0  0  0  0  0  0
  150.6586  134.2650  154.4338 H   0  0  0  0  0  0  0  0  0  0  0  0
  149.5402  134.2332  155.7836 H   0  0  0  0  0  0  0  0  0  0  0  0
  148.9801  133.6853  152.8341 H   0  0  0  0  0  0  0  0  0  0  0  0
  148.8159  132.5623  154.1515 H   0  0  0  0  0  0  0  0  0  0  0  0
  147.9250  136.2410  156.0962 H   0  0  0  0  0  0  0  0  0  0  0  0
  147.6880  137.2778  154.6989 H   0  0  0  0  0  0  0  0  0  0  0  0
  152.6215  139.5189  157.8292 H   0  0  0  0  0  0  0  0  0  0  0  0
  153.7290  139.6934  159.8898 H   0  0  0  0  0  0  0  0  0  0  0  0
  152.9093  140.6179  161.1445 H   0  0  0  0  0  0  0  0  0  0  0  0
  154.2536  141.3376  160.2455 H   0  0  0  0  0  0  0  0  0  0  0  0
  149.3170  136.0493  153.5222 H   0  0  0  0  0  0  0  0  0  0  0  0
  149.2081  143.2957  156.0146 H   0  0  0  0  0  0  0  0  0  0  0  0
  1  2  1  0  0  0  0
  1 23  1  0  0  0  0
  1 24  1  0  0  0  0
  1 25  1  0  0  0  0
  2 21  1  0  0  0  0
  2  3  2  0  0  0  0
  3  4  1  0  0  0  0
  3 26  1  0  0  0  0
  4 19  2  0  0  0  0
  4  5  1  0  0  0  0
  5  6  2  0  0  0  0
  5 45  1  0  0  0  0
  6  7  1  0  0  0  0
  6 27  1  0  0  0  0
  7  8  1  0  0  0  0
  7 19  1  0  0  0  0
  8  9  1  0  0  0  0
  8 28  1  0  0  0  0
  8 29  1  0  0  0  0
  9 10  1  0  0  0  0
  9 11  1  0  0  0  0
  9 30  1  0  0  0  0
 10 31  1  0  0  0  0
 11 12  1  0  0  0  0
 11 32  1  0  0  0  0
 11 33  1  0  0  0  0
 12 18  1  0  0  0  0
 12 13  1  0  0  0  0
 12 44  1  0  0  0  0
 13 14  1  0  0  0  0
 13 34  1  0  0  0  0
 13 35  1  0  0  0  0
 14 15  1  0  0  0  0
 14 36  1  0  0  0  0
 14 37  1  0  0  0  0
 15 16  1  0  0  0  0
 16 17  2  0  0  0  0
 16 18  1  0  0  0  0
 18 38  1  0  0  0  0
 18 39  1  0  0  0  0
 19 20  1  0  0  0  0
 20 21  2  0  0  0  0
 20 40  1  0  0  0  0
 21 22  1  0  0  0  0
 22 41  1  0  0  0  0
 22 42  1  0  0  0  0
 22 43  1  0  0  0  0
M  CHG  1   5   1
M  CHG  1  12   1
M  CHG  1  15  -1
M  END
> <s_m_source_file>
AV-unprocessed.smi

> <i_m_source_file_index>
1056

> <i_lp_mmshare_version>
43012

> <i_f3d_flags>
0

> <s_epik_input>
W0NIM11jKFtjSF0xKWMoW0NIM10pW2NIXWMoYzEyKW4oW2NIXW4yKVtDSDJdW0NASF0oW09IXSlbQ0gyXU4zW0NIMl1bQ0gyXVtOSF1DKD1PKVtDSDJdMw==

> <s_epik_cmdline>
J2VwaWtfcHl0aG9uJywgJy1waCcsICc3LjAnLCAnLXRuJywgJzgnLCAnLW1hJywgJzIwMCcsICctbWV0YWxfYmluZGluZycsICctaW1hZScsICc8aW5maWxlLm1hZT4nLCAnLW9tYWUnLCAnPG91dGZpbGUubWFlPic=

> <r_epik_Ionization_Penalty>
6.22415

> <r_epik_Ionization_Penalty_Charging>
6.22415

> <r_epik_Ionization_Penalty_Neutral>
4.02797e-07

> <r_epik_State_Penalty>
6.37716

> <r_epik_Charging_Adjusted_Penalty>
12.6013

> <i_epik_Tot_Q>
1

> <i_epik_Tot_abs_Q>
3

> <r_epik_Metal_State_Penalty>
2.53509

> <b_epik_Metal_Only>
1

> <s_lp_Force_Field>
OPLS_2005

> <r_lp_Energy>
28.923

> <b_lp_Chiralities_Consistent>
1

> <s_lp_Variant>
AV-unprocessed.smi:1056-20

> <Gold.Version>
5.8.1

> <Gold.Id.Protein>
6NUR|6NUR_protein|mol2

> <Gold.PLP.Fitness>
56.4967

> <Gold.PLP.PLP>
-42.4277

> <Gold.PLP.part.hbond>
-4.0138

> <Gold.PLP.part.metal>
0.0000

> <Gold.PLP.part.buried>
-4.1366

> <Gold.PLP.part.nonpolar>
-34.2222

> <Gold.PLP.part.repulsive>
0.2900

> <Gold.PLP.ligand.clash>
0.0000

> <Gold.PLP.ligand.torsion>
0.4935

> <Gold.PLP.Chemscore.Hbond>
5.0000

> <Gold.PLP.Chemscore.CHOScore>
0.0000

> <Gold.PLP.Chemscore.Metal>
0.0000

> <Gold.Chemscore.Hbonds>
donor molecule, donor type, donor heavy atom, donor atom, acceptor molecule, acceptor atom, score
      L1  H     5    45       P1  8028  1.85
      L1  H    10    31       P1  7948  1.00
      L1  H    12    44       P1  7948  2.00

> <Gold.PLP.Chemscore.Internal.Correction>
0.0559

> <Gold.Rescore>
     Score         DG    S(hbond)    S(metal)    S(lipo)     H(rot)  DE(clash)    DE(int)     intcor
     20.36     -20.92       2.86        0.00     102.24       2.37       0.18       0.39       ----

> <Gold.Chemscore.Fitness>
20.3562

> <Gold.Chemscore.DG>
-20.9229

> <Gold.Chemscore.ZeroCoef>
-5.4800

> <Gold.Chemscore.Hbond>
2.8604

> <Gold.Chemscore.Metal>
0.0000

> <Gold.Chemscore.Lipo>
102.2450

> <Gold.Chemscore.Internal_Hbond>
0.0000

> <Gold.Chemscore.DEClash>
0.1775

> <Gold.Chemscore.DEInternal>
0.3892

> <Gold.Chemscore.Rot>
2.3724

> <Gold.Chemscore.Internal.Correction>
   9.000000E+99

> <Gold.Chemscore.Hbonds>
donor molecule, donor type, donor heavy atom, donor atom, acceptor molecule, acceptor atom, score
      L1  H     5    45       P1  8028  0.88
      L1  H    10    31       P1  7948  0.86
      L1  H    12    44       P1  7948  0.70

> <Gold.Chemscore.Hbond.Weighted>
-9.5536

> <Gold.Chemscore.Metal.Weighted>
-0.0000

> <Gold.Chemscore.Lipo.Weighted>
-11.9627

> <Gold.Chemscore.Internal_Hbond.Weighted>
0.0000

> <Gold.Chemscore.DEClash.Weighted>
0.1775

> <Gold.Chemscore.DEInternal.Weighted>
0.3892

> <Gold.Chemscore.Rot.Weighted>
6.0734

> <Gold.Chemscore.Internal.Correction.Weighted>
   9.000000E+99

> <Gold.Protein.RotatedTorsions>
[ 6907 6896 6895 6894 ] final -109.81 input  -60.11 | X-H torsion
[ 7974 7965 7964 7962 ] final  -97.29 input  175.53 | X-H torsion
[ 8008 7997 7996 7995 ] final  141.59 input   59.86 | X-H torsion
[ 10167 10162 10161 10158 ] final  -47.07 input  -65.29 | X-H torsion
[ 10718 10713 10712 10709 ] final -106.75 input   66.30 | X-H torsion
[ 10763 10752 10751 10750 ] final  154.22 input  -60.55 | X-H torsion
[ 11005 11000 10999 10996 ] final  -71.65 input  -57.11 | X-H torsion

> <Gold.Protein.ActiveResidues>
 VAL166  LYS551  ARG553  GLY616  TRP617  ASP618  TYR619  PRO620  LYS621  CYS622 
 ASP623  PHE694  ASN695  SER759  ASP760  ASP761  ALA762  ILE779  LEU786  VAL792 
 PHE793  MET794  SER795  GLU796  ALA797  LYS798  CYS799  TRP800  GLU811  SER814 

> <Gold.Protein.RotatedAtoms>
  150.7585  133.9474  159.3474 H   0  0  0  0  0  0  0  0  0  0  0  0  # atno 6907 bound_to 6896
  151.7388  135.0857  160.0322 H   0  0  0  0  0  0  0  0  0  0  0  0  # atno 6908 bound_to 6896
  152.3542  133.6179  159.6003 H   0  0  0  0  0  0  0  0  0  0  0  0  # atno 6909 bound_to 6896
  145.3357  140.9450  143.2636 H   0  0  0  0  0  0  0  0  0  0  0  0  # atno 7974 bound_to 7965
  156.2963  140.2311  156.4589 H   0  0  0  0  0  0  0  0  0  0  0  0  # atno 8008 bound_to 7997
  154.8036  140.0447  157.1311 H   0  0  0  0  0  0  0  0  0  0  0  0  # atno 8009 bound_to 7997
  154.9505  140.3041  155.5081 H   0  0  0  0  0  0  0  0  0  0  0  0  # atno 8010 bound_to 7997
  140.6791  143.2801  151.3873 H   0  0  0  0  0  0  0  0  0  0  0  0  # atno 10167 bound_to 10162
  156.0404  130.5628  150.7724 H   0  0  0  0  0  0  0  0  0  0  0  0  # atno 10718 bound_to 10713
  154.1488  135.2816  155.3141 H   0  0  0  0  0  0  0  0  0  0  0  0  # atno 10763 bound_to 10752
  154.6233  135.5460  153.7602 H   0  0  0  0  0  0  0  0  0  0  0  0  # atno 10764 bound_to 10752
  153.0227  135.6444  154.1632 H   0  0  0  0  0  0  0  0  0  0  0  0  # atno 10765 bound_to 10752
  141.1596  133.6823  156.6938 H   0  0  0  0  0  0  0  0  0  0  0  0  # atno 11005 bound_to 11000
  144.8829  139.4879  143.6714 LP  0  0  0  0  0  0  0  0  0  0  0  0  # atno 17320 bound_to 7965
  146.3028  139.7480  142.9079 LP  0  0  0  0  0  0  0  0  0  0  0  0  # atno 17321 bound_to 7965
  139.6101  144.1115  152.2290 LP  0  0  0  0  0  0  0  0  0  0  0  0  # atno 17342 bound_to 10162
  140.0527  144.5920  150.7324 LP  0  0  0  0  0  0  0  0  0  0  0  0  # atno 17343 bound_to 10162
  157.5214  131.0931  151.0073 LP  0  0  0  0  0  0  0  0  0  0  0  0  # atno 17370 bound_to 10713
  157.0402  130.5746  149.5355 LP  0  0  0  0  0  0  0  0  0  0  0  0  # atno 17371 bound_to 10713
  140.3010  134.8163  157.4098 LP  0  0  0  0  0  0  0  0  0  0  0  0  # atno 17394 bound_to 11000
  140.1262  134.5155  155.8143 LP  0  0  0  0  0  0  0  0  0  0  0  0  # atno 17395 bound_to 11000

$$$$
