AV-unprocessed.smi:1636|AV-procd|sdf|6542|dock8
  -GOLD-   22720 7223D 1   1.00000     0.00000
 Structure written by MMmdl.
 43 44  0  0  0  0  0  0  0  0  1 V2000
  153.4695  141.9163  160.8797 C   0  0  0  0  0  0  0  0  0  0  0  0
  152.4585  142.6270  159.9736 C   0  0  2  0  0  0  0  0  0  0  0  0
  151.9510  141.7121  158.8425 C   0  0  0  0  0  0  0  0  0  0  0  0
  151.0711  142.4538  157.9417 N   0  0  0  0  0  0  0  0  0  0  0  0
  150.3179  141.7194  157.0004 C   0  0  0  0  0  0  0  0  0  0  0  0
  148.9115  141.6350  157.1279 C   0  0  0  0  0  0  0  0  0  0  0  0
  148.1791  140.8993  156.1772 C   0  0  0  0  0  0  0  0  0  0  0  0
  148.8635  140.2628  155.1234 C   0  0  0  0  0  0  0  0  0  0  0  0
  148.0784  139.4748  154.0815 C   0  0  0  0  0  0  0  0  0  0  0  0
  148.3933  138.0510  154.0097 N   0  0  0  0  0  0  0  0  0  0  0  0
  148.6306  137.2633  155.0679 C   0  0  0  0  0  0  0  0  0  0  0  0
  148.6234  137.6556  156.2349 O   0  0  0  0  0  0  0  0  0  0  0  0
  148.8847  135.9996  154.7009 N   0  0  0  0  0  0  0  0  0  0  0  0
  149.2029  134.9078  155.6150 C   0  0  0  0  0  0  0  0  0  0  0  0
  150.5077  135.1718  156.3862 C   0  0  0  0  0  0  0  0  0  0  0  0
  151.3659  135.9933  155.6235 O   0  0  0  0  0  0  0  0  0  0  0  0
  150.2680  140.4029  155.0762 C   0  0  0  0  0  0  0  0  0  0  0  0
  150.9759  141.1044  155.9866 N   0  0  0  0  0  0  0  0  0  0  0  0
  151.6642  143.6917  157.4430 C   0  0  0  0  0  0  0  0  0  0  0  0
  152.1946  144.5400  158.6114 C   0  0  0  0  0  0  0  0  0  0  0  0
  153.0926  143.7672  159.4012 O   0  0  0  0  0  0  0  0  0  0  0  0
  153.0232  141.0424  161.3550 H   0  0  0  0  0  0  0  0  0  0  0  0
  153.8193  142.5816  161.6693 H   0  0  0  0  0  0  0  0  0  0  0  0
  154.3401  141.5826  160.3144 H   0  0  0  0  0  0  0  0  0  0  0  0
  151.6164  142.9557  160.5856 H   0  0  0  0  0  0  0  0  0  0  0  0
  152.7927  141.3124  158.2749 H   0  0  0  0  0  0  0  0  0  0  0  0
  151.4158  140.8651  159.2741 H   0  0  0  0  0  0  0  0  0  0  0  0
  148.3918  142.1112  157.9459 H   0  0  0  0  0  0  0  0  0  0  0  0
  147.1047  140.8244  156.2597 H   0  0  0  0  0  0  0  0  0  0  0  0
  147.0093  139.6035  154.2606 H   0  0  0  0  0  0  0  0  0  0  0  0
  148.2796  139.9127  153.1037 H   0  0  0  0  0  0  0  0  0  0  0  0
  148.4238  137.6361  153.0898 H   0  0  0  0  0  0  0  0  0  0  0  0
  148.8716  135.7767  153.7164 H   0  0  0  0  0  0  0  0  0  0  0  0
  148.3804  134.7957  156.3236 H   0  0  0  0  0  0  0  0  0  0  0  0
  149.2515  133.9677  155.0642 H   0  0  0  0  0  0  0  0  0  0  0  0
  150.3274  135.6158  157.3662 H   0  0  0  0  0  0  0  0  0  0  0  0
  151.0280  134.2292  156.5569 H   0  0  0  0  0  0  0  0  0  0  0  0
  151.5766  136.7611  156.1327 H   0  0  0  0  0  0  0  0  0  0  0  0
  150.8499  139.9471  154.2890 H   0  0  0  0  0  0  0  0  0  0  0  0
  152.4804  143.4412  156.7640 H   0  0  0  0  0  0  0  0  0  0  0  0
  150.9476  144.2816  156.8730 H   0  0  0  0  0  0  0  0  0  0  0  0
  152.7216  145.4147  158.2302 H   0  0  0  0  0  0  0  0  0  0  0  0
  151.3738  144.9079  159.2294 H   0  0  0  0  0  0  0  0  0  0  0  0
  1  2  1  0  0  0  0
  1 22  1  0  0  0  0
  1 23  1  0  0  0  0
  1 24  1  0  0  0  0
  2 21  1  0  0  0  0
  2  3  1  0  0  0  0
  2 25  1  0  0  0  0
  3  4  1  0  0  0  0
  3 26  1  0  0  0  0
  3 27  1  0  0  0  0
  4  5  1  0  0  0  0
  4 19  1  0  0  0  0
  5 18  1  0  0  0  0
  5  6  2  0  0  0  0
  6  7  1  0  0  0  0
  6 28  1  0  0  0  0
  7  8  2  0  0  0  0
  7 29  1  0  0  0  0
  8  9  1  0  0  0  0
  8 17  1  0  0  0  0
  9 10  1  0  0  0  0
  9 30  1  0  0  0  0
  9 31  1  0  0  0  0
 10 11  1  0  0  0  0
 10 32  1  0  0  0  0
 11 12  2  0  0  0  0
 11 13  1  0  0  0  0
 13 14  1  0  0  0  0
 13 33  1  0  0  0  0
 14 15  1  0  0  0  0
 14 34  1  0  0  0  0
 14 35  1  0  0  0  0
 15 16  1  0  0  0  0
 15 36  1  0  0  0  0
 15 37  1  0  0  0  0
 16 38  1  0  0  0  0
 17 18  2  0  0  0  0
 17 39  1  0  0  0  0
 19 20  1  0  0  0  0
 19 40  1  0  0  0  0
 19 41  1  0  0  0  0
 20 21  1  0  0  0  0
 20 42  1  0  0  0  0
 20 43  1  0  0  0  0
M  END
> <s_m_source_file>
AV-unprocessed.smi

> <i_m_source_file_index>
1636

> <i_lp_mmshare_version>
43012

> <i_f3d_flags>
0

> <s_epik_input>
W0NIM11bQ0BASF0xW0NIMl1OKFtDSDJdW0NIMl1PMSljMltjSF1bY0hdYyhbY0hdbjIpW0NIMl1bTkhdQyg9TylbTkhdW0NIMl1bQ0gyXVtPSF0=

> <s_epik_cmdline>
J2VwaWtfcHl0aG9uJywgJy1waCcsICc3LjAnLCAnLXRuJywgJzgnLCAnLW1hJywgJzIwMCcsICctbWV0YWxfYmluZGluZycsICctaW1hZScsICc8aW5maWxlLm1hZT4nLCAnLW9tYWUnLCAnPG91dGZpbGUubWFlPic=

> <r_lp_tautomer_probability>
1

> <r_epik_Ionization_Penalty>
0.00695222

> <r_epik_Ionization_Penalty_Charging>
0

> <r_epik_Ionization_Penalty_Neutral>
0.00695222

> <r_epik_State_Penalty>
0.00513345

> <r_epik_Charging_Adjusted_Penalty>
0.00513345

> <i_epik_Tot_Q>
0

> <i_epik_Tot_abs_Q>
0

> <r_epik_Metal_State_Penalty>
-0

> <b_epik_Metal_Only>
0

> <s_lp_Force_Field>
OPLS_2005

> <r_lp_Energy>
15.2616

> <b_lp_Chiralities_Consistent>
1

> <s_lp_Variant>
AV-unprocessed.smi:1636-1

> <Gold.Version>
5.8.1

> <Gold.Id.Protein>
6NUR|6NUR_protein|mol2

> <Gold.PLP.Fitness>
43.7336

> <Gold.PLP.PLP>
-35.4369

> <Gold.PLP.part.hbond>
-3.1210

> <Gold.PLP.part.metal>
0.0000

> <Gold.PLP.part.buried>
-4.8249

> <Gold.PLP.part.nonpolar>
-28.1295

> <Gold.PLP.part.repulsive>
0.1437

> <Gold.PLP.ligand.clash>
0.0000

> <Gold.PLP.ligand.torsion>
0.5212

> <Gold.PLP.Chemscore.Hbond>
3.0000

> <Gold.PLP.Chemscore.CHOScore>
0.0000

> <Gold.PLP.Chemscore.Metal>
0.0000

> <Gold.Chemscore.Hbonds>
donor molecule, donor type, donor heavy atom, donor atom, acceptor molecule, acceptor atom, score
      L1  H    10    32       P1  7948  1.00
      L1  H    13    33       P1  7948  1.00
      P1  H 10752 10764       L1    16  1.00

> <Gold.PLP.Chemscore.Internal.Correction>
0.3391

> <Gold.Rescore>
     Score         DG    S(hbond)    S(metal)    S(lipo)     H(rot)  DE(clash)    DE(int)     intcor
     15.87     -18.08       2.79        0.00      88.98       2.78       0.43       1.78       ----

> <Gold.Chemscore.Fitness>
15.8669

> <Gold.Chemscore.DG>
-18.0771

> <Gold.Chemscore.ZeroCoef>
-5.4800

> <Gold.Chemscore.Hbond>
2.7876

> <Gold.Chemscore.Metal>
0.0000

> <Gold.Chemscore.Lipo>
88.9792

> <Gold.Chemscore.Internal_Hbond>
0.0000

> <Gold.Chemscore.DEClash>
0.4262

> <Gold.Chemscore.DEInternal>
1.7839

> <Gold.Chemscore.Rot>
2.7828

> <Gold.Chemscore.Internal.Correction>
   9.000000E+99

> <Gold.Chemscore.Hbonds>
donor molecule, donor type, donor heavy atom, donor atom, acceptor molecule, acceptor atom, score
      L1  H    10    32       P1  7948  0.96
      L1  H    13    33       P1  7948  0.93
      P1  H 10752 10764       L1    16  0.50

> <Gold.Chemscore.Hbond.Weighted>
-9.3106

> <Gold.Chemscore.Metal.Weighted>
-0.0000

> <Gold.Chemscore.Lipo.Weighted>
-10.4106

> <Gold.Chemscore.Internal_Hbond.Weighted>
0.0000

> <Gold.Chemscore.DEClash.Weighted>
0.4262

> <Gold.Chemscore.DEInternal.Weighted>
1.7839

> <Gold.Chemscore.Rot.Weighted>
7.1241

> <Gold.Chemscore.Internal.Correction.Weighted>
   9.000000E+99

> <Gold.Protein.RotatedTorsions>
[ 6907 6896 6895 6894 ] final   91.18 input  -60.11 | X-H torsion
[ 7974 7965 7964 7962 ] final    0.54 input  175.53 | X-H torsion
[ 8008 7997 7996 7995 ] final  173.66 input   59.86 | X-H torsion
[ 10167 10162 10161 10158 ] final  132.01 input  -65.29 | X-H torsion
[ 10718 10713 10712 10709 ] final  122.42 input   66.30 | X-H torsion
[ 10763 10752 10751 10750 ] final  -52.75 input  -60.55 | X-H torsion
[ 11005 11000 10999 10996 ] final -113.55 input  -57.11 | X-H torsion

> <Gold.Protein.ActiveResidues>
 VAL166  LYS551  ARG553  GLY616  TRP617  ASP618  TYR619  PRO620  LYS621  CYS622 
 ASP623  PHE694  ASN695  SER759  ASP760  ASP761  ALA762  ILE779  LEU786  VAL792 
 PHE793  MET794  SER795  GLU796  ALA797  LYS798  CYS799  TRP800  GLU811  SER814 

> <Gold.Protein.RotatedAtoms>
  152.5449  134.1696  159.8591 H   0  0  0  0  0  0  0  0  0  0  0  0  # atno 6907 bound_to 6896
  151.1708  133.4779  159.2601 H   0  0  0  0  0  0  0  0  0  0  0  0  # atno 6908 bound_to 6896
  151.1277  135.0125  159.8623 H   0  0  0  0  0  0  0  0  0  0  0  0  # atno 6909 bound_to 6896
  146.2435  140.1122  142.8343 H   0  0  0  0  0  0  0  0  0  0  0  0  # atno 7974 bound_to 7965
  156.1053  140.1454  156.9413 H   0  0  0  0  0  0  0  0  0  0  0  0  # atno 8008 bound_to 7997
  154.4729  140.0904  156.7235 H   0  0  0  0  0  0  0  0  0  0  0  0  # atno 8009 bound_to 7997
  155.4690  140.3441  155.4325 H   0  0  0  0  0  0  0  0  0  0  0  0  # atno 8010 bound_to 7997
  139.5358  144.6681  151.4790 H   0  0  0  0  0  0  0  0  0  0  0  0  # atno 10167 bound_to 10162
  157.5743  131.1080  150.8308 H   0  0  0  0  0  0  0  0  0  0  0  0  # atno 10718 bound_to 10713
  154.1478  135.6495  153.4956 H   0  0  0  0  0  0  0  0  0  0  0  0  # atno 10763 bound_to 10752
  153.0146  135.5331  154.6839 H   0  0  0  0  0  0  0  0  0  0  0  0  # atno 10764 bound_to 10752
  154.6118  135.2955  155.0395 H   0  0  0  0  0  0  0  0  0  0  0  0  # atno 10765 bound_to 10752
  141.0607  133.9539  157.2671 H   0  0  0  0  0  0  0  0  0  0  0  0  # atno 11005 bound_to 11000
  145.0477  140.8994  143.5014 LP  0  0  0  0  0  0  0  0  0  0  0  0  # atno 17320 bound_to 7965
  145.1214  139.2691  143.5586 LP  0  0  0  0  0  0  0  0  0  0  0  0  # atno 17321 bound_to 7965
  140.6564  143.8591  150.6839 LP  0  0  0  0  0  0  0  0  0  0  0  0  # atno 17342 bound_to 10162
  140.1971  143.3989  152.1819 LP  0  0  0  0  0  0  0  0  0  0  0  0  # atno 17343 bound_to 10162
  156.8771  130.5166  149.5293 LP  0  0  0  0  0  0  0  0  0  0  0  0  # atno 17370 bound_to 10713
  156.0788  130.5804  150.9524 LP  0  0  0  0  0  0  0  0  0  0  0  0  # atno 17371 bound_to 10713
  139.9430  135.0188  156.8767 LP  0  0  0  0  0  0  0  0  0  0  0  0  # atno 17394 bound_to 11000
  140.5874  134.0294  155.7486 LP  0  0  0  0  0  0  0  0  0  0  0  0  # atno 17395 bound_to 11000

$$$$
