AV-unprocessed.smi:1749|AV-procd|sdf|7044|dock5
  -GOLD-   22720 8263D 1   1.00000     0.00000
 Structure written by MMmdl.
 32 33  0  0  0  0  0  0  0  0  1 V2000
  148.3411  140.6356  154.0726 C   0  0  0  0  0  0  0  0  0  0  0  0
  146.8939  141.0771  154.3315 C   0  0  2  0  0  0  0  0  0  0  0  0
  146.7542  142.6106  154.2751 C   0  0  0  0  0  0  0  0  0  0  0  0
  145.3074  143.0577  154.5379 C   0  0  0  0  0  0  0  0  0  0  0  0
  144.7862  142.5101  155.8781 C   0  0  0  0  0  0  0  0  0  0  0  0
  144.9216  140.9781  155.9709 C   0  0  1  0  0  0  0  0  0  0  0  0
  143.9854  140.3358  155.0518 N   0  0  0  0  0  0  0  0  0  0  0  0
  143.0607  139.4180  155.3772 C   0  0  0  0  0  0  0  0  0  0  0  0
  142.8610  139.0534  156.5345 O   0  0  0  0  0  0  0  0  0  0  0  0
  142.3431  138.9116  154.3522 N   0  0  0  0  0  0  0  0  0  0  0  0
  141.3003  137.9400  154.3263 C   0  0  0  0  0  0  0  0  0  0  0  0
  141.2013  136.9104  155.1838 N   0  0  0  0  0  0  0  0  0  0  0  0
  140.0747  136.1360  154.9439 N   0  0  0  0  0  0  0  0  0  0  0  0
  139.3583  136.6174  153.9245 C   0  0  0  0  0  0  0  0  0  0  0  0
  139.9919  138.0637  153.1582 S   0  0  0  0  0  0  0  0  0  0  0  0
  146.3727  140.5375  155.6803 C   0  0  0  0  0  0  0  0  0  0  0  0
  149.0170  141.0246  154.8345 H   0  0  0  0  0  0  0  0  0  0  0  0
  148.6921  140.9901  153.1032 H   0  0  0  0  0  0  0  0  0  0  0  0
  148.4257  139.5486  154.0754 H   0  0  0  0  0  0  0  0  0  0  0  0
  146.2799  140.6544  153.5347 H   0  0  0  0  0  0  0  0  0  0  0  0
  147.4145  143.0683  155.0130 H   0  0  0  0  0  0  0  0  0  0  0  0
  147.0781  142.9790  153.3011 H   0  0  0  0  0  0  0  0  0  0  0  0
  145.2514  144.1464  154.5371 H   0  0  0  0  0  0  0  0  0  0  0  0
  144.6660  142.7176  153.7240 H   0  0  0  0  0  0  0  0  0  0  0  0
  145.3501  142.9678  156.6917 H   0  0  0  0  0  0  0  0  0  0  0  0
  143.7471  142.8076  156.0248 H   0  0  0  0  0  0  0  0  0  0  0  0
  144.6612  140.6799  156.9879 H   0  0  0  0  0  0  0  0  0  0  0  0
  144.0757  140.5807  154.0760 H   0  0  0  0  0  0  0  0  0  0  0  0
  142.5299  139.3427  153.4587 H   0  0  0  0  0  0  0  0  0  0  0  0
  138.4485  136.1195  153.6236 H   0  0  0  0  0  0  0  0  0  0  0  0
  146.4452  139.4492  155.7018 H   0  0  0  0  0  0  0  0  0  0  0  0
  147.0180  140.8958  156.4837 H   0  0  0  0  0  0  0  0  0  0  0  0
  1  2  1  0  0  0  0
  1 17  1  0  0  0  0
  1 18  1  0  0  0  0
  1 19  1  0  0  0  0
  2 16  1  0  0  0  0
  2  3  1  0  0  0  0
  2 20  1  0  0  0  0
  3  4  1  0  0  0  0
  3 21  1  0  0  0  0
  3 22  1  0  0  0  0
  4  5  1  0  0  0  0
  4 23  1  0  0  0  0
  4 24  1  0  0  0  0
  5  6  1  0  0  0  0
  5 25  1  0  0  0  0
  5 26  1  0  0  0  0
  6  7  1  0  0  0  0
  6 16  1  0  0  0  0
  6 27  1  0  0  0  0
  7  8  1  0  0  0  0
  7 28  1  0  0  0  0
  8  9  2  0  0  0  0
  8 10  1  0  0  0  0
 10 11  1  0  0  0  0
 10 29  1  0  0  0  0
 11 15  1  0  0  0  0
 11 12  2  0  0  0  0
 12 13  1  0  0  0  0
 13 14  2  0  0  0  0
 14 15  1  0  0  0  0
 14 30  1  0  0  0  0
 16 31  1  0  0  0  0
 16 32  1  0  0  0  0
M  END
> <s_m_source_file>
AV-unprocessed.smi

> <i_m_source_file_index>
1749

> <i_lp_mmshare_version>
43012

> <i_f3d_flags>
0

> <s_epik_input>
W0NIM11bQ0BASF0xW0NIMl1bQ0gyXVtDSDJdW0NASF0oW0NIMl0xKVtOSF1DKD1PKVtOSF1jMm5uW2NIXXMy

> <s_epik_cmdline>
J2VwaWtfcHl0aG9uJywgJy1waCcsICc3LjAnLCAnLXRuJywgJzgnLCAnLW1hJywgJzIwMCcsICctbWV0YWxfYmluZGluZycsICctaW1hZScsICc8aW5maWxlLm1hZT4nLCAnLW9tYWUnLCAnPG91dGZpbGUubWFlPic=

> <r_lp_tautomer_probability>
1

> <r_epik_Ionization_Penalty>
0.000318591

> <r_epik_Ionization_Penalty_Charging>
0

> <r_epik_Ionization_Penalty_Neutral>
0.000318591

> <r_epik_State_Penalty>
-0

> <r_epik_Charging_Adjusted_Penalty>
0

> <i_epik_Tot_Q>
0

> <i_epik_Tot_abs_Q>
0

> <r_epik_Metal_State_Penalty>
0.169791

> <b_epik_Metal_Only>
0

> <s_lp_Force_Field>
OPLS_2005

> <r_lp_Energy>
10.2552

> <b_lp_Chiralities_Consistent>
1

> <s_lp_Variant>
AV-unprocessed.smi:1749-1

> <Gold.Version>
5.8.1

> <Gold.Id.Protein>
6NUR|6NUR_protein|mol2

> <Gold.PLP.Fitness>
32.9735

> <Gold.PLP.PLP>
-24.6530

> <Gold.PLP.part.hbond>
-3.0787

> <Gold.PLP.part.metal>
0.0000

> <Gold.PLP.part.buried>
-2.7942

> <Gold.PLP.part.nonpolar>
-18.4450

> <Gold.PLP.part.repulsive>
0.0944

> <Gold.PLP.ligand.clash>
0.0000

> <Gold.PLP.ligand.torsion>
0.2584

> <Gold.PLP.Chemscore.Hbond>
2.9440

> <Gold.PLP.Chemscore.CHOScore>
0.0000

> <Gold.PLP.Chemscore.Metal>
0.0000

> <Gold.Chemscore.Hbonds>
donor molecule, donor type, donor heavy atom, donor atom, acceptor molecule, acceptor atom, score
      L1  H     7    28       P1 10175  1.00
      L1  H    10    29       P1 10175  0.96
      P1  H 11000 11005       L1    13  1.00

> <Gold.PLP.Chemscore.Internal.Correction>
0.0053

> <Gold.Rescore>
     Score         DG    S(hbond)    S(metal)    S(lipo)     H(rot)  DE(clash)    DE(int)     intcor
     16.31     -17.66       2.78        0.00      46.51       1.00       0.11       1.23       ----

> <Gold.Chemscore.Fitness>
16.3135

> <Gold.Chemscore.DG>
-17.6561

> <Gold.Chemscore.ZeroCoef>
-5.4800

> <Gold.Chemscore.Hbond>
2.7827

> <Gold.Chemscore.Metal>
0.0000

> <Gold.Chemscore.Lipo>
46.5117

> <Gold.Chemscore.Internal_Hbond>
0.0000

> <Gold.Chemscore.DEClash>
0.1107

> <Gold.Chemscore.DEInternal>
1.2320

> <Gold.Chemscore.Rot>
1.0000

> <Gold.Chemscore.Internal.Correction>
   9.000000E+99

> <Gold.Chemscore.Hbonds>
donor molecule, donor type, donor heavy atom, donor atom, acceptor molecule, acceptor atom, score
      L1  H     7    28       P1 10175  0.97
      L1  H    10    29       P1 10175  0.92
      P1  H 11000 11005       L1    13  0.83

> <Gold.Chemscore.Hbond.Weighted>
-9.2943

> <Gold.Chemscore.Metal.Weighted>
-0.0000

> <Gold.Chemscore.Lipo.Weighted>
-5.4419

> <Gold.Chemscore.Internal_Hbond.Weighted>
0.0000

> <Gold.Chemscore.DEClash.Weighted>
0.1107

> <Gold.Chemscore.DEInternal.Weighted>
1.2320

> <Gold.Chemscore.Rot.Weighted>
2.5600

> <Gold.Chemscore.Internal.Correction.Weighted>
   9.000000E+99

> <Gold.Protein.RotatedTorsions>
[ 6907 6896 6895 6894 ] final -148.23 input  -60.11 | X-H torsion
[ 7974 7965 7964 7962 ] final   89.89 input  175.53 | X-H torsion
[ 8008 7997 7996 7995 ] final   29.43 input   59.86 | X-H torsion
[ 10167 10162 10161 10158 ] final  -42.31 input  -65.29 | X-H torsion
[ 10718 10713 10712 10709 ] final  -45.84 input   66.30 | X-H torsion
[ 10763 10752 10751 10750 ] final  -22.63 input  -60.55 | X-H torsion
[ 11005 11000 10999 10996 ] final   67.07 input  -57.11 | X-H torsion

> <Gold.Protein.ActiveResidues>
 VAL166  LYS551  ARG553  GLY616  TRP617  ASP618  TYR619  PRO620  LYS621  CYS622 
 ASP623  PHE694  ASN695  SER759  ASP760  ASP761  ALA762  ILE779  LEU786  VAL792 
 PHE793  MET794  SER795  GLU796  ALA797  LYS798  CYS799  TRP800  GLU811  SER814 

> <Gold.Protein.RotatedAtoms>
  151.1669  133.4809  159.2593 H   0  0  0  0  0  0  0  0  0  0  0  0  # atno 6907 bound_to 6896
  151.1396  135.0172  159.8630 H   0  0  0  0  0  0  0  0  0  0  0  0  # atno 6908 bound_to 6896
  152.5462  134.1564  159.8592 H   0  0  0  0  0  0  0  0  0  0  0  0  # atno 6909 bound_to 6896
  145.5263  139.2281  143.2644 H   0  0  0  0  0  0  0  0  0  0  0  0  # atno 7974 bound_to 7965
  155.0743  140.3203  155.4621 H   0  0  0  0  0  0  0  0  0  0  0  0  # atno 8008 bound_to 7997
  156.2783  140.2106  156.5816 H   0  0  0  0  0  0  0  0  0  0  0  0  # atno 8009 bound_to 7997
  154.7029  140.0505  157.0463 H   0  0  0  0  0  0  0  0  0  0  0  0  # atno 8010 bound_to 7997
  140.6973  143.3045  151.3191 H   0  0  0  0  0  0  0  0  0  0  0  0  # atno 10167 bound_to 10162
  156.2243  130.4168  149.8954 H   0  0  0  0  0  0  0  0  0  0  0  0  # atno 10718 bound_to 10713
  153.6550  135.6979  153.5196 H   0  0  0  0  0  0  0  0  0  0  0  0  # atno 10763 bound_to 10752
  153.2677  135.4225  155.0956 H   0  0  0  0  0  0  0  0  0  0  0  0  # atno 10764 bound_to 10752
  154.8467  135.3570  154.6094 H   0  0  0  0  0  0  0  0  0  0  0  0  # atno 10765 bound_to 10752
  139.9793  134.6770  156.0293 H   0  0  0  0  0  0  0  0  0  0  0  0  # atno 11005 bound_to 11000
  146.2073  140.6077  142.9075 LP  0  0  0  0  0  0  0  0  0  0  0  0  # atno 17320 bound_to 7965
  144.7649  140.5508  143.6710 LP  0  0  0  0  0  0  0  0  0  0  0  0  # atno 17321 bound_to 7965
  139.6445  144.0477  152.2580 LP  0  0  0  0  0  0  0  0  0  0  0  0  # atno 17342 bound_to 10162
  139.9993  144.6305  150.7744 LP  0  0  0  0  0  0  0  0  0  0  0  0  # atno 17343 bound_to 10162
  156.6589  130.8774  151.3544 LP  0  0  0  0  0  0  0  0  0  0  0  0  # atno 17370 bound_to 10713
  157.7103  130.9432  150.1066 LP  0  0  0  0  0  0  0  0  0  0  0  0  # atno 17371 bound_to 10713
  141.1467  133.6555  156.3888 LP  0  0  0  0  0  0  0  0  0  0  0  0  # atno 17394 bound_to 11000
  140.5130  134.6377  157.5291 LP  0  0  0  0  0  0  0  0  0  0  0  0  # atno 17395 bound_to 11000

$$$$
