AV-unprocessed.smi:110|AV-procd|sdf|1066|dock3
  -GOLD-   2262018143D 1   1.00000     0.00000
 Structure written by MMmdl.
 46 50  0  0  0  0  0  0  0  0  1 V2000
  145.7618  136.7946  156.1701 O   0  0  0  0  0  0  0  0  0  0  0  0
  146.0281  137.8056  155.2213 C   0  0  0  0  0  0  0  0  0  0  0  0
  147.5096  137.7642  154.8070 C   0  0  2  0  0  0  0  0  0  0  0  0
  148.3577  137.9970  155.9251 O   0  0  0  0  0  0  0  0  0  0  0  0
  149.6209  138.3652  155.4695 C   0  0  2  0  0  0  0  0  0  0  0  0
  150.2032  139.3584  156.4269 N   0  0  0  0  0  0  0  0  0  0  0  0
  149.6662  140.5665  156.8088 C   0  0  0  0  0  0  0  0  0  0  0  0
  150.3705  141.2414  157.6756 N   0  0  0  0  0  0  0  0  0  0  0  0
  151.4917  140.4502  157.8984 C   0  0  0  0  0  0  0  0  0  0  0  0
  152.6522  140.5680  158.7168 C   0  0  0  0  0  0  0  0  0  0  0  0
  152.9153  141.6129  159.5364 N   0  0  0  0  0  0  0  0  0  0  0  0
  153.4901  141.3515  160.8638 C   0  0  0  0  0  0  0  0  0  0  0  0
  153.2156  142.5868  161.7421 C   0  0  0  0  0  0  0  0  0  0  0  0
  152.5924  143.5110  160.7467 C   0  0  0  0  0  0  0  0  0  0  0  0
  152.1916  144.8421  160.9548 C   0  0  0  0  0  0  0  0  0  0  0  0
  151.6423  145.5495  159.8641 C   0  0  0  0  0  0  0  0  0  0  0  0
  151.5134  144.9268  158.6008 C   0  0  0  0  0  0  0  0  0  0  0  0
  151.9247  143.5884  158.4148 C   0  0  0  0  0  0  0  0  0  0  0  0
  152.4529  142.8808  159.5142 C   0  0  0  0  0  0  0  0  0  0  0  0
  153.5315  139.5339  158.7139 N   0  0  0  0  0  0  0  0  0  0  0  0
  153.3161  138.4718  157.9334 C   0  0  0  0  0  0  0  0  0  0  0  0
  152.2960  138.2388  157.1072 N   0  0  0  0  0  0  0  0  0  0  0  0
  151.3901  139.2583  157.1252 C   0  0  0  0  0  0  0  0  0  0  0  0
  149.4578  138.9217  154.0389 C   0  0  2  0  0  0  0  0  0  0  0  0
  150.0005  140.2128  153.8106 O   0  0  0  0  0  0  0  0  0  0  0  0
  147.9503  138.8405  153.8030 C   0  0  2  0  0  0  0  0  0  0  0  0
  147.2904  140.0708  154.0488 O   0  0  0  0  0  0  0  0  0  0  0  0
  147.7550  136.7870  154.3856 H   0  0  0  0  0  0  0  0  0  0  0  0
  150.2984  137.5112  155.5130 H   0  0  0  0  0  0  0  0  0  0  0  0
  149.9602  138.2215  153.3707 H   0  0  0  0  0  0  0  0  0  0  0  0
  147.7260  138.5455  152.7773 H   0  0  0  0  0  0  0  0  0  0  0  0
  144.9593  136.3589  155.9266 H   0  0  0  0  0  0  0  0  0  0  0  0
  145.3902  137.6167  154.3574 H   0  0  0  0  0  0  0  0  0  0  0  0
  145.7546  138.7824  155.6220 H   0  0  0  0  0  0  0  0  0  0  0  0
  148.7230  140.9308  156.4288 H   0  0  0  0  0  0  0  0  0  0  0  0
  153.0571  140.4533  161.3063 H   0  0  0  0  0  0  0  0  0  0  0  0
  154.5635  141.1885  160.7609 H   0  0  0  0  0  0  0  0  0  0  0  0
  152.5144  142.3680  162.5478 H   0  0  0  0  0  0  0  0  0  0  0  0
  154.1294  143.0098  162.1600 H   0  0  0  0  0  0  0  0  0  0  0  0
  152.3053  145.3120  161.9206 H   0  0  0  0  0  0  0  0  0  0  0  0
  151.3266  146.5743  159.9927 H   0  0  0  0  0  0  0  0  0  0  0  0
  151.1013  145.4798  157.7697 H   0  0  0  0  0  0  0  0  0  0  0  0
  151.8377  143.1244  157.4436 H   0  0  0  0  0  0  0  0  0  0  0  0
  154.0670  137.6970  157.9778 H   0  0  0  0  0  0  0  0  0  0  0  0
  149.5985  140.5745  153.0357 H   0  0  0  0  0  0  0  0  0  0  0  0
  147.6882  140.7347  153.5061 H   0  0  0  0  0  0  0  0  0  0  0  0
  1  2  1  0  0  0  0
  1 32  1  0  0  0  0
  2  3  1  0  0  0  0
  2 33  1  0  0  0  0
  2 34  1  0  0  0  0
  3 28  1  0  0  0  0
  3 26  1  0  0  0  0
  3  4  1  0  0  0  0
  4  5  1  0  0  0  0
  5 29  1  0  0  0  0
  5  6  1  0  0  0  0
  5 24  1  0  0  0  0
  6 23  1  0  0  0  0
  6  7  1  0  0  0  0
  7  8  2  0  0  0  0
  7 35  1  0  0  0  0
  8  9  1  0  0  0  0
  9 23  2  0  0  0  0
  9 10  1  0  0  0  0
 10 11  1  0  0  0  0
 10 20  2  0  0  0  0
 11 19  1  0  0  0  0
 11 12  1  0  0  0  0
 12 13  1  0  0  0  0
 12 36  1  0  0  0  0
 12 37  1  0  0  0  0
 13 14  1  0  0  0  0
 13 38  1  0  0  0  0
 13 39  1  0  0  0  0
 14 19  2  0  0  0  0
 14 15  1  0  0  0  0
 15 16  2  0  0  0  0
 15 40  1  0  0  0  0
 16 17  1  0  0  0  0
 16 41  1  0  0  0  0
 17 18  2  0  0  0  0
 17 42  1  0  0  0  0
 18 19  1  0  0  0  0
 18 43  1  0  0  0  0
 20 21  1  0  0  0  0
 21 22  2  0  0  0  0
 21 44  1  0  0  0  0
 22 23  1  0  0  0  0
 24 30  1  0  0  0  0
 24 25  1  0  0  0  0
 24 26  1  0  0  0  0
 25 45  1  0  0  0  0
 26 31  1  0  0  0  0
 26 27  1  0  0  0  0
 27 46  1  0  0  0  0
M  END
> <s_m_source_file>
AV-unprocessed.smi

> <i_m_source_file_index>
110

> <i_lp_mmshare_version>
43012

> <i_f3d_flags>
0

> <s_epik_input>
W09IXVtDSDJdW0NASF0xT1tDQEhdKFtDQEhdKFtPSF0pW0NAQEhdMVtPSF0pbihbY0hdbjIpYyhjMjMpbltjSF1uYzNOKFtDSDJdW0NIMl00KWMoYzQ1KVtjSF1bY0hdW2NIXVtjSF01

> <s_epik_cmdline>
J2VwaWtfcHl0aG9uJywgJy1waCcsICc3LjAnLCAnLXRuJywgJzgnLCAnLW1hJywgJzIwMCcsICctbWV0YWxfYmluZGluZycsICctaW1hZScsICc8aW5maWxlLm1hZT4nLCAnLW9tYWUnLCAnPG91dGZpbGUubWFlPic=

> <r_lp_tautomer_probability>
1

> <r_epik_Ionization_Penalty>
0.00068475

> <r_epik_Ionization_Penalty_Charging>
0

> <r_epik_Ionization_Penalty_Neutral>
0.00068475

> <r_epik_State_Penalty>
0.000417442

> <r_epik_Charging_Adjusted_Penalty>
0.000417442

> <i_epik_Tot_Q>
0

> <i_epik_Tot_abs_Q>
0

> <r_epik_Metal_State_Penalty>
-0

> <b_epik_Metal_Only>
0

> <s_epik_Chemistry_Notes>
This compound contains an acetal/aminal-like group ( X-CH(R)-Y where X, Y are N, S, or O) that may be acid/base labile, releasing an aldehyde.

> <s_lp_Force_Field>
OPLS_2005

> <r_lp_Energy>
68.0116

> <b_lp_Chiralities_Consistent>
1

> <s_lp_Variant>
AV-unprocessed.smi:110-4

> <Gold.Version>
5.8.1

> <Gold.Id.Protein>
6NUR|6NUR_protein|mol2

> <Gold.PLP.Fitness>
51.2606

> <Gold.PLP.PLP>
-47.6745

> <Gold.PLP.part.hbond>
-3.0000

> <Gold.PLP.part.metal>
0.0000

> <Gold.PLP.part.buried>
-5.7535

> <Gold.PLP.part.nonpolar>
-39.2598

> <Gold.PLP.part.repulsive>
0.0621

> <Gold.PLP.ligand.clash>
0.0000

> <Gold.PLP.ligand.torsion>
0.4044

> <Gold.PLP.Chemscore.Hbond>
1.4353

> <Gold.PLP.Chemscore.CHOScore>
0.0000

> <Gold.PLP.Chemscore.Metal>
0.0000

> <Gold.Chemscore.Hbonds>
donor molecule, donor type, donor heavy atom, donor atom, acceptor molecule, acceptor atom, score
      L1  H    25    45       P1  7957  0.66
      P1  H  7989  7998       L1    25  0.56
      P1  H  7997  8009       L1    20  0.18

> <Gold.PLP.Chemscore.Internal.Correction>
0.0891

> <Gold.Rescore>
     Score         DG    S(hbond)    S(metal)    S(lipo)     H(rot)  DE(clash)    DE(int)     intcor
     11.67     -13.49       1.00        0.00     114.00       3.38       0.09       1.73       ----

> <Gold.Chemscore.Fitness>
11.6742

> <Gold.Chemscore.DG>
-13.4922

> <Gold.Chemscore.ZeroCoef>
-5.4800

> <Gold.Chemscore.Hbond>
0.9988

> <Gold.Chemscore.Metal>
0.0000

> <Gold.Chemscore.Lipo>
114.0034

> <Gold.Chemscore.Internal_Hbond>
0.0000

> <Gold.Chemscore.DEClash>
0.0892

> <Gold.Chemscore.DEInternal>
1.7288

> <Gold.Chemscore.Rot>
3.3837

> <Gold.Chemscore.Internal.Correction>
   9.000000E+99

> <Gold.Chemscore.Hbonds>
donor molecule, donor type, donor heavy atom, donor atom, acceptor molecule, acceptor atom, score
      L1  H    25    45       P1  7957  0.65
      P1  H  7989  7998       L1    25  0.07

> <Gold.Chemscore.Hbond.Weighted>
-3.3360

> <Gold.Chemscore.Metal.Weighted>
-0.0000

> <Gold.Chemscore.Lipo.Weighted>
-13.3384

> <Gold.Chemscore.Internal_Hbond.Weighted>
0.0000

> <Gold.Chemscore.DEClash.Weighted>
0.0892

> <Gold.Chemscore.DEInternal.Weighted>
1.7288

> <Gold.Chemscore.Rot.Weighted>
8.6622

> <Gold.Chemscore.Internal.Correction.Weighted>
   9.000000E+99

> <Gold.Protein.RotatedTorsions>
[ 6907 6896 6895 6894 ] final  133.38 input  -60.11 | X-H torsion
[ 7974 7965 7964 7962 ] final -115.84 input  175.53 | X-H torsion
[ 8008 7997 7996 7995 ] final  127.85 input   59.86 | X-H torsion
[ 10167 10162 10161 10158 ] final  141.68 input  -65.29 | X-H torsion
[ 10718 10713 10712 10709 ] final  -52.27 input   66.30 | X-H torsion
[ 10763 10752 10751 10750 ] final  179.51 input  -60.55 | X-H torsion
[ 11005 11000 10999 10996 ] final   65.95 input  -57.11 | X-H torsion

> <Gold.Protein.ActiveResidues>
 VAL166  LYS551  ARG553  GLY616  TRP617  ASP618  TYR619  PRO620  LYS621  CYS622 
 ASP623  PHE694  ASN695  SER759  ASP760  ASP761  ALA762  ILE779  LEU786  VAL792 
 PHE793  MET794  SER795  GLU796  ALA797  LYS798  CYS799  TRP800  GLU811  SER814 

> <Gold.Protein.RotatedAtoms>
  152.3226  133.5870  159.5754 H   0  0  0  0  0  0  0  0  0  0  0  0  # atno 6907 bound_to 6896
  150.7379  133.9988  159.3640 H   0  0  0  0  0  0  0  0  0  0  0  0  # atno 6908 bound_to 6896
  151.7871  135.0746  160.0433 H   0  0  0  0  0  0  0  0  0  0  0  0  # atno 6909 bound_to 6896
  145.1036  140.8568  143.3911 H   0  0  0  0  0  0  0  0  0  0  0  0  # atno 7974 bound_to 7965
  156.2901  140.2659  156.2341 H   0  0  0  0  0  0  0  0  0  0  0  0  # atno 8008 bound_to 7997
  155.0043  140.0387  157.2391 H   0  0  0  0  0  0  0  0  0  0  0  0  # atno 8009 bound_to 7997
  154.7574  140.2754  155.6247 H   0  0  0  0  0  0  0  0  0  0  0  0  # atno 8010 bound_to 7997
  139.5014  144.6156  151.6171 H   0  0  0  0  0  0  0  0  0  0  0  0  # atno 10167 bound_to 10162
  156.1636  130.4149  149.9754 H   0  0  0  0  0  0  0  0  0  0  0  0  # atno 10718 bound_to 10713
  154.5217  135.2794  155.1257 H   0  0  0  0  0  0  0  0  0  0  0  0  # atno 10763 bound_to 10752
  154.2812  135.6285  153.5351 H   0  0  0  0  0  0  0  0  0  0  0  0  # atno 10764 bound_to 10752
  152.9938  135.5651  154.5707 H   0  0  0  0  0  0  0  0  0  0  0  0  # atno 10765 bound_to 10752
  139.9862  134.6664  156.0172 H   0  0  0  0  0  0  0  0  0  0  0  0  # atno 11005 bound_to 11000
  145.0927  139.2879  143.5727 LP  0  0  0  0  0  0  0  0  0  0  0  0  # atno 17320 bound_to 7965
  146.3529  140.0469  142.8639 LP  0  0  0  0  0  0  0  0  0  0  0  0  # atno 17321 bound_to 7965
  140.5843  143.9891  150.6286 LP  0  0  0  0  0  0  0  0  0  0  0  0  # atno 17342 bound_to 10162
  140.3051  143.3235  152.0934 LP  0  0  0  0  0  0  0  0  0  0  0  0  # atno 17343 bound_to 10162
  156.7576  130.9139  151.3640 LP  0  0  0  0  0  0  0  0  0  0  0  0  # atno 17370 bound_to 10713
  157.6751  130.9087  150.0132 LP  0  0  0  0  0  0  0  0  0  0  0  0  # atno 17371 bound_to 10713
  141.1526  133.6546  156.4062 LP  0  0  0  0  0  0  0  0  0  0  0  0  # atno 17394 bound_to 11000
  140.4998  134.6496  157.5244 LP  0  0  0  0  0  0  0  0  0  0  0  0  # atno 17395 bound_to 11000

$$$$
