AV-unprocessed.smi:2417|AV-procd|sdf|9548|dock4
  -GOLD-   2272013183D 1   1.00000     0.00000
 Structure written by MMmdl.
 38 39  0  0  0  0  0  0  0  0  1 V2000
  147.8784  134.9301  157.9047 C   0  0  0  0  0  0  0  0  0  0  0  0
  148.5186  135.8593  156.8884 C   0  0  0  0  0  0  0  0  0  0  0  0
  147.7468  136.9608  156.5073 N   0  0  0  0  0  0  0  0  0  0  0  0
  148.2101  137.8056  155.6452 C   0  0  0  0  0  0  0  0  0  0  0  0
  149.4819  137.6502  155.0700 N   0  0  0  0  0  0  0  0  0  0  0  0
  149.8906  138.6822  154.1028 C   0  0  0  0  0  0  0  0  0  0  0  0
  149.8184  140.1057  154.7001 C   0  0  2  0  0  0  0  0  0  0  0  0
  149.8534  141.0763  153.6729 O   0  0  0  0  0  0  0  0  0  0  0  0
  150.9704  140.4089  155.6733 C   0  0  0  0  0  0  0  0  0  0  0  0
  150.7927  141.6963  156.2519 O   0  0  0  0  0  0  0  0  0  0  0  0
  151.2749  141.9138  157.5244 C   0  0  0  0  0  0  0  0  0  0  0  0
  151.4316  143.2564  157.9270 C   0  0  0  0  0  0  0  0  0  0  0  0
  151.9186  143.5724  159.2099 C   0  0  0  0  0  0  0  0  0  0  0  0
  152.2558  142.5425  160.1072 C   0  0  0  0  0  0  0  0  0  0  0  0
  152.7241  142.8441  161.3414 F   0  0  0  0  0  0  0  0  0  0  0  0
  152.1046  141.1983  159.7191 C   0  0  0  0  0  0  0  0  0  0  0  0
  151.6172  140.8824  158.4357 C   0  0  0  0  0  0  0  0  0  0  0  0
  150.3028  136.6088  155.3915 C   0  0  0  0  0  0  0  0  0  0  0  0
  151.4226  136.4899  154.8904 O   0  0  0  0  0  0  0  0  0  0  0  0
  149.7607  135.6535  156.3714 C   0  0  0  0  0  0  0  0  0  0  0  0
  150.6471  134.4735  156.7499 C   0  0  0  0  0  0  0  0  0  0  0  0
  147.7758  133.9254  157.4937 H   0  0  0  0  0  0  0  0  0  0  0  0
  146.8845  135.2773  158.1896 H   0  0  0  0  0  0  0  0  0  0  0  0
  148.4847  134.8780  158.8094 H   0  0  0  0  0  0  0  0  0  0  0  0
  147.6499  138.6833  155.3181 H   0  0  0  0  0  0  0  0  0  0  0  0
  150.9165  138.4742  153.7928 H   0  0  0  0  0  0  0  0  0  0  0  0
  149.3153  138.6282  153.1760 H   0  0  0  0  0  0  0  0  0  0  0  0
  148.8825  140.2429  155.2431 H   0  0  0  0  0  0  0  0  0  0  0  0
  149.6362  140.6569  152.8543 H   0  0  0  0  0  0  0  0  0  0  0  0
  151.0337  139.6361  156.4416 H   0  0  0  0  0  0  0  0  0  0  0  0
  151.9080  140.3984  155.1150 H   0  0  0  0  0  0  0  0  0  0  0  0
  151.1752  144.0531  157.2441 H   0  0  0  0  0  0  0  0  0  0  0  0
  152.0335  144.6051  159.5048 H   0  0  0  0  0  0  0  0  0  0  0  0
  152.3627  140.4069  160.4071 H   0  0  0  0  0  0  0  0  0  0  0  0
  151.5150  139.8401  158.1752 H   0  0  0  0  0  0  0  0  0  0  0  0
  151.5849  134.8297  157.1774 H   0  0  0  0  0  0  0  0  0  0  0  0
  150.8816  133.8802  155.8655 H   0  0  0  0  0  0  0  0  0  0  0  0
  150.1878  133.8072  157.4783 H   0  0  0  0  0  0  0  0  0  0  0  0
  1  2  1  0  0  0  0
  1 22  1  0  0  0  0
  1 23  1  0  0  0  0
  1 24  1  0  0  0  0
  2 20  2  0  0  0  0
  2  3  1  0  0  0  0
  3  4  2  0  0  0  0
  4  5  1  0  0  0  0
  4 25  1  0  0  0  0
  5  6  1  0  0  0  0
  5 18  1  0  0  0  0
  6  7  1  0  0  0  0
  6 26  1  0  0  0  0
  6 27  1  0  0  0  0
  7  8  1  0  0  0  0
  7  9  1  0  0  0  0
  7 28  1  0  0  0  0
  8 29  1  0  0  0  0
  9 10  1  0  0  0  0
  9 30  1  0  0  0  0
  9 31  1  0  0  0  0
 10 11  1  0  0  0  0
 11 17  1  0  0  0  0
 11 12  2  0  0  0  0
 12 13  1  0  0  0  0
 12 32  1  0  0  0  0
 13 14  2  0  0  0  0
 13 33  1  0  0  0  0
 14 15  1  0  0  0  0
 14 16  1  0  0  0  0
 16 17  2  0  0  0  0
 16 34  1  0  0  0  0
 17 35  1  0  0  0  0
 18 19  2  0  0  0  0
 18 20  1  0  0  0  0
 20 21  1  0  0  0  0
 21 36  1  0  0  0  0
 21 37  1  0  0  0  0
 21 38  1  0  0  0  0
M  END
> <s_m_source_file>
AV-unprocessed.smi

> <i_m_source_file_index>
2417

> <i_lp_mmshare_version>
43012

> <i_f3d_flags>
0

> <s_epik_input>
W0NIM11jMW5bY0hdbihjKD1PKWMxW0NIM10pW0NIMl1bQ0BIXShbT0hdKVtDSDJdT2MyW2NIXVtjSF1jKEYpW2NIXVtjSF0y

> <s_epik_cmdline>
J2VwaWtfcHl0aG9uJywgJy1waCcsICc3LjAnLCAnLXRuJywgJzgnLCAnLW1hJywgJzIwMCcsICctbWV0YWxfYmluZGluZycsICctaW1hZScsICc8aW5maWxlLm1hZT4nLCAnLW9tYWUnLCAnPG91dGZpbGUubWFlPic=

> <r_lp_tautomer_probability>
1

> <r_epik_Ionization_Penalty>
3.65384e-05

> <r_epik_Ionization_Penalty_Charging>
8.23007e-08

> <r_epik_Ionization_Penalty_Neutral>
3.64561e-05

> <r_epik_State_Penalty>
-0

> <r_epik_Charging_Adjusted_Penalty>
8.23007e-08

> <i_epik_Tot_Q>
0

> <i_epik_Tot_abs_Q>
0

> <r_epik_Metal_State_Penalty>
-0

> <b_epik_Metal_Only>
0

> <s_lp_Force_Field>
OPLS_2005

> <r_lp_Energy>
23.7128

> <b_lp_Chiralities_Consistent>
1

> <s_lp_Variant>
AV-unprocessed.smi:2417-1

> <Gold.Version>
5.8.1

> <Gold.Id.Protein>
6NUR|6NUR_protein|mol2

> <Gold.PLP.Fitness>
44.8888

> <Gold.PLP.PLP>
-39.7678

> <Gold.PLP.part.hbond>
-4.0000

> <Gold.PLP.part.metal>
0.0000

> <Gold.PLP.part.buried>
-4.4570

> <Gold.PLP.part.nonpolar>
-30.5008

> <Gold.PLP.part.repulsive>
0.2361

> <Gold.PLP.ligand.clash>
0.0000

> <Gold.PLP.ligand.torsion>
0.5668

> <Gold.PLP.Chemscore.Hbond>
2.0663

> <Gold.PLP.Chemscore.CHOScore>
0.0000

> <Gold.PLP.Chemscore.Metal>
0.0000

> <Gold.Chemscore.Hbonds>
donor molecule, donor type, donor heavy atom, donor atom, acceptor molecule, acceptor atom, score
      L1  H     8    29       P1  7957  1.00
      P1  H  7989  7998       L1     8  0.14
      P1  H 10752 10764       L1    19  1.00

> <Gold.PLP.Chemscore.Internal.Correction>
0.0557

> <Gold.Rescore>
     Score         DG    S(hbond)    S(metal)    S(lipo)     H(rot)  DE(clash)    DE(int)     intcor
     16.15     -16.73       2.00        0.00      94.60       2.54       0.21       0.38       ----

> <Gold.Chemscore.Fitness>
16.1473

> <Gold.Chemscore.DG>
-16.7339

> <Gold.Chemscore.ZeroCoef>
-5.4800

> <Gold.Chemscore.Hbond>
1.9990

> <Gold.Chemscore.Metal>
0.0000

> <Gold.Chemscore.Lipo>
94.5987

> <Gold.Chemscore.Internal_Hbond>
0.0000

> <Gold.Chemscore.DEClash>
0.2065

> <Gold.Chemscore.DEInternal>
0.3802

> <Gold.Chemscore.Rot>
2.5355

> <Gold.Chemscore.Internal.Correction>
   9.000000E+99

> <Gold.Chemscore.Hbonds>
donor molecule, donor type, donor heavy atom, donor atom, acceptor molecule, acceptor atom, score
      L1  H     8    29       P1  7957  1.00
      P1  H 10752 10764       L1    19  1.00

> <Gold.Chemscore.Hbond.Weighted>
-6.6767

> <Gold.Chemscore.Metal.Weighted>
-0.0000

> <Gold.Chemscore.Lipo.Weighted>
-11.0680

> <Gold.Chemscore.Internal_Hbond.Weighted>
0.0000

> <Gold.Chemscore.DEClash.Weighted>
0.2065

> <Gold.Chemscore.DEInternal.Weighted>
0.3802

> <Gold.Chemscore.Rot.Weighted>
6.4908

> <Gold.Chemscore.Internal.Correction.Weighted>
   9.000000E+99

> <Gold.Protein.RotatedTorsions>
[ 6907 6896 6895 6894 ] final  104.08 input  -60.11 | X-H torsion
[ 7974 7965 7964 7962 ] final -177.51 input  175.53 | X-H torsion
[ 8008 7997 7996 7995 ] final   21.01 input   59.86 | X-H torsion
[ 10167 10162 10161 10158 ] final  160.41 input  -65.29 | X-H torsion
[ 10718 10713 10712 10709 ] final  104.98 input   66.30 | X-H torsion
[ 10763 10752 10751 10750 ] final  -54.87 input  -60.55 | X-H torsion
[ 11005 11000 10999 10996 ] final  146.66 input  -57.11 | X-H torsion

> <Gold.Protein.ActiveResidues>
 VAL166  LYS551  ARG553  GLY616  TRP617  ASP618  TYR619  PRO620  LYS621  CYS622 
 ASP623  PHE694  ASN695  SER759  ASP760  ASP761  ALA762  ILE779  LEU786  VAL792 
 PHE793  MET794  SER795  GLU796  ALA797  LYS798  CYS799  TRP800  GLU811  SER814 

> <Gold.Protein.RotatedAtoms>
  152.5276  133.9730  159.7770 H   0  0  0  0  0  0  0  0  0  0  0  0  # atno 6907 bound_to 6896
  150.9999  133.6059  159.2703 H   0  0  0  0  0  0  0  0  0  0  0  0  # atno 6908 bound_to 6896
  151.3172  135.0815  159.9346 H   0  0  0  0  0  0  0  0  0  0  0  0  # atno 6909 bound_to 6896
  144.7128  140.1008  143.6416 H   0  0  0  0  0  0  0  0  0  0  0  0  # atno 7974 bound_to 7965
  154.9441  140.3057  155.5106 H   0  0  0  0  0  0  0  0  0  0  0  0  # atno 8008 bound_to 7997
  156.2993  140.2331  156.4450 H   0  0  0  0  0  0  0  0  0  0  0  0  # atno 8009 bound_to 7997
  154.8117  140.0428  157.1336 H   0  0  0  0  0  0  0  0  0  0  0  0  # atno 8010 bound_to 7997
  139.4840  144.4637  151.8671 H   0  0  0  0  0  0  0  0  0  0  0  0  # atno 10167 bound_to 10162
  157.6721  131.0817  150.5788 H   0  0  0  0  0  0  0  0  0  0  0  0  # atno 10718 bound_to 10713
  154.1817  135.6442  153.5036 H   0  0  0  0  0  0  0  0  0  0  0  0  # atno 10763 bound_to 10752
  153.0057  135.5407  154.6507 H   0  0  0  0  0  0  0  0  0  0  0  0  # atno 10764 bound_to 10752
  154.5873  135.2931  155.0644 H   0  0  0  0  0  0  0  0  0  0  0  0  # atno 10765 bound_to 10752
  140.0811  134.9096  157.1503 H   0  0  0  0  0  0  0  0  0  0  0  0  # atno 11005 bound_to 11000
  145.9540  139.2753  143.1195 LP  0  0  0  0  0  0  0  0  0  0  0  0  # atno 17320 bound_to 7965
  145.9293  140.9060  143.0365 LP  0  0  0  0  0  0  0  0  0  0  0  0  # atno 17321 bound_to 7965
  140.4101  144.2381  150.5889 LP  0  0  0  0  0  0  0  0  0  0  0  0  # atno 17342 bound_to 10162
  140.4975  143.2328  151.8728 LP  0  0  0  0  0  0  0  0  0  0  0  0  # atno 17343 bound_to 10162
  156.6088  130.4374  149.5867 LP  0  0  0  0  0  0  0  0  0  0  0  0  # atno 17370 bound_to 10713
  156.2447  130.6872  151.1588 LP  0  0  0  0  0  0  0  0  0  0  0  0  # atno 17371 bound_to 10713
  140.3486  134.2624  155.7201 LP  0  0  0  0  0  0  0  0  0  0  0  0  # atno 17394 bound_to 11000
  141.2047  133.7879  157.0273 LP  0  0  0  0  0  0  0  0  0  0  0  0  # atno 17395 bound_to 11000

$$$$
