AV-unprocessed.smi:978|AV-procd|sdf|4309|dock2
  -GOLD-   22720 2213D 1   1.00000     0.00000
 Structure written by MMmdl.
 39 40  0  0  0  0  0  0  0  0  2 V2000
  147.3461  141.3789  153.8305 C   0  0  0  0  0  0  0  0  0  0  0  0
  148.6263  140.6671  154.1694 C   0  0  0  0  0  0  0  0  0  0  0  0
  149.6447  141.3677  154.6462 N   0  0  0  0  0  0  0  0  0  0  0  0
  150.7125  140.4710  154.8047 O   0  0  0  0  0  0  0  0  0  0  0  0
  150.3088  139.2334  154.4160 C   0  0  0  0  0  0  0  0  0  0  0  0
  151.3154  138.1358  154.4959 C   0  0  0  0  0  0  0  0  0  0  0  0
  149.0008  139.2976  154.0354 C   0  0  0  0  0  0  0  0  0  0  0  0
  148.2498  138.2009  153.5434 N   0  0  0  0  0  0  0  0  0  0  0  0
  146.9752  137.9036  153.8382 C   0  0  0  0  0  0  0  0  0  0  0  0
  146.2645  138.5411  154.6144 O   0  0  0  0  0  0  0  0  0  0  0  0
  146.5679  136.7999  153.1952 N   0  0  0  0  0  0  0  0  0  0  0  0
  145.2456  136.1880  153.3243 C   0  0  2  0  0  0  0  0  0  0  0  0
  145.3732  134.7173  153.7598 C   0  0  0  0  0  0  0  0  0  0  0  0
  145.9128  133.8231  152.6281 C   0  0  0  0  0  0  0  0  0  0  0  0
  145.0800  133.9457  151.4058 N   0  3  2  0  0  0  0  0  0  0  0  0
  145.4988  133.0073  150.3425 C   0  0  0  0  0  0  0  0  0  0  0  0
  145.0022  135.3468  150.9234 C   0  0  0  0  0  0  0  0  0  0  0  0
  144.4379  136.2759  152.0128 C   0  0  0  0  0  0  0  0  0  0  0  0
  146.8671  140.9345  152.9581 H   0  0  0  0  0  0  0  0  0  0  0  0
  147.5222  142.4307  153.6028 H   0  0  0  0  0  0  0  0  0  0  0  0
  146.6418  141.3353  154.6614 H   0  0  0  0  0  0  0  0  0  0  0  0
  150.9418  137.2246  154.0289 H   0  0  0  0  0  0  0  0  0  0  0  0
  151.5547  137.9087  155.5349 H   0  0  0  0  0  0  0  0  0  0  0  0
  152.2383  138.4202  153.9901 H   0  0  0  0  0  0  0  0  0  0  0  0
  148.7607  137.5264  152.9928 H   0  0  0  0  0  0  0  0  0  0  0  0
  147.2276  136.3382  152.5865 H   0  0  0  0  0  0  0  0  0  0  0  0
  144.7051  136.7252  154.1060 H   0  0  0  0  0  0  0  0  0  0  0  0
  146.0123  134.6363  154.6400 H   0  0  0  0  0  0  0  0  0  0  0  0
  144.3923  134.3497  154.0645 H   0  0  0  0  0  0  0  0  0  0  0  0
  146.9457  134.0871  152.3953 H   0  0  0  0  0  0  0  0  0  0  0  0
  145.9207  132.7844  152.9609 H   0  0  0  0  0  0  0  0  0  0  0  0
  146.5063  133.2366  149.9926 H   0  0  0  0  0  0  0  0  0  0  0  0
  144.8194  133.0621  149.4913 H   0  0  0  0  0  0  0  0  0  0  0  0
  145.4892  131.9803  150.7090 H   0  0  0  0  0  0  0  0  0  0  0  0
  145.9923  135.6844  150.6132 H   0  0  0  0  0  0  0  0  0  0  0  0
  144.3623  135.3938  150.0415 H   0  0  0  0  0  0  0  0  0  0  0  0
  143.4030  135.9964  152.2146 H   0  0  0  0  0  0  0  0  0  0  0  0
  144.4034  137.3029  151.6476 H   0  0  0  0  0  0  0  0  0  0  0  0
  144.1417  133.6791  151.6686 H   0  0  0  0  0  0  0  0  0  0  0  0
  1  2  1  0  0  0  0
  1 19  1  0  0  0  0
  1 20  1  0  0  0  0
  1 21  1  0  0  0  0
  2  7  1  0  0  0  0
  2  3  2  0  0  0  0
  3  4  1  0  0  0  0
  4  5  1  0  0  0  0
  5  6  1  0  0  0  0
  5  7  2  0  0  0  0
  6 22  1  0  0  0  0
  6 23  1  0  0  0  0
  6 24  1  0  0  0  0
  7  8  1  0  0  0  0
  8  9  1  0  0  0  0
  8 25  1  0  0  0  0
  9 10  2  0  0  0  0
  9 11  1  0  0  0  0
 11 12  1  0  0  0  0
 11 26  1  0  0  0  0
 12 18  1  0  0  0  0
 12 13  1  0  0  0  0
 12 27  1  0  0  0  0
 13 14  1  0  0  0  0
 13 28  1  0  0  0  0
 13 29  1  0  0  0  0
 14 15  1  0  0  0  0
 14 30  1  0  0  0  0
 14 31  1  0  0  0  0
 15 16  1  0  0  0  0
 15 17  1  0  0  0  0
 15 39  1  0  0  0  0
 16 32  1  0  0  0  0
 16 33  1  0  0  0  0
 16 34  1  0  0  0  0
 17 18  1  0  0  0  0
 17 35  1  0  0  0  0
 17 36  1  0  0  0  0
 18 37  1  0  0  0  0
 18 38  1  0  0  0  0
M  CHG  1  15   1
M  END
> <s_m_source_file>
AV-unprocessed.smi

> <i_m_source_file_index>
978

> <i_lp_mmshare_version>
43012

> <i_f3d_flags>
0

> <s_epik_input>
W0NIM11jMW5vYyhbQ0gzXSljMVtOSF1DKD1PKVtOSF1bQ0hdMltDSDJdW0NIMl1OKFtDSDNdKVtDSDJdW0NIMl0y

> <s_epik_cmdline>
J2VwaWtfcHl0aG9uJywgJy1waCcsICc3LjAnLCAnLXRuJywgJzgnLCAnLW1hJywgJzIwMCcsICctbWV0YWxfYmluZGluZycsICctaW1hZScsICc8aW5maWxlLm1hZT4nLCAnLW9tYWUnLCAnPG91dGZpbGUubWFlPic=

> <r_epik_Ionization_Penalty>
0.00369783

> <r_epik_Ionization_Penalty_Charging>
0.00366825

> <r_epik_Ionization_Penalty_Neutral>
2.95799e-05

> <r_epik_State_Penalty>
0.00261101

> <r_epik_Charging_Adjusted_Penalty>
0.00627926

> <i_epik_Tot_Q>
1

> <i_epik_Tot_abs_Q>
1

> <r_epik_Metal_State_Penalty>
-0

> <b_epik_Metal_Only>
0

> <s_lp_Force_Field>
OPLS_2005

> <r_lp_Energy>
17.545

> <b_lp_Chiralities_Consistent>
1

> <s_lp_Variant>
AV-unprocessed.smi:978-2

> <Gold.Version>
5.8.1

> <Gold.Id.Protein>
6NUR|6NUR_protein|mol2

> <Gold.PLP.Fitness>
37.7899

> <Gold.PLP.PLP>
-29.2659

> <Gold.PLP.part.hbond>
-4.4342

> <Gold.PLP.part.metal>
0.0000

> <Gold.PLP.part.buried>
-1.9276

> <Gold.PLP.part.nonpolar>
-22.1218

> <Gold.PLP.part.repulsive>
0.3627

> <Gold.PLP.ligand.clash>
0.0000

> <Gold.PLP.ligand.torsion>
0.3725

> <Gold.PLP.Chemscore.Hbond>
3.0000

> <Gold.PLP.Chemscore.CHOScore>
0.0000

> <Gold.PLP.Chemscore.Metal>
0.0000

> <Gold.Chemscore.Hbonds>
donor molecule, donor type, donor heavy atom, donor atom, acceptor molecule, acceptor atom, score
      L1  H     8    25       P1  7948  1.00
      L1  H    11    26       P1  7948  1.00
      P1  H  7989  7998       L1     4  1.00

> <Gold.PLP.Chemscore.Internal.Correction>
0.2691

> <Gold.Rescore>
     Score         DG    S(hbond)    S(metal)    S(lipo)     H(rot)  DE(clash)    DE(int)     intcor
     16.80     -17.21       1.99        0.00      65.38       1.00       0.05       0.36       ----

> <Gold.Chemscore.Fitness>
16.7954

> <Gold.Chemscore.DG>
-17.2060

> <Gold.Chemscore.ZeroCoef>
-5.4800

> <Gold.Chemscore.Hbond>
1.9869

> <Gold.Chemscore.Metal>
0.0000

> <Gold.Chemscore.Lipo>
65.3826

> <Gold.Chemscore.Internal_Hbond>
0.0000

> <Gold.Chemscore.DEClash>
0.0525

> <Gold.Chemscore.DEInternal>
0.3581

> <Gold.Chemscore.Rot>
1.0000

> <Gold.Chemscore.Internal.Correction>
   9.000000E+99

> <Gold.Chemscore.Hbonds>
donor molecule, donor type, donor heavy atom, donor atom, acceptor molecule, acceptor atom, score
      L1  H     8    25       P1  7948  0.99
      L1  H    11    26       P1  7948  0.94
      P1  H  7989  7998       L1     4  0.06

> <Gold.Chemscore.Hbond.Weighted>
-6.6362

> <Gold.Chemscore.Metal.Weighted>
-0.0000

> <Gold.Chemscore.Lipo.Weighted>
-7.6498

> <Gold.Chemscore.Internal_Hbond.Weighted>
0.0000

> <Gold.Chemscore.DEClash.Weighted>
0.0525

> <Gold.Chemscore.DEInternal.Weighted>
0.3581

> <Gold.Chemscore.Rot.Weighted>
2.5600

> <Gold.Chemscore.Internal.Correction.Weighted>
   9.000000E+99

> <Gold.Protein.RotatedTorsions>
[ 6907 6896 6895 6894 ] final  148.53 input  -60.11 | X-H torsion
[ 7974 7965 7964 7962 ] final  172.94 input  175.53 | X-H torsion
[ 8008 7997 7996 7995 ] final  158.27 input   59.86 | X-H torsion
[ 10167 10162 10161 10158 ] final -111.82 input  -65.29 | X-H torsion
[ 10718 10713 10712 10709 ] final   70.44 input   66.30 | X-H torsion
[ 10763 10752 10751 10750 ] final  -55.14 input  -60.55 | X-H torsion
[ 11005 11000 10999 10996 ] final  161.89 input  -57.11 | X-H torsion

> <Gold.Protein.ActiveResidues>
 VAL166  LYS551  ARG553  GLY616  TRP617  ASP618  TYR619  PRO620  LYS621  CYS622 
 ASP623  PHE694  ASN695  SER759  ASP760  ASP761  ALA762  ILE779  LEU786  VAL792 
 PHE793  MET794  SER795  GLU796  ALA797  LYS798  CYS799  TRP800  GLU811  SER814 

> <Gold.Protein.RotatedAtoms>
  152.1402  133.4459  159.4762 H   0  0  0  0  0  0  0  0  0  0  0  0  # atno 6907 bound_to 6896
  150.6885  134.2314  159.4445 H   0  0  0  0  0  0  0  0  0  0  0  0  # atno 6908 bound_to 6896
  152.0204  134.9825  160.0621 H   0  0  0  0  0  0  0  0  0  0  0  0  # atno 6909 bound_to 6896
  144.7255  139.9574  143.6434 H   0  0  0  0  0  0  0  0  0  0  0  0  # atno 7974 bound_to 7965
  156.2313  140.1863  156.7234 H   0  0  0  0  0  0  0  0  0  0  0  0  # atno 8008 bound_to 7997
  154.6028  140.0633  156.9418 H   0  0  0  0  0  0  0  0  0  0  0  0  # atno 8009 bound_to 7997
  155.2146  140.3302  155.4326 H   0  0  0  0  0  0  0  0  0  0  0  0  # atno 8010 bound_to 7997
  140.1295  143.4373  152.1637 H   0  0  0  0  0  0  0  0  0  0  0  0  # atno 10167 bound_to 10162
  157.6400  130.9477  150.0651 H   0  0  0  0  0  0  0  0  0  0  0  0  # atno 10718 bound_to 10713
  154.1861  135.6435  153.5047 H   0  0  0  0  0  0  0  0  0  0  0  0  # atno 10763 bound_to 10752
  153.0047  135.5417  154.6464 H   0  0  0  0  0  0  0  0  0  0  0  0  # atno 10764 bound_to 10752
  154.5841  135.2928  155.0676 H   0  0  0  0  0  0  0  0  0  0  0  0  # atno 10765 bound_to 10752
  140.2203  134.8201  157.3213 H   0  0  0  0  0  0  0  0  0  0  0  0  # atno 11005 bound_to 11000
  146.0664  139.3655  143.0550 LP  0  0  0  0  0  0  0  0  0  0  0  0  # atno 17320 bound_to 7965
  145.8025  140.9764  143.0991 LP  0  0  0  0  0  0  0  0  0  0  0  0  # atno 17321 bound_to 7965
  139.5527  144.7350  151.4386 LP  0  0  0  0  0  0  0  0  0  0  0  0  # atno 17342 bound_to 10162
  140.6825  143.8048  150.7141 LP  0  0  0  0  0  0  0  0  0  0  0  0  # atno 17343 bound_to 10162
  156.1672  130.3645  149.9215 LP  0  0  0  0  0  0  0  0  0  0  0  0  # atno 17370 bound_to 10713
  156.7200  130.9003  151.3617 LP  0  0  0  0  0  0  0  0  0  0  0  0  # atno 17371 bound_to 10713
  140.1857  134.4435  155.7745 LP  0  0  0  0  0  0  0  0  0  0  0  0  # atno 17394 bound_to 11000
  141.2223  133.7004  156.7942 LP  0  0  0  0  0  0  0  0  0  0  0  0  # atno 17395 bound_to 11000

$$$$
