AV-unprocessed.smi:1643|AV-procd|sdf|6583|dock1
  -GOLD-   22720 7273D 1   1.00000     0.00000
 Structure written by MMmdl.
 54 56  0  0  0  0  0  0  0  0  2 V2000
  148.1210  134.7259  159.1680 C   0  0  0  0  0  0  0  0  0  0  0  0
  148.8224  134.0808  157.9701 C   0  0  0  0  0  0  0  0  0  0  0  0
  149.7187  133.2652  158.1893 O   0  0  0  0  0  0  0  0  0  0  0  0
  148.4418  134.4298  156.7177 N   0  0  0  0  0  0  0  0  0  0  0  0
  149.1050  133.8977  155.5220 C   0  0  0  0  0  0  0  0  0  0  0  0
  150.2658  134.8130  155.0995 C   0  0  0  0  0  0  0  0  0  0  0  0
  149.8724  136.2872  154.8680 C   0  0  0  0  0  0  0  0  0  0  0  0
  149.4817  136.9954  156.0949 N   0  0  0  0  0  0  0  0  0  0  0  0
  149.8722  138.4061  156.0787 C   0  0  0  0  0  0  0  0  0  0  0  0
  151.1505  138.7166  155.2729 C   0  0  1  0  0  0  0  0  0  0  0  0
  150.7574  139.2913  154.0433 O   0  0  0  0  0  0  0  0  0  0  0  0
  152.0923  139.6844  156.0194 C   0  0  0  0  0  0  0  0  0  0  0  0
  151.3947  140.8631  156.5512 N   0  0  0  0  0  0  0  0  0  0  0  0
  150.3537  141.5630  156.0250 C   0  0  0  0  0  0  0  0  0  0  0  0
  150.0621  142.5764  156.8865 N   0  3  0  0  0  0  0  0  0  0  0  0
  150.9297  142.5227  157.9793 C   0  0  0  0  0  0  0  0  0  0  0  0
  151.0253  143.3317  159.1054 C   0  0  0  0  0  0  0  0  0  0  0  0
  152.0267  143.0084  160.0486 C   0  0  0  0  0  0  0  0  0  0  0  0
  152.1587  143.8725  161.2912 C   0  0  0  0  0  0  0  0  0  0  0  0
  152.8905  141.9010  159.8454 C   0  0  0  0  0  0  0  0  0  0  0  0
  153.9599  141.5586  160.8686 C   0  0  0  0  0  0  0  0  0  0  0  0
  152.7777  141.0913  158.6928 C   0  0  0  0  0  0  0  0  0  0  0  0
  151.7875  141.4247  157.7718 C   0  0  0  0  0  0  0  0  0  0  0  0
  148.0413  136.8801  156.3688 C   0  0  0  0  0  0  0  0  0  0  0  0
  147.4395  135.4573  156.4125 C   0  0  0  0  0  0  0  0  0  0  0  0
  148.2164  135.8113  159.1383 H   0  0  0  0  0  0  0  0  0  0  0  0
  148.5645  134.3806  160.1026 H   0  0  0  0  0  0  0  0  0  0  0  0
  147.0633  134.4627  159.1856 H   0  0  0  0  0  0  0  0  0  0  0  0
  149.4768  132.8867  155.6958 H   0  0  0  0  0  0  0  0  0  0  0  0
  148.3972  133.7962  154.6986 H   0  0  0  0  0  0  0  0  0  0  0  0
  151.0571  134.7685  155.8489 H   0  0  0  0  0  0  0  0  0  0  0  0
  150.7027  134.4168  154.1826 H   0  0  0  0  0  0  0  0  0  0  0  0
  150.7360  136.7685  154.4131 H   0  0  0  0  0  0  0  0  0  0  0  0
  149.0828  136.3610  154.1187 H   0  0  0  0  0  0  0  0  0  0  0  0
  149.0410  139.0052  155.7031 H   0  0  0  0  0  0  0  0  0  0  0  0
  150.0426  138.7448  157.1020 H   0  0  0  0  0  0  0  0  0  0  0  0
  151.6907  137.8014  155.0342 H   0  0  0  0  0  0  0  0  0  0  0  0
  150.3514  138.6208  153.5151 H   0  0  0  0  0  0  0  0  0  0  0  0
  152.6239  139.1808  156.8272 H   0  0  0  0  0  0  0  0  0  0  0  0
  152.8591  140.0571  155.3389 H   0  0  0  0  0  0  0  0  0  0  0  0
  149.8514  141.3531  155.0915 H   0  0  0  0  0  0  0  0  0  0  0  0
  150.3621  144.1713  159.2544 H   0  0  0  0  0  0  0  0  0  0  0  0
  151.9695  143.2829  162.1886 H   0  0  0  0  0  0  0  0  0  0  0  0
  151.4486  144.7001  161.2795 H   0  0  0  0  0  0  0  0  0  0  0  0
  153.1610  144.2960  161.3594 H   0  0  0  0  0  0  0  0  0  0  0  0
  154.5179  140.6675  160.5788 H   0  0  0  0  0  0  0  0  0  0  0  0
  153.5109  141.3671  161.8436 H   0  0  0  0  0  0  0  0  0  0  0  0
  154.6707  142.3791  160.9687 H   0  0  0  0  0  0  0  0  0  0  0  0
  153.4318  140.2453  158.5417 H   0  0  0  0  0  0  0  0  0  0  0  0
  147.8437  137.3468  157.3344 H   0  0  0  0  0  0  0  0  0  0  0  0
  147.4798  137.4709  155.6435 H   0  0  0  0  0  0  0  0  0  0  0  0
  146.9831  135.2481  155.4444 H   0  0  0  0  0  0  0  0  0  0  0  0
  146.6020  135.4232  157.1095 H   0  0  0  0  0  0  0  0  0  0  0  0
  149.3255  143.2537  156.7365 H   0  0  0  0  0  0  0  0  0  0  0  0
  1  2  1  0  0  0  0
  1 26  1  0  0  0  0
  1 27  1  0  0  0  0
  1 28  1  0  0  0  0
  2  3  2  0  0  0  0
  2  4  1  0  0  0  0
  4 25  1  0  0  0  0
  4  5  1  0  0  0  0
  5  6  1  0  0  0  0
  5 29  1  0  0  0  0
  5 30  1  0  0  0  0
  6  7  1  0  0  0  0
  6 31  1  0  0  0  0
  6 32  1  0  0  0  0
  7  8  1  0  0  0  0
  7 33  1  0  0  0  0
  7 34  1  0  0  0  0
  8  9  1  0  0  0  0
  8 24  1  0  0  0  0
  9 10  1  0  0  0  0
  9 35  1  0  0  0  0
  9 36  1  0  0  0  0
 10 11  1  0  0  0  0
 10 12  1  0  0  0  0
 10 37  1  0  0  0  0
 11 38  1  0  0  0  0
 12 13  1  0  0  0  0
 12 39  1  0  0  0  0
 12 40  1  0  0  0  0
 13 23  1  0  0  0  0
 13 14  1  0  0  0  0
 14 15  2  0  0  0  0
 14 41  1  0  0  0  0
 15 16  1  0  0  0  0
 15 54  1  0  0  0  0
 16 23  2  0  0  0  0
 16 17  1  0  0  0  0
 17 18  2  0  0  0  0
 17 42  1  0  0  0  0
 18 19  1  0  0  0  0
 18 20  1  0  0  0  0
 19 43  1  0  0  0  0
 19 44  1  0  0  0  0
 19 45  1  0  0  0  0
 20 21  1  0  0  0  0
 20 22  2  0  0  0  0
 21 46  1  0  0  0  0
 21 47  1  0  0  0  0
 21 48  1  0  0  0  0
 22 23  1  0  0  0  0
 22 49  1  0  0  0  0
 24 25  1  0  0  0  0
 24 50  1  0  0  0  0
 24 51  1  0  0  0  0
 25 52  1  0  0  0  0
 25 53  1  0  0  0  0
M  CHG  1  15   1
M  END
> <s_m_source_file>
AV-unprocessed.smi

> <i_m_source_file_index>
1643

> <i_lp_mmshare_version>
43012

> <i_f3d_flags>
0

> <s_epik_input>
W0NIM11DKD1PKU4xW0NIMl1bQ0gyXVtDSDJdTihbQ0gyXVtDSDJdMSlbQ0gyXVtDQEhdKFtPSF0pW0NIMl1uKFtjSF1uMiljKGMyMylbY0hdYyhbQ0gzXSljKFtjSF0zKVtDSDNd

> <s_epik_cmdline>
J2VwaWtfcHl0aG9uJywgJy1waCcsICc3LjAnLCAnLXRuJywgJzgnLCAnLW1hJywgJzIwMCcsICctbWV0YWxfYmluZGluZycsICctaW1hZScsICc8aW5maWxlLm1hZT4nLCAnLW9tYWUnLCAnPG91dGZpbGUubWFlPic=

> <r_epik_Ionization_Penalty>
2.25269

> <r_epik_Ionization_Penalty_Charging>
1.20735

> <r_epik_Ionization_Penalty_Neutral>
1.04533

> <r_epik_State_Penalty>
2.37869

> <r_epik_Charging_Adjusted_Penalty>
3.58604

> <i_epik_Tot_Q>
1

> <i_epik_Tot_abs_Q>
1

> <r_epik_Metal_State_Penalty>
6.40045

> <b_epik_Metal_Only>
0

> <s_lp_Force_Field>
OPLS_2005

> <r_lp_Energy>
51.5531

> <b_lp_Chiralities_Consistent>
1

> <s_lp_Variant>
AV-unprocessed.smi:1643-12

> <Gold.Version>
5.8.1

> <Gold.Id.Protein>
6NUR|6NUR_protein|mol2

> <Gold.PLP.Fitness>
50.2781

> <Gold.PLP.PLP>
-40.8582

> <Gold.PLP.part.hbond>
-3.3896

> <Gold.PLP.part.metal>
0.0000

> <Gold.PLP.part.buried>
-3.8393

> <Gold.PLP.part.nonpolar>
-33.2843

> <Gold.PLP.part.repulsive>
0.0599

> <Gold.PLP.ligand.clash>
0.0000

> <Gold.PLP.ligand.torsion>
1.3481

> <Gold.PLP.Chemscore.Hbond>
4.0000

> <Gold.PLP.Chemscore.CHOScore>
0.0000

> <Gold.PLP.Chemscore.Metal>
0.0000

> <Gold.Chemscore.Hbonds>
donor molecule, donor type, donor heavy atom, donor atom, acceptor molecule, acceptor atom, score
      L1  H    15    54       P1  8028  1.66
      P1  H  6896  6907       L1     3  1.00
      P1  H  7989  7998       L1    11  1.00

> <Gold.PLP.Chemscore.Internal.Correction>
0.1161

> <Gold.Rescore>
     Score         DG    S(hbond)    S(metal)    S(lipo)     H(rot)  DE(clash)    DE(int)     intcor
     20.75     -22.93       2.96        0.00     111.15       2.12       0.08       2.10       ----

> <Gold.Chemscore.Fitness>
20.7543

> <Gold.Chemscore.DG>
-22.9330

> <Gold.Chemscore.ZeroCoef>
-5.4800

> <Gold.Chemscore.Hbond>
2.9584

> <Gold.Chemscore.Metal>
0.0000

> <Gold.Chemscore.Lipo>
111.1463

> <Gold.Chemscore.Internal_Hbond>
0.0000

> <Gold.Chemscore.DEClash>
0.0775

> <Gold.Chemscore.DEInternal>
2.1012

> <Gold.Chemscore.Rot>
2.1220

> <Gold.Chemscore.Internal.Correction>
   9.000000E+99

> <Gold.Chemscore.Hbonds>
donor molecule, donor type, donor heavy atom, donor atom, acceptor molecule, acceptor atom, score
      L1  H    15    54       P1  8028  0.82
      P1  H  6896  6907       L1     3  0.91
      P1  H  7989  7998       L1    11  0.95

> <Gold.Chemscore.Hbond.Weighted>
-9.8811

> <Gold.Chemscore.Metal.Weighted>
-0.0000

> <Gold.Chemscore.Lipo.Weighted>
-13.0041

> <Gold.Chemscore.Internal_Hbond.Weighted>
0.0000

> <Gold.Chemscore.DEClash.Weighted>
0.0775

> <Gold.Chemscore.DEInternal.Weighted>
2.1012

> <Gold.Chemscore.Rot.Weighted>
5.4322

> <Gold.Chemscore.Internal.Correction.Weighted>
   9.000000E+99

> <Gold.Protein.RotatedTorsions>
[ 6907 6896 6895 6894 ] final -124.76 input  -60.11 | X-H torsion
[ 7974 7965 7964 7962 ] final  108.14 input  175.53 | X-H torsion
[ 8008 7997 7996 7995 ] final  112.32 input   59.86 | X-H torsion
[ 10167 10162 10161 10158 ] final -100.48 input  -65.29 | X-H torsion
[ 10718 10713 10712 10709 ] final  -99.74 input   66.30 | X-H torsion
[ 10763 10752 10751 10750 ] final   16.62 input  -60.55 | X-H torsion
[ 11005 11000 10999 10996 ] final  -14.99 input  -57.11 | X-H torsion

> <Gold.Protein.ActiveResidues>
 VAL166  LYS551  ARG553  GLY616  TRP617  ASP618  TYR619  PRO620  LYS621  CYS622 
 ASP623  PHE694  ASN695  SER759  ASP760  ASP761  ALA762  ILE779  LEU786  VAL792 
 PHE793  MET794  SER795  GLU796  ALA797  LYS798  CYS799  TRP800  GLU811  SER814 

> <Gold.Protein.RotatedAtoms>
  150.8800  133.7385  159.2934 H   0  0  0  0  0  0  0  0  0  0  0  0  # atno 6907 bound_to 6896
  151.4970  135.1058  159.9828 H   0  0  0  0  0  0  0  0  0  0  0  0  # atno 6908 bound_to 6896
  152.4753  133.8079  159.7043 H   0  0  0  0  0  0  0  0  0  0  0  0  # atno 6909 bound_to 6896
  145.2845  139.2621  143.3898 H   0  0  0  0  0  0  0  0  0  0  0  0  # atno 7974 bound_to 7965
  156.2184  140.3002  155.9894 H   0  0  0  0  0  0  0  0  0  0  0  0  # atno 8008 bound_to 7997
  155.2545  140.0427  157.3007 H   0  0  0  0  0  0  0  0  0  0  0  0  # atno 8009 bound_to 7997
  154.5803  140.2373  155.8071 H   0  0  0  0  0  0  0  0  0  0  0  0  # atno 8010 bound_to 7997
  140.2515  143.3469  152.0711 H   0  0  0  0  0  0  0  0  0  0  0  0  # atno 10167 bound_to 10162
  156.0142  130.5296  150.6715 H   0  0  0  0  0  0  0  0  0  0  0  0  # atno 10718 bound_to 10713
  153.1414  135.6760  153.9022 H   0  0  0  0  0  0  0  0  0  0  0  0  # atno 10763 bound_to 10752
  153.8478  135.3097  155.3431 H   0  0  0  0  0  0  0  0  0  0  0  0  # atno 10764 bound_to 10752
  154.7790  135.4899  153.9888 H   0  0  0  0  0  0  0  0  0  0  0  0  # atno 10765 bound_to 10752
  140.7921  133.8280  155.9389 H   0  0  0  0  0  0  0  0  0  0  0  0  # atno 11005 bound_to 11000
  146.3205  140.3321  142.8641 LP  0  0  0  0  0  0  0  0  0  0  0  0  # atno 17320 bound_to 7965
  144.9225  140.7884  143.5739 LP  0  0  0  0  0  0  0  0  0  0  0  0  # atno 17321 bound_to 7965
  139.5045  144.6776  151.6089 LP  0  0  0  0  0  0  0  0  0  0  0  0  # atno 17342 bound_to 10162
  140.6037  143.9563  150.6404 LP  0  0  0  0  0  0  0  0  0  0  0  0  # atno 17343 bound_to 10162
  157.4436  131.0864  151.0918 LP  0  0  0  0  0  0  0  0  0  0  0  0  # atno 17370 bound_to 10713
  157.1455  130.6161  149.5567 LP  0  0  0  0  0  0  0  0  0  0  0  0  # atno 17371 bound_to 10713
  140.9379  134.1938  157.4818 LP  0  0  0  0  0  0  0  0  0  0  0  0  # atno 17394 bound_to 11000
  139.8730  134.9860  156.5305 LP  0  0  0  0  0  0  0  0  0  0  0  0  # atno 17395 bound_to 11000

$$$$
