AV-unprocessed.smi:2026|AV-procd|sdf|8204|dock1
  -GOLD-   2272010463D 1   1.00000     0.00000
 Structure written by MMmdl.
 47 49  0  0  0  0  0  0  0  0  2 V2000
  152.1316  139.8958  156.7323 C   0  0  0  0  0  0  0  0  0  0  0  0
  150.9106  139.8949  155.8285 C   0  0  0  0  0  0  0  0  0  0  0  0
  150.1323  141.0715  155.7459 C   0  0  0  0  0  0  0  0  0  0  0  0
  149.0205  141.0394  154.9126 C   0  0  0  0  0  0  0  0  0  0  0  0
  148.0713  142.0204  154.6189 N   0  3  0  0  0  0  0  0  0  0  0  0
  147.1604  141.5217  153.7383 C   0  0  0  0  0  0  0  0  0  0  0  0
  147.5125  140.2359  153.4665 N   0  0  0  0  0  0  0  0  0  0  0  0
  146.8676  139.2589  152.5773 C   0  0  0  0  0  0  0  0  0  0  0  0
  146.0051  138.2376  153.3442 C   0  0  1  0  0  0  0  0  0  0  0  0
  145.0210  138.9346  154.0835 O   0  0  0  0  0  0  0  0  0  0  0  0
  145.3002  137.2541  152.3877 C   0  0  0  0  0  0  0  0  0  0  0  0
  144.3493  136.3912  153.0958 N   0  0  0  0  0  0  0  0  0  0  0  0
  144.6199  135.1392  153.5051 C   0  0  0  0  0  0  0  0  0  0  0  0
  145.6861  134.5401  153.3731 O   0  0  0  0  0  0  0  0  0  0  0  0
  143.5207  134.6401  154.0858 N   0  0  0  0  0  0  0  0  0  0  0  0
  142.4096  135.5728  154.0886 C   0  0  0  0  0  0  0  0  0  0  0  0
  141.2304  135.0241  153.2654 C   0  0  0  0  0  0  0  0  0  0  0  0
  141.9987  135.9353  155.5270 C   0  0  0  0  0  0  0  0  0  0  0  0
  143.0882  136.7385  153.3856 C   0  0  0  0  0  0  0  0  0  0  0  0
  142.5344  137.8083  153.1305 O   0  0  0  0  0  0  0  0  0  0  0  0
  148.6695  139.8911  154.1759 C   0  0  0  0  0  0  0  0  0  0  0  0
  149.4283  138.7244  154.2442 C   0  0  0  0  0  0  0  0  0  0  0  0
  150.5642  138.7370  155.0849 C   0  0  0  0  0  0  0  0  0  0  0  0
  151.4117  137.4794  155.1758 C   0  0  0  0  0  0  0  0  0  0  0  0
  152.2297  140.8398  157.2691 H   0  0  0  0  0  0  0  0  0  0  0  0
  153.0399  139.7482  156.1477 H   0  0  0  0  0  0  0  0  0  0  0  0
  152.0619  139.0987  157.4728 H   0  0  0  0  0  0  0  0  0  0  0  0
  150.3914  141.9578  156.3066 H   0  0  0  0  0  0  0  0  0  0  0  0
  146.3130  142.0514  153.3273 H   0  0  0  0  0  0  0  0  0  0  0  0
  146.2868  139.7815  151.8170 H   0  0  0  0  0  0  0  0  0  0  0  0
  147.6668  138.7407  152.0458 H   0  0  0  0  0  0  0  0  0  0  0  0
  146.6452  137.6953  154.0417 H   0  0  0  0  0  0  0  0  0  0  0  0
  144.5567  139.5122  153.4972 H   0  0  0  0  0  0  0  0  0  0  0  0
  144.8173  137.7878  151.5670 H   0  0  0  0  0  0  0  0  0  0  0  0
  146.0439  136.6134  151.9104 H   0  0  0  0  0  0  0  0  0  0  0  0
  143.4559  133.7108  154.4751 H   0  0  0  0  0  0  0  0  0  0  0  0
  140.3975  135.7279  153.2508 H   0  0  0  0  0  0  0  0  0  0  0  0
  140.8619  134.0876  153.6853 H   0  0  0  0  0  0  0  0  0  0  0  0
  141.5159  134.8295  152.2303 H   0  0  0  0  0  0  0  0  0  0  0  0
  141.1764  136.6518  155.5346 H   0  0  0  0  0  0  0  0  0  0  0  0
  142.8257  136.3766  156.0853 H   0  0  0  0  0  0  0  0  0  0  0  0
  141.6688  135.0515  156.0741 H   0  0  0  0  0  0  0  0  0  0  0  0
  149.1694  137.8428  153.6775 H   0  0  0  0  0  0  0  0  0  0  0  0
  151.0440  136.7006  154.5068 H   0  0  0  0  0  0  0  0  0  0  0  0
  151.3974  137.0813  156.1908 H   0  0  0  0  0  0  0  0  0  0  0  0
  152.4451  137.6919  154.9005 H   0  0  0  0  0  0  0  0  0  0  0  0
  148.0463  142.9621  154.9885 H   0  0  0  0  0  0  0  0  0  0  0  0
  1  2  1  0  0  0  0
  1 25  1  0  0  0  0
  1 26  1  0  0  0  0
  1 27  1  0  0  0  0
  2 23  1  0  0  0  0
  2  3  2  0  0  0  0
  3  4  1  0  0  0  0
  3 28  1  0  0  0  0
  4 21  2  0  0  0  0
  4  5  1  0  0  0  0
  5  6  2  0  0  0  0
  5 47  1  0  0  0  0
  6  7  1  0  0  0  0
  6 29  1  0  0  0  0
  7  8  1  0  0  0  0
  7 21  1  0  0  0  0
  8  9  1  0  0  0  0
  8 30  1  0  0  0  0
  8 31  1  0  0  0  0
  9 10  1  0  0  0  0
  9 11  1  0  0  0  0
  9 32  1  0  0  0  0
 10 33  1  0  0  0  0
 11 12  1  0  0  0  0
 11 34  1  0  0  0  0
 11 35  1  0  0  0  0
 12 19  1  0  0  0  0
 12 13  1  0  0  0  0
 13 14  2  0  0  0  0
 13 15  1  0  0  0  0
 15 16  1  0  0  0  0
 15 36  1  0  0  0  0
 16 17  1  0  0  0  0
 16 18  1  0  0  0  0
 16 19  1  0  0  0  0
 17 37  1  0  0  0  0
 17 38  1  0  0  0  0
 17 39  1  0  0  0  0
 18 40  1  0  0  0  0
 18 41  1  0  0  0  0
 18 42  1  0  0  0  0
 19 20  2  0  0  0  0
 21 22  1  0  0  0  0
 22 23  2  0  0  0  0
 22 43  1  0  0  0  0
 23 24  1  0  0  0  0
 24 44  1  0  0  0  0
 24 45  1  0  0  0  0
 24 46  1  0  0  0  0
M  CHG  1   5   1
M  END
> <s_m_source_file>
AV-unprocessed.smi

> <i_m_source_file_index>
2026

> <i_lp_mmshare_version>
43012

> <i_f3d_flags>
0

> <s_epik_input>
W0NIM11jKFtjSF0xKWMoW0NIM10pW2NIXWMoYzEyKW4oW2NIXW4yKVtDSDJdW0NASF0oW09IXSlbQ0gyXU4oQzM9TylDKD1PKVtOSF1DMyhbQ0gzXSlbQ0gzXQ==

> <s_epik_cmdline>
J2VwaWtfcHl0aG9uJywgJy1waCcsICc3LjAnLCAnLXRuJywgJzgnLCAnLW1hJywgJzIwMCcsICctbWV0YWxfYmluZGluZycsICctaW1hZScsICc8aW5maWxlLm1hZT4nLCAnLW9tYWUnLCAnPG91dGZpbGUubWFlPic=

> <r_lp_tautomer_probability>
1

> <r_epik_Ionization_Penalty>
1.08255

> <r_epik_Ionization_Penalty_Charging>
1.08249

> <r_epik_Ionization_Penalty_Neutral>
6.65731e-05

> <r_epik_State_Penalty>
1.13805

> <r_epik_Charging_Adjusted_Penalty>
2.22054

> <i_epik_Tot_Q>
1

> <i_epik_Tot_abs_Q>
1

> <r_epik_Metal_State_Penalty>
1.29676

> <b_epik_Metal_Only>
0

> <s_lp_Force_Field>
OPLS_2005

> <r_lp_Energy>
29.7067

> <b_lp_Chiralities_Consistent>
1

> <s_lp_Variant>
AV-unprocessed.smi:2026-4

> <Gold.Version>
5.8.1

> <Gold.Id.Protein>
6NUR|6NUR_protein|mol2

> <Gold.PLP.Fitness>
46.7297

> <Gold.PLP.PLP>
-37.0198

> <Gold.PLP.part.hbond>
-2.9234

> <Gold.PLP.part.metal>
0.0000

> <Gold.PLP.part.buried>
2.0220

> <Gold.PLP.part.nonpolar>
-37.3325

> <Gold.PLP.part.repulsive>
1.0976

> <Gold.PLP.ligand.clash>
0.0000

> <Gold.PLP.ligand.torsion>
0.6218

> <Gold.PLP.Chemscore.Hbond>
3.6325

> <Gold.PLP.Chemscore.CHOScore>
0.0000

> <Gold.PLP.Chemscore.Metal>
0.0000

> <Gold.Chemscore.Hbonds>
donor molecule, donor type, donor heavy atom, donor atom, acceptor molecule, acceptor atom, score
      L1  H     5    47       P1  8028  1.98
      L1  H    10    33       P1 10175  1.00
      L1  H    15    36       P1 10957  0.76

> <Gold.PLP.Chemscore.Internal.Correction>
0.0559

> <Gold.Rescore>
     Score         DG    S(hbond)    S(metal)    S(lipo)     H(rot)  DE(clash)    DE(int)     intcor
     13.51     -18.36       2.67        0.00      88.47       2.49       2.03       2.83       ----

> <Gold.Chemscore.Fitness>
13.5059

> <Gold.Chemscore.DG>
-18.3647

> <Gold.Chemscore.ZeroCoef>
-5.4800

> <Gold.Chemscore.Hbond>
2.6692

> <Gold.Chemscore.Metal>
0.0000

> <Gold.Chemscore.Lipo>
88.4747

> <Gold.Chemscore.Internal_Hbond>
0.0000

> <Gold.Chemscore.DEClash>
2.0332

> <Gold.Chemscore.DEInternal>
2.8256

> <Gold.Chemscore.Rot>
2.4929

> <Gold.Chemscore.Internal.Correction>
   9.000000E+99

> <Gold.Chemscore.Hbonds>
donor molecule, donor type, donor heavy atom, donor atom, acceptor molecule, acceptor atom, score
      L1  H     5    47       P1  8028  0.86
      L1  H    10    33       P1 10175  1.00
      L1  H    15    36       P1 10957  0.76

> <Gold.Chemscore.Hbond.Weighted>
-8.9150

> <Gold.Chemscore.Metal.Weighted>
-0.0000

> <Gold.Chemscore.Lipo.Weighted>
-10.3515

> <Gold.Chemscore.Internal_Hbond.Weighted>
0.0000

> <Gold.Chemscore.DEClash.Weighted>
2.0332

> <Gold.Chemscore.DEInternal.Weighted>
2.8256

> <Gold.Chemscore.Rot.Weighted>
6.3819

> <Gold.Chemscore.Internal.Correction.Weighted>
   9.000000E+99

> <Gold.Protein.RotatedTorsions>
[ 6907 6896 6895 6894 ] final   83.92 input  -60.11 | X-H torsion
[ 7974 7965 7964 7962 ] final  115.18 input  175.53 | X-H torsion
[ 8008 7997 7996 7995 ] final  -34.71 input   59.86 | X-H torsion
[ 10167 10162 10161 10158 ] final -163.92 input  -65.29 | X-H torsion
[ 10718 10713 10712 10709 ] final   60.52 input   66.30 | X-H torsion
[ 10763 10752 10751 10750 ] final -177.91 input  -60.55 | X-H torsion
[ 11005 11000 10999 10996 ] final  174.42 input  -57.11 | X-H torsion

> <Gold.Protein.ActiveResidues>
 VAL166  LYS551  ARG553  GLY616  TRP617  ASP618  TYR619  PRO620  LYS621  CYS622 
 ASP623  PHE694  ASN695  SER759  ASP760  ASP761  ALA762  ILE779  LEU786  VAL792 
 PHE793  MET794  SER795  GLU796  ALA797  LYS798  CYS799  TRP800  GLU811  SER814 

> <Gold.Protein.RotatedAtoms>
  152.5339  134.2821  159.9010 H   0  0  0  0  0  0  0  0  0  0  0  0  # atno 6907 bound_to 6896
  151.2775  133.4219  159.2632 H   0  0  0  0  0  0  0  0  0  0  0  0  # atno 6908 bound_to 6896
  151.0313  134.9556  159.8169 H   0  0  0  0  0  0  0  0  0  0  0  0  # atno 6909 bound_to 6896
  145.1952  139.2980  143.4347 H   0  0  0  0  0  0  0  0  0  0  0  0  # atno 7974 bound_to 7965
  154.4114  140.1677  156.2093 H   0  0  0  0  0  0  0  0  0  0  0  0  # atno 8008 bound_to 7997
  155.9458  140.3404  155.6342 H   0  0  0  0  0  0  0  0  0  0  0  0  # atno 8009 bound_to 7997
  155.6932  140.0736  157.2430 H   0  0  0  0  0  0  0  0  0  0  0  0  # atno 8010 bound_to 7997
  139.6287  144.0483  152.1997 H   0  0  0  0  0  0  0  0  0  0  0  0  # atno 10167 bound_to 10162
  157.5759  130.8943  149.9346 H   0  0  0  0  0  0  0  0  0  0  0  0  # atno 10718 bound_to 10713
  154.5543  135.2815  155.0979 H   0  0  0  0  0  0  0  0  0  0  0  0  # atno 10763 bound_to 10752
  154.2413  135.6356  153.5212 H   0  0  0  0  0  0  0  0  0  0  0  0  # atno 10764 bound_to 10752
  153.0011  135.5560  154.6118 H   0  0  0  0  0  0  0  0  0  0  0  0  # atno 10765 bound_to 10752
  140.3511  134.7194  157.4268 H   0  0  0  0  0  0  0  0  0  0  0  0  # atno 11005 bound_to 11000
  146.3428  140.2177  142.8591 LP  0  0  0  0  0  0  0  0  0  0  0  0  # atno 17320 bound_to 7965
  145.0002  140.8625  143.5286 LP  0  0  0  0  0  0  0  0  0  0  0  0  # atno 17321 bound_to 7965
  140.0142  144.6201  150.7621 LP  0  0  0  0  0  0  0  0  0  0  0  0  # atno 17342 bound_to 10162
  140.7426  143.2834  151.3532 LP  0  0  0  0  0  0  0  0  0  0  0  0  # atno 17343 bound_to 10162
  156.0804  130.3674  150.0593 LP  0  0  0  0  0  0  0  0  0  0  0  0  # atno 17370 bound_to 10713
  156.8739  130.9533  151.3606 LP  0  0  0  0  0  0  0  0  0  0  0  0  # atno 17371 bound_to 10713
  140.0702  134.5873  155.8650 LP  0  0  0  0  0  0  0  0  0  0  0  0  # atno 17394 bound_to 11000
  141.2012  133.6617  156.5936 LP  0  0  0  0  0  0  0  0  0  0  0  0  # atno 17395 bound_to 11000

$$$$
