AV-unprocessed.smi:1843|AV-procd|sdf|7507|dock6
  -GOLD-   22720 9213D 1   1.00000     0.00000
 Structure written by MMmdl.
 36 38  0  0  0  0  0  0  0  0  2 V2000
  151.4293  139.2056  156.6445 O   0  0  0  0  0  0  0  0  0  0  0  0
  150.4159  139.4209  157.3134 C   0  0  0  0  0  0  0  0  0  0  0  0
  149.3136  138.6396  157.3729 N   0  5  0  0  0  0  0  0  0  0  0  0
  149.0952  137.8675  158.4501 C   0  0  0  0  0  0  0  0  0  0  0  0
  149.9842  137.7540  159.4468 N   0  0  0  0  0  0  0  0  0  0  0  0
  149.5573  136.9115  160.4634 N   0  0  0  0  0  0  0  0  0  0  0  0
  148.3462  136.4043  160.2219 C   0  0  0  0  0  0  0  0  0  0  0  0
  147.6682  135.4671  161.1645 C   0  0  0  0  0  0  0  0  0  0  0  0
  146.3720  135.8524  161.8396 C   0  0  0  0  0  0  0  0  0  0  0  0
  147.6344  135.7307  162.6541 C   0  0  0  0  0  0  0  0  0  0  0  0
  147.6226  136.9345  158.7124 S   0  0  0  0  0  0  0  0  0  0  0  0
  150.3337  140.5242  158.0703 N   0  0  0  0  0  0  0  0  0  0  0  0
  151.3571  141.5601  158.2001 C   0  0  1  0  0  0  0  0  0  0  0  0
  150.7004  142.8417  158.7620 C   0  0  0  0  0  0  0  0  0  0  0  0
  151.7309  143.9288  159.0984 C   0  0  0  0  0  0  0  0  0  0  0  0
  152.7887  143.3974  160.0740 C   0  0  0  0  0  0  0  0  0  0  0  0
  153.4862  142.1614  159.4915 C   0  0  0  0  0  0  0  0  0  0  0  0
  152.4790  141.0512  159.1352 C   0  0  2  0  0  0  0  0  0  0  0  0
  153.1985  140.0182  158.4916 O   0  0  0  0  0  0  0  0  0  0  0  0
  147.7851  134.4374  160.8329 H   0  0  0  0  0  0  0  0  0  0  0  0
  145.9861  136.8538  161.6589 H   0  0  0  0  0  0  0  0  0  0  0  0
  145.6188  135.0764  161.9585 H   0  0  0  0  0  0  0  0  0  0  0  0
  147.7246  134.8728  163.3170 H   0  0  0  0  0  0  0  0  0  0  0  0
  148.0771  136.6533  163.0241 H   0  0  0  0  0  0  0  0  0  0  0  0
  149.4831  140.6581  158.5969 H   0  0  0  0  0  0  0  0  0  0  0  0
  151.7894  141.7847  157.2228 H   0  0  0  0  0  0  0  0  0  0  0  0
  149.9766  143.2363  158.0477 H   0  0  0  0  0  0  0  0  0  0  0  0
  150.1369  142.5986  159.6639 H   0  0  0  0  0  0  0  0  0  0  0  0
  152.2130  144.2731  158.1825 H   0  0  0  0  0  0  0  0  0  0  0  0
  151.2287  144.7951  159.5293 H   0  0  0  0  0  0  0  0  0  0  0  0
  153.5235  144.1743  160.2862 H   0  0  0  0  0  0  0  0  0  0  0  0
  152.3204  143.1434  161.0257 H   0  0  0  0  0  0  0  0  0  0  0  0
  154.0423  142.4550  158.5994 H   0  0  0  0  0  0  0  0  0  0  0  0
  154.2225  141.7846  160.2026 H   0  0  0  0  0  0  0  0  0  0  0  0
  152.0440  140.6547  160.0540 H   0  0  0  0  0  0  0  0  0  0  0  0
  152.7671  139.1972  158.6750 H   0  0  0  0  0  0  0  0  0  0  0  0
  1  2  2  0  0  0  0
  2  3  1  0  0  0  0
  2 12  1  0  0  0  0
  3  4  1  0  0  0  0
  4 11  1  0  0  0  0
  4  5  2  0  0  0  0
  5  6  1  0  0  0  0
  6  7  2  0  0  0  0
  7  8  1  0  0  0  0
  7 11  1  0  0  0  0
  8 10  1  0  0  0  0
  8  9  1  0  0  0  0
  8 20  1  0  0  0  0
  9 10  1  0  0  0  0
  9 21  1  0  0  0  0
  9 22  1  0  0  0  0
 10 23  1  0  0  0  0
 10 24  1  0  0  0  0
 12 13  1  0  0  0  0
 12 25  1  0  0  0  0
 13 18  1  0  0  0  0
 13 14  1  0  0  0  0
 13 26  1  0  0  0  0
 14 15  1  0  0  0  0
 14 27  1  0  0  0  0
 14 28  1  0  0  0  0
 15 16  1  0  0  0  0
 15 29  1  0  0  0  0
 15 30  1  0  0  0  0
 16 17  1  0  0  0  0
 16 31  1  0  0  0  0
 16 32  1  0  0  0  0
 17 18  1  0  0  0  0
 17 33  1  0  0  0  0
 17 34  1  0  0  0  0
 18 19  1  0  0  0  0
 18 35  1  0  0  0  0
 19 36  1  0  0  0  0
M  CHG  1   3  -1
M  END
> <s_m_source_file>
AV-unprocessed.smi

> <i_m_source_file_index>
1843

> <i_lp_mmshare_version>
43012

> <i_f3d_flags>
0

> <s_epik_input>
W09IXVtDQEBIXTFbQ0gyXVtDSDJdW0NIMl1bQ0gyXVtDQEhdMVtOSF1DKD1PKVtOSF1jMm5uYyhzMilbQ0hdM1tDSDJdW0NIMl0z

> <s_epik_cmdline>
J2VwaWtfcHl0aG9uJywgJy1waCcsICc3LjAnLCAnLXRuJywgJzgnLCAnLW1hJywgJzIwMCcsICctbWV0YWxfYmluZGluZycsICctaW1hZScsICc8aW5maWxlLm1hZT4nLCAnLW9tYWUnLCAnPG91dGZpbGUubWFlPic=

> <r_lp_tautomer_probability>
1

> <r_epik_Ionization_Penalty>
4.7996

> <r_epik_Ionization_Penalty_Charging>
4.64516

> <r_epik_Ionization_Penalty_Neutral>
0.154442

> <r_epik_State_Penalty>
4.64493

> <r_epik_Charging_Adjusted_Penalty>
9.29009

> <i_epik_Tot_Q>
-1

> <i_epik_Tot_abs_Q>
1

> <r_epik_Metal_State_Penalty>
0.896144

> <b_epik_Metal_Only>
1

> <s_lp_Force_Field>
OPLS_2005

> <r_lp_Energy>
6.73246

> <b_lp_Chiralities_Consistent>
1

> <s_lp_Variant>
AV-unprocessed.smi:1843-8

> <Gold.Version>
5.8.1

> <Gold.Id.Protein>
6NUR|6NUR_protein|mol2

> <Gold.PLP.Fitness>
35.8094

> <Gold.PLP.PLP>
-33.3392

> <Gold.PLP.part.hbond>
-3.0000

> <Gold.PLP.part.metal>
0.0000

> <Gold.PLP.part.buried>
-5.3073

> <Gold.PLP.part.nonpolar>
-26.3215

> <Gold.PLP.part.repulsive>
0.1455

> <Gold.PLP.ligand.clash>
0.0000

> <Gold.PLP.ligand.torsion>
1.1494

> <Gold.PLP.Chemscore.Hbond>
1.5440

> <Gold.PLP.Chemscore.CHOScore>
0.0000

> <Gold.PLP.Chemscore.Metal>
0.0000

> <Gold.Chemscore.Hbonds>
donor molecule, donor type, donor heavy atom, donor atom, acceptor molecule, acceptor atom, score
      P1  H  6931  6943       L1     6  0.53
      P1  H  7997  8009       L1    19  1.00

> <Gold.PLP.Chemscore.Internal.Correction>
0.1370

> <Gold.Rescore>
     Score         DG    S(hbond)    S(metal)    S(lipo)     H(rot)  DE(clash)    DE(int)     intcor
     14.05     -15.80       1.25        0.00      90.10       1.72       0.07       1.68       ----

> <Gold.Chemscore.Fitness>
14.0460

> <Gold.Chemscore.DG>
-15.7959

> <Gold.Chemscore.ZeroCoef>
-5.4800

> <Gold.Chemscore.Hbond>
1.2476

> <Gold.Chemscore.Metal>
0.0000

> <Gold.Chemscore.Lipo>
90.1022

> <Gold.Chemscore.Internal_Hbond>
0.0000

> <Gold.Chemscore.DEClash>
0.0688

> <Gold.Chemscore.DEInternal>
1.6811

> <Gold.Chemscore.Rot>
1.7160

> <Gold.Chemscore.Internal.Correction>
   9.000000E+99

> <Gold.Chemscore.Hbonds>
donor molecule, donor type, donor heavy atom, donor atom, acceptor molecule, acceptor atom, score
      P1  H  6931  6943       L1     6  0.04
      P1  H  7997  8009       L1    19  0.87

> <Gold.Chemscore.Hbond.Weighted>
-4.1669

> <Gold.Chemscore.Metal.Weighted>
-0.0000

> <Gold.Chemscore.Lipo.Weighted>
-10.5420

> <Gold.Chemscore.Internal_Hbond.Weighted>
0.0000

> <Gold.Chemscore.DEClash.Weighted>
0.0688

> <Gold.Chemscore.DEInternal.Weighted>
1.6811

> <Gold.Chemscore.Rot.Weighted>
4.3930

> <Gold.Chemscore.Internal.Correction.Weighted>
   9.000000E+99

> <Gold.Protein.RotatedTorsions>
[ 6907 6896 6895 6894 ] final  -55.08 input  -60.11 | X-H torsion
[ 7974 7965 7964 7962 ] final   94.17 input  175.53 | X-H torsion
[ 8008 7997 7996 7995 ] final  157.63 input   59.86 | X-H torsion
[ 10167 10162 10161 10158 ] final  160.90 input  -65.29 | X-H torsion
[ 10718 10713 10712 10709 ] final  -28.98 input   66.30 | X-H torsion
[ 10763 10752 10751 10750 ] final  -49.23 input  -60.55 | X-H torsion
[ 11005 11000 10999 10996 ] final  -65.81 input  -57.11 | X-H torsion

> <Gold.Protein.ActiveResidues>
 VAL166  LYS551  ARG553  GLY616  TRP617  ASP618  TYR619  PRO620  LYS621  CYS622 
 ASP623  PHE694  ASN695  SER759  ASP760  ASP761  ALA762  ILE779  LEU786  VAL792 
 PHE793  MET794  SER795  GLU796  ALA797  LYS798  CYS799  TRP800  GLU811  SER814 

> <Gold.Protein.RotatedAtoms>
  150.8282  134.7523  159.6830 H   0  0  0  0  0  0  0  0  0  0  0  0  # atno 6907 bound_to 6896
  152.4390  134.5625  159.9908 H   0  0  0  0  0  0  0  0  0  0  0  0  # atno 6908 bound_to 6896
  151.5792  133.3342  159.3041 H   0  0  0  0  0  0  0  0  0  0  0  0  # atno 6909 bound_to 6896
  145.4692  139.2283  143.2944 H   0  0  0  0  0  0  0  0  0  0  0  0  # atno 7974 bound_to 7965
  156.2352  140.1880  156.7137 H   0  0  0  0  0  0  0  0  0  0  0  0  # atno 8008 bound_to 7997
  154.6094  140.0624  156.9501 H   0  0  0  0  0  0  0  0  0  0  0  0  # atno 8009 bound_to 7997
  155.2041  140.3294  155.4341 H   0  0  0  0  0  0  0  0  0  0  0  0  # atno 8010 bound_to 7997
  139.4844  144.4589  151.8732 H   0  0  0  0  0  0  0  0  0  0  0  0  # atno 10167 bound_to 10162
  156.4183  130.4421  149.7202 H   0  0  0  0  0  0  0  0  0  0  0  0  # atno 10718 bound_to 10713
  154.0907  135.6578  153.4852 H   0  0  0  0  0  0  0  0  0  0  0  0  # atno 10763 bound_to 10752
  153.0323  135.5201  154.7383 H   0  0  0  0  0  0  0  0  0  0  0  0  # atno 10764 bound_to 10752
  154.6506  135.3001  154.9960 H   0  0  0  0  0  0  0  0  0  0  0  0  # atno 10765 bound_to 10752
  141.1465  133.6688  156.6043 H   0  0  0  0  0  0  0  0  0  0  0  0  # atno 11005 bound_to 11000
  146.2407  140.5468  142.8935 LP  0  0  0  0  0  0  0  0  0  0  0  0  # atno 17320 bound_to 7965
  144.7956  140.6115  143.6512 LP  0  0  0  0  0  0  0  0  0  0  0  0  # atno 17321 bound_to 7965
  140.4050  144.2444  150.5891 LP  0  0  0  0  0  0  0  0  0  0  0  0  # atno 17342 bound_to 10162
  140.5021  143.2315  151.8663 LP  0  0  0  0  0  0  0  0  0  0  0  0  # atno 17343 bound_to 10162
  156.4153  130.7742  151.2757 LP  0  0  0  0  0  0  0  0  0  0  0  0  # atno 17370 bound_to 10713
  157.7508  131.0199  150.3686 LP  0  0  0  0  0  0  0  0  0  0  0  0  # atno 17371 bound_to 10713
  140.3664  134.7643  157.4569 LP  0  0  0  0  0  0  0  0  0  0  0  0  # atno 17394 bound_to 11000
  140.0745  134.5817  155.8606 LP  0  0  0  0  0  0  0  0  0  0  0  0  # atno 17395 bound_to 11000

$$$$
