AV-unprocessed.smi:1244|AV-procd|sdf|5233|dock3
  -GOLD-   22720 4333D 1   1.00000     0.00000
 Structure written by MMmdl.
 56 58  0  0  0  0  0  0  0  0  3 V2000
  144.7992  131.4305  151.1637 C   0  0  0  0  0  0  0  0  0  0  0  0
  145.7773  132.0410  152.1734 C   0  0  2  0  0  0  0  0  0  0  0  0
  146.4379  133.3267  151.6352 C   0  0  0  0  0  0  0  0  0  0  0  0
  147.4444  133.8562  152.5876 N   0  3  1  0  0  0  0  0  0  0  0  0
  146.8492  134.5778  153.7436 C   0  0  0  0  0  0  0  0  0  0  0  0
  147.9217  135.1558  154.6872 C   0  0  0  0  0  0  0  0  0  0  0  0
  147.9373  136.6141  154.6537 N   0  0  0  0  0  0  0  0  0  0  0  0
  148.9290  137.3792  155.1318 C   0  0  0  0  0  0  0  0  0  0  0  0
  149.9394  136.9235  155.6673 O   0  0  0  0  0  0  0  0  0  0  0  0
  148.6805  138.6848  154.9335 N   0  0  0  0  0  0  0  0  0  0  0  0
  149.5069  139.7948  155.2709 C   0  0  0  0  0  0  0  0  0  0  0  0
  150.8532  139.6121  155.6800 C   0  0  0  0  0  0  0  0  0  0  0  0
  151.6246  140.7206  156.0769 C   0  0  0  0  0  0  0  0  0  0  0  0
  151.0342  141.9955  156.0752 C   0  0  0  0  0  0  0  0  0  0  0  0
  149.7481  142.1357  155.6933 N   0  3  0  0  0  0  0  0  0  0  0  0
  148.9585  141.1103  155.2863 C   0  0  0  0  0  0  0  0  0  0  0  0
  147.6319  141.4098  154.9014 N   0  0  0  0  0  0  0  0  0  0  0  0
  146.6765  141.9151  155.8806 C   0  0  0  0  0  0  0  0  0  0  0  0
  145.5133  142.4567  155.0544 C   0  0  0  0  0  0  0  0  0  0  0  0
  146.2196  143.0187  153.8242 C   0  0  0  0  0  0  0  0  0  0  0  0
  147.4061  142.0703  153.6193 C   0  0  0  0  0  0  0  0  0  0  0  0
  148.4204  132.7965  152.9504 C   0  0  0  0  0  0  0  0  0  0  0  0
  147.7151  131.5112  153.4357 C   0  0  2  0  0  0  0  0  0  0  0  0
  148.7087  130.3721  153.6888 C   0  0  0  0  0  0  0  0  0  0  0  0
  146.7921  131.0793  152.4419 O   0  0  0  0  0  0  0  0  0  0  0  0
  143.9931  132.1256  150.9277 H   0  0  0  0  0  0  0  0  0  0  0  0
  144.3473  130.5208  151.5600 H   0  0  0  0  0  0  0  0  0  0  0  0
  145.3025  131.1729  150.2314 H   0  0  0  0  0  0  0  0  0  0  0  0
  145.2311  132.2557  153.0933 H   0  0  0  0  0  0  0  0  0  0  0  0
  146.9432  133.1087  150.6932 H   0  0  0  0  0  0  0  0  0  0  0  0
  145.6880  134.0858  151.4089 H   0  0  0  0  0  0  0  0  0  0  0  0
  146.2483  135.4095  153.3732 H   0  0  0  0  0  0  0  0  0  0  0  0
  146.1630  133.9271  154.2855 H   0  0  0  0  0  0  0  0  0  0  0  0
  147.7726  134.8251  155.7155 H   0  0  0  0  0  0  0  0  0  0  0  0
  148.9083  134.8001  154.3884 H   0  0  0  0  0  0  0  0  0  0  0  0
  147.1439  137.0692  154.2258 H   0  0  0  0  0  0  0  0  0  0  0  0
  147.8559  138.9050  154.3942 H   0  0  0  0  0  0  0  0  0  0  0  0
  151.3031  138.6317  155.7187 H   0  0  0  0  0  0  0  0  0  0  0  0
  152.6503  140.5916  156.3905 H   0  0  0  0  0  0  0  0  0  0  0  0
  151.5449  142.9009  156.3699 H   0  0  0  0  0  0  0  0  0  0  0  0
  146.3553  141.1306  156.5666 H   0  0  0  0  0  0  0  0  0  0  0  0
  147.1172  142.7248  156.4636 H   0  0  0  0  0  0  0  0  0  0  0  0
  144.8491  141.6418  154.7626 H   0  0  0  0  0  0  0  0  0  0  0  0
  144.9231  143.2022  155.5885 H   0  0  0  0  0  0  0  0  0  0  0  0
  145.5701  143.0800  152.9505 H   0  0  0  0  0  0  0  0  0  0  0  0
  146.5859  144.0233  154.0405 H   0  0  0  0  0  0  0  0  0  0  0  0
  148.2887  142.6094  153.2724 H   0  0  0  0  0  0  0  0  0  0  0  0
  147.1548  141.3154  152.8738 H   0  0  0  0  0  0  0  0  0  0  0  0
  149.0106  132.5690  152.0615 H   0  0  0  0  0  0  0  0  0  0  0  0
  149.1279  133.1520  153.6982 H   0  0  0  0  0  0  0  0  0  0  0  0
  147.1768  131.7020  154.3651 H   0  0  0  0  0  0  0  0  0  0  0  0
  149.4365  130.6483  154.4521 H   0  0  0  0  0  0  0  0  0  0  0  0
  149.2562  130.1154  152.7814 H   0  0  0  0  0  0  0  0  0  0  0  0
  148.1933  129.4745  154.0316 H   0  0  0  0  0  0  0  0  0  0  0  0
  147.9598  134.5590  152.0770 H   0  0  0  0  0  0  0  0  0  0  0  0
  149.3478  143.0740  155.7042 H   0  0  0  0  0  0  0  0  0  0  0  0
  1  2  1  0  0  0  0
  1 26  1  0  0  0  0
  1 27  1  0  0  0  0
  1 28  1  0  0  0  0
  2 25  1  0  0  0  0
  2  3  1  0  0  0  0
  2 29  1  0  0  0  0
  3  4  1  0  0  0  0
  3 30  1  0  0  0  0
  3 31  1  0  0  0  0
  4  5  1  0  0  0  0
  4 22  1  0  0  0  0
  4 55  1  0  0  0  0
  5  6  1  0  0  0  0
  5 32  1  0  0  0  0
  5 33  1  0  0  0  0
  6  7  1  0  0  0  0
  6 34  1  0  0  0  0
  6 35  1  0  0  0  0
  7  8  1  0  0  0  0
  7 36  1  0  0  0  0
  8  9  2  0  0  0  0
  8 10  1  0  0  0  0
 10 11  1  0  0  0  0
 10 37  1  0  0  0  0
 11 16  1  0  0  0  0
 11 12  2  0  0  0  0
 12 13  1  0  0  0  0
 12 38  1  0  0  0  0
 13 14  2  0  0  0  0
 13 39  1  0  0  0  0
 14 15  1  0  0  0  0
 14 40  1  0  0  0  0
 15 16  2  0  0  0  0
 15 56  1  0  0  0  0
 16 17  1  0  0  0  0
 17 21  1  0  0  0  0
 17 18  1  0  0  0  0
 18 19  1  0  0  0  0
 18 41  1  0  0  0  0
 18 42  1  0  0  0  0
 19 20  1  0  0  0  0
 19 43  1  0  0  0  0
 19 44  1  0  0  0  0
 20 21  1  0  0  0  0
 20 45  1  0  0  0  0
 20 46  1  0  0  0  0
 21 47  1  0  0  0  0
 21 48  1  0  0  0  0
 22 23  1  0  0  0  0
 22 49  1  0  0  0  0
 22 50  1  0  0  0  0
 23 24  1  0  0  0  0
 23 25  1  0  0  0  0
 23 51  1  0  0  0  0
 24 52  1  0  0  0  0
 24 53  1  0  0  0  0
 24 54  1  0  0  0  0
M  CHG  1   4   1
M  CHG  1  15   1
M  END
> <s_m_source_file>
AV-unprocessed.smi

> <i_m_source_file_index>
1244

> <i_lp_mmshare_version>
43012

> <i_f3d_flags>
0

> <s_epik_input>
W0NIM11bQ0BASF0xW0NIMl1OKFtDSDJdW0NASF0oTzEpW0NIM10pW0NIMl1bQ0gyXVtOSF1DKD1PKVtOSF1jMltjSF1bY0hdW2NIXW5jMk4zW0NIMl1bQ0gyXVtDSDJdW0NIMl0z

> <s_epik_cmdline>
J2VwaWtfcHl0aG9uJywgJy1waCcsICc3LjAnLCAnLXRuJywgJzgnLCAnLW1hJywgJzIwMCcsICctbWV0YWxfYmluZGluZycsICctaW1hZScsICc8aW5maWxlLm1hZT4nLCAnLW9tYWUnLCAnPG91dGZpbGUubWFlPic=

> <r_lp_tautomer_probability>
0.999994

> <r_epik_Ionization_Penalty>
1.81601

> <r_epik_Ionization_Penalty_Charging>
1.81599

> <r_epik_Ionization_Penalty_Neutral>
2.01972e-05

> <r_epik_State_Penalty>
1.85672

> <r_epik_Charging_Adjusted_Penalty>
3.6727

> <i_epik_Tot_Q>
2

> <i_epik_Tot_abs_Q>
2

> <r_epik_Metal_State_Penalty>
1.93796

> <b_epik_Metal_Only>
0

> <s_lp_Force_Field>
OPLS_2005

> <r_lp_Energy>
53.9706

> <b_lp_Chiralities_Consistent>
1

> <s_lp_Variant>
AV-unprocessed.smi:1244-13

> <Gold.Version>
5.8.1

> <Gold.Id.Protein>
6NUR|6NUR_protein|mol2

> <Gold.PLP.Fitness>
49.7993

> <Gold.PLP.PLP>
-38.7900

> <Gold.PLP.part.hbond>
-2.9636

> <Gold.PLP.part.metal>
0.0000

> <Gold.PLP.part.buried>
-6.9576

> <Gold.PLP.part.nonpolar>
-28.3564

> <Gold.PLP.part.repulsive>
0.9001

> <Gold.PLP.ligand.clash>
0.0000

> <Gold.PLP.ligand.torsion>
0.7011

> <Gold.PLP.Chemscore.Hbond>
4.0000

> <Gold.PLP.Chemscore.CHOScore>
0.0000

> <Gold.PLP.Chemscore.Metal>
0.0000

> <Gold.Chemscore.Hbonds>
donor molecule, donor type, donor heavy atom, donor atom, acceptor molecule, acceptor atom, score
      L1  H     4    55       P1  7948  2.00
      L1  H    15    56       P1  8028  2.00

> <Gold.PLP.Chemscore.Internal.Correction>
0.4115

> <Gold.Rescore>
     Score         DG    S(hbond)    S(metal)    S(lipo)     H(rot)  DE(clash)    DE(int)     intcor
     15.48     -17.63       1.88        0.00      85.92       1.63       0.15       2.00       ----

> <Gold.Chemscore.Fitness>
15.4802

> <Gold.Chemscore.DG>
-17.6319

> <Gold.Chemscore.ZeroCoef>
-5.4800

> <Gold.Chemscore.Hbond>
1.8771

> <Gold.Chemscore.Metal>
0.0000

> <Gold.Chemscore.Lipo>
85.9245

> <Gold.Chemscore.Internal_Hbond>
0.0000

> <Gold.Chemscore.DEClash>
0.1470

> <Gold.Chemscore.DEInternal>
2.0048

> <Gold.Chemscore.Rot>
1.6293

> <Gold.Chemscore.Internal.Correction>
   9.000000E+99

> <Gold.Chemscore.Hbonds>
donor molecule, donor type, donor heavy atom, donor atom, acceptor molecule, acceptor atom, score
      L1  H     4    55       P1  7948  0.25
      L1  H    15    56       P1  8028  1.00

> <Gold.Chemscore.Hbond.Weighted>
-6.2696

> <Gold.Chemscore.Metal.Weighted>
-0.0000

> <Gold.Chemscore.Lipo.Weighted>
-10.0532

> <Gold.Chemscore.Internal_Hbond.Weighted>
0.0000

> <Gold.Chemscore.DEClash.Weighted>
0.1470

> <Gold.Chemscore.DEInternal.Weighted>
2.0048

> <Gold.Chemscore.Rot.Weighted>
4.1709

> <Gold.Chemscore.Internal.Correction.Weighted>
   9.000000E+99

> <Gold.Protein.RotatedTorsions>
[ 6907 6896 6895 6894 ] final -107.16 input  -60.11 | X-H torsion
[ 7974 7965 7964 7962 ] final   68.93 input  175.53 | X-H torsion
[ 8008 7997 7996 7995 ] final  -84.77 input   59.86 | X-H torsion
[ 10167 10162 10161 10158 ] final  100.21 input  -65.29 | X-H torsion
[ 10718 10713 10712 10709 ] final   -8.99 input   66.30 | X-H torsion
[ 10763 10752 10751 10750 ] final   47.84 input  -60.55 | X-H torsion
[ 11005 11000 10999 10996 ] final   39.45 input  -57.11 | X-H torsion

> <Gold.Protein.ActiveResidues>
 VAL166  LYS551  ARG553  GLY616  TRP617  ASP618  TYR619  PRO620  LYS621  CYS622 
 ASP623  PHE694  ASN695  SER759  ASP760  ASP761  ALA762  ILE779  LEU786  VAL792 
 PHE793  MET794  SER795  GLU796  ALA797  LYS798  CYS799  TRP800  GLU811  SER814 

> <Gold.Protein.RotatedAtoms>
  150.7428  133.9868  159.3593 H   0  0  0  0  0  0  0  0  0  0  0  0  # atno 6907 bound_to 6896
  151.7813  135.0759  160.0383 H   0  0  0  0  0  0  0  0  0  0  0  0  # atno 6908 bound_to 6896
  152.3272  133.5881  159.5821 H   0  0  0  0  0  0  0  0  0  0  0  0  # atno 6909 bound_to 6896
  145.7966  139.2961  143.1179 H   0  0  0  0  0  0  0  0  0  0  0  0  # atno 7974 bound_to 7965
  154.6334  140.0600  156.9759 H   0  0  0  0  0  0  0  0  0  0  0  0  # atno 8008 bound_to 7997
  155.1630  140.3284  155.4389 H   0  0  0  0  0  0  0  0  0  0  0  0  # atno 8009 bound_to 7997
  156.2494  140.1927  156.6736 H   0  0  0  0  0  0  0  0  0  0  0  0  # atno 8010 bound_to 7997
  139.7547  144.6973  151.0380 H   0  0  0  0  0  0  0  0  0  0  0  0  # atno 10167 bound_to 10162
  156.6945  130.5075  149.5934 H   0  0  0  0  0  0  0  0  0  0  0  0  # atno 10718 bound_to 10713
  152.9796  135.5963  154.3829 H   0  0  0  0  0  0  0  0  0  0  0  0  # atno 10763 bound_to 10752
  154.3492  135.2767  155.2383 H   0  0  0  0  0  0  0  0  0  0  0  0  # atno 10764 bound_to 10752
  154.4430  135.6008  153.6197 H   0  0  0  0  0  0  0  0  0  0  0  0  # atno 10765 bound_to 10752
  140.2026  134.3852  155.8088 H   0  0  0  0  0  0  0  0  0  0  0  0  # atno 11005 bound_to 11000
  145.9921  140.8593  143.0061 LP  0  0  0  0  0  0  0  0  0  0  0  0  # atno 17320 bound_to 7965
  144.6774  140.2231  143.7364 LP  0  0  0  0  0  0  0  0  0  0  0  0  # atno 17321 bound_to 7965
  140.7801  143.4767  151.0073 LP  0  0  0  0  0  0  0  0  0  0  0  0  # atno 17342 bound_to 10162
  139.8454  143.7508  152.3179 LP  0  0  0  0  0  0  0  0  0  0  0  0  # atno 17343 bound_to 10162
  156.1773  130.6476  151.0910 LP  0  0  0  0  0  0  0  0  0  0  0  0  # atno 17370 bound_to 10713
  157.6996  131.0781  150.6861 LP  0  0  0  0  0  0  0  0  0  0  0  0  # atno 17371 bound_to 10713
  141.2227  133.7102  156.8284 LP  0  0  0  0  0  0  0  0  0  0  0  0  # atno 17394 bound_to 11000
  140.2037  134.8878  157.3198 LP  0  0  0  0  0  0  0  0  0  0  0  0  # atno 17395 bound_to 11000

$$$$
