AV-unprocessed.smi:891|AV-procd|sdf|4064|dock5
  -GOLD-   22720 1553D 1   1.00000     0.00000
 Structure written by MMmdl.
 38 38  0  0  0  0  0  0  0  0  1 V2000
  151.6015  144.5387  158.9126 C   0  0  0  0  0  0  0  0  0  0  0  0
  151.9369  143.0759  158.9387 C   0  0  0  0  0  0  0  0  0  0  0  0
  151.6687  142.3191  157.8857 N   0  0  0  0  0  0  0  0  0  0  0  0
  152.0916  141.0730  158.2190 N   0  0  0  0  0  0  0  0  0  0  0  0
  151.9430  139.9959  157.2507 C   0  0  0  0  0  0  0  0  0  0  0  0
  151.2772  140.4622  155.9503 C   0  0  0  0  0  0  0  0  0  0  0  0
  151.6797  140.0651  154.8558 O   0  0  0  0  0  0  0  0  0  0  0  0
  150.2464  141.3099  156.0919 N   0  0  0  0  0  0  0  0  0  0  0  0
  149.4618  141.8881  155.0036 C   0  0  0  0  0  0  0  0  0  0  0  0
  148.1755  141.0849  154.7095 C   0  0  1  0  0  0  0  0  0  0  0  0
  147.1079  142.0180  154.1105 C   0  0  0  0  0  0  0  0  0  0  0  0
  148.4450  139.8605  153.7997 C   0  0  0  0  0  0  0  0  0  0  0  0
  147.1949  139.2222  153.1699 C   0  0  0  0  0  0  0  0  0  0  0  0
  147.5476  138.4338  152.0528 O   0  0  0  0  0  0  0  0  0  0  0  0
  152.6292  141.0265  159.4959 C   0  0  0  0  0  0  0  0  0  0  0  0
  153.1715  139.7788  160.1142 C   0  0  0  0  0  0  0  0  0  0  0  0
  152.5354  142.3025  159.9675 C   0  0  0  0  0  0  0  0  0  0  0  0
  153.0483  142.8686  161.5157 Cl  0  0  0  0  0  0  0  0  0  0  0  0
  151.8975  145.0319  159.8384 H   0  0  0  0  0  0  0  0  0  0  0  0
  150.5301  144.6927  158.7839 H   0  0  0  0  0  0  0  0  0  0  0  0
  152.1121  145.0428  158.0919 H   0  0  0  0  0  0  0  0  0  0  0  0
  152.9289  139.5795  157.0402 H   0  0  0  0  0  0  0  0  0  0  0  0
  151.3478  139.1939  157.6900 H   0  0  0  0  0  0  0  0  0  0  0  0
  149.9853  141.5800  157.0292 H   0  0  0  0  0  0  0  0  0  0  0  0
  149.1990  142.9013  155.3092 H   0  0  0  0  0  0  0  0  0  0  0  0
  150.0583  141.9946  154.0959 H   0  0  0  0  0  0  0  0  0  0  0  0
  147.7941  140.7247  155.6659 H   0  0  0  0  0  0  0  0  0  0  0  0
  147.3997  142.3701  153.1207 H   0  0  0  0  0  0  0  0  0  0  0  0
  146.9538  142.8940  154.7411 H   0  0  0  0  0  0  0  0  0  0  0  0
  146.1420  141.5220  154.0198 H   0  0  0  0  0  0  0  0  0  0  0  0
  149.1330  140.1526  153.0055 H   0  0  0  0  0  0  0  0  0  0  0  0
  148.9602  139.0838  154.3628 H   0  0  0  0  0  0  0  0  0  0  0  0
  146.6436  138.6171  153.8886 H   0  0  0  0  0  0  0  0  0  0  0  0
  146.5138  140.0039  152.8329 H   0  0  0  0  0  0  0  0  0  0  0  0
  148.1414  138.9303  151.5106 H   0  0  0  0  0  0  0  0  0  0  0  0
  153.4833  139.9537  161.1438 H   0  0  0  0  0  0  0  0  0  0  0  0
  154.0377  139.4179  159.5603 H   0  0  0  0  0  0  0  0  0  0  0  0
  152.4204  138.9890  160.1233 H   0  0  0  0  0  0  0  0  0  0  0  0
  1  2  1  0  0  0  0
  1 19  1  0  0  0  0
  1 20  1  0  0  0  0
  1 21  1  0  0  0  0
  2 17  1  0  0  0  0
  2  3  2  0  0  0  0
  3  4  1  0  0  0  0
  4  5  1  0  0  0  0
  4 15  1  0  0  0  0
  5  6  1  0  0  0  0
  5 22  1  0  0  0  0
  5 23  1  0  0  0  0
  6  7  2  0  0  0  0
  6  8  1  0  0  0  0
  8  9  1  0  0  0  0
  8 24  1  0  0  0  0
  9 10  1  0  0  0  0
  9 25  1  0  0  0  0
  9 26  1  0  0  0  0
 10 11  1  0  0  0  0
 10 12  1  0  0  0  0
 10 27  1  0  0  0  0
 11 28  1  0  0  0  0
 11 29  1  0  0  0  0
 11 30  1  0  0  0  0
 12 13  1  0  0  0  0
 12 31  1  0  0  0  0
 12 32  1  0  0  0  0
 13 14  1  0  0  0  0
 13 33  1  0  0  0  0
 13 34  1  0  0  0  0
 14 35  1  0  0  0  0
 15 16  1  0  0  0  0
 15 17  2  0  0  0  0
 16 36  1  0  0  0  0
 16 37  1  0  0  0  0
 16 38  1  0  0  0  0
 17 18  1  0  0  0  0
M  END
> <s_m_source_file>
AV-unprocessed.smi

> <i_m_source_file_index>
891

> <i_lp_mmshare_version>
43012

> <i_f3d_flags>
0

> <s_epik_input>
W0NIM11jMW5uKGMoW0NIM10pYzFDbClbQ0gyXUMoPU8pW05IXVtDSDJdW0NASF0oW0NIM10pW0NIMl1bQ0gyXVtPSF0=

> <s_epik_cmdline>
J2VwaWtfcHl0aG9uJywgJy1waCcsICc3LjAnLCAnLXRuJywgJzgnLCAnLW1hJywgJzIwMCcsICctbWV0YWxfYmluZGluZycsICctaW1hZScsICc8aW5maWxlLm1hZT4nLCAnLW9tYWUnLCAnPG91dGZpbGUubWFlPic=

> <r_lp_tautomer_probability>
1

> <r_epik_Ionization_Penalty>
4.9564e-06

> <r_epik_Ionization_Penalty_Charging>
0

> <r_epik_Ionization_Penalty_Neutral>
4.9564e-06

> <r_epik_State_Penalty>
-0

> <r_epik_Charging_Adjusted_Penalty>
0

> <i_epik_Tot_Q>
0

> <i_epik_Tot_abs_Q>
0

> <r_epik_Metal_State_Penalty>
-0

> <b_epik_Metal_Only>
0

> <s_lp_Force_Field>
OPLS_2005

> <r_lp_Energy>
8.21906

> <b_lp_Chiralities_Consistent>
1

> <s_lp_Variant>
AV-unprocessed.smi:891-2

> <Gold.Version>
5.8.1

> <Gold.Id.Protein>
6NUR|6NUR_protein|mol2

> <Gold.PLP.Fitness>
44.2272

> <Gold.PLP.PLP>
-40.0549

> <Gold.PLP.part.hbond>
-3.0340

> <Gold.PLP.part.metal>
0.0000

> <Gold.PLP.part.buried>
-1.5481

> <Gold.PLP.part.nonpolar>
-35.2220

> <Gold.PLP.part.repulsive>
0.1882

> <Gold.PLP.ligand.clash>
0.0000

> <Gold.PLP.ligand.torsion>
0.9388

> <Gold.PLP.Chemscore.Hbond>
2.0000

> <Gold.PLP.Chemscore.CHOScore>
0.0000

> <Gold.PLP.Chemscore.Metal>
0.0000

> <Gold.Chemscore.Hbonds>
donor molecule, donor type, donor heavy atom, donor atom, acceptor molecule, acceptor atom, score
      L1  H    14    35       P1  7957  1.00
      P1  H  7989  7998       L1     7  1.00

> <Gold.PLP.Chemscore.Internal.Correction>
0.0498

> <Gold.Rescore>
     Score         DG    S(hbond)    S(metal)    S(lipo)     H(rot)  DE(clash)    DE(int)     intcor
     14.96     -17.32       1.89        0.00     104.80       2.62       1.47       0.89       ----

> <Gold.Chemscore.Fitness>
14.9558

> <Gold.Chemscore.DG>
-17.3228

> <Gold.Chemscore.ZeroCoef>
-5.4800

> <Gold.Chemscore.Hbond>
1.8862

> <Gold.Chemscore.Metal>
0.0000

> <Gold.Chemscore.Lipo>
104.8049

> <Gold.Chemscore.Internal_Hbond>
0.0000

> <Gold.Chemscore.DEClash>
1.4733

> <Gold.Chemscore.DEInternal>
0.8936

> <Gold.Chemscore.Rot>
2.6247

> <Gold.Chemscore.Internal.Correction>
   9.000000E+99

> <Gold.Chemscore.Hbonds>
donor molecule, donor type, donor heavy atom, donor atom, acceptor molecule, acceptor atom, score
      L1  H    14    35       P1  7957  0.69
      P1  H  7989  7998       L1     7  0.92

> <Gold.Chemscore.Hbond.Weighted>
-6.2998

> <Gold.Chemscore.Metal.Weighted>
-0.0000

> <Gold.Chemscore.Lipo.Weighted>
-12.2622

> <Gold.Chemscore.Internal_Hbond.Weighted>
0.0000

> <Gold.Chemscore.DEClash.Weighted>
1.4733

> <Gold.Chemscore.DEInternal.Weighted>
0.8936

> <Gold.Chemscore.Rot.Weighted>
6.7192

> <Gold.Chemscore.Internal.Correction.Weighted>
   9.000000E+99

> <Gold.Protein.RotatedTorsions>
[ 6907 6896 6895 6894 ] final -150.80 input  -60.11 | X-H torsion
[ 7974 7965 7964 7962 ] final   65.73 input  175.53 | X-H torsion
[ 8008 7997 7996 7995 ] final  158.86 input   59.86 | X-H torsion
[ 10167 10162 10161 10158 ] final  101.37 input  -65.29 | X-H torsion
[ 10718 10713 10712 10709 ] final -115.14 input   66.30 | X-H torsion
[ 10763 10752 10751 10750 ] final  -21.87 input  -60.55 | X-H torsion
[ 11005 11000 10999 10996 ] final   74.11 input  -57.11 | X-H torsion

> <Gold.Protein.ActiveResidues>
 VAL166  LYS551  ARG553  GLY616  TRP617  ASP618  TYR619  PRO620  LYS621  CYS622 
 ASP623  PHE694  ASN695  SER759  ASP760  ASP761  ALA762  ILE779  LEU786  VAL792 
 PHE793  MET794  SER795  GLU796  ALA797  LYS798  CYS799  TRP800  GLU811  SER814 

> <Gold.Protein.RotatedAtoms>
  151.2038  133.4595  159.2596 H   0  0  0  0  0  0  0  0  0  0  0  0  # atno 6907 bound_to 6896
  151.1043  134.9990  159.8474 H   0  0  0  0  0  0  0  0  0  0  0  0  # atno 6908 bound_to 6896
  152.5446  134.1962  159.8747 H   0  0  0  0  0  0  0  0  0  0  0  0  # atno 6909 bound_to 6896
  145.8350  139.3161  143.0965 H   0  0  0  0  0  0  0  0  0  0  0  0  # atno 7974 bound_to 7965
  156.2276  140.1847  156.7324 H   0  0  0  0  0  0  0  0  0  0  0  0  # atno 8008 bound_to 7997
  154.5967  140.0642  156.9341 H   0  0  0  0  0  0  0  0  0  0  0  0  # atno 8009 bound_to 7997
  155.2244  140.3310  155.4314 H   0  0  0  0  0  0  0  0  0  0  0  0  # atno 8010 bound_to 7997
  139.7444  144.7002  151.0527 H   0  0  0  0  0  0  0  0  0  0  0  0  # atno 10167 bound_to 10162
  156.0876  130.6065  150.8867 H   0  0  0  0  0  0  0  0  0  0  0  0  # atno 10718 bound_to 10713
  153.6430  135.6984  153.5235 H   0  0  0  0  0  0  0  0  0  0  0  0  # atno 10763 bound_to 10752
  153.2767  135.4198  155.1039 H   0  0  0  0  0  0  0  0  0  0  0  0  # atno 10764 bound_to 10752
  154.8495  135.3592  154.5974 H   0  0  0  0  0  0  0  0  0  0  0  0  # atno 10765 bound_to 10752
  139.9407  134.7405  156.1108 H   0  0  0  0  0  0  0  0  0  0  0  0  # atno 11005 bound_to 11000
  145.9529  140.8895  143.0250 LP  0  0  0  0  0  0  0  0  0  0  0  0  # atno 17320 bound_to 7965
  144.6737  140.1704  143.7415 LP  0  0  0  0  0  0  0  0  0  0  0  0  # atno 17321 bound_to 7965
  140.7790  143.4885  150.9924 LP  0  0  0  0  0  0  0  0  0  0  0  0  # atno 17342 bound_to 10162
  139.8573  143.7360  152.3175 LP  0  0  0  0  0  0  0  0  0  0  0  0  # atno 17343 bound_to 10162
  157.6015  131.0941  150.8951 LP  0  0  0  0  0  0  0  0  0  0  0  0  # atno 17370 bound_to 10713
  156.9108  130.5280  149.5280 LP  0  0  0  0  0  0  0  0  0  0  0  0  # atno 17371 bound_to 10713
  141.1040  133.6667  156.2819 LP  0  0  0  0  0  0  0  0  0  0  0  0  # atno 17394 bound_to 11000
  140.5960  134.5603  157.5509 LP  0  0  0  0  0  0  0  0  0  0  0  0  # atno 17395 bound_to 11000

$$$$
