AV-unprocessed.smi:3234|AV-procd|sdf|12357|dock5
  -GOLD-   2272018213D 1   1.00000     0.00000
 Structure written by MMmdl.
 37 39  0  0  0  0  0  0  0  0  4 V2000
  145.1294  138.1161  154.2773 O   0  0  0  0  0  0  0  0  0  0  0  0
  146.0325  137.4728  153.7302 C   0  0  0  0  0  0  0  0  0  0  0  0
  147.2572  138.0096  153.5835 N   0  0  0  0  0  0  0  0  0  0  0  0
  147.7124  139.3119  153.9253 C   0  0  0  0  0  0  0  0  0  0  0  0
  146.7511  140.3441  153.9968 C   0  0  0  0  0  0  0  0  0  0  0  0
  147.1550  141.6470  154.3522 C   0  0  0  0  0  0  0  0  0  0  0  0
  148.4524  141.8957  154.6334 N   0  3  0  0  0  0  0  0  0  0  0  0
  149.4037  140.9380  154.5969 C   0  0  0  0  0  0  0  0  0  0  0  0
  149.0592  139.6164  154.2482 C   0  0  0  0  0  0  0  0  0  0  0  0
  145.9666  136.2029  153.2456 N   0  5  0  0  0  0  0  0  0  0  0  0
  144.8347  135.2946  153.4401 C   0  0  1  0  0  0  0  0  0  0  0  0
  143.5304  135.8946  152.9125 C   0  0  0  0  0  0  0  0  0  0  0  0
  142.6696  134.6755  152.5474 C   0  0  0  0  0  0  0  0  0  0  0  0
  143.5805  133.5073  152.5077 N   0  3  1  0  0  0  0  0  0  0  0  0
  143.3509  132.5882  151.3725 C   0  0  0  0  0  0  0  0  0  0  0  0
  144.5834  131.8192  150.9611 C   0  0  0  0  0  0  0  0  0  0  0  0
  144.0973  132.9796  150.1196 C   0  0  0  0  0  0  0  0  0  0  0  0
  144.9607  134.0200  152.6042 C   0  0  0  0  0  0  0  0  0  0  0  0
  147.9625  137.3811  153.2277 H   0  0  0  0  0  0  0  0  0  0  0  0
  145.7127  140.1420  153.7755 H   0  0  0  0  0  0  0  0  0  0  0  0
  146.4837  142.4903  154.4228 H   0  0  0  0  0  0  0  0  0  0  0  0
  150.4046  141.2529  154.8535 H   0  0  0  0  0  0  0  0  0  0  0  0
  149.8282  138.8590  154.2478 H   0  0  0  0  0  0  0  0  0  0  0  0
  144.6922  135.0192  154.4865 H   0  0  0  0  0  0  0  0  0  0  0  0
  143.0461  136.5464  153.6406 H   0  0  0  0  0  0  0  0  0  0  0  0
  143.7152  136.4844  152.0126 H   0  0  0  0  0  0  0  0  0  0  0  0
  141.8941  134.4947  153.2932 H   0  0  0  0  0  0  0  0  0  0  0  0
  142.1715  134.8341  151.5894 H   0  0  0  0  0  0  0  0  0  0  0  0
  142.3647  132.1317  151.3081 H   0  0  0  0  0  0  0  0  0  0  0  0
  145.4960  131.9631  151.5372 H   0  0  0  0  0  0  0  0  0  0  0  0
  144.4399  130.8178  150.5600 H   0  0  0  0  0  0  0  0  0  0  0  0
  143.6319  132.7434  149.1647 H   0  0  0  0  0  0  0  0  0  0  0  0
  144.6859  133.8953  150.1358 H   0  0  0  0  0  0  0  0  0  0  0  0
  145.3342  134.2513  151.6044 H   0  0  0  0  0  0  0  0  0  0  0  0
  145.6292  133.2859  153.0551 H   0  0  0  0  0  0  0  0  0  0  0  0
  143.4147  132.9919  153.3602 H   0  0  0  0  0  0  0  0  0  0  0  0
  148.7241  142.8449  154.8905 H   0  0  0  0  0  0  0  0  0  0  0  0
  1  2  2  0  0  0  0
  2  3  1  0  0  0  0
  2 10  1  0  0  0  0
  3  4  1  0  0  0  0
  3 19  1  0  0  0  0
  4  9  1  0  0  0  0
  4  5  2  0  0  0  0
  5  6  1  0  0  0  0
  5 20  1  0  0  0  0
  6  7  2  0  0  0  0
  6 21  1  0  0  0  0
  7  8  1  0  0  0  0
  7 37  1  0  0  0  0
  8  9  2  0  0  0  0
  8 22  1  0  0  0  0
  9 23  1  0  0  0  0
 10 11  1  0  0  0  0
 11 18  1  0  0  0  0
 11 12  1  0  0  0  0
 11 24  1  0  0  0  0
 12 13  1  0  0  0  0
 12 25  1  0  0  0  0
 12 26  1  0  0  0  0
 13 14  1  0  0  0  0
 13 27  1  0  0  0  0
 13 28  1  0  0  0  0
 14 15  1  0  0  0  0
 14 18  1  0  0  0  0
 14 36  1  0  0  0  0
 15 17  1  0  0  0  0
 15 16  1  0  0  0  0
 15 29  1  0  0  0  0
 16 17  1  0  0  0  0
 16 30  1  0  0  0  0
 16 31  1  0  0  0  0
 17 32  1  0  0  0  0
 17 33  1  0  0  0  0
 18 34  1  0  0  0  0
 18 35  1  0  0  0  0
M  CHG  1   7   1
M  CHG  1  10  -1
M  CHG  1  14   1
M  END
> <s_m_source_file>
AV-unprocessed.smi

> <i_m_source_file_index>
3234

> <i_lp_mmshare_version>
43012

> <i_f3d_flags>
0

> <s_epik_input>
W2NIXTFbY0hdbltjSF1bY0hdYzFbTkhdQyg9TylbTkhdW0NAQEhdMltDSDJdW0NIMl1OKFtDSDJdMilbQ0hdM1tDSDJdW0NIMl0z

> <s_epik_cmdline>
J2VwaWtfcHl0aG9uJywgJy1waCcsICc3LjAnLCAnLXRuJywgJzgnLCAnLW1hJywgJzIwMCcsICctbWV0YWxfYmluZGluZycsICctaW1hZScsICc8aW5maWxlLm1hZT4nLCAnLW9tYWUnLCAnPG91dGZpbGUubWFlPic=

> <r_epik_Ionization_Penalty>
8.3234

> <r_epik_Ionization_Penalty_Charging>
8.3234

> <r_epik_Ionization_Penalty_Neutral>
3.58513e-06

> <r_epik_State_Penalty>
7.99376

> <r_epik_Charging_Adjusted_Penalty>
16.3172

> <i_epik_Tot_Q>
1

> <i_epik_Tot_abs_Q>
3

> <r_epik_Metal_State_Penalty>
3.98956

> <b_epik_Metal_Only>
1

> <s_lp_Force_Field>
OPLS_2005

> <r_lp_Energy>
39.5194

> <b_lp_Chiralities_Consistent>
1

> <s_lp_Variant>
AV-unprocessed.smi:3234-10

> <Gold.Version>
5.8.1

> <Gold.Id.Protein>
6NUR|6NUR_protein|mol2

> <Gold.PLP.Fitness>
42.3452

> <Gold.PLP.PLP>
-27.7139

> <Gold.PLP.part.hbond>
-3.0000

> <Gold.PLP.part.metal>
0.0000

> <Gold.PLP.part.buried>
-4.6313

> <Gold.PLP.part.nonpolar>
-23.1987

> <Gold.PLP.part.repulsive>
0.4543

> <Gold.PLP.ligand.clash>
0.0000

> <Gold.PLP.ligand.torsion>
0.8276

> <Gold.PLP.Chemscore.Hbond>
5.0000

> <Gold.PLP.Chemscore.CHOScore>
0.0000

> <Gold.PLP.Chemscore.Metal>
0.0000

> <Gold.Chemscore.Hbonds>
donor molecule, donor type, donor heavy atom, donor atom, acceptor molecule, acceptor atom, score
      L1  H     3    19       P1  7948  0.99
      L1  H     7    37       P1  8028  2.00
      L1  H    14    36       P1 10957  2.00

> <Gold.PLP.Chemscore.Internal.Correction>
1.2866

> <Gold.Rescore>
     Score         DG    S(hbond)    S(metal)    S(lipo)     H(rot)  DE(clash)    DE(int)     intcor
     17.34     -19.64       2.61        0.00      73.16       1.21       0.07       2.23       ----

> <Gold.Chemscore.Fitness>
17.3420

> <Gold.Chemscore.DG>
-19.6425

> <Gold.Chemscore.ZeroCoef>
-5.4800

> <Gold.Chemscore.Hbond>
2.6054

> <Gold.Chemscore.Metal>
0.0000

> <Gold.Chemscore.Lipo>
73.1628

> <Gold.Chemscore.Internal_Hbond>
0.0000

> <Gold.Chemscore.DEClash>
0.0727

> <Gold.Chemscore.DEInternal>
2.2278

> <Gold.Chemscore.Rot>
1.2108

> <Gold.Chemscore.Internal.Correction>
   9.000000E+99

> <Gold.Chemscore.Hbonds>
donor molecule, donor type, donor heavy atom, donor atom, acceptor molecule, acceptor atom, score
      L1  H     3    19       P1  7948  0.92
      L1  H     7    37       P1  8028  0.94
      L1  H    14    36       P1 10957  0.74

> <Gold.Chemscore.Hbond.Weighted>
-8.7020

> <Gold.Chemscore.Metal.Weighted>
-0.0000

> <Gold.Chemscore.Lipo.Weighted>
-8.5600

> <Gold.Chemscore.Internal_Hbond.Weighted>
0.0000

> <Gold.Chemscore.DEClash.Weighted>
0.0727

> <Gold.Chemscore.DEInternal.Weighted>
2.2278

> <Gold.Chemscore.Rot.Weighted>
3.0996

> <Gold.Chemscore.Internal.Correction.Weighted>
   9.000000E+99

> <Gold.Protein.RotatedTorsions>
[ 6907 6896 6895 6894 ] final -115.70 input  -60.11 | X-H torsion
[ 7974 7965 7964 7962 ] final    1.75 input  175.53 | X-H torsion
[ 8008 7997 7996 7995 ] final -123.08 input   59.86 | X-H torsion
[ 10167 10162 10161 10158 ] final  152.25 input  -65.29 | X-H torsion
[ 10718 10713 10712 10709 ] final  152.03 input   66.30 | X-H torsion
[ 10763 10752 10751 10750 ] final  161.49 input  -60.55 | X-H torsion
[ 11005 11000 10999 10996 ] final   81.12 input  -57.11 | X-H torsion

> <Gold.Protein.ActiveResidues>
 VAL166  LYS551  ARG553  GLY616  TRP617  ASP618  TYR619  PRO620  LYS621  CYS622 
 ASP623  PHE694  ASN695  SER759  ASP760  ASP761  ALA762  ILE779  LEU786  VAL792 
 PHE793  MET794  SER795  GLU796  ALA797  LYS798  CYS799  TRP800  GLU811  SER814 

> <Gold.Protein.RotatedAtoms>
  150.7998  133.8620  159.3234 H   0  0  0  0  0  0  0  0  0  0  0  0  # atno 6907 bound_to 6896
  151.6436  135.1008  160.0156 H   0  0  0  0  0  0  0  0  0  0  0  0  # atno 6908 bound_to 6896
  152.4084  133.6886  159.6412 H   0  0  0  0  0  0  0  0  0  0  0  0  # atno 6909 bound_to 6896
  146.2441  140.0940  142.8351 H   0  0  0  0  0  0  0  0  0  0  0  0  # atno 7974 bound_to 7965
  155.1747  140.0409  157.2870 H   0  0  0  0  0  0  0  0  0  0  0  0  # atno 8008 bound_to 7997
  154.6245  140.2509  155.7481 H   0  0  0  0  0  0  0  0  0  0  0  0  # atno 8009 bound_to 7997
  156.2451  140.2888  156.0568 H   0  0  0  0  0  0  0  0  0  0  0  0  # atno 8010 bound_to 7997
  139.4834  144.5374  151.7623 H   0  0  0  0  0  0  0  0  0  0  0  0  # atno 10167 bound_to 10162
  157.2631  131.0802  151.1652 H   0  0  0  0  0  0  0  0  0  0  0  0  # atno 10718 bound_to 10713
  154.2638  135.2767  155.2767 H   0  0  0  0  0  0  0  0  0  0  0  0  # atno 10763 bound_to 10752
  154.5361  135.5716  153.6803 H   0  0  0  0  0  0  0  0  0  0  0  0  # atno 10764 bound_to 10752
  152.9957  135.6239  154.2789 H   0  0  0  0  0  0  0  0  0  0  0  0  # atno 10765 bound_to 10752
  139.9109  134.7972  156.1999 H   0  0  0  0  0  0  0  0  0  0  0  0  # atno 11005 bound_to 11000
  145.0626  140.9098  143.4930 LP  0  0  0  0  0  0  0  0  0  0  0  0  # atno 17320 bound_to 7965
  145.1058  139.2791  143.5662 LP  0  0  0  0  0  0  0  0  0  0  0  0  # atno 17321 bound_to 7965
  140.4908  144.1313  150.5950 LP  0  0  0  0  0  0  0  0  0  0  0  0  # atno 17342 bound_to 10162
  140.4173  143.2628  151.9759 LP  0  0  0  0  0  0  0  0  0  0  0  0  # atno 17343 bound_to 10162
  157.3153  130.6910  149.6239 LP  0  0  0  0  0  0  0  0  0  0  0  0  # atno 17370 bound_to 10713
  155.9664  130.4351  150.5078 LP  0  0  0  0  0  0  0  0  0  0  0  0  # atno 17371 bound_to 10713
  141.0531  133.6879  156.1809 LP  0  0  0  0  0  0  0  0  0  0  0  0  # atno 17394 bound_to 11000
  140.6779  134.4798  157.5588 LP  0  0  0  0  0  0  0  0  0  0  0  0  # atno 17395 bound_to 11000

$$$$
