AV-unprocessed.smi:1794|AV-procd|sdf|7233|dock1
  -GOLD-   22720 8473D 1   1.00000     0.00000
 Structure written by MMmdl.
 55 57  0  0  0  0  0  0  0  0  2 V2000
  147.2290  132.9025  155.1532 C   0  0  0  0  0  0  0  0  0  0  0  0
  148.1211  132.6884  153.9042 C   0  0  0  0  0  0  0  0  0  0  0  0
  147.4511  133.4874  152.7583 C   0  0  0  0  0  0  0  0  0  0  0  0
  149.5573  133.2397  154.1570 C   0  0  0  0  0  0  0  0  0  0  0  0
  149.6411  134.6975  154.0699 N   0  0  0  0  0  0  0  0  0  0  0  0
  150.4198  135.4825  154.8284 C   0  0  0  0  0  0  0  0  0  0  0  0
  151.1865  135.0447  155.6848 O   0  0  0  0  0  0  0  0  0  0  0  0
  150.2302  136.7782  154.5251 N   0  0  0  0  0  0  0  0  0  0  0  0
  150.7862  137.9585  155.1050 C   0  0  0  0  0  0  0  0  0  0  0  0
  151.9191  137.9473  155.9587 C   0  0  0  0  0  0  0  0  0  0  0  0
  152.3724  139.1520  156.5231 C   0  0  0  0  0  0  0  0  0  0  0  0
  151.6756  140.3329  156.2217 C   0  0  0  0  0  0  0  0  0  0  0  0
  150.6008  140.3644  155.4104 N   0  0  0  0  0  0  0  0  0  0  0  0
  150.1598  139.2128  154.8475 C   0  0  0  0  0  0  0  0  0  0  0  0
  149.0423  139.3101  153.9872 N   0  0  0  0  0  0  0  0  0  0  0  0
  147.8231  138.5589  154.2702 C   0  0  0  0  0  0  0  0  0  0  0  0
  146.7378  139.2348  153.4370 C   0  0  0  0  0  0  0  0  0  0  0  0
  147.1543  140.7010  153.4900 C   0  0  0  0  0  0  0  0  0  0  0  0
  148.6851  140.6407  153.5039 C   0  0  0  0  0  0  0  0  0  0  0  0
  148.1484  131.2219  153.5553 N   0  3  0  0  0  0  0  0  0  0  0  0
  149.0157  130.3641  154.4121 C   0  0  0  0  0  0  0  0  0  0  0  0
  149.1046  128.9407  153.8369 C   0  0  0  0  0  0  0  0  0  0  0  0
  147.8020  128.3855  153.7279 O   0  0  0  0  0  0  0  0  0  0  0  0
  146.9833  129.1389  152.8449 C   0  0  0  0  0  0  0  0  0  0  0  0
  146.8188  130.5697  153.3841 C   0  0  0  0  0  0  0  0  0  0  0  0
  147.0014  133.9568  155.3135 H   0  0  0  0  0  0  0  0  0  0  0  0
  147.7071  132.5544  156.0684 H   0  0  0  0  0  0  0  0  0  0  0  0
  146.2741  132.3849  155.0541 H   0  0  0  0  0  0  0  0  0  0  0  0
  147.2358  134.5146  153.0549 H   0  0  0  0  0  0  0  0  0  0  0  0
  146.5035  133.0368  152.4605 H   0  0  0  0  0  0  0  0  0  0  0  0
  148.0842  133.5563  151.8740 H   0  0  0  0  0  0  0  0  0  0  0  0
  149.9416  132.9072  155.1216 H   0  0  0  0  0  0  0  0  0  0  0  0
  150.2504  132.8503  153.4122 H   0  0  0  0  0  0  0  0  0  0  0  0
  149.0447  135.1441  153.3886 H   0  0  0  0  0  0  0  0  0  0  0  0
  149.5667  136.9546  153.7850 H   0  0  0  0  0  0  0  0  0  0  0  0
  152.4552  137.0470  156.2078 H   0  0  0  0  0  0  0  0  0  0  0  0
  153.2308  139.1676  157.1782 H   0  0  0  0  0  0  0  0  0  0  0  0
  151.9893  141.2773  156.6413 H   0  0  0  0  0  0  0  0  0  0  0  0
  147.9376  137.5067  154.0087 H   0  0  0  0  0  0  0  0  0  0  0  0
  147.5574  138.6226  155.3259 H   0  0  0  0  0  0  0  0  0  0  0  0
  146.7749  138.8729  152.4085 H   0  0  0  0  0  0  0  0  0  0  0  0
  145.7336  139.0603  153.8242 H   0  0  0  0  0  0  0  0  0  0  0  0
  146.7602  141.2876  152.6599 H   0  0  0  0  0  0  0  0  0  0  0  0
  146.7967  141.1487  154.4182 H   0  0  0  0  0  0  0  0  0  0  0  0
  149.1094  141.4330  154.1223 H   0  0  0  0  0  0  0  0  0  0  0  0
  149.0703  140.7603  152.4911 H   0  0  0  0  0  0  0  0  0  0  0  0
  150.0281  130.7571  154.4795 H   0  0  0  0  0  0  0  0  0  0  0  0
  148.6189  130.3181  155.4262 H   0  0  0  0  0  0  0  0  0  0  0  0
  149.5967  128.9438  152.8626 H   0  0  0  0  0  0  0  0  0  0  0  0
  149.7030  128.3078  154.4926 H   0  0  0  0  0  0  0  0  0  0  0  0
  147.4155  129.1464  151.8428 H   0  0  0  0  0  0  0  0  0  0  0  0
  146.0102  128.6536  152.7671 H   0  0  0  0  0  0  0  0  0  0  0  0
  146.2880  130.5352  154.3356 H   0  0  0  0  0  0  0  0  0  0  0  0
  146.1898  131.1161  152.6844 H   0  0  0  0  0  0  0  0  0  0  0  0
  148.5738  131.1902  152.6397 H   0  0  0  0  0  0  0  0  0  0  0  0
  1  2  1  0  0  0  0
  1 26  1  0  0  0  0
  1 27  1  0  0  0  0
  1 28  1  0  0  0  0
  2  3  1  0  0  0  0
  2  4  1  0  0  0  0
  2 20  1  0  0  0  0
  3 29  1  0  0  0  0
  3 30  1  0  0  0  0
  3 31  1  0  0  0  0
  4  5  1  0  0  0  0
  4 32  1  0  0  0  0
  4 33  1  0  0  0  0
  5  6  1  0  0  0  0
  5 34  1  0  0  0  0
  6  7  2  0  0  0  0
  6  8  1  0  0  0  0
  8  9  1  0  0  0  0
  8 35  1  0  0  0  0
  9 14  1  0  0  0  0
  9 10  2  0  0  0  0
 10 11  1  0  0  0  0
 10 36  1  0  0  0  0
 11 12  2  0  0  0  0
 11 37  1  0  0  0  0
 12 13  1  0  0  0  0
 12 38  1  0  0  0  0
 13 14  2  0  0  0  0
 14 15  1  0  0  0  0
 15 19  1  0  0  0  0
 15 16  1  0  0  0  0
 16 17  1  0  0  0  0
 16 39  1  0  0  0  0
 16 40  1  0  0  0  0
 17 18  1  0  0  0  0
 17 41  1  0  0  0  0
 17 42  1  0  0  0  0
 18 19  1  0  0  0  0
 18 43  1  0  0  0  0
 18 44  1  0  0  0  0
 19 45  1  0  0  0  0
 19 46  1  0  0  0  0
 20 25  1  0  0  0  0
 20 21  1  0  0  0  0
 20 55  1  0  0  0  0
 21 22  1  0  0  0  0
 21 47  1  0  0  0  0
 21 48  1  0  0  0  0
 22 23  1  0  0  0  0
 22 49  1  0  0  0  0
 22 50  1  0  0  0  0
 23 24  1  0  0  0  0
 24 25  1  0  0  0  0
 24 51  1  0  0  0  0
 24 52  1  0  0  0  0
 25 53  1  0  0  0  0
 25 54  1  0  0  0  0
M  CHG  1  20   1
M  END
> <s_m_source_file>
AV-unprocessed.smi

> <i_m_source_file_index>
1794

> <i_lp_mmshare_version>
43012

> <i_f3d_flags>
0

> <s_epik_input>
W0NIMl0xW0NIMl1PW0NIMl1bQ0gyXU4xQyhbQ0gzXSkoW0NIM10pW0NIMl1bTkhdQyg9TylbTkhdYzJbY0hdW2NIXVtjSF1uYzJOM1tDSDJdW0NIMl1bQ0gyXVtDSDJdMw==

> <s_epik_cmdline>
J2VwaWtfcHl0aG9uJywgJy1waCcsICc3LjAnLCAnLXRuJywgJzgnLCAnLW1hJywgJzIwMCcsICctbWV0YWxfYmluZGluZycsICctaW1hZScsICc8aW5maWxlLm1hZT4nLCAnLW9tYWUnLCAnPG91dGZpbGUubWFlPic=

> <r_lp_tautomer_probability>
1

> <r_epik_Ionization_Penalty>
0.687101

> <r_epik_Ionization_Penalty_Charging>
0.602531

> <r_epik_Ionization_Penalty_Neutral>
0.0845706

> <r_epik_State_Penalty>
0.681137

> <r_epik_Charging_Adjusted_Penalty>
1.28367

> <i_epik_Tot_Q>
1

> <i_epik_Tot_abs_Q>
1

> <r_epik_Metal_State_Penalty>
0.680055

> <b_epik_Metal_Only>
0

> <s_lp_Force_Field>
OPLS_2005

> <r_lp_Energy>
53.5269

> <b_lp_Chiralities_Consistent>
1

> <s_lp_Variant>
AV-unprocessed.smi:1794-2

> <Gold.Version>
5.8.1

> <Gold.Id.Protein>
6NUR|6NUR_protein|mol2

> <Gold.PLP.Fitness>
44.4671

> <Gold.PLP.PLP>
-34.6552

> <Gold.PLP.part.hbond>
-5.7464

> <Gold.PLP.part.metal>
0.0000

> <Gold.PLP.part.buried>
2.8720

> <Gold.PLP.part.nonpolar>
-33.1788

> <Gold.PLP.part.repulsive>
1.8103

> <Gold.PLP.ligand.clash>
0.0000

> <Gold.PLP.ligand.torsion>
0.8514

> <Gold.PLP.Chemscore.Hbond>
3.7010

> <Gold.PLP.Chemscore.CHOScore>
0.0000

> <Gold.PLP.Chemscore.Metal>
0.0000

> <Gold.Chemscore.Hbonds>
donor molecule, donor type, donor heavy atom, donor atom, acceptor molecule, acceptor atom, score
      L1  H     5    34       P1  7948  0.91
      L1  H     8    35       P1  7948  0.64
      L1  H    20    55       P1 10747  0.08
      P1  H  7989  7998       L1    13  0.24
      P1  H 10752 10765       L1     7  0.86

> <Gold.PLP.Chemscore.Internal.Correction>
0.4117

> <Gold.Rescore>
     Score         DG    S(hbond)    S(metal)    S(lipo)     H(rot)  DE(clash)    DE(int)     intcor
     16.35     -20.24       2.52        0.00      89.37       1.60       2.06       1.83       ----

> <Gold.Chemscore.Fitness>
16.3508

> <Gold.Chemscore.DG>
-20.2389

> <Gold.Chemscore.ZeroCoef>
-5.4800

> <Gold.Chemscore.Hbond>
2.5177

> <Gold.Chemscore.Metal>
0.0000

> <Gold.Chemscore.Lipo>
89.3749

> <Gold.Chemscore.Internal_Hbond>
0.0000

> <Gold.Chemscore.DEClash>
2.0619

> <Gold.Chemscore.DEInternal>
1.8261

> <Gold.Chemscore.Rot>
1.6044

> <Gold.Chemscore.Internal.Correction>
   9.000000E+99

> <Gold.Chemscore.Hbonds>
donor molecule, donor type, donor heavy atom, donor atom, acceptor molecule, acceptor atom, score
      L1  H     5    34       P1  7948  0.31
      L1  H     8    35       P1  7948  0.55
      L1  H    20    55       P1 10747  0.10
      P1  H 10752 10765       L1     7  0.21

> <Gold.Chemscore.Hbond.Weighted>
-8.4092

> <Gold.Chemscore.Metal.Weighted>
-0.0000

> <Gold.Chemscore.Lipo.Weighted>
-10.4569

> <Gold.Chemscore.Internal_Hbond.Weighted>
0.0000

> <Gold.Chemscore.DEClash.Weighted>
2.0619

> <Gold.Chemscore.DEInternal.Weighted>
1.8261

> <Gold.Chemscore.Rot.Weighted>
4.1072

> <Gold.Chemscore.Internal.Correction.Weighted>
   9.000000E+99

> <Gold.Protein.RotatedTorsions>
[ 6907 6896 6895 6894 ] final    9.46 input  -60.11 | X-H torsion
[ 7974 7965 7964 7962 ] final   35.56 input  175.53 | X-H torsion
[ 8008 7997 7996 7995 ] final   45.73 input   59.86 | X-H torsion
[ 10167 10162 10161 10158 ] final  100.59 input  -65.29 | X-H torsion
[ 10718 10713 10712 10709 ] final  -71.20 input   66.30 | X-H torsion
[ 10763 10752 10751 10750 ] final -166.97 input  -60.55 | X-H torsion
[ 11005 11000 10999 10996 ] final  158.99 input  -57.11 | X-H torsion

> <Gold.Protein.ActiveResidues>
 VAL166  LYS551  ARG553  GLY616  TRP617  ASP618  TYR619  PRO620  LYS621  CYS622 
 ASP623  PHE694  ASN695  SER759  ASP760  ASP761  ALA762  ILE779  LEU786  VAL792 
 PHE793  MET794  SER795  GLU796  ALA797  LYS798  CYS799  TRP800  GLU811  SER814 

> <Gold.Protein.RotatedAtoms>
  151.7225  135.0891  160.0286 H   0  0  0  0  0  0  0  0  0  0  0  0  # atno 6907 bound_to 6896
  152.3593  133.6272  159.6011 H   0  0  0  0  0  0  0  0  0  0  0  0  # atno 6908 bound_to 6896
  150.7593  133.9366  159.3485 H   0  0  0  0  0  0  0  0  0  0  0  0  # atno 6909 bound_to 6896
  146.1274  139.6127  142.9249 H   0  0  0  0  0  0  0  0  0  0  0  0  # atno 7974 bound_to 7965
  155.3407  140.3408  155.4239 H   0  0  0  0  0  0  0  0  0  0  0  0  # atno 8008 bound_to 7997
  156.1814  140.1665  156.8302 H   0  0  0  0  0  0  0  0  0  0  0  0  # atno 8009 bound_to 7997
  154.5338  140.0739  156.8375 H   0  0  0  0  0  0  0  0  0  0  0  0  # atno 8010 bound_to 7997
  139.7513  144.6983  151.0427 H   0  0  0  0  0  0  0  0  0  0  0  0  # atno 10167 bound_to 10162
  156.0373  130.4346  150.2408 H   0  0  0  0  0  0  0  0  0  0  0  0  # atno 10718 bound_to 10713
  154.6779  135.2950  154.9653 H   0  0  0  0  0  0  0  0  0  0  0  0  # atno 10763 bound_to 10752
  154.0658  135.6625  153.4821 H   0  0  0  0  0  0  0  0  0  0  0  0  # atno 10764 bound_to 10752
  153.0528  135.5163  154.7807 H   0  0  0  0  0  0  0  0  0  0  0  0  # atno 10765 bound_to 10752
  140.1919  134.8401  157.2921 H   0  0  0  0  0  0  0  0  0  0  0  0  # atno 11005 bound_to 11000
  145.5335  141.0425  143.2370 LP  0  0  0  0  0  0  0  0  0  0  0  0  # atno 17320 bound_to 7965
  144.7656  139.6853  143.7216 LP  0  0  0  0  0  0  0  0  0  0  0  0  # atno 17321 bound_to 7965
  140.7798  143.4805  151.0024 LP  0  0  0  0  0  0  0  0  0  0  0  0  # atno 17342 bound_to 10162
  139.8493  143.7460  152.3178 LP  0  0  0  0  0  0  0  0  0  0  0  0  # atno 17343 bound_to 10162
  157.0506  131.0061  151.3255 LP  0  0  0  0  0  0  0  0  0  0  0  0  # atno 17370 bound_to 10713
  157.5143  130.7958  149.7739 LP  0  0  0  0  0  0  0  0  0  0  0  0  # atno 17371 bound_to 10713
  140.2150  134.4092  155.7593 LP  0  0  0  0  0  0  0  0  0  0  0  0  # atno 17394 bound_to 11000
  141.2226  133.7137  156.8399 LP  0  0  0  0  0  0  0  0  0  0  0  0  # atno 17395 bound_to 11000

$$$$
