AV-unprocessed.smi:69|AV-procd|sdf|657|dock4
  -GOLD-   2262016553D 1   1.00000     0.00000
 Structure written by MMmdl.
 32 34  0  0  0  0  0  0  0  0  1 V2000
  155.1347  141.2981  160.3608 N   0  0  0  0  0  0  0  0  0  0  0  0
  153.9175  141.6599  159.9326 C   0  0  0  0  0  0  0  0  0  0  0  0
  153.3966  142.8245  160.3843 N   0  0  0  0  0  0  0  0  0  0  0  0
  152.1826  143.2050  159.9736 C   0  0  0  0  0  0  0  0  0  0  0  0
  151.3503  142.5803  159.1368 N   0  0  0  0  0  0  0  0  0  0  0  0
  151.8766  141.4061  158.6807 C   0  0  0  0  0  0  0  0  0  0  0  0
  153.1504  140.8785  159.0320 C   0  0  0  0  0  0  0  0  0  0  0  0
  153.3562  139.6673  158.3861 N   0  0  0  0  0  0  0  0  0  0  0  0
  152.2624  139.4912  157.6951 C   0  0  0  0  0  0  0  0  0  0  0  0
  151.3154  140.4850  157.8165 N   0  0  0  0  0  0  0  0  0  0  0  0
  149.9717  140.5411  157.1512 C   0  0  2  0  0  0  0  0  0  0  0  0
  149.8569  139.4892  156.2376 O   0  0  0  0  0  0  0  0  0  0  0  0
  149.6314  139.9887  154.9190 C   0  0  1  0  0  0  0  0  0  0  0  0
  148.7467  139.0064  154.1357 C   0  0  0  0  0  0  0  0  0  0  0  0
  149.3481  137.7298  154.1013 O   0  0  0  0  0  0  0  0  0  0  0  0
  148.9634  141.3413  155.1742 C   0  0  2  0  0  0  0  0  0  0  0  0
  149.0287  142.2154  154.0630 O   0  0  0  0  0  0  0  0  0  0  0  0
  149.7218  141.8570  156.3888 C   0  0  2  0  0  0  0  0  0  0  0  0
  150.9096  142.5518  156.0410 O   0  0  0  0  0  0  0  0  0  0  0  0
  149.2556  140.3788  157.9580 H   0  0  0  0  0  0  0  0  0  0  0  0
  150.5866  140.1454  154.4153 H   0  0  0  0  0  0  0  0  0  0  0  0
  147.9177  141.1889  155.4461 H   0  0  0  0  0  0  0  0  0  0  0  0
  149.1064  142.5200  156.9977 H   0  0  0  0  0  0  0  0  0  0  0  0
  155.5430  140.4322  160.0393 H   0  0  0  0  0  0  0  0  0  0  0  0
  155.6401  141.8915  161.0026 H   0  0  0  0  0  0  0  0  0  0  0  0
  151.8258  144.1434  160.3722 H   0  0  0  0  0  0  0  0  0  0  0  0
  152.1127  138.6195  157.0749 H   0  0  0  0  0  0  0  0  0  0  0  0
  147.7459  138.9444  154.5640 H   0  0  0  0  0  0  0  0  0  0  0  0
  148.6369  139.3421  153.1041 H   0  0  0  0  0  0  0  0  0  0  0  0
  149.2201  137.3602  153.2412 H   0  0  0  0  0  0  0  0  0  0  0  0
  149.0858  143.1028  154.3821 H   0  0  0  0  0  0  0  0  0  0  0  0
  150.6745  143.4170  155.7421 H   0  0  0  0  0  0  0  0  0  0  0  0
  1  2  1  0  0  0  0
  1 24  1  0  0  0  0
  1 25  1  0  0  0  0
  2  7  1  0  0  0  0
  2  3  2  0  0  0  0
  3  4  1  0  0  0  0
  4  5  2  0  0  0  0
  4 26  1  0  0  0  0
  5  6  1  0  0  0  0
  6 10  1  0  0  0  0
  6  7  2  0  0  0  0
  7  8  1  0  0  0  0
  8  9  2  0  0  0  0
  9 10  1  0  0  0  0
  9 27  1  0  0  0  0
 10 11  1  0  0  0  0
 11 20  1  0  0  0  0
 11 18  1  0  0  0  0
 11 12  1  0  0  0  0
 12 13  1  0  0  0  0
 13 21  1  0  0  0  0
 13 14  1  0  0  0  0
 13 16  1  0  0  0  0
 14 15  1  0  0  0  0
 14 28  1  0  0  0  0
 14 29  1  0  0  0  0
 15 30  1  0  0  0  0
 16 22  1  0  0  0  0
 16 17  1  0  0  0  0
 16 18  1  0  0  0  0
 17 31  1  0  0  0  0
 18 23  1  0  0  0  0
 18 19  1  0  0  0  0
 19 32  1  0  0  0  0
M  END
> <s_m_source_file>
AV-unprocessed.smi

> <i_m_source_file_index>
69

> <i_lp_mmshare_version>
43012

> <i_f3d_flags>
0

> <s_epik_input>
bjFbY0hdbmMoW05IMl0pYyhjMTIpbltjSF1uMltDQEBIXTNPW0NASF0oW0NIMl1bT0hdKVtDQEBIXShbT0hdKVtDQEhdM1tPSF0=

> <s_epik_cmdline>
J2VwaWtfcHl0aG9uJywgJy1waCcsICc3LjAnLCAnLXRuJywgJzgnLCAnLW1hJywgJzIwMCcsICctbWV0YWxfYmluZGluZycsICctaW1hZScsICc8aW5maWxlLm1hZT4nLCAnLW9tYWUnLCAnPG91dGZpbGUubWFlPic=

> <r_lp_tautomer_probability>
1

> <r_epik_Ionization_Penalty>
0.000428445

> <r_epik_Ionization_Penalty_Charging>
0

> <r_epik_Ionization_Penalty_Neutral>
0.000428445

> <r_epik_State_Penalty>
-0

> <r_epik_Charging_Adjusted_Penalty>
0

> <i_epik_Tot_Q>
0

> <i_epik_Tot_abs_Q>
0

> <r_epik_Metal_State_Penalty>
-0

> <b_epik_Metal_Only>
0

> <s_epik_Chemistry_Notes>
This compound contains an acetal/aminal-like group ( X-CH(R)-Y where X, Y are N, S, or O) that may be acid/base labile, releasing an aldehyde.

> <s_lp_Force_Field>
OPLS_2005

> <r_lp_Energy>
44.883

> <b_lp_Chiralities_Consistent>
1

> <s_lp_Variant>
AV-unprocessed.smi:69-15

> <Gold.Version>
5.8.1

> <Gold.Id.Protein>
6NUR|6NUR_protein|mol2

> <Gold.PLP.Fitness>
43.3069

> <Gold.PLP.PLP>
-31.0777

> <Gold.PLP.part.hbond>
-6.3801

> <Gold.PLP.part.metal>
0.0000

> <Gold.PLP.part.buried>
-4.5793

> <Gold.PLP.part.nonpolar>
-20.2224

> <Gold.PLP.part.repulsive>
0.0489

> <Gold.PLP.ligand.clash>
0.0000

> <Gold.PLP.ligand.torsion>
0.1159

> <Gold.PLP.Chemscore.Hbond>
4.1510

> <Gold.PLP.Chemscore.CHOScore>
0.0000

> <Gold.PLP.Chemscore.Metal>
0.0000

> <Gold.Chemscore.Hbonds>
donor molecule, donor type, donor heavy atom, donor atom, acceptor molecule, acceptor atom, score
      L1  H    15    30       P1  7948  1.00
      L1  H    17    31       P1  8028  0.98
      L1  H    19    32       P1  8028  0.46
      P1  H  7997  8009       L1     8  1.00
      P1  H  8011  8017       L1    17  0.27

> <Gold.PLP.Chemscore.Internal.Correction>
0.0080

> <Gold.Rescore>
     Score         DG    S(hbond)    S(metal)    S(lipo)     H(rot)  DE(clash)    DE(int)     intcor
     11.46     -11.63       3.84        0.00      31.05       4.03       0.07       0.10       ----

> <Gold.Chemscore.Fitness>
11.4636

> <Gold.Chemscore.DG>
-11.6317

> <Gold.Chemscore.ZeroCoef>
-5.4800

> <Gold.Chemscore.Hbond>
3.8413

> <Gold.Chemscore.Metal>
0.0000

> <Gold.Chemscore.Lipo>
31.0508

> <Gold.Chemscore.Internal_Hbond>
0.0000

> <Gold.Chemscore.DEClash>
0.0689

> <Gold.Chemscore.DEInternal>
0.0992

> <Gold.Chemscore.Rot>
4.0277

> <Gold.Chemscore.Internal.Correction>
   9.000000E+99

> <Gold.Chemscore.Hbonds>
donor molecule, donor type, donor heavy atom, donor atom, acceptor molecule, acceptor atom, score
      L1  H    15    30       P1  7948  0.99
      L1  H    17    31       P1  8028  0.91
      L1  H    19    32       P1  8028  0.45
      P1  H  7997  8009       L1     8  0.22
      P1  H  8011  8017       L1    17  0.06

> <Gold.Chemscore.Hbond.Weighted>
-12.8298

> <Gold.Chemscore.Metal.Weighted>
-0.0000

> <Gold.Chemscore.Lipo.Weighted>
-3.6329

> <Gold.Chemscore.Internal_Hbond.Weighted>
0.0000

> <Gold.Chemscore.DEClash.Weighted>
0.0689

> <Gold.Chemscore.DEInternal.Weighted>
0.0992

> <Gold.Chemscore.Rot.Weighted>
10.3110

> <Gold.Chemscore.Internal.Correction.Weighted>
   9.000000E+99

> <Gold.Protein.RotatedTorsions>
[ 6907 6896 6895 6894 ] final  101.08 input  -60.11 | X-H torsion
[ 7974 7965 7964 7962 ] final  125.96 input  175.53 | X-H torsion
[ 8008 7997 7996 7995 ] final  149.44 input   59.86 | X-H torsion
[ 10167 10162 10161 10158 ] final  -36.65 input  -65.29 | X-H torsion
[ 10718 10713 10712 10709 ] final -144.06 input   66.30 | X-H torsion
[ 10763 10752 10751 10750 ] final  -87.78 input  -60.55 | X-H torsion
[ 11005 11000 10999 10996 ] final  -84.62 input  -57.11 | X-H torsion

> <Gold.Protein.ActiveResidues>
 VAL166  LYS551  ARG553  GLY616  TRP617  ASP618  TYR619  PRO620  LYS621  CYS622 
 ASP623  PHE694  ASN695  SER759  ASP760  ASP761  ALA762  ILE779  LEU786  VAL792 
 PHE793  MET794  SER795  GLU796  ALA797  LYS798  CYS799  TRP800  GLU811  SER814 

> <Gold.Protein.RotatedAtoms>
  152.5357  134.0179  159.7968 H   0  0  0  0  0  0  0  0  0  0  0  0  # atno 6907 bound_to 6896
  151.0370  133.5732  159.2662 H   0  0  0  0  0  0  0  0  0  0  0  0  # atno 6908 bound_to 6896
  151.2715  135.0693  159.9189 H   0  0  0  0  0  0  0  0  0  0  0  0  # atno 6909 bound_to 6896
  145.0670  139.3759  143.4977 H   0  0  0  0  0  0  0  0  0  0  0  0  # atno 7974 bound_to 7965
  156.2755  140.2102  156.5858 H   0  0  0  0  0  0  0  0  0  0  0  0  # atno 8008 bound_to 7997
  154.7022  140.0520  157.0492 H   0  0  0  0  0  0  0  0  0  0  0  0  # atno 8009 bound_to 7997
  155.0719  140.3177  155.4631 H   0  0  0  0  0  0  0  0  0  0  0  0  # atno 8010 bound_to 7997
  140.7137  143.3394  151.2390 H   0  0  0  0  0  0  0  0  0  0  0  0  # atno 10167 bound_to 10162
  156.3655  130.7761  151.1934 H   0  0  0  0  0  0  0  0  0  0  0  0  # atno 10718 bound_to 10713
  154.6374  135.5401  153.7750 H   0  0  0  0  0  0  0  0  0  0  0  0  # atno 10763 bound_to 10752
  153.0316  135.6451  154.1210 H   0  0  0  0  0  0  0  0  0  0  0  0  # atno 10764 bound_to 10752
  154.1137  135.2925  155.3204 H   0  0  0  0  0  0  0  0  0  0  0  0  # atno 10765 bound_to 10752
  141.1649  133.7355  156.8894 H   0  0  0  0  0  0  0  0  0  0  0  0  # atno 11005 bound_to 11000
  146.3527  140.0397  142.8644 LP  0  0  0  0  0  0  0  0  0  0  0  0  # atno 17320 bound_to 7965
  145.1338  140.9533  143.4529 LP  0  0  0  0  0  0  0  0  0  0  0  0  # atno 17321 bound_to 7965
  139.6898  143.9711  152.2853 LP  0  0  0  0  0  0  0  0  0  0  0  0  # atno 17342 bound_to 10162
  139.9369  144.6706  150.8305 LP  0  0  0  0  0  0  0  0  0  0  0  0  # atno 17343 bound_to 10162
  157.7478  131.0387  150.4517 LP  0  0  0  0  0  0  0  0  0  0  0  0  # atno 17370 bound_to 10713
  156.4735  130.4058  149.6504 LP  0  0  0  0  0  0  0  0  0  0  0  0  # atno 17371 bound_to 10713
  140.1659  134.9133  157.2773 LP  0  0  0  0  0  0  0  0  0  0  0  0  # atno 17394 bound_to 11000
  140.2558  134.3630  155.7425 LP  0  0  0  0  0  0  0  0  0  0  0  0  # atno 17395 bound_to 11000

$$$$
