AV-unprocessed.smi:2653|AV-procd|sdf|10296|dock5
  -GOLD-   2272014313D 1   1.00000     0.00000
 Structure written by MMmdl.
 31 32  0  0  0  0  0  0  0  0  1 V2000
  154.0777  141.3321  161.0389 C   0  0  0  0  0  0  0  0  0  0  0  0
  153.4651  142.5460  160.3312 C   0  0  0  0  0  0  0  0  0  0  0  0
  152.5896  142.1418  159.1768 C   0  0  0  0  0  0  0  0  0  0  0  0
  152.6121  140.8785  158.7603 N   0  0  0  0  0  0  0  0  0  0  0  0
  151.7382  140.8460  157.7380 N   0  0  0  0  0  0  0  0  0  0  0  0
  151.1594  142.0772  157.5308 C   0  0  0  0  0  0  0  0  0  0  0  0
  150.2558  142.4078  156.5670 N   0  0  0  0  0  0  0  0  0  0  0  0
  149.5701  141.6350  155.6978 C   0  0  0  0  0  0  0  0  0  0  0  0
  149.7236  140.4150  155.6758 O   0  0  0  0  0  0  0  0  0  0  0  0
  148.7420  142.2825  154.8608 N   0  0  0  0  0  0  0  0  0  0  0  0
  147.9296  141.6765  153.8569 C   0  0  0  0  0  0  0  0  0  0  0  0
  146.4537  142.0110  153.8558 C   0  0  0  0  0  0  0  0  0  0  0  0
  146.9110  140.6502  154.3034 C   0  0  0  0  0  0  0  0  0  0  0  0
  151.6872  142.9611  158.4282 C   0  0  0  0  0  0  0  0  0  0  0  0
  151.4047  144.4280  158.6092 C   0  0  0  0  0  0  0  0  0  0  0  0
  151.5618  140.0045  157.2082 H   0  0  0  0  0  0  0  0  0  0  0  0
  154.7051  141.6447  161.8737 H   0  0  0  0  0  0  0  0  0  0  0  0
  154.6973  140.7489  160.3568 H   0  0  0  0  0  0  0  0  0  0  0  0
  153.3018  140.6747  161.4326 H   0  0  0  0  0  0  0  0  0  0  0  0
  152.8896  143.1301  161.0498 H   0  0  0  0  0  0  0  0  0  0  0  0
  154.2633  143.2029  159.9834 H   0  0  0  0  0  0  0  0  0  0  0  0
  150.1164  143.4008  156.4488 H   0  0  0  0  0  0  0  0  0  0  0  0
  148.6970  143.2884  154.9304 H   0  0  0  0  0  0  0  0  0  0  0  0
  148.3814  141.5092  152.8801 H   0  0  0  0  0  0  0  0  0  0  0  0
  146.0847  142.6926  154.6200 H   0  0  0  0  0  0  0  0  0  0  0  0
  145.9564  142.0819  152.8905 H   0  0  0  0  0  0  0  0  0  0  0  0
  146.7194  139.8114  153.6372 H   0  0  0  0  0  0  0  0  0  0  0  0
  146.8478  140.4237  155.3663 H   0  0  0  0  0  0  0  0  0  0  0  0
  150.4781  144.7331  158.1228 H   0  0  0  0  0  0  0  0  0  0  0  0
  152.2032  145.0428  158.1942 H   0  0  0  0  0  0  0  0  0  0  0  0
  151.3106  144.6916  159.6628 H   0  0  0  0  0  0  0  0  0  0  0  0
  1  2  1  0  0  0  0
  1 17  1  0  0  0  0
  1 18  1  0  0  0  0
  1 19  1  0  0  0  0
  2 20  1  0  0  0  0
  2 21  1  0  0  0  0
  2  3  1  0  0  0  0
  3  4  2  0  0  0  0
  3 14  1  0  0  0  0
  4  5  1  0  0  0  0
  5 16  1  0  0  0  0
  5  6  1  0  0  0  0
  6  7  1  0  0  0  0
  6 14  2  0  0  0  0
  7  8  1  0  0  0  0
  7 22  1  0  0  0  0
  8  9  2  0  0  0  0
  8 10  1  0  0  0  0
 10 11  1  0  0  0  0
 10 23  1  0  0  0  0
 11 13  1  0  0  0  0
 11 12  1  0  0  0  0
 11 24  1  0  0  0  0
 12 13  1  0  0  0  0
 12 25  1  0  0  0  0
 12 26  1  0  0  0  0
 13 27  1  0  0  0  0
 13 28  1  0  0  0  0
 14 15  1  0  0  0  0
 15 29  1  0  0  0  0
 15 30  1  0  0  0  0
 15 31  1  0  0  0  0
M  END
> <s_m_source_file>
AV-unprocessed.smi

> <i_m_source_file_index>
2653

> <i_lp_mmshare_version>
43012

> <i_f3d_flags>
0

> <s_epik_input>
W0NIM11bQ0gyXWMxW25IXW5jKGMxW0NIM10pW05IXUMoPU8pW05IXVtDSF0yW0NIMl1bQ0gyXTI=

> <s_epik_cmdline>
J2VwaWtfcHl0aG9uJywgJy1waCcsICc3LjAnLCAnLXRuJywgJzgnLCAnLW1hJywgJzIwMCcsICctbWV0YWxfYmluZGluZycsICctaW1hZScsICc8aW5maWxlLm1hZT4nLCAnLW9tYWUnLCAnPG91dGZpbGUubWFlPic=

> <r_lp_tautomer_probability>
0.5

> <r_epik_Ionization_Penalty>
6.45879e-05

> <r_epik_Ionization_Penalty_Charging>
0

> <r_epik_Ionization_Penalty_Neutral>
6.45879e-05

> <r_epik_State_Penalty>
0.41068

> <r_epik_Charging_Adjusted_Penalty>
0.41068

> <i_epik_Tot_Q>
0

> <i_epik_Tot_abs_Q>
0

> <r_epik_Metal_State_Penalty>
0.410665

> <b_epik_Metal_Only>
0

> <s_lp_Force_Field>
OPLS_2005

> <r_lp_Energy>
17.9348

> <b_lp_Chiralities_Consistent>
1

> <s_lp_Variant>
AV-unprocessed.smi:2653-2

> <Gold.Version>
5.8.1

> <Gold.Id.Protein>
6NUR|6NUR_protein|mol2

> <Gold.PLP.Fitness>
37.5228

> <Gold.PLP.PLP>
-32.2030

> <Gold.PLP.part.hbond>
-2.0000

> <Gold.PLP.part.metal>
0.0000

> <Gold.PLP.part.buried>
-4.2924

> <Gold.PLP.part.nonpolar>
-26.1394

> <Gold.PLP.part.repulsive>
0.4135

> <Gold.PLP.ligand.clash>
0.0000

> <Gold.PLP.ligand.torsion>
0.1540

> <Gold.PLP.Chemscore.Hbond>
1.8640

> <Gold.PLP.Chemscore.CHOScore>
0.0000

> <Gold.PLP.Chemscore.Metal>
0.0000

> <Gold.Chemscore.Hbonds>
donor molecule, donor type, donor heavy atom, donor atom, acceptor molecule, acceptor atom, score
      L1  H     7    22       P1  8028  0.86
      L1  H    10    23       P1  8028  1.00

> <Gold.PLP.Chemscore.Internal.Correction>
0.0359

> <Gold.Rescore>
     Score         DG    S(hbond)    S(metal)    S(lipo)     H(rot)  DE(clash)    DE(int)     intcor
     16.37     -17.78       1.95        0.00      76.06       1.21       0.06       1.35       ----

> <Gold.Chemscore.Fitness>
16.3727

> <Gold.Chemscore.DG>
-17.7776

> <Gold.Chemscore.ZeroCoef>
-5.4800

> <Gold.Chemscore.Hbond>
1.9471

> <Gold.Chemscore.Metal>
0.0000

> <Gold.Chemscore.Lipo>
76.0612

> <Gold.Chemscore.Internal_Hbond>
0.0000

> <Gold.Chemscore.DEClash>
0.0574

> <Gold.Chemscore.DEInternal>
1.3476

> <Gold.Chemscore.Rot>
1.2129

> <Gold.Chemscore.Internal.Correction>
   9.000000E+99

> <Gold.Chemscore.Hbonds>
donor molecule, donor type, donor heavy atom, donor atom, acceptor molecule, acceptor atom, score
      L1  H     7    22       P1  8028  0.83
      L1  H    10    23       P1  8028  0.97

> <Gold.Chemscore.Hbond.Weighted>
-6.5034

> <Gold.Chemscore.Metal.Weighted>
-0.0000

> <Gold.Chemscore.Lipo.Weighted>
-8.8992

> <Gold.Chemscore.Internal_Hbond.Weighted>
0.0000

> <Gold.Chemscore.DEClash.Weighted>
0.0574

> <Gold.Chemscore.DEInternal.Weighted>
1.3476

> <Gold.Chemscore.Rot.Weighted>
3.1049

> <Gold.Chemscore.Internal.Correction.Weighted>
   9.000000E+99

> <Gold.Protein.RotatedTorsions>
[ 6907 6896 6895 6894 ] final  156.43 input  -60.11 | X-H torsion
[ 7974 7965 7964 7962 ] final -101.80 input  175.53 | X-H torsion
[ 8008 7997 7996 7995 ] final  130.57 input   59.86 | X-H torsion
[ 10167 10162 10161 10158 ] final   91.92 input  -65.29 | X-H torsion
[ 10718 10713 10712 10709 ] final  -74.29 input   66.30 | X-H torsion
[ 10763 10752 10751 10750 ] final   76.25 input  -60.55 | X-H torsion
[ 11005 11000 10999 10996 ] final  -92.01 input  -57.11 | X-H torsion

> <Gold.Protein.ActiveResidues>
 VAL166  LYS551  ARG553  GLY616  TRP617  ASP618  TYR619  PRO620  LYS621  CYS622 
 ASP623  PHE694  ASN695  SER759  ASP760  ASP761  ALA762  ILE779  LEU786  VAL792 
 PHE793  MET794  SER795  GLU796  ALA797  LYS798  CYS799  TRP800  GLU811  SER814 

> <Gold.Protein.RotatedAtoms>
  152.0297  133.3932  159.4291 H   0  0  0  0  0  0  0  0  0  0  0  0  # atno 6907 bound_to 6896
  150.6883  134.3534  159.4928 H   0  0  0  0  0  0  0  0  0  0  0  0  # atno 6908 bound_to 6896
  152.1319  134.9128  160.0609 H   0  0  0  0  0  0  0  0  0  0  0  0  # atno 6909 bound_to 6896
  145.2769  140.9315  143.2954 H   0  0  0  0  0  0  0  0  0  0  0  0  # atno 7974 bound_to 7965
  156.2956  140.2592  156.2784 H   0  0  0  0  0  0  0  0  0  0  0  0  # atno 8008 bound_to 7997
  154.9626  140.0392  157.2215 H   0  0  0  0  0  0  0  0  0  0  0  0  # atno 8009 bound_to 7997
  154.7933  140.2815  155.5980 H   0  0  0  0  0  0  0  0  0  0  0  0  # atno 8010 bound_to 7997
  139.8327  144.6679  150.9380 H   0  0  0  0  0  0  0  0  0  0  0  0  # atno 10167 bound_to 10162
  156.0248  130.4413  150.2871 H   0  0  0  0  0  0  0  0  0  0  0  0  # atno 10718 bound_to 10713
  153.0712  135.4958  154.8309 H   0  0  0  0  0  0  0  0  0  0  0  0  # atno 10763 bound_to 10752
  154.7025  135.3004  154.9322 H   0  0  0  0  0  0  0  0  0  0  0  0  # atno 10764 bound_to 10752
  154.0041  135.6762  153.4814 H   0  0  0  0  0  0  0  0  0  0  0  0  # atno 10765 bound_to 10752
  141.1532  133.7792  156.9959 H   0  0  0  0  0  0  0  0  0  0  0  0  # atno 11005 bound_to 11000
  144.9286  139.4325  143.6506 LP  0  0  0  0  0  0  0  0  0  0  0  0  # atno 17320 bound_to 7965
  146.3229  139.8186  142.8931 LP  0  0  0  0  0  0  0  0  0  0  0  0  # atno 17321 bound_to 7965
  140.7805  143.3986  151.1188 LP  0  0  0  0  0  0  0  0  0  0  0  0  # atno 17342 bound_to 10162
  139.7638  143.8595  152.3106 LP  0  0  0  0  0  0  0  0  0  0  0  0  # atno 17343 bound_to 10162
  157.0974  131.0186  151.3098 LP  0  0  0  0  0  0  0  0  0  0  0  0  # atno 17370 bound_to 10713
  157.4806  130.7763  149.7411 LP  0  0  0  0  0  0  0  0  0  0  0  0  # atno 17371 bound_to 10713
  140.0972  134.9557  157.1867 LP  0  0  0  0  0  0  0  0  0  0  0  0  # atno 17394 bound_to 11000
  140.3367  134.2749  155.7219 LP  0  0  0  0  0  0  0  0  0  0  0  0  # atno 17395 bound_to 11000

$$$$
