AV-unprocessed.smi:1578|AV-procd|sdf|6350|dock6
  -GOLD-   22720 6573D 1   1.00000     0.00000
 Structure written by MMmdl.
 44 45  0  0  0  0  0  0  0  0  1 V2000
  146.1588  138.1010  156.0111 C   0  0  0  0  0  0  0  0  0  0  0  0
  146.9787  139.0205  156.9311 C   0  0  2  0  0  0  0  0  0  0  0  0
  147.8665  139.9835  156.1123 C   0  0  0  0  0  0  0  0  0  0  0  0
  149.2684  139.5861  155.9631 N   0  0  0  0  0  0  0  0  0  0  0  0
  149.5843  139.1033  154.6198 C   0  0  0  0  0  0  0  0  0  0  0  0
  151.0704  138.7373  154.4672 C   0  0  0  0  0  0  0  0  0  0  0  0
  151.8788  139.8574  154.8106 O   0  0  0  0  0  0  0  0  0  0  0  0
  151.6402  140.3158  156.1369 C   0  0  0  0  0  0  0  0  0  0  0  0
  150.1576  140.6971  156.2875 C   0  0  0  0  0  0  0  0  0  0  0  0
  147.8188  138.2056  157.8033 N   0  0  0  0  0  0  0  0  0  0  0  0
  147.3952  137.4653  158.8419 C   0  0  0  0  0  0  0  0  0  0  0  0
  146.2068  137.3478  159.1370 O   0  0  0  0  0  0  0  0  0  0  0  0
  148.4552  136.7546  159.7012 C   0  0  0  0  0  0  0  0  0  0  0  0
  147.9079  135.8335  160.7145 N   0  0  0  0  0  0  0  0  0  0  0  0
  148.0967  134.4544  160.4966 C   0  0  0  0  0  0  0  0  0  0  0  0
  147.6758  133.5115  161.3612 C   0  0  0  0  0  0  0  0  0  0  0  0
  147.8533  132.0286  161.0751 C   0  0  0  0  0  0  0  0  0  0  0  0
  146.6830  131.3905  161.1008 F   0  0  0  0  0  0  0  0  0  0  0  0
  148.4115  131.8326  159.8800 F   0  0  0  0  0  0  0  0  0  0  0  0
  148.6448  131.4821  161.9970 F   0  0  0  0  0  0  0  0  0  0  0  0
  146.9714  133.9829  162.5374 C   0  0  0  0  0  0  0  0  0  0  0  0
  146.7752  135.2976  162.7571 C   0  0  0  0  0  0  0  0  0  0  0  0
  147.2620  136.3124  161.8203 C   0  0  0  0  0  0  0  0  0  0  0  0
  147.1069  137.5170  162.0212 O   0  0  0  0  0  0  0  0  0  0  0  0
  145.5073  138.6809  155.3568 H   0  0  0  0  0  0  0  0  0  0  0  0
  145.5230  137.4274  156.5867 H   0  0  0  0  0  0  0  0  0  0  0  0
  146.8061  137.4905  155.3805 H   0  0  0  0  0  0  0  0  0  0  0  0
  146.2806  139.6083  157.5305 H   0  0  0  0  0  0  0  0  0  0  0  0
  147.4194  140.1697  155.1342 H   0  0  0  0  0  0  0  0  0  0  0  0
  147.8532  140.9483  156.6214 H   0  0  0  0  0  0  0  0  0  0  0  0
  148.9931  138.2185  154.3887 H   0  0  0  0  0  0  0  0  0  0  0  0
  149.3209  139.8622  153.8815 H   0  0  0  0  0  0  0  0  0  0  0  0
  151.3257  137.8874  155.1020 H   0  0  0  0  0  0  0  0  0  0  0  0
  151.2836  138.4447  153.4389 H   0  0  0  0  0  0  0  0  0  0  0  0
  151.9165  139.5410  156.8539 H   0  0  0  0  0  0  0  0  0  0  0  0
  152.2761  141.1786  156.3356 H   0  0  0  0  0  0  0  0  0  0  0  0
  149.9390  141.5468  155.6387 H   0  0  0  0  0  0  0  0  0  0  0  0
  149.9756  141.0310  157.3097 H   0  0  0  0  0  0  0  0  0  0  0  0
  148.8126  138.2418  157.6296 H   0  0  0  0  0  0  0  0  0  0  0  0
  149.1405  136.2230  159.0386 H   0  0  0  0  0  0  0  0  0  0  0  0
  149.0672  137.5204  160.1795 H   0  0  0  0  0  0  0  0  0  0  0  0
  148.6145  134.2116  159.5799 H   0  0  0  0  0  0  0  0  0  0  0  0
  146.5978  133.2703  163.2580 H   0  0  0  0  0  0  0  0  0  0  0  0
  146.2484  135.6132  163.6458 H   0  0  0  0  0  0  0  0  0  0  0  0
  1  2  1  0  0  0  0
  1 25  1  0  0  0  0
  1 26  1  0  0  0  0
  1 27  1  0  0  0  0
  2  3  1  0  0  0  0
  2 10  1  0  0  0  0
  2 28  1  0  0  0  0
  3  4  1  0  0  0  0
  3 29  1  0  0  0  0
  3 30  1  0  0  0  0
  4  9  1  0  0  0  0
  4  5  1  0  0  0  0
  5  6  1  0  0  0  0
  5 31  1  0  0  0  0
  5 32  1  0  0  0  0
  6  7  1  0  0  0  0
  6 33  1  0  0  0  0
  6 34  1  0  0  0  0
  7  8  1  0  0  0  0
  8  9  1  0  0  0  0
  8 35  1  0  0  0  0
  8 36  1  0  0  0  0
  9 37  1  0  0  0  0
  9 38  1  0  0  0  0
 10 11  1  0  0  0  0
 10 39  1  0  0  0  0
 11 12  2  0  0  0  0
 11 13  1  0  0  0  0
 13 14  1  0  0  0  0
 13 40  1  0  0  0  0
 13 41  1  0  0  0  0
 14 23  1  0  0  0  0
 14 15  1  0  0  0  0
 15 16  2  0  0  0  0
 15 42  1  0  0  0  0
 16 17  1  0  0  0  0
 16 21  1  0  0  0  0
 17 18  1  0  0  0  0
 17 19  1  0  0  0  0
 17 20  1  0  0  0  0
 21 22  2  0  0  0  0
 21 43  1  0  0  0  0
 22 23  1  0  0  0  0
 22 44  1  0  0  0  0
 23 24  2  0  0  0  0
M  END
> <s_m_source_file>
AV-unprocessed.smi

> <i_m_source_file_index>
1578

> <i_lp_mmshare_version>
43012

> <i_f3d_flags>
0

> <s_epik_input>
W0NIMl0xW0NIMl1PW0NIMl1bQ0gyXU4xW0NIMl1bQ0BASF0oW0NIM10pW05IXUMoPU8pW0NIMl1uMltjSF1jKEMoRikoRilGKVtjSF1bY0hdYzI9Tw==

> <s_epik_cmdline>
J2VwaWtfcHl0aG9uJywgJy1waCcsICc3LjAnLCAnLXRuJywgJzgnLCAnLW1hJywgJzIwMCcsICctbWV0YWxfYmluZGluZycsICctaW1hZScsICc8aW5maWxlLm1hZT4nLCAnLW9tYWUnLCAnPG91dGZpbGUubWFlPic=

> <r_lp_tautomer_probability>
1

> <r_epik_Ionization_Penalty>
0.237382

> <r_epik_Ionization_Penalty_Charging>
1.80451e-08

> <r_epik_Ionization_Penalty_Neutral>
0.237382

> <r_epik_State_Penalty>
0.228245

> <r_epik_Charging_Adjusted_Penalty>
0.228245

> <i_epik_Tot_Q>
0

> <i_epik_Tot_abs_Q>
0

> <r_epik_Metal_State_Penalty>
0.228219

> <b_epik_Metal_Only>
0

> <s_lp_Force_Field>
OPLS_2005

> <r_lp_Energy>
37.3685

> <b_lp_Chiralities_Consistent>
1

> <s_lp_Variant>
AV-unprocessed.smi:1578-1

> <Gold.Version>
5.8.1

> <Gold.Id.Protein>
6NUR|6NUR_protein|mol2

> <Gold.PLP.Fitness>
41.6807

> <Gold.PLP.PLP>
-39.0261

> <Gold.PLP.part.hbond>
-3.0000

> <Gold.PLP.part.metal>
0.0000

> <Gold.PLP.part.buried>
-4.3701

> <Gold.PLP.part.nonpolar>
-31.8527

> <Gold.PLP.part.repulsive>
0.1590

> <Gold.PLP.ligand.clash>
1.3830

> <Gold.PLP.ligand.torsion>
1.6128

> <Gold.PLP.Chemscore.Hbond>
2.3920

> <Gold.PLP.Chemscore.CHOScore>
0.0000

> <Gold.PLP.Chemscore.Metal>
0.0000

> <Gold.Chemscore.Hbonds>
donor molecule, donor type, donor heavy atom, donor atom, acceptor molecule, acceptor atom, score
      P1  H  6931  6943       L1    24  0.63
      P1  H  6934  6947       L1    24  0.70
      P1  H  7989  7998       L1     7  0.96

> <Gold.PLP.Chemscore.Internal.Correction>
0.0872

> <Gold.Rescore>
     Score         DG    S(hbond)    S(metal)    S(lipo)     H(rot)  DE(clash)    DE(int)     intcor
     13.68     -15.23       2.14        0.00      68.01       2.09       0.01       1.54       ----

> <Gold.Chemscore.Fitness>
13.6802

> <Gold.Chemscore.DG>
-15.2336

> <Gold.Chemscore.ZeroCoef>
-5.4800

> <Gold.Chemscore.Hbond>
2.1418

> <Gold.Chemscore.Metal>
0.0000

> <Gold.Chemscore.Lipo>
68.0065

> <Gold.Chemscore.Internal_Hbond>
0.0000

> <Gold.Chemscore.DEClash>
0.0110

> <Gold.Chemscore.DEInternal>
1.5424

> <Gold.Chemscore.Rot>
2.0924

> <Gold.Chemscore.Internal.Correction>
   9.000000E+99

> <Gold.Chemscore.Hbonds>
donor molecule, donor type, donor heavy atom, donor atom, acceptor molecule, acceptor atom, score
      P1  H  6931  6943       L1    24  0.27
      P1  H  6934  6947       L1    24  0.70
      P1  H  7989  7998       L1     7  0.31

> <Gold.Chemscore.Hbond.Weighted>
-7.1535

> <Gold.Chemscore.Metal.Weighted>
-0.0000

> <Gold.Chemscore.Lipo.Weighted>
-7.9568

> <Gold.Chemscore.Internal_Hbond.Weighted>
0.0000

> <Gold.Chemscore.DEClash.Weighted>
0.0110

> <Gold.Chemscore.DEInternal.Weighted>
1.5424

> <Gold.Chemscore.Rot.Weighted>
5.3566

> <Gold.Chemscore.Internal.Correction.Weighted>
   9.000000E+99

> <Gold.Protein.RotatedTorsions>
[ 6907 6896 6895 6894 ] final  -59.00 input  -60.11 | X-H torsion
[ 7974 7965 7964 7962 ] final -172.20 input  175.53 | X-H torsion
[ 8008 7997 7996 7995 ] final  -31.45 input   59.86 | X-H torsion
[ 10167 10162 10161 10158 ] final  120.39 input  -65.29 | X-H torsion
[ 10718 10713 10712 10709 ] final   10.36 input   66.30 | X-H torsion
[ 10763 10752 10751 10750 ] final  103.25 input  -60.55 | X-H torsion
[ 11005 11000 10999 10996 ] final  107.25 input  -57.11 | X-H torsion

> <Gold.Protein.ActiveResidues>
 VAL166  LYS551  ARG553  GLY616  TRP617  ASP618  TYR619  PRO620  LYS621  CYS622 
 ASP623  PHE694  ASN695  SER759  ASP760  ASP761  ALA762  ILE779  LEU786  VAL792 
 PHE793  MET794  SER795  GLU796  ALA797  LYS798  CYS799  TRP800  GLU811  SER814 

> <Gold.Protein.RotatedAtoms>
  150.7964  134.7026  159.6558 H   0  0  0  0  0  0  0  0  0  0  0  0  # atno 6907 bound_to 6896
  152.4076  134.6176  160.0052 H   0  0  0  0  0  0  0  0  0  0  0  0  # atno 6908 bound_to 6896
  151.6429  133.3288  159.3170 H   0  0  0  0  0  0  0  0  0  0  0  0  # atno 6909 bound_to 6896
  144.7149  140.1808  143.6358 H   0  0  0  0  0  0  0  0  0  0  0  0  # atno 7974 bound_to 7965
  154.4213  140.1764  156.1569 H   0  0  0  0  0  0  0  0  0  0  0  0  # atno 8008 bound_to 7997
  155.9870  140.3372  155.6692 H   0  0  0  0  0  0  0  0  0  0  0  0  # atno 8009 bound_to 7997
  155.6424  140.0681  157.2605 H   0  0  0  0  0  0  0  0  0  0  0  0  # atno 8010 bound_to 7997
  139.5985  144.7049  151.3119 H   0  0  0  0  0  0  0  0  0  0  0  0  # atno 10167 bound_to 10162
  156.9799  130.6001  149.5676 H   0  0  0  0  0  0  0  0  0  0  0  0  # atno 10718 bound_to 10713
  153.3502  135.3983  155.1640 H   0  0  0  0  0  0  0  0  0  0  0  0  # atno 10763 bound_to 10752
  154.8661  135.3654  154.5232 H   0  0  0  0  0  0  0  0  0  0  0  0  # atno 10764 bound_to 10752
  153.5683  135.7079  153.5576 H   0  0  0  0  0  0  0  0  0  0  0  0  # atno 10765 bound_to 10752
  139.8825  134.9395  156.5791 H   0  0  0  0  0  0  0  0  0  0  0  0  # atno 11005 bound_to 11000
  145.8858  139.2348  143.1578 LP  0  0  0  0  0  0  0  0  0  0  0  0  # atno 17320 bound_to 7965
  145.9951  140.8569  143.0047 LP  0  0  0  0  0  0  0  0  0  0  0  0  # atno 17321 bound_to 7965
  140.7231  143.7080  150.7791 LP  0  0  0  0  0  0  0  0  0  0  0  0  # atno 17342 bound_to 10162
  140.0652  143.5115  152.2608 LP  0  0  0  0  0  0  0  0  0  0  0  0  # atno 17343 bound_to 10162
  156.0249  130.5343  150.8378 LP  0  0  0  0  0  0  0  0  0  0  0  0  # atno 17370 bound_to 10713
  157.5534  131.0944  150.9664 LP  0  0  0  0  0  0  0  0  0  0  0  0  # atno 17371 bound_to 10713
  140.8041  133.8482  155.8752 LP  0  0  0  0  0  0  0  0  0  0  0  0  # atno 17394 bound_to 11000
  140.9566  134.1710  157.4687 LP  0  0  0  0  0  0  0  0  0  0  0  0  # atno 17395 bound_to 11000

$$$$
