AV-unprocessed.smi:3252|AV-procd|sdf|12442|dock5
  -GOLD-   2272018333D 1   1.00000     0.00000
 Structure written by MMmdl.
 37 38  0  0  0  0  0  0  0  0  2 V2000
  153.7314  140.5886  160.6133 C   0  0  0  0  0  0  0  0  0  0  0  0
  154.0931  141.7923  159.7315 C   0  0  0  0  0  0  0  0  0  0  0  0
  152.9821  142.7694  159.6150 N   0  3  2  0  0  0  0  0  0  0  0  0
  152.6179  143.3636  160.9230 C   0  0  0  0  0  0  0  0  0  0  0  0
  151.4949  144.3988  160.7515 C   0  0  0  0  0  0  0  0  0  0  0  0
  150.3761  143.7838  160.1268 O   0  0  0  0  0  0  0  0  0  0  0  0
  150.6833  143.3014  158.8225 C   0  0  2  0  0  0  0  0  0  0  0  0
  149.3955  142.7389  158.2052 C   0  0  0  0  0  0  0  0  0  0  0  0
  149.5416  142.5079  156.7747 N   0  0  0  0  0  0  0  0  0  0  0  0
  149.9733  141.2655  156.2914 C   0  0  0  0  0  0  0  0  0  0  0  0
  150.2687  140.2448  157.2196 C   0  0  0  0  0  0  0  0  0  0  0  0
  150.6986  138.9923  156.7388 C   0  0  0  0  0  0  0  0  0  0  0  0
  150.8173  138.8047  155.3476 C   0  0  0  0  0  0  0  0  0  0  0  0
  151.2536  137.5307  154.8022 C   0  0  0  0  0  0  0  0  0  0  0  0
  151.6006  136.5161  154.3677 N   0  0  0  0  0  0  0  0  0  0  0  0
  150.5007  139.8843  154.4982 C   0  0  0  0  0  0  0  0  0  0  0  0
  150.0876  141.0871  154.9535 N   0  0  0  0  0  0  0  0  0  0  0  0
  151.7773  142.2221  158.9430 C   0  0  0  0  0  0  0  0  0  0  0  0
  154.5330  139.8499  160.5985 H   0  0  0  0  0  0  0  0  0  0  0  0
  152.8251  140.0973  160.2583 H   0  0  0  0  0  0  0  0  0  0  0  0
  153.5762  140.8740  161.6535 H   0  0  0  0  0  0  0  0  0  0  0  0
  154.9904  142.2877  160.1052 H   0  0  0  0  0  0  0  0  0  0  0  0
  154.3389  141.4154  158.7376 H   0  0  0  0  0  0  0  0  0  0  0  0
  152.2976  142.5753  161.6062 H   0  0  0  0  0  0  0  0  0  0  0  0
  153.4900  143.8418  161.3705 H   0  0  0  0  0  0  0  0  0  0  0  0
  151.1879  144.7851  161.7235 H   0  0  0  0  0  0  0  0  0  0  0  0
  151.8348  145.2519  160.1626 H   0  0  0  0  0  0  0  0  0  0  0  0
  151.0501  144.1214  158.2016 H   0  0  0  0  0  0  0  0  0  0  0  0
  149.1463  141.7906  158.6832 H   0  0  0  0  0  0  0  0  0  0  0  0
  148.5624  143.4197  158.3858 H   0  0  0  0  0  0  0  0  0  0  0  0
  149.2089  143.2086  156.1282 H   0  0  0  0  0  0  0  0  0  0  0  0
  150.1686  140.4136  158.2821 H   0  0  0  0  0  0  0  0  0  0  0  0
  150.9307  138.1945  157.4298 H   0  0  0  0  0  0  0  0  0  0  0  0
  150.5779  139.7860  153.4250 H   0  0  0  0  0  0  0  0  0  0  0  0
  152.0341  141.8606  157.9477 H   0  0  0  0  0  0  0  0  0  0  0  0
  151.4020  141.3661  159.5068 H   0  0  0  0  0  0  0  0  0  0  0  0
  153.3223  143.5287  159.0422 H   0  0  0  0  0  0  0  0  0  0  0  0
  1  2  1  0  0  0  0
  1 19  1  0  0  0  0
  1 20  1  0  0  0  0
  1 21  1  0  0  0  0
  2  3  1  0  0  0  0
  2 22  1  0  0  0  0
  2 23  1  0  0  0  0
  3 18  1  0  0  0  0
  3  4  1  0  0  0  0
  3 37  1  0  0  0  0
  4  5  1  0  0  0  0
  4 24  1  0  0  0  0
  4 25  1  0  0  0  0
  5  6  1  0  0  0  0
  5 26  1  0  0  0  0
  5 27  1  0  0  0  0
  6  7  1  0  0  0  0
  7  8  1  0  0  0  0
  7 18  1  0  0  0  0
  7 28  1  0  0  0  0
  8  9  1  0  0  0  0
  8 29  1  0  0  0  0
  8 30  1  0  0  0  0
  9 10  1  0  0  0  0
  9 31  1  0  0  0  0
 10 17  1  0  0  0  0
 10 11  2  0  0  0  0
 11 12  1  0  0  0  0
 11 32  1  0  0  0  0
 12 13  2  0  0  0  0
 12 33  1  0  0  0  0
 13 14  1  0  0  0  0
 13 16  1  0  0  0  0
 14 15  3  0  0  0  0
 16 17  2  0  0  0  0
 16 34  1  0  0  0  0
 18 35  1  0  0  0  0
 18 36  1  0  0  0  0
M  CHG  1   3   1
M  END
> <s_m_source_file>
AV-unprocessed.smi

> <i_m_source_file_index>
3252

> <i_lp_mmshare_version>
43012

> <i_f3d_flags>
0

> <s_epik_input>
W0NIM11bQ0gyXU4xW0NIMl1bQ0gyXU9bQ0BIXShbQ0gyXTEpW0NIMl1bTkhdYzJbY0hdW2NIXWMoQyNOKVtjSF1uMg==

> <s_epik_cmdline>
J2VwaWtfcHl0aG9uJywgJy1waCcsICc3LjAnLCAnLXRuJywgJzgnLCAnLW1hJywgJzIwMCcsICctbWV0YWxfYmluZGluZycsICctaW1hZScsICc8aW5maWxlLm1hZT4nLCAnLW9tYWUnLCAnPG91dGZpbGUubWFlPic=

> <r_epik_Ionization_Penalty>
0.178512

> <r_epik_Ionization_Penalty_Charging>
0.178504

> <r_epik_Ionization_Penalty_Neutral>
8.15545e-06

> <r_epik_State_Penalty>
0.167974

> <r_epik_Charging_Adjusted_Penalty>
0.346478

> <i_epik_Tot_Q>
1

> <i_epik_Tot_abs_Q>
1

> <r_epik_Metal_State_Penalty>
0.167974

> <b_epik_Metal_Only>
0

> <s_lp_Force_Field>
OPLS_2005

> <r_lp_Energy>
17.709

> <b_lp_Chiralities_Consistent>
1

> <s_lp_Variant>
AV-unprocessed.smi:3252-4

> <Gold.Version>
5.8.1

> <Gold.Id.Protein>
6NUR|6NUR_protein|mol2

> <Gold.PLP.Fitness>
40.4432

> <Gold.PLP.PLP>
-31.9959

> <Gold.PLP.part.hbond>
-4.0000

> <Gold.PLP.part.metal>
0.0000

> <Gold.PLP.part.buried>
-3.0074

> <Gold.PLP.part.nonpolar>
-25.8533

> <Gold.PLP.part.repulsive>
1.2691

> <Gold.PLP.ligand.clash>
0.0000

> <Gold.PLP.ligand.torsion>
0.2819

> <Gold.PLP.Chemscore.Hbond>
2.0000

> <Gold.PLP.Chemscore.CHOScore>
1.0000

> <Gold.PLP.Chemscore.Metal>
0.0000

> <Gold.Chemscore.Hbonds>
donor molecule, donor type, donor heavy atom, donor atom, acceptor molecule, acceptor atom, score
      L1  H     9    31       P1  8028  1.00
      P1  H 10752 10764       L1    15  1.00
      L1  C    16    34       P1  7957  1.00

> <Gold.PLP.Chemscore.Internal.Correction>
0.0112

> <Gold.Rescore>
     Score         DG    S(hbond)    S(metal)    S(lipo)     H(rot)  DE(clash)    DE(int)     intcor
     17.96     -18.19       1.98        0.00      84.22       1.47       0.00       0.23       ----

> <Gold.Chemscore.Fitness>
17.9557

> <Gold.Chemscore.DG>
-18.1890

> <Gold.Chemscore.ZeroCoef>
-5.4800

> <Gold.Chemscore.Hbond>
1.9802

> <Gold.Chemscore.Metal>
0.0000

> <Gold.Chemscore.Lipo>
84.2178

> <Gold.Chemscore.Internal_Hbond>
0.0000

> <Gold.Chemscore.DEClash>
0.0004

> <Gold.Chemscore.DEInternal>
0.2329

> <Gold.Chemscore.Rot>
1.4681

> <Gold.Chemscore.Internal.Correction>
   9.000000E+99

> <Gold.Chemscore.Hbonds>
donor molecule, donor type, donor heavy atom, donor atom, acceptor molecule, acceptor atom, score
      L1  H     9    31       P1  8028  0.97
      P1  H 10752 10764       L1    15  0.98

> <Gold.Chemscore.Hbond.Weighted>
-6.6140

> <Gold.Chemscore.Metal.Weighted>
-0.0000

> <Gold.Chemscore.Lipo.Weighted>
-9.8535

> <Gold.Chemscore.Internal_Hbond.Weighted>
0.0000

> <Gold.Chemscore.DEClash.Weighted>
0.0004

> <Gold.Chemscore.DEInternal.Weighted>
0.2329

> <Gold.Chemscore.Rot.Weighted>
3.7584

> <Gold.Chemscore.Internal.Correction.Weighted>
   9.000000E+99

> <Gold.Protein.RotatedTorsions>
[ 6907 6896 6895 6894 ] final -124.51 input  -60.11 | X-H torsion
[ 7974 7965 7964 7962 ] final  -44.17 input  175.53 | X-H torsion
[ 8008 7997 7996 7995 ] final  128.12 input   59.86 | X-H torsion
[ 10167 10162 10161 10158 ] final   33.89 input  -65.29 | X-H torsion
[ 10718 10713 10712 10709 ] final -110.46 input   66.30 | X-H torsion
[ 10763 10752 10751 10750 ] final  -72.78 input  -60.55 | X-H torsion
[ 11005 11000 10999 10996 ] final   82.04 input  -57.11 | X-H torsion

> <Gold.Protein.ActiveResidues>
 VAL166  LYS551  ARG553  GLY616  TRP617  ASP618  TYR619  PRO620  LYS621  CYS622 
 ASP623  PHE694  ASN695  SER759  ASP760  ASP761  ALA762  ILE779  LEU786  VAL792 
 PHE793  MET794  SER795  GLU796  ALA797  LYS798  CYS799  TRP800  GLU811  SER814 

> <Gold.Protein.RotatedAtoms>
  150.8775  133.7419  159.2942 H   0  0  0  0  0  0  0  0  0  0  0  0  # atno 6907 bound_to 6896
  151.5011  135.1060  159.9838 H   0  0  0  0  0  0  0  0  0  0  0  0  # atno 6908 bound_to 6896
  152.4737  133.8043  159.7025 H   0  0  0  0  0  0  0  0  0  0  0  0  # atno 6909 bound_to 6896
  145.9947  140.7142  142.9300 H   0  0  0  0  0  0  0  0  0  0  0  0  # atno 7974 bound_to 7965
  156.2907  140.2652  156.2383 H   0  0  0  0  0  0  0  0  0  0  0  0  # atno 8008 bound_to 7997
  155.0002  140.0388  157.2375 H   0  0  0  0  0  0  0  0  0  0  0  0  # atno 8009 bound_to 7997
  154.7608  140.2760  155.6221 H   0  0  0  0  0  0  0  0  0  0  0  0  # atno 8010 bound_to 7997
  140.4365  144.1249  150.6167 H   0  0  0  0  0  0  0  0  0  0  0  0  # atno 10167 bound_to 10162
  156.0592  130.5816  150.8240 H   0  0  0  0  0  0  0  0  0  0  0  0  # atno 10718 bound_to 10713
  154.4504  135.5919  153.6188 H   0  0  0  0  0  0  0  0  0  0  0  0  # atno 10763 bound_to 10752
  152.9813  135.6019  154.3612 H   0  0  0  0  0  0  0  0  0  0  0  0  # atno 10764 bound_to 10752
  154.3472  135.2841  155.2370 H   0  0  0  0  0  0  0  0  0  0  0  0  # atno 10765 bound_to 10752
  139.9077  134.8041  156.2121 H   0  0  0  0  0  0  0  0  0  0  0  0  # atno 11005 bound_to 11000
  144.6900  140.3130  143.7245 LP  0  0  0  0  0  0  0  0  0  0  0  0  # atno 17320 bound_to 7965
  145.7578  139.1814  143.2285 LP  0  0  0  0  0  0  0  0  0  0  0  0  # atno 17321 bound_to 7965
  140.4367  143.2544  151.9526 LP  0  0  0  0  0  0  0  0  0  0  0  0  # atno 17342 bound_to 10162
  139.4787  144.5693  151.8114 LP  0  0  0  0  0  0  0  0  0  0  0  0  # atno 17343 bound_to 10162
  157.5587  131.0945  150.9590 LP  0  0  0  0  0  0  0  0  0  0  0  0  # atno 17370 bound_to 10713
  156.9833  130.5535  149.5298 LP  0  0  0  0  0  0  0  0  0  0  0  0  # atno 17371 bound_to 10713
  141.0459  133.6914  156.1682 LP  0  0  0  0  0  0  0  0  0  0  0  0  # atno 17394 bound_to 11000
  140.6885  134.4691  157.5589 LP  0  0  0  0  0  0  0  0  0  0  0  0  # atno 17395 bound_to 11000

$$$$
