AV-unprocessed.smi:1554|AV-procd|sdf|6242|dock2
  -GOLD-   22720 6423D 1   1.00000     0.00000
 Structure written by MMmdl.
 47 49  0  0  0  0  0  0  0  0  1 V2000
  152.7943  143.1891  161.4067 C   0  0  0  0  0  0  0  0  0  0  0  0
  152.2317  142.7783  160.0572 C   0  0  0  0  0  0  0  0  0  0  0  0
  152.6825  141.5790  159.4609 C   0  0  0  0  0  0  0  0  0  0  0  0
  152.1877  141.1636  158.2053 C   0  0  0  0  0  0  0  0  0  0  0  0
  152.4855  140.0438  157.4477 N   0  0  0  0  0  0  0  0  0  0  0  0
  151.7083  140.2256  156.3840 C   0  0  0  0  0  0  0  0  0  0  0  0
  150.9404  141.3316  156.3629 N   0  0  0  0  0  0  0  0  0  0  0  0
  150.0267  141.7385  155.3102 C   0  0  0  0  0  0  0  0  0  0  0  0
  149.2215  140.5533  154.7389 C   0  0  2  0  0  0  0  0  0  0  0  0
  150.0537  139.7805  153.8967 O   0  0  0  0  0  0  0  0  0  0  0  0
  148.0058  141.0058  153.9056 C   0  0  0  0  0  0  0  0  0  0  0  0
  147.0711  141.9036  154.5851 N   0  0  0  0  0  0  0  0  0  0  0  0
  145.9884  141.1873  155.2564 C   0  0  0  0  0  0  0  0  0  0  0  0
  144.9969  142.1489  155.9334 C   0  0  0  0  0  0  0  0  0  0  0  0
  144.4854  143.0655  154.9717 O   0  0  0  0  0  0  0  0  0  0  0  0
  145.5066  143.8248  154.3311 C   0  0  2  0  0  0  0  0  0  0  0  0
  144.8423  144.7791  153.3333 C   0  0  0  0  0  0  0  0  0  0  0  0
  146.4938  142.8597  153.6461 C   0  0  0  0  0  0  0  0  0  0  0  0
  151.2218  141.9876  157.5567 C   0  0  0  0  0  0  0  0  0  0  0  0
  150.7638  143.1819  158.1411 C   0  0  0  0  0  0  0  0  0  0  0  0
  151.2680  143.5817  159.3964 C   0  0  0  0  0  0  0  0  0  0  0  0
  150.7673  144.8732  160.0184 C   0  0  0  0  0  0  0  0  0  0  0  0
  153.5492  142.4834  161.7554 H   0  0  0  0  0  0  0  0  0  0  0  0
  152.0018  143.2295  162.1544 H   0  0  0  0  0  0  0  0  0  0  0  0
  153.2616  144.1721  161.3428 H   0  0  0  0  0  0  0  0  0  0  0  0
  153.4167  140.9669  159.9639 H   0  0  0  0  0  0  0  0  0  0  0  0
  151.6978  139.5151  155.5702 H   0  0  0  0  0  0  0  0  0  0  0  0
  149.3521  142.4905  155.7214 H   0  0  0  0  0  0  0  0  0  0  0  0
  150.5966  142.2317  154.5216 H   0  0  0  0  0  0  0  0  0  0  0  0
  148.9040  139.8989  155.5503 H   0  0  0  0  0  0  0  0  0  0  0  0
  149.6586  139.7391  153.0394 H   0  0  0  0  0  0  0  0  0  0  0  0
  148.3821  141.5004  153.0087 H   0  0  0  0  0  0  0  0  0  0  0  0
  147.4640  140.1264  153.5530 H   0  0  0  0  0  0  0  0  0  0  0  0
  145.4535  140.5653  154.5369 H   0  0  0  0  0  0  0  0  0  0  0  0
  146.3891  140.5154  156.0145 H   0  0  0  0  0  0  0  0  0  0  0  0
  144.1679  141.5930  156.3712 H   0  0  0  0  0  0  0  0  0  0  0  0
  145.4808  142.6953  156.7444 H   0  0  0  0  0  0  0  0  0  0  0  0
  146.0337  144.4141  155.0833 H   0  0  0  0  0  0  0  0  0  0  0  0
  145.5849  145.3941  152.8243 H   0  0  0  0  0  0  0  0  0  0  0  0
  144.1464  145.4485  153.8392 H   0  0  0  0  0  0  0  0  0  0  0  0
  144.2842  144.2301  152.5743 H   0  0  0  0  0  0  0  0  0  0  0  0
  147.2896  143.4365  153.1730 H   0  0  0  0  0  0  0  0  0  0  0  0
  145.9804  142.3247  152.8453 H   0  0  0  0  0  0  0  0  0  0  0  0
  150.0326  143.7863  157.6254 H   0  0  0  0  0  0  0  0  0  0  0  0
  150.0192  145.3549  159.3881 H   0  0  0  0  0  0  0  0  0  0  0  0
  151.5902  145.5749  160.1570 H   0  0  0  0  0  0  0  0  0  0  0  0
  150.3109  144.6777  160.9890 H   0  0  0  0  0  0  0  0  0  0  0  0
  1  2  1  0  0  0  0
  1 23  1  0  0  0  0
  1 24  1  0  0  0  0
  1 25  1  0  0  0  0
  2 21  1  0  0  0  0
  2  3  2  0  0  0  0
  3  4  1  0  0  0  0
  3 26  1  0  0  0  0
  4 19  2  0  0  0  0
  4  5  1  0  0  0  0
  5  6  2  0  0  0  0
  6  7  1  0  0  0  0
  6 27  1  0  0  0  0
  7  8  1  0  0  0  0
  7 19  1  0  0  0  0
  8  9  1  0  0  0  0
  8 28  1  0  0  0  0
  8 29  1  0  0  0  0
  9 10  1  0  0  0  0
  9 11  1  0  0  0  0
  9 30  1  0  0  0  0
 10 31  1  0  0  0  0
 11 12  1  0  0  0  0
 11 32  1  0  0  0  0
 11 33  1  0  0  0  0
 12 18  1  0  0  0  0
 12 13  1  0  0  0  0
 13 14  1  0  0  0  0
 13 34  1  0  0  0  0
 13 35  1  0  0  0  0
 14 15  1  0  0  0  0
 14 36  1  0  0  0  0
 14 37  1  0  0  0  0
 15 16  1  0  0  0  0
 16 17  1  0  0  0  0
 16 18  1  0  0  0  0
 16 38  1  0  0  0  0
 17 39  1  0  0  0  0
 17 40  1  0  0  0  0
 17 41  1  0  0  0  0
 18 42  1  0  0  0  0
 18 43  1  0  0  0  0
 19 20  1  0  0  0  0
 20 21  2  0  0  0  0
 20 44  1  0  0  0  0
 21 22  1  0  0  0  0
 22 45  1  0  0  0  0
 22 46  1  0  0  0  0
 22 47  1  0  0  0  0
M  END
> <s_m_source_file>
AV-unprocessed.smi

> <i_m_source_file_index>
1554

> <i_lp_mmshare_version>
43012

> <i_f3d_flags>
0

> <s_epik_input>
W0NIM11jKFtjSF0xKWMoW0NIM10pW2NIXWMoYzEyKW4oW2NIXW4yKVtDSDJdW0NASF0oW09IXSlbQ0gyXU4zW0NIMl1bQ0gyXU9bQ0BASF0oW0NIM10pW0NIMl0z

> <s_epik_cmdline>
J2VwaWtfcHl0aG9uJywgJy1waCcsICc3LjAnLCAnLXRuJywgJzgnLCAnLW1hJywgJzIwMCcsICctbWV0YWxfYmluZGluZycsICctaW1hZScsICc8aW5maWxlLm1hZT4nLCAnLW9tYWUnLCAnPG91dGZpbGUubWFlPic=

> <r_epik_Ionization_Penalty>
0.345108

> <r_epik_Ionization_Penalty_Charging>
0

> <r_epik_Ionization_Penalty_Neutral>
0.345108

> <r_epik_State_Penalty>
0.314544

> <r_epik_Charging_Adjusted_Penalty>
0.314544

> <i_epik_Tot_Q>
0

> <i_epik_Tot_abs_Q>
0

> <r_epik_Metal_State_Penalty>
0.239719

> <b_epik_Metal_Only>
0

> <s_lp_Force_Field>
OPLS_2005

> <r_lp_Energy>
27.3157

> <b_lp_Chiralities_Consistent>
1

> <s_lp_Variant>
AV-unprocessed.smi:1554-3

> <Gold.Version>
5.8.1

> <Gold.Id.Protein>
6NUR|6NUR_protein|mol2

> <Gold.PLP.Fitness>
55.8192

> <Gold.PLP.PLP>
-48.6981

> <Gold.PLP.part.hbond>
-3.0000

> <Gold.PLP.part.metal>
0.0000

> <Gold.PLP.part.buried>
-7.1413

> <Gold.PLP.part.nonpolar>
-38.7096

> <Gold.PLP.part.repulsive>
0.3031

> <Gold.PLP.ligand.clash>
0.0000

> <Gold.PLP.ligand.torsion>
0.8198

> <Gold.PLP.Chemscore.Hbond>
2.8960

> <Gold.PLP.Chemscore.CHOScore>
0.0000

> <Gold.PLP.Chemscore.Metal>
0.0000

> <Gold.Chemscore.Hbonds>
donor molecule, donor type, donor heavy atom, donor atom, acceptor molecule, acceptor atom, score
      L1  H    10    31       P1  7957  1.00
      P1  H  7989  7998       L1    10  0.88
      P1  H  7997  8008       L1     5  0.91

> <Gold.PLP.Chemscore.Internal.Correction>
0.0728

> <Gold.Rescore>
     Score         DG    S(hbond)    S(metal)    S(lipo)     H(rot)  DE(clash)    DE(int)     intcor
     19.47     -21.50       2.07        0.00     121.10       1.98       0.40       1.63       ----

> <Gold.Chemscore.Fitness>
19.4702

> <Gold.Chemscore.DG>
-21.4966

> <Gold.Chemscore.ZeroCoef>
-5.4800

> <Gold.Chemscore.Hbond>
2.0744

> <Gold.Chemscore.Metal>
0.0000

> <Gold.Chemscore.Lipo>
121.1028

> <Gold.Chemscore.Internal_Hbond>
0.0000

> <Gold.Chemscore.DEClash>
0.3991

> <Gold.Chemscore.DEInternal>
1.6273

> <Gold.Chemscore.Rot>
1.9848

> <Gold.Chemscore.Internal.Correction>
   9.000000E+99

> <Gold.Chemscore.Hbonds>
donor molecule, donor type, donor heavy atom, donor atom, acceptor molecule, acceptor atom, score
      L1  H    10    31       P1  7957  0.97
      P1  H  7989  7998       L1    10  0.12
      P1  H  7997  8008       L1     5  0.22

> <Gold.Chemscore.Hbond.Weighted>
-6.9286

> <Gold.Chemscore.Metal.Weighted>
-0.0000

> <Gold.Chemscore.Lipo.Weighted>
-14.1690

> <Gold.Chemscore.Internal_Hbond.Weighted>
0.0000

> <Gold.Chemscore.DEClash.Weighted>
0.3991

> <Gold.Chemscore.DEInternal.Weighted>
1.6273

> <Gold.Chemscore.Rot.Weighted>
5.0810

> <Gold.Chemscore.Internal.Correction.Weighted>
   9.000000E+99

> <Gold.Protein.RotatedTorsions>
[ 6907 6896 6895 6894 ] final  -47.96 input  -60.11 | X-H torsion
[ 7974 7965 7964 7962 ] final  -69.39 input  175.53 | X-H torsion
[ 8008 7997 7996 7995 ] final  -55.32 input   59.86 | X-H torsion
[ 10167 10162 10161 10158 ] final  166.28 input  -65.29 | X-H torsion
[ 10718 10713 10712 10709 ] final -161.06 input   66.30 | X-H torsion
[ 10763 10752 10751 10750 ] final   44.07 input  -60.55 | X-H torsion
[ 11005 11000 10999 10996 ] final  108.44 input  -57.11 | X-H torsion

> <Gold.Protein.ActiveResidues>
 VAL166  LYS551  ARG553  GLY616  TRP617  ASP618  TYR619  PRO620  LYS621  CYS622 
 ASP623  PHE694  ASN695  SER759  ASP760  ASP761  ALA762  ILE779  LEU786  VAL792 
 PHE793  MET794  SER795  GLU796  ALA797  LYS798  CYS799  TRP800  GLU811  SER814 

> <Gold.Protein.RotatedAtoms>
  150.8954  134.8362  159.7322 H   0  0  0  0  0  0  0  0  0  0  0  0  # atno 6907 bound_to 6896
  152.4862  134.4584  159.9607 H   0  0  0  0  0  0  0  0  0  0  0  0  # atno 6908 bound_to 6896
  151.4642  133.3546  159.2849 H   0  0  0  0  0  0  0  0  0  0  0  0  # atno 6909 bound_to 6896
  145.7044  140.9103  143.0714 H   0  0  0  0  0  0  0  0  0  0  0  0  # atno 7974 bound_to 7965
  154.4191  140.1155  156.5458 H   0  0  0  0  0  0  0  0  0  0  0  0  # atno 8008 bound_to 7997
  155.6461  140.3496  155.4713 H   0  0  0  0  0  0  0  0  0  0  0  0  # atno 8009 bound_to 7997
  155.9831  140.1164  157.0698 H   0  0  0  0  0  0  0  0  0  0  0  0  # atno 8010 bound_to 7997
  139.4921  144.4044  151.9372 H   0  0  0  0  0  0  0  0  0  0  0  0  # atno 10167 bound_to 10162
  156.5910  130.8770  151.2890 H   0  0  0  0  0  0  0  0  0  0  0  0  # atno 10718 bound_to 10713
  152.9848  135.6082  154.3214 H   0  0  0  0  0  0  0  0  0  0  0  0  # atno 10763 bound_to 10752
  154.2923  135.2774  155.2651 H   0  0  0  0  0  0  0  0  0  0  0  0  # atno 10764 bound_to 10752
  154.4940  135.5884  153.6537 H   0  0  0  0  0  0  0  0  0  0  0  0  # atno 10765 bound_to 10752
  139.8844  134.9430  156.5973 H   0  0  0  0  0  0  0  0  0  0  0  0  # atno 11005 bound_to 11000
  144.6959  139.8991  143.7457 LP  0  0  0  0  0  0  0  0  0  0  0  0  # atno 17320 bound_to 7965
  146.0769  139.3756  143.0489 LP  0  0  0  0  0  0  0  0  0  0  0  0  # atno 17321 bound_to 7965
  140.3484  144.3119  150.5954 LP  0  0  0  0  0  0  0  0  0  0  0  0  # atno 17342 bound_to 10162
  140.5506  143.2207  151.7933 LP  0  0  0  0  0  0  0  0  0  0  0  0  # atno 17343 bound_to 10162
  157.7304  130.9684  150.1829 LP  0  0  0  0  0  0  0  0  0  0  0  0  # atno 17370 bound_to 10713
  156.2550  130.3704  149.8191 LP  0  0  0  0  0  0  0  0  0  0  0  0  # atno 17371 bound_to 10713
  140.7910  133.8582  155.8646 LP  0  0  0  0  0  0  0  0  0  0  0  0  # atno 17394 bound_to 11000
  140.9677  134.1572  157.4602 LP  0  0  0  0  0  0  0  0  0  0  0  0  # atno 17395 bound_to 11000

$$$$
