AV-unprocessed.smi:1209|AV-procd|sdf|5075|dock3
  -GOLD-   22720 4123D 1   1.00000     0.00000
 Structure written by MMmdl.
 49 51  0  0  0  0  0  0  0  0  2 V2000
  142.7131  135.5072  152.5816 C   0  0  0  0  0  0  0  0  0  0  0  0
  143.8127  136.4040  153.0360 C   0  0  0  0  0  0  0  0  0  0  0  0
  144.7481  137.1446  152.3707 C   0  0  0  0  0  0  0  0  0  0  0  0
  145.4760  137.7821  153.4142 C   0  0  0  0  0  0  0  0  0  0  0  0
  146.6110  138.7631  153.3052 C   0  0  0  0  0  0  0  0  0  0  0  0
  146.2678  140.0947  153.8792 N   0  3  1  0  0  0  0  0  0  0  0  0
  145.8723  139.9892  155.3024 C   0  0  0  0  0  0  0  0  0  0  0  0
  147.3048  141.1454  153.6751 C   0  0  0  0  0  0  0  0  0  0  0  0
  148.6671  140.7845  154.2978 C   0  0  1  0  0  0  0  0  0  0  0  0
  149.6865  140.9593  153.3333 O   0  0  0  0  0  0  0  0  0  0  0  0
  148.9933  141.6341  155.5390 C   0  0  0  0  0  0  0  0  0  0  0  0
  150.1637  141.1312  156.2333 N   0  0  0  0  0  0  0  0  0  0  0  0
  150.8892  140.0355  155.9380 C   0  0  0  0  0  0  0  0  0  0  0  0
  151.9204  139.7582  156.7315 N   0  0  0  0  0  0  0  0  0  0  0  0
  151.8571  140.7954  157.6468 C   0  0  0  0  0  0  0  0  0  0  0  0
  152.6699  141.0875  158.7641 C   0  0  0  0  0  0  0  0  0  0  0  0
  152.4158  142.2208  159.5696 C   0  0  0  0  0  0  0  0  0  0  0  0
  153.3167  142.4961  160.7605 C   0  0  0  0  0  0  0  0  0  0  0  0
  151.3319  143.0827  159.2630 C   0  0  0  0  0  0  0  0  0  0  0  0
  151.0429  144.3117  160.1070 C   0  0  0  0  0  0  0  0  0  0  0  0
  150.5082  142.8033  158.1532 C   0  0  0  0  0  0  0  0  0  0  0  0
  150.7721  141.6732  157.3595 C   0  0  0  0  0  0  0  0  0  0  0  0
  145.0242  137.4360  154.6088 N   0  0  0  0  0  0  0  0  0  0  0  0
  143.9610  136.5572  154.3769 O   0  0  0  0  0  0  0  0  0  0  0  0
  142.4180  135.7411  151.5598 H   0  0  0  0  0  0  0  0  0  0  0  0
  141.8338  135.6165  153.2168 H   0  0  0  0  0  0  0  0  0  0  0  0
  143.0274  134.4640  152.6130 H   0  0  0  0  0  0  0  0  0  0  0  0
  144.8778  137.2302  151.3021 H   0  0  0  0  0  0  0  0  0  0  0  0
  147.4671  138.3447  153.8362 H   0  0  0  0  0  0  0  0  0  0  0  0
  146.9347  138.8711  152.2692 H   0  0  0  0  0  0  0  0  0  0  0  0
  146.7096  139.6543  155.9162 H   0  0  0  0  0  0  0  0  0  0  0  0
  145.0501  139.2834  155.4270 H   0  0  0  0  0  0  0  0  0  0  0  0
  145.5299  140.9521  155.6833 H   0  0  0  0  0  0  0  0  0  0  0  0
  147.4578  141.3135  152.6078 H   0  0  0  0  0  0  0  0  0  0  0  0
  146.9408  142.0936  154.0732 H   0  0  0  0  0  0  0  0  0  0  0  0
  148.6724  139.7432  154.6041 H   0  0  0  0  0  0  0  0  0  0  0  0
  149.5326  140.3633  152.6158 H   0  0  0  0  0  0  0  0  0  0  0  0
  149.1522  142.6797  155.2707 H   0  0  0  0  0  0  0  0  0  0  0  0
  148.1586  141.6134  156.2407 H   0  0  0  0  0  0  0  0  0  0  0  0
  150.6429  139.4021  155.0983 H   0  0  0  0  0  0  0  0  0  0  0  0
  153.4950  140.4309  158.9982 H   0  0  0  0  0  0  0  0  0  0  0  0
  152.7601  142.3810  161.6907 H   0  0  0  0  0  0  0  0  0  0  0  0
  153.7146  143.5102  160.7169 H   0  0  0  0  0  0  0  0  0  0  0  0
  154.1619  141.8077  160.7877 H   0  0  0  0  0  0  0  0  0  0  0  0
  150.0884  144.7632  159.8354 H   0  0  0  0  0  0  0  0  0  0  0  0
  151.8231  145.0596  159.9645 H   0  0  0  0  0  0  0  0  0  0  0  0
  150.9990  144.0563  161.1655 H   0  0  0  0  0  0  0  0  0  0  0  0
  149.6795  143.4507  157.9083 H   0  0  0  0  0  0  0  0  0  0  0  0
  145.4391  140.4098  153.3938 H   0  0  0  0  0  0  0  0  0  0  0  0
  1  2  1  0  0  0  0
  1 25  1  0  0  0  0
  1 26  1  0  0  0  0
  1 27  1  0  0  0  0
  2 24  1  0  0  0  0
  2  3  2  0  0  0  0
  3  4  1  0  0  0  0
  3 28  1  0  0  0  0
  4  5  1  0  0  0  0
  4 23  2  0  0  0  0
  5  6  1  0  0  0  0
  5 29  1  0  0  0  0
  5 30  1  0  0  0  0
  6  7  1  0  0  0  0
  6  8  1  0  0  0  0
  6 49  1  0  0  0  0
  7 31  1  0  0  0  0
  7 32  1  0  0  0  0
  7 33  1  0  0  0  0
  8  9  1  0  0  0  0
  8 34  1  0  0  0  0
  8 35  1  0  0  0  0
  9 10  1  0  0  0  0
  9 11  1  0  0  0  0
  9 36  1  0  0  0  0
 10 37  1  0  0  0  0
 11 12  1  0  0  0  0
 11 38  1  0  0  0  0
 11 39  1  0  0  0  0
 12 22  1  0  0  0  0
 12 13  1  0  0  0  0
 13 14  2  0  0  0  0
 13 40  1  0  0  0  0
 14 15  1  0  0  0  0
 15 22  2  0  0  0  0
 15 16  1  0  0  0  0
 16 17  2  0  0  0  0
 16 41  1  0  0  0  0
 17 18  1  0  0  0  0
 17 19  1  0  0  0  0
 18 42  1  0  0  0  0
 18 43  1  0  0  0  0
 18 44  1  0  0  0  0
 19 20  1  0  0  0  0
 19 21  2  0  0  0  0
 20 45  1  0  0  0  0
 20 46  1  0  0  0  0
 20 47  1  0  0  0  0
 21 22  1  0  0  0  0
 21 48  1  0  0  0  0
 23 24  1  0  0  0  0
M  CHG  1   6   1
M  END
> <s_m_source_file>
AV-unprocessed.smi

> <i_m_source_file_index>
1209

> <i_lp_mmshare_version>
43012

> <i_f3d_flags>
0

> <s_epik_input>
W0NIM11jMVtjSF1jKG5vMSlbQ0gyXU4oW0NIM10pW0NIMl1bQ0BIXShbT0hdKVtDSDJdbihbY0hdbjIpYyhjMjMpW2NIXWMoW0NIM10pYyhbY0hdMylbQ0gzXQ==

> <s_epik_cmdline>
J2VwaWtfcHl0aG9uJywgJy1waCcsICc3LjAnLCAnLXRuJywgJzgnLCAnLW1hJywgJzIwMCcsICctbWV0YWxfYmluZGluZycsICctaW1hZScsICc8aW5maWxlLm1hZT4nLCAnLW9tYWUnLCAnPG91dGZpbGUubWFlPic=

> <r_epik_Ionization_Penalty>
2.05249

> <r_epik_Ionization_Penalty_Charging>
1.96618

> <r_epik_Ionization_Penalty_Neutral>
0.0863156

> <r_epik_State_Penalty>
2.19215

> <r_epik_Charging_Adjusted_Penalty>
4.15833

> <i_epik_Tot_Q>
1

> <i_epik_Tot_abs_Q>
1

> <r_epik_Metal_State_Penalty>
2.17654

> <b_epik_Metal_Only>
0

> <s_lp_Force_Field>
OPLS_2005

> <r_lp_Energy>
8.33494

> <b_lp_Chiralities_Consistent>
1

> <s_lp_Variant>
AV-unprocessed.smi:1209-7

> <Gold.Version>
5.8.1

> <Gold.Id.Protein>
6NUR|6NUR_protein|mol2

> <Gold.PLP.Fitness>
53.4403

> <Gold.PLP.PLP>
-42.4307

> <Gold.PLP.part.hbond>
-3.1306

> <Gold.PLP.part.metal>
0.0000

> <Gold.PLP.part.buried>
-4.6814

> <Gold.PLP.part.nonpolar>
-34.9894

> <Gold.PLP.part.repulsive>
0.0892

> <Gold.PLP.ligand.clash>
0.0000

> <Gold.PLP.ligand.torsion>
0.7771

> <Gold.PLP.Chemscore.Hbond>
4.1040

> <Gold.PLP.Chemscore.CHOScore>
0.0000

> <Gold.PLP.Chemscore.Metal>
0.0000

> <Gold.Chemscore.Hbonds>
donor molecule, donor type, donor heavy atom, donor atom, acceptor molecule, acceptor atom, score
      L1  H     6    49       P1 10175  2.00
      L1  H    10    37       P1  7957  0.89
      P1  H  7989  7998       L1    10  0.21
      P1  H  8011  8017       L1    10  0.75

> <Gold.PLP.Chemscore.Internal.Correction>
0.2519

> <Gold.Rescore>
     Score         DG    S(hbond)    S(metal)    S(lipo)     H(rot)  DE(clash)    DE(int)     intcor
     16.99     -19.49       1.90        0.00     120.90       2.53       0.27       2.23       ----

> <Gold.Chemscore.Fitness>
16.9906

> <Gold.Chemscore.DG>
-19.4930

> <Gold.Chemscore.ZeroCoef>
-5.4800

> <Gold.Chemscore.Hbond>
1.9019

> <Gold.Chemscore.Metal>
0.0000

> <Gold.Chemscore.Lipo>
120.9031

> <Gold.Chemscore.Internal_Hbond>
0.0000

> <Gold.Chemscore.DEClash>
0.2744

> <Gold.Chemscore.DEInternal>
2.2280

> <Gold.Chemscore.Rot>
2.5332

> <Gold.Chemscore.Internal.Correction>
   9.000000E+99

> <Gold.Chemscore.Hbonds>
donor molecule, donor type, donor heavy atom, donor atom, acceptor molecule, acceptor atom, score
      L1  H     6    49       P1 10175  0.96
      L1  H    10    37       P1  7957  0.82
      P1  H  7989  7998       L1    10  0.07
      P1  H  8011  8017       L1    10  0.09

> <Gold.Chemscore.Hbond.Weighted>
-6.3524

> <Gold.Chemscore.Metal.Weighted>
-0.0000

> <Gold.Chemscore.Lipo.Weighted>
-14.1457

> <Gold.Chemscore.Internal_Hbond.Weighted>
0.0000

> <Gold.Chemscore.DEClash.Weighted>
0.2744

> <Gold.Chemscore.DEInternal.Weighted>
2.2280

> <Gold.Chemscore.Rot.Weighted>
6.4851

> <Gold.Chemscore.Internal.Correction.Weighted>
   9.000000E+99

> <Gold.Protein.RotatedTorsions>
[ 6907 6896 6895 6894 ] final -123.80 input  -60.11 | X-H torsion
[ 7974 7965 7964 7962 ] final  149.76 input  175.53 | X-H torsion
[ 8008 7997 7996 7995 ] final -112.97 input   59.86 | X-H torsion
[ 10167 10162 10161 10158 ] final  128.44 input  -65.29 | X-H torsion
[ 10718 10713 10712 10709 ] final   31.94 input   66.30 | X-H torsion
[ 10763 10752 10751 10750 ] final   84.66 input  -60.55 | X-H torsion
[ 11005 11000 10999 10996 ] final   76.03 input  -57.11 | X-H torsion

> <Gold.Protein.ActiveResidues>
 VAL166  LYS551  ARG553  GLY616  TRP617  ASP618  TYR619  PRO620  LYS621  CYS622 
 ASP623  PHE694  ASN695  SER759  ASP760  ASP761  ALA762  ILE779  LEU786  VAL792 
 PHE793  MET794  SER795  GLU796  ALA797  LYS798  CYS799  TRP800  GLU811  SER814 

> <Gold.Protein.RotatedAtoms>
  150.8705  133.7512  159.2962 H   0  0  0  0  0  0  0  0  0  0  0  0  # atno 6907 bound_to 6896
  151.5125  135.1064  159.9867 H   0  0  0  0  0  0  0  0  0  0  0  0  # atno 6908 bound_to 6896
  152.4692  133.7946  159.6976 H   0  0  0  0  0  0  0  0  0  0  0  0  # atno 6909 bound_to 6896
  144.8414  139.6321  143.6015 H   0  0  0  0  0  0  0  0  0  0  0  0  # atno 7974 bound_to 7965
  155.0135  140.0393  157.2409 H   0  0  0  0  0  0  0  0  0  0  0  0  # atno 8008 bound_to 7997
  154.7439  140.2754  155.6326 H   0  0  0  0  0  0  0  0  0  0  0  0  # atno 8009 bound_to 7997
  156.2870  140.2660  156.2174 H   0  0  0  0  0  0  0  0  0  0  0  0  # atno 8010 bound_to 7997
  139.5527  144.6825  151.4275 H   0  0  0  0  0  0  0  0  0  0  0  0  # atno 10167 bound_to 10162
  157.2789  130.7245  149.6545 H   0  0  0  0  0  0  0  0  0  0  0  0  # atno 10718 bound_to 10713
  153.1403  135.4646  154.9485 H   0  0  0  0  0  0  0  0  0  0  0  0  # atno 10763 bound_to 10752
  154.7741  135.3168  154.8131 H   0  0  0  0  0  0  0  0  0  0  0  0  # atno 10764 bound_to 10752
  153.8655  135.6908  153.4833 H   0  0  0  0  0  0  0  0  0  0  0  0  # atno 10765 bound_to 10752
  139.9316  134.7567  156.1345 H   0  0  0  0  0  0  0  0  0  0  0  0  # atno 11005 bound_to 11000
  146.2706  139.6626  142.9299 LP  0  0  0  0  0  0  0  0  0  0  0  0  # atno 17320 bound_to 7965
  145.4686  141.0435  143.2711 LP  0  0  0  0  0  0  0  0  0  0  0  0  # atno 17321 bound_to 7965
  140.6793  143.8118  150.7100 LP  0  0  0  0  0  0  0  0  0  0  0  0  # atno 17342 bound_to 10162
  140.1566  143.4311  152.2095 LP  0  0  0  0  0  0  0  0  0  0  0  0  # atno 17343 bound_to 10162
  155.9664  130.4344  150.5048 LP  0  0  0  0  0  0  0  0  0  0  0  0  # atno 17370 bound_to 10713
  157.2988  131.0641  151.2083 LP  0  0  0  0  0  0  0  0  0  0  0  0  # atno 17371 bound_to 10713
  141.0908  133.6715  156.2537 LP  0  0  0  0  0  0  0  0  0  0  0  0  # atno 17394 bound_to 11000
  140.6186  134.5385  157.5544 LP  0  0  0  0  0  0  0  0  0  0  0  0  # atno 17395 bound_to 11000

$$$$
