AV-unprocessed.smi:287|AV-procd|sdf|2188|dock10
  -GOLD-   2262021573D 1   1.00000     0.00000
 Structure written by MMmdl.
 55 58  0  0  0  0  0  0  0  0  1 V2000
  152.3151  138.2915  154.3600 C   0  0  0  0  0  0  0  0  0  0  0  0
  151.0146  138.9815  154.5898 C   0  0  0  0  0  0  0  0  0  0  0  0
  149.7101  138.6165  154.4265 C   0  0  0  0  0  0  0  0  0  0  0  0
  148.9042  139.7221  154.8326 C   0  0  0  0  0  0  0  0  0  0  0  0
  147.3831  139.7833  154.8190 C   0  0  2  0  0  0  0  0  0  0  0  0
  146.8699  139.5522  153.3884 C   0  0  0  0  0  0  0  0  0  0  0  0
  146.8846  141.0513  155.2001 O   0  0  0  0  0  0  0  0  0  0  0  0
  146.7351  138.7667  155.7863 C   0  0  0  0  0  0  0  0  0  0  0  0
  145.2807  138.8555  155.8170 N   0  0  0  0  0  0  0  0  0  0  0  0
  144.5253  138.1895  154.9183 C   0  0  0  0  0  0  0  0  0  0  0  0
  143.1955  138.4420  154.9730 N   0  0  0  0  0  0  0  0  0  0  0  0
  142.3598  137.8349  154.1256 C   0  0  0  0  0  0  0  0  0  0  0  0
  142.6413  136.9542  153.1636 N   0  0  0  0  0  0  0  0  0  0  0  0
  143.9790  136.6929  153.1045 C   0  0  0  0  0  0  0  0  0  0  0  0
  144.9848  137.2610  153.9370 C   0  0  0  0  0  0  0  0  0  0  0  0
  146.2234  136.7444  153.5704 N   0  0  0  0  0  0  0  0  0  0  0  0
  145.9591  135.9247  152.5895 C   0  0  0  0  0  0  0  0  0  0  0  0
  144.6270  135.8282  152.2501 N   0  0  0  0  0  0  0  0  0  0  0  0
  143.9716  135.0038  151.1815 C   0  0  1  0  0  0  0  0  0  0  0  0
  144.9669  134.3315  150.4695 O   0  0  0  0  0  0  0  0  0  0  0  0
  145.0539  132.9864  150.9261 C   0  0  2  0  0  0  0  0  0  0  0  0
  145.7922  132.0927  149.9146 C   0  0  0  0  0  0  0  0  0  0  0  0
  147.1203  132.5433  149.7526 O   0  0  0  0  0  0  0  0  0  0  0  0
  143.5814  132.6355  151.1696 C   0  0  2  0  0  0  0  0  0  0  0  0
  142.9306  132.3125  149.9538 O   0  0  0  0  0  0  0  0  0  0  0  0
  143.0172  133.9254  151.7553 C   0  0  1  0  0  0  0  0  0  0  0  0
  143.0163  133.8432  153.1705 O   0  0  0  0  0  0  0  0  0  0  0  0
  149.8033  140.6953  155.1962 C   0  0  0  0  0  0  0  0  0  0  0  0
  149.6677  142.0980  155.6889 C   0  0  0  0  0  0  0  0  0  0  0  0
  151.0842  140.2522  155.0593 O   0  0  0  0  0  0  0  0  0  0  0  0
  143.4762  135.7342  150.5407 H   0  0  0  0  0  0  0  0  0  0  0  0
  145.5705  132.9658  151.8878 H   0  0  0  0  0  0  0  0  0  0  0  0
  143.4741  131.7845  151.8438 H   0  0  0  0  0  0  0  0  0  0  0  0
  141.9980  134.1213  151.4196 H   0  0  0  0  0  0  0  0  0  0  0  0
  152.1592  137.2465  154.0912 H   0  0  0  0  0  0  0  0  0  0  0  0
  152.9327  138.3204  155.2579 H   0  0  0  0  0  0  0  0  0  0  0  0
  152.8685  138.7700  153.5519 H   0  0  0  0  0  0  0  0  0  0  0  0
  149.3699  137.6588  154.0613 H   0  0  0  0  0  0  0  0  0  0  0  0
  147.1781  138.5759  153.0124 H   0  0  0  0  0  0  0  0  0  0  0  0
  147.2579  140.3054  152.7013 H   0  0  0  0  0  0  0  0  0  0  0  0
  145.7808  139.5917  153.3417 H   0  0  0  0  0  0  0  0  0  0  0  0
  146.5634  141.4906  154.4278 H   0  0  0  0  0  0  0  0  0  0  0  0
  147.0464  137.7499  155.5415 H   0  0  0  0  0  0  0  0  0  0  0  0
  147.0931  138.9740  156.7955 H   0  0  0  0  0  0  0  0  0  0  0  0
  144.8940  139.4562  156.5311 H   0  0  0  0  0  0  0  0  0  0  0  0
  141.3162  138.0904  154.2359 H   0  0  0  0  0  0  0  0  0  0  0  0
  146.7384  135.3702  152.0873 H   0  0  0  0  0  0  0  0  0  0  0  0
  145.8378  131.0674  150.2837 H   0  0  0  0  0  0  0  0  0  0  0  0
  145.2808  132.0707  148.9517 H   0  0  0  0  0  0  0  0  0  0  0  0
  147.6936  131.7920  149.7432 H   0  0  0  0  0  0  0  0  0  0  0  0
  142.1661  132.8614  149.8681 H   0  0  0  0  0  0  0  0  0  0  0  0
  142.9271  132.9343  153.4149 H   0  0  0  0  0  0  0  0  0  0  0  0
  148.9583  142.6560  155.0777 H   0  0  0  0  0  0  0  0  0  0  0  0
  150.6230  142.6224  155.6540 H   0  0  0  0  0  0  0  0  0  0  0  0
  149.3131  142.1120  156.7195 H   0  0  0  0  0  0  0  0  0  0  0  0
  1  2  1  0  0  0  0
  1 35  1  0  0  0  0
  1 36  1  0  0  0  0
  1 37  1  0  0  0  0
  2 30  1  0  0  0  0
  2  3  2  0  0  0  0
  3  4  1  0  0  0  0
  3 38  1  0  0  0  0
  4  5  1  0  0  0  0
  4 28  2  0  0  0  0
  5  6  1  0  0  0  0
  5  7  1  0  0  0  0
  5  8  1  0  0  0  0
  6 39  1  0  0  0  0
  6 40  1  0  0  0  0
  6 41  1  0  0  0  0
  7 42  1  0  0  0  0
  8  9  1  0  0  0  0
  8 43  1  0  0  0  0
  8 44  1  0  0  0  0
  9 10  1  0  0  0  0
  9 45  1  0  0  0  0
 10 15  1  0  0  0  0
 10 11  2  0  0  0  0
 11 12  1  0  0  0  0
 12 13  2  0  0  0  0
 12 46  1  0  0  0  0
 13 14  1  0  0  0  0
 14 18  1  0  0  0  0
 14 15  2  0  0  0  0
 15 16  1  0  0  0  0
 16 17  2  0  0  0  0
 17 18  1  0  0  0  0
 17 47  1  0  0  0  0
 18 19  1  0  0  0  0
 19 31  1  0  0  0  0
 19 26  1  0  0  0  0
 19 20  1  0  0  0  0
 20 21  1  0  0  0  0
 21 32  1  0  0  0  0
 21 22  1  0  0  0  0
 21 24  1  0  0  0  0
 22 23  1  0  0  0  0
 22 48  1  0  0  0  0
 22 49  1  0  0  0  0
 23 50  1  0  0  0  0
 24 33  1  0  0  0  0
 24 25  1  0  0  0  0
 24 26  1  0  0  0  0
 25 51  1  0  0  0  0
 26 34  1  0  0  0  0
 26 27  1  0  0  0  0
 27 52  1  0  0  0  0
 28 29  1  0  0  0  0
 28 30  1  0  0  0  0
 29 53  1  0  0  0  0
 29 54  1  0  0  0  0
 29 55  1  0  0  0  0
M  END
> <s_m_source_file>
AV-unprocessed.smi

> <i_m_source_file_index>
287

> <i_lp_mmshare_version>
43012

> <i_f3d_flags>
0

> <s_epik_input>
W0NIM11jMVtjSF1jKGMobzEpW0NIM10pW0NAQF0oW0NIM10pKFtPSF0pW0NIMl1bTkhdYyhuW2NIXW4yKWMoYzIzKW5bY0hdbjNbQ0BASF00T1tDQEhdKFtDSDJdW09IXSlbQ0BASF0oW09IXSlbQ0BIXTRbT0hd

> <s_epik_cmdline>
J2VwaWtfcHl0aG9uJywgJy1waCcsICc3LjAnLCAnLXRuJywgJzgnLCAnLW1hJywgJzIwMCcsICctbWV0YWxfYmluZGluZycsICctaW1hZScsICc8aW5maWxlLm1hZT4nLCAnLW9tYWUnLCAnPG91dGZpbGUubWFlPic=

> <r_lp_tautomer_probability>
1

> <r_epik_Ionization_Penalty>
0.000992612

> <r_epik_Ionization_Penalty_Charging>
0

> <r_epik_Ionization_Penalty_Neutral>
0.000992612

> <r_epik_State_Penalty>
-0

> <r_epik_Charging_Adjusted_Penalty>
0

> <i_epik_Tot_Q>
0

> <i_epik_Tot_abs_Q>
0

> <r_epik_Metal_State_Penalty>
-0

> <b_epik_Metal_Only>
0

> <s_epik_Chemistry_Notes>
This compound contains an acetal/aminal-like group ( X-CH(R)-Y where X, Y are N, S, or O) that may be acid/base labile, releasing an aldehyde.

> <s_lp_Force_Field>
OPLS_2005

> <r_lp_Energy>
43.0869

> <b_lp_Chiralities_Consistent>
1

> <s_lp_Variant>
AV-unprocessed.smi:287-12

> <Gold.Version>
5.8.1

> <Gold.Id.Protein>
6NUR|6NUR_protein|mol2

> <Gold.PLP.Fitness>
54.3686

> <Gold.PLP.PLP>
-40.5008

> <Gold.PLP.part.hbond>
-5.2429

> <Gold.PLP.part.metal>
0.0000

> <Gold.PLP.part.buried>
-2.7364

> <Gold.PLP.part.nonpolar>
-34.3621

> <Gold.PLP.part.repulsive>
1.6117

> <Gold.PLP.ligand.clash>
0.0000

> <Gold.PLP.ligand.torsion>
0.2607

> <Gold.PLP.Chemscore.Hbond>
3.9500

> <Gold.PLP.Chemscore.CHOScore>
0.7967

> <Gold.PLP.Chemscore.Metal>
0.0000

> <Gold.Chemscore.Hbonds>
donor molecule, donor type, donor heavy atom, donor atom, acceptor molecule, acceptor atom, score
      L1  H    23    50       P1 10747  1.00
      L1  H    25    51       P1 10186  1.00
      L1  H    27    52       P1 10957  0.93
      P1  H  7989  7998       L1    30  0.65
      L1  C    17    47       P1  7948  0.86

> <Gold.PLP.Chemscore.Internal.Correction>
0.1491

> <Gold.Rescore>
     Score         DG    S(hbond)    S(metal)    S(lipo)     H(rot)  DE(clash)    DE(int)     intcor
      7.93     -11.87       2.98        0.00      84.87       5.27       0.56       3.38       ----

> <Gold.Chemscore.Fitness>
7.9330

> <Gold.Chemscore.DG>
-11.8664

> <Gold.Chemscore.ZeroCoef>
-5.4800

> <Gold.Chemscore.Hbond>
2.9762

> <Gold.Chemscore.Metal>
0.0000

> <Gold.Chemscore.Lipo>
84.8698

> <Gold.Chemscore.Internal_Hbond>
0.0000

> <Gold.Chemscore.DEClash>
0.5553

> <Gold.Chemscore.DEInternal>
3.3782

> <Gold.Chemscore.Rot>
5.2672

> <Gold.Chemscore.Internal.Correction>
   9.000000E+99

> <Gold.Chemscore.Hbonds>
donor molecule, donor type, donor heavy atom, donor atom, acceptor molecule, acceptor atom, score
      L1  H    23    50       P1 10747  0.98
      L1  H    25    51       P1 10186  0.98
      L1  H    27    52       P1 10957  0.71
      P1  H  7989  7998       L1    30  0.03
      P1  H 10785 10796       L1    25  0.01

> <Gold.Chemscore.Hbond.Weighted>
-9.9406

> <Gold.Chemscore.Metal.Weighted>
-0.0000

> <Gold.Chemscore.Lipo.Weighted>
-9.9298

> <Gold.Chemscore.Internal_Hbond.Weighted>
0.0000

> <Gold.Chemscore.DEClash.Weighted>
0.5553

> <Gold.Chemscore.DEInternal.Weighted>
3.3782

> <Gold.Chemscore.Rot.Weighted>
13.4839

> <Gold.Chemscore.Internal.Correction.Weighted>
   9.000000E+99

> <Gold.Protein.RotatedTorsions>
[ 6907 6896 6895 6894 ] final -114.31 input  -60.11 | X-H torsion
[ 7974 7965 7964 7962 ] final  -21.95 input  175.53 | X-H torsion
[ 8008 7997 7996 7995 ] final -122.54 input   59.86 | X-H torsion
[ 10167 10162 10161 10158 ] final -164.91 input  -65.29 | X-H torsion
[ 10718 10713 10712 10709 ] final   61.83 input   66.30 | X-H torsion
[ 10763 10752 10751 10750 ] final  151.10 input  -60.55 | X-H torsion
[ 11005 11000 10999 10996 ] final  -40.17 input  -57.11 | X-H torsion

> <Gold.Protein.ActiveResidues>
 VAL166  LYS551  ARG553  GLY616  TRP617  ASP618  TYR619  PRO620  LYS621  CYS622 
 ASP623  PHE694  ASN695  SER759  ASP760  ASP761  ALA762  ILE779  LEU786  VAL792 
 PHE793  MET794  SER795  GLU796  ALA797  LYS798  CYS799  TRP800  GLU811  SER814 

> <Gold.Protein.RotatedAtoms>
  150.7892  133.8820  159.3288 H   0  0  0  0  0  0  0  0  0  0  0  0  # atno 6907 bound_to 6896
  151.6662  135.0980  160.0198 H   0  0  0  0  0  0  0  0  0  0  0  0  # atno 6908 bound_to 6896
  152.3963  133.6713  159.6314 H   0  0  0  0  0  0  0  0  0  0  0  0  # atno 6909 bound_to 6896
  146.1704  140.4412  142.8535 H   0  0  0  0  0  0  0  0  0  0  0  0  # atno 7974 bound_to 7965
  155.1659  140.0407  157.2852 H   0  0  0  0  0  0  0  0  0  0  0  0  # atno 8008 bound_to 7997
  154.6304  140.2522  155.7414 H   0  0  0  0  0  0  0  0  0  0  0  0  # atno 8009 bound_to 7997
  156.2481  140.2876  156.0652 H   0  0  0  0  0  0  0  0  0  0  0  0  # atno 8010 bound_to 7997
  139.6218  144.0609  152.1939 H   0  0  0  0  0  0  0  0  0  0  0  0  # atno 10167 bound_to 10162
  157.5857  130.9017  149.9511 H   0  0  0  0  0  0  0  0  0  0  0  0  # atno 10718 bound_to 10713
  154.0983  135.2847  155.3257 H   0  0  0  0  0  0  0  0  0  0  0  0  # atno 10763 bound_to 10752
  154.6573  135.5347  153.7977 H   0  0  0  0  0  0  0  0  0  0  0  0  # atno 10764 bound_to 10752
  153.0388  135.6525  154.1148 H   0  0  0  0  0  0  0  0  0  0  0  0  # atno 10765 bound_to 10752
  141.0155  133.6887  156.2285 H   0  0  0  0  0  0  0  0  0  0  0  0  # atno 11005 bound_to 11000
  144.8154  140.6458  143.6388 LP  0  0  0  0  0  0  0  0  0  0  0  0  # atno 17320 bound_to 7965
  145.4356  139.1543  143.3998 LP  0  0  0  0  0  0  0  0  0  0  0  0  # atno 17321 bound_to 7965
  140.0253  144.6122  150.7533 LP  0  0  0  0  0  0  0  0  0  0  0  0  # atno 17342 bound_to 10162
  140.7387  143.2781  151.3680 LP  0  0  0  0  0  0  0  0  0  0  0  0  # atno 17343 bound_to 10162
  156.0906  130.3664  150.0402 LP  0  0  0  0  0  0  0  0  0  0  0  0  # atno 17370 bound_to 10713
  156.8534  130.9467  151.3624 LP  0  0  0  0  0  0  0  0  0  0  0  0  # atno 17371 bound_to 10713
  140.6661  134.4916  157.5585 LP  0  0  0  0  0  0  0  0  0  0  0  0  # atno 17394 bound_to 11000
  139.9114  134.8336  156.1514 LP  0  0  0  0  0  0  0  0  0  0  0  0  # atno 17395 bound_to 11000

$$$$
