AV-unprocessed.smi:2886|AV-procd|sdf|11091|dock6
  -GOLD-   2272015563D 1   1.00000     0.00000
 Structure written by MMmdl.
 28 30  0  0  0  0  0  0  0  0  3 V2000
  150.5798  138.8039  154.8430 O   0  0  0  0  0  0  0  0  0  0  0  0
  150.6573  139.8869  155.4194 C   0  0  0  0  0  0  0  0  0  0  0  0
  149.9327  140.9851  155.0505 N   0  5  0  0  0  0  0  0  0  0  0  0
  150.0355  142.1313  155.6857 N   0  3  0  0  0  0  0  0  0  0  0  0
  150.8387  142.3266  156.7267 C   0  0  0  0  0  0  0  0  0  0  0  0
  151.6445  141.2612  157.2168 C   0  0  0  0  0  0  0  0  0  0  0  0
  152.5007  141.4187  158.2996 N   0  0  0  0  0  0  0  0  0  0  0  0
  152.7414  142.6091  159.1037 C   0  0  2  0  0  0  0  0  0  0  0  0
  153.5007  142.3033  160.3972 C   0  0  0  0  0  0  0  0  0  0  0  0
  152.5531  142.8773  161.4583 C   0  0  1  0  0  0  0  0  0  0  0  0
  152.4814  144.4102  161.4078 C   0  0  0  0  0  0  0  0  0  0  0  0
  151.6525  144.6438  160.1448 C   0  0  0  0  0  0  0  0  0  0  0  0
  151.4330  143.2107  159.6421 C   0  0  2  0  0  0  0  0  0  0  0  0
  151.3040  142.5362  160.8837 O   0  0  0  0  0  0  0  0  0  0  0  0
  151.5609  140.0620  156.5717 C   0  0  0  0  0  0  0  0  0  0  0  0
  152.5077  138.7068  157.0908 Cl  0  0  0  0  0  0  0  0  0  0  0  0
  149.4823  142.9492  155.3852 H   0  0  0  0  0  0  0  0  0  0  0  0
  150.8458  143.3172  157.1633 H   0  0  0  0  0  0  0  0  0  0  0  0
  152.9056  140.5734  158.6775 H   0  0  0  0  0  0  0  0  0  0  0  0
  153.2613  143.3598  158.5085 H   0  0  0  0  0  0  0  0  0  0  0  0
  153.6255  141.2292  160.5440 H   0  0  0  0  0  0  0  0  0  0  0  0
  154.4879  142.7654  160.4249 H   0  0  0  0  0  0  0  0  0  0  0  0
  152.7131  142.4733  162.4582 H   0  0  0  0  0  0  0  0  0  0  0  0
  151.9646  144.8062  162.2830 H   0  0  0  0  0  0  0  0  0  0  0  0
  153.4696  144.8686  161.3569 H   0  0  0  0  0  0  0  0  0  0  0  0
  150.7005  145.1133  160.3948 H   0  0  0  0  0  0  0  0  0  0  0  0
  152.1604  145.2718  159.4122 H   0  0  0  0  0  0  0  0  0  0  0  0
  150.5768  143.1070  158.9744 H   0  0  0  0  0  0  0  0  0  0  0  0
  1  2  2  0  0  0  0
  2  3  1  0  0  0  0
  2 15  1  0  0  0  0
  3  4  1  0  0  0  0
  4  5  2  0  0  0  0
  4 17  1  0  0  0  0
  5  6  1  0  0  0  0
  5 18  1  0  0  0  0
  6 15  2  0  0  0  0
  6  7  1  0  0  0  0
  7  8  1  0  0  0  0
  7 19  1  0  0  0  0
  8 13  1  0  0  0  0
  8  9  1  0  0  0  0
  8 20  1  0  0  0  0
  9 10  1  0  0  0  0
  9 21  1  0  0  0  0
  9 22  1  0  0  0  0
 10 14  1  0  0  0  0
 10 11  1  0  0  0  0
 10 23  1  0  0  0  0
 11 12  1  0  0  0  0
 11 24  1  0  0  0  0
 11 25  1  0  0  0  0
 12 13  1  0  0  0  0
 12 26  1  0  0  0  0
 12 27  1  0  0  0  0
 13 14  1  0  0  0  0
 13 28  1  0  0  0  0
 15 16  1  0  0  0  0
M  CHG  1   3  -1
M  CHG  1   4   1
M  END
> <s_m_source_file>
AV-unprocessed.smi

> <i_m_source_file_index>
2886

> <i_lp_mmshare_version>
43012

> <i_f3d_flags>
0

> <s_epik_input>
Tz1jMVtuSF1uW2NIXWMoYzFDbClbTkhdW0NASF0oW0NIMl1bQ0BASF0yMylbQ0BASF0oTzMpW0NIMl1bQ0gyXTI=

> <s_epik_cmdline>
J2VwaWtfcHl0aG9uJywgJy1waCcsICc3LjAnLCAnLXRuJywgJzgnLCAnLW1hJywgJzIwMCcsICctbWV0YWxfYmluZGluZycsICctaW1hZScsICc8aW5maWxlLm1hZT4nLCAnLW9tYWUnLCAnPG91dGZpbGUubWFlPic=

> <r_lp_tautomer_probability>
0.0138196

> <r_epik_Ionization_Penalty>
2.43027

> <r_epik_Ionization_Penalty_Charging>
2.43027

> <r_epik_Ionization_Penalty_Neutral>
1.33267e-06

> <r_epik_State_Penalty>
2.7044

> <r_epik_Charging_Adjusted_Penalty>
5.13467

> <i_epik_Tot_Q>
0

> <i_epik_Tot_abs_Q>
2

> <r_epik_Metal_State_Penalty>
2.98589

> <b_epik_Metal_Only>
0

> <s_lp_Force_Field>
OPLS_2005

> <r_lp_Energy>
57.4961

> <b_lp_Chiralities_Consistent>
1

> <s_lp_Variant>
AV-unprocessed.smi:2886-5

> <Gold.Version>
5.8.1

> <Gold.Id.Protein>
6NUR|6NUR_protein|mol2

> <Gold.PLP.Fitness>
38.2880

> <Gold.PLP.PLP>
-31.9483

> <Gold.PLP.part.hbond>
-2.9307

> <Gold.PLP.part.metal>
0.0000

> <Gold.PLP.part.buried>
-3.2243

> <Gold.PLP.part.nonpolar>
-24.7693

> <Gold.PLP.part.repulsive>
0.5645

> <Gold.PLP.ligand.clash>
0.0000

> <Gold.PLP.ligand.torsion>
0.1035

> <Gold.PLP.Chemscore.Hbond>
2.1760

> <Gold.PLP.Chemscore.CHOScore>
0.0000

> <Gold.PLP.Chemscore.Metal>
0.0000

> <Gold.Chemscore.Hbonds>
donor molecule, donor type, donor heavy atom, donor atom, acceptor molecule, acceptor atom, score
      L1  H     4    17       P1  8028  2.00
      P1  H  6933  6945       L1    14  0.19

> <Gold.PLP.Chemscore.Internal.Correction>
0.0187

> <Gold.Rescore>
     Score         DG    S(hbond)    S(metal)    S(lipo)     H(rot)  DE(clash)    DE(int)     intcor
     17.63     -18.67       1.35        0.00      96.17       1.00       0.29       0.76       ----

> <Gold.Chemscore.Fitness>
17.6261

> <Gold.Chemscore.DG>
-18.6722

> <Gold.Chemscore.ZeroCoef>
-5.4800

> <Gold.Chemscore.Hbond>
1.3473

> <Gold.Chemscore.Metal>
0.0000

> <Gold.Chemscore.Lipo>
96.1729

> <Gold.Chemscore.Internal_Hbond>
0.0000

> <Gold.Chemscore.DEClash>
0.2883

> <Gold.Chemscore.DEInternal>
0.7578

> <Gold.Chemscore.Rot>
1.0000

> <Gold.Chemscore.Internal.Correction>
   9.000000E+99

> <Gold.Chemscore.Hbonds>
donor molecule, donor type, donor heavy atom, donor atom, acceptor molecule, acceptor atom, score
      L1  H     4    17       P1  8028  0.95
      P1  H  6933  6945       L1    14  0.15

> <Gold.Chemscore.Hbond.Weighted>
-4.5000

> <Gold.Chemscore.Metal.Weighted>
-0.0000

> <Gold.Chemscore.Lipo.Weighted>
-11.2522

> <Gold.Chemscore.Internal_Hbond.Weighted>
0.0000

> <Gold.Chemscore.DEClash.Weighted>
0.2883

> <Gold.Chemscore.DEInternal.Weighted>
0.7578

> <Gold.Chemscore.Rot.Weighted>
2.5600

> <Gold.Chemscore.Internal.Correction.Weighted>
   9.000000E+99

> <Gold.Protein.RotatedTorsions>
[ 6907 6896 6895 6894 ] final  154.11 input  -60.11 | X-H torsion
[ 7974 7965 7964 7962 ] final  104.59 input  175.53 | X-H torsion
[ 8008 7997 7996 7995 ] final  111.45 input   59.86 | X-H torsion
[ 10167 10162 10161 10158 ] final  -33.66 input  -65.29 | X-H torsion
[ 10718 10713 10712 10709 ] final -114.03 input   66.30 | X-H torsion
[ 10763 10752 10751 10750 ] final  115.10 input  -60.55 | X-H torsion
[ 11005 11000 10999 10996 ] final  -24.92 input  -57.11 | X-H torsion

> <Gold.Protein.ActiveResidues>
 VAL166  LYS551  ARG553  GLY616  TRP617  ASP618  TYR619  PRO620  LYS621  CYS622 
 ASP623  PHE694  ASN695  SER759  ASP760  ASP761  ALA762  ILE779  LEU786  VAL792 
 PHE793  MET794  SER795  GLU796  ALA797  LYS798  CYS799  TRP800  GLU811  SER814 

> <Gold.Protein.RotatedAtoms>
  152.0631  133.4071  159.4426 H   0  0  0  0  0  0  0  0  0  0  0  0  # atno 6907 bound_to 6896
  150.6865  134.3177  159.4782 H   0  0  0  0  0  0  0  0  0  0  0  0  # atno 6908 bound_to 6896
  152.1000  134.9347  160.0620 H   0  0  0  0  0  0  0  0  0  0  0  0  # atno 6909 bound_to 6896
  145.3308  139.2487  143.3661 H   0  0  0  0  0  0  0  0  0  0  0  0  # atno 7974 bound_to 7965
  156.2124  140.3019  155.9763 H   0  0  0  0  0  0  0  0  0  0  0  0  # atno 8008 bound_to 7997
  155.2689  140.0433  157.3022 H   0  0  0  0  0  0  0  0  0  0  0  0  # atno 8009 bound_to 7997
  154.5719  140.2350  155.8187 H   0  0  0  0  0  0  0  0  0  0  0  0  # atno 8010 bound_to 7997
  140.7200  143.3604  151.1975 H   0  0  0  0  0  0  0  0  0  0  0  0  # atno 10167 bound_to 10162
  156.0804  130.6004  150.8720 H   0  0  0  0  0  0  0  0  0  0  0  0  # atno 10718 bound_to 10713
  153.5171  135.3605  155.2614 H   0  0  0  0  0  0  0  0  0  0  0  0  # atno 10763 bound_to 10752
  154.8738  135.4037  154.3302 H   0  0  0  0  0  0  0  0  0  0  0  0  # atno 10764 bound_to 10752
  153.3965  135.7073  153.6523 H   0  0  0  0  0  0  0  0  0  0  0  0  # atno 10765 bound_to 10752
  140.8890  133.7602  156.0396 H   0  0  0  0  0  0  0  0  0  0  0  0  # atno 11005 bound_to 11000
  146.3046  140.3885  142.8692 LP  0  0  0  0  0  0  0  0  0  0  0  0  # atno 17320 bound_to 7965
  144.8865  140.7469  143.5953 LP  0  0  0  0  0  0  0  0  0  0  0  0  # atno 17321 bound_to 7965
  139.7155  143.9308  152.2965 LP  0  0  0  0  0  0  0  0  0  0  0  0  # atno 17342 bound_to 10162
  139.9047  144.6891  150.8627 LP  0  0  0  0  0  0  0  0  0  0  0  0  # atno 17343 bound_to 10162
  157.5918  131.0944  150.9107 LP  0  0  0  0  0  0  0  0  0  0  0  0  # atno 17370 bound_to 10713
  156.9281  130.5339  149.5279 LP  0  0  0  0  0  0  0  0  0  0  0  0  # atno 17371 bound_to 10713
  140.8370  134.3111  157.5328 LP  0  0  0  0  0  0  0  0  0  0  0  0  # atno 17394 bound_to 11000
  139.8727  134.9395  156.3744 LP  0  0  0  0  0  0  0  0  0  0  0  0  # atno 17395 bound_to 11000

$$$$
