AV-unprocessed.smi:1522|AV-procd|sdf|6134|dock8
  -GOLD-   22720 6273D 1   1.00000     0.00000
 Structure written by MMmdl.
 35 36  0  0  0  0  0  0  0  0  2 V2000
  145.4810  135.9896  150.9256 C   0  0  0  0  0  0  0  0  0  0  0  0
  144.7002  135.3359  152.0878 C   0  0  2  0  0  0  0  0  0  0  0  0
  145.2598  135.8042  153.4569 C   0  0  0  0  0  0  0  0  0  0  0  0
  146.5153  136.5398  153.3375 N   0  0  0  0  0  0  0  0  0  0  0  0
  146.7834  137.6992  153.9551 C   0  0  0  0  0  0  0  0  0  0  0  0
  145.9858  138.2650  154.7025 O   0  0  0  0  0  0  0  0  0  0  0  0
  148.0120  138.1440  153.6461 N   0  0  0  0  0  0  0  0  0  0  0  0
  148.6362  139.3438  154.0702 C   0  0  0  0  0  0  0  0  0  0  0  0
  149.9642  139.3371  154.2329 N   0  0  0  0  0  0  0  0  0  0  0  0
  150.4445  140.5744  154.6440 N   0  0  0  0  0  0  0  0  0  0  0  0
  149.4585  141.4672  154.7743 C   0  0  0  0  0  0  0  0  0  0  0  0
  147.8439  140.8859  154.4083 S   0  0  0  0  0  0  0  0  0  0  0  0
  144.7248  133.8477  151.9903 N   0  3  0  0  0  0  0  0  0  0  0  0
  143.9686  133.2783  150.8453 C   0  0  0  0  0  0  0  0  0  0  0  0
  144.7619  132.0699  150.3286 C   0  0  0  0  0  0  0  0  0  0  0  0
  145.8447  131.8357  151.3751 C   0  0  0  0  0  0  0  0  0  0  0  0
  146.0671  133.2269  151.9565 C   0  0  0  0  0  0  0  0  0  0  0  0
  145.4742  137.0772  150.9976 H   0  0  0  0  0  0  0  0  0  0  0  0
  145.0483  135.7490  149.9547 H   0  0  0  0  0  0  0  0  0  0  0  0
  146.5227  135.6669  150.9181 H   0  0  0  0  0  0  0  0  0  0  0  0
  143.6581  135.6494  152.0066 H   0  0  0  0  0  0  0  0  0  0  0  0
  144.5453  136.4333  153.9890 H   0  0  0  0  0  0  0  0  0  0  0  0
  145.4376  134.9404  154.0984 H   0  0  0  0  0  0  0  0  0  0  0  0
  147.2259  136.1393  152.7421 H   0  0  0  0  0  0  0  0  0  0  0  0
  148.5606  137.5668  153.0260 H   0  0  0  0  0  0  0  0  0  0  0  0
  149.6841  142.4760  155.0876 H   0  0  0  0  0  0  0  0  0  0  0  0
  142.9734  132.9855  151.1815 H   0  0  0  0  0  0  0  0  0  0  0  0
  143.8470  134.0060  150.0411 H   0  0  0  0  0  0  0  0  0  0  0  0
  144.1353  131.1906  150.1764 H   0  0  0  0  0  0  0  0  0  0  0  0
  145.2236  132.3167  149.3715 H   0  0  0  0  0  0  0  0  0  0  0  0
  145.4734  131.1648  152.1510 H   0  0  0  0  0  0  0  0  0  0  0  0
  146.7524  131.3990  150.9574 H   0  0  0  0  0  0  0  0  0  0  0  0
  146.7225  133.7997  151.2980 H   0  0  0  0  0  0  0  0  0  0  0  0
  146.5251  133.1859  152.9453 H   0  0  0  0  0  0  0  0  0  0  0  0
  144.2796  133.4892  152.8231 H   0  0  0  0  0  0  0  0  0  0  0  0
  1  2  1  0  0  0  0
  1 18  1  0  0  0  0
  1 19  1  0  0  0  0
  1 20  1  0  0  0  0
  2  3  1  0  0  0  0
  2 13  1  0  0  0  0
  2 21  1  0  0  0  0
  3  4  1  0  0  0  0
  3 22  1  0  0  0  0
  3 23  1  0  0  0  0
  4  5  1  0  0  0  0
  4 24  1  0  0  0  0
  5  6  2  0  0  0  0
  5  7  1  0  0  0  0
  7  8  1  0  0  0  0
  7 25  1  0  0  0  0
  8 12  1  0  0  0  0
  8  9  2  0  0  0  0
  9 10  1  0  0  0  0
 10 11  2  0  0  0  0
 11 12  1  0  0  0  0
 11 26  1  0  0  0  0
 13 17  1  0  0  0  0
 13 14  1  0  0  0  0
 13 35  1  0  0  0  0
 14 15  1  0  0  0  0
 14 27  1  0  0  0  0
 14 28  1  0  0  0  0
 15 16  1  0  0  0  0
 15 29  1  0  0  0  0
 15 30  1  0  0  0  0
 16 17  1  0  0  0  0
 16 31  1  0  0  0  0
 16 32  1  0  0  0  0
 17 33  1  0  0  0  0
 17 34  1  0  0  0  0
M  CHG  1  13   1
M  END
> <s_m_source_file>
AV-unprocessed.smi

> <i_m_source_file_index>
1522

> <i_lp_mmshare_version>
43012

> <i_f3d_flags>
0

> <s_epik_input>
W0NIMl0xW0NIMl1bQ0gyXVtDSDJdTjFbQ0BIXShbQ0gzXSlbQ0gyXVtOSF1DKD1PKVtOSF1jMm5uW2NIXXMy

> <s_epik_cmdline>
J2VwaWtfcHl0aG9uJywgJy1waCcsICc3LjAnLCAnLXRuJywgJzgnLCAnLW1hJywgJzIwMCcsICctbWV0YWxfYmluZGluZycsICctaW1hZScsICc8aW5maWxlLm1hZT4nLCAnLW9tYWUnLCAnPG91dGZpbGUubWFlPic=

> <r_lp_tautomer_probability>
1

> <r_epik_Ionization_Penalty>
0.00457064

> <r_epik_Ionization_Penalty_Charging>
0.000848324

> <r_epik_Ionization_Penalty_Neutral>
0.00372231

> <r_epik_State_Penalty>
-0

> <r_epik_Charging_Adjusted_Penalty>
0.000848324

> <i_epik_Tot_Q>
1

> <i_epik_Tot_abs_Q>
1

> <r_epik_Metal_State_Penalty>
0.370178

> <b_epik_Metal_Only>
0

> <s_lp_Force_Field>
OPLS_2005

> <r_lp_Energy>
27.0536

> <b_lp_Chiralities_Consistent>
1

> <s_lp_Variant>
AV-unprocessed.smi:1522-1

> <Gold.Version>
5.8.1

> <Gold.Id.Protein>
6NUR|6NUR_protein|mol2

> <Gold.PLP.Fitness>
35.4999

> <Gold.PLP.PLP>
-28.0685

> <Gold.PLP.part.hbond>
-3.0000

> <Gold.PLP.part.metal>
0.0000

> <Gold.PLP.part.buried>
-4.6328

> <Gold.PLP.part.nonpolar>
-20.2985

> <Gold.PLP.part.repulsive>
0.3610

> <Gold.PLP.ligand.clash>
2.4628

> <Gold.PLP.ligand.torsion>
1.0666

> <Gold.PLP.Chemscore.Hbond>
3.0000

> <Gold.PLP.Chemscore.CHOScore>
1.0000

> <Gold.PLP.Chemscore.Metal>
0.0000

> <Gold.Chemscore.Hbonds>
donor molecule, donor type, donor heavy atom, donor atom, acceptor molecule, acceptor atom, score
      L1  H     4    24       P1  7948  1.00
      L1  H     7    25       P1  7948  1.00
      P1  H  7989  7998       L1    10  0.96
      L1  C    11    26       P1  8028  1.00

> <Gold.PLP.Chemscore.Internal.Correction>
0.0274

> <Gold.Rescore>
     Score         DG    S(hbond)    S(metal)    S(lipo)     H(rot)  DE(clash)    DE(int)     intcor
     15.55     -16.50       2.48        0.00      60.79       1.70       0.07       0.88       ----

> <Gold.Chemscore.Fitness>
15.5494

> <Gold.Chemscore.DG>
-16.5021

> <Gold.Chemscore.ZeroCoef>
-5.4800

> <Gold.Chemscore.Hbond>
2.4756

> <Gold.Chemscore.Metal>
0.0000

> <Gold.Chemscore.Lipo>
60.7944

> <Gold.Chemscore.Internal_Hbond>
0.0000

> <Gold.Chemscore.DEClash>
0.0682

> <Gold.Chemscore.DEInternal>
0.8845

> <Gold.Chemscore.Rot>
1.7028

> <Gold.Chemscore.Internal.Correction>
   9.000000E+99

> <Gold.Chemscore.Hbonds>
donor molecule, donor type, donor heavy atom, donor atom, acceptor molecule, acceptor atom, score
      L1  H     4    24       P1  7948  0.96
      L1  H     7    25       P1  7948  1.00
      P1  H  7989  7998       L1    10  0.30

> <Gold.Chemscore.Hbond.Weighted>
-8.2683

> <Gold.Chemscore.Metal.Weighted>
-0.0000

> <Gold.Chemscore.Lipo.Weighted>
-7.1129

> <Gold.Chemscore.Internal_Hbond.Weighted>
0.0000

> <Gold.Chemscore.DEClash.Weighted>
0.0682

> <Gold.Chemscore.DEInternal.Weighted>
0.8845

> <Gold.Chemscore.Rot.Weighted>
4.3592

> <Gold.Chemscore.Internal.Correction.Weighted>
   9.000000E+99

> <Gold.Protein.RotatedTorsions>
[ 6907 6896 6895 6894 ] final   -4.86 input  -60.11 | X-H torsion
[ 7974 7965 7964 7962 ] final -170.10 input  175.53 | X-H torsion
[ 8008 7997 7996 7995 ] final  -69.69 input   59.86 | X-H torsion
[ 10167 10162 10161 10158 ] final  161.91 input  -65.29 | X-H torsion
[ 10718 10713 10712 10709 ] final -170.68 input   66.30 | X-H torsion
[ 10763 10752 10751 10750 ] final -151.73 input  -60.55 | X-H torsion
[ 11005 11000 10999 10996 ] final  -87.08 input  -57.11 | X-H torsion

> <Gold.Protein.ActiveResidues>
 VAL166  LYS551  ARG553  GLY616  TRP617  ASP618  TYR619  PRO620  LYS621  CYS622 
 ASP623  PHE694  ASN695  SER759  ASP760  ASP761  ALA762  ILE779  LEU786  VAL792 
 PHE793  MET794  SER795  GLU796  ALA797  LYS798  CYS799  TRP800  GLU811  SER814 

> <Gold.Protein.RotatedAtoms>
  151.4908  135.1057  159.9802 H   0  0  0  0  0  0  0  0  0  0  0  0  # atno 6907 bound_to 6896
  152.4741  133.8094  159.7006 H   0  0  0  0  0  0  0  0  0  0  0  0  # atno 6908 bound_to 6896
  150.8769  133.7364  159.2970 H   0  0  0  0  0  0  0  0  0  0  0  0  # atno 6909 bound_to 6896
  144.7175  140.2122  143.6326 H   0  0  0  0  0  0  0  0  0  0  0  0  # atno 7974 bound_to 7965
  154.4957  140.0848  156.7691 H   0  0  0  0  0  0  0  0  0  0  0  0  # atno 8008 bound_to 7997
  155.4123  140.3442  155.4246 H   0  0  0  0  0  0  0  0  0  0  0  0  # atno 8009 bound_to 7997
  156.1390  140.1524  156.8938 H   0  0  0  0  0  0  0  0  0  0  0  0  # atno 8010 bound_to 7997
  139.4854  144.4490  151.8855 H   0  0  0  0  0  0  0  0  0  0  0  0  # atno 10167 bound_to 10162
  156.7297  130.9301  151.3103 H   0  0  0  0  0  0  0  0  0  0  0  0  # atno 10718 bound_to 10713
  154.8039  135.3253  154.7480 H   0  0  0  0  0  0  0  0  0  0  0  0  # atno 10763 bound_to 10752
  153.8143  135.6893  153.4840 H   0  0  0  0  0  0  0  0  0  0  0  0  # atno 10764 bound_to 10752
  153.1772  135.4600  154.9925 H   0  0  0  0  0  0  0  0  0  0  0  0  # atno 10765 bound_to 10752
  141.1622  133.7491  156.9255 H   0  0  0  0  0  0  0  0  0  0  0  0  # atno 11005 bound_to 11000
  145.8580  139.2208  143.1733 LP  0  0  0  0  0  0  0  0  0  0  0  0  # atno 17320 bound_to 7965
  146.0200  140.8357  142.9928 LP  0  0  0  0  0  0  0  0  0  0  0  0  # atno 17321 bound_to 7965
  140.3945  144.2572  150.5897 LP  0  0  0  0  0  0  0  0  0  0  0  0  # atno 17342 bound_to 10162
  140.5115  143.2289  151.8528 LP  0  0  0  0  0  0  0  0  0  0  0  0  # atno 17343 bound_to 10162
  157.6864  130.9190  150.0397 LP  0  0  0  0  0  0  0  0  0  0  0  0  # atno 17370 bound_to 10713
  156.1538  130.3643  149.9400 LP  0  0  0  0  0  0  0  0  0  0  0  0  # atno 17371 bound_to 10713
  140.1422  134.9286  157.2482 LP  0  0  0  0  0  0  0  0  0  0  0  0  # atno 17394 bound_to 11000
  140.2822  134.3336  155.7339 LP  0  0  0  0  0  0  0  0  0  0  0  0  # atno 17395 bound_to 11000

$$$$
