AV-unprocessed.smi:653|AV-procd|sdf|3208|dock10
  -GOLD-   22720 0143D 1   1.00000     0.00000
 Structure written by MMmdl.
 45 46  0  0  0  0  0  0  0  0  2 V2000
  146.8825  139.5970  153.2235 C   0  0  0  0  0  0  0  0  0  0  0  0
  148.2764  139.5916  153.8150 C   0  0  0  0  0  0  0  0  0  0  0  0
  148.7462  140.6337  154.6426 C   0  0  0  0  0  0  0  0  0  0  0  0
  150.0548  140.5629  155.1636 C   0  0  0  0  0  0  0  0  0  0  0  0
  150.8684  139.4523  154.8469 C   0  0  0  0  0  0  0  0  0  0  0  0
  152.2808  139.3454  155.3950 C   0  0  0  0  0  0  0  0  0  0  0  0
  152.2573  139.1005  156.9056 C   0  0  0  0  0  0  0  0  0  0  0  0
  152.0427  137.9703  157.3445 O   0  0  0  0  0  0  0  0  0  0  0  0
  152.4812  140.1660  157.6897 N   0  0  0  0  0  0  0  0  0  0  0  0
  152.5008  140.1405  159.1482 C   0  0  0  0  0  0  0  0  0  0  0  0
  153.1354  141.4145  159.7406 C   0  0  2  0  0  0  0  0  0  0  0  0
  153.5787  141.2787  161.1849 C   0  0  0  0  0  0  0  0  0  0  0  0
  153.6893  142.7372  161.6155 C   0  0  0  0  0  0  0  0  0  0  0  0
  152.6786  143.4296  160.8895 O   0  0  0  0  0  0  0  0  0  0  0  0
  152.1714  142.6058  159.8407 C   0  0  1  0  0  0  0  0  0  0  0  0
  151.9568  143.4192  158.5432 C   0  0  0  0  0  0  0  0  0  0  0  0
  153.1304  144.3569  158.2052 C   0  0  0  0  0  0  0  0  0  0  0  0
  150.6379  144.2056  158.6037 C   0  0  0  0  0  0  0  0  0  0  0  0
  150.3442  138.4402  154.0138 C   0  0  0  0  0  0  0  0  0  0  0  0
  149.0847  138.5444  153.5361 N   0  3  0  0  0  0  0  0  0  0  0  0
  146.4880  140.6120  153.1686 H   0  0  0  0  0  0  0  0  0  0  0  0
  146.2093  139.0001  153.8391 H   0  0  0  0  0  0  0  0  0  0  0  0
  146.8875  139.1815  152.2153 H   0  0  0  0  0  0  0  0  0  0  0  0
  148.1134  141.4772  154.8785 H   0  0  0  0  0  0  0  0  0  0  0  0
  150.4264  141.3511  155.8023 H   0  0  0  0  0  0  0  0  0  0  0  0
  152.8111  138.5419  154.8812 H   0  0  0  0  0  0  0  0  0  0  0  0
  152.8305  140.2656  155.1926 H   0  0  0  0  0  0  0  0  0  0  0  0
  152.6446  141.0588  157.2470 H   0  0  0  0  0  0  0  0  0  0  0  0
  151.4861  140.0098  159.5272 H   0  0  0  0  0  0  0  0  0  0  0  0
  153.0601  139.2593  159.4640 H   0  0  0  0  0  0  0  0  0  0  0  0
  154.0075  141.6935  159.1502 H   0  0  0  0  0  0  0  0  0  0  0  0
  152.8133  140.7721  161.7746 H   0  0  0  0  0  0  0  0  0  0  0  0
  154.5157  140.7326  161.2980 H   0  0  0  0  0  0  0  0  0  0  0  0
  153.5678  142.8655  162.6912 H   0  0  0  0  0  0  0  0  0  0  0  0
  154.6607  143.1450  161.3324 H   0  0  0  0  0  0  0  0  0  0  0  0
  151.2074  142.2288  160.1869 H   0  0  0  0  0  0  0  0  0  0  0  0
  151.8610  142.7095  157.7209 H   0  0  0  0  0  0  0  0  0  0  0  0
  153.3061  145.0790  159.0029 H   0  0  0  0  0  0  0  0  0  0  0  0
  152.9282  144.9192  157.2934 H   0  0  0  0  0  0  0  0  0  0  0  0
  154.0575  143.8099  158.0394 H   0  0  0  0  0  0  0  0  0  0  0  0
  150.6524  144.9435  159.4063 H   0  0  0  0  0  0  0  0  0  0  0  0
  149.7903  143.5420  158.7771 H   0  0  0  0  0  0  0  0  0  0  0  0
  150.4517  144.7349  157.6688 H   0  0  0  0  0  0  0  0  0  0  0  0
  150.8883  137.5544  153.7199 H   0  0  0  0  0  0  0  0  0  0  0  0
  148.7269  137.7989  152.9386 H   0  0  0  0  0  0  0  0  0  0  0  0
  1  2  1  0  0  0  0
  1 21  1  0  0  0  0
  1 22  1  0  0  0  0
  1 23  1  0  0  0  0
  2 20  1  0  0  0  0
  2  3  2  0  0  0  0
  3  4  1  0  0  0  0
  3 24  1  0  0  0  0
  4  5  2  0  0  0  0
  4 25  1  0  0  0  0
  5  6  1  0  0  0  0
  5 19  1  0  0  0  0
  6  7  1  0  0  0  0
  6 26  1  0  0  0  0
  6 27  1  0  0  0  0
  7  8  2  0  0  0  0
  7  9  1  0  0  0  0
  9 10  1  0  0  0  0
  9 28  1  0  0  0  0
 10 11  1  0  0  0  0
 10 29  1  0  0  0  0
 10 30  1  0  0  0  0
 11 15  1  0  0  0  0
 11 12  1  0  0  0  0
 11 31  1  0  0  0  0
 12 13  1  0  0  0  0
 12 32  1  0  0  0  0
 12 33  1  0  0  0  0
 13 14  1  0  0  0  0
 13 34  1  0  0  0  0
 13 35  1  0  0  0  0
 14 15  1  0  0  0  0
 15 16  1  0  0  0  0
 15 36  1  0  0  0  0
 16 17  1  0  0  0  0
 16 18  1  0  0  0  0
 16 37  1  0  0  0  0
 17 38  1  0  0  0  0
 17 39  1  0  0  0  0
 17 40  1  0  0  0  0
 18 41  1  0  0  0  0
 18 42  1  0  0  0  0
 18 43  1  0  0  0  0
 19 20  2  0  0  0  0
 19 44  1  0  0  0  0
 20 45  1  0  0  0  0
M  CHG  1  20   1
M  END
> <s_m_source_file>
AV-unprocessed.smi

> <i_m_source_file_index>
653

> <i_lp_mmshare_version>
43012

> <i_f3d_flags>
0

> <s_epik_input>
W0NIM11jMVtjSF1bY0hdYyhbY0hdbjEpW0NIMl1DKD1PKVtOSF1bQ0gyXVtDQEBIXTJbQ0gyXVtDSDJdT1tDQEhdMltDSF0oW0NIM10pW0NIM10=

> <s_epik_cmdline>
J2VwaWtfcHl0aG9uJywgJy1waCcsICc3LjAnLCAnLXRuJywgJzgnLCAnLW1hJywgJzIwMCcsICctbWV0YWxfYmluZGluZycsICctaW1hZScsICc8aW5maWxlLm1hZT4nLCAnLW9tYWUnLCAnPG91dGZpbGUubWFlPic=

> <r_epik_Ionization_Penalty>
2.12486

> <r_epik_Ionization_Penalty_Charging>
2.12486

> <r_epik_Ionization_Penalty_Neutral>
9.0873e-08

> <r_epik_State_Penalty>
2.26279

> <r_epik_Charging_Adjusted_Penalty>
4.38765

> <i_epik_Tot_Q>
1

> <i_epik_Tot_abs_Q>
1

> <r_epik_Metal_State_Penalty>
2.27914

> <b_epik_Metal_Only>
0

> <s_lp_Force_Field>
OPLS_2005

> <r_lp_Energy>
26.2023

> <b_lp_Chiralities_Consistent>
1

> <s_lp_Variant>
AV-unprocessed.smi:653-5

> <Gold.Version>
5.8.1

> <Gold.Id.Protein>
6NUR|6NUR_protein|mol2

> <Gold.PLP.Fitness>
46.7914

> <Gold.PLP.PLP>
-42.6971

> <Gold.PLP.part.hbond>
-2.0000

> <Gold.PLP.part.metal>
0.0000

> <Gold.PLP.part.buried>
-2.9171

> <Gold.PLP.part.nonpolar>
-38.7855

> <Gold.PLP.part.repulsive>
0.2498

> <Gold.PLP.ligand.clash>
0.0000

> <Gold.PLP.ligand.torsion>
0.9644

> <Gold.PLP.Chemscore.Hbond>
2.0000

> <Gold.PLP.Chemscore.CHOScore>
0.0000

> <Gold.PLP.Chemscore.Metal>
0.0000

> <Gold.Chemscore.Hbonds>
donor molecule, donor type, donor heavy atom, donor atom, acceptor molecule, acceptor atom, score
      L1  H    20    45       P1  7948  2.00

> <Gold.PLP.Chemscore.Internal.Correction>
0.0232

> <Gold.Rescore>
     Score         DG    S(hbond)    S(metal)    S(lipo)     H(rot)  DE(clash)    DE(int)     intcor
     18.63     -19.65       0.99        0.00     127.23       1.57       0.24       0.78       ----

> <Gold.Chemscore.Fitness>
18.6265

> <Gold.Chemscore.DG>
-19.6477

> <Gold.Chemscore.ZeroCoef>
-5.4800

> <Gold.Chemscore.Hbond>
0.9885

> <Gold.Chemscore.Metal>
0.0000

> <Gold.Chemscore.Lipo>
127.2270

> <Gold.Chemscore.Internal_Hbond>
0.0000

> <Gold.Chemscore.DEClash>
0.2364

> <Gold.Chemscore.DEInternal>
0.7848

> <Gold.Chemscore.Rot>
1.5701

> <Gold.Chemscore.Internal.Correction>
   9.000000E+99

> <Gold.Chemscore.Hbonds>
donor molecule, donor type, donor heavy atom, donor atom, acceptor molecule, acceptor atom, score
      L1  H    20    45       P1  7948  0.95

> <Gold.Chemscore.Hbond.Weighted>
-3.3017

> <Gold.Chemscore.Metal.Weighted>
-0.0000

> <Gold.Chemscore.Lipo.Weighted>
-14.8856

> <Gold.Chemscore.Internal_Hbond.Weighted>
0.0000

> <Gold.Chemscore.DEClash.Weighted>
0.2364

> <Gold.Chemscore.DEInternal.Weighted>
0.7848

> <Gold.Chemscore.Rot.Weighted>
4.0196

> <Gold.Chemscore.Internal.Correction.Weighted>
   9.000000E+99

> <Gold.Protein.RotatedTorsions>
[ 6907 6896 6895 6894 ] final  143.63 input  -60.11 | X-H torsion
[ 7974 7965 7964 7962 ] final  114.86 input  175.53 | X-H torsion
[ 8008 7997 7996 7995 ] final  -94.16 input   59.86 | X-H torsion
[ 10167 10162 10161 10158 ] final  121.29 input  -65.29 | X-H torsion
[ 10718 10713 10712 10709 ] final  -55.47 input   66.30 | X-H torsion
[ 10763 10752 10751 10750 ] final  -28.10 input  -60.55 | X-H torsion
[ 11005 11000 10999 10996 ] final   80.10 input  -57.11 | X-H torsion

> <Gold.Protein.ActiveResidues>
 VAL166  LYS551  ARG553  GLY616  TRP617  ASP618  TYR619  PRO620  LYS621  CYS622 
 ASP623  PHE694  ASN695  SER759  ASP760  ASP761  ALA762  ILE779  LEU786  VAL792 
 PHE793  MET794  SER795  GLU796  ALA797  LYS798  CYS799  TRP800  GLU811  SER814 

> <Gold.Protein.RotatedAtoms>
  152.2039  133.4861  159.5073 H   0  0  0  0  0  0  0  0  0  0  0  0  # atno 6907 bound_to 6896
  150.6975  134.1555  159.4165 H   0  0  0  0  0  0  0  0  0  0  0  0  # atno 6908 bound_to 6896
  151.9473  135.0185  160.0590 H   0  0  0  0  0  0  0  0  0  0  0  0  # atno 6909 bound_to 6896
  145.1992  139.2961  143.4327 H   0  0  0  0  0  0  0  0  0  0  0  0  # atno 7974 bound_to 7965
  154.7449  140.0492  157.0843 H   0  0  0  0  0  0  0  0  0  0  0  0  # atno 8008 bound_to 7997
  155.0131  140.3138  155.4803 H   0  0  0  0  0  0  0  0  0  0  0  0  # atno 8009 bound_to 7997
  156.2872  140.2180  156.5246 H   0  0  0  0  0  0  0  0  0  0  0  0  # atno 8010 bound_to 7997
  139.5928  144.7031  151.3247 H   0  0  0  0  0  0  0  0  0  0  0  0  # atno 10167 bound_to 10162
  156.1366  130.4156  150.0175 H   0  0  0  0  0  0  0  0  0  0  0  0  # atno 10718 bound_to 10713
  153.7428  135.6931  153.4963 H   0  0  0  0  0  0  0  0  0  0  0  0  # atno 10763 bound_to 10752
  153.2057  135.4420  155.0319 H   0  0  0  0  0  0  0  0  0  0  0  0  # atno 10764 bound_to 10752
  154.8214  135.3424  154.6953 H   0  0  0  0  0  0  0  0  0  0  0  0  # atno 10765 bound_to 10752
  139.9147  134.7894  156.1865 H   0  0  0  0  0  0  0  0  0  0  0  0  # atno 11005 bound_to 11000
  146.3421  140.2230  142.8592 LP  0  0  0  0  0  0  0  0  0  0  0  0  # atno 17320 bound_to 7965
  144.9965  140.8594  143.5308 LP  0  0  0  0  0  0  0  0  0  0  0  0  # atno 17321 bound_to 7965
  140.7188  143.7194  150.7707 LP  0  0  0  0  0  0  0  0  0  0  0  0  # atno 17342 bound_to 10162
  140.0754  143.5021  152.2558 LP  0  0  0  0  0  0  0  0  0  0  0  0  # atno 17343 bound_to 10162
  156.8072  130.9312  151.3645 LP  0  0  0  0  0  0  0  0  0  0  0  0  # atno 17370 bound_to 10713
  157.6538  130.8907  149.9686 LP  0  0  0  0  0  0  0  0  0  0  0  0  # atno 17371 bound_to 10713
  141.0610  133.6842  156.1952 LP  0  0  0  0  0  0  0  0  0  0  0  0  # atno 17394 bound_to 11000
  140.6661  134.4917  157.5585 LP  0  0  0  0  0  0  0  0  0  0  0  0  # atno 17395 bound_to 11000

$$$$
