AV-unprocessed.smi:3095|AV-procd|sdf|11792|dock10
  -GOLD-   2272017173D 1   1.00000     0.00000
 Structure written by MMmdl.
 25 26  0  0  0  0  0  0  0  0  2 V2000
  152.8128  142.9003  161.7736 C   0  0  0  0  0  0  0  0  0  0  0  0
  151.9535  143.7123  160.8562 C   0  0  0  0  0  0  0  0  0  0  0  0
  152.3686  144.4530  159.7782 C   0  0  0  0  0  0  0  0  0  0  0  0
  151.0368  145.2470  158.9845 S   0  0  0  0  0  0  0  0  0  0  0  0
  149.9423  144.5182  160.1544 C   0  0  0  0  0  0  0  0  0  0  0  0
  148.4690  144.7758  160.1548 C   0  0  2  0  0  0  0  0  0  0  0  0
  148.0090  145.5673  161.3936 C   0  0  0  0  0  0  0  0  0  0  0  0
  146.5409  145.7189  161.3762 N   0  3  0  0  0  0  0  0  0  0  0  0
  145.8624  144.4127  161.2609 C   0  0  0  0  0  0  0  0  0  0  0  0
  146.3939  143.6439  160.0379 C   0  0  0  0  0  0  0  0  0  0  0  0
  147.8089  143.5120  160.1283 O   0  0  0  0  0  0  0  0  0  0  0  0
  150.5724  143.7680  161.0645 N   0  0  0  0  0  0  0  0  0  0  0  0
  153.8672  142.9804  161.5077 H   0  0  0  0  0  0  0  0  0  0  0  0
  152.5435  141.8447  161.7340 H   0  0  0  0  0  0  0  0  0  0  0  0
  152.7087  143.2303  162.8074 H   0  0  0  0  0  0  0  0  0  0  0  0
  153.3745  144.5812  159.4057 H   0  0  0  0  0  0  0  0  0  0  0  0
  148.2239  145.3277  159.2456 H   0  0  0  0  0  0  0  0  0  0  0  0
  148.3039  145.0512  162.3086 H   0  0  0  0  0  0  0  0  0  0  0  0
  148.4726  146.5539  161.4158 H   0  0  0  0  0  0  0  0  0  0  0  0
  146.2398  146.1813  162.2224 H   0  0  0  0  0  0  0  0  0  0  0  0
  146.0352  143.8373  162.1714 H   0  0  0  0  0  0  0  0  0  0  0  0
  144.7867  144.5698  161.1781 H   0  0  0  0  0  0  0  0  0  0  0  0
  145.9482  142.6500  159.9961 H   0  0  0  0  0  0  0  0  0  0  0  0
  146.1249  144.1530  159.1109 H   0  0  0  0  0  0  0  0  0  0  0  0
  146.2845  146.2873  160.5815 H   0  0  0  0  0  0  0  0  0  0  0  0
  1  2  1  0  0  0  0
  1 13  1  0  0  0  0
  1 14  1  0  0  0  0
  1 15  1  0  0  0  0
  2 12  1  0  0  0  0
  2  3  2  0  0  0  0
  3  4  1  0  0  0  0
  3 16  1  0  0  0  0
  4  5  1  0  0  0  0
  5  6  1  0  0  0  0
  5 12  2  0  0  0  0
  6 11  1  0  0  0  0
  6  7  1  0  0  0  0
  6 17  1  0  0  0  0
  7  8  1  0  0  0  0
  7 18  1  0  0  0  0
  7 19  1  0  0  0  0
  8  9  1  0  0  0  0
  8 20  1  0  0  0  0
  8 25  1  0  0  0  0
  9 10  1  0  0  0  0
  9 21  1  0  0  0  0
  9 22  1  0  0  0  0
 10 11  1  0  0  0  0
 10 23  1  0  0  0  0
 10 24  1  0  0  0  0
M  CHG  1   8   1
M  END
> <s_m_source_file>
AV-unprocessed.smi

> <i_m_source_file_index>
3095

> <i_lp_mmshare_version>
43012

> <i_f3d_flags>
0

> <s_epik_input>
W0NIM11jMVtjSF1zYyhuMSlbQ0BASF0yW0NIMl1bTkhdW0NIMl1bQ0gyXU8y

> <s_epik_cmdline>
J2VwaWtfcHl0aG9uJywgJy1waCcsICc3LjAnLCAnLXRuJywgJzgnLCAnLW1hJywgJzIwMCcsICctbWV0YWxfYmluZGluZycsICctaW1hZScsICc8aW5maWxlLm1hZT4nLCAnLW9tYWUnLCAnPG91dGZpbGUubWFlPic=

> <r_epik_Ionization_Penalty>
0.125709

> <r_epik_Ionization_Penalty_Charging>
0.125708

> <r_epik_Ionization_Penalty_Neutral>
7.00244e-07

> <r_epik_State_Penalty>
0.0155371

> <r_epik_Charging_Adjusted_Penalty>
0.141245

> <i_epik_Tot_Q>
1

> <i_epik_Tot_abs_Q>
1

> <r_epik_Metal_State_Penalty>
0.0155948

> <b_epik_Metal_Only>
0

> <s_lp_Force_Field>
OPLS_2005

> <r_lp_Energy>
6.74862

> <b_lp_Chiralities_Consistent>
1

> <s_lp_Variant>
AV-unprocessed.smi:3095-1

> <Gold.Version>
5.8.1

> <Gold.Id.Protein>
6NUR|6NUR_protein|mol2

> <Gold.PLP.Fitness>
34.0052

> <Gold.PLP.PLP>
-31.1225

> <Gold.PLP.part.hbond>
-2.9979

> <Gold.PLP.part.metal>
0.0000

> <Gold.PLP.part.buried>
-5.4263

> <Gold.PLP.part.nonpolar>
-23.0019

> <Gold.PLP.part.repulsive>
0.3960

> <Gold.PLP.ligand.clash>
0.0000

> <Gold.PLP.ligand.torsion>
0.0637

> <Gold.PLP.Chemscore.Hbond>
1.0000

> <Gold.PLP.Chemscore.CHOScore>
0.0000

> <Gold.PLP.Chemscore.Metal>
0.0000

> <Gold.Chemscore.Hbonds>
donor molecule, donor type, donor heavy atom, donor atom, acceptor molecule, acceptor atom, score
      P1  H  6933  6944       L1    11  1.00

> <Gold.PLP.Chemscore.Internal.Correction>
0.0100

> <Gold.Rescore>
     Score         DG    S(hbond)    S(metal)    S(lipo)     H(rot)  DE(clash)    DE(int)     intcor
     14.52     -14.87       0.95        0.00      75.11       1.00       0.24       0.10       ----

> <Gold.Chemscore.Fitness>
14.5210

> <Gold.Chemscore.DG>
-14.8651

> <Gold.Chemscore.ZeroCoef>
-5.4800

> <Gold.Chemscore.Hbond>
0.9452

> <Gold.Chemscore.Metal>
0.0000

> <Gold.Chemscore.Lipo>
75.1106

> <Gold.Chemscore.Internal_Hbond>
0.0000

> <Gold.Chemscore.DEClash>
0.2401

> <Gold.Chemscore.DEInternal>
0.1040

> <Gold.Chemscore.Rot>
1.0000

> <Gold.Chemscore.Internal.Correction>
   9.000000E+99

> <Gold.Chemscore.Hbonds>
donor molecule, donor type, donor heavy atom, donor atom, acceptor molecule, acceptor atom, score
      P1  H  6933  6944       L1    11  0.73
      P1  H  6933  6945       L1    12  0.01

> <Gold.Chemscore.Hbond.Weighted>
-3.1571

> <Gold.Chemscore.Metal.Weighted>
-0.0000

> <Gold.Chemscore.Lipo.Weighted>
-8.7879

> <Gold.Chemscore.Internal_Hbond.Weighted>
0.0000

> <Gold.Chemscore.DEClash.Weighted>
0.2401

> <Gold.Chemscore.DEInternal.Weighted>
0.1040

> <Gold.Chemscore.Rot.Weighted>
2.5600

> <Gold.Chemscore.Internal.Correction.Weighted>
   9.000000E+99

> <Gold.Protein.RotatedTorsions>
[ 6907 6896 6895 6894 ] final   -8.29 input  -60.11 | X-H torsion
[ 7974 7965 7964 7962 ] final  -42.15 input  175.53 | X-H torsion
[ 8008 7997 7996 7995 ] final  150.00 input   59.86 | X-H torsion
[ 10167 10162 10161 10158 ] final   93.37 input  -65.29 | X-H torsion
[ 10718 10713 10712 10709 ] final   56.93 input   66.30 | X-H torsion
[ 10763 10752 10751 10750 ] final  -25.21 input  -60.55 | X-H torsion
[ 11005 11000 10999 10996 ] final -150.50 input  -57.11 | X-H torsion

> <Gold.Protein.ActiveResidues>
 VAL166  LYS551  ARG553  GLY616  TRP617  ASP618  TYR619  PRO620  LYS621  CYS622 
 ASP623  PHE694  ASN695  SER759  ASP760  ASP761  ALA762  ILE779  LEU786  VAL792 
 PHE793  MET794  SER795  GLU796  ALA797  LYS798  CYS799  TRP800  GLU811  SER814 

> <Gold.Protein.RotatedAtoms>
  151.4360  135.1015  159.9656 H   0  0  0  0  0  0  0  0  0  0  0  0  # atno 6907 bound_to 6896
  152.4939  133.8573  159.7242 H   0  0  0  0  0  0  0  0  0  0  0  0  # atno 6908 bound_to 6896
  150.9121  133.6926  159.2880 H   0  0  0  0  0  0  0  0  0  0  0  0  # atno 6909 bound_to 6896
  146.0143  140.6927  142.9209 H   0  0  0  0  0  0  0  0  0  0  0  0  # atno 7974 bound_to 7965
  156.2733  140.2087  156.5947 H   0  0  0  0  0  0  0  0  0  0  0  0  # atno 8008 bound_to 7997
  154.6954  140.0526  157.0429 H   0  0  0  0  0  0  0  0  0  0  0  0  # atno 8009 bound_to 7997
  155.0808  140.3186  155.4605 H   0  0  0  0  0  0  0  0  0  0  0  0  # atno 8010 bound_to 7997
  139.8186  144.6741  150.9547 H   0  0  0  0  0  0  0  0  0  0  0  0  # atno 10167 bound_to 10162
  157.5472  130.8740  149.8909 H   0  0  0  0  0  0  0  0  0  0  0  0  # atno 10718 bound_to 10713
  153.6962  135.6959  153.5076 H   0  0  0  0  0  0  0  0  0  0  0  0  # atno 10763 bound_to 10752
  153.2376  135.4316  155.0662 H   0  0  0  0  0  0  0  0  0  0  0  0  # atno 10764 bound_to 10752
  154.8358  135.3500  154.6503 H   0  0  0  0  0  0  0  0  0  0  0  0  # atno 10765 bound_to 10752
  140.7396  134.3529  157.5150 H   0  0  0  0  0  0  0  0  0  0  0  0  # atno 11005 bound_to 11000
  144.6965  140.3453  143.7191 LP  0  0  0  0  0  0  0  0  0  0  0  0  # atno 17320 bound_to 7965
  145.7293  139.1732  143.2439 LP  0  0  0  0  0  0  0  0  0  0  0  0  # atno 17321 bound_to 7965
  140.7814  143.4114  151.0987 LP  0  0  0  0  0  0  0  0  0  0  0  0  # atno 17342 bound_to 10162
  139.7776  143.8403  152.3132 LP  0  0  0  0  0  0  0  0  0  0  0  0  # atno 17343 bound_to 10162
  156.0546  130.3711  150.1121 LP  0  0  0  0  0  0  0  0  0  0  0  0  # atno 17370 bound_to 10713
  156.9297  130.9709  151.3535 LP  0  0  0  0  0  0  0  0  0  0  0  0  # atno 17371 bound_to 10713
  139.8809  134.9072  156.2939 LP  0  0  0  0  0  0  0  0  0  0  0  0  # atno 17394 bound_to 11000
  140.9849  133.7244  156.0726 LP  0  0  0  0  0  0  0  0  0  0  0  0  # atno 17395 bound_to 11000

$$$$
