AV-unprocessed.smi:1677|AV-procd|sdf|6722|dock2
  -GOLD-   22720 7463D 1   1.00000     0.00000
 Structure written by MMmdl.
 37 38  0  0  0  0  0  0  0  0  2 V2000
  151.0046  138.2704  156.0910 C   0  0  0  0  0  0  0  0  0  0  0  0
  150.0478  139.4536  155.8917 C   0  0  2  0  0  0  0  0  0  0  0  0
  149.7015  139.6484  154.3999 C   0  0  0  0  0  0  0  0  0  0  0  0
  148.4590  140.4011  154.1958 N   0  0  0  0  0  0  0  0  0  0  0  0
  148.2065  141.6985  154.5617 C   0  0  0  0  0  0  0  0  0  0  0  0
  146.9258  141.9758  154.1583 C   0  0  0  0  0  0  0  0  0  0  0  0
  146.4494  140.8358  153.5682 N   0  3  0  0  0  0  0  0  0  0  0  0
  147.3815  139.8779  153.5960 C   0  0  0  0  0  0  0  0  0  0  0  0
  150.6641  140.6571  156.4483 N   0  0  0  0  0  0  0  0  0  0  0  0
  151.2668  140.7502  157.6444 C   0  0  0  0  0  0  0  0  0  0  0  0
  151.3731  139.8020  158.4232 O   0  0  0  0  0  0  0  0  0  0  0  0
  151.8158  142.1300  158.0273 C   0  0  1  0  0  0  0  0  0  0  0  0
  150.7029  143.2021  157.9769 C   0  0  0  0  0  0  0  0  0  0  0  0
  151.1466  144.5175  158.5924 C   0  0  0  0  0  0  0  0  0  0  0  0
  152.2282  144.6368  159.3811 C   0  0  0  0  0  0  0  0  0  0  0  0
  153.1267  143.4695  159.7499 C   0  0  0  0  0  0  0  0  0  0  0  0
  152.4830  142.1102  159.4170 C   0  0  0  0  0  0  0  0  0  0  0  0
  150.5648  137.3438  155.7209 H   0  0  0  0  0  0  0  0  0  0  0  0
  151.2346  138.1243  157.1471 H   0  0  0  0  0  0  0  0  0  0  0  0
  151.9460  138.4256  155.5626 H   0  0  0  0  0  0  0  0  0  0  0  0
  149.1328  139.2214  156.4401 H   0  0  0  0  0  0  0  0  0  0  0  0
  150.5110  140.1570  153.8732 H   0  0  0  0  0  0  0  0  0  0  0  0
  149.5692  138.6811  153.9140 H   0  0  0  0  0  0  0  0  0  0  0  0
  148.9402  142.3136  155.0620 H   0  0  0  0  0  0  0  0  0  0  0  0
  146.3340  142.8755  154.2437 H   0  0  0  0  0  0  0  0  0  0  0  0
  147.2858  138.8826  153.2001 H   0  0  0  0  0  0  0  0  0  0  0  0
  150.6303  141.4882  155.8755 H   0  0  0  0  0  0  0  0  0  0  0  0
  152.5828  142.4046  157.3001 H   0  0  0  0  0  0  0  0  0  0  0  0
  150.4123  143.3836  156.9414 H   0  0  0  0  0  0  0  0  0  0  0  0
  149.8071  142.8708  158.5041 H   0  0  0  0  0  0  0  0  0  0  0  0
  150.5385  145.3848  158.3810 H   0  0  0  0  0  0  0  0  0  0  0  0
  152.4994  145.6043  159.7777 H   0  0  0  0  0  0  0  0  0  0  0  0
  154.0671  143.5839  159.2100 H   0  0  0  0  0  0  0  0  0  0  0  0
  153.3630  143.5178  160.8131 H   0  0  0  0  0  0  0  0  0  0  0  0
  151.7354  141.8758  160.1767 H   0  0  0  0  0  0  0  0  0  0  0  0
  153.2370  141.3240  159.4748 H   0  0  0  0  0  0  0  0  0  0  0  0
  145.5261  140.7313  153.1665 H   0  0  0  0  0  0  0  0  0  0  0  0
  1  2  1  0  0  0  0
  1 18  1  0  0  0  0
  1 19  1  0  0  0  0
  1 20  1  0  0  0  0
  2  3  1  0  0  0  0
  2  9  1  0  0  0  0
  2 21  1  0  0  0  0
  3  4  1  0  0  0  0
  3 22  1  0  0  0  0
  3 23  1  0  0  0  0
  4  8  1  0  0  0  0
  4  5  1  0  0  0  0
  5  6  2  0  0  0  0
  5 24  1  0  0  0  0
  6  7  1  0  0  0  0
  6 25  1  0  0  0  0
  7  8  2  0  0  0  0
  7 37  1  0  0  0  0
  8 26  1  0  0  0  0
  9 10  1  0  0  0  0
  9 27  1  0  0  0  0
 10 11  2  0  0  0  0
 10 12  1  0  0  0  0
 12 17  1  0  0  0  0
 12 13  1  0  0  0  0
 12 28  1  0  0  0  0
 13 14  1  0  0  0  0
 13 29  1  0  0  0  0
 13 30  1  0  0  0  0
 14 15  2  0  0  0  0
 14 31  1  0  0  0  0
 15 16  1  0  0  0  0
 15 32  1  0  0  0  0
 16 17  1  0  0  0  0
 16 33  1  0  0  0  0
 16 34  1  0  0  0  0
 17 35  1  0  0  0  0
 17 36  1  0  0  0  0
M  CHG  1   7   1
M  END
> <s_m_source_file>
AV-unprocessed.smi

> <i_m_source_file_index>
1677

> <i_lp_mmshare_version>
43012

> <i_f3d_flags>
0

> <s_epik_input>
W2NIXTFuW2NIXVtjSF1uMVtDSDJdW0NAQEhdKFtDSDNdKVtOSF1DKD1PKVtDQEBIXTJbQ0gyXVtDSF09W0NIXVtDSDJdW0NIMl0y

> <s_epik_cmdline>
J2VwaWtfcHl0aG9uJywgJy1waCcsICc3LjAnLCAnLXRuJywgJzgnLCAnLW1hJywgJzIwMCcsICctbWV0YWxfYmluZGluZycsICctaW1hZScsICc8aW5maWxlLm1hZT4nLCAnLW9tYWUnLCAnPG91dGZpbGUubWFlPic=

> <r_lp_tautomer_probability>
1

> <r_epik_Ionization_Penalty>
0.245541

> <r_epik_Ionization_Penalty_Charging>
0

> <r_epik_Ionization_Penalty_Neutral>
0.245541

> <r_epik_State_Penalty>
0.236686

> <r_epik_Charging_Adjusted_Penalty>
0.236686

> <i_epik_Tot_Q>
1

> <i_epik_Tot_abs_Q>
1

> <r_epik_Metal_State_Penalty>
0.529594

> <b_epik_Metal_Only>
0

> <s_lp_Force_Field>
OPLS_2005

> <r_lp_Energy>
10.8943

> <b_lp_Chiralities_Consistent>
1

> <s_lp_Variant>
AV-unprocessed.smi:1677-3

> <Gold.Version>
5.8.1

> <Gold.Id.Protein>
6NUR|6NUR_protein|mol2

> <Gold.PLP.Fitness>
45.2369

> <Gold.PLP.PLP>
-36.9114

> <Gold.PLP.part.hbond>
-1.0000

> <Gold.PLP.part.metal>
0.0000

> <Gold.PLP.part.buried>
-3.6392

> <Gold.PLP.part.nonpolar>
-32.1797

> <Gold.PLP.part.repulsive>
0.0962

> <Gold.PLP.ligand.clash>
0.0000

> <Gold.PLP.ligand.torsion>
0.3556

> <Gold.PLP.Chemscore.Hbond>
2.0000

> <Gold.PLP.Chemscore.CHOScore>
0.9937

> <Gold.PLP.Chemscore.Metal>
0.0000

> <Gold.Chemscore.Hbonds>
donor molecule, donor type, donor heavy atom, donor atom, acceptor molecule, acceptor atom, score
      L1  H     7    37       P1 10175  2.00
      L1  C     5    24       P1  8028  0.99

> <Gold.PLP.Chemscore.Internal.Correction>
0.0558

> <Gold.Rescore>
     Score         DG    S(hbond)    S(metal)    S(lipo)     H(rot)  DE(clash)    DE(int)     intcor
     13.73     -15.40       0.97        0.00      96.92       1.81       0.02       1.65       ----

> <Gold.Chemscore.Fitness>
13.7289

> <Gold.Chemscore.DG>
-15.4001

> <Gold.Chemscore.ZeroCoef>
-5.4800

> <Gold.Chemscore.Hbond>
0.9657

> <Gold.Chemscore.Metal>
0.0000

> <Gold.Chemscore.Lipo>
96.9249

> <Gold.Chemscore.Internal_Hbond>
0.0000

> <Gold.Chemscore.DEClash>
0.0216

> <Gold.Chemscore.DEInternal>
1.6496

> <Gold.Chemscore.Rot>
1.8147

> <Gold.Chemscore.Internal.Correction>
   9.000000E+99

> <Gold.Chemscore.Hbonds>
donor molecule, donor type, donor heavy atom, donor atom, acceptor molecule, acceptor atom, score
      L1  H     7    37       P1 10175  0.73

> <Gold.Chemscore.Hbond.Weighted>
-3.2255

> <Gold.Chemscore.Metal.Weighted>
-0.0000

> <Gold.Chemscore.Lipo.Weighted>
-11.3402

> <Gold.Chemscore.Internal_Hbond.Weighted>
0.0000

> <Gold.Chemscore.DEClash.Weighted>
0.0216

> <Gold.Chemscore.DEInternal.Weighted>
1.6496

> <Gold.Chemscore.Rot.Weighted>
4.6456

> <Gold.Chemscore.Internal.Correction.Weighted>
   9.000000E+99

> <Gold.Protein.RotatedTorsions>
[ 6907 6896 6895 6894 ] final   44.97 input  -60.11 | X-H torsion
[ 7974 7965 7964 7962 ] final  -79.82 input  175.53 | X-H torsion
[ 8008 7997 7996 7995 ] final -157.36 input   59.86 | X-H torsion
[ 10167 10162 10161 10158 ] final -175.95 input  -65.29 | X-H torsion
[ 10718 10713 10712 10709 ] final -151.04 input   66.30 | X-H torsion
[ 10763 10752 10751 10750 ] final   22.77 input  -60.55 | X-H torsion
[ 11005 11000 10999 10996 ] final  -86.60 input  -57.11 | X-H torsion

> <Gold.Protein.ActiveResidues>
 VAL166  LYS551  ARG553  GLY616  TRP617  ASP618  TYR619  PRO620  LYS621  CYS622 
 ASP623  PHE694  ASN695  SER759  ASP760  ASP761  ALA762  ILE779  LEU786  VAL792 
 PHE793  MET794  SER795  GLU796  ALA797  LYS798  CYS799  TRP800  GLU811  SER814 

> <Gold.Protein.RotatedAtoms>
  152.2390  134.8247  160.0462 H   0  0  0  0  0  0  0  0  0  0  0  0  # atno 6907 bound_to 6896
  151.8969  133.3524  159.3825 H   0  0  0  0  0  0  0  0  0  0  0  0  # atno 6908 bound_to 6896
  150.7048  134.4793  159.5507 H   0  0  0  0  0  0  0  0  0  0  0  0  # atno 6909 bound_to 6896
  145.5681  140.9470  143.1410 H   0  0  0  0  0  0  0  0  0  0  0  0  # atno 7974 bound_to 7965
  155.7312  140.0802  157.2288 H   0  0  0  0  0  0  0  0  0  0  0  0  # atno 8008 bound_to 7997
  154.4033  140.1595  156.2565 H   0  0  0  0  0  0  0  0  0  0  0  0  # atno 8009 bound_to 7997
  155.9107  140.3404  155.6099 H   0  0  0  0  0  0  0  0  0  0  0  0  # atno 8010 bound_to 7997
  139.5554  144.2002  152.1151 H   0  0  0  0  0  0  0  0  0  0  0  0  # atno 10167 bound_to 10162
  156.4541  130.8182  151.2413 H   0  0  0  0  0  0  0  0  0  0  0  0  # atno 10718 bound_to 10713
  153.0889  135.6641  153.9893 H   0  0  0  0  0  0  0  0  0  0  0  0  # atno 10763 bound_to 10752
  153.9494  135.2985  155.3440 H   0  0  0  0  0  0  0  0  0  0  0  0  # atno 10764 bound_to 10752
  154.7301  135.5126  153.9023 H   0  0  0  0  0  0  0  0  0  0  0  0  # atno 10765 bound_to 10752
  141.1628  133.7464  156.9185 H   0  0  0  0  0  0  0  0  0  0  0  0  # atno 11005 bound_to 11000
  144.7450  139.7343  143.7295 LP  0  0  0  0  0  0  0  0  0  0  0  0  # atno 17320 bound_to 7965
  146.1803  139.4993  142.9870 LP  0  0  0  0  0  0  0  0  0  0  0  0  # atno 17321 bound_to 7965
  140.1505  144.5119  150.6690 LP  0  0  0  0  0  0  0  0  0  0  0  0  # atno 17342 bound_to 10162
  140.6826  143.2334  151.5344 LP  0  0  0  0  0  0  0  0  0  0  0  0  # atno 17343 bound_to 10162
  157.7501  131.0128  150.3401 LP  0  0  0  0  0  0  0  0  0  0  0  0  # atno 17370 bound_to 10713
  156.3786  130.3876  149.7119 LP  0  0  0  0  0  0  0  0  0  0  0  0  # atno 17371 bound_to 10713
  140.1467  134.9257  157.2539 LP  0  0  0  0  0  0  0  0  0  0  0  0  # atno 17394 bound_to 11000
  140.2771  134.3393  155.7355 LP  0  0  0  0  0  0  0  0  0  0  0  0  # atno 17395 bound_to 11000

$$$$
