AV-unprocessed.smi:2390|AV-procd|sdf|9479|dock8
  -GOLD-   2272013113D 1   1.00000     0.00000
 Structure written by MMmdl.
 46 47  0  0  0  0  0  0  0  0  2 V2000
  153.1849  142.0749  160.9905 C   0  0  0  0  0  0  0  0  0  0  0  0
  152.2923  143.0877  160.3042 C   0  0  0  0  0  0  0  0  0  0  0  0
  152.1775  144.4036  160.7933 C   0  0  0  0  0  0  0  0  0  0  0  0
  151.3312  145.2941  160.1087 C   0  0  0  0  0  0  0  0  0  0  0  0
  150.6384  144.8352  158.9716 C   0  0  0  0  0  0  0  0  0  0  0  0
  150.8110  143.4990  158.5456 C   0  0  0  0  0  0  0  0  0  0  0  0
  150.0645  143.1307  157.3948 N   0  0  0  0  0  0  0  0  0  0  0  0
  149.6390  141.9052  157.0426 C   0  0  0  0  0  0  0  0  0  0  0  0
  149.9001  140.8621  157.6419 O   0  0  0  0  0  0  0  0  0  0  0  0
  148.8683  141.9534  155.9450 N   0  0  0  0  0  0  0  0  0  0  0  0
  148.2419  140.8102  155.2747 C   0  0  2  0  0  0  0  0  0  0  0  0
  149.2893  140.1773  154.3433 C   0  0  0  0  0  0  0  0  0  0  0  0
  146.9434  141.2372  154.5309 C   0  0  1  0  0  0  0  0  0  0  0  0
  147.0780  142.5915  153.8009 C   0  0  0  0  0  0  0  0  0  0  0  0
  146.4491  140.1527  153.6306 N   0  3  0  0  0  0  0  0  0  0  0  0
  147.0959  140.1184  152.2975 C   0  0  0  0  0  0  0  0  0  0  0  0
  146.3739  139.1039  151.3931 C   0  0  0  0  0  0  0  0  0  0  0  0
  146.3658  137.8225  152.0123 O   0  0  0  0  0  0  0  0  0  0  0  0
  145.6835  137.8332  153.2614 C   0  0  0  0  0  0  0  0  0  0  0  0
  146.4019  138.7924  154.2235 C   0  0  0  0  0  0  0  0  0  0  0  0
  151.6277  142.6470  159.2144 N   0  0  0  0  0  0  0  0  0  0  0  0
  153.7250  142.5238  161.8247 H   0  0  0  0  0  0  0  0  0  0  0  0
  153.9169  141.6760  160.2876 H   0  0  0  0  0  0  0  0  0  0  0  0
  152.5906  141.2460  161.3759 H   0  0  0  0  0  0  0  0  0  0  0  0
  152.7221  144.7254  161.6688 H   0  0  0  0  0  0  0  0  0  0  0  0
  151.2141  146.3124  160.4495 H   0  0  0  0  0  0  0  0  0  0  0  0
  149.9838  145.5068  158.4353 H   0  0  0  0  0  0  0  0  0  0  0  0
  149.8052  143.8920  156.7850 H   0  0  0  0  0  0  0  0  0  0  0  0
  148.7150  142.8574  155.5217 H   0  0  0  0  0  0  0  0  0  0  0  0
  147.9884  140.0565  156.0220 H   0  0  0  0  0  0  0  0  0  0  0  0
  148.9339  139.2417  153.9123 H   0  0  0  0  0  0  0  0  0  0  0  0
  150.2060  139.9454  154.8868 H   0  0  0  0  0  0  0  0  0  0  0  0
  149.5507  140.8469  153.5232 H   0  0  0  0  0  0  0  0  0  0  0  0
  146.1847  141.3697  155.3039 H   0  0  0  0  0  0  0  0  0  0  0  0
  147.2350  143.4084  154.5047 H   0  0  0  0  0  0  0  0  0  0  0  0
  146.1764  142.8347  153.2389 H   0  0  0  0  0  0  0  0  0  0  0  0
  147.9178  142.5949  153.1055 H   0  0  0  0  0  0  0  0  0  0  0  0
  147.0587  141.1058  151.8359 H   0  0  0  0  0  0  0  0  0  0  0  0
  148.1477  139.8484  152.3993 H   0  0  0  0  0  0  0  0  0  0  0  0
  145.3513  139.4256  151.1885 H   0  0  0  0  0  0  0  0  0  0  0  0
  146.8820  139.0288  150.4316 H   0  0  0  0  0  0  0  0  0  0  0  0
  144.6417  138.1264  153.1214 H   0  0  0  0  0  0  0  0  0  0  0  0
  145.6787  136.8230  153.6709 H   0  0  0  0  0  0  0  0  0  0  0  0
  147.4112  138.4246  154.4119 H   0  0  0  0  0  0  0  0  0  0  0  0
  145.8828  138.8109  155.1814 H   0  0  0  0  0  0  0  0  0  0  0  0
  145.4869  140.3978  153.4442 H   0  0  0  0  0  0  0  0  0  0  0  0
  1  2  1  0  0  0  0
  1 22  1  0  0  0  0
  1 23  1  0  0  0  0
  1 24  1  0  0  0  0
  2 21  1  0  0  0  0
  2  3  2  0  0  0  0
  3  4  1  0  0  0  0
  3 25  1  0  0  0  0
  4  5  2  0  0  0  0
  4 26  1  0  0  0  0
  5  6  1  0  0  0  0
  5 27  1  0  0  0  0
  6  7  1  0  0  0  0
  6 21  2  0  0  0  0
  7  8  1  0  0  0  0
  7 28  1  0  0  0  0
  8  9  2  0  0  0  0
  8 10  1  0  0  0  0
 10 11  1  0  0  0  0
 10 29  1  0  0  0  0
 11 12  1  0  0  0  0
 11 13  1  0  0  0  0
 11 30  1  0  0  0  0
 12 31  1  0  0  0  0
 12 32  1  0  0  0  0
 12 33  1  0  0  0  0
 13 14  1  0  0  0  0
 13 15  1  0  0  0  0
 13 34  1  0  0  0  0
 14 35  1  0  0  0  0
 14 36  1  0  0  0  0
 14 37  1  0  0  0  0
 15 20  1  0  0  0  0
 15 16  1  0  0  0  0
 15 46  1  0  0  0  0
 16 17  1  0  0  0  0
 16 38  1  0  0  0  0
 16 39  1  0  0  0  0
 17 18  1  0  0  0  0
 17 40  1  0  0  0  0
 17 41  1  0  0  0  0
 18 19  1  0  0  0  0
 19 20  1  0  0  0  0
 19 42  1  0  0  0  0
 19 43  1  0  0  0  0
 20 44  1  0  0  0  0
 20 45  1  0  0  0  0
M  CHG  1  15   1
M  END
> <s_m_source_file>
AV-unprocessed.smi

> <i_m_source_file_index>
2390

> <i_lp_mmshare_version>
43012

> <i_f3d_flags>
0

> <s_epik_input>
W0NIM11jMVtjSF1bY0hdW2NIXWMobjEpW05IXUMoPU8pW05IXVtDQEhdKFtDSDNdKVtDQEhdKFtDSDNdKU4yW0NIMl1bQ0gyXU9bQ0gyXVtDSDJdMg==

> <s_epik_cmdline>
J2VwaWtfcHl0aG9uJywgJy1waCcsICc3LjAnLCAnLXRuJywgJzgnLCAnLW1hJywgJzIwMCcsICctbWV0YWxfYmluZGluZycsICctaW1hZScsICc8aW5maWxlLm1hZT4nLCAnLW9tYWUnLCAnPG91dGZpbGUubWFlPic=

> <r_epik_Ionization_Penalty>
0.60259

> <r_epik_Ionization_Penalty_Charging>
0.602531

> <r_epik_Ionization_Penalty_Neutral>
5.9516e-05

> <r_epik_State_Penalty>
0.617039

> <r_epik_Charging_Adjusted_Penalty>
1.21957

> <i_epik_Tot_Q>
1

> <i_epik_Tot_abs_Q>
1

> <r_epik_Metal_State_Penalty>
0.617047

> <b_epik_Metal_Only>
0

> <s_lp_Force_Field>
OPLS_2005

> <r_lp_Energy>
26.9068

> <b_lp_Chiralities_Consistent>
1

> <s_lp_Variant>
AV-unprocessed.smi:2390-7

> <Gold.Version>
5.8.1

> <Gold.Id.Protein>
6NUR|6NUR_protein|mol2

> <Gold.PLP.Fitness>
48.5531

> <Gold.PLP.PLP>
-38.6491

> <Gold.PLP.part.hbond>
-3.0000

> <Gold.PLP.part.metal>
0.0000

> <Gold.PLP.part.buried>
-1.6226

> <Gold.PLP.part.nonpolar>
-35.4774

> <Gold.PLP.part.repulsive>
0.8859

> <Gold.PLP.ligand.clash>
0.0005

> <Gold.PLP.ligand.torsion>
0.9850

> <Gold.PLP.Chemscore.Hbond>
3.9100

> <Gold.PLP.Chemscore.CHOScore>
0.0000

> <Gold.PLP.Chemscore.Metal>
0.0000

> <Gold.Chemscore.Hbonds>
donor molecule, donor type, donor heavy atom, donor atom, acceptor molecule, acceptor atom, score
      L1  H     7    28       P1  8028  1.00
      L1  H    10    29       P1  8028  0.98
      L1  H    15    46       P1 10175  1.92

> <Gold.PLP.Chemscore.Internal.Correction>
0.1445

> <Gold.Rescore>
     Score         DG    S(hbond)    S(metal)    S(lipo)     H(rot)  DE(clash)    DE(int)     intcor
     18.67     -23.78       2.81        0.00     108.57       1.48       1.86       3.25       ----

> <Gold.Chemscore.Fitness>
18.6705

> <Gold.Chemscore.DG>
-23.7815

> <Gold.Chemscore.ZeroCoef>
-5.4800

> <Gold.Chemscore.Hbond>
2.8140

> <Gold.Chemscore.Metal>
0.0000

> <Gold.Chemscore.Lipo>
108.5716

> <Gold.Chemscore.Internal_Hbond>
0.0000

> <Gold.Chemscore.DEClash>
1.8635

> <Gold.Chemscore.DEInternal>
3.2475

> <Gold.Chemscore.Rot>
1.4844

> <Gold.Chemscore.Internal.Correction>
   9.000000E+99

> <Gold.Chemscore.Hbonds>
donor molecule, donor type, donor heavy atom, donor atom, acceptor molecule, acceptor atom, score
      L1  H     7    28       P1  8028  0.97
      L1  H    10    29       P1  8028  0.93
      L1  H    15    46       P1 10175  0.90

> <Gold.Chemscore.Hbond.Weighted>
-9.3986

> <Gold.Chemscore.Metal.Weighted>
-0.0000

> <Gold.Chemscore.Lipo.Weighted>
-12.7029

> <Gold.Chemscore.Internal_Hbond.Weighted>
0.0000

> <Gold.Chemscore.DEClash.Weighted>
1.8635

> <Gold.Chemscore.DEInternal.Weighted>
3.2475

> <Gold.Chemscore.Rot.Weighted>
3.8000

> <Gold.Chemscore.Internal.Correction.Weighted>
   9.000000E+99

> <Gold.Protein.RotatedTorsions>
[ 6907 6896 6895 6894 ] final  155.56 input  -60.11 | X-H torsion
[ 7974 7965 7964 7962 ] final  -51.59 input  175.53 | X-H torsion
[ 8008 7997 7996 7995 ] final   82.29 input   59.86 | X-H torsion
[ 10167 10162 10161 10158 ] final -172.71 input  -65.29 | X-H torsion
[ 10718 10713 10712 10709 ] final    8.71 input   66.30 | X-H torsion
[ 10763 10752 10751 10750 ] final   49.61 input  -60.55 | X-H torsion
[ 11005 11000 10999 10996 ] final -131.34 input  -57.11 | X-H torsion

> <Gold.Protein.ActiveResidues>
 VAL166  LYS551  ARG553  GLY616  TRP617  ASP618  TYR619  PRO620  LYS621  CYS622 
 ASP623  PHE694  ASN695  SER759  ASP760  ASP761  ALA762  ILE779  LEU786  VAL792 
 PHE793  MET794  SER795  GLU796  ALA797  LYS798  CYS799  TRP800  GLU811  SER814 

> <Gold.Protein.RotatedAtoms>
  152.0424  133.3983  159.4342 H   0  0  0  0  0  0  0  0  0  0  0  0  # atno 6907 bound_to 6896
  150.6875  134.3400  159.4873 H   0  0  0  0  0  0  0  0  0  0  0  0  # atno 6908 bound_to 6896
  152.1200  134.9212  160.0614 H   0  0  0  0  0  0  0  0  0  0  0  0  # atno 6909 bound_to 6896
  145.9173  140.7864  142.9665 H   0  0  0  0  0  0  0  0  0  0  0  0  # atno 7974 bound_to 7965
  155.9087  140.3429  155.6081 H   0  0  0  0  0  0  0  0  0  0  0  0  # atno 8008 bound_to 7997
  155.7414  140.0808  157.2263 H   0  0  0  0  0  0  0  0  0  0  0  0  # atno 8009 bound_to 7997
  154.4053  140.1570  156.2607 H   0  0  0  0  0  0  0  0  0  0  0  0  # atno 8010 bound_to 7997
  139.5729  144.1600  152.1409 H   0  0  0  0  0  0  0  0  0  0  0  0  # atno 10167 bound_to 10162
  156.9556  130.5913  149.5659 H   0  0  0  0  0  0  0  0  0  0  0  0  # atno 10718 bound_to 10713
  152.9786  135.5906  154.4117 H   0  0  0  0  0  0  0  0  0  0  0  0  # atno 10763 bound_to 10752
  154.3751  135.2767  155.2246 H   0  0  0  0  0  0  0  0  0  0  0  0  # atno 10764 bound_to 10752
  154.4184  135.6065  153.6049 H   0  0  0  0  0  0  0  0  0  0  0  0  # atno 10765 bound_to 10752
  140.9267  134.1373  157.4269 H   0  0  0  0  0  0  0  0  0  0  0  0  # atno 11005 bound_to 11000
  144.6749  140.1919  143.7396 LP  0  0  0  0  0  0  0  0  0  0  0  0  # atno 17320 bound_to 7965
  145.8596  139.2216  143.1724 LP  0  0  0  0  0  0  0  0  0  0  0  0  # atno 17321 bound_to 7965
  140.1136  144.5435  150.6908 LP  0  0  0  0  0  0  0  0  0  0  0  0  # atno 17342 bound_to 10162
  140.7013  143.2437  151.4856 LP  0  0  0  0  0  0  0  0  0  0  0  0  # atno 17343 bound_to 10162
  156.0344  130.5433  150.8616 LP  0  0  0  0  0  0  0  0  0  0  0  0  # atno 17370 bound_to 10713
  157.5692  131.0946  150.9443 LP  0  0  0  0  0  0  0  0  0  0  0  0  # atno 17371 bound_to 10713
  139.8787  134.9991  156.5935 LP  0  0  0  0  0  0  0  0  0  0  0  0  # atno 17394 bound_to 11000
  140.7916  133.8577  155.8651 LP  0  0  0  0  0  0  0  0  0  0  0  0  # atno 17395 bound_to 11000

$$$$
