AV-unprocessed.smi:671|AV-procd|sdf|3283|dock1
  -GOLD-   22720 0243D 1   1.00000     0.00000
 Structure written by MMmdl.
 50 51  0  0  0  0  0  0  0  0  2 V2000
  148.4036  141.4634  153.4847 C   0  0  0  0  0  0  0  0  0  0  0  0
  149.3059  141.2680  154.6571 C   0  0  0  0  0  0  0  0  0  0  0  0
  149.7619  142.2750  155.4490 N   0  3  0  0  0  0  0  0  0  0  0  0
  150.5534  141.7840  156.4128 N   0  0  0  0  0  0  0  0  0  0  0  0
  151.1551  142.7058  157.3765 C   0  0  0  0  0  0  0  0  0  0  0  0
  150.6564  140.4299  156.2953 C   0  0  0  0  0  0  0  0  0  0  0  0
  151.4664  139.5673  157.2083 C   0  0  0  0  0  0  0  0  0  0  0  0
  149.8653  140.0987  155.1862 C   0  0  0  0  0  0  0  0  0  0  0  0
  149.6435  138.7166  154.6358 C   0  0  0  0  0  0  0  0  0  0  0  0
  148.3055  138.0919  155.0776 C   0  0  2  0  0  0  0  0  0  0  0  0
  148.3896  137.3852  156.4426 C   0  0  0  0  0  0  0  0  0  0  0  0
  147.8633  137.1441  154.0521 N   0  0  0  0  0  0  0  0  0  0  0  0
  146.6947  136.4818  153.9738 C   0  0  0  0  0  0  0  0  0  0  0  0
  145.8145  136.6231  154.8198 O   0  0  0  0  0  0  0  0  0  0  0  0
  146.5805  135.6747  152.9056 N   0  0  0  0  0  0  0  0  0  0  0  0
  145.4479  134.8017  152.5988 C   0  0  1  0  0  0  0  0  0  0  0  0
  144.7675  135.2540  151.2900 C   0  0  0  0  0  0  0  0  0  0  0  0
  144.8016  134.0523  150.3409 C   0  0  0  0  0  0  0  0  0  0  0  0
  145.9541  133.1876  150.8433 C   0  0  0  0  0  0  0  0  0  0  0  0
  145.8871  133.3368  152.3642 C   0  0  1  0  0  0  0  0  0  0  0  0
  147.1627  132.8699  153.0886 C   0  0  0  0  0  0  0  0  0  0  0  0
  147.5788  140.7519  153.5159 H   0  0  0  0  0  0  0  0  0  0  0  0
  148.9569  141.3138  152.5575 H   0  0  0  0  0  0  0  0  0  0  0  0
  147.9881  142.4714  153.4830 H   0  0  0  0  0  0  0  0  0  0  0  0
  151.1263  142.2577  158.3699 H   0  0  0  0  0  0  0  0  0  0  0  0
  150.6025  143.6463  157.3916 H   0  0  0  0  0  0  0  0  0  0  0  0
  152.1902  142.8934  157.0900 H   0  0  0  0  0  0  0  0  0  0  0  0
  151.3581  138.5136  156.9550 H   0  0  0  0  0  0  0  0  0  0  0  0
  151.1419  139.7041  158.2398 H   0  0  0  0  0  0  0  0  0  0  0  0
  152.5213  139.8327  157.1371 H   0  0  0  0  0  0  0  0  0  0  0  0
  149.6698  138.7604  153.5460 H   0  0  0  0  0  0  0  0  0  0  0  0
  150.4667  138.0572  154.9120 H   0  0  0  0  0  0  0  0  0  0  0  0
  147.5815  138.9041  155.1552 H   0  0  0  0  0  0  0  0  0  0  0  0
  148.6601  138.0807  157.2369 H   0  0  0  0  0  0  0  0  0  0  0  0
  149.1317  136.5863  156.4307 H   0  0  0  0  0  0  0  0  0  0  0  0
  147.4319  136.9420  156.7178 H   0  0  0  0  0  0  0  0  0  0  0  0
  148.5031  137.0048  153.2831 H   0  0  0  0  0  0  0  0  0  0  0  0
  147.3565  135.6418  152.2611 H   0  0  0  0  0  0  0  0  0  0  0  0
  144.7204  134.8249  153.4120 H   0  0  0  0  0  0  0  0  0  0  0  0
  143.7451  135.5919  151.4623 H   0  0  0  0  0  0  0  0  0  0  0  0
  145.3048  136.0895  150.8380 H   0  0  0  0  0  0  0  0  0  0  0  0
  143.8669  133.4959  150.4234 H   0  0  0  0  0  0  0  0  0  0  0  0
  144.9210  134.3449  149.2974 H   0  0  0  0  0  0  0  0  0  0  0  0
  145.8693  132.1498  150.5192 H   0  0  0  0  0  0  0  0  0  0  0  0
  146.9000  133.5798  150.4671 H   0  0  0  0  0  0  0  0  0  0  0  0
  145.0686  132.7027  152.7092 H   0  0  0  0  0  0  0  0  0  0  0  0
  148.0461  133.4098  152.7464 H   0  0  0  0  0  0  0  0  0  0  0  0
  147.3400  131.8088  152.9123 H   0  0  0  0  0  0  0  0  0  0  0  0
  147.0757  133.0149  154.1658 H   0  0  0  0  0  0  0  0  0  0  0  0
  149.5749  143.2675  155.3801 H   0  0  0  0  0  0  0  0  0  0  0  0
  1  2  1  0  0  0  0
  1 22  1  0  0  0  0
  1 23  1  0  0  0  0
  1 24  1  0  0  0  0
  2  8  1  0  0  0  0
  2  3  2  0  0  0  0
  3  4  1  0  0  0  0
  3 50  1  0  0  0  0
  4  5  1  0  0  0  0
  4  6  1  0  0  0  0
  5 25  1  0  0  0  0
  5 26  1  0  0  0  0
  5 27  1  0  0  0  0
  6  7  1  0  0  0  0
  6  8  2  0  0  0  0
  7 28  1  0  0  0  0
  7 29  1  0  0  0  0
  7 30  1  0  0  0  0
  8  9  1  0  0  0  0
  9 10  1  0  0  0  0
  9 31  1  0  0  0  0
  9 32  1  0  0  0  0
 10 11  1  0  0  0  0
 10 12  1  0  0  0  0
 10 33  1  0  0  0  0
 11 34  1  0  0  0  0
 11 35  1  0  0  0  0
 11 36  1  0  0  0  0
 12 13  1  0  0  0  0
 12 37  1  0  0  0  0
 13 14  2  0  0  0  0
 13 15  1  0  0  0  0
 15 16  1  0  0  0  0
 15 38  1  0  0  0  0
 16 20  1  0  0  0  0
 16 17  1  0  0  0  0
 16 39  1  0  0  0  0
 17 18  1  0  0  0  0
 17 40  1  0  0  0  0
 17 41  1  0  0  0  0
 18 19  1  0  0  0  0
 18 42  1  0  0  0  0
 18 43  1  0  0  0  0
 19 20  1  0  0  0  0
 19 44  1  0  0  0  0
 19 45  1  0  0  0  0
 20 21  1  0  0  0  0
 20 46  1  0  0  0  0
 21 47  1  0  0  0  0
 21 48  1  0  0  0  0
 21 49  1  0  0  0  0
M  CHG  1   3   1
M  END
> <s_m_source_file>
AV-unprocessed.smi

> <i_m_source_file_index>
671

> <i_lp_mmshare_version>
43012

> <i_f3d_flags>
0

> <s_epik_input>
W0NIM11jMW5uKFtDSDNdKWMoW0NIM10pYzFbQ0gyXVtDQEhdKFtDSDNdKVtOSF1DKD1PKVtOSF1bQ0BASF0yW0NIMl1bQ0gyXVtDSDJdW0NASF0yW0NIM10=

> <s_epik_cmdline>
J2VwaWtfcHl0aG9uJywgJy1waCcsICc3LjAnLCAnLXRuJywgJzgnLCAnLW1hJywgJzIwMCcsICctbWV0YWxfYmluZGluZycsICctaW1hZScsICc8aW5maWxlLm1hZT4nLCAnLW9tYWUnLCAnPG91dGZpbGUubWFlPic=

> <r_lp_tautomer_probability>
1

> <r_epik_Ionization_Penalty>
2.28705

> <r_epik_Ionization_Penalty_Charging>
2.28698

> <r_epik_Ionization_Penalty_Neutral>
6.23157e-05

> <r_epik_State_Penalty>
2.43671

> <r_epik_Charging_Adjusted_Penalty>
4.72369

> <i_epik_Tot_Q>
1

> <i_epik_Tot_abs_Q>
1

> <r_epik_Metal_State_Penalty>
2.44911

> <b_epik_Metal_Only>
0

> <s_lp_Force_Field>
OPLS_2005

> <r_lp_Energy>
36.6945

> <b_lp_Chiralities_Consistent>
1

> <s_lp_Variant>
AV-unprocessed.smi:671-11

> <Gold.Version>
5.8.1

> <Gold.Id.Protein>
6NUR|6NUR_protein|mol2

> <Gold.PLP.Fitness>
46.6663

> <Gold.PLP.PLP>
-36.2775

> <Gold.PLP.part.hbond>
-2.7319

> <Gold.PLP.part.metal>
0.0000

> <Gold.PLP.part.buried>
-3.9185

> <Gold.PLP.part.nonpolar>
-30.3262

> <Gold.PLP.part.repulsive>
0.2264

> <Gold.PLP.ligand.clash>
0.0000

> <Gold.PLP.ligand.torsion>
0.6524

> <Gold.PLP.Chemscore.Hbond>
3.8400

> <Gold.PLP.Chemscore.CHOScore>
0.0000

> <Gold.PLP.Chemscore.Metal>
0.0000

> <Gold.Chemscore.Hbonds>
donor molecule, donor type, donor heavy atom, donor atom, acceptor molecule, acceptor atom, score
      L1  H     3    50       P1  8028  2.00
      L1  H    12    37       P1  7948  1.00
      L1  H    15    38       P1  7948  0.98

> <Gold.PLP.Chemscore.Internal.Correction>
0.1735

> <Gold.Rescore>
     Score         DG    S(hbond)    S(metal)    S(lipo)     H(rot)  DE(clash)    DE(int)     intcor
     19.65     -20.83       2.83        0.00      83.26       1.51       0.02       1.16       ----

> <Gold.Chemscore.Fitness>
19.6513

> <Gold.Chemscore.DG>
-20.8347

> <Gold.Chemscore.ZeroCoef>
-5.4800

> <Gold.Chemscore.Hbond>
2.8347

> <Gold.Chemscore.Metal>
0.0000

> <Gold.Chemscore.Lipo>
83.2599

> <Gold.Chemscore.Internal_Hbond>
0.0000

> <Gold.Chemscore.DEClash>
0.0208

> <Gold.Chemscore.DEInternal>
1.1626

> <Gold.Chemscore.Rot>
1.5057

> <Gold.Chemscore.Internal.Correction>
   9.000000E+99

> <Gold.Chemscore.Hbonds>
donor molecule, donor type, donor heavy atom, donor atom, acceptor molecule, acceptor atom, score
      L1  H     3    50       P1  8028  0.99
      L1  H    12    37       P1  7948  0.96
      L1  H    15    38       P1  7948  0.93

> <Gold.Chemscore.Hbond.Weighted>
-9.4680

> <Gold.Chemscore.Metal.Weighted>
-0.0000

> <Gold.Chemscore.Lipo.Weighted>
-9.7414

> <Gold.Chemscore.Internal_Hbond.Weighted>
0.0000

> <Gold.Chemscore.DEClash.Weighted>
0.0208

> <Gold.Chemscore.DEInternal.Weighted>
1.1626

> <Gold.Chemscore.Rot.Weighted>
3.8547

> <Gold.Chemscore.Internal.Correction.Weighted>
   9.000000E+99

> <Gold.Protein.RotatedTorsions>
[ 6907 6896 6895 6894 ] final -102.95 input  -60.11 | X-H torsion
[ 7974 7965 7964 7962 ] final   40.75 input  175.53 | X-H torsion
[ 8008 7997 7996 7995 ] final -127.67 input   59.86 | X-H torsion
[ 10167 10162 10161 10158 ] final  -12.96 input  -65.29 | X-H torsion
[ 10718 10713 10712 10709 ] final  119.23 input   66.30 | X-H torsion
[ 10763 10752 10751 10750 ] final  -67.77 input  -60.55 | X-H torsion
[ 11005 11000 10999 10996 ] final  143.43 input  -57.11 | X-H torsion

> <Gold.Protein.ActiveResidues>
 VAL166  LYS551  ARG553  GLY616  TRP617  ASP618  TYR619  PRO620  LYS621  CYS622 
 ASP623  PHE694  ASN695  SER759  ASP760  ASP761  ALA762  ILE779  LEU786  VAL792 
 PHE793  MET794  SER795  GLU796  ALA797  LYS798  CYS799  TRP800  GLU811  SER814 

> <Gold.Protein.RotatedAtoms>
  150.7218  134.0503  159.3795 H   0  0  0  0  0  0  0  0  0  0  0  0  # atno 6907 bound_to 6896
  151.8480  135.0565  160.0465 H   0  0  0  0  0  0  0  0  0  0  0  0  # atno 6908 bound_to 6896
  152.2812  133.5436  159.5535 H   0  0  0  0  0  0  0  0  0  0  0  0  # atno 6909 bound_to 6896
  146.0880  139.5497  142.9494 H   0  0  0  0  0  0  0  0  0  0  0  0  # atno 7974 bound_to 7965
  155.2500  140.0432  157.2985 H   0  0  0  0  0  0  0  0  0  0  0  0  # atno 8008 bound_to 7997
  154.5775  140.2391  155.8071 H   0  0  0  0  0  0  0  0  0  0  0  0  # atno 8009 bound_to 7997
  156.2169  140.2982  155.9868 H   0  0  0  0  0  0  0  0  0  0  0  0  # atno 8010 bound_to 7997
  140.7172  143.5477  150.9336 H   0  0  0  0  0  0  0  0  0  0  0  0  # atno 10167 bound_to 10162
  157.5976  131.1056  150.7867 H   0  0  0  0  0  0  0  0  0  0  0  0  # atno 10718 bound_to 10713
  154.3793  135.6077  153.5782 H   0  0  0  0  0  0  0  0  0  0  0  0  # atno 10763 bound_to 10752
  152.9788  135.5857  154.4429 H   0  0  0  0  0  0  0  0  0  0  0  0  # atno 10764 bound_to 10752
  154.4196  135.2845  155.1962 H   0  0  0  0  0  0  0  0  0  0  0  0  # atno 10765 bound_to 10752
  140.0553  134.9234  157.1089 H   0  0  0  0  0  0  0  0  0  0  0  0  # atno 11005 bound_to 11000
  145.6093  141.0342  143.1975 LP  0  0  0  0  0  0  0  0  0  0  0  0  # atno 17320 bound_to 7965
  144.7339  139.7642  143.7336 LP  0  0  0  0  0  0  0  0  0  0  0  0  # atno 17321 bound_to 7965
  139.9201  143.6616  152.3098 LP  0  0  0  0  0  0  0  0  0  0  0  0  # atno 17342 bound_to 10162
  139.7030  144.7632  151.1240 LP  0  0  0  0  0  0  0  0  0  0  0  0  # atno 17343 bound_to 10162
  156.8274  130.5004  149.5335 LP  0  0  0  0  0  0  0  0  0  0  0  0  # atno 17370 bound_to 10713
  156.1042  130.5992  150.9943 LP  0  0  0  0  0  0  0  0  0  0  0  0  # atno 17371 bound_to 10713
  140.3853  134.2242  155.7168 LP  0  0  0  0  0  0  0  0  0  0  0  0  # atno 17394 bound_to 11000
  141.1949  133.8117  157.0737 LP  0  0  0  0  0  0  0  0  0  0  0  0  # atno 17395 bound_to 11000

$$$$
