AV-unprocessed.smi:848|AV-procd|sdf|3940|dock8
  -GOLD-   22720 1403D 1   1.00000     0.00000
 Structure written by MMmdl.
 46 48  0  0  0  0  0  0  0  0  1 V2000
  153.5933  141.1741  160.6096 C   0  0  0  0  0  0  0  0  0  0  0  0
  152.7172  142.1488  159.8497 C   0  0  0  0  0  0  0  0  0  0  0  0
  152.6482  143.5000  160.2437 C   0  0  0  0  0  0  0  0  0  0  0  0
  151.8277  144.4004  159.5365 C   0  0  0  0  0  0  0  0  0  0  0  0
  151.7571  145.8549  159.9541 C   0  0  0  0  0  0  0  0  0  0  0  0
  151.0768  143.9444  158.4343 C   0  0  0  0  0  0  0  0  0  0  0  0
  151.1348  142.5961  158.0264 C   0  0  0  0  0  0  0  0  0  0  0  0
  150.3645  142.2394  156.9406 O   0  0  0  0  0  0  0  0  0  0  0  0
  150.0617  140.8630  156.7487 C   0  0  0  0  0  0  0  0  0  0  0  0
  149.3275  140.6643  155.4120 C   0  0  1  0  0  0  0  0  0  0  0  0
  148.9448  141.9252  154.8998 O   0  0  0  0  0  0  0  0  0  0  0  0
  150.1282  139.8483  154.3762 C   0  0  0  0  0  0  0  0  0  0  0  0
  150.4347  138.5034  154.8451 N   0  0  0  0  0  0  0  0  0  0  0  0
  151.6487  137.9606  155.1173 C   0  0  0  0  0  0  0  0  0  0  0  0
  152.9169  138.7510  154.9587 C   0  0  0  0  0  0  0  0  0  0  0  0
  153.7074  138.8101  156.1289 O   0  0  0  0  0  0  0  0  0  0  0  0
  151.6305  136.6940  155.5406 N   0  0  0  0  0  0  0  0  0  0  0  0
  150.2843  136.3881  155.5379 C   0  0  0  0  0  0  0  0  0  0  0  0
  149.6124  135.1939  155.8838 C   0  0  0  0  0  0  0  0  0  0  0  0
  148.2064  135.1169  155.8034 C   0  0  0  0  0  0  0  0  0  0  0  0
  147.4540  136.2305  155.3769 C   0  0  0  0  0  0  0  0  0  0  0  0
  148.1040  137.4297  155.0272 C   0  0  0  0  0  0  0  0  0  0  0  0
  149.5075  137.5007  155.1091 C   0  0  0  0  0  0  0  0  0  0  0  0
  151.9652  141.6993  158.7450 C   0  0  0  0  0  0  0  0  0  0  0  0
  154.1868  141.6814  161.3707 H   0  0  0  0  0  0  0  0  0  0  0  0
  154.2766  140.6671  159.9282 H   0  0  0  0  0  0  0  0  0  0  0  0
  152.9783  140.4210  161.1029 H   0  0  0  0  0  0  0  0  0  0  0  0
  153.2246  143.8474  161.0890 H   0  0  0  0  0  0  0  0  0  0  0  0
  150.7709  146.2717  159.7474 H   0  0  0  0  0  0  0  0  0  0  0  0
  152.4985  146.4379  159.4072 H   0  0  0  0  0  0  0  0  0  0  0  0
  151.9525  145.9648  161.0213 H   0  0  0  0  0  0  0  0  0  0  0  0
  150.4483  144.6357  157.8915 H   0  0  0  0  0  0  0  0  0  0  0  0
  150.9949  140.2978  156.7254 H   0  0  0  0  0  0  0  0  0  0  0  0
  149.4581  140.4723  157.5698 H   0  0  0  0  0  0  0  0  0  0  0  0
  148.3979  140.1349  155.6243 H   0  0  0  0  0  0  0  0  0  0  0  0
  149.1549  142.5868  155.5411 H   0  0  0  0  0  0  0  0  0  0  0  0
  149.5941  139.7887  153.4280 H   0  0  0  0  0  0  0  0  0  0  0  0
  151.0705  140.3523  154.1584 H   0  0  0  0  0  0  0  0  0  0  0  0
  153.5223  138.3150  154.1649 H   0  0  0  0  0  0  0  0  0  0  0  0
  152.6640  139.7673  154.6560 H   0  0  0  0  0  0  0  0  0  0  0  0
  153.1347  138.7828  156.8796 H   0  0  0  0  0  0  0  0  0  0  0  0
  150.1805  134.3360  156.2122 H   0  0  0  0  0  0  0  0  0  0  0  0
  147.7034  134.1991  156.0706 H   0  0  0  0  0  0  0  0  0  0  0  0
  146.3775  136.1632  155.3190 H   0  0  0  0  0  0  0  0  0  0  0  0
  147.5311  138.2847  154.7005 H   0  0  0  0  0  0  0  0  0  0  0  0
  152.0403  140.6588  158.4683 H   0  0  0  0  0  0  0  0  0  0  0  0
  1  2  1  0  0  0  0
  1 25  1  0  0  0  0
  1 26  1  0  0  0  0
  1 27  1  0  0  0  0
  2 24  1  0  0  0  0
  2  3  2  0  0  0  0
  3  4  1  0  0  0  0
  3 28  1  0  0  0  0
  4  5  1  0  0  0  0
  4  6  2  0  0  0  0
  5 29  1  0  0  0  0
  5 30  1  0  0  0  0
  5 31  1  0  0  0  0
  6  7  1  0  0  0  0
  6 32  1  0  0  0  0
  7  8  1  0  0  0  0
  7 24  2  0  0  0  0
  8  9  1  0  0  0  0
  9 10  1  0  0  0  0
  9 33  1  0  0  0  0
  9 34  1  0  0  0  0
 10 11  1  0  0  0  0
 10 12  1  0  0  0  0
 10 35  1  0  0  0  0
 11 36  1  0  0  0  0
 12 13  1  0  0  0  0
 12 37  1  0  0  0  0
 12 38  1  0  0  0  0
 13 23  1  0  0  0  0
 13 14  1  0  0  0  0
 14 15  1  0  0  0  0
 14 17  2  0  0  0  0
 15 16  1  0  0  0  0
 15 39  1  0  0  0  0
 15 40  1  0  0  0  0
 16 41  1  0  0  0  0
 17 18  1  0  0  0  0
 18 23  2  0  0  0  0
 18 19  1  0  0  0  0
 19 20  2  0  0  0  0
 19 42  1  0  0  0  0
 20 21  1  0  0  0  0
 20 43  1  0  0  0  0
 21 22  2  0  0  0  0
 21 44  1  0  0  0  0
 22 23  1  0  0  0  0
 22 45  1  0  0  0  0
 24 46  1  0  0  0  0
M  END
> <s_m_source_file>
AV-unprocessed.smi

> <i_m_source_file_index>
848

> <i_lp_mmshare_version>
43012

> <i_f3d_flags>
0

> <s_epik_input>
W0NIM11jMVtjSF1jKFtDSDNdKVtjSF1jKFtjSF0xKU9bQ0gyXVtDQEhdKFtPSF0pW0NIMl1uKGMobjIpW0NIMl1bT0hdKWMoYzIzKVtjSF1bY0hdW2NIXVtjSF0z

> <s_epik_cmdline>
J2VwaWtfcHl0aG9uJywgJy1waCcsICc3LjAnLCAnLXRuJywgJzgnLCAnLW1hJywgJzIwMCcsICctbWV0YWxfYmluZGluZycsICctaW1hZScsICc8aW5maWxlLm1hZT4nLCAnLW9tYWUnLCAnPG91dGZpbGUubWFlPic=

> <r_lp_tautomer_probability>
1

> <r_epik_Ionization_Penalty>
0.0554234

> <r_epik_Ionization_Penalty_Charging>
0

> <r_epik_Ionization_Penalty_Neutral>
0.0554234

> <r_epik_State_Penalty>
0.0476717

> <r_epik_Charging_Adjusted_Penalty>
0.0476717

> <i_epik_Tot_Q>
0

> <i_epik_Tot_abs_Q>
0

> <r_epik_Metal_State_Penalty>
4.96399e-05

> <b_epik_Metal_Only>
0

> <s_lp_Force_Field>
OPLS_2005

> <r_lp_Energy>
17.6838

> <b_lp_Chiralities_Consistent>
1

> <s_lp_Variant>
AV-unprocessed.smi:848-2

> <Gold.Version>
5.8.1

> <Gold.Id.Protein>
6NUR|6NUR_protein|mol2

> <Gold.PLP.Fitness>
53.7874

> <Gold.PLP.PLP>
-48.2890

> <Gold.PLP.part.hbond>
-2.6088

> <Gold.PLP.part.metal>
0.0000

> <Gold.PLP.part.buried>
-5.5522

> <Gold.PLP.part.nonpolar>
-41.3789

> <Gold.PLP.part.repulsive>
0.3884

> <Gold.PLP.ligand.clash>
0.0000

> <Gold.PLP.ligand.torsion>
1.0402

> <Gold.PLP.Chemscore.Hbond>
2.4908

> <Gold.PLP.Chemscore.CHOScore>
0.0000

> <Gold.PLP.Chemscore.Metal>
0.0000

> <Gold.Chemscore.Hbonds>
donor molecule, donor type, donor heavy atom, donor atom, acceptor molecule, acceptor atom, score
      L1  H    11    36       P1  8028  0.48
      P1  H  7997  8009       L1    16  0.62
      P1  H 10752 10763       L1    17  1.00

> <Gold.PLP.Chemscore.Internal.Correction>
0.1062

> <Gold.Rescore>
     Score         DG    S(hbond)    S(metal)    S(lipo)     H(rot)  DE(clash)    DE(int)     intcor
     18.49     -19.84       2.10        0.00     127.56       2.96       0.29       1.06       ----

> <Gold.Chemscore.Fitness>
18.4870

> <Gold.Chemscore.DG>
-19.8422

> <Gold.Chemscore.ZeroCoef>
-5.4800

> <Gold.Chemscore.Hbond>
2.0973

> <Gold.Chemscore.Metal>
0.0000

> <Gold.Chemscore.Lipo>
127.5635

> <Gold.Chemscore.Internal_Hbond>
0.0000

> <Gold.Chemscore.DEClash>
0.2924

> <Gold.Chemscore.DEInternal>
1.0628

> <Gold.Chemscore.Rot>
2.9561

> <Gold.Chemscore.Internal.Correction>
   9.000000E+99

> <Gold.Chemscore.Hbonds>
donor molecule, donor type, donor heavy atom, donor atom, acceptor molecule, acceptor atom, score
      L1  H    11    36       P1  8028  0.48
      P1  H  7997  8009       L1    16  0.24
      P1  H 10752 10763       L1    17  0.84

> <Gold.Chemscore.Hbond.Weighted>
-7.0049

> <Gold.Chemscore.Metal.Weighted>
-0.0000

> <Gold.Chemscore.Lipo.Weighted>
-14.9249

> <Gold.Chemscore.Internal_Hbond.Weighted>
0.0000

> <Gold.Chemscore.DEClash.Weighted>
0.2924

> <Gold.Chemscore.DEInternal.Weighted>
1.0628

> <Gold.Chemscore.Rot.Weighted>
7.5677

> <Gold.Chemscore.Internal.Correction.Weighted>
   9.000000E+99

> <Gold.Protein.RotatedTorsions>
[ 6907 6896 6895 6894 ] final   96.12 input  -60.11 | X-H torsion
[ 7974 7965 7964 7962 ] final   25.42 input  175.53 | X-H torsion
[ 8008 7997 7996 7995 ] final -148.74 input   59.86 | X-H torsion
[ 10167 10162 10161 10158 ] final  100.92 input  -65.29 | X-H torsion
[ 10718 10713 10712 10709 ] final   30.63 input   66.30 | X-H torsion
[ 10763 10752 10751 10750 ] final   63.41 input  -60.55 | X-H torsion
[ 11005 11000 10999 10996 ] final  137.35 input  -57.11 | X-H torsion

> <Gold.Protein.ActiveResidues>
 VAL166  LYS551  ARG553  GLY616  TRP617  ASP618  TYR619  PRO620  LYS621  CYS622 
 ASP623  PHE694  ASN695  SER759  ASP760  ASP761  ALA762  ILE779  LEU786  VAL792 
 PHE793  MET794  SER795  GLU796  ALA797  LYS798  CYS799  TRP800  GLU811  SER814 

> <Gold.Protein.RotatedAtoms>
  152.5438  134.0934  159.8286 H   0  0  0  0  0  0  0  0  0  0  0  0  # atno 6907 bound_to 6896
  151.1021  133.5228  159.2617 H   0  0  0  0  0  0  0  0  0  0  0  0  # atno 6908 bound_to 6896
  151.1979  135.0439  159.8914 H   0  0  0  0  0  0  0  0  0  0  0  0  # atno 6909 bound_to 6896
  146.1889  139.7468  142.8846 H   0  0  0  0  0  0  0  0  0  0  0  0  # atno 7974 bound_to 7965
  155.5964  140.0657  157.2745 H   0  0  0  0  0  0  0  0  0  0  0  0  # atno 8008 bound_to 7997
  154.4291  140.1826  156.1175 H   0  0  0  0  0  0  0  0  0  0  0  0  # atno 8009 bound_to 7997
  156.0193  140.3318  155.7025 H   0  0  0  0  0  0  0  0  0  0  0  0  # atno 8010 bound_to 7997
  139.7484  144.6991  151.0469 H   0  0  0  0  0  0  0  0  0  0  0  0  # atno 10167 bound_to 10162
  157.2621  130.7166  149.6459 H   0  0  0  0  0  0  0  0  0  0  0  0  # atno 10718 bound_to 10713
  153.0017  135.5430  154.6348 H   0  0  0  0  0  0  0  0  0  0  0  0  # atno 10763 bound_to 10752
  154.5617  135.2834  155.0915 H   0  0  0  0  0  0  0  0  0  0  0  0  # atno 10764 bound_to 10752
  154.2115  135.6466  153.5169 H   0  0  0  0  0  0  0  0  0  0  0  0  # atno 10765 bound_to 10752
  140.0108  134.9440  157.0273 H   0  0  0  0  0  0  0  0  0  0  0  0  # atno 11005 bound_to 11000
  145.3853  141.0364  143.3154 LP  0  0  0  0  0  0  0  0  0  0  0  0  # atno 17320 bound_to 7965
  144.8449  139.5413  143.6883 LP  0  0  0  0  0  0  0  0  0  0  0  0  # atno 17321 bound_to 7965
  140.7795  143.4838  150.9983 LP  0  0  0  0  0  0  0  0  0  0  0  0  # atno 17342 bound_to 10162
  139.8526  143.7418  152.3177 LP  0  0  0  0  0  0  0  0  0  0  0  0  # atno 17343 bound_to 10162
  155.9664  130.4394  150.5258 LP  0  0  0  0  0  0  0  0  0  0  0  0  # atno 17370 bound_to 10713
  157.3164  131.0673  151.1963 LP  0  0  0  0  0  0  0  0  0  0  0  0  # atno 17371 bound_to 10713
  140.4558  134.1535  155.7186 LP  0  0  0  0  0  0  0  0  0  0  0  0  # atno 17394 bound_to 11000
  141.1709  133.8610  157.1572 LP  0  0  0  0  0  0  0  0  0  0  0  0  # atno 17395 bound_to 11000

$$$$
