AV-unprocessed.smi:3162|AV-procd|sdf|12068|dock2
  -GOLD-   2272017493D 1   1.00000     0.00000
 Structure written by MMmdl.
 36 36  0  0  0  0  0  0  0  0  1 V2000
  154.1373  140.9799  160.1765 C   0  0  0  0  0  0  0  0  0  0  0  0
  153.6436  142.4352  160.1640 C   0  0  0  0  0  0  0  0  0  0  0  0
  152.6813  142.7707  159.0035 C   0  0  1  0  0  0  0  0  0  0  0  0
  151.6113  141.7529  158.9530 N   0  0  0  0  0  0  0  0  0  0  0  0
  150.6449  141.8407  157.8546 C   0  0  2  0  0  0  0  0  0  0  0  0
  149.4293  140.9877  158.2530 C   0  0  0  0  0  0  0  0  0  0  0  0
  151.2502  141.4197  156.4911 C   0  0  0  0  0  0  0  0  0  0  0  0
  150.2580  141.0227  155.5039 N   0  0  0  0  0  0  0  0  0  0  0  0
  149.0158  141.5727  155.2661 C   0  0  0  0  0  0  0  0  0  0  0  0
  148.4436  140.8726  154.2420 C   0  0  0  0  0  0  0  0  0  0  0  0
  147.1029  141.0749  153.5973 C   0  0  0  0  0  0  0  0  0  0  0  0
  149.4264  139.8936  153.9215 C   0  0  0  0  0  0  0  0  0  0  0  0
  150.5070  139.9823  154.6795 N   0  0  0  0  0  0  0  0  0  0  0  0
  152.1403  144.2078  159.1122 C   0  0  0  0  0  0  0  0  0  0  0  0
  151.4038  144.5024  160.1866 N   0  0  0  0  0  0  0  0  0  0  0  0
  152.4022  145.0432  158.2489 O   0  0  0  0  0  0  0  0  0  0  0  0
  154.7584  140.7917  161.0523 H   0  0  0  0  0  0  0  0  0  0  0  0
  154.7363  140.7484  159.2956 H   0  0  0  0  0  0  0  0  0  0  0  0
  153.3008  140.2817  160.2082 H   0  0  0  0  0  0  0  0  0  0  0  0
  153.1354  142.6252  161.1105 H   0  0  0  0  0  0  0  0  0  0  0  0
  154.5017  143.1086  160.1483 H   0  0  0  0  0  0  0  0  0  0  0  0
  153.2621  142.6951  158.0843 H   0  0  0  0  0  0  0  0  0  0  0  0
  151.1083  141.7181  159.8284 H   0  0  0  0  0  0  0  0  0  0  0  0
  150.2870  142.8664  157.7669 H   0  0  0  0  0  0  0  0  0  0  0  0
  148.6715  140.9998  157.4691 H   0  0  0  0  0  0  0  0  0  0  0  0
  148.9639  141.3678  159.1630 H   0  0  0  0  0  0  0  0  0  0  0  0
  149.7033  139.9475  158.4336 H   0  0  0  0  0  0  0  0  0  0  0  0
  151.8216  142.2551  156.0832 H   0  0  0  0  0  0  0  0  0  0  0  0
  151.9699  140.6096  156.6049 H   0  0  0  0  0  0  0  0  0  0  0  0
  148.6473  142.4129  155.8362 H   0  0  0  0  0  0  0  0  0  0  0  0
  147.1828  141.1249  152.5114 H   0  0  0  0  0  0  0  0  0  0  0  0
  146.6285  141.9997  153.9268 H   0  0  0  0  0  0  0  0  0  0  0  0
  146.4177  140.2604  153.8325 H   0  0  0  0  0  0  0  0  0  0  0  0
  149.3860  139.1249  153.1639 H   0  0  0  0  0  0  0  0  0  0  0  0
  151.0291  145.4326  160.3011 H   0  0  0  0  0  0  0  0  0  0  0  0
  151.2259  143.7921  160.8817 H   0  0  0  0  0  0  0  0  0  0  0  0
  1  2  1  0  0  0  0
  1 17  1  0  0  0  0
  1 18  1  0  0  0  0
  1 19  1  0  0  0  0
  2  3  1  0  0  0  0
  2 20  1  0  0  0  0
  2 21  1  0  0  0  0
  3  4  1  0  0  0  0
  3 14  1  0  0  0  0
  3 22  1  0  0  0  0
  4  5  1  0  0  0  0
  4 23  1  0  0  0  0
  5  6  1  0  0  0  0
  5  7  1  0  0  0  0
  5 24  1  0  0  0  0
  6 25  1  0  0  0  0
  6 26  1  0  0  0  0
  6 27  1  0  0  0  0
  7  8  1  0  0  0  0
  7 28  1  0  0  0  0
  7 29  1  0  0  0  0
  8 13  1  0  0  0  0
  8  9  1  0  0  0  0
  9 10  2  0  0  0  0
  9 30  1  0  0  0  0
 10 11  1  0  0  0  0
 10 12  1  0  0  0  0
 11 31  1  0  0  0  0
 11 32  1  0  0  0  0
 11 33  1  0  0  0  0
 12 13  2  0  0  0  0
 12 34  1  0  0  0  0
 14 15  1  0  0  0  0
 14 16  2  0  0  0  0
 15 35  1  0  0  0  0
 15 36  1  0  0  0  0
M  END
> <s_m_source_file>
AV-unprocessed.smi

> <i_m_source_file_index>
3162

> <i_lp_mmshare_version>
43012

> <i_f3d_flags>
0

> <s_epik_input>
W0NIM11bQ0gyXVtDQEBIXShDKD1PKVtOSDJdKVtOSF1bQ0BIXShbQ0gzXSlbQ0gyXW4xW2NIXWMoW0NIM10pW2NIXW4x

> <s_epik_cmdline>
J2VwaWtfcHl0aG9uJywgJy1waCcsICc3LjAnLCAnLXRuJywgJzgnLCAnLW1hJywgJzIwMCcsICctbWV0YWxfYmluZGluZycsICctaW1hZScsICc8aW5maWxlLm1hZT4nLCAnLW9tYWUnLCAnPG91dGZpbGUubWFlPic=

> <r_lp_tautomer_probability>
1

> <r_epik_Ionization_Penalty>
1.04167

> <r_epik_Ionization_Penalty_Charging>
0

> <r_epik_Ionization_Penalty_Neutral>
1.04167

> <r_epik_State_Penalty>
1.09367

> <r_epik_Charging_Adjusted_Penalty>
1.09367

> <i_epik_Tot_Q>
0

> <i_epik_Tot_abs_Q>
0

> <r_epik_Metal_State_Penalty>
1.09362

> <b_epik_Metal_Only>
0

> <s_lp_Force_Field>
OPLS_2005

> <r_lp_Energy>
2.92083

> <b_lp_Chiralities_Consistent>
1

> <s_lp_Variant>
AV-unprocessed.smi:3162-6

> <Gold.Version>
5.8.1

> <Gold.Id.Protein>
6NUR|6NUR_protein|mol2

> <Gold.PLP.Fitness>
39.9168

> <Gold.PLP.PLP>
-32.7810

> <Gold.PLP.part.hbond>
-1.0000

> <Gold.PLP.part.metal>
0.0000

> <Gold.PLP.part.buried>
0.0923

> <Gold.PLP.part.nonpolar>
-30.7431

> <Gold.PLP.part.repulsive>
0.2184

> <Gold.PLP.ligand.clash>
0.0000

> <Gold.PLP.ligand.torsion>
0.6840

> <Gold.PLP.Chemscore.Hbond>
1.0000

> <Gold.PLP.Chemscore.CHOScore>
1.7082

> <Gold.PLP.Chemscore.Metal>
0.0000

> <Gold.Chemscore.Hbonds>
donor molecule, donor type, donor heavy atom, donor atom, acceptor molecule, acceptor atom, score
      P1  H  7989  7998       L1    13  0.86
      L1  C     9    30       P1  8028  1.00
      L1  C    12    34       P1  7957  0.61

> <Gold.PLP.Chemscore.Internal.Correction>
0.3793

> <Gold.Rescore>
     Score         DG    S(hbond)    S(metal)    S(lipo)     H(rot)  DE(clash)    DE(int)     intcor
      7.81      -8.42       0.00        0.00      78.34       2.43       0.28       0.33       ----

> <Gold.Chemscore.Fitness>
7.8071

> <Gold.Chemscore.DG>
-8.4185

> <Gold.Chemscore.ZeroCoef>
-5.4800

> <Gold.Chemscore.Hbond>
0.0000

> <Gold.Chemscore.Metal>
0.0000

> <Gold.Chemscore.Lipo>
78.3449

> <Gold.Chemscore.Internal_Hbond>
0.0000

> <Gold.Chemscore.DEClash>
0.2836

> <Gold.Chemscore.DEInternal>
0.3278

> <Gold.Chemscore.Rot>
2.4328

> <Gold.Chemscore.Internal.Correction>
   9.000000E+99

> <Gold.Chemscore.Hbonds>
donor molecule, donor type, donor heavy atom, donor atom, acceptor molecule, acceptor atom, score
      P1  H  7989  7998       L1    13  0.04

> <Gold.Chemscore.Hbond.Weighted>
-0.0001

> <Gold.Chemscore.Metal.Weighted>
-0.0000

> <Gold.Chemscore.Lipo.Weighted>
-9.1664

> <Gold.Chemscore.Internal_Hbond.Weighted>
0.0000

> <Gold.Chemscore.DEClash.Weighted>
0.2836

> <Gold.Chemscore.DEInternal.Weighted>
0.3278

> <Gold.Chemscore.Rot.Weighted>
6.2279

> <Gold.Chemscore.Internal.Correction.Weighted>
   9.000000E+99

> <Gold.Protein.RotatedTorsions>
[ 6907 6896 6895 6894 ] final -132.21 input  -60.11 | X-H torsion
[ 7974 7965 7964 7962 ] final  134.34 input  175.53 | X-H torsion
[ 8008 7997 7996 7995 ] final -176.99 input   59.86 | X-H torsion
[ 10167 10162 10161 10158 ] final -107.11 input  -65.29 | X-H torsion
[ 10718 10713 10712 10709 ] final  -45.72 input   66.30 | X-H torsion
[ 10763 10752 10751 10750 ] final  141.63 input  -60.55 | X-H torsion
[ 11005 11000 10999 10996 ] final  -89.97 input  -57.11 | X-H torsion

> <Gold.Protein.ActiveResidues>
 VAL166  LYS551  ARG553  GLY616  TRP617  ASP618  TYR619  PRO620  LYS621  CYS622 
 ASP623  PHE694  ASN695  SER759  ASP760  ASP761  ALA762  ILE779  LEU786  VAL792 
 PHE793  MET794  SER795  GLU796  ALA797  LYS798  CYS799  TRP800  GLU811  SER814 

> <Gold.Protein.RotatedAtoms>
  150.9598  133.6458  159.2756 H   0  0  0  0  0  0  0  0  0  0  0  0  # atno 6907 bound_to 6896
  151.3785  135.0934  159.9498 H   0  0  0  0  0  0  0  0  0  0  0  0  # atno 6908 bound_to 6896
  152.5143  133.9137  159.7555 H   0  0  0  0  0  0  0  0  0  0  0  0  # atno 6909 bound_to 6896
  144.9773  139.4541  143.5403 H   0  0  0  0  0  0  0  0  0  0  0  0  # atno 7974 bound_to 7965
  156.0015  140.1221  157.0542 H   0  0  0  0  0  0  0  0  0  0  0  0  # atno 8008 bound_to 7997
  154.4244  140.1106  156.5772 H   0  0  0  0  0  0  0  0  0  0  0  0  # atno 8009 bound_to 7997
  155.6205  140.3472  155.4653 H   0  0  0  0  0  0  0  0  0  0  0  0  # atno 8010 bound_to 7997
  140.1805  143.3970  152.1285 H   0  0  0  0  0  0  0  0  0  0  0  0  # atno 10167 bound_to 10162
  156.2255  130.4169  149.8940 H   0  0  0  0  0  0  0  0  0  0  0  0  # atno 10718 bound_to 10713
  153.9424  135.2978  155.3442 H   0  0  0  0  0  0  0  0  0  0  0  0  # atno 10763 bound_to 10752
  154.7470  135.4998  153.9224 H   0  0  0  0  0  0  0  0  0  0  0  0  # atno 10764 bound_to 10752
  153.1035  135.6741  153.9735 H   0  0  0  0  0  0  0  0  0  0  0  0  # atno 10765 bound_to 10752
  141.1575  133.7663  156.9671 H   0  0  0  0  0  0  0  0  0  0  0  0  # atno 11005 bound_to 11000
  146.3399  139.9024  142.8792 LP  0  0  0  0  0  0  0  0  0  0  0  0  # atno 17320 bound_to 7965
  145.2471  141.0030  143.3902 LP  0  0  0  0  0  0  0  0  0  0  0  0  # atno 17321 bound_to 7965
  139.5298  144.7146  151.5097 LP  0  0  0  0  0  0  0  0  0  0  0  0  # atno 17342 bound_to 10162
  140.6522  143.8672  150.6798 LP  0  0  0  0  0  0  0  0  0  0  0  0  # atno 17343 bound_to 10162
  156.6572  130.8767  151.3541 LP  0  0  0  0  0  0  0  0  0  0  0  0  # atno 17370 bound_to 10713
  157.7108  130.9438  150.1083 LP  0  0  0  0  0  0  0  0  0  0  0  0  # atno 17371 bound_to 10713
  140.1154  134.9451  157.2126 LP  0  0  0  0  0  0  0  0  0  0  0  0  # atno 17394 bound_to 11000
  140.3140  134.2991  155.7260 LP  0  0  0  0  0  0  0  0  0  0  0  0  # atno 17395 bound_to 11000

$$$$
