AV-unprocessed.smi:1290|AV-procd|sdf|5389|dock2
  -GOLD-   22720 4543D 1   1.00000     0.00000
 Structure written by MMmdl.
 38 40  0  0  0  0  0  0  0  0  1 V2000
  152.0335  144.3178  160.9814 C   0  0  0  0  0  0  0  0  0  0  0  0
  152.3083  143.0821  160.2241 N   0  0  0  0  0  0  0  0  0  0  0  0
  151.7250  142.9336  158.9931 C   0  0  0  0  0  0  0  0  0  0  0  0
  150.9814  143.7578  158.4590 O   0  0  0  0  0  0  0  0  0  0  0  0
  152.0593  141.6714  158.3283 C   0  0  0  0  0  0  0  0  0  0  0  0
  152.8723  140.7388  158.8796 C   0  0  0  0  0  0  0  0  0  0  0  0
  153.0220  139.6387  158.0424 N   0  0  0  0  0  0  0  0  0  0  0  0
  152.2644  139.9793  156.9986 C   0  0  0  0  0  0  0  0  0  0  0  0
  151.6527  141.1780  157.0906 N   0  0  0  0  0  0  0  0  0  0  0  0
  150.7762  141.7811  156.0984 C   0  0  0  0  0  0  0  0  0  0  0  0
  149.7576  140.7808  155.5158 C   0  0  2  0  0  0  0  0  0  0  0  0
  150.2396  140.2591  154.2920 O   0  0  0  0  0  0  0  0  0  0  0  0
  148.3839  141.4169  155.3708 C   0  0  0  0  0  0  0  0  0  0  0  0
  147.6699  141.8184  156.5201 C   0  0  0  0  0  0  0  0  0  0  0  0
  146.4010  142.4169  156.3948 C   0  0  0  0  0  0  0  0  0  0  0  0
  145.8399  142.6200  155.1190 C   0  0  0  0  0  0  0  0  0  0  0  0
  144.2856  143.3535  154.9656 Cl  0  0  0  0  0  0  0  0  0  0  0  0
  146.5494  142.2254  153.9684 C   0  0  0  0  0  0  0  0  0  0  0  0
  147.8181  141.6269  154.0935 C   0  0  0  0  0  0  0  0  0  0  0  0
  153.4262  140.9918  160.1589 N   0  0  0  0  0  0  0  0  0  0  0  0
  154.3011  139.9605  160.7242 C   0  0  0  0  0  0  0  0  0  0  0  0
  153.1431  142.1573  160.8298 C   0  0  0  0  0  0  0  0  0  0  0  0
  153.6217  142.3733  161.9466 O   0  0  0  0  0  0  0  0  0  0  0  0
  151.3958  145.0386  160.4687 H   0  0  0  0  0  0  0  0  0  0  0  0
  152.9639  144.8396  161.2115 H   0  0  0  0  0  0  0  0  0  0  0  0
  151.5398  144.0813  161.9254 H   0  0  0  0  0  0  0  0  0  0  0  0
  152.1470  139.3345  156.1400 H   0  0  0  0  0  0  0  0  0  0  0  0
  150.2637  142.6264  156.5583 H   0  0  0  0  0  0  0  0  0  0  0  0
  151.3929  142.1980  155.3007 H   0  0  0  0  0  0  0  0  0  0  0  0
  149.6664  139.9321  156.1942 H   0  0  0  0  0  0  0  0  0  0  0  0
  149.9988  139.3466  154.2407 H   0  0  0  0  0  0  0  0  0  0  0  0
  148.0938  141.6702  157.5029 H   0  0  0  0  0  0  0  0  0  0  0  0
  145.8597  142.7207  157.2790 H   0  0  0  0  0  0  0  0  0  0  0  0
  146.1228  142.3819  152.9884 H   0  0  0  0  0  0  0  0  0  0  0  0
  148.3563  141.3318  153.2045 H   0  0  0  0  0  0  0  0  0  0  0  0
  154.6994  140.1975  161.7111 H   0  0  0  0  0  0  0  0  0  0  0  0
  155.1523  139.7927  160.0635 H   0  0  0  0  0  0  0  0  0  0  0  0
  153.7569  139.0197  160.8125 H   0  0  0  0  0  0  0  0  0  0  0  0
  1  2  1  0  0  0  0
  1 24  1  0  0  0  0
  1 25  1  0  0  0  0
  1 26  1  0  0  0  0
  2 22  1  0  0  0  0
  2  3  1  0  0  0  0
  3  4  2  0  0  0  0
  3  5  1  0  0  0  0
  5  9  1  0  0  0  0
  5  6  2  0  0  0  0
  6  7  1  0  0  0  0
  6 20  1  0  0  0  0
  7  8  2  0  0  0  0
  8  9  1  0  0  0  0
  8 27  1  0  0  0  0
  9 10  1  0  0  0  0
 10 11  1  0  0  0  0
 10 28  1  0  0  0  0
 10 29  1  0  0  0  0
 11 12  1  0  0  0  0
 11 13  1  0  0  0  0
 11 30  1  0  0  0  0
 12 31  1  0  0  0  0
 13 19  1  0  0  0  0
 13 14  2  0  0  0  0
 14 15  1  0  0  0  0
 14 32  1  0  0  0  0
 15 16  2  0  0  0  0
 15 33  1  0  0  0  0
 16 17  1  0  0  0  0
 16 18  1  0  0  0  0
 18 19  2  0  0  0  0
 18 34  1  0  0  0  0
 19 35  1  0  0  0  0
 20 21  1  0  0  0  0
 20 22  1  0  0  0  0
 21 36  1  0  0  0  0
 21 37  1  0  0  0  0
 21 38  1  0  0  0  0
 22 23  2  0  0  0  0
M  END
> <s_m_source_file>
AV-unprocessed.smi

> <i_m_source_file_index>
1290

> <i_lp_mmshare_version>
43012

> <i_f3d_flags>
0

> <s_epik_input>
Tz1jMW4oW0NIM10pYyg9TyluKFtDSDNdKWMoYzEyKW5bY0hdbjJbQ0gyXVtDQEhdKFtPSF0pYzNbY0hdW2NIXWMoQ2wpW2NIXVtjSF0z

> <s_epik_cmdline>
J2VwaWtfcHl0aG9uJywgJy1waCcsICc3LjAnLCAnLXRuJywgJzgnLCAnLW1hJywgJzIwMCcsICctbWV0YWxfYmluZGluZycsICctaW1hZScsICc8aW5maWxlLm1hZT4nLCAnLW9tYWUnLCAnPG91dGZpbGUubWFlPic=

> <r_lp_tautomer_probability>
1

> <r_epik_Ionization_Penalty>
1.48293e-06

> <r_epik_Ionization_Penalty_Charging>
3.74189e-09

> <r_epik_Ionization_Penalty_Neutral>
1.47919e-06

> <r_epik_State_Penalty>
-0

> <r_epik_Charging_Adjusted_Penalty>
3.74189e-09

> <i_epik_Tot_Q>
0

> <i_epik_Tot_abs_Q>
0

> <r_epik_Metal_State_Penalty>
-0

> <b_epik_Metal_Only>
0

> <s_lp_Force_Field>
OPLS_2005

> <r_lp_Energy>
35.4502

> <b_lp_Chiralities_Consistent>
1

> <s_lp_Variant>
AV-unprocessed.smi:1290-1

> <Gold.Version>
5.8.1

> <Gold.Id.Protein>
6NUR|6NUR_protein|mol2

> <Gold.PLP.Fitness>
52.7568

> <Gold.PLP.PLP>
-49.0822

> <Gold.PLP.part.hbond>
-2.8740

> <Gold.PLP.part.metal>
0.0000

> <Gold.PLP.part.buried>
-6.3554

> <Gold.PLP.part.nonpolar>
-39.6481

> <Gold.PLP.part.repulsive>
0.1609

> <Gold.PLP.ligand.clash>
0.0000

> <Gold.PLP.ligand.torsion>
0.8708

> <Gold.PLP.Chemscore.Hbond>
1.7960

> <Gold.PLP.Chemscore.CHOScore>
0.0000

> <Gold.PLP.Chemscore.Metal>
0.0000

> <Gold.Chemscore.Hbonds>
donor molecule, donor type, donor heavy atom, donor atom, acceptor molecule, acceptor atom, score
      P1  H  7989  7998       L1    12  1.00
      P1  H  7997  8009       L1     7  0.65

> <Gold.PLP.Chemscore.Internal.Correction>
0.0281

> <Gold.Rescore>
     Score         DG    S(hbond)    S(metal)    S(lipo)     H(rot)  DE(clash)    DE(int)     intcor
     11.61     -12.52       0.98        0.00      79.31       2.15       0.08       0.83       ----

> <Gold.Chemscore.Fitness>
11.6058

> <Gold.Chemscore.DG>
-12.5214

> <Gold.Chemscore.ZeroCoef>
-5.4800

> <Gold.Chemscore.Hbond>
0.9760

> <Gold.Chemscore.Metal>
0.0000

> <Gold.Chemscore.Lipo>
79.3079

> <Gold.Chemscore.Internal_Hbond>
0.0000

> <Gold.Chemscore.DEClash>
0.0827

> <Gold.Chemscore.DEInternal>
0.8329

> <Gold.Chemscore.Rot>
2.1474

> <Gold.Chemscore.Internal.Correction>
   9.000000E+99

> <Gold.Chemscore.Hbonds>
donor molecule, donor type, donor heavy atom, donor atom, acceptor molecule, acceptor atom, score
      P1  H  7989  7998       L1    12  0.93
      P1  H  7997  8009       L1     7  0.02

> <Gold.Chemscore.Hbond.Weighted>
-3.2598

> <Gold.Chemscore.Metal.Weighted>
-0.0000

> <Gold.Chemscore.Lipo.Weighted>
-9.2790

> <Gold.Chemscore.Internal_Hbond.Weighted>
0.0000

> <Gold.Chemscore.DEClash.Weighted>
0.0827

> <Gold.Chemscore.DEInternal.Weighted>
0.8329

> <Gold.Chemscore.Rot.Weighted>
5.4974

> <Gold.Chemscore.Internal.Correction.Weighted>
   9.000000E+99

> <Gold.Protein.RotatedTorsions>
[ 6907 6896 6895 6894 ] final   52.92 input  -60.11 | X-H torsion
[ 7974 7965 7964 7962 ] final   13.37 input  175.53 | X-H torsion
[ 8008 7997 7996 7995 ] final  147.09 input   59.86 | X-H torsion
[ 10167 10162 10161 10158 ] final  115.63 input  -65.29 | X-H torsion
[ 10718 10713 10712 10709 ] final   46.92 input   66.30 | X-H torsion
[ 10763 10752 10751 10750 ] final -177.53 input  -60.55 | X-H torsion
[ 11005 11000 10999 10996 ] final -159.34 input  -57.11 | X-H torsion

> <Gold.Protein.ActiveResidues>
 VAL166  LYS551  ARG553  GLY616  TRP617  ASP618  TYR619  PRO620  LYS621  CYS622 
 ASP623  PHE694  ASN695  SER759  ASP760  ASP761  ALA762  ILE779  LEU786  VAL792 
 PHE793  MET794  SER795  GLU796  ALA797  LYS798  CYS799  TRP800  GLU811  SER814 

> <Gold.Protein.RotatedAtoms>
  152.3283  134.7292  160.0295 H   0  0  0  0  0  0  0  0  0  0  0  0  # atno 6907 bound_to 6896
  151.7718  133.3336  159.3454 H   0  0  0  0  0  0  0  0  0  0  0  0  # atno 6908 bound_to 6896
  150.7408  134.5943  159.6048 H   0  0  0  0  0  0  0  0  0  0  0  0  # atno 6909 bound_to 6896
  146.2331  139.9198  142.8512 H   0  0  0  0  0  0  0  0  0  0  0  0  # atno 7974 bound_to 7965
  156.2835  140.2165  156.5481 H   0  0  0  0  0  0  0  0  0  0  0  0  # atno 8008 bound_to 7997
  154.7314  140.0495  157.0752 H   0  0  0  0  0  0  0  0  0  0  0  0  # atno 8009 bound_to 7997
  155.0349  140.3139  155.4748 H   0  0  0  0  0  0  0  0  0  0  0  0  # atno 8010 bound_to 7997
  139.6303  144.7114  151.2446 H   0  0  0  0  0  0  0  0  0  0  0  0  # atno 10167 bound_to 10162
  157.4532  130.8151  149.7809 H   0  0  0  0  0  0  0  0  0  0  0  0  # atno 10718 bound_to 10713
  154.5590  135.2818  155.0937 H   0  0  0  0  0  0  0  0  0  0  0  0  # atno 10763 bound_to 10752
  154.2354  135.6366  153.5193 H   0  0  0  0  0  0  0  0  0  0  0  0  # atno 10764 bound_to 10752
  153.0023  135.5547  154.6178 H   0  0  0  0  0  0  0  0  0  0  0  0  # atno 10765 bound_to 10752
  140.6436  134.4525  157.5234 H   0  0  0  0  0  0  0  0  0  0  0  0  # atno 11005 bound_to 11000
  145.2147  140.9910  143.4080 LP  0  0  0  0  0  0  0  0  0  0  0  0  # atno 17320 bound_to 7965
  144.9661  139.3929  143.6332 LP  0  0  0  0  0  0  0  0  0  0  0  0  # atno 17321 bound_to 7965
  140.7435  143.6492  150.8264 LP  0  0  0  0  0  0  0  0  0  0  0  0  # atno 17342 bound_to 10162
  140.0116  143.5637  152.2837 LP  0  0  0  0  0  0  0  0  0  0  0  0  # atno 17343 bound_to 10162
  155.9996  130.3888  150.2659 LP  0  0  0  0  0  0  0  0  0  0  0  0  # atno 17370 bound_to 10713
  157.0832  131.0149  151.3149 LP  0  0  0  0  0  0  0  0  0  0  0  0  # atno 17371 bound_to 10713
  139.9071  134.8425  156.1665 LP  0  0  0  0  0  0  0  0  0  0  0  0  # atno 17394 bound_to 11000
  141.0588  133.6852  156.1913 LP  0  0  0  0  0  0  0  0  0  0  0  0  # atno 17395 bound_to 11000

$$$$
