AV-unprocessed.smi:956|AV-procd|sdf|4263|dock2
  -GOLD-   22720 2173D 1   1.00000     0.00000
 Structure written by MMmdl.
 42 43  0  0  0  0  0  0  0  0  1 V2000
  150.6855  134.5957  155.8823 C   0  0  0  0  0  0  0  0  0  0  0  0
  149.7954  136.1923  156.1999 S   0  0  2  0  0  0  0  0  0  0  0  0
  148.8003  136.3886  155.0547 O   0  0  0  0  0  0  0  0  0  0  0  0
  151.2082  137.2666  155.7622 C   0  0  0  0  0  0  0  0  0  0  0  0
  152.4572  137.0664  156.1938 N   0  0  0  0  0  0  0  0  0  0  0  0
  153.1939  138.0988  155.6453 N   0  0  0  0  0  0  0  0  0  0  0  0
  152.3113  138.8059  154.9373 C   0  0  0  0  0  0  0  0  0  0  0  0
  151.0510  138.3430  154.9686 N   0  0  0  0  0  0  0  0  0  0  0  0
  149.8656  138.8967  154.3341 C   0  0  0  0  0  0  0  0  0  0  0  0
  149.6873  140.3569  154.7446 C   0  0  0  0  0  0  0  0  0  0  0  0
  149.9945  141.2549  153.9618 O   0  0  0  0  0  0  0  0  0  0  0  0
  149.2436  140.5727  155.9930 N   0  0  0  0  0  0  0  0  0  0  0  0
  149.2654  141.8565  156.6864 C   0  0  0  0  0  0  0  0  0  0  0  0
  150.7022  142.2488  157.0867 C   0  0  0  0  0  0  0  0  0  0  0  0
  150.8333  143.5613  157.8943 C   0  0  0  0  0  0  0  0  0  0  0  0
  152.2678  143.7480  158.4271 C   0  0  0  0  0  0  0  0  0  0  0  0
  152.4175  145.0813  159.1769 C   0  0  0  0  0  0  0  0  0  0  0  0
  151.4039  145.1870  160.3263 C   0  0  0  0  0  0  0  0  0  0  0  0
  149.9678  144.9810  159.8209 C   0  0  0  0  0  0  0  0  0  0  0  0
  149.8264  143.6523  159.0602 C   0  0  0  0  0  0  0  0  0  0  0  0
  151.7652  134.7341  155.8865 H   0  0  0  0  0  0  0  0  0  0  0  0
  150.3952  134.1893  154.9137 H   0  0  0  0  0  0  0  0  0  0  0  0
  150.4322  133.8680  156.6526 H   0  0  0  0  0  0  0  0  0  0  0  0
  152.5899  139.6950  154.3907 H   0  0  0  0  0  0  0  0  0  0  0  0
  149.9804  138.8229  153.2519 H   0  0  0  0  0  0  0  0  0  0  0  0
  148.9855  138.3131  154.6044 H   0  0  0  0  0  0  0  0  0  0  0  0
  148.9926  139.7673  156.5475 H   0  0  0  0  0  0  0  0  0  0  0  0
  148.8115  142.6469  156.0875 H   0  0  0  0  0  0  0  0  0  0  0  0
  148.6494  141.7690  157.5816 H   0  0  0  0  0  0  0  0  0  0  0  0
  151.1529  141.4293  157.6475 H   0  0  0  0  0  0  0  0  0  0  0  0
  151.2922  142.3403  156.1739 H   0  0  0  0  0  0  0  0  0  0  0  0
  150.6405  144.3980  157.2235 H   0  0  0  0  0  0  0  0  0  0  0  0
  152.5253  142.9231  159.0929 H   0  0  0  0  0  0  0  0  0  0  0  0
  152.9829  143.7144  157.6047 H   0  0  0  0  0  0  0  0  0  0  0  0
  153.4316  145.1778  159.5656 H   0  0  0  0  0  0  0  0  0  0  0  0
  152.2721  145.9099  158.4821 H   0  0  0  0  0  0  0  0  0  0  0  0
  151.6341  144.4381  161.0852 H   0  0  0  0  0  0  0  0  0  0  0  0
  151.4921  146.1589  160.8125 H   0  0  0  0  0  0  0  0  0  0  0  0
  149.2718  145.0046  160.6599 H   0  0  0  0  0  0  0  0  0  0  0  0
  149.6892  145.8074  159.1656 H   0  0  0  0  0  0  0  0  0  0  0  0
  148.8049  143.5644  158.6921 H   0  0  0  0  0  0  0  0  0  0  0  0
  149.9793  142.8187  159.7467 H   0  0  0  0  0  0  0  0  0  0  0  0
  1  2  1  0  0  0  0
  1 21  1  0  0  0  0
  1 22  1  0  0  0  0
  1 23  1  0  0  0  0
  2  3  2  0  0  0  0
  2  4  1  0  0  0  0
  4  8  1  0  0  0  0
  4  5  2  0  0  0  0
  5  6  1  0  0  0  0
  6  7  2  0  0  0  0
  7  8  1  0  0  0  0
  7 24  1  0  0  0  0
  8  9  1  0  0  0  0
  9 10  1  0  0  0  0
  9 25  1  0  0  0  0
  9 26  1  0  0  0  0
 10 11  2  0  0  0  0
 10 12  1  0  0  0  0
 12 13  1  0  0  0  0
 12 27  1  0  0  0  0
 13 14  1  0  0  0  0
 13 28  1  0  0  0  0
 13 29  1  0  0  0  0
 14 15  1  0  0  0  0
 14 30  1  0  0  0  0
 14 31  1  0  0  0  0
 15 20  1  0  0  0  0
 15 16  1  0  0  0  0
 15 32  1  0  0  0  0
 16 17  1  0  0  0  0
 16 33  1  0  0  0  0
 16 34  1  0  0  0  0
 17 18  1  0  0  0  0
 17 35  1  0  0  0  0
 17 36  1  0  0  0  0
 18 19  1  0  0  0  0
 18 37  1  0  0  0  0
 18 38  1  0  0  0  0
 19 20  1  0  0  0  0
 19 39  1  0  0  0  0
 19 40  1  0  0  0  0
 20 41  1  0  0  0  0
 20 42  1  0  0  0  0
M  END
> <s_m_source_file>
AV-unprocessed.smi

> <i_m_source_file_index>
956

> <i_lp_mmshare_version>
43012

> <i_f3d_flags>
0

> <s_epik_input>
W0NIM11bU0BdKD1PKWMxbm5bY0hdbjFbQ0gyXUMoPU8pW05IXVtDSDJdW0NIMl1bQ0hdMltDSDJdW0NIMl1bQ0gyXVtDSDJdW0NIMl0y

> <s_epik_cmdline>
J2VwaWtfcHl0aG9uJywgJy1waCcsICc3LjAnLCAnLXRuJywgJzgnLCAnLW1hJywgJzIwMCcsICctbWV0YWxfYmluZGluZycsICctaW1hZScsICc8aW5maWxlLm1hZT4nLCAnLW9tYWUnLCAnPG91dGZpbGUubWFlPic=

> <r_lp_tautomer_probability>
1

> <r_epik_Ionization_Penalty>
7.32521e-08

> <r_epik_Ionization_Penalty_Charging>
0

> <r_epik_Ionization_Penalty_Neutral>
7.32521e-08

> <r_epik_State_Penalty>
-0

> <r_epik_Charging_Adjusted_Penalty>
0

> <i_epik_Tot_Q>
0

> <i_epik_Tot_abs_Q>
0

> <r_epik_Metal_State_Penalty>
-0

> <b_epik_Metal_Only>
0

> <s_lp_Force_Field>
OPLS_2005

> <r_lp_Energy>
8.17766

> <b_lp_Chiralities_Consistent>
1

> <s_lp_Variant>
AV-unprocessed.smi:956-1

> <Gold.Version>
5.8.1

> <Gold.Id.Protein>
6NUR|6NUR_protein|mol2

> <Gold.PLP.Fitness>
44.5835

> <Gold.PLP.PLP>
-38.7547

> <Gold.PLP.part.hbond>
-3.8103

> <Gold.PLP.part.metal>
0.0000

> <Gold.PLP.part.buried>
-2.6733

> <Gold.PLP.part.nonpolar>
-32.4158

> <Gold.PLP.part.repulsive>
0.8352

> <Gold.PLP.ligand.clash>
0.0000

> <Gold.PLP.ligand.torsion>
0.8710

> <Gold.PLP.Chemscore.Hbond>
2.1077

> <Gold.PLP.Chemscore.CHOScore>
0.0000

> <Gold.PLP.Chemscore.Metal>
0.0000

> <Gold.Chemscore.Hbonds>
donor molecule, donor type, donor heavy atom, donor atom, acceptor molecule, acceptor atom, score
      P1  H  7989  7998       L1    11  0.32
      P1  H  7997  8009       L1     6  0.03
      P1  H  8011  8017       L1    11  0.72
      P1  H 10752 10763       L1     5  0.82

> <Gold.PLP.Chemscore.Internal.Correction>
1.2478

> <Gold.Rescore>
     Score         DG    S(hbond)    S(metal)    S(lipo)     H(rot)  DE(clash)    DE(int)     intcor
     11.11     -13.96       1.16        0.00      88.64       2.26       0.51       2.33       ----

> <Gold.Chemscore.Fitness>
11.1141

> <Gold.Chemscore.DG>
-13.9590

> <Gold.Chemscore.ZeroCoef>
-5.4800

> <Gold.Chemscore.Hbond>
1.1622

> <Gold.Chemscore.Metal>
0.0000

> <Gold.Chemscore.Lipo>
88.6421

> <Gold.Chemscore.Internal_Hbond>
0.0000

> <Gold.Chemscore.DEClash>
0.5144

> <Gold.Chemscore.DEInternal>
2.3304

> <Gold.Chemscore.Rot>
2.2554

> <Gold.Chemscore.Internal.Correction>
   9.000000E+99

> <Gold.Chemscore.Hbonds>
donor molecule, donor type, donor heavy atom, donor atom, acceptor molecule, acceptor atom, score
      P1  H  7989  7998       L1    11  0.18
      P1  H  8011  8017       L1    11  0.69
      P1  H 10752 10763       L1     5  0.10

> <Gold.Chemscore.Hbond.Weighted>
-3.8817

> <Gold.Chemscore.Metal.Weighted>
-0.0000

> <Gold.Chemscore.Lipo.Weighted>
-10.3711

> <Gold.Chemscore.Internal_Hbond.Weighted>
0.0000

> <Gold.Chemscore.DEClash.Weighted>
0.5144

> <Gold.Chemscore.DEInternal.Weighted>
2.3304

> <Gold.Chemscore.Rot.Weighted>
5.7738

> <Gold.Chemscore.Internal.Correction.Weighted>
   9.000000E+99

> <Gold.Protein.RotatedTorsions>
[ 6907 6896 6895 6894 ] final -136.16 input  -60.11 | X-H torsion
[ 7974 7965 7964 7962 ] final   17.24 input  175.53 | X-H torsion
[ 8008 7997 7996 7995 ] final -148.29 input   59.86 | X-H torsion
[ 10167 10162 10161 10158 ] final  -66.39 input  -65.29 | X-H torsion
[ 10718 10713 10712 10709 ] final -134.23 input   66.30 | X-H torsion
[ 10763 10752 10751 10750 ] final   90.78 input  -60.55 | X-H torsion
[ 11005 11000 10999 10996 ] final -101.91 input  -57.11 | X-H torsion

> <Gold.Protein.ActiveResidues>
 VAL166  LYS551  ARG553  GLY616  TRP617  ASP618  TYR619  PRO620  LYS621  CYS622 
 ASP623  PHE694  ASN695  SER759  ASP760  ASP761  ALA762  ILE779  LEU786  VAL792 
 PHE793  MET794  SER795  GLU796  ALA797  LYS798  CYS799  TRP800  GLU811  SER814 

> <Gold.Protein.RotatedAtoms>
  151.0067  133.6004  159.2687 H   0  0  0  0  0  0  0  0  0  0  0  0  # atno 6907 bound_to 6896
  151.3170  135.0808  159.9302 H   0  0  0  0  0  0  0  0  0  0  0  0  # atno 6908 bound_to 6896
  152.5289  133.9721  159.7821 H   0  0  0  0  0  0  0  0  0  0  0  0  # atno 6909 bound_to 6896
  146.2225  139.8631  142.8601 H   0  0  0  0  0  0  0  0  0  0  0  0  # atno 7974 bound_to 7965
  155.5892  140.0651  157.2763 H   0  0  0  0  0  0  0  0  0  0  0  0  # atno 8008 bound_to 7997
  154.4310  140.1838  156.1104 H   0  0  0  0  0  0  0  0  0  0  0  0  # atno 8009 bound_to 7997
  156.0245  140.3313  155.7078 H   0  0  0  0  0  0  0  0  0  0  0  0  # atno 8010 bound_to 7997
  140.5660  143.2315  151.6633 H   0  0  0  0  0  0  0  0  0  0  0  0  # atno 10167 bound_to 10162
  156.2533  130.7166  151.1073 H   0  0  0  0  0  0  0  0  0  0  0  0  # atno 10718 bound_to 10713
  153.2012  135.4421  155.0268 H   0  0  0  0  0  0  0  0  0  0  0  0  # atno 10763 bound_to 10752
  154.8148  135.3310  154.7209 H   0  0  0  0  0  0  0  0  0  0  0  0  # atno 10764 bound_to 10752
  153.7655  135.6988  153.4972 H   0  0  0  0  0  0  0  0  0  0  0  0  # atno 10765 bound_to 10752
  141.1211  133.8516  157.1293 H   0  0  0  0  0  0  0  0  0  0  0  0  # atno 11005 bound_to 11000
  145.2684  141.0100  143.3786 LP  0  0  0  0  0  0  0  0  0  0  0  0  # atno 17320 bound_to 7965
  144.9243  139.4374  143.6526 LP  0  0  0  0  0  0  0  0  0  0  0  0  # atno 17321 bound_to 7965
  139.5093  144.3580  152.0589 LP  0  0  0  0  0  0  0  0  0  0  0  0  # atno 17342 bound_to 10162
  140.2712  144.3962  150.6151 LP  0  0  0  0  0  0  0  0  0  0  0  0  # atno 17343 bound_to 10162
  157.7223  131.0673  150.6084 LP  0  0  0  0  0  0  0  0  0  0  0  0  # atno 17370 bound_to 10713
  156.6166  130.4394  149.5838 LP  0  0  0  0  0  0  0  0  0  0  0  0  # atno 17371 bound_to 10713
  140.0169  134.9963  157.0512 LP  0  0  0  0  0  0  0  0  0  0  0  0  # atno 17394 bound_to 11000
  140.4504  134.1588  155.7181 LP  0  0  0  0  0  0  0  0  0  0  0  0  # atno 17395 bound_to 11000

$$$$
