AV-unprocessed.smi:2083|AV-procd|sdf|8505|dock5
  -GOLD-   2272011213D 1   1.00000     0.00000
 Structure written by MMmdl.
 44 45  0  0  0  0  0  0  0  0  3 V2000
  148.8885  140.7732  154.9922 C   0  0  0  0  0  0  0  0  0  0  0  0
  149.8494  139.6360  155.0662 C   0  0  0  0  0  0  0  0  0  0  0  0
  149.6835  138.2801  155.0657 C   0  0  0  0  0  0  0  0  0  0  0  0
  151.0142  137.7899  155.1657 C   0  0  0  0  0  0  0  0  0  0  0  0
  151.3791  136.4988  155.1905 N   0  5  0  0  0  0  0  0  0  0  0  0
  150.4800  135.5433  155.5171 C   0  0  0  0  0  0  0  0  0  0  0  0
  150.4156  134.9321  156.5862 O   0  0  0  0  0  0  0  0  0  0  0  0
  149.5930  135.2843  154.5457 N   0  0  0  0  0  0  0  0  0  0  0  0
  148.4961  134.3242  154.6265 C   0  0  0  0  0  0  0  0  0  0  0  0
  147.1131  134.9618  154.3132 C   0  0  1  0  0  0  0  0  0  0  0  0
  147.0885  136.4394  154.7637 C   0  0  0  0  0  0  0  0  0  0  0  0
  146.6954  134.8666  152.8758 N   0  3  2  0  0  0  0  0  0  0  0  0
  145.4350  135.6185  152.6149 C   0  0  0  0  0  0  0  0  0  0  0  0
  145.1238  135.6990  151.1136 C   0  0  0  0  0  0  0  0  0  0  0  0
  145.0217  134.2967  150.5073 C   0  0  0  0  0  0  0  0  0  0  0  0
  146.3098  133.5098  150.7905 C   0  0  2  0  0  0  0  0  0  0  0  0
  146.2334  132.0882  150.2155 C   0  0  0  0  0  0  0  0  0  0  0  0
  146.6168  133.4903  152.3028 C   0  0  0  0  0  0  0  0  0  0  0  0
  151.9098  138.7621  155.2062 N   0  0  0  0  0  0  0  0  0  0  0  0
  151.1704  139.9496  155.1487 O   0  0  0  0  0  0  0  0  0  0  0  0
  148.3975  140.8000  154.0194 H   0  0  0  0  0  0  0  0  0  0  0  0
  149.3950  141.7269  155.1423 H   0  0  0  0  0  0  0  0  0  0  0  0
  148.1184  140.6770  155.7575 H   0  0  0  0  0  0  0  0  0  0  0  0
  148.7587  137.7264  155.0063 H   0  0  0  0  0  0  0  0  0  0  0  0
  149.6858  135.8032  153.6845 H   0  0  0  0  0  0  0  0  0  0  0  0
  148.7091  133.5196  153.9219 H   0  0  0  0  0  0  0  0  0  0  0  0
  148.5188  133.8858  155.6252 H   0  0  0  0  0  0  0  0  0  0  0  0
  146.3726  134.4156  154.8996 H   0  0  0  0  0  0  0  0  0  0  0  0
  147.3056  136.5412  155.8270 H   0  0  0  0  0  0  0  0  0  0  0  0
  146.1189  136.9087  154.6061 H   0  0  0  0  0  0  0  0  0  0  0  0
  147.8293  137.0264  154.2200 H   0  0  0  0  0  0  0  0  0  0  0  0
  144.6095  135.1337  153.1389 H   0  0  0  0  0  0  0  0  0  0  0  0
  145.4978  136.6314  153.0093 H   0  0  0  0  0  0  0  0  0  0  0  0
  144.1904  136.2402  150.9556 H   0  0  0  0  0  0  0  0  0  0  0  0
  145.9030  136.2683  150.6048 H   0  0  0  0  0  0  0  0  0  0  0  0
  144.1626  133.7740  150.9304 H   0  0  0  0  0  0  0  0  0  0  0  0
  144.8477  134.3676  149.4329 H   0  0  0  0  0  0  0  0  0  0  0  0
  147.1328  134.0215  150.2889 H   0  0  0  0  0  0  0  0  0  0  0  0
  145.4287  131.5159  150.6783 H   0  0  0  0  0  0  0  0  0  0  0  0
  147.1649  131.5463  150.3815 H   0  0  0  0  0  0  0  0  0  0  0  0
  146.0523  132.1083  149.1405 H   0  0  0  0  0  0  0  0  0  0  0  0
  147.5683  132.9737  152.4243 H   0  0  0  0  0  0  0  0  0  0  0  0
  145.8615  132.9140  152.8397 H   0  0  0  0  0  0  0  0  0  0  0  0
  147.4237  135.3303  152.3523 H   0  0  0  0  0  0  0  0  0  0  0  0
  1  2  1  0  0  0  0
  1 21  1  0  0  0  0
  1 22  1  0  0  0  0
  1 23  1  0  0  0  0
  2 20  1  0  0  0  0
  2  3  2  0  0  0  0
  3  4  1  0  0  0  0
  3 24  1  0  0  0  0
  4  5  1  0  0  0  0
  4 19  2  0  0  0  0
  5  6  1  0  0  0  0
  6  7  2  0  0  0  0
  6  8  1  0  0  0  0
  8  9  1  0  0  0  0
  8 25  1  0  0  0  0
  9 10  1  0  0  0  0
  9 26  1  0  0  0  0
  9 27  1  0  0  0  0
 10 11  1  0  0  0  0
 10 12  1  0  0  0  0
 10 28  1  0  0  0  0
 11 29  1  0  0  0  0
 11 30  1  0  0  0  0
 11 31  1  0  0  0  0
 12 18  1  0  0  0  0
 12 13  1  0  0  0  0
 12 44  1  0  0  0  0
 13 14  1  0  0  0  0
 13 32  1  0  0  0  0
 13 33  1  0  0  0  0
 14 15  1  0  0  0  0
 14 34  1  0  0  0  0
 14 35  1  0  0  0  0
 15 16  1  0  0  0  0
 15 36  1  0  0  0  0
 15 37  1  0  0  0  0
 16 17  1  0  0  0  0
 16 18  1  0  0  0  0
 16 38  1  0  0  0  0
 17 39  1  0  0  0  0
 17 40  1  0  0  0  0
 17 41  1  0  0  0  0
 18 42  1  0  0  0  0
 18 43  1  0  0  0  0
 19 20  1  0  0  0  0
M  CHG  1   5  -1
M  CHG  1  12   1
M  END
> <s_m_source_file>
AV-unprocessed.smi

> <i_m_source_file_index>
2083

> <i_lp_mmshare_version>
43012

> <i_f3d_flags>
0

> <s_epik_input>
W0NIM11jMVtjSF1jKG5vMSlbTkhdQyg9TylbTkhdW0NIMl1bQ0BIXShbQ0gzXSlOMltDSDJdW0NIMl1bQ0gyXVtDQEBIXShbQ0gzXSlbQ0gyXTI=

> <s_epik_cmdline>
J2VwaWtfcHl0aG9uJywgJy1waCcsICc3LjAnLCAnLXRuJywgJzgnLCAnLW1hJywgJzIwMCcsICctbWV0YWxfYmluZGluZycsICctaW1hZScsICc8aW5maWxlLm1hZT4nLCAnLW9tYWUnLCAnPG91dGZpbGUubWFlPic=

> <r_epik_Ionization_Penalty>
6.22434

> <r_epik_Ionization_Penalty_Charging>
6.22425

> <r_epik_Ionization_Penalty_Neutral>
9.62407e-05

> <r_epik_State_Penalty>
6.22423

> <r_epik_Charging_Adjusted_Penalty>
12.4485

> <i_epik_Tot_Q>
0

> <i_epik_Tot_abs_Q>
2

> <r_epik_Metal_State_Penalty>
2.16764

> <b_epik_Metal_Only>
1

> <s_lp_Force_Field>
OPLS_2005

> <r_lp_Energy>
9.644

> <b_lp_Chiralities_Consistent>
1

> <s_lp_Variant>
AV-unprocessed.smi:2083-16

> <Gold.Version>
5.8.1

> <Gold.Id.Protein>
6NUR|6NUR_protein|mol2

> <Gold.PLP.Fitness>
48.8099

> <Gold.PLP.PLP>
-33.2457

> <Gold.PLP.part.hbond>
-3.9744

> <Gold.PLP.part.metal>
0.0000

> <Gold.PLP.part.buried>
-4.7162

> <Gold.PLP.part.nonpolar>
-25.2368

> <Gold.PLP.part.repulsive>
0.2912

> <Gold.PLP.ligand.clash>
0.0000

> <Gold.PLP.ligand.torsion>
1.2166

> <Gold.PLP.Chemscore.Hbond>
5.9500

> <Gold.PLP.Chemscore.CHOScore>
0.0000

> <Gold.PLP.Chemscore.Metal>
0.0000

> <Gold.Chemscore.Hbonds>
donor molecule, donor type, donor heavy atom, donor atom, acceptor molecule, acceptor atom, score
      L1  H     8    25       P1  7948  0.88
      L1  H    12    44       P1  7948  2.00
      P1  H  7989  7998       L1    20  1.00
      P1  H 10752 10765       L1     5  2.00

> <Gold.PLP.Chemscore.Internal.Correction>
0.1474

> <Gold.Rescore>
     Score         DG    S(hbond)    S(metal)    S(lipo)     H(rot)  DE(clash)    DE(int)     intcor
     17.72     -18.94       3.04        0.00      61.32       1.52       0.01       1.20       ----

> <Gold.Chemscore.Fitness>
17.7229

> <Gold.Chemscore.DG>
-18.9360

> <Gold.Chemscore.ZeroCoef>
-5.4800

> <Gold.Chemscore.Hbond>
3.0448

> <Gold.Chemscore.Metal>
0.0000

> <Gold.Chemscore.Lipo>
61.3249

> <Gold.Chemscore.Internal_Hbond>
0.0000

> <Gold.Chemscore.DEClash>
0.0126

> <Gold.Chemscore.DEInternal>
1.2005

> <Gold.Chemscore.Rot>
1.5190

> <Gold.Chemscore.Internal.Correction>
   9.000000E+99

> <Gold.Chemscore.Hbonds>
donor molecule, donor type, donor heavy atom, donor atom, acceptor molecule, acceptor atom, score
      L1  H     8    25       P1  7948  0.16
      L1  H    12    44       P1  7948  1.00
      P1  H  7989  7998       L1    20  0.39
      P1  H 10752 10765       L1     5  0.55

> <Gold.Chemscore.Hbond.Weighted>
-10.1696

> <Gold.Chemscore.Metal.Weighted>
-0.0000

> <Gold.Chemscore.Lipo.Weighted>
-7.1750

> <Gold.Chemscore.Internal_Hbond.Weighted>
0.0000

> <Gold.Chemscore.DEClash.Weighted>
0.0126

> <Gold.Chemscore.DEInternal.Weighted>
1.2005

> <Gold.Chemscore.Rot.Weighted>
3.8886

> <Gold.Chemscore.Internal.Correction.Weighted>
   9.000000E+99

> <Gold.Protein.RotatedTorsions>
[ 6907 6896 6895 6894 ] final -154.22 input  -60.11 | X-H torsion
[ 7974 7965 7964 7962 ] final -134.58 input  175.53 | X-H torsion
[ 8008 7997 7996 7995 ] final  174.14 input   59.86 | X-H torsion
[ 10167 10162 10161 10158 ] final  -27.15 input  -65.29 | X-H torsion
[ 10718 10713 10712 10709 ] final  -77.58 input   66.30 | X-H torsion
[ 10763 10752 10751 10750 ] final -177.52 input  -60.55 | X-H torsion
[ 11005 11000 10999 10996 ] final -121.62 input  -57.11 | X-H torsion

> <Gold.Protein.ActiveResidues>
 VAL166  LYS551  ARG553  GLY616  TRP617  ASP618  TYR619  PRO620  LYS621  CYS622 
 ASP623  PHE694  ASN695  SER759  ASP760  ASP761  ALA762  ILE779  LEU786  VAL792 
 PHE793  MET794  SER795  GLU796  ALA797  LYS798  CYS799  TRP800  GLU811  SER814 

> <Gold.Protein.RotatedAtoms>
  151.2542  133.4335  159.2612 H   0  0  0  0  0  0  0  0  0  0  0  0  # atno 6907 bound_to 6896
  151.0590  134.9724  159.8261 H   0  0  0  0  0  0  0  0  0  0  0  0  # atno 6908 bound_to 6896
  152.5395  134.2493  159.8945 H   0  0  0  0  0  0  0  0  0  0  0  0  # atno 6909 bound_to 6896
  144.9090  140.6870  143.5037 H   0  0  0  0  0  0  0  0  0  0  0  0  # atno 7974 bound_to 7965
  156.1004  140.1442  156.9475 H   0  0  0  0  0  0  0  0  0  0  0  0  # atno 8008 bound_to 7997
  154.4699  140.0913  156.7162 H   0  0  0  0  0  0  0  0  0  0  0  0  # atno 8009 bound_to 7997
  155.4769  140.3443  155.4336 H   0  0  0  0  0  0  0  0  0  0  0  0  # atno 8010 bound_to 7997
  140.7279  143.4117  151.1094 H   0  0  0  0  0  0  0  0  0  0  0  0  # atno 10167 bound_to 10162
  156.0141  130.4495  150.3366 H   0  0  0  0  0  0  0  0  0  0  0  0  # atno 10718 bound_to 10713
  154.5591  135.2819  155.0936 H   0  0  0  0  0  0  0  0  0  0  0  0  # atno 10763 bound_to 10752
  154.2352  135.6367  153.5192 H   0  0  0  0  0  0  0  0  0  0  0  0  # atno 10764 bound_to 10752
  153.0024  135.5546  154.6180 H   0  0  0  0  0  0  0  0  0  0  0  0  # atno 10765 bound_to 10752
  141.0057  134.0338  157.3480 H   0  0  0  0  0  0  0  0  0  0  0  0  # atno 11005 bound_to 11000
  145.3487  139.1712  143.4446 LP  0  0  0  0  0  0  0  0  0  0  0  0  # atno 17320 bound_to 7965
  146.3149  140.3536  142.8658 LP  0  0  0  0  0  0  0  0  0  0  0  0  # atno 17321 bound_to 7965
  139.7751  143.8437  152.3128 LP  0  0  0  0  0  0  0  0  0  0  0  0  # atno 17342 bound_to 10162
  139.8369  144.7228  150.9380 LP  0  0  0  0  0  0  0  0  0  0  0  0  # atno 17343 bound_to 10162
  157.1463  131.0309  151.2905 LP  0  0  0  0  0  0  0  0  0  0  0  0  # atno 17370 bound_to 10713
  157.4430  130.7555  149.7085 LP  0  0  0  0  0  0  0  0  0  0  0  0  # atno 17371 bound_to 10713
  139.9062  135.0180  156.7495 LP  0  0  0  0  0  0  0  0  0  0  0  0  # atno 17394 bound_to 11000
  140.6817  133.9469  155.7914 LP  0  0  0  0  0  0  0  0  0  0  0  0  # atno 17395 bound_to 11000

$$$$
