AV-unprocessed.smi:157|AV-procd|sdf|1306|dock5
  -GOLD-   2262018593D 1   1.00000     0.00000
 Structure written by MMmdl.
 35 37  0  0  0  0  0  0  0  0  1 V2000
  155.9608  140.0242  159.3844 O   0  0  0  0  0  0  0  0  0  0  0  0
  154.6809  139.8501  159.9548 C   0  0  0  0  0  0  0  0  0  0  0  0
  153.8317  138.9124  159.0840 C   0  0  2  0  0  0  0  0  0  0  0  0
  153.1268  139.6973  158.1260 O   0  0  0  0  0  0  0  0  0  0  0  0
  151.9208  139.0630  157.8686 C   0  0  2  0  0  0  0  0  0  0  0  0
  150.9634  140.0552  157.2883 N   0  0  0  0  0  0  0  0  0  0  0  0
  150.7112  141.2831  157.7607 C   0  0  0  0  0  0  0  0  0  0  0  0
  149.8155  141.9654  157.0672 N   0  0  0  0  0  0  0  0  0  0  0  0
  149.4488  141.0940  156.0429 C   0  0  0  0  0  0  0  0  0  0  0  0
  150.1461  139.9004  156.1650 C   0  0  0  0  0  0  0  0  0  0  0  0
  150.1880  138.6985  155.4846 N   0  0  0  0  0  0  0  0  0  0  0  0
  149.7329  138.6710  154.2717 C   0  0  0  0  0  0  0  0  0  0  0  0
  149.0986  139.6584  153.5317 N   0  0  0  0  0  0  0  0  0  0  0  0
  147.9863  140.4433  154.0397 C   0  0  0  0  0  0  0  0  0  0  0  0
  148.4043  141.5185  155.0507 C   0  0  2  0  0  0  0  0  0  0  0  0
  148.9236  142.6335  154.3551 O   0  0  0  0  0  0  0  0  0  0  0  0
  151.4389  138.5671  159.2228 C   0  0  0  0  0  0  0  0  0  0  0  0
  152.7480  138.1316  159.8629 C   0  0  1  0  0  0  0  0  0  0  0  0
  152.9300  136.7394  159.6944 O   0  0  0  0  0  0  0  0  0  0  0  0
  154.4805  138.2304  158.5305 H   0  0  0  0  0  0  0  0  0  0  0  0
  152.0510  138.2747  157.1256 H   0  0  0  0  0  0  0  0  0  0  0  0
  147.5130  141.8627  155.5760 H   0  0  0  0  0  0  0  0  0  0  0  0
  152.7528  138.3598  160.9294 H   0  0  0  0  0  0  0  0  0  0  0  0
  156.6083  139.7212  160.0025 H   0  0  0  0  0  0  0  0  0  0  0  0
  154.7777  139.4616  160.9691 H   0  0  0  0  0  0  0  0  0  0  0  0
  154.2041  140.8279  160.0273 H   0  0  0  0  0  0  0  0  0  0  0  0
  151.1950  141.6864  158.6383 H   0  0  0  0  0  0  0  0  0  0  0  0
  149.8339  137.7467  153.7011 H   0  0  0  0  0  0  0  0  0  0  0  0
  149.0368  139.5428  152.5306 H   0  0  0  0  0  0  0  0  0  0  0  0
  147.4338  140.8851  153.2100 H   0  0  0  0  0  0  0  0  0  0  0  0
  147.2989  139.7507  154.5277 H   0  0  0  0  0  0  0  0  0  0  0  0
  148.7230  143.4114  154.8531 H   0  0  0  0  0  0  0  0  0  0  0  0
  151.0072  139.4008  159.7787 H   0  0  0  0  0  0  0  0  0  0  0  0
  150.6912  137.7795  159.1191 H   0  0  0  0  0  0  0  0  0  0  0  0
  153.8526  136.5709  159.5773 H   0  0  0  0  0  0  0  0  0  0  0  0
  1  2  1  0  0  0  0
  1 24  1  0  0  0  0
  2  3  1  0  0  0  0
  2 25  1  0  0  0  0
  2 26  1  0  0  0  0
  3 20  1  0  0  0  0
  3 18  1  0  0  0  0
  3  4  1  0  0  0  0
  4  5  1  0  0  0  0
  5 21  1  0  0  0  0
  5  6  1  0  0  0  0
  5 17  1  0  0  0  0
  6 10  1  0  0  0  0
  6  7  1  0  0  0  0
  7  8  2  0  0  0  0
  7 27  1  0  0  0  0
  8  9  1  0  0  0  0
  9 15  1  0  0  0  0
  9 10  2  0  0  0  0
 10 11  1  0  0  0  0
 11 12  2  0  0  0  0
 12 13  1  0  0  0  0
 12 28  1  0  0  0  0
 13 14  1  0  0  0  0
 13 29  1  0  0  0  0
 14 15  1  0  0  0  0
 14 30  1  0  0  0  0
 14 31  1  0  0  0  0
 15 22  1  0  0  0  0
 15 16  1  0  0  0  0
 16 32  1  0  0  0  0
 17 18  1  0  0  0  0
 17 33  1  0  0  0  0
 17 34  1  0  0  0  0
 18 23  1  0  0  0  0
 18 19  1  0  0  0  0
 19 35  1  0  0  0  0
M  END
> <s_m_source_file>
AV-unprocessed.smi

> <i_m_source_file_index>
157

> <i_lp_mmshare_version>
43012

> <i_f3d_flags>
0

> <s_epik_input>
W09IXVtDSDJdW0NASF0xT1tDQEhdKFtDSDJdW0NAQEhdMVtPSF0pbihbY0hdbjIpYyhjMjMpTj1bQ0hdW05IXVtDSDJdW0NASF0zW09IXQ==

> <s_epik_cmdline>
J2VwaWtfcHl0aG9uJywgJy1waCcsICc3LjAnLCAnLXRuJywgJzgnLCAnLW1hJywgJzIwMCcsICctbWV0YWxfYmluZGluZycsICctaW1hZScsICc8aW5maWxlLm1hZT4nLCAnLW9tYWUnLCAnPG91dGZpbGUubWFlPic=

> <r_lp_tautomer_probability>
1

> <r_epik_Ionization_Penalty>
0.0357149

> <r_epik_Ionization_Penalty_Charging>
0.0355056

> <r_epik_Ionization_Penalty_Neutral>
0.000209255

> <r_epik_State_Penalty>
0.0296046

> <r_epik_Charging_Adjusted_Penalty>
0.0651102

> <i_epik_Tot_Q>
0

> <i_epik_Tot_abs_Q>
0

> <r_epik_Metal_State_Penalty>
3.03559e-05

> <b_epik_Metal_Only>
0

> <s_epik_Chemistry_Notes>
This compound has an imine and may undergo hydrolysis. This compound contains an acetal/aminal-like group ( X-CH(R)-Y where X, Y are N, S, or O) that may be acid/base labile, releasing an aldehyde.

> <s_lp_Force_Field>
OPLS_2005

> <r_lp_Energy>
43.6155

> <b_lp_Chiralities_Consistent>
1

> <s_lp_Variant>
AV-unprocessed.smi:157-16

> <Gold.Version>
5.8.1

> <Gold.Id.Protein>
6NUR|6NUR_protein|mol2

> <Gold.PLP.Fitness>
42.1680

> <Gold.PLP.PLP>
-26.9816

> <Gold.PLP.part.hbond>
-5.4332

> <Gold.PLP.part.metal>
0.0000

> <Gold.PLP.part.buried>
-4.8772

> <Gold.PLP.part.nonpolar>
-16.9543

> <Gold.PLP.part.repulsive>
0.3039

> <Gold.PLP.ligand.clash>
0.0000

> <Gold.PLP.ligand.torsion>
0.5471

> <Gold.PLP.Chemscore.Hbond>
4.4185

> <Gold.PLP.Chemscore.CHOScore>
1.0000

> <Gold.PLP.Chemscore.Metal>
0.0000

> <Gold.Chemscore.Hbonds>
donor molecule, donor type, donor heavy atom, donor atom, acceptor molecule, acceptor atom, score
      L1  H    13    29       P1  7957  0.90
      L1  H    16    32       P1  8028  0.98
      P1  H  6896  6907       L1    19  1.00
      P1  H  7997  8009       L1     1  0.40
      P1  H  7997  8010       L1     4  0.61
      P1  H  8011  8017       L1    16  0.04
      L1  C    12    28       P1  7948  1.00

> <Gold.PLP.Chemscore.Internal.Correction>
0.0251

> <Gold.Rescore>
     Score         DG    S(hbond)    S(metal)    S(lipo)     H(rot)  DE(clash)    DE(int)     intcor
     14.15     -14.67       4.21        0.00      37.87       3.64       0.00       0.52       ----

> <Gold.Chemscore.Fitness>
14.1475

> <Gold.Chemscore.DG>
-14.6669

> <Gold.Chemscore.ZeroCoef>
-5.4800

> <Gold.Chemscore.Hbond>
4.2111

> <Gold.Chemscore.Metal>
0.0000

> <Gold.Chemscore.Lipo>
37.8688

> <Gold.Chemscore.Internal_Hbond>
0.0000

> <Gold.Chemscore.DEClash>
0.0009

> <Gold.Chemscore.DEInternal>
0.5184

> <Gold.Chemscore.Rot>
3.6362

> <Gold.Chemscore.Internal.Correction>
   9.000000E+99

> <Gold.Chemscore.Hbonds>
donor molecule, donor type, donor heavy atom, donor atom, acceptor molecule, acceptor atom, score
      L1  H    13    29       P1  7957  0.85
      L1  H    16    32       P1  8028  0.91
      P1  H  6896  6907       L1    19  0.39
      P1  H  7997  8009       L1     1  0.34
      P1  H  7997  8010       L1     4  0.39
      P1  H  8011  8017       L1    16  0.05

> <Gold.Chemscore.Hbond.Weighted>
-14.0650

> <Gold.Chemscore.Metal.Weighted>
-0.0000

> <Gold.Chemscore.Lipo.Weighted>
-4.4306

> <Gold.Chemscore.Internal_Hbond.Weighted>
0.0000

> <Gold.Chemscore.DEClash.Weighted>
0.0009

> <Gold.Chemscore.DEInternal.Weighted>
0.5184

> <Gold.Chemscore.Rot.Weighted>
9.3087

> <Gold.Chemscore.Internal.Correction.Weighted>
   9.000000E+99

> <Gold.Protein.RotatedTorsions>
[ 6907 6896 6895 6894 ] final   40.41 input  -60.11 | X-H torsion
[ 7974 7965 7964 7962 ] final   79.26 input  175.53 | X-H torsion
[ 8008 7997 7996 7995 ] final   68.75 input   59.86 | X-H torsion
[ 10167 10162 10161 10158 ] final   44.90 input  -65.29 | X-H torsion
[ 10718 10713 10712 10709 ] final  126.80 input   66.30 | X-H torsion
[ 10763 10752 10751 10750 ] final -169.67 input  -60.55 | X-H torsion
[ 11005 11000 10999 10996 ] final -178.86 input  -57.11 | X-H torsion

> <Gold.Protein.ActiveResidues>
 VAL166  LYS551  ARG553  GLY616  TRP617  ASP618  TYR619  PRO620  LYS621  CYS622 
 ASP623  PHE694  ASN695  SER759  ASP760  ASP761  ALA762  ILE779  LEU786  VAL792 
 PHE793  MET794  SER795  GLU796  ALA797  LYS798  CYS799  TRP800  GLU811  SER814 

> <Gold.Protein.RotatedAtoms>
  152.1822  134.8744  160.0525 H   0  0  0  0  0  0  0  0  0  0  0  0  # atno 6907 bound_to 6896
  151.9665  133.3707  159.4063 H   0  0  0  0  0  0  0  0  0  0  0  0  # atno 6908 bound_to 6896
  150.6919  134.4109  159.5205 H   0  0  0  0  0  0  0  0  0  0  0  0  # atno 6909 bound_to 6896
  145.6665  139.2485  143.1893 H   0  0  0  0  0  0  0  0  0  0  0  0  # atno 7974 bound_to 7965
  155.7131  140.3494  155.4982 H   0  0  0  0  0  0  0  0  0  0  0  0  # atno 8008 bound_to 7997
  155.9338  140.1089  157.1133 H   0  0  0  0  0  0  0  0  0  0  0  0  # atno 8009 bound_to 7997
  154.4090  140.1226  156.4824 H   0  0  0  0  0  0  0  0  0  0  0  0  # atno 8010 bound_to 7997
  140.3296  144.2605  150.6170 H   0  0  0  0  0  0  0  0  0  0  0  0  # atno 10167 bound_to 10162
  157.5388  131.1097  150.8892 H   0  0  0  0  0  0  0  0  0  0  0  0  # atno 10718 bound_to 10713
  154.6498  135.2910  155.0001 H   0  0  0  0  0  0  0  0  0  0  0  0  # atno 10763 bound_to 10752
  154.1098  135.6564  153.4887 H   0  0  0  0  0  0  0  0  0  0  0  0  # atno 10764 bound_to 10752
  153.0370  135.5262  154.7401 H   0  0  0  0  0  0  0  0  0  0  0  0  # atno 10765 bound_to 10752
  140.4250  134.6571  157.4683 H   0  0  0  0  0  0  0  0  0  0  0  0  # atno 11005 bound_to 11000
  146.1082  140.7461  142.9516 LP  0  0  0  0  0  0  0  0  0  0  0  0  # atno 17320 bound_to 7965
  144.7071  140.3896  143.7109 LP  0  0  0  0  0  0  0  0  0  0  0  0  # atno 17321 bound_to 7965
  140.5409  143.2224  151.8086 LP  0  0  0  0  0  0  0  0  0  0  0  0  # atno 17342 bound_to 10162
  139.4859  144.4601  151.9551 LP  0  0  0  0  0  0  0  0  0  0  0  0  # atno 17343 bound_to 10162
  156.9451  130.5399  149.5281 LP  0  0  0  0  0  0  0  0  0  0  0  0  # atno 17370 bound_to 10713
  156.0480  130.5553  150.8925 LP  0  0  0  0  0  0  0  0  0  0  0  0  # atno 17371 bound_to 10713
  140.0173  134.6599  155.9290 LP  0  0  0  0  0  0  0  0  0  0  0  0  # atno 17394 bound_to 11000
  141.1769  133.6541  156.4863 LP  0  0  0  0  0  0  0  0  0  0  0  0  # atno 17395 bound_to 11000

$$$$
