AV-unprocessed.smi:2623|AV-procd|sdf|10230|dock6
  -GOLD-   2272014233D 1   1.00000     0.00000
 Structure written by MMmdl.
 40 42  0  0  0  0  0  0  0  0  1 V2000
  151.9389  137.4177  153.8397 O   0  0  0  0  0  0  0  0  0  0  0  0
  150.7150  137.7373  154.4708 C   0  0  0  0  0  0  0  0  0  0  0  0
  150.7747  138.9647  155.3361 C   0  0  0  0  0  0  0  0  0  0  0  0
  151.0144  140.1866  154.8536 N   0  0  0  0  0  0  0  0  0  0  0  0
  150.9632  140.9785  155.9834 C   0  0  0  0  0  0  0  0  0  0  0  0
  151.1346  142.3733  156.1359 C   0  0  0  0  0  0  0  0  0  0  0  0
  151.0335  142.9699  157.4098 C   0  0  0  0  0  0  0  0  0  0  0  0
  150.7604  142.1822  158.5467 C   0  0  0  0  0  0  0  0  0  0  0  0
  150.5858  140.7909  158.4167 C   0  0  0  0  0  0  0  0  0  0  0  0
  150.6877  140.2001  157.1428 C   0  0  0  0  0  0  0  0  0  0  0  0
  150.5740  138.8934  156.6763 N   0  0  0  0  0  0  0  0  0  0  0  0
  150.2913  137.7106  157.4793 C   0  0  0  0  0  0  0  0  0  0  0  0
  149.1481  137.9316  158.4917 C   0  0  1  0  0  0  0  0  0  0  0  0
  147.8967  137.8347  157.8407 O   0  0  0  0  0  0  0  0  0  0  0  0
  149.1756  136.9130  159.6404 C   0  0  0  0  0  0  0  0  0  0  0  0
  148.0981  137.1857  160.5265 O   0  0  0  0  0  0  0  0  0  0  0  0
  147.4881  136.1231  161.1580 C   0  0  0  0  0  0  0  0  0  0  0  0
  146.4211  136.4240  162.0298 C   0  0  0  0  0  0  0  0  0  0  0  0
  145.7380  135.4002  162.7141 C   0  0  0  0  0  0  0  0  0  0  0  0
  146.1175  134.0578  162.5318 C   0  0  0  0  0  0  0  0  0  0  0  0
  147.1811  133.7425  161.6661 C   0  0  0  0  0  0  0  0  0  0  0  0
  147.8647  134.7669  160.9822 C   0  0  0  0  0  0  0  0  0  0  0  0
  151.7589  136.8592  153.0993 H   0  0  0  0  0  0  0  0  0  0  0  0
  149.9569  137.8813  153.7007 H   0  0  0  0  0  0  0  0  0  0  0  0
  150.4102  136.8831  155.0745 H   0  0  0  0  0  0  0  0  0  0  0  0
  151.3444  142.9848  155.2710 H   0  0  0  0  0  0  0  0  0  0  0  0
  151.1668  144.0368  157.5148 H   0  0  0  0  0  0  0  0  0  0  0  0
  150.6856  142.6468  159.5189 H   0  0  0  0  0  0  0  0  0  0  0  0
  150.3777  140.1856  159.2861 H   0  0  0  0  0  0  0  0  0  0  0  0
  150.0463  136.8871  156.8075 H   0  0  0  0  0  0  0  0  0  0  0  0
  151.2038  137.4110  157.9950 H   0  0  0  0  0  0  0  0  0  0  0  0
  149.2160  138.9352  158.9117 H   0  0  0  0  0  0  0  0  0  0  0  0
  147.8479  136.9975  157.4053 H   0  0  0  0  0  0  0  0  0  0  0  0
  149.0657  135.9051  159.2361 H   0  0  0  0  0  0  0  0  0  0  0  0
  150.1307  136.9653  160.1663 H   0  0  0  0  0  0  0  0  0  0  0  0
  146.1226  137.4518  162.1755 H   0  0  0  0  0  0  0  0  0  0  0  0
  144.9223  135.6454  163.3781 H   0  0  0  0  0  0  0  0  0  0  0  0
  145.5937  133.2712  163.0546 H   0  0  0  0  0  0  0  0  0  0  0  0
  147.4734  132.7124  161.5250 H   0  0  0  0  0  0  0  0  0  0  0  0
  148.6739  134.4846  160.3264 H   0  0  0  0  0  0  0  0  0  0  0  0
  1  2  1  0  0  0  0
  1 23  1  0  0  0  0
  2  3  1  0  0  0  0
  2 24  1  0  0  0  0
  2 25  1  0  0  0  0
  3 11  1  0  0  0  0
  3  4  2  0  0  0  0
  4  5  1  0  0  0  0
  5 10  2  0  0  0  0
  5  6  1  0  0  0  0
  6  7  2  0  0  0  0
  6 26  1  0  0  0  0
  7  8  1  0  0  0  0
  7 27  1  0  0  0  0
  8  9  2  0  0  0  0
  8 28  1  0  0  0  0
  9 10  1  0  0  0  0
  9 29  1  0  0  0  0
 10 11  1  0  0  0  0
 11 12  1  0  0  0  0
 12 13  1  0  0  0  0
 12 30  1  0  0  0  0
 12 31  1  0  0  0  0
 13 14  1  0  0  0  0
 13 15  1  0  0  0  0
 13 32  1  0  0  0  0
 14 33  1  0  0  0  0
 15 16  1  0  0  0  0
 15 34  1  0  0  0  0
 15 35  1  0  0  0  0
 16 17  1  0  0  0  0
 17 22  1  0  0  0  0
 17 18  2  0  0  0  0
 18 19  1  0  0  0  0
 18 36  1  0  0  0  0
 19 20  2  0  0  0  0
 19 37  1  0  0  0  0
 20 21  1  0  0  0  0
 20 38  1  0  0  0  0
 21 22  2  0  0  0  0
 21 39  1  0  0  0  0
 22 40  1  0  0  0  0
M  END
> <s_m_source_file>
AV-unprocessed.smi

> <i_m_source_file_index>
2623

> <i_lp_mmshare_version>
43012

> <i_f3d_flags>
0

> <s_epik_input>
W2NIXTFbY0hdW2NIXVtjSF1jKGMxMiluKGMobjIpW0NIMl1bT0hdKVtDSDJdW0NASF0oW09IXSlbQ0gyXU9jM1tjSF1bY0hdW2NIXVtjSF1bY0hdMw==

> <s_epik_cmdline>
J2VwaWtfcHl0aG9uJywgJy1waCcsICc3LjAnLCAnLXRuJywgJzgnLCAnLW1hJywgJzIwMCcsICctbWV0YWxfYmluZGluZycsICctaW1hZScsICc8aW5maWxlLm1hZT4nLCAnLW9tYWUnLCAnPG91dGZpbGUubWFlPic=

> <r_lp_tautomer_probability>
1

> <r_epik_Ionization_Penalty>
0.0583159

> <r_epik_Ionization_Penalty_Charging>
0

> <r_epik_Ionization_Penalty_Neutral>
0.0583159

> <r_epik_State_Penalty>
0.0503525

> <r_epik_Charging_Adjusted_Penalty>
0.0503525

> <i_epik_Tot_Q>
0

> <i_epik_Tot_abs_Q>
0

> <r_epik_Metal_State_Penalty>
5.25517e-05

> <b_epik_Metal_Only>
0

> <s_lp_Force_Field>
OPLS_2005

> <r_lp_Energy>
15.201

> <b_lp_Chiralities_Consistent>
1

> <s_lp_Variant>
AV-unprocessed.smi:2623-2

> <Gold.Version>
5.8.1

> <Gold.Id.Protein>
6NUR|6NUR_protein|mol2

> <Gold.PLP.Fitness>
48.1772

> <Gold.PLP.PLP>
-39.1920

> <Gold.PLP.part.hbond>
-5.0000

> <Gold.PLP.part.metal>
0.0000

> <Gold.PLP.part.buried>
-5.8413

> <Gold.PLP.part.nonpolar>
-28.0954

> <Gold.PLP.part.repulsive>
0.0643

> <Gold.PLP.ligand.clash>
0.0000

> <Gold.PLP.ligand.torsion>
0.6087

> <Gold.PLP.Chemscore.Hbond>
3.3700

> <Gold.PLP.Chemscore.CHOScore>
0.0000

> <Gold.PLP.Chemscore.Metal>
0.0000

> <Gold.Chemscore.Hbonds>
donor molecule, donor type, donor heavy atom, donor atom, acceptor molecule, acceptor atom, score
      L1  H     1    23       P1  7949  1.00
      P1  H  6931  6943       L1    16  0.77
      P1  H  6934  6947       L1    16  0.62
      P1  H  7989  7998       L1     4  1.00

> <Gold.PLP.Chemscore.Internal.Correction>
0.0925

> <Gold.Rescore>
     Score         DG    S(hbond)    S(metal)    S(lipo)     H(rot)  DE(clash)    DE(int)     intcor
     17.47     -19.05       2.70        0.00     105.37       3.04       0.96       0.62       ----

> <Gold.Chemscore.Fitness>
17.4693

> <Gold.Chemscore.DG>
-19.0518

> <Gold.Chemscore.ZeroCoef>
-5.4800

> <Gold.Chemscore.Hbond>
2.6991

> <Gold.Chemscore.Metal>
0.0000

> <Gold.Chemscore.Lipo>
105.3698

> <Gold.Chemscore.Internal_Hbond>
0.0000

> <Gold.Chemscore.DEClash>
0.9621

> <Gold.Chemscore.DEInternal>
0.6204

> <Gold.Chemscore.Rot>
3.0358

> <Gold.Chemscore.Internal.Correction>
   9.000000E+99

> <Gold.Chemscore.Hbonds>
donor molecule, donor type, donor heavy atom, donor atom, acceptor molecule, acceptor atom, score
      L1  H     1    23       P1  7949  0.99
      P1  H  6931  6943       L1    16  0.14
      P1  H  6934  6947       L1    16  0.53
      P1  H  7989  7998       L1     4  0.94

> <Gold.Chemscore.Hbond.Weighted>
-9.0151

> <Gold.Chemscore.Metal.Weighted>
-0.0000

> <Gold.Chemscore.Lipo.Weighted>
-12.3283

> <Gold.Chemscore.Internal_Hbond.Weighted>
0.0000

> <Gold.Chemscore.DEClash.Weighted>
0.9621

> <Gold.Chemscore.DEInternal.Weighted>
0.6204

> <Gold.Chemscore.Rot.Weighted>
7.7716

> <Gold.Chemscore.Internal.Correction.Weighted>
   9.000000E+99

> <Gold.Protein.RotatedTorsions>
[ 6907 6896 6895 6894 ] final   12.56 input  -60.11 | X-H torsion
[ 7974 7965 7964 7962 ] final   57.51 input  175.53 | X-H torsion
[ 8008 7997 7996 7995 ] final  -45.28 input   59.86 | X-H torsion
[ 10167 10162 10161 10158 ] final  -28.71 input  -65.29 | X-H torsion
[ 10718 10713 10712 10709 ] final  149.80 input   66.30 | X-H torsion
[ 10763 10752 10751 10750 ] final  120.81 input  -60.55 | X-H torsion
[ 11005 11000 10999 10996 ] final    3.35 input  -57.11 | X-H torsion

> <Gold.Protein.ActiveResidues>
 VAL166  LYS551  ARG553  GLY616  TRP617  ASP618  TYR619  PRO620  LYS621  CYS622 
 ASP623  PHE694  ASN695  SER759  ASP760  ASP761  ALA762  ILE779  LEU786  VAL792 
 PHE793  MET794  SER795  GLU796  ALA797  LYS798  CYS799  TRP800  GLU811  SER814 

> <Gold.Protein.RotatedAtoms>
  151.7723  135.0783  160.0361 H   0  0  0  0  0  0  0  0  0  0  0  0  # atno 6907 bound_to 6896
  152.3280  133.5922  159.5798 H   0  0  0  0  0  0  0  0  0  0  0  0  # atno 6908 bound_to 6896
  150.7406  133.9827  159.3623 H   0  0  0  0  0  0  0  0  0  0  0  0  # atno 6909 bound_to 6896
  145.9283  139.3786  143.0437 H   0  0  0  0  0  0  0  0  0  0  0  0  # atno 7974 bound_to 7965
  154.4000  140.1400  156.3822 H   0  0  0  0  0  0  0  0  0  0  0  0  # atno 8008 bound_to 7997
  155.7993  140.3476  155.5373 H   0  0  0  0  0  0  0  0  0  0  0  0  # atno 8009 bound_to 7997
  155.8500  140.0940  157.1671 H   0  0  0  0  0  0  0  0  0  0  0  0  # atno 8010 bound_to 7997
  140.7267  143.3988  151.1301 H   0  0  0  0  0  0  0  0  0  0  0  0  # atno 10167 bound_to 10162
  157.2915  131.0854  151.1458 H   0  0  0  0  0  0  0  0  0  0  0  0  # atno 10718 bound_to 10713
  153.6042  135.3442  155.2956 H   0  0  0  0  0  0  0  0  0  0  0  0  # atno 10763 bound_to 10752
  154.8630  135.4235  154.2379 H   0  0  0  0  0  0  0  0  0  0  0  0  # atno 10764 bound_to 10752
  153.3215  135.7038  153.7098 H   0  0  0  0  0  0  0  0  0  0  0  0  # atno 10765 bound_to 10752
  140.5941  133.9897  155.8102 H   0  0  0  0  0  0  0  0  0  0  0  0  # atno 11005 bound_to 11000
  145.8460  140.9555  143.0774 LP  0  0  0  0  0  0  0  0  0  0  0  0  # atno 17320 bound_to 7965
  144.6761  140.0345  143.7482 LP  0  0  0  0  0  0  0  0  0  0  0  0  # atno 17321 bound_to 7965
  139.7604  143.8643  152.3099 LP  0  0  0  0  0  0  0  0  0  0  0  0  # atno 17342 bound_to 10162
  139.8527  144.7156  150.9194 LP  0  0  0  0  0  0  0  0  0  0  0  0  # atno 17343 bound_to 10162
  157.2853  130.6769  149.6086 LP  0  0  0  0  0  0  0  0  0  0  0  0  # atno 17370 bound_to 10713
  155.9667  130.4437  150.5433 LP  0  0  0  0  0  0  0  0  0  0  0  0  # atno 17371 bound_to 10713
  141.0916  133.9908  157.3228 LP  0  0  0  0  0  0  0  0  0  0  0  0  # atno 17394 bound_to 11000
  139.9261  135.0201  156.8239 LP  0  0  0  0  0  0  0  0  0  0  0  0  # atno 17395 bound_to 11000

$$$$
