AV-unprocessed.smi:1768|AV-procd|sdf|7144|dock4
  -GOLD-   22720 8383D 1   1.00000     0.00000
 Structure written by MMmdl.
 33 34  0  0  0  0  0  0  0  0  1 V2000
  152.1042  137.4779  158.5700 C   0  0  0  0  0  0  0  0  0  0  0  0
  151.6542  136.9898  157.2355 C   0  0  0  0  0  0  0  0  0  0  0  0
  152.3560  137.1920  156.1137 N   0  0  0  0  0  0  0  0  0  0  0  0
  151.7372  136.6419  155.0001 N   0  0  0  0  0  0  0  0  0  0  0  0
  150.5830  136.0390  155.3164 C   0  0  0  0  0  0  0  0  0  0  0  0
  149.7478  135.3875  154.3712 N   0  0  0  0  0  0  0  0  0  0  0  0
  149.1487  134.1885  154.4756 C   0  0  0  0  0  0  0  0  0  0  0  0
  149.2499  133.4246  155.4359 O   0  0  0  0  0  0  0  0  0  0  0  0
  148.4149  133.9216  153.3856 N   0  0  0  0  0  0  0  0  0  0  0  0
  147.6438  132.7026  153.1506 C   0  0  1  0  0  0  0  0  0  0  0  0
  146.6295  132.5331  154.2923 C   0  0  0  0  0  0  0  0  0  0  0  0
  146.9711  132.7837  151.7663 C   0  0  2  0  0  0  0  0  0  0  0  0
  145.9530  133.9160  151.6175 C   0  0  0  0  0  0  0  0  0  0  0  0
  145.0644  133.3883  150.5151 C   0  0  0  0  0  0  0  0  0  0  0  0
  144.9925  131.9054  150.8622 C   0  0  0  0  0  0  0  0  0  0  0  0
  146.2267  131.5946  151.5031 O   0  0  0  0  0  0  0  0  0  0  0  0
  150.1532  136.0985  157.0172 S   0  0  0  0  0  0  0  0  0  0  0  0
  153.0476  138.0184  158.4848 H   0  0  0  0  0  0  0  0  0  0  0  0
  152.2442  136.6345  159.2461 H   0  0  0  0  0  0  0  0  0  0  0  0
  151.3550  138.1464  158.9939 H   0  0  0  0  0  0  0  0  0  0  0  0
  149.5785  135.8995  153.5181 H   0  0  0  0  0  0  0  0  0  0  0  0
  148.3983  134.6113  152.6489 H   0  0  0  0  0  0  0  0  0  0  0  0
  148.3015  131.8317  153.1579 H   0  0  0  0  0  0  0  0  0  0  0  0
  146.0592  131.6106  154.1842 H   0  0  0  0  0  0  0  0  0  0  0  0
  145.9213  133.3620  154.3219 H   0  0  0  0  0  0  0  0  0  0  0  0
  147.1332  132.4908  155.2586 H   0  0  0  0  0  0  0  0  0  0  0  0
  147.7261  132.8787  150.9837 H   0  0  0  0  0  0  0  0  0  0  0  0
  145.3742  134.0380  152.5344 H   0  0  0  0  0  0  0  0  0  0  0  0
  146.4129  134.8737  151.3720 H   0  0  0  0  0  0  0  0  0  0  0  0
  144.0855  133.8675  150.4831 H   0  0  0  0  0  0  0  0  0  0  0  0
  145.5468  133.5260  149.5465 H   0  0  0  0  0  0  0  0  0  0  0  0
  144.1811  131.7177  151.5664 H   0  0  0  0  0  0  0  0  0  0  0  0
  144.8303  131.2798  149.9842 H   0  0  0  0  0  0  0  0  0  0  0  0
  1  2  1  0  0  0  0
  1 18  1  0  0  0  0
  1 19  1  0  0  0  0
  1 20  1  0  0  0  0
  2 17  1  0  0  0  0
  2  3  2  0  0  0  0
  3  4  1  0  0  0  0
  4  5  2  0  0  0  0
  5  6  1  0  0  0  0
  5 17  1  0  0  0  0
  6  7  1  0  0  0  0
  6 21  1  0  0  0  0
  7  8  2  0  0  0  0
  7  9  1  0  0  0  0
  9 10  1  0  0  0  0
  9 22  1  0  0  0  0
 10 11  1  0  0  0  0
 10 12  1  0  0  0  0
 10 23  1  0  0  0  0
 11 24  1  0  0  0  0
 11 25  1  0  0  0  0
 11 26  1  0  0  0  0
 12 16  1  0  0  0  0
 12 13  1  0  0  0  0
 12 27  1  0  0  0  0
 13 14  1  0  0  0  0
 13 28  1  0  0  0  0
 13 29  1  0  0  0  0
 14 15  1  0  0  0  0
 14 30  1  0  0  0  0
 14 31  1  0  0  0  0
 15 16  1  0  0  0  0
 15 32  1  0  0  0  0
 15 33  1  0  0  0  0
M  END
> <s_m_source_file>
AV-unprocessed.smi

> <i_m_source_file_index>
1768

> <i_lp_mmshare_version>
43012

> <i_f3d_flags>
0

> <s_epik_input>
W0NIM11jMW5uYyhzMSlbTkhdQyg9TylbTkhdW0NASF0oW0NIM10pW0NAQEhdMltDSDJdW0NIMl1bQ0gyXU8y

> <s_epik_cmdline>
J2VwaWtfcHl0aG9uJywgJy1waCcsICc3LjAnLCAnLXRuJywgJzgnLCAnLW1hJywgJzIwMCcsICctbWV0YWxfYmluZGluZycsICctaW1hZScsICc8aW5maWxlLm1hZT4nLCAnLW9tYWUnLCAnPG91dGZpbGUubWFlPic=

> <r_lp_tautomer_probability>
1

> <r_epik_Ionization_Penalty>
0.000523083

> <r_epik_Ionization_Penalty_Charging>
0

> <r_epik_Ionization_Penalty_Neutral>
0.000523083

> <r_epik_State_Penalty>
-0

> <r_epik_Charging_Adjusted_Penalty>
0

> <i_epik_Tot_Q>
0

> <i_epik_Tot_abs_Q>
0

> <r_epik_Metal_State_Penalty>
0.223408

> <b_epik_Metal_Only>
0

> <s_lp_Force_Field>
OPLS_2005

> <r_lp_Energy>
16.97

> <b_lp_Chiralities_Consistent>
1

> <s_lp_Variant>
AV-unprocessed.smi:1768-2

> <Gold.Version>
5.8.1

> <Gold.Id.Protein>
6NUR|6NUR_protein|mol2

> <Gold.PLP.Fitness>
32.2591

> <Gold.PLP.PLP>
-24.0149

> <Gold.PLP.part.hbond>
-4.2199

> <Gold.PLP.part.metal>
0.0000

> <Gold.PLP.part.buried>
-3.9294

> <Gold.PLP.part.nonpolar>
-15.9838

> <Gold.PLP.part.repulsive>
0.2985

> <Gold.PLP.ligand.clash>
0.0000

> <Gold.PLP.ligand.torsion>
0.3841

> <Gold.PLP.Chemscore.Hbond>
3.0000

> <Gold.PLP.Chemscore.CHOScore>
0.0000

> <Gold.PLP.Chemscore.Metal>
0.0000

> <Gold.Chemscore.Hbonds>
donor molecule, donor type, donor heavy atom, donor atom, acceptor molecule, acceptor atom, score
      L1  H     6    21       P1  7948  1.00
      L1  H     9    22       P1  7948  0.95
      P1  H 10752 10765       L1     4  1.00

> <Gold.PLP.Chemscore.Internal.Correction>
0.0124

> <Gold.Rescore>
     Score         DG    S(hbond)    S(metal)    S(lipo)     H(rot)  DE(clash)    DE(int)     intcor
     12.29     -14.21       2.09        0.00      43.12       1.29       0.00       1.92       ----

> <Gold.Chemscore.Fitness>
12.2903

> <Gold.Chemscore.DG>
-14.2082

> <Gold.Chemscore.ZeroCoef>
-5.4800

> <Gold.Chemscore.Hbond>
2.0931

> <Gold.Chemscore.Metal>
0.0000

> <Gold.Chemscore.Lipo>
43.1156

> <Gold.Chemscore.Internal_Hbond>
0.0000

> <Gold.Chemscore.DEClash>
0.0000

> <Gold.Chemscore.DEInternal>
1.9178

> <Gold.Chemscore.Rot>
1.2919

> <Gold.Chemscore.Internal.Correction>
   9.000000E+99

> <Gold.Chemscore.Hbonds>
donor molecule, donor type, donor heavy atom, donor atom, acceptor molecule, acceptor atom, score
      L1  H     6    21       P1  7948  0.25
      L1  H     9    22       P1  7948  0.21
      P1  H 10752 10765       L1     4  0.32

> <Gold.Chemscore.Hbond.Weighted>
-6.9908

> <Gold.Chemscore.Metal.Weighted>
-0.0000

> <Gold.Chemscore.Lipo.Weighted>
-5.0445

> <Gold.Chemscore.Internal_Hbond.Weighted>
0.0000

> <Gold.Chemscore.DEClash.Weighted>
0.0000

> <Gold.Chemscore.DEInternal.Weighted>
1.9178

> <Gold.Chemscore.Rot.Weighted>
3.3072

> <Gold.Chemscore.Internal.Correction.Weighted>
   9.000000E+99

> <Gold.Protein.RotatedTorsions>
[ 6907 6896 6895 6894 ] final   66.59 input  -60.11 | X-H torsion
[ 7974 7965 7964 7962 ] final  163.66 input  175.53 | X-H torsion
[ 8008 7997 7996 7995 ] final  -49.60 input   59.86 | X-H torsion
[ 10167 10162 10161 10158 ] final   98.70 input  -65.29 | X-H torsion
[ 10718 10713 10712 10709 ] final   49.06 input   66.30 | X-H torsion
[ 10763 10752 10751 10750 ] final  165.99 input  -60.55 | X-H torsion
[ 11005 11000 10999 10996 ] final  -26.02 input  -57.11 | X-H torsion

> <Gold.Protein.ActiveResidues>
 VAL166  LYS551  ARG553  GLY616  TRP617  ASP618  TYR619  PRO620  LYS621  CYS622 
 ASP623  PHE694  ASN695  SER759  ASP760  ASP761  ALA762  ILE779  LEU786  VAL792 
 PHE793  MET794  SER795  GLU796  ALA797  LYS798  CYS799  TRP800  GLU811  SER814 

> <Gold.Protein.RotatedAtoms>
  152.4492  134.5431  159.9844 H   0  0  0  0  0  0  0  0  0  0  0  0  # atno 6907 bound_to 6896
  151.5508  133.3412  159.2960 H   0  0  0  0  0  0  0  0  0  0  0  0  # atno 6908 bound_to 6896
  150.8416  134.7741  159.7000 H   0  0  0  0  0  0  0  0  0  0  0  0  # atno 6909 bound_to 6896
  144.7579  139.8215  143.6343 H   0  0  0  0  0  0  0  0  0  0  0  0  # atno 7974 bound_to 7965
  154.4047  140.1293  156.4529 H   0  0  0  0  0  0  0  0  0  0  0  0  # atno 8008 bound_to 7997
  155.7348  140.3491  155.5056 H   0  0  0  0  0  0  0  0  0  0  0  0  # atno 8009 bound_to 7997
  155.9093  140.1033  157.1281 H   0  0  0  0  0  0  0  0  0  0  0  0  # atno 8010 bound_to 7997
  139.7685  144.6930  151.0190 H   0  0  0  0  0  0  0  0  0  0  0  0  # atno 10167 bound_to 10162
  157.4749  130.8278  149.8028 H   0  0  0  0  0  0  0  0  0  0  0  0  # atno 10718 bound_to 10713
  154.3323  135.2754  155.2465 H   0  0  0  0  0  0  0  0  0  0  0  0  # atno 10763 bound_to 10752
  154.4772  135.5868  153.6367 H   0  0  0  0  0  0  0  0  0  0  0  0  # atno 10764 bound_to 10752
  152.9865  135.6102  154.3517 H   0  0  0  0  0  0  0  0  0  0  0  0  # atno 10765 bound_to 10752
  140.8991  133.7536  156.0520 H   0  0  0  0  0  0  0  0  0  0  0  0  # atno 11005 bound_to 11000
  146.1611  139.4725  142.9988 LP  0  0  0  0  0  0  0  0  0  0  0  0  # atno 17320 bound_to 7965
  145.6716  141.0215  143.1655 LP  0  0  0  0  0  0  0  0  0  0  0  0  # atno 17321 bound_to 7965
  140.7812  143.4615  151.0271 LP  0  0  0  0  0  0  0  0  0  0  0  0  # atno 17342 bound_to 10162
  139.8300  143.7704  152.3179 LP  0  0  0  0  0  0  0  0  0  0  0  0  # atno 17343 bound_to 10162
  156.0092  130.3841  150.2324 LP  0  0  0  0  0  0  0  0  0  0  0  0  # atno 17370 bound_to 10713
  157.0508  131.0062  151.3254 LP  0  0  0  0  0  0  0  0  0  0  0  0  # atno 17371 bound_to 10713
  140.8252  134.3243  157.5368 LP  0  0  0  0  0  0  0  0  0  0  0  0  # atno 17394 bound_to 11000
  139.8740  134.9332  156.3574 LP  0  0  0  0  0  0  0  0  0  0  0  0  # atno 17395 bound_to 11000

$$$$
