AV-unprocessed.smi:3349|AV-procd|sdf|12937|dock6
  -GOLD-   2272019373D 1   1.00000     0.00000
 Structure written by MMmdl.
 41 42  0  0  0  0  0  0  0  0  2 V2000
  146.6719  138.7826  151.3178 C   0  0  0  0  0  0  0  0  0  0  0  0
  146.6576  138.5529  152.8488 C   0  0  2  0  0  0  0  0  0  0  0  0
  145.8030  137.2992  153.1951 C   0  0  0  0  0  0  0  0  0  0  0  0
  146.2334  136.0931  152.4927 N   0  0  0  0  0  0  0  0  0  0  0  0
  145.6423  134.8913  152.5926 C   0  0  0  0  0  0  0  0  0  0  0  0
  144.6603  134.6856  153.3067 O   0  0  0  0  0  0  0  0  0  0  0  0
  146.2591  133.7567  151.7604 C   0  0  1  0  0  0  0  0  0  0  0  0
  147.0451  132.7492  152.6238 C   0  0  0  0  0  0  0  0  0  0  0  0
  145.2328  133.1104  150.9518 N   0  0  0  0  0  0  0  0  0  0  0  0
  144.9062  131.8198  150.8531 C   0  0  0  0  0  0  0  0  0  0  0  0
  143.9433  131.5726  149.9763 N   0  0  0  0  0  0  0  0  0  0  0  0
  143.7104  132.8423  149.5298 C   0  0  0  0  0  0  0  0  0  0  0  0
  144.4632  133.7991  150.0722 N   0  0  0  0  0  0  0  0  0  0  0  0
  146.2077  139.7869  153.5769 N   0  3  0  0  0  0  0  0  0  0  0  0
  146.0091  139.6011  155.0423 C   0  0  0  0  0  0  0  0  0  0  0  0
  145.5596  140.9049  155.7239 C   0  0  0  0  0  0  0  0  0  0  0  0
  146.5036  141.9323  155.4702 O   0  0  0  0  0  0  0  0  0  0  0  0
  146.5972  142.2098  154.0824 C   0  0  0  0  0  0  0  0  0  0  0  0
  147.0956  140.9601  153.3387 C   0  0  0  0  0  0  0  0  0  0  0  0
  146.9324  137.8784  150.7685 H   0  0  0  0  0  0  0  0  0  0  0  0
  147.4115  139.5215  151.0143 H   0  0  0  0  0  0  0  0  0  0  0  0
  145.6965  139.1125  150.9591 H   0  0  0  0  0  0  0  0  0  0  0  0
  147.6818  138.3502  153.1661 H   0  0  0  0  0  0  0  0  0  0  0  0
  145.8381  137.0662  154.2591 H   0  0  0  0  0  0  0  0  0  0  0  0
  144.7564  137.4795  152.9472 H   0  0  0  0  0  0  0  0  0  0  0  0
  147.0342  136.1793  151.8834 H   0  0  0  0  0  0  0  0  0  0  0  0
  146.9723  134.2085  151.0688 H   0  0  0  0  0  0  0  0  0  0  0  0
  147.8413  133.2462  153.1790 H   0  0  0  0  0  0  0  0  0  0  0  0
  147.5107  131.9851  152.0008 H   0  0  0  0  0  0  0  0  0  0  0  0
  146.4071  132.2404  153.3473 H   0  0  0  0  0  0  0  0  0  0  0  0
  145.3858  131.0440  151.4315 H   0  0  0  0  0  0  0  0  0  0  0  0
  142.9686  133.0674  148.7777 H   0  0  0  0  0  0  0  0  0  0  0  0
  145.2363  138.8605  155.2407 H   0  0  0  0  0  0  0  0  0  0  0  0
  146.9346  139.2411  155.4948 H   0  0  0  0  0  0  0  0  0  0  0  0
  144.5702  141.2063  155.3754 H   0  0  0  0  0  0  0  0  0  0  0  0
  145.4834  140.7563  156.8014 H   0  0  0  0  0  0  0  0  0  0  0  0
  145.6316  142.5381  153.6939 H   0  0  0  0  0  0  0  0  0  0  0  0
  147.2948  143.0346  153.9356 H   0  0  0  0  0  0  0  0  0  0  0  0
  148.1107  140.7199  153.6587 H   0  0  0  0  0  0  0  0  0  0  0  0
  147.1427  141.2100  152.2809 H   0  0  0  0  0  0  0  0  0  0  0  0
  145.3019  140.0284  153.2007 H   0  0  0  0  0  0  0  0  0  0  0  0
  1  2  1  0  0  0  0
  1 20  1  0  0  0  0
  1 21  1  0  0  0  0
  1 22  1  0  0  0  0
  2  3  1  0  0  0  0
  2 14  1  0  0  0  0
  2 23  1  0  0  0  0
  3  4  1  0  0  0  0
  3 24  1  0  0  0  0
  3 25  1  0  0  0  0
  4  5  1  0  0  0  0
  4 26  1  0  0  0  0
  5  6  2  0  0  0  0
  5  7  1  0  0  0  0
  7  8  1  0  0  0  0
  7  9  1  0  0  0  0
  7 27  1  0  0  0  0
  8 28  1  0  0  0  0
  8 29  1  0  0  0  0
  8 30  1  0  0  0  0
  9 13  1  0  0  0  0
  9 10  1  0  0  0  0
 10 11  2  0  0  0  0
 10 31  1  0  0  0  0
 11 12  1  0  0  0  0
 12 13  2  0  0  0  0
 12 32  1  0  0  0  0
 14 19  1  0  0  0  0
 14 15  1  0  0  0  0
 14 41  1  0  0  0  0
 15 16  1  0  0  0  0
 15 33  1  0  0  0  0
 15 34  1  0  0  0  0
 16 17  1  0  0  0  0
 16 35  1  0  0  0  0
 16 36  1  0  0  0  0
 17 18  1  0  0  0  0
 18 19  1  0  0  0  0
 18 37  1  0  0  0  0
 18 38  1  0  0  0  0
 19 39  1  0  0  0  0
 19 40  1  0  0  0  0
M  CHG  1  14   1
M  END
> <s_m_source_file>
AV-unprocessed.smi

> <i_m_source_file_index>
3349

> <i_lp_mmshare_version>
43012

> <i_f3d_flags>
0

> <s_epik_input>
W0NIMl0xW0NIMl1PW0NIMl1bQ0gyXU4xW0NASF0oW0NIM10pW0NIMl1bTkhdQyg9TylbQ0BIXShbQ0gzXSluMltjSF1uW2NIXW4y

> <s_epik_cmdline>
J2VwaWtfcHl0aG9uJywgJy1waCcsICc3LjAnLCAnLXRuJywgJzgnLCAnLW1hJywgJzIwMCcsICctbWV0YWxfYmluZGluZycsICctaW1hZScsICc8aW5maWxlLm1hZT4nLCAnLW9tYWUnLCAnPG91dGZpbGUubWFlPic=

> <r_lp_tautomer_probability>
1

> <r_epik_Ionization_Penalty>
0.71326

> <r_epik_Ionization_Penalty_Charging>
0.713252

> <r_epik_Ionization_Penalty_Neutral>
8.10337e-06

> <r_epik_State_Penalty>
0.737017

> <r_epik_Charging_Adjusted_Penalty>
1.45027

> <i_epik_Tot_Q>
1

> <i_epik_Tot_abs_Q>
1

> <r_epik_Metal_State_Penalty>
0.73702

> <b_epik_Metal_Only>
0

> <s_lp_Force_Field>
OPLS_2005

> <r_lp_Energy>
26.6465

> <b_lp_Chiralities_Consistent>
1

> <s_lp_Variant>
AV-unprocessed.smi:3349-7

> <Gold.Version>
5.8.1

> <Gold.Id.Protein>
6NUR|6NUR_protein|mol2

> <Gold.PLP.Fitness>
43.0047

> <Gold.PLP.PLP>
-30.3109

> <Gold.PLP.part.hbond>
-3.0000

> <Gold.PLP.part.metal>
0.0000

> <Gold.PLP.part.buried>
-3.1831

> <Gold.PLP.part.nonpolar>
-26.2420

> <Gold.PLP.part.repulsive>
0.5502

> <Gold.PLP.ligand.clash>
0.0000

> <Gold.PLP.ligand.torsion>
0.3119

> <Gold.PLP.Chemscore.Hbond>
3.6480

> <Gold.PLP.Chemscore.CHOScore>
0.7425

> <Gold.PLP.Chemscore.Metal>
0.0000

> <Gold.Chemscore.Hbonds>
donor molecule, donor type, donor heavy atom, donor atom, acceptor molecule, acceptor atom, score
      L1  H     4    26       P1  7948  0.90
      L1  H    14    41       P1 10175  2.00
      P1  H 10785 10796       L1    11  0.74
      L1  C    12    32       P1 10186  0.73

> <Gold.PLP.Chemscore.Internal.Correction>
0.1459

> <Gold.Rescore>
     Score         DG    S(hbond)    S(metal)    S(lipo)     H(rot)  DE(clash)    DE(int)     intcor
     13.02     -13.56       2.65        0.00      51.02       2.63       0.27       0.27       ----

> <Gold.Chemscore.Fitness>
13.0237

> <Gold.Chemscore.DG>
-13.5614

> <Gold.Chemscore.ZeroCoef>
-5.4800

> <Gold.Chemscore.Hbond>
2.6506

> <Gold.Chemscore.Metal>
0.0000

> <Gold.Chemscore.Lipo>
51.0158

> <Gold.Chemscore.Internal_Hbond>
0.0000

> <Gold.Chemscore.DEClash>
0.2697

> <Gold.Chemscore.DEInternal>
0.2680

> <Gold.Chemscore.Rot>
2.6329

> <Gold.Chemscore.Internal.Correction>
   9.000000E+99

> <Gold.Chemscore.Hbonds>
donor molecule, donor type, donor heavy atom, donor atom, acceptor molecule, acceptor atom, score
      L1  H     4    26       P1  7948  0.88
      L1  H    14    41       P1 10175  1.00
      P1  H 10785 10796       L1    11  0.61

> <Gold.Chemscore.Hbond.Weighted>
-8.8529

> <Gold.Chemscore.Metal.Weighted>
-0.0000

> <Gold.Chemscore.Lipo.Weighted>
-5.9688

> <Gold.Chemscore.Internal_Hbond.Weighted>
0.0000

> <Gold.Chemscore.DEClash.Weighted>
0.2697

> <Gold.Chemscore.DEInternal.Weighted>
0.2680

> <Gold.Chemscore.Rot.Weighted>
6.7403

> <Gold.Chemscore.Internal.Correction.Weighted>
   9.000000E+99

> <Gold.Protein.RotatedTorsions>
[ 6907 6896 6895 6894 ] final   29.80 input  -60.11 | X-H torsion
[ 7974 7965 7964 7962 ] final  122.57 input  175.53 | X-H torsion
[ 8008 7997 7996 7995 ] final  -84.83 input   59.86 | X-H torsion
[ 10167 10162 10161 10158 ] final  -42.28 input  -65.29 | X-H torsion
[ 10718 10713 10712 10709 ] final -123.78 input   66.30 | X-H torsion
[ 10763 10752 10751 10750 ] final  123.98 input  -60.55 | X-H torsion
[ 11005 11000 10999 10996 ] final -131.49 input  -57.11 | X-H torsion

> <Gold.Protein.ActiveResidues>
 VAL166  LYS551  ARG553  GLY616  TRP617  ASP618  TYR619  PRO620  LYS621  CYS622 
 ASP623  PHE694  ASN695  SER759  ASP760  ASP761  ALA762  ILE779  LEU786  VAL792 
 PHE793  MET794  SER795  GLU796  ALA797  LYS798  CYS799  TRP800  GLU811  SER814 

> <Gold.Protein.RotatedAtoms>
  152.0367  134.9736  160.0573 H   0  0  0  0  0  0  0  0  0  0  0  0  # atno 6907 bound_to 6896
  152.1190  133.4338  159.4675 H   0  0  0  0  0  0  0  0  0  0  0  0  # atno 6908 bound_to 6896
  150.6848  134.2476  159.4541 H   0  0  0  0  0  0  0  0  0  0  0  0  # atno 6909 bound_to 6896
  145.1060  139.3485  143.4787 H   0  0  0  0  0  0  0  0  0  0  0  0  # atno 7974 bound_to 7965
  154.6341  140.0599  156.9768 H   0  0  0  0  0  0  0  0  0  0  0  0  # atno 8008 bound_to 7997
  155.1619  140.3283  155.4391 H   0  0  0  0  0  0  0  0  0  0  0  0  # atno 8009 bound_to 7997
  156.2498  140.1929  156.6726 H   0  0  0  0  0  0  0  0  0  0  0  0  # atno 8010 bound_to 7997
  140.6974  143.3047  151.3186 H   0  0  0  0  0  0  0  0  0  0  0  0  # atno 10167 bound_to 10162
  156.1531  130.6549  150.9942 H   0  0  0  0  0  0  0  0  0  0  0  0  # atno 10718 bound_to 10713
  153.6541  135.3357  155.3108 H   0  0  0  0  0  0  0  0  0  0  0  0  # atno 10763 bound_to 10752
  154.8530  135.4348  154.1873 H   0  0  0  0  0  0  0  0  0  0  0  0  # atno 10764 bound_to 10752
  153.2823  135.7010  153.7448 H   0  0  0  0  0  0  0  0  0  0  0  0  # atno 10765 bound_to 10752
  140.9254  134.1390  157.4280 H   0  0  0  0  0  0  0  0  0  0  0  0  # atno 11005 bound_to 11000
  146.3528  140.0958  142.8610 LP  0  0  0  0  0  0  0  0  0  0  0  0  # atno 17320 bound_to 7965
  145.0901  140.9279  143.4774 LP  0  0  0  0  0  0  0  0  0  0  0  0  # atno 17321 bound_to 7965
  139.6448  144.0472  152.2582 LP  0  0  0  0  0  0  0  0  0  0  0  0  # atno 17342 bound_to 10162
  139.9989  144.6307  150.7747 LP  0  0  0  0  0  0  0  0  0  0  0  0  # atno 17343 bound_to 10162
  157.6673  131.0869  150.7698 LP  0  0  0  0  0  0  0  0  0  0  0  0  # atno 17370 bound_to 10713
  156.7764  130.4845  149.5409 LP  0  0  0  0  0  0  0  0  0  0  0  0  # atno 17371 bound_to 10713
  139.8784  134.9986  156.5910 LP  0  0  0  0  0  0  0  0  0  0  0  0  # atno 17394 bound_to 11000
  140.7933  133.8564  155.8664 LP  0  0  0  0  0  0  0  0  0  0  0  0  # atno 17395 bound_to 11000

$$$$
