AV-unprocessed.smi:3172|AV-procd|sdf|12114|dock4
  -GOLD-   2272017553D 1   1.00000     0.00000
 Structure written by MMmdl.
 44 45  0  0  0  0  0  0  0  0  3 V2000
  150.9953  135.3605  155.3777 C   0  0  0  0  0  0  0  0  0  0  0  0
  151.0449  136.8428  155.2141 C   0  0  0  0  0  0  0  0  0  0  0  0
  150.5397  137.4730  154.1078 N   0  3  0  0  0  0  0  0  0  0  0  0
  150.7035  138.7930  154.2045 C   0  0  0  0  0  0  0  0  0  0  0  0
  151.3224  139.0225  155.3687 N   0  0  0  0  0  0  0  0  0  0  0  0
  151.6613  140.3845  155.8104 C   0  0  0  0  0  0  0  0  0  0  0  0
  150.4328  141.3023  155.9843 C   0  0  1  0  0  0  0  0  0  0  0  0
  149.4559  140.7992  157.0610 C   0  0  0  0  0  0  0  0  0  0  0  0
  150.8835  142.6744  156.3131 N   0  3  0  0  0  0  0  0  0  0  0  0
  151.0952  142.9641  157.7501 C   0  0  0  0  0  0  0  0  0  0  0  0
  151.7528  144.3482  157.9093 C   0  0  0  0  0  0  0  0  0  0  0  0
  152.0079  144.6863  159.3869 C   0  0  0  0  0  0  0  0  0  0  0  0
  152.8572  143.6018  160.0674 C   0  0  0  0  0  0  0  0  0  0  0  0
  152.2129  142.2159  159.9126 C   0  0  0  0  0  0  0  0  0  0  0  0
  151.9565  141.8802  158.4344 C   0  0  0  0  0  0  0  0  0  0  0  0
  151.5468  137.8331  156.0274 C   0  0  0  0  0  0  0  0  0  0  0  0
  152.2138  137.7451  157.3622 C   0  0  0  0  0  0  0  0  0  0  0  0
  150.7368  135.1020  156.4047 H   0  0  0  0  0  0  0  0  0  0  0  0
  151.9664  134.9249  155.1429 H   0  0  0  0  0  0  0  0  0  0  0  0
  150.2477  134.9234  154.7149 H   0  0  0  0  0  0  0  0  0  0  0  0
  150.3982  139.5273  153.4801 H   0  0  0  0  0  0  0  0  0  0  0  0
  152.2131  140.3091  156.7492 H   0  0  0  0  0  0  0  0  0  0  0  0
  152.3531  140.8065  155.0807 H   0  0  0  0  0  0  0  0  0  0  0  0
  149.8984  141.3235  155.0344 H   0  0  0  0  0  0  0  0  0  0  0  0
  149.0362  139.8280  156.7983 H   0  0  0  0  0  0  0  0  0  0  0  0
  148.6183  141.4853  157.1885 H   0  0  0  0  0  0  0  0  0  0  0  0
  149.9502  140.6988  158.0278 H   0  0  0  0  0  0  0  0  0  0  0  0
  151.7358  142.8736  155.8086 H   0  0  0  0  0  0  0  0  0  0  0  0
  150.1171  143.0010  158.2333 H   0  0  0  0  0  0  0  0  0  0  0  0
  152.6979  144.3746  157.3644 H   0  0  0  0  0  0  0  0  0  0  0  0
  151.1193  145.1168  157.4647 H   0  0  0  0  0  0  0  0  0  0  0  0
  152.5076  145.6523  159.4663 H   0  0  0  0  0  0  0  0  0  0  0  0
  151.0557  144.7871  159.9090 H   0  0  0  0  0  0  0  0  0  0  0  0
  153.8567  143.5909  159.6305 H   0  0  0  0  0  0  0  0  0  0  0  0
  152.9849  143.8373  161.1244 H   0  0  0  0  0  0  0  0  0  0  0  0
  152.8546  141.4567  160.3607 H   0  0  0  0  0  0  0  0  0  0  0  0
  151.2713  142.1874  160.4623 H   0  0  0  0  0  0  0  0  0  0  0  0
  151.4704  140.9064  158.3730 H   0  0  0  0  0  0  0  0  0  0  0  0
  152.9107  141.7829  157.9145 H   0  0  0  0  0  0  0  0  0  0  0  0
  152.1224  136.7369  157.7668 H   0  0  0  0  0  0  0  0  0  0  0  0
  151.7552  138.4375  158.0682 H   0  0  0  0  0  0  0  0  0  0  0  0
  153.2741  137.9805  157.2733 H   0  0  0  0  0  0  0  0  0  0  0  0
  150.1696  143.3101  155.9866 H   0  0  0  0  0  0  0  0  0  0  0  0
  150.0990  137.0048  153.3257 H   0  0  0  0  0  0  0  0  0  0  0  0
  1  2  1  0  0  0  0
  1 18  1  0  0  0  0
  1 19  1  0  0  0  0
  1 20  1  0  0  0  0
  2 16  2  0  0  0  0
  2  3  1  0  0  0  0
  3  4  2  0  0  0  0
  3 44  1  0  0  0  0
  4  5  1  0  0  0  0
  4 21  1  0  0  0  0
  5  6  1  0  0  0  0
  5 16  1  0  0  0  0
  6  7  1  0  0  0  0
  6 22  1  0  0  0  0
  6 23  1  0  0  0  0
  7  8  1  0  0  0  0
  7  9  1  0  0  0  0
  7 24  1  0  0  0  0
  8 25  1  0  0  0  0
  8 26  1  0  0  0  0
  8 27  1  0  0  0  0
  9 10  1  0  0  0  0
  9 28  1  0  0  0  0
  9 43  1  0  0  0  0
 10 15  1  0  0  0  0
 10 11  1  0  0  0  0
 10 29  1  0  0  0  0
 11 12  1  0  0  0  0
 11 30  1  0  0  0  0
 11 31  1  0  0  0  0
 12 13  1  0  0  0  0
 12 32  1  0  0  0  0
 12 33  1  0  0  0  0
 13 14  1  0  0  0  0
 13 34  1  0  0  0  0
 13 35  1  0  0  0  0
 14 15  1  0  0  0  0
 14 36  1  0  0  0  0
 14 37  1  0  0  0  0
 15 38  1  0  0  0  0
 15 39  1  0  0  0  0
 16 17  1  0  0  0  0
 17 40  1  0  0  0  0
 17 41  1  0  0  0  0
 17 42  1  0  0  0  0
M  CHG  1   3   1
M  CHG  1   9   1
M  END
> <s_m_source_file>
AV-unprocessed.smi

> <i_m_source_file_index>
3172

> <i_lp_mmshare_version>
43012

> <i_f3d_flags>
0

> <s_epik_input>
W0NIM11jMW5bY0hdbihjMVtDSDNdKVtDSDJdW0NASF0oW0NIM10pW05IXVtDSF0yW0NIMl1bQ0gyXVtDSDJdW0NIMl1bQ0gyXTI=

> <s_epik_cmdline>
J2VwaWtfcHl0aG9uJywgJy1waCcsICc3LjAnLCAnLXRuJywgJzgnLCAnLW1hJywgJzIwMCcsICctbWV0YWxfYmluZGluZycsICctaW1hZScsICc8aW5maWxlLm1hZT4nLCAnLW9tYWUnLCAnPG91dGZpbGUubWFlPic=

> <r_lp_tautomer_probability>
1

> <r_epik_Ionization_Penalty>
0.509043

> <r_epik_Ionization_Penalty_Charging>
0.00159961

> <r_epik_Ionization_Penalty_Neutral>
0.507444

> <r_epik_State_Penalty>
0.272352

> <r_epik_Charging_Adjusted_Penalty>
0.273952

> <i_epik_Tot_Q>
2

> <i_epik_Tot_abs_Q>
2

> <r_epik_Metal_State_Penalty>
3.76994

> <b_epik_Metal_Only>
0

> <s_lp_Force_Field>
OPLS_2005

> <r_lp_Energy>
25.4391

> <b_lp_Chiralities_Consistent>
1

> <s_lp_Variant>
AV-unprocessed.smi:3172-2

> <Gold.Version>
5.8.1

> <Gold.Id.Protein>
6NUR|6NUR_protein|mol2

> <Gold.PLP.Fitness>
54.3340

> <Gold.PLP.PLP>
-39.9656

> <Gold.PLP.part.hbond>
-2.7221

> <Gold.PLP.part.metal>
0.0000

> <Gold.PLP.part.buried>
-2.7806

> <Gold.PLP.part.nonpolar>
-34.3638

> <Gold.PLP.part.repulsive>
0.1515

> <Gold.PLP.ligand.clash>
0.0000

> <Gold.PLP.ligand.torsion>
0.3415

> <Gold.PLP.Chemscore.Hbond>
4.0000

> <Gold.PLP.Chemscore.CHOScore>
1.0000

> <Gold.PLP.Chemscore.Metal>
0.0000

> <Gold.Chemscore.Hbonds>
donor molecule, donor type, donor heavy atom, donor atom, acceptor molecule, acceptor atom, score
      L1  H     3    44       P1  7948  1.60
      L1  H     9    43       P1  8028  2.00
      L1  C     4    21       P1  7957  1.00

> <Gold.PLP.Chemscore.Internal.Correction>
0.0514

> <Gold.Rescore>
     Score         DG    S(hbond)    S(metal)    S(lipo)     H(rot)  DE(clash)    DE(int)     intcor
     18.77     -20.06       1.95        0.00     103.14       1.56       0.04       1.26       ----

> <Gold.Chemscore.Fitness>
18.7660

> <Gold.Chemscore.DG>
-20.0647

> <Gold.Chemscore.ZeroCoef>
-5.4800

> <Gold.Chemscore.Hbond>
1.9468

> <Gold.Chemscore.Metal>
0.0000

> <Gold.Chemscore.Lipo>
103.1433

> <Gold.Chemscore.Internal_Hbond>
0.0000

> <Gold.Chemscore.DEClash>
0.0403

> <Gold.Chemscore.DEInternal>
1.2584

> <Gold.Chemscore.Rot>
1.5567

> <Gold.Chemscore.Internal.Correction>
   9.000000E+99

> <Gold.Chemscore.Hbonds>
donor molecule, donor type, donor heavy atom, donor atom, acceptor molecule, acceptor atom, score
      L1  H     3    44       P1  7948  0.12
      L1  H     9    43       P1  8028  0.99

> <Gold.Chemscore.Hbond.Weighted>
-6.5022

> <Gold.Chemscore.Metal.Weighted>
-0.0000

> <Gold.Chemscore.Lipo.Weighted>
-12.0678

> <Gold.Chemscore.Internal_Hbond.Weighted>
0.0000

> <Gold.Chemscore.DEClash.Weighted>
0.0403

> <Gold.Chemscore.DEInternal.Weighted>
1.2584

> <Gold.Chemscore.Rot.Weighted>
3.9852

> <Gold.Chemscore.Internal.Correction.Weighted>
   9.000000E+99

> <Gold.Protein.RotatedTorsions>
[ 6907 6896 6895 6894 ] final -167.09 input  -60.11 | X-H torsion
[ 7974 7965 7964 7962 ] final   30.82 input  175.53 | X-H torsion
[ 8008 7997 7996 7995 ] final -170.49 input   59.86 | X-H torsion
[ 10167 10162 10161 10158 ] final   64.68 input  -65.29 | X-H torsion
[ 10718 10713 10712 10709 ] final  -21.25 input   66.30 | X-H torsion
[ 10763 10752 10751 10750 ] final -125.89 input  -60.55 | X-H torsion
[ 11005 11000 10999 10996 ] final  177.71 input  -57.11 | X-H torsion

> <Gold.Protein.ActiveResidues>
 VAL166  LYS551  ARG553  GLY616  TRP617  ASP618  TYR619  PRO620  LYS621  CYS622 
 ASP623  PHE694  ASN695  SER759  ASP760  ASP761  ALA762  ILE779  LEU786  VAL792 
 PHE793  MET794  SER795  GLU796  ALA797  LYS798  CYS799  TRP800  GLU811  SER814 

> <Gold.Protein.RotatedAtoms>
  151.4540  133.3610  159.2799 H   0  0  0  0  0  0  0  0  0  0  0  0  # atno 6907 bound_to 6896
  150.9071  134.8488  159.7411 H   0  0  0  0  0  0  0  0  0  0  0  0  # atno 6908 bound_to 6896
  152.4912  134.4466  159.9613 H   0  0  0  0  0  0  0  0  0  0  0  0  # atno 6909 bound_to 6896
  146.1588  139.6737  142.9048 H   0  0  0  0  0  0  0  0  0  0  0  0  # atno 7974 bound_to 7965
  155.9190  140.1071  157.1221 H   0  0  0  0  0  0  0  0  0  0  0  0  # atno 8008 bound_to 7997
  154.4051  140.1259  156.4720 H   0  0  0  0  0  0  0  0  0  0  0  0  # atno 8009 bound_to 7997
  155.7219  140.3469  155.5022 H   0  0  0  0  0  0  0  0  0  0  0  0  # atno 8010 bound_to 7997
  140.1196  144.4744  150.6928 H   0  0  0  0  0  0  0  0  0  0  0  0  # atno 10167 bound_to 10162
  156.5208  130.4632  149.6598 H   0  0  0  0  0  0  0  0  0  0  0  0  # atno 10718 bound_to 10713
  154.8740  135.4014  154.3342 H   0  0  0  0  0  0  0  0  0  0  0  0  # atno 10763 bound_to 10752
  153.4151  135.7022  153.6338 H   0  0  0  0  0  0  0  0  0  0  0  0  # atno 10764 bound_to 10752
  153.5024  135.3725  155.2516 H   0  0  0  0  0  0  0  0  0  0  0  0  # atno 10765 bound_to 10752
  140.3871  134.6895  157.4486 H   0  0  0  0  0  0  0  0  0  0  0  0  # atno 11005 bound_to 11000
  145.4641  141.0434  143.2735 LP  0  0  0  0  0  0  0  0  0  0  0  0  # atno 17320 bound_to 7965
  144.7999  139.6161  143.7076 LP  0  0  0  0  0  0  0  0  0  0  0  0  # atno 17321 bound_to 7965
  140.6880  143.2360  151.5209 LP  0  0  0  0  0  0  0  0  0  0  0  0  # atno 17342 bound_to 10162
  139.5576  144.2237  152.1638 LP  0  0  0  0  0  0  0  0  0  0  0  0  # atno 17343 bound_to 10162
  156.3151  130.7250  151.2151 LP  0  0  0  0  0  0  0  0  0  0  0  0  # atno 17370 bound_to 10713
  157.7437  131.0470  150.4925 LP  0  0  0  0  0  0  0  0  0  0  0  0  # atno 17371 bound_to 10713
  140.0434  134.6234  155.8951 LP  0  0  0  0  0  0  0  0  0  0  0  0  # atno 17394 bound_to 11000
  141.1903  133.6568  156.5408 LP  0  0  0  0  0  0  0  0  0  0  0  0  # atno 17395 bound_to 11000

$$$$
