AV-unprocessed.smi:3303|AV-procd|sdf|12673|dock9
  -GOLD-   2272019 03D 1   1.00000     0.00000
 Structure written by MMmdl.
 44 45  0  0  0  0  0  0  0  0  2 V2000
  151.0117  145.1789  158.7012 C   0  0  0  0  0  0  0  0  0  0  0  0
  151.2087  143.7045  159.0936 C   0  0  2  0  0  0  0  0  0  0  0  0
  152.4027  143.5684  160.0586 C   0  0  0  0  0  0  0  0  0  0  0  0
  152.5916  142.1814  160.4920 N   0  0  0  0  0  0  0  0  0  0  0  0
  153.6656  142.1801  161.4818 C   0  0  0  0  0  0  0  0  0  0  0  0
  152.9051  141.3245  159.3356 C   0  0  1  0  0  0  0  0  0  0  0  0
  153.1704  139.8625  159.7495 C   0  0  0  0  0  0  0  0  0  0  0  0
  151.7259  141.3706  158.3413 C   0  0  0  0  0  0  0  0  0  0  0  0
  151.4227  142.7981  157.8659 C   0  0  1  0  0  0  0  0  0  0  0  0
  150.2231  142.7884  156.9988 N   0  3  0  0  0  0  0  0  0  0  0  0
  150.3898  142.0722  155.7185 C   0  0  0  0  0  0  0  0  0  0  0  0
  149.6347  140.7361  155.7331 C   0  0  0  0  0  0  0  0  0  0  0  0
  150.5040  139.5797  155.2777 C   0  0  0  0  0  0  0  0  0  0  0  0
  149.9506  138.2972  155.0765 C   0  0  0  0  0  0  0  0  0  0  0  0
  150.8009  137.2599  154.6468 C   0  0  0  0  0  0  0  0  0  0  0  0
  152.1639  137.5437  154.4359 C   0  0  0  0  0  0  0  0  0  0  0  0
  152.6183  138.8579  154.6641 C   0  0  0  0  0  0  0  0  0  0  0  0
  151.8107  139.8605  155.0737 N   0  0  0  0  0  0  0  0  0  0  0  0
  151.8707  145.5604  158.1480 H   0  0  0  0  0  0  0  0  0  0  0  0
  150.8827  145.8046  159.5846 H   0  0  0  0  0  0  0  0  0  0  0  0
  150.1274  145.3144  158.0782 H   0  0  0  0  0  0  0  0  0  0  0  0
  150.3112  143.3752  159.6207 H   0  0  0  0  0  0  0  0  0  0  0  0
  153.3151  143.9392  159.5881 H   0  0  0  0  0  0  0  0  0  0  0  0
  152.2218  144.1950  160.9334 H   0  0  0  0  0  0  0  0  0  0  0  0
  153.7773  141.2015  161.9475 H   0  0  0  0  0  0  0  0  0  0  0  0
  153.4479  142.8829  162.2869 H   0  0  0  0  0  0  0  0  0  0  0  0
  154.6201  142.4616  161.0345 H   0  0  0  0  0  0  0  0  0  0  0  0
  153.7988  141.7100  158.8415 H   0  0  0  0  0  0  0  0  0  0  0  0
  153.2714  139.2236  158.8716 H   0  0  0  0  0  0  0  0  0  0  0  0
  152.3546  139.4636  160.3534 H   0  0  0  0  0  0  0  0  0  0  0  0
  154.0957  139.7555  160.3153 H   0  0  0  0  0  0  0  0  0  0  0  0
  151.9495  140.7435  157.4770 H   0  0  0  0  0  0  0  0  0  0  0  0
  150.8387  140.9405  158.8098 H   0  0  0  0  0  0  0  0  0  0  0  0
  152.2852  143.1619  157.3042 H   0  0  0  0  0  0  0  0  0  0  0  0
  149.4642  142.3595  157.5092 H   0  0  0  0  0  0  0  0  0  0  0  0
  150.0191  142.6975  154.9050 H   0  0  0  0  0  0  0  0  0  0  0  0
  151.4527  141.9038  155.5404 H   0  0  0  0  0  0  0  0  0  0  0  0
  149.2651  140.5254  156.7380 H   0  0  0  0  0  0  0  0  0  0  0  0
  148.7562  140.7972  155.0894 H   0  0  0  0  0  0  0  0  0  0  0  0
  148.9004  138.1097  155.2460 H   0  0  0  0  0  0  0  0  0  0  0  0
  150.4144  136.2650  154.4815 H   0  0  0  0  0  0  0  0  0  0  0  0
  152.8451  136.7726  154.1073 H   0  0  0  0  0  0  0  0  0  0  0  0
  153.6573  139.1109  154.5124 H   0  0  0  0  0  0  0  0  0  0  0  0
  149.9726  143.7462  156.7993 H   0  0  0  0  0  0  0  0  0  0  0  0
  1  2  1  0  0  0  0
  1 19  1  0  0  0  0
  1 20  1  0  0  0  0
  1 21  1  0  0  0  0
  2  9  1  0  0  0  0
  2  3  1  0  0  0  0
  2 22  1  0  0  0  0
  3  4  1  0  0  0  0
  3 23  1  0  0  0  0
  3 24  1  0  0  0  0
  4  5  1  0  0  0  0
  4  6  1  0  0  0  0
  5 25  1  0  0  0  0
  5 26  1  0  0  0  0
  5 27  1  0  0  0  0
  6  7  1  0  0  0  0
  6  8  1  0  0  0  0
  6 28  1  0  0  0  0
  7 29  1  0  0  0  0
  7 30  1  0  0  0  0
  7 31  1  0  0  0  0
  8  9  1  0  0  0  0
  8 32  1  0  0  0  0
  8 33  1  0  0  0  0
  9 10  1  0  0  0  0
  9 34  1  0  0  0  0
 10 11  1  0  0  0  0
 10 35  1  0  0  0  0
 10 44  1  0  0  0  0
 11 12  1  0  0  0  0
 11 36  1  0  0  0  0
 11 37  1  0  0  0  0
 12 13  1  0  0  0  0
 12 38  1  0  0  0  0
 12 39  1  0  0  0  0
 13 18  1  0  0  0  0
 13 14  2  0  0  0  0
 14 15  1  0  0  0  0
 14 40  1  0  0  0  0
 15 16  2  0  0  0  0
 15 41  1  0  0  0  0
 16 17  1  0  0  0  0
 16 42  1  0  0  0  0
 17 18  2  0  0  0  0
 17 43  1  0  0  0  0
M  CHG  1  10   1
M  END
> <s_m_source_file>
AV-unprocessed.smi

> <i_m_source_file_index>
3303

> <i_lp_mmshare_version>
43012

> <i_f3d_flags>
0

> <s_epik_input>
W0NIM11bQ0BASF0xW0NIMl1OKFtDSDNdKVtDQEBIXShbQ0gzXSlbQ0gyXVtDQEhdMVtOSF1bQ0gyXVtDSDJdYzJbY0hdW2NIXVtjSF1bY0hdbjI=

> <s_epik_cmdline>
J2VwaWtfcHl0aG9uJywgJy1waCcsICc3LjAnLCAnLXRuJywgJzgnLCAnLW1hJywgJzIwMCcsICctbWV0YWxfYmluZGluZycsICctaW1hZScsICc8aW5maWxlLm1hZT4nLCAnLW9tYWUnLCAnPG91dGZpbGUubWFlPic=

> <r_epik_Ionization_Penalty>
1.37325

> <r_epik_Ionization_Penalty_Charging>
0.000251572

> <r_epik_Ionization_Penalty_Neutral>
1.373

> <r_epik_State_Penalty>
1.46343

> <r_epik_Charging_Adjusted_Penalty>
1.46368

> <i_epik_Tot_Q>
1

> <i_epik_Tot_abs_Q>
1

> <r_epik_Metal_State_Penalty>
1.46331

> <b_epik_Metal_Only>
0

> <s_lp_Force_Field>
OPLS_2005

> <r_lp_Energy>
21.6133

> <b_lp_Chiralities_Consistent>
1

> <s_lp_Variant>
AV-unprocessed.smi:3303-17

> <Gold.Version>
5.8.1

> <Gold.Id.Protein>
6NUR|6NUR_protein|mol2

> <Gold.PLP.Fitness>
44.1545

> <Gold.PLP.PLP>
-37.7290

> <Gold.PLP.part.hbond>
-2.0000

> <Gold.PLP.part.metal>
0.0000

> <Gold.PLP.part.buried>
-2.9454

> <Gold.PLP.part.nonpolar>
-33.1168

> <Gold.PLP.part.repulsive>
0.0554

> <Gold.PLP.ligand.clash>
0.0000

> <Gold.PLP.ligand.torsion>
0.7513

> <Gold.PLP.Chemscore.Hbond>
2.6400

> <Gold.PLP.Chemscore.CHOScore>
0.0000

> <Gold.PLP.Chemscore.Metal>
0.0000

> <Gold.Chemscore.Hbonds>
donor molecule, donor type, donor heavy atom, donor atom, acceptor molecule, acceptor atom, score
      L1  H    10    44       P1  8028  1.66
      P1  H  7989  7998       L1    18  0.98

> <Gold.PLP.Chemscore.Internal.Correction>
0.0080

> <Gold.Rescore>
     Score         DG    S(hbond)    S(metal)    S(lipo)     H(rot)  DE(clash)    DE(int)     intcor
     19.01     -20.53       1.13        0.00     125.37       1.33       0.77       0.75       ----

> <Gold.Chemscore.Fitness>
19.0085

> <Gold.Chemscore.DG>
-20.5271

> <Gold.Chemscore.ZeroCoef>
-5.4800

> <Gold.Chemscore.Hbond>
1.1325

> <Gold.Chemscore.Metal>
0.0000

> <Gold.Chemscore.Lipo>
125.3745

> <Gold.Chemscore.Internal_Hbond>
0.0000

> <Gold.Chemscore.DEClash>
0.7733

> <Gold.Chemscore.DEInternal>
0.7453

> <Gold.Chemscore.Rot>
1.3298

> <Gold.Chemscore.Internal.Correction>
   9.000000E+99

> <Gold.Chemscore.Hbonds>
donor molecule, donor type, donor heavy atom, donor atom, acceptor molecule, acceptor atom, score
      L1  H    10    44       P1  8028  0.81
      P1  H  7989  7998       L1    18  0.07

> <Gold.Chemscore.Hbond.Weighted>
-3.7826

> <Gold.Chemscore.Metal.Weighted>
-0.0000

> <Gold.Chemscore.Lipo.Weighted>
-14.6688

> <Gold.Chemscore.Internal_Hbond.Weighted>
0.0000

> <Gold.Chemscore.DEClash.Weighted>
0.7733

> <Gold.Chemscore.DEInternal.Weighted>
0.7453

> <Gold.Chemscore.Rot.Weighted>
3.4043

> <Gold.Chemscore.Internal.Correction.Weighted>
   9.000000E+99

> <Gold.Protein.RotatedTorsions>
[ 6907 6896 6895 6894 ] final -128.85 input  -60.11 | X-H torsion
[ 7974 7965 7964 7962 ] final  128.10 input  175.53 | X-H torsion
[ 8008 7997 7996 7995 ] final  -49.78 input   59.86 | X-H torsion
[ 10167 10162 10161 10158 ] final  -46.01 input  -65.29 | X-H torsion
[ 10718 10713 10712 10709 ] final -138.57 input   66.30 | X-H torsion
[ 10763 10752 10751 10750 ] final   17.62 input  -60.55 | X-H torsion
[ 11005 11000 10999 10996 ] final -175.06 input  -57.11 | X-H torsion

> <Gold.Protein.ActiveResidues>
 VAL166  LYS551  ARG553  GLY616  TRP617  ASP618  TYR619  PRO620  LYS621  CYS622 
 ASP623  PHE694  ASN695  SER759  ASP760  ASP761  ALA762  ILE779  LEU786  VAL792 
 PHE793  MET794  SER795  GLU796  ALA797  LYS798  CYS799  TRP800  GLU811  SER814 

> <Gold.Protein.RotatedAtoms>
  150.9223  133.6865  159.2829 H   0  0  0  0  0  0  0  0  0  0  0  0  # atno 6907 bound_to 6896
  151.4316  135.1009  159.9653 H   0  0  0  0  0  0  0  0  0  0  0  0  # atno 6908 bound_to 6896
  152.4985  133.8652  159.7325 H   0  0  0  0  0  0  0  0  0  0  0  0  # atno 6909 bound_to 6896
  145.0432  139.3945  143.5091 H   0  0  0  0  0  0  0  0  0  0  0  0  # atno 7974 bound_to 7965
  154.4050  140.1288  156.4559 H   0  0  0  0  0  0  0  0  0  0  0  0  # atno 8008 bound_to 7997
  155.7321  140.3491  155.5044 H   0  0  0  0  0  0  0  0  0  0  0  0  # atno 8009 bound_to 7997
  155.9118  140.1037  157.1264 H   0  0  0  0  0  0  0  0  0  0  0  0  # atno 8010 bound_to 7997
  140.6835  143.2852  151.3721 H   0  0  0  0  0  0  0  0  0  0  0  0  # atno 10167 bound_to 10162
  156.3008  130.7428  151.1479 H   0  0  0  0  0  0  0  0  0  0  0  0  # atno 10718 bound_to 10713
  153.1323  135.6742  153.9159 H   0  0  0  0  0  0  0  0  0  0  0  0  # atno 10763 bound_to 10752
  153.8642  135.3077  155.3440 H   0  0  0  0  0  0  0  0  0  0  0  0  # atno 10764 bound_to 10752
  154.7717  135.4935  153.9745 H   0  0  0  0  0  0  0  0  0  0  0  0  # atno 10765 bound_to 10752
  140.4675  134.6196  157.4868 H   0  0  0  0  0  0  0  0  0  0  0  0  # atno 11005 bound_to 11000
  146.3511  140.0044  142.8673 LP  0  0  0  0  0  0  0  0  0  0  0  0  # atno 17320 bound_to 7965
  145.1621  140.9678  143.4371 LP  0  0  0  0  0  0  0  0  0  0  0  0  # atno 17321 bound_to 7965
  139.6175  144.0974  152.2359 LP  0  0  0  0  0  0  0  0  0  0  0  0  # atno 17342 bound_to 10162
  140.0407  144.6009  150.7413 LP  0  0  0  0  0  0  0  0  0  0  0  0  # atno 17343 bound_to 10162
  157.7367  131.0559  150.5396 LP  0  0  0  0  0  0  0  0  0  0  0  0  # atno 17370 bound_to 10713
  156.5524  130.4235  149.6101 LP  0  0  0  0  0  0  0  0  0  0  0  0  # atno 17371 bound_to 10713
  139.9906  134.6992  155.9697 LP  0  0  0  0  0  0  0  0  0  0  0  0  # atno 17394 bound_to 11000
  141.1592  133.6540  156.4263 LP  0  0  0  0  0  0  0  0  0  0  0  0  # atno 17395 bound_to 11000

$$$$
