AV-unprocessed.smi:149|AV-procd|sdf|1235|dock2
  -GOLD-   2262018443D 1   1.00000     0.00000
 Structure written by MMmdl.
 60 64  0  0  0  0  0  0  0  0  2 V2000
  151.3336  139.4148  158.0921 C   0  0  0  0  0  0  0  0  0  0  0  0
  151.8264  140.3040  156.9321 C   0  0  1  0  0  0  0  0  0  0  0  0
  151.1979  139.8540  155.6025 C   0  0  0  0  0  0  0  0  0  0  0  0
  150.0672  140.7440  155.3668 N   0  0  0  0  0  0  0  0  0  0  0  0
  148.9715  140.3243  154.6823 C   0  0  0  0  0  0  0  0  0  0  0  0
  148.3356  141.2046  153.8645 N   0  0  0  0  0  0  0  0  0  0  0  0
  147.2550  140.8298  153.1746 C   0  0  0  0  0  0  0  0  0  0  0  0
  146.6539  139.6401  153.1497 N   0  0  0  0  0  0  0  0  0  0  0  0
  147.2908  138.7432  153.9562 C   0  0  0  0  0  0  0  0  0  0  0  0
  148.4468  138.9998  154.7498 C   0  0  0  0  0  0  0  0  0  0  0  0
  148.8152  137.8423  155.4260 N   0  0  0  0  0  0  0  0  0  0  0  0
  147.9268  136.9589  155.0631 C   0  0  0  0  0  0  0  0  0  0  0  0
  146.9721  137.4128  154.1816 N   0  0  0  0  0  0  0  0  0  0  0  0
  145.8909  136.6436  153.6301 C   0  0  0  0  0  0  0  0  0  0  0  0
  146.1424  135.4906  152.6568 C   0  0  0  0  0  0  0  0  0  0  0  0
  144.8072  135.8101  151.9465 C   0  0  0  0  0  0  0  0  0  0  0  0
  144.8549  135.7501  150.4108 C   0  0  0  0  0  0  0  0  0  0  0  0
  144.9382  134.4165  149.9503 O   0  0  0  0  0  0  0  0  0  0  0  0
  143.5907  135.0064  152.4489 C   0  0  0  0  0  0  0  0  0  0  0  0
  143.8087  133.6141  152.3413 O   0  0  0  0  0  0  0  0  0  0  0  0
  144.9626  137.2212  152.5605 C   0  0  0  0  0  0  0  0  0  0  0  0
  149.9703  141.7260  156.4361 C   0  0  0  0  0  0  0  0  0  0  0  0
  151.3833  141.7786  157.0265 C   0  0  1  0  0  0  0  0  0  0  0  0
  151.4798  142.3826  158.3852 N   0  3  0  0  0  0  0  0  0  0  0  0
  152.8436  142.2739  158.9644 C   0  0  0  0  0  0  0  0  0  0  0  0
  152.8787  142.8593  160.3857 C   0  0  0  0  0  0  0  0  0  0  0  0
  152.4498  144.2138  160.3520 O   0  0  0  0  0  0  0  0  0  0  0  0
  151.1133  144.3322  159.8842 C   0  0  0  0  0  0  0  0  0  0  0  0
  151.0158  143.7924  158.4473 C   0  0  0  0  0  0  0  0  0  0  0  0
  150.2483  139.4457  158.1918 H   0  0  0  0  0  0  0  0  0  0  0  0
  151.7635  139.7167  159.0465 H   0  0  0  0  0  0  0  0  0  0  0  0
  151.6171  138.3749  157.9281 H   0  0  0  0  0  0  0  0  0  0  0  0
  152.9128  140.2284  156.8755 H   0  0  0  0  0  0  0  0  0  0  0  0
  151.9090  139.9743  154.7846 H   0  0  0  0  0  0  0  0  0  0  0  0
  150.8981  138.8058  155.6364 H   0  0  0  0  0  0  0  0  0  0  0  0
  146.8077  141.5920  152.5535 H   0  0  0  0  0  0  0  0  0  0  0  0
  147.9474  135.9438  155.4318 H   0  0  0  0  0  0  0  0  0  0  0  0
  145.3012  136.2893  154.4775 H   0  0  0  0  0  0  0  0  0  0  0  0
  147.0113  135.6529  152.0173 H   0  0  0  0  0  0  0  0  0  0  0  0
  146.1860  134.5071  153.1258 H   0  0  0  0  0  0  0  0  0  0  0  0
  143.9834  136.2276  149.9626 H   0  0  0  0  0  0  0  0  0  0  0  0
  145.7251  136.2863  150.0308 H   0  0  0  0  0  0  0  0  0  0  0  0
  145.1161  134.4305  149.0222 H   0  0  0  0  0  0  0  0  0  0  0  0
  143.3550  135.2451  153.4863 H   0  0  0  0  0  0  0  0  0  0  0  0
  142.6959  135.2470  151.8746 H   0  0  0  0  0  0  0  0  0  0  0  0
  143.5039  133.2007  153.1345 H   0  0  0  0  0  0  0  0  0  0  0  0
  144.0442  137.6576  152.9544 H   0  0  0  0  0  0  0  0  0  0  0  0
  145.4660  137.9222  151.8931 H   0  0  0  0  0  0  0  0  0  0  0  0
  149.6551  142.6960  156.0498 H   0  0  0  0  0  0  0  0  0  0  0  0
  149.2440  141.3954  157.1799 H   0  0  0  0  0  0  0  0  0  0  0  0
  152.0037  142.3678  156.3478 H   0  0  0  0  0  0  0  0  0  0  0  0
  153.1653  141.2334  158.9985 H   0  0  0  0  0  0  0  0  0  0  0  0
  153.5542  142.8042  158.3282 H   0  0  0  0  0  0  0  0  0  0  0  0
  152.2494  142.2800  161.0634 H   0  0  0  0  0  0  0  0  0  0  0  0
  153.8934  142.8212  160.7821 H   0  0  0  0  0  0  0  0  0  0  0  0
  150.4331  143.7966  160.5485 H   0  0  0  0  0  0  0  0  0  0  0  0
  150.8226  145.3825  159.9115 H   0  0  0  0  0  0  0  0  0  0  0  0
  151.6177  144.4061  157.7754 H   0  0  0  0  0  0  0  0  0  0  0  0
  149.9810  143.8724  158.1152 H   0  0  0  0  0  0  0  0  0  0  0  0
  150.8618  141.8511  158.9815 H   0  0  0  0  0  0  0  0  0  0  0  0
  1  2  1  0  0  0  0
  1 30  1  0  0  0  0
  1 31  1  0  0  0  0
  1 32  1  0  0  0  0
  2 23  1  0  0  0  0
  2  3  1  0  0  0  0
  2 33  1  0  0  0  0
  3  4  1  0  0  0  0
  3 34  1  0  0  0  0
  3 35  1  0  0  0  0
  4  5  1  0  0  0  0
  4 22  1  0  0  0  0
  5 10  1  0  0  0  0
  5  6  2  0  0  0  0
  6  7  1  0  0  0  0
  7  8  2  0  0  0  0
  7 36  1  0  0  0  0
  8  9  1  0  0  0  0
  9 13  1  0  0  0  0
  9 10  2  0  0  0  0
 10 11  1  0  0  0  0
 11 12  2  0  0  0  0
 12 13  1  0  0  0  0
 12 37  1  0  0  0  0
 13 14  1  0  0  0  0
 14 21  1  0  0  0  0
 14 15  1  0  0  0  0
 14 38  1  0  0  0  0
 15 16  1  0  0  0  0
 15 39  1  0  0  0  0
 15 40  1  0  0  0  0
 16 17  1  0  0  0  0
 16 19  1  0  0  0  0
 16 21  1  0  0  0  0
 17 18  1  0  0  0  0
 17 41  1  0  0  0  0
 17 42  1  0  0  0  0
 18 43  1  0  0  0  0
 19 20  1  0  0  0  0
 19 44  1  0  0  0  0
 19 45  1  0  0  0  0
 20 46  1  0  0  0  0
 21 47  1  0  0  0  0
 21 48  1  0  0  0  0
 22 23  1  0  0  0  0
 22 49  1  0  0  0  0
 22 50  1  0  0  0  0
 23 24  1  0  0  0  0
 23 51  1  0  0  0  0
 24 29  1  0  0  0  0
 24 25  1  0  0  0  0
 24 60  1  0  0  0  0
 25 26  1  0  0  0  0
 25 52  1  0  0  0  0
 25 53  1  0  0  0  0
 26 27  1  0  0  0  0
 26 54  1  0  0  0  0
 26 55  1  0  0  0  0
 27 28  1  0  0  0  0
 28 29  1  0  0  0  0
 28 56  1  0  0  0  0
 28 57  1  0  0  0  0
 29 58  1  0  0  0  0
 29 59  1  0  0  0  0
M  CHG  1  24   1
M  END
> <s_m_source_file>
AV-unprocessed.smi

> <i_m_source_file_index>
149

> <i_lp_mmshare_version>
43012

> <i_f3d_flags>
0

> <s_epik_input>
W0NIMl0xW0NIMl1PW0NIMl1bQ0gyXU4xW0NAQEhdMltDSDJdTihbQ0gyXVtDQEhdMltDSDNdKWMobltjSF1uMyljKGMzNCluW2NIXW40W0NIXShbQ0gyXTUpW0NIMl1DNShbQ0gyXVtPSF0pW0NIMl1bT0hd

> <s_epik_cmdline>
J2VwaWtfcHl0aG9uJywgJy1waCcsICc3LjAnLCAnLXRuJywgJzgnLCAnLW1hJywgJzIwMCcsICctbWV0YWxfYmluZGluZycsICctaW1hZScsICc8aW5maWxlLm1hZT4nLCAnLW9tYWUnLCAnPG91dGZpbGUubWFlPic=

> <r_lp_tautomer_probability>
1

> <r_epik_Ionization_Penalty>
0.404847

> <r_epik_Ionization_Penalty_Charging>
0.404623

> <r_epik_Ionization_Penalty_Neutral>
0.000224096

> <r_epik_State_Penalty>
0.238803

> <r_epik_Charging_Adjusted_Penalty>
0.643425

> <i_epik_Tot_Q>
1

> <i_epik_Tot_abs_Q>
1

> <r_epik_Metal_State_Penalty>
0.239083

> <b_epik_Metal_Only>
0

> <s_lp_Force_Field>
OPLS_2005

> <r_lp_Energy>
70.5457

> <b_lp_Chiralities_Consistent>
1

> <s_lp_Variant>
AV-unprocessed.smi:149-2

> <Gold.Version>
5.8.1

> <Gold.Id.Protein>
6NUR|6NUR_protein|mol2

> <Gold.PLP.Fitness>
47.4850

> <Gold.PLP.PLP>
-43.6704

> <Gold.PLP.part.hbond>
-2.3972

> <Gold.PLP.part.metal>
0.0000

> <Gold.PLP.part.buried>
-4.2884

> <Gold.PLP.part.nonpolar>
-37.4934

> <Gold.PLP.part.repulsive>
0.8676

> <Gold.PLP.ligand.clash>
0.0000

> <Gold.PLP.ligand.torsion>
1.2600

> <Gold.PLP.Chemscore.Hbond>
1.8741

> <Gold.PLP.Chemscore.CHOScore>
0.0000

> <Gold.PLP.Chemscore.Metal>
0.0000

> <Gold.Chemscore.Hbonds>
donor molecule, donor type, donor heavy atom, donor atom, acceptor molecule, acceptor atom, score
      L1  H    18    43       P1  7921  1.00
      L1  H    20    46       P1 10957  0.24

> <Gold.PLP.Chemscore.Internal.Correction>
0.7123

> <Gold.Rescore>
     Score         DG    S(hbond)    S(metal)    S(lipo)     H(rot)  DE(clash)    DE(int)     intcor
     11.29     -14.31       1.50        0.00     100.12       3.09       0.50       2.52       ----

> <Gold.Chemscore.Fitness>
11.2851

> <Gold.Chemscore.DG>
-14.3062

> <Gold.Chemscore.ZeroCoef>
-5.4800

> <Gold.Chemscore.Hbond>
1.5047

> <Gold.Chemscore.Metal>
0.0000

> <Gold.Chemscore.Lipo>
100.1187

> <Gold.Chemscore.Internal_Hbond>
0.0000

> <Gold.Chemscore.DEClash>
0.5009

> <Gold.Chemscore.DEInternal>
2.5202

> <Gold.Chemscore.Rot>
3.0912

> <Gold.Chemscore.Internal.Correction>
   9.000000E+99

> <Gold.Chemscore.Hbonds>
donor molecule, donor type, donor heavy atom, donor atom, acceptor molecule, acceptor atom, score
      L1  H    18    43       P1  7921  0.96
      L1  H    20    46       P1 10957  0.20
      P1  H  8011  8017       L1     6  0.03

> <Gold.Chemscore.Hbond.Weighted>
-5.0258

> <Gold.Chemscore.Metal.Weighted>
-0.0000

> <Gold.Chemscore.Lipo.Weighted>
-11.7139

> <Gold.Chemscore.Internal_Hbond.Weighted>
0.0000

> <Gold.Chemscore.DEClash.Weighted>
0.5009

> <Gold.Chemscore.DEInternal.Weighted>
2.5202

> <Gold.Chemscore.Rot.Weighted>
7.9135

> <Gold.Chemscore.Internal.Correction.Weighted>
   9.000000E+99

> <Gold.Protein.RotatedTorsions>
[ 6907 6896 6895 6894 ] final  154.97 input  -60.11 | X-H torsion
[ 7974 7965 7964 7962 ] final  -63.15 input  175.53 | X-H torsion
[ 8008 7997 7996 7995 ] final  -93.32 input   59.86 | X-H torsion
[ 10167 10162 10161 10158 ] final    4.16 input  -65.29 | X-H torsion
[ 10718 10713 10712 10709 ] final  166.09 input   66.30 | X-H torsion
[ 10763 10752 10751 10750 ] final  156.89 input  -60.55 | X-H torsion
[ 11005 11000 10999 10996 ] final -140.54 input  -57.11 | X-H torsion

> <Gold.Protein.ActiveResidues>
 VAL166  LYS551  ARG553  GLY616  TRP617  ASP618  TYR619  PRO620  LYS621  CYS622 
 ASP623  PHE694  ASN695  SER759  ASP760  ASP761  ALA762  ILE779  LEU786  VAL792 
 PHE793  MET794  SER795  GLU796  ALA797  LYS798  CYS799  TRP800  GLU811  SER814 

> <Gold.Protein.RotatedAtoms>
  152.0508  133.4018  159.4376 H   0  0  0  0  0  0  0  0  0  0  0  0  # atno 6907 bound_to 6896
  150.6870  134.3310  159.4836 H   0  0  0  0  0  0  0  0  0  0  0  0  # atno 6908 bound_to 6896
  152.1119  134.9267  160.0617 H   0  0  0  0  0  0  0  0  0  0  0  0  # atno 6909 bound_to 6896
  145.7826  140.8753  143.0322 H   0  0  0  0  0  0  0  0  0  0  0  0  # atno 7974 bound_to 7965
  154.7341  140.0500  157.0753 H   0  0  0  0  0  0  0  0  0  0  0  0  # atno 8008 bound_to 7997
  155.0263  140.3153  155.4755 H   0  0  0  0  0  0  0  0  0  0  0  0  # atno 8009 bound_to 7997
  156.2849  140.2158  156.5383 H   0  0  0  0  0  0  0  0  0  0  0  0  # atno 8010 bound_to 7997
  140.6549  143.7453  150.7636 H   0  0  0  0  0  0  0  0  0  0  0  0  # atno 10167 bound_to 10162
  157.0708  131.0365  151.2612 H   0  0  0  0  0  0  0  0  0  0  0  0  # atno 10718 bound_to 10713
  154.1915  135.2794  155.3020 H   0  0  0  0  0  0  0  0  0  0  0  0  # atno 10763 bound_to 10752
  154.5925  135.5555  153.7296 H   0  0  0  0  0  0  0  0  0  0  0  0  # atno 10764 bound_to 10752
  153.0111  135.6372  154.2054 H   0  0  0  0  0  0  0  0  0  0  0  0  # atno 10765 bound_to 10752
  140.8412  134.2399  157.4809 H   0  0  0  0  0  0  0  0  0  0  0  0  # atno 11005 bound_to 11000
  144.6794  140.0010  143.7484 LP  0  0  0  0  0  0  0  0  0  0  0  0  # atno 17320 bound_to 7965
  146.0058  139.3129  143.0900 LP  0  0  0  0  0  0  0  0  0  0  0  0  # atno 17321 bound_to 7965
  140.1111  143.4699  152.2370 LP  0  0  0  0  0  0  0  0  0  0  0  0  # atno 17342 bound_to 10162
  139.5770  144.7492  151.3740 LP  0  0  0  0  0  0  0  0  0  0  0  0  # atno 17343 bound_to 10162
  157.4880  130.7805  149.7479 LP  0  0  0  0  0  0  0  0  0  0  0  0  # atno 17370 bound_to 10713
  155.9951  130.3914  150.2832 LP  0  0  0  0  0  0  0  0  0  0  0  0  # atno 17371 bound_to 10713
  139.8703  134.9636  156.4469 LP  0  0  0  0  0  0  0  0  0  0  0  0  # atno 17394 bound_to 11000
  140.8893  133.7860  155.9553 LP  0  0  0  0  0  0  0  0  0  0  0  0  # atno 17395 bound_to 11000

$$$$
