AV-unprocessed.smi:2094|AV-procd|sdf|8553|dock9
  -GOLD-   2272011273D 1   1.00000     0.00000
 Structure written by MMmdl.
 35 36  0  0  0  0  0  0  0  0  3 V2000
  147.9691  139.9068  155.4450 O   0  0  0  0  0  0  0  0  0  0  0  0
  148.8041  139.9171  154.5375 C   0  0  0  0  0  0  0  0  0  0  0  0
  148.4616  139.4953  153.3133 N   0  0  0  0  0  0  0  0  0  0  0  0
  147.1444  139.0008  152.9389 C   0  0  0  0  0  0  0  0  0  0  0  0
  146.8111  137.7198  153.7191 C   0  0  0  0  0  0  0  0  0  0  0  0
  146.5648  136.5633  152.8218 N   0  3  0  0  0  0  0  0  0  0  0  0
  145.5507  136.8666  151.7783 C   0  0  0  0  0  0  0  0  0  0  0  0
  145.4162  135.7065  150.7770 C   0  0  0  0  0  0  0  0  0  0  0  0
  145.0800  134.3940  151.4971 C   0  0  0  0  0  0  0  0  0  0  0  0
  146.1185  134.1177  152.5918 C   0  0  0  0  0  0  0  0  0  0  0  0
  146.2362  135.3110  153.5551 C   0  0  0  0  0  0  0  0  0  0  0  0
  150.0899  140.3234  154.6321 N   0  5  0  0  0  0  0  0  0  0  0  0
  150.5518  140.8236  155.7898 C   0  0  0  0  0  0  0  0  0  0  0  0
  150.0356  141.9125  156.3713 N   0  0  0  0  0  0  0  0  0  0  0  0
  150.6654  142.2533  157.5697 C   0  0  0  0  0  0  0  0  0  0  0  0
  151.6790  141.3987  157.9133 C   0  0  0  0  0  0  0  0  0  0  0  0
  151.8741  140.1329  156.7345 S   0  0  0  0  0  0  0  0  0  0  0  0
  149.1720  139.5180  152.5964 H   0  0  0  0  0  0  0  0  0  0  0  0
  146.3979  139.7694  153.1455 H   0  0  0  0  0  0  0  0  0  0  0  0
  147.1360  138.8207  151.8640 H   0  0  0  0  0  0  0  0  0  0  0  0
  147.6041  137.4778  154.4287 H   0  0  0  0  0  0  0  0  0  0  0  0
  145.9153  137.9122  154.3120 H   0  0  0  0  0  0  0  0  0  0  0  0
  144.5890  137.0700  152.2521 H   0  0  0  0  0  0  0  0  0  0  0  0
  145.8357  137.7703  151.2378 H   0  0  0  0  0  0  0  0  0  0  0  0
  144.6444  135.9356  150.0414 H   0  0  0  0  0  0  0  0  0  0  0  0
  146.3484  135.5918  150.2222 H   0  0  0  0  0  0  0  0  0  0  0  0
  144.0852  134.4595  151.9400 H   0  0  0  0  0  0  0  0  0  0  0  0
  145.0522  133.5686  150.7851 H   0  0  0  0  0  0  0  0  0  0  0  0
  145.8465  133.2178  153.1442 H   0  0  0  0  0  0  0  0  0  0  0  0
  147.0891  133.9184  152.1355 H   0  0  0  0  0  0  0  0  0  0  0  0
  147.0048  135.0896  154.2944 H   0  0  0  0  0  0  0  0  0  0  0  0
  145.3015  135.4437  154.1027 H   0  0  0  0  0  0  0  0  0  0  0  0
  150.3258  143.1217  158.1141 H   0  0  0  0  0  0  0  0  0  0  0  0
  152.3187  141.4351  158.7817 H   0  0  0  0  0  0  0  0  0  0  0  0
  147.4318  136.3982  152.3305 H   0  0  0  0  0  0  0  0  0  0  0  0
  1  2  2  0  0  0  0
  2  3  1  0  0  0  0
  2 12  1  0  0  0  0
  3  4  1  0  0  0  0
  3 18  1  0  0  0  0
  4  5  1  0  0  0  0
  4 19  1  0  0  0  0
  4 20  1  0  0  0  0
  5  6  1  0  0  0  0
  5 21  1  0  0  0  0
  5 22  1  0  0  0  0
  6 11  1  0  0  0  0
  6  7  1  0  0  0  0
  6 35  1  0  0  0  0
  7  8  1  0  0  0  0
  7 23  1  0  0  0  0
  7 24  1  0  0  0  0
  8  9  1  0  0  0  0
  8 25  1  0  0  0  0
  8 26  1  0  0  0  0
  9 10  1  0  0  0  0
  9 27  1  0  0  0  0
  9 28  1  0  0  0  0
 10 11  1  0  0  0  0
 10 29  1  0  0  0  0
 10 30  1  0  0  0  0
 11 31  1  0  0  0  0
 11 32  1  0  0  0  0
 12 13  1  0  0  0  0
 13 17  1  0  0  0  0
 13 14  2  0  0  0  0
 14 15  1  0  0  0  0
 15 16  2  0  0  0  0
 15 33  1  0  0  0  0
 16 17  1  0  0  0  0
 16 34  1  0  0  0  0
M  CHG  1   6   1
M  CHG  1  12  -1
M  END
> <s_m_source_file>
AV-unprocessed.smi

> <i_m_source_file_index>
2094

> <i_lp_mmshare_version>
43012

> <i_f3d_flags>
0

> <s_epik_input>
czFbY0hdW2NIXW5jMVtOSF1DKD1PKVtOSF1bQ0gyXVtDSDJdTjJbQ0gyXVtDSDJdW0NIMl1bQ0gyXVtDSDJdMg==

> <s_epik_cmdline>
J2VwaWtfcHl0aG9uJywgJy1waCcsICc3LjAnLCAnLXRuJywgJzgnLCAnLW1hJywgJzIwMCcsICctbWV0YWxfYmluZGluZycsICctaW1hZScsICc8aW5maWxlLm1hZT4nLCAnLW9tYWUnLCAnPG91dGZpbGUubWFlPic=

> <r_lp_tautomer_probability>
0.999

> <r_epik_Ionization_Penalty>
6.21931

> <r_epik_Ionization_Penalty_Charging>
5.38824

> <r_epik_Ionization_Penalty_Neutral>
0.831074

> <r_epik_State_Penalty>
5.38819

> <r_epik_Charging_Adjusted_Penalty>
10.7764

> <i_epik_Tot_Q>
0

> <i_epik_Tot_abs_Q>
2

> <r_epik_Metal_State_Penalty>
1.41404

> <b_epik_Metal_Only>
1

> <s_lp_Force_Field>
OPLS_2005

> <r_lp_Energy>
7.37815

> <b_lp_Chiralities_Consistent>
1

> <s_lp_Variant>
AV-unprocessed.smi:2094-2

> <Gold.Version>
5.8.1

> <Gold.Id.Protein>
6NUR|6NUR_protein|mol2

> <Gold.PLP.Fitness>
36.5740

> <Gold.PLP.PLP>
-27.1044

> <Gold.PLP.part.hbond>
-2.8191

> <Gold.PLP.part.metal>
0.0000

> <Gold.PLP.part.buried>
-3.2243

> <Gold.PLP.part.nonpolar>
-21.8516

> <Gold.PLP.part.repulsive>
0.6232

> <Gold.PLP.ligand.clash>
0.0000

> <Gold.PLP.ligand.torsion>
0.9625

> <Gold.PLP.Chemscore.Hbond>
3.7808

> <Gold.PLP.Chemscore.CHOScore>
0.0000

> <Gold.PLP.Chemscore.Metal>
0.0000

> <Gold.Chemscore.Hbonds>
donor molecule, donor type, donor heavy atom, donor atom, acceptor molecule, acceptor atom, score
      L1  H     3    18       P1  7957  0.94
      L1  H     6    35       P1  7948  2.00
      P1  H  7989  7998       L1    12  0.84

> <Gold.PLP.Chemscore.Internal.Correction>
0.0521

> <Gold.Rescore>
     Score         DG    S(hbond)    S(metal)    S(lipo)     H(rot)  DE(clash)    DE(int)     intcor
     13.61     -16.59       2.59        0.00      55.63       1.58       0.22       2.77       ----

> <Gold.Chemscore.Fitness>
13.6105

> <Gold.Chemscore.DG>
-16.5935

> <Gold.Chemscore.ZeroCoef>
-5.4800

> <Gold.Chemscore.Hbond>
2.5905

> <Gold.Chemscore.Metal>
0.0000

> <Gold.Chemscore.Lipo>
55.6334

> <Gold.Chemscore.Internal_Hbond>
0.0000

> <Gold.Chemscore.DEClash>
0.2167

> <Gold.Chemscore.DEInternal>
2.7663

> <Gold.Chemscore.Rot>
1.5812

> <Gold.Chemscore.Internal.Correction>
   9.000000E+99

> <Gold.Chemscore.Hbonds>
donor molecule, donor type, donor heavy atom, donor atom, acceptor molecule, acceptor atom, score
      L1  H     3    18       P1  7957  0.90
      L1  H     6    35       P1  7948  0.98
      P1  H  7989  7998       L1    12  0.13

> <Gold.Chemscore.Hbond.Weighted>
-8.6522

> <Gold.Chemscore.Metal.Weighted>
-0.0000

> <Gold.Chemscore.Lipo.Weighted>
-6.5091

> <Gold.Chemscore.Internal_Hbond.Weighted>
0.0000

> <Gold.Chemscore.DEClash.Weighted>
0.2167

> <Gold.Chemscore.DEInternal.Weighted>
2.7663

> <Gold.Chemscore.Rot.Weighted>
4.0478

> <Gold.Chemscore.Internal.Correction.Weighted>
   9.000000E+99

> <Gold.Protein.RotatedTorsions>
[ 6907 6896 6895 6894 ] final  -18.05 input  -60.11 | X-H torsion
[ 7974 7965 7964 7962 ] final  132.44 input  175.53 | X-H torsion
[ 8008 7997 7996 7995 ] final -142.75 input   59.86 | X-H torsion
[ 10167 10162 10161 10158 ] final   77.02 input  -65.29 | X-H torsion
[ 10718 10713 10712 10709 ] final  -30.24 input   66.30 | X-H torsion
[ 10763 10752 10751 10750 ] final  -75.49 input  -60.55 | X-H torsion
[ 11005 11000 10999 10996 ] final  -53.26 input  -57.11 | X-H torsion

> <Gold.Protein.ActiveResidues>
 VAL166  LYS551  ARG553  GLY616  TRP617  ASP618  TYR619  PRO620  LYS621  CYS622 
 ASP623  PHE694  ASN695  SER759  ASP760  ASP761  ALA762  ILE779  LEU786  VAL792 
 PHE793  MET794  SER795  GLU796  ALA797  LYS798  CYS799  TRP800  GLU811  SER814 

> <Gold.Protein.RotatedAtoms>
  151.2840  135.0722  159.9179 H   0  0  0  0  0  0  0  0  0  0  0  0  # atno 6907 bound_to 6896
  152.5329  134.0001  159.7901 H   0  0  0  0  0  0  0  0  0  0  0  0  # atno 6908 bound_to 6896
  151.0260  133.5783  159.2696 H   0  0  0  0  0  0  0  0  0  0  0  0  # atno 6909 bound_to 6896
  144.9968  139.4351  143.5312 H   0  0  0  0  0  0  0  0  0  0  0  0  # atno 7974 bound_to 7965
  155.4993  140.0574  157.2941 H   0  0  0  0  0  0  0  0  0  0  0  0  # atno 8008 bound_to 7997
  154.4593  140.1988  156.0240 H   0  0  0  0  0  0  0  0  0  0  0  0  # atno 8009 bound_to 7997
  156.0860  140.3240  155.7758 H   0  0  0  0  0  0  0  0  0  0  0  0  # atno 8010 bound_to 7997
  139.9860  144.5791  150.7859 H   0  0  0  0  0  0  0  0  0  0  0  0  # atno 10167 bound_to 10162
  156.4022  130.4392  149.7314 H   0  0  0  0  0  0  0  0  0  0  0  0  # atno 10718 bound_to 10713
  154.4872  135.5829  153.6432 H   0  0  0  0  0  0  0  0  0  0  0  0  # atno 10763 bound_to 10752
  152.9856  135.6104  154.3171 H   0  0  0  0  0  0  0  0  0  0  0  0  # atno 10764 bound_to 10752
  154.3068  135.2845  155.2564 H   0  0  0  0  0  0  0  0  0  0  0  0  # atno 10765 bound_to 10752
  141.0967  133.6623  156.4146 H   0  0  0  0  0  0  0  0  0  0  0  0  # atno 11005 bound_to 11000
  146.3443  139.9333  142.8750 LP  0  0  0  0  0  0  0  0  0  0  0  0  # atno 17320 bound_to 7965
  145.2208  140.9934  143.4047 LP  0  0  0  0  0  0  0  0  0  0  0  0  # atno 17321 bound_to 7965
  140.7472  143.2902  151.3351 LP  0  0  0  0  0  0  0  0  0  0  0  0  # atno 17342 bound_to 10162
  139.6374  144.0603  152.2527 LP  0  0  0  0  0  0  0  0  0  0  0  0  # atno 17343 bound_to 10162
  156.4325  130.7822  151.2842 LP  0  0  0  0  0  0  0  0  0  0  0  0  # atno 17370 bound_to 10713
  157.7504  131.0149  150.3485 LP  0  0  0  0  0  0  0  0  0  0  0  0  # atno 17371 bound_to 10713
  140.5123  134.6383  157.5289 LP  0  0  0  0  0  0  0  0  0  0  0  0  # atno 17394 bound_to 11000
  139.9805  134.7144  155.9868 LP  0  0  0  0  0  0  0  0  0  0  0  0  # atno 17395 bound_to 11000

$$$$
