AV-unprocessed.smi:180|AV-procd|sdf|1452|dock9
  -GOLD-   2262019253D 1   1.00000     0.00000
 Structure written by MMmdl.
 54 57  0  0  0  0  0  0  0  0  1 V2000
  152.0922  142.4685  162.0706 C   0  0  0  0  0  0  0  0  0  0  0  0
  152.5231  142.5869  160.6126 C   0  0  0  0  0  0  0  0  0  0  0  0
  153.5494  142.0288  160.2259 O   0  0  0  0  0  0  0  0  0  0  0  0
  151.7329  143.3217  159.8158 N   0  0  0  0  0  0  0  0  0  0  0  0
  151.9722  143.5696  158.3982 C   0  0  0  0  0  0  0  0  0  0  0  0
  150.9454  142.8440  157.5122 C   0  0  1  0  0  0  0  0  0  0  0  0
  151.4554  141.4618  157.0626 C   0  0  0  0  0  0  0  0  0  0  0  0
  150.4201  140.7730  156.3031 N   0  0  0  0  0  0  0  0  0  0  0  0
  150.8253  139.6165  155.7392 C   0  0  0  0  0  0  0  0  0  0  0  0
  152.0146  139.6316  155.0898 N   0  0  0  0  0  0  0  0  0  0  0  0
  152.4715  138.5182  154.5086 C   0  0  0  0  0  0  0  0  0  0  0  0
  151.9085  137.3086  154.4617 N   0  0  0  0  0  0  0  0  0  0  0  0
  150.7120  137.2920  155.1168 C   0  0  0  0  0  0  0  0  0  0  0  0
  150.0972  138.3937  155.7751 C   0  0  0  0  0  0  0  0  0  0  0  0
  148.8797  138.0020  156.3189 N   0  0  0  0  0  0  0  0  0  0  0  0
  148.7830  136.7392  156.0038 C   0  0  0  0  0  0  0  0  0  0  0  0
  149.8465  136.2267  155.2947 N   0  0  0  0  0  0  0  0  0  0  0  0
  149.9996  134.8602  154.8197 C   0  0  0  0  0  0  0  0  0  0  0  0
  150.0958  133.7960  155.9430 C   0  0  0  0  0  0  0  0  0  0  0  0
  150.9315  134.3703  156.9317 O   0  0  0  0  0  0  0  0  0  0  0  0
  148.7307  133.4733  156.5883 C   0  0  0  0  0  0  0  0  0  0  0  0
  148.8407  132.3491  157.6340 C   0  0  0  0  0  0  0  0  0  0  0  0
  149.4183  131.1898  157.0443 O   0  0  0  0  0  0  0  0  0  0  0  0
  150.7444  131.4082  156.5771 C   0  0  0  0  0  0  0  0  0  0  0  0
  150.7426  132.4765  155.4686 C   0  0  0  0  0  0  0  0  0  0  0  0
  149.1632  140.6629  157.0306 C   0  0  0  0  0  0  0  0  0  0  0  0
  148.7085  142.0561  157.4948 C   0  0  0  0  0  0  0  0  0  0  0  0
  149.7441  142.6635  158.2620 O   0  0  0  0  0  0  0  0  0  0  0  0
  151.0100  142.3593  162.1485 H   0  0  0  0  0  0  0  0  0  0  0  0
  152.3908  143.3582  162.6255 H   0  0  0  0  0  0  0  0  0  0  0  0
  152.5557  141.6001  162.5399 H   0  0  0  0  0  0  0  0  0  0  0  0
  150.9132  143.7494  160.2216 H   0  0  0  0  0  0  0  0  0  0  0  0
  151.9490  144.6434  158.2040 H   0  0  0  0  0  0  0  0  0  0  0  0
  152.9806  143.2343  158.1545 H   0  0  0  0  0  0  0  0  0  0  0  0
  150.7344  143.4518  156.6301 H   0  0  0  0  0  0  0  0  0  0  0  0
  152.3492  141.5736  156.4471 H   0  0  0  0  0  0  0  0  0  0  0  0
  151.7352  140.8693  157.9342 H   0  0  0  0  0  0  0  0  0  0  0  0
  153.4255  138.6093  154.0108 H   0  0  0  0  0  0  0  0  0  0  0  0
  147.9307  136.1397  156.2888 H   0  0  0  0  0  0  0  0  0  0  0  0
  149.1553  134.6380  154.1653 H   0  0  0  0  0  0  0  0  0  0  0  0
  150.8884  134.8202  154.1878 H   0  0  0  0  0  0  0  0  0  0  0  0
  150.4400  135.0346  157.3902 H   0  0  0  0  0  0  0  0  0  0  0  0
  148.2986  134.3673  157.0397 H   0  0  0  0  0  0  0  0  0  0  0  0
  148.0278  133.1453  155.8229 H   0  0  0  0  0  0  0  0  0  0  0  0
  149.4307  132.6658  158.4953 H   0  0  0  0  0  0  0  0  0  0  0  0
  147.8499  132.0932  158.0095 H   0  0  0  0  0  0  0  0  0  0  0  0
  151.3916  131.6986  157.4059 H   0  0  0  0  0  0  0  0  0  0  0  0
  151.1364  130.4689  156.1870 H   0  0  0  0  0  0  0  0  0  0  0  0
  150.1869  132.0743  154.6220 H   0  0  0  0  0  0  0  0  0  0  0  0
  151.7587  132.6527  155.1133 H   0  0  0  0  0  0  0  0  0  0  0  0
  148.4010  140.2133  156.3925 H   0  0  0  0  0  0  0  0  0  0  0  0
  149.2908  140.0088  157.8940 H   0  0  0  0  0  0  0  0  0  0  0  0
  148.4548  142.6876  156.6418 H   0  0  0  0  0  0  0  0  0  0  0  0
  147.8121  141.9739  158.1092 H   0  0  0  0  0  0  0  0  0  0  0  0
  1  2  1  0  0  0  0
  1 29  1  0  0  0  0
  1 30  1  0  0  0  0
  1 31  1  0  0  0  0
  2  3  2  0  0  0  0
  2  4  1  0  0  0  0
  4  5  1  0  0  0  0
  4 32  1  0  0  0  0
  5  6  1  0  0  0  0
  5 33  1  0  0  0  0
  5 34  1  0  0  0  0
  6 28  1  0  0  0  0
  6  7  1  0  0  0  0
  6 35  1  0  0  0  0
  7  8  1  0  0  0  0
  7 36  1  0  0  0  0
  7 37  1  0  0  0  0
  8  9  1  0  0  0  0
  8 26  1  0  0  0  0
  9 14  1  0  0  0  0
  9 10  2  0  0  0  0
 10 11  1  0  0  0  0
 11 12  2  0  0  0  0
 11 38  1  0  0  0  0
 12 13  1  0  0  0  0
 13 17  1  0  0  0  0
 13 14  2  0  0  0  0
 14 15  1  0  0  0  0
 15 16  2  0  0  0  0
 16 17  1  0  0  0  0
 16 39  1  0  0  0  0
 17 18  1  0  0  0  0
 18 19  1  0  0  0  0
 18 40  1  0  0  0  0
 18 41  1  0  0  0  0
 19 25  1  0  0  0  0
 19 20  1  0  0  0  0
 19 21  1  0  0  0  0
 20 42  1  0  0  0  0
 21 22  1  0  0  0  0
 21 43  1  0  0  0  0
 21 44  1  0  0  0  0
 22 23  1  0  0  0  0
 22 45  1  0  0  0  0
 22 46  1  0  0  0  0
 23 24  1  0  0  0  0
 24 25  1  0  0  0  0
 24 47  1  0  0  0  0
 24 48  1  0  0  0  0
 25 49  1  0  0  0  0
 25 50  1  0  0  0  0
 26 27  1  0  0  0  0
 26 51  1  0  0  0  0
 26 52  1  0  0  0  0
 27 28  1  0  0  0  0
 27 53  1  0  0  0  0
 27 54  1  0  0  0  0
M  END
> <s_m_source_file>
AV-unprocessed.smi

> <i_m_source_file_index>
180

> <i_lp_mmshare_version>
43012

> <i_f3d_flags>
0

> <s_epik_input>
W0NIM11DKD1PKVtOSF1bQ0gyXVtDQEBIXTFbQ0gyXU4oW0NIMl1bQ0gyXU8xKWMobltjSF1uMiljKGMyMyluW2NIXW4zW0NIMl1DNChbT0hdKVtDSDJdW0NIMl1PW0NIMl1bQ0gyXTQ=

> <s_epik_cmdline>
J2VwaWtfcHl0aG9uJywgJy1waCcsICc3LjAnLCAnLXRuJywgJzgnLCAnLW1hJywgJzIwMCcsICctbWV0YWxfYmluZGluZycsICctaW1hZScsICc8aW5maWxlLm1hZT4nLCAnLW9tYWUnLCAnPG91dGZpbGUubWFlPic=

> <r_lp_tautomer_probability>
1

> <r_epik_Ionization_Penalty>
7.38871e-05

> <r_epik_Ionization_Penalty_Charging>
0

> <r_epik_Ionization_Penalty_Neutral>
7.38871e-05

> <r_epik_State_Penalty>
-0

> <r_epik_Charging_Adjusted_Penalty>
0

> <i_epik_Tot_Q>
0

> <i_epik_Tot_abs_Q>
0

> <r_epik_Metal_State_Penalty>
-0

> <b_epik_Metal_Only>
0

> <s_lp_Force_Field>
OPLS_2005

> <r_lp_Energy>
30.2573

> <b_lp_Chiralities_Consistent>
1

> <s_lp_Variant>
AV-unprocessed.smi:180-2

> <Gold.Version>
5.8.1

> <Gold.Id.Protein>
6NUR|6NUR_protein|mol2

> <Gold.PLP.Fitness>
45.7652

> <Gold.PLP.PLP>
-41.6904

> <Gold.PLP.part.hbond>
-3.0000

> <Gold.PLP.part.metal>
0.0000

> <Gold.PLP.part.buried>
-9.8610

> <Gold.PLP.part.nonpolar>
-29.1137

> <Gold.PLP.part.repulsive>
0.4036

> <Gold.PLP.ligand.clash>
0.0000

> <Gold.PLP.ligand.torsion>
0.9154

> <Gold.PLP.Chemscore.Hbond>
1.9040

> <Gold.PLP.Chemscore.CHOScore>
0.0000

> <Gold.PLP.Chemscore.Metal>
0.0000

> <Gold.Chemscore.Hbonds>
donor molecule, donor type, donor heavy atom, donor atom, acceptor molecule, acceptor atom, score
      P1  H  7989  7998       L1    10  0.89
      P1  H 10752 10764       L1    12  0.96

> <Gold.PLP.Chemscore.Internal.Correction>
0.1937

> <Gold.Rescore>
     Score         DG    S(hbond)    S(metal)    S(lipo)     H(rot)  DE(clash)    DE(int)     intcor
      7.97     -11.10       1.26        0.00      77.45       2.99       0.36       2.77       ----

> <Gold.Chemscore.Fitness>
7.9709

> <Gold.Chemscore.DG>
-11.0951

> <Gold.Chemscore.ZeroCoef>
-5.4800

> <Gold.Chemscore.Hbond>
1.2588

> <Gold.Chemscore.Metal>
0.0000

> <Gold.Chemscore.Lipo>
77.4476

> <Gold.Chemscore.Internal_Hbond>
0.0000

> <Gold.Chemscore.DEClash>
0.3555

> <Gold.Chemscore.DEInternal>
2.7687

> <Gold.Chemscore.Rot>
2.9885

> <Gold.Chemscore.Internal.Correction>
   9.000000E+99

> <Gold.Chemscore.Hbonds>
donor molecule, donor type, donor heavy atom, donor atom, acceptor molecule, acceptor atom, score
      P1  H  7989  7998       L1    10  0.14
      P1  H 10752 10764       L1    12  0.88

> <Gold.Chemscore.Hbond.Weighted>
-4.2043

> <Gold.Chemscore.Metal.Weighted>
-0.0000

> <Gold.Chemscore.Lipo.Weighted>
-9.0614

> <Gold.Chemscore.Internal_Hbond.Weighted>
0.0000

> <Gold.Chemscore.DEClash.Weighted>
0.3555

> <Gold.Chemscore.DEInternal.Weighted>
2.7687

> <Gold.Chemscore.Rot.Weighted>
7.6506

> <Gold.Chemscore.Internal.Correction.Weighted>
   9.000000E+99

> <Gold.Protein.RotatedTorsions>
[ 6907 6896 6895 6894 ] final   52.49 input  -60.11 | X-H torsion
[ 7974 7965 7964 7962 ] final -130.91 input  175.53 | X-H torsion
[ 8008 7997 7996 7995 ] final   20.91 input   59.86 | X-H torsion
[ 10167 10162 10161 10158 ] final  160.84 input  -65.29 | X-H torsion
[ 10718 10713 10712 10709 ] final  125.45 input   66.30 | X-H torsion
[ 10763 10752 10751 10750 ] final  -75.40 input  -60.55 | X-H torsion
[ 11005 11000 10999 10996 ] final  151.60 input  -57.11 | X-H torsion

> <Gold.Protein.ActiveResidues>
 VAL166  LYS551  ARG553  GLY616  TRP617  ASP618  TYR619  PRO620  LYS621  CYS622 
 ASP623  PHE694  ASN695  SER759  ASP760  ASP761  ALA762  ILE779  LEU786  VAL792 
 PHE793  MET794  SER795  GLU796  ALA797  LYS798  CYS799  TRP800  GLU811  SER814 

> <Gold.Protein.RotatedAtoms>
  152.3239  134.7346  160.0306 H   0  0  0  0  0  0  0  0  0  0  0  0  # atno 6907 bound_to 6896
  151.7785  133.3342  159.3473 H   0  0  0  0  0  0  0  0  0  0  0  0  # atno 6908 bound_to 6896
  150.7385  134.5884  159.6019 H   0  0  0  0  0  0  0  0  0  0  0  0  # atno 6909 bound_to 6896
  144.9429  140.7259  143.4835 H   0  0  0  0  0  0  0  0  0  0  0  0  # atno 7974 bound_to 7965
  154.9427  140.3055  155.5113 H   0  0  0  0  0  0  0  0  0  0  0  0  # atno 8008 bound_to 7997
  156.2994  140.2333  156.4435 H   0  0  0  0  0  0  0  0  0  0  0  0  # atno 8009 bound_to 7997
  154.8130  140.0427  157.1345 H   0  0  0  0  0  0  0  0  0  0  0  0  # atno 8010 bound_to 7997
  139.4843  144.4594  151.8724 H   0  0  0  0  0  0  0  0  0  0  0  0  # atno 10167 bound_to 10162
  157.5502  131.1094  150.8715 H   0  0  0  0  0  0  0  0  0  0  0  0  # atno 10718 bound_to 10713
  154.4860  135.5832  153.6424 H   0  0  0  0  0  0  0  0  0  0  0  0  # atno 10763 bound_to 10752
  152.9854  135.6101  154.3186 H   0  0  0  0  0  0  0  0  0  0  0  0  # atno 10764 bound_to 10752
  154.3081  135.2845  155.2558 H   0  0  0  0  0  0  0  0  0  0  0  0  # atno 10765 bound_to 10752
  140.1233  134.8849  157.2102 H   0  0  0  0  0  0  0  0  0  0  0  0  # atno 11005 bound_to 11000
  145.2962  139.1866  143.4714 LP  0  0  0  0  0  0  0  0  0  0  0  0  # atno 17320 bound_to 7965
  146.3293  140.2947  142.8617 LP  0  0  0  0  0  0  0  0  0  0  0  0  # atno 17321 bound_to 7965
  140.4056  144.2436  150.5891 LP  0  0  0  0  0  0  0  0  0  0  0  0  # atno 17342 bound_to 10162
  140.5015  143.2316  151.8671 LP  0  0  0  0  0  0  0  0  0  0  0  0  # atno 17343 bound_to 10162
  156.9242  130.5326  149.5279 LP  0  0  0  0  0  0  0  0  0  0  0  0  # atno 17370 bound_to 10713
  156.0570  130.5629  150.9112 LP  0  0  0  0  0  0  0  0  0  0  0  0  # atno 17371 bound_to 10713
  140.2937  134.3211  155.7308 LP  0  0  0  0  0  0  0  0  0  0  0  0  # atno 17394 bound_to 11000
  141.2156  133.7550  156.9540 LP  0  0  0  0  0  0  0  0  0  0  0  0  # atno 17395 bound_to 11000

$$$$
