AV-unprocessed.smi:2660|AV-procd|sdf|10315|dock10
  -GOLD-   2272014333D 1   1.00000     0.00000
 Structure written by MMmdl.
 36 37  0  0  0  0  0  0  0  0  1 V2000
  154.4379  138.8030  161.0462 N   0  0  0  0  0  0  0  0  0  0  0  0
  153.5277  138.8925  160.0684 C   0  0  0  0  0  0  0  0  0  0  0  0
  153.1330  137.8587  159.5293 O   0  0  0  0  0  0  0  0  0  0  0  0
  153.1039  140.2763  159.7577 C   0  0  0  0  0  0  0  0  0  0  0  0
  153.6897  141.3625  160.3106 C   0  0  0  0  0  0  0  0  0  0  0  0
  153.2312  142.6853  159.9860 C   0  0  0  0  0  0  0  0  0  0  0  0
  152.2731  142.8596  159.0567 C   0  0  0  0  0  0  0  0  0  0  0  0
  151.6868  144.2513  158.7871 C   0  0  0  0  0  0  0  0  0  0  0  0
  152.2143  145.1652  159.6027 F   0  0  0  0  0  0  0  0  0  0  0  0
  151.9421  144.6519  157.5430 F   0  0  0  0  0  0  0  0  0  0  0  0
  150.3695  144.2698  158.9964 F   0  0  0  0  0  0  0  0  0  0  0  0
  151.7137  141.7232  158.3928 N   0  0  0  0  0  0  0  0  0  0  0  0
  150.8186  141.8967  157.2194 C   0  0  0  0  0  0  0  0  0  0  0  0
  149.4128  141.2720  157.4202 C   0  0  1  0  0  0  0  0  0  0  0  0
  148.8842  141.7479  158.6422 O   0  0  0  0  0  0  0  0  0  0  0  0
  148.4739  141.5037  156.2413 C   0  0  0  0  0  0  0  0  0  0  0  0
  147.2054  142.0974  156.4289 C   0  0  0  0  0  0  0  0  0  0  0  0
  146.3533  142.3180  155.3296 C   0  0  0  0  0  0  0  0  0  0  0  0
  146.7616  141.9449  154.0352 C   0  0  0  0  0  0  0  0  0  0  0  0
  148.0224  141.3496  153.8410 C   0  0  0  0  0  0  0  0  0  0  0  0
  148.8742  141.1279  154.9402 C   0  0  0  0  0  0  0  0  0  0  0  0
  152.0022  140.4328  158.7741 C   0  0  0  0  0  0  0  0  0  0  0  0
  151.3778  139.4876  158.2829 O   0  0  0  0  0  0  0  0  0  0  0  0
  154.7818  137.8957  161.3260 H   0  0  0  0  0  0  0  0  0  0  0  0
  154.7753  139.6378  161.5020 H   0  0  0  0  0  0  0  0  0  0  0  0
  154.5037  141.2805  161.0153 H   0  0  0  0  0  0  0  0  0  0  0  0
  153.6417  143.5238  160.5283 H   0  0  0  0  0  0  0  0  0  0  0  0
  150.7183  142.9622  157.0028 H   0  0  0  0  0  0  0  0  0  0  0  0
  151.2248  141.4912  156.2996 H   0  0  0  0  0  0  0  0  0  0  0  0
  149.5040  140.1940  157.5526 H   0  0  0  0  0  0  0  0  0  0  0  0
  149.5209  141.5970  159.3237 H   0  0  0  0  0  0  0  0  0  0  0  0
  146.8824  142.3972  157.4150 H   0  0  0  0  0  0  0  0  0  0  0  0
  145.3867  142.7761  155.4797 H   0  0  0  0  0  0  0  0  0  0  0  0
  146.1080  142.1147  153.1924 H   0  0  0  0  0  0  0  0  0  0  0  0
  148.3366  141.0632  152.8481 H   0  0  0  0  0  0  0  0  0  0  0  0
  149.8406  140.6726  154.7801 H   0  0  0  0  0  0  0  0  0  0  0  0
  1  2  1  0  0  0  0
  1 24  1  0  0  0  0
  1 25  1  0  0  0  0
  2  3  2  0  0  0  0
  2  4  1  0  0  0  0
  4 22  1  0  0  0  0
  4  5  2  0  0  0  0
  5  6  1  0  0  0  0
  5 26  1  0  0  0  0
  6  7  2  0  0  0  0
  6 27  1  0  0  0  0
  7  8  1  0  0  0  0
  7 12  1  0  0  0  0
  8  9  1  0  0  0  0
  8 10  1  0  0  0  0
  8 11  1  0  0  0  0
 12 13  1  0  0  0  0
 12 22  1  0  0  0  0
 13 14  1  0  0  0  0
 13 28  1  0  0  0  0
 13 29  1  0  0  0  0
 14 15  1  0  0  0  0
 14 16  1  0  0  0  0
 14 30  1  0  0  0  0
 15 31  1  0  0  0  0
 16 21  1  0  0  0  0
 16 17  2  0  0  0  0
 17 18  1  0  0  0  0
 17 32  1  0  0  0  0
 18 19  2  0  0  0  0
 18 33  1  0  0  0  0
 19 20  1  0  0  0  0
 19 34  1  0  0  0  0
 20 21  2  0  0  0  0
 20 35  1  0  0  0  0
 21 36  1  0  0  0  0
 22 23  2  0  0  0  0
M  END
> <s_m_source_file>
AV-unprocessed.smi

> <i_m_source_file_index>
2660

> <i_lp_mmshare_version>
43012

> <i_f3d_flags>
0

> <s_epik_input>
W05IMl1DKD1PKWMxW2NIXVtjSF1jKEMoRikoRilGKW4oYzE9TylbQ0gyXVtDQEhdKFtPSF0pYzJbY0hdW2NIXVtjSF1bY0hdW2NIXTI=

> <s_epik_cmdline>
J2VwaWtfcHl0aG9uJywgJy1waCcsICc3LjAnLCAnLXRuJywgJzgnLCAnLW1hJywgJzIwMCcsICctbWV0YWxfYmluZGluZycsICctaW1hZScsICc8aW5maWxlLm1hZT4nLCAnLW9tYWUnLCAnPG91dGZpbGUubWFlPic=

> <r_lp_tautomer_probability>
1

> <r_epik_Ionization_Penalty>
1.58596e-06

> <r_epik_Ionization_Penalty_Charging>
5.13453e-09

> <r_epik_Ionization_Penalty_Neutral>
1.58083e-06

> <r_epik_State_Penalty>
-0

> <r_epik_Charging_Adjusted_Penalty>
5.13453e-09

> <i_epik_Tot_Q>
0

> <i_epik_Tot_abs_Q>
0

> <r_epik_Metal_State_Penalty>
-0

> <b_epik_Metal_Only>
0

> <s_lp_Force_Field>
OPLS_2005

> <r_lp_Energy>
32.13

> <b_lp_Chiralities_Consistent>
1

> <s_lp_Variant>
AV-unprocessed.smi:2660-2

> <Gold.Version>
5.8.1

> <Gold.Id.Protein>
6NUR|6NUR_protein|mol2

> <Gold.PLP.Fitness>
50.5058

> <Gold.PLP.PLP>
-50.6140

> <Gold.PLP.part.hbond>
-0.9970

> <Gold.PLP.part.metal>
0.0000

> <Gold.PLP.part.buried>
-5.8863

> <Gold.PLP.part.nonpolar>
-43.3107

> <Gold.PLP.part.repulsive>
0.0003

> <Gold.PLP.ligand.clash>
1.8134

> <Gold.PLP.ligand.torsion>
0.1674

> <Gold.PLP.Chemscore.Hbond>
0.0000

> <Gold.PLP.Chemscore.CHOScore>
0.0000

> <Gold.PLP.Chemscore.Metal>
0.0000

> <Gold.PLP.Chemscore.Internal.Correction>
2.0399

> <Gold.Rescore>
     Score         DG    S(hbond)    S(metal)    S(lipo)     H(rot)  DE(clash)    DE(int)     intcor
      6.71     -11.76       0.00        0.00     102.02       2.21       0.67       4.38       ----

> <Gold.Chemscore.Fitness>
6.7066

> <Gold.Chemscore.DG>
-11.7619

> <Gold.Chemscore.ZeroCoef>
-5.4800

> <Gold.Chemscore.Hbond>
0.0000

> <Gold.Chemscore.Metal>
0.0000

> <Gold.Chemscore.Lipo>
102.0161

> <Gold.Chemscore.Internal_Hbond>
0.0000

> <Gold.Chemscore.DEClash>
0.6719

> <Gold.Chemscore.DEInternal>
4.3834

> <Gold.Chemscore.Rot>
2.2086

> <Gold.Chemscore.Internal.Correction>
   9.000000E+99

> <Gold.Chemscore.Hbond.Weighted>
-0.0000

> <Gold.Chemscore.Metal.Weighted>
-0.0000

> <Gold.Chemscore.Lipo.Weighted>
-11.9359

> <Gold.Chemscore.Internal_Hbond.Weighted>
0.0000

> <Gold.Chemscore.DEClash.Weighted>
0.6719

> <Gold.Chemscore.DEInternal.Weighted>
4.3834

> <Gold.Chemscore.Rot.Weighted>
5.6540

> <Gold.Chemscore.Internal.Correction.Weighted>
   9.000000E+99

> <Gold.Protein.RotatedTorsions>
[ 6907 6896 6895 6894 ] final  147.26 input  -60.11 | X-H torsion
[ 7974 7965 7964 7962 ] final -171.51 input  175.53 | X-H torsion
[ 8008 7997 7996 7995 ] final -158.21 input   59.86 | X-H torsion
[ 10167 10162 10161 10158 ] final  -19.95 input  -65.29 | X-H torsion
[ 10718 10713 10712 10709 ] final  -12.29 input   66.30 | X-H torsion
[ 10763 10752 10751 10750 ] final   24.66 input  -60.55 | X-H torsion
[ 11005 11000 10999 10996 ] final  135.01 input  -57.11 | X-H torsion

> <Gold.Protein.ActiveResidues>
 VAL166  LYS551  ARG553  GLY616  TRP617  ASP618  TYR619  PRO620  LYS621  CYS622 
 ASP623  PHE694  ASN695  SER759  ASP760  ASP761  ALA762  ILE779  LEU786  VAL792 
 PHE793  MET794  SER795  GLU796  ALA797  LYS798  CYS799  TRP800  GLU811  SER814 

> <Gold.Protein.RotatedAtoms>
  152.1571  133.4558  159.4842 H   0  0  0  0  0  0  0  0  0  0  0  0  # atno 6907 bound_to 6896
  150.6902  134.2117  159.4371 H   0  0  0  0  0  0  0  0  0  0  0  0  # atno 6908 bound_to 6896
  152.0017  134.9924  160.0616 H   0  0  0  0  0  0  0  0  0  0  0  0  # atno 6909 bound_to 6896
  144.7156  140.1911  143.6348 H   0  0  0  0  0  0  0  0  0  0  0  0  # atno 7974 bound_to 7965
  155.7440  140.0818  157.2232 H   0  0  0  0  0  0  0  0  0  0  0  0  # atno 8008 bound_to 7997
  154.4019  140.1572  156.2704 H   0  0  0  0  0  0  0  0  0  0  0  0  # atno 8009 bound_to 7997
  155.8993  140.3410  155.6017 H   0  0  0  0  0  0  0  0  0  0  0  0  # atno 8010 bound_to 7997
  140.7272  143.4770  151.0169 H   0  0  0  0  0  0  0  0  0  0  0  0  # atno 10167 bound_to 10162
  156.6468  130.4943  149.6076 H   0  0  0  0  0  0  0  0  0  0  0  0  # atno 10718 bound_to 10713
  153.0748  135.6600  154.0170 H   0  0  0  0  0  0  0  0  0  0  0  0  # atno 10763 bound_to 10752
  153.9807  135.2955  155.3422 H   0  0  0  0  0  0  0  0  0  0  0  0  # atno 10764 bound_to 10752
  154.7133  135.5196  153.8769 H   0  0  0  0  0  0  0  0  0  0  0  0  # atno 10765 bound_to 10752
  139.9952  134.9500  156.9947 H   0  0  0  0  0  0  0  0  0  0  0  0  # atno 11005 bound_to 11000
  145.8767  139.2301  143.1629 LP  0  0  0  0  0  0  0  0  0  0  0  0  # atno 17320 bound_to 7965
  146.0033  140.8501  143.0007 LP  0  0  0  0  0  0  0  0  0  0  0  0  # atno 17321 bound_to 7965
  139.8465  143.7494  152.3179 LP  0  0  0  0  0  0  0  0  0  0  0  0  # atno 17342 bound_to 10162
  139.7661  144.7491  151.0292 LP  0  0  0  0  0  0  0  0  0  0  0  0  # atno 17343 bound_to 10162
  156.2115  130.6682  151.1275 LP  0  0  0  0  0  0  0  0  0  0  0  0  # atno 17370 bound_to 10713
  157.7153  131.0713  150.6348 LP  0  0  0  0  0  0  0  0  0  0  0  0  # atno 17371 bound_to 10713
  140.4832  134.1268  155.7220 LP  0  0  0  0  0  0  0  0  0  0  0  0  # atno 17394 bound_to 11000
  141.1598  133.8814  157.1878 LP  0  0  0  0  0  0  0  0  0  0  0  0  # atno 17395 bound_to 11000

$$$$
