AV-unprocessed.smi:2849|AV-procd|sdf|10959|dock7
  -GOLD-   2272015413D 1   1.00000     0.00000
 Structure written by MMmdl.
 55 58  0  0  0  0  0  0  0  0  2 V2000
  146.1692  133.3915  151.3979 C   0  0  0  0  0  0  0  0  0  0  0  0
  146.3224  134.7600  151.9463 N   0  3  2  0  0  0  0  0  0  0  0  0
  146.0093  134.8928  153.3902 C   0  0  2  0  0  0  0  0  0  0  0  0
  144.4911  134.7288  153.6540 C   0  0  0  0  0  0  0  0  0  0  0  0
  143.6032  135.6367  152.7823 C   0  0  0  0  0  0  0  0  0  0  0  0
  144.0911  135.7131  151.3226 C   0  0  0  0  0  0  0  0  0  0  0  0
  145.6307  135.8215  151.1750 C   0  0  1  0  0  0  0  0  0  0  0  0
  146.2263  137.1930  151.5698 C   0  0  0  0  0  0  0  0  0  0  0  0
  146.2389  137.4709  153.0919 C   0  0  2  0  0  0  0  0  0  0  0  0
  147.1755  138.5574  153.3733 N   0  0  0  0  0  0  0  0  0  0  0  0
  147.4627  139.0355  154.5931 C   0  0  0  0  0  0  0  0  0  0  0  0
  146.9640  138.5909  155.6260 O   0  0  0  0  0  0  0  0  0  0  0  0
  148.3468  140.0458  154.5194 N   0  0  0  0  0  0  0  0  0  0  0  0
  148.8856  140.8543  155.5589 C   0  0  0  0  0  0  0  0  0  0  0  0
  148.2671  141.0906  156.8097 C   0  0  0  0  0  0  0  0  0  0  0  0
  148.9164  141.9161  157.7479 C   0  0  0  0  0  0  0  0  0  0  0  0
  150.1715  142.4809  157.4200 C   0  0  0  0  0  0  0  0  0  0  0  0
  150.8485  143.3223  158.3244 N   0  0  0  0  0  0  0  0  0  0  0  0
  150.1475  144.0923  159.3397 C   0  0  0  0  0  0  0  0  0  0  0  0
  151.2424  144.9027  160.0315 C   0  0  0  0  0  0  0  0  0  0  0  0
  152.2500  145.1555  158.9092 C   0  0  0  0  0  0  0  0  0  0  0  0
  152.1465  143.9087  158.0227 C   0  0  0  0  0  0  0  0  0  0  0  0
  150.7644  142.2497  156.2253 N   0  0  0  0  0  0  0  0  0  0  0  0
  150.1381  141.4587  155.3298 C   0  0  0  0  0  0  0  0  0  0  0  0
  146.6188  136.2135  153.9157 C   0  0  0  0  0  0  0  0  0  0  0  0
  145.1361  133.0468  151.4248 H   0  0  0  0  0  0  0  0  0  0  0  0
  146.7754  132.6847  151.9652 H   0  0  0  0  0  0  0  0  0  0  0  0
  146.5086  133.3579  150.3624 H   0  0  0  0  0  0  0  0  0  0  0  0
  146.5188  134.0848  153.9176 H   0  0  0  0  0  0  0  0  0  0  0  0
  144.2116  133.6918  153.4674 H   0  0  0  0  0  0  0  0  0  0  0  0
  144.2722  134.9009  154.7083 H   0  0  0  0  0  0  0  0  0  0  0  0
  142.5772  135.2681  152.8030 H   0  0  0  0  0  0  0  0  0  0  0  0
  143.5408  136.6318  153.2143 H   0  0  0  0  0  0  0  0  0  0  0  0
  143.7508  134.8187  150.8000 H   0  0  0  0  0  0  0  0  0  0  0  0
  143.6047  136.5465  150.8145 H   0  0  0  0  0  0  0  0  0  0  0  0
  145.8663  135.6740  150.1199 H   0  0  0  0  0  0  0  0  0  0  0  0
  147.2538  137.2202  151.2023 H   0  0  0  0  0  0  0  0  0  0  0  0
  145.7050  137.9963  151.0473 H   0  0  0  0  0  0  0  0  0  0  0  0
  145.2497  137.8131  153.3865 H   0  0  0  0  0  0  0  0  0  0  0  0
  147.6302  138.9842  152.5795 H   0  0  0  0  0  0  0  0  0  0  0  0
  148.6430  140.3006  153.5885 H   0  0  0  0  0  0  0  0  0  0  0  0
  147.3159  140.6607  157.0790 H   0  0  0  0  0  0  0  0  0  0  0  0
  148.4409  142.1074  158.6983 H   0  0  0  0  0  0  0  0  0  0  0  0
  149.4236  144.7521  158.8595 H   0  0  0  0  0  0  0  0  0  0  0  0
  149.6176  143.4484  160.0424 H   0  0  0  0  0  0  0  0  0  0  0  0
  150.8676  145.8201  160.4862 H   0  0  0  0  0  0  0  0  0  0  0  0
  151.7074  144.3023  160.8148 H   0  0  0  0  0  0  0  0  0  0  0  0
  151.9451  146.0345  158.3397 H   0  0  0  0  0  0  0  0  0  0  0  0
  153.2616  145.3300  159.2768 H   0  0  0  0  0  0  0  0  0  0  0  0
  152.9255  143.1885  158.2749 H   0  0  0  0  0  0  0  0  0  0  0  0
  152.2466  144.1699  156.9687 H   0  0  0  0  0  0  0  0  0  0  0  0
  150.6564  141.3076  154.3941 H   0  0  0  0  0  0  0  0  0  0  0  0
  146.3560  136.3582  154.9642 H   0  0  0  0  0  0  0  0  0  0  0  0
  147.7045  136.1027  153.8977 H   0  0  0  0  0  0  0  0  0  0  0  0
  147.3090  134.9591  151.8618 H   0  0  0  0  0  0  0  0  0  0  0  0
  1  2  1  0  0  0  0
  1 26  1  0  0  0  0
  1 27  1  0  0  0  0
  1 28  1  0  0  0  0
  2  7  1  0  0  0  0
  2  3  1  0  0  0  0
  2 55  1  0  0  0  0
  3 25  1  0  0  0  0
  3  4  1  0  0  0  0
  3 29  1  0  0  0  0
  4  5  1  0  0  0  0
  4 30  1  0  0  0  0
  4 31  1  0  0  0  0
  5  6  1  0  0  0  0
  5 32  1  0  0  0  0
  5 33  1  0  0  0  0
  6  7  1  0  0  0  0
  6 34  1  0  0  0  0
  6 35  1  0  0  0  0
  7  8  1  0  0  0  0
  7 36  1  0  0  0  0
  8  9  1  0  0  0  0
  8 37  1  0  0  0  0
  8 38  1  0  0  0  0
  9 10  1  0  0  0  0
  9 25  1  0  0  0  0
  9 39  1  0  0  0  0
 10 11  1  0  0  0  0
 10 40  1  0  0  0  0
 11 12  2  0  0  0  0
 11 13  1  0  0  0  0
 13 14  1  0  0  0  0
 13 41  1  0  0  0  0
 14 24  1  0  0  0  0
 14 15  2  0  0  0  0
 15 16  1  0  0  0  0
 15 42  1  0  0  0  0
 16 17  2  0  0  0  0
 16 43  1  0  0  0  0
 17 18  1  0  0  0  0
 17 23  1  0  0  0  0
 18 22  1  0  0  0  0
 18 19  1  0  0  0  0
 19 20  1  0  0  0  0
 19 44  1  0  0  0  0
 19 45  1  0  0  0  0
 20 21  1  0  0  0  0
 20 46  1  0  0  0  0
 20 47  1  0  0  0  0
 21 22  1  0  0  0  0
 21 48  1  0  0  0  0
 21 49  1  0  0  0  0
 22 50  1  0  0  0  0
 22 51  1  0  0  0  0
 23 24  2  0  0  0  0
 24 52  1  0  0  0  0
 25 53  1  0  0  0  0
 25 54  1  0  0  0  0
M  CHG  1   2   1
M  END
> <s_m_source_file>
AV-unprocessed.smi

> <i_m_source_file_index>
2849

> <i_lp_mmshare_version>
43012

> <i_f3d_flags>
0

> <s_epik_input>
W0NIMl0xW0NIMl1bQ0gyXVtDQEhdKE4oW0NIM10pW0NIXTEyKVtDSDJdW0NASF0oW0NIMl0yKVtOSF1DKD1PKVtOSF1jM1tjSF1bY0hdYyhuW2NIXTMpTjRbQ0gyXVtDSDJdW0NIMl1bQ0gyXTQ=

> <s_epik_cmdline>
J2VwaWtfcHl0aG9uJywgJy1waCcsICc3LjAnLCAnLXRuJywgJzgnLCAnLW1hJywgJzIwMCcsICctbWV0YWxfYmluZGluZycsICctaW1hZScsICc8aW5maWxlLm1hZT4nLCAnLW9tYWUnLCAnPG91dGZpbGUubWFlPic=

> <r_lp_tautomer_probability>
1

> <r_epik_Ionization_Penalty>
0.07954

> <r_epik_Ionization_Penalty_Charging>
0.00089841

> <r_epik_Ionization_Penalty_Neutral>
0.0786416

> <r_epik_State_Penalty>
0.0689917

> <r_epik_Charging_Adjusted_Penalty>
0.0698901

> <i_epik_Tot_Q>
1

> <i_epik_Tot_abs_Q>
1

> <r_epik_Metal_State_Penalty>
0.060891

> <b_epik_Metal_Only>
0

> <s_lp_Force_Field>
OPLS_2005

> <r_lp_Energy>
61.678

> <b_lp_Chiralities_Consistent>
1

> <s_lp_Variant>
AV-unprocessed.smi:2849-3

> <Gold.Version>
5.8.1

> <Gold.Id.Protein>
6NUR|6NUR_protein|mol2

> <Gold.PLP.Fitness>
43.4209

> <Gold.PLP.PLP>
-37.8541

> <Gold.PLP.part.hbond>
-1.0368

> <Gold.PLP.part.metal>
0.0000

> <Gold.PLP.part.buried>
-0.9297

> <Gold.PLP.part.nonpolar>
-34.4580

> <Gold.PLP.part.repulsive>
0.5065

> <Gold.PLP.ligand.clash>
0.0000

> <Gold.PLP.ligand.torsion>
0.2913

> <Gold.PLP.Chemscore.Hbond>
2.0000

> <Gold.PLP.Chemscore.CHOScore>
0.0000

> <Gold.PLP.Chemscore.Metal>
0.0000

> <Gold.Chemscore.Hbonds>
donor molecule, donor type, donor heavy atom, donor atom, acceptor molecule, acceptor atom, score
      L1  H     2    55       P1  7948  1.98

> <Gold.PLP.Chemscore.Internal.Correction>
0.1494

> <Gold.Rescore>
     Score         DG    S(hbond)    S(metal)    S(lipo)     H(rot)  DE(clash)    DE(int)     intcor
     16.24     -18.15       0.94        0.00     103.24       1.00       0.32       1.59       ----

> <Gold.Chemscore.Fitness>
16.2395

> <Gold.Chemscore.DG>
-18.1545

> <Gold.Chemscore.ZeroCoef>
-5.4800

> <Gold.Chemscore.Hbond>
0.9448

> <Gold.Chemscore.Metal>
0.0000

> <Gold.Chemscore.Lipo>
103.2393

> <Gold.Chemscore.Internal_Hbond>
0.0000

> <Gold.Chemscore.DEClash>
0.3213

> <Gold.Chemscore.DEInternal>
1.5937

> <Gold.Chemscore.Rot>
1.0000

> <Gold.Chemscore.Internal.Correction>
   9.000000E+99

> <Gold.Chemscore.Hbonds>
donor molecule, donor type, donor heavy atom, donor atom, acceptor molecule, acceptor atom, score
      L1  H     2    55       P1  7948  0.82

> <Gold.Chemscore.Hbond.Weighted>
-3.1555

> <Gold.Chemscore.Metal.Weighted>
-0.0000

> <Gold.Chemscore.Lipo.Weighted>
-12.0790

> <Gold.Chemscore.Internal_Hbond.Weighted>
0.0000

> <Gold.Chemscore.DEClash.Weighted>
0.3213

> <Gold.Chemscore.DEInternal.Weighted>
1.5937

> <Gold.Chemscore.Rot.Weighted>
2.5600

> <Gold.Chemscore.Internal.Correction.Weighted>
   9.000000E+99

> <Gold.Protein.RotatedTorsions>
[ 6907 6896 6895 6894 ] final  -55.74 input  -60.11 | X-H torsion
[ 7974 7965 7964 7962 ] final -128.95 input  175.53 | X-H torsion
[ 8008 7997 7996 7995 ] final   14.19 input   59.86 | X-H torsion
[ 10167 10162 10161 10158 ] final  102.34 input  -65.29 | X-H torsion
[ 10718 10713 10712 10709 ] final -149.12 input   66.30 | X-H torsion
[ 10763 10752 10751 10750 ] final   77.92 input  -60.55 | X-H torsion
[ 11005 11000 10999 10996 ] final  -51.94 input  -57.11 | X-H torsion

> <Gold.Protein.ActiveResidues>
 VAL166  LYS551  ARG553  GLY616  TRP617  ASP618  TYR619  PRO620  LYS621  CYS622 
 ASP623  PHE694  ASN695  SER759  ASP760  ASP761  ALA762  ILE779  LEU786  VAL792 
 PHE793  MET794  SER795  GLU796  ALA797  LYS798  CYS799  TRP800  GLU811  SER814 

> <Gold.Protein.RotatedAtoms>
  150.8226  134.7441  159.6785 H   0  0  0  0  0  0  0  0  0  0  0  0  # atno 6907 bound_to 6896
  152.4340  134.5719  159.9933 H   0  0  0  0  0  0  0  0  0  0  0  0  # atno 6908 bound_to 6896
  151.5899  133.3330  159.3061 H   0  0  0  0  0  0  0  0  0  0  0  0  # atno 6909 bound_to 6896
  144.9620  140.7456  143.4723 H   0  0  0  0  0  0  0  0  0  0  0  0  # atno 7974 bound_to 7965
  154.8450  140.2920  155.5635 H   0  0  0  0  0  0  0  0  0  0  0  0  # atno 8008 bound_to 7997
  156.3014  140.2507  156.3330 H   0  0  0  0  0  0  0  0  0  0  0  0  # atno 8009 bound_to 7997
  154.9084  140.0389  157.1921 H   0  0  0  0  0  0  0  0  0  0  0  0  # atno 8010 bound_to 7997
  139.7359  144.7024  151.0650 H   0  0  0  0  0  0  0  0  0  0  0  0  # atno 10167 bound_to 10162
  156.4291  130.8066  151.2293 H   0  0  0  0  0  0  0  0  0  0  0  0  # atno 10718 bound_to 10713
  153.0835  135.4896  154.8550 H   0  0  0  0  0  0  0  0  0  0  0  0  # atno 10763 bound_to 10752
  154.7181  135.3033  154.9094 H   0  0  0  0  0  0  0  0  0  0  0  0  # atno 10764 bound_to 10752
  153.9767  135.6794  153.4802 H   0  0  0  0  0  0  0  0  0  0  0  0  # atno 10765 bound_to 10752
  141.0898  133.6635  156.3951 H   0  0  0  0  0  0  0  0  0  0  0  0  # atno 11005 bound_to 11000
  145.2686  139.1963  143.4853 LP  0  0  0  0  0  0  0  0  0  0  0  0  # atno 17320 bound_to 7965
  146.3356  140.2628  142.8602 LP  0  0  0  0  0  0  0  0  0  0  0  0  # atno 17321 bound_to 7965
  140.7778  143.4985  150.9801 LP  0  0  0  0  0  0  0  0  0  0  0  0  # atno 17342 bound_to 10162
  139.8673  143.7237  152.3169 LP  0  0  0  0  0  0  0  0  0  0  0  0  # atno 17343 bound_to 10162
  157.7508  131.0204  150.3707 LP  0  0  0  0  0  0  0  0  0  0  0  0  # atno 17370 bound_to 10713
  156.4040  130.3921  149.6939 LP  0  0  0  0  0  0  0  0  0  0  0  0  # atno 17371 bound_to 10713
  140.5279  134.6241  157.5340 LP  0  0  0  0  0  0  0  0  0  0  0  0  # atno 17394 bound_to 11000
  139.9722  134.7274  156.0019 LP  0  0  0  0  0  0  0  0  0  0  0  0  # atno 17395 bound_to 11000

$$$$
