AV-unprocessed.smi:2790|AV-procd|sdf|10769|dock1
  -GOLD-   2272015203D 1   1.00000     0.00000
 Structure written by MMmdl.
 45 46  0  0  0  0  0  0  0  0  3 V2000
  146.4792  134.2926  153.3552 C   0  0  0  0  0  0  0  0  0  0  0  0
  147.8347  134.5362  153.8917 N   0  3  0  0  0  0  0  0  0  0  0  0
  148.6843  133.3245  153.8217 C   0  0  0  0  0  0  0  0  0  0  0  0
  147.8074  135.1593  155.2397 C   0  0  0  0  0  0  0  0  0  0  0  0
  147.2124  136.5693  155.1637 C   0  0  0  0  0  0  0  0  0  0  0  0
  146.0738  136.7020  154.7051 O   0  0  0  0  0  0  0  0  0  0  0  0
  148.0837  137.4899  155.6602 N   0  5  0  0  0  0  0  0  0  0  0  0
  147.7097  138.8605  156.0179 C   0  0  0  0  0  0  0  0  0  0  0  0
  148.6469  139.9214  155.3158 C   0  0  0  0  0  0  0  0  0  0  0  0
  150.1315  139.6054  155.6650 C   0  0  0  0  0  0  0  0  0  0  0  0
  150.6277  139.7478  156.9882 C   0  0  0  0  0  0  0  0  0  0  0  0
  151.9736  139.4386  157.2642 C   0  0  0  0  0  0  0  0  0  0  0  0
  152.8436  139.0086  156.3287 N   0  0  0  0  0  0  0  0  0  0  0  0
  152.3860  138.8738  155.0685 C   0  0  0  0  0  0  0  0  0  0  0  0
  151.0577  139.1487  154.6896 C   0  0  0  0  0  0  0  0  0  0  0  0
  148.4411  139.9439  153.7554 C   0  0  0  0  0  0  0  0  0  0  0  0
  147.1264  140.5755  153.2477 C   0  0  0  0  0  0  0  0  0  0  0  0
  146.9548  142.0011  153.7774 C   0  0  0  0  0  0  0  0  0  0  0  0
  147.0225  142.0137  155.3064 C   0  0  0  0  0  0  0  0  0  0  0  0
  148.3317  141.3750  155.8228 C   0  0  0  0  0  0  0  0  0  0  0  0
  145.9341  133.5814  153.9772 H   0  0  0  0  0  0  0  0  0  0  0  0
  146.5323  133.8936  152.3418 H   0  0  0  0  0  0  0  0  0  0  0  0
  145.9097  135.2218  153.3135 H   0  0  0  0  0  0  0  0  0  0  0  0
  148.3069  132.5428  154.4817 H   0  0  0  0  0  0  0  0  0  0  0  0
  149.7133  133.5466  154.1060 H   0  0  0  0  0  0  0  0  0  0  0  0
  148.7063  132.9305  152.8054 H   0  0  0  0  0  0  0  0  0  0  0  0
  147.1929  134.5670  155.9203 H   0  0  0  0  0  0  0  0  0  0  0  0
  148.8105  135.1843  155.6685 H   0  0  0  0  0  0  0  0  0  0  0  0
  146.6734  139.0587  155.7455 H   0  0  0  0  0  0  0  0  0  0  0  0
  147.7509  139.0283  157.0953 H   0  0  0  0  0  0  0  0  0  0  0  0
  149.9907  140.0708  157.7972 H   0  0  0  0  0  0  0  0  0  0  0  0
  152.3601  139.5354  158.2680 H   0  0  0  0  0  0  0  0  0  0  0  0
  153.0983  138.5218  154.3372 H   0  0  0  0  0  0  0  0  0  0  0  0
  150.7767  138.9927  153.6603 H   0  0  0  0  0  0  0  0  0  0  0  0
  149.2456  140.5347  153.3145 H   0  0  0  0  0  0  0  0  0  0  0  0
  148.5402  138.9507  153.3134 H   0  0  0  0  0  0  0  0  0  0  0  0
  147.1276  140.5907  152.1574 H   0  0  0  0  0  0  0  0  0  0  0  0
  146.2697  139.9658  153.5362 H   0  0  0  0  0  0  0  0  0  0  0  0
  147.7368  142.6425  153.3689 H   0  0  0  0  0  0  0  0  0  0  0  0
  146.0041  142.4149  153.4405 H   0  0  0  0  0  0  0  0  0  0  0  0
  146.9536  143.0413  155.6644 H   0  0  0  0  0  0  0  0  0  0  0  0
  146.1559  141.4958  155.7183 H   0  0  0  0  0  0  0  0  0  0  0  0
  148.3348  141.4413  156.9121 H   0  0  0  0  0  0  0  0  0  0  0  0
  149.1442  142.0278  155.4992 H   0  0  0  0  0  0  0  0  0  0  0  0
  148.2596  135.2270  153.2883 H   0  0  0  0  0  0  0  0  0  0  0  0
  1  2  1  0  0  0  0
  1 21  1  0  0  0  0
  1 22  1  0  0  0  0
  1 23  1  0  0  0  0
  2  3  1  0  0  0  0
  2  4  1  0  0  0  0
  2 45  1  0  0  0  0
  3 24  1  0  0  0  0
  3 25  1  0  0  0  0
  3 26  1  0  0  0  0
  4  5  1  0  0  0  0
  4 27  1  0  0  0  0
  4 28  1  0  0  0  0
  5  6  2  0  0  0  0
  5  7  1  0  0  0  0
  7  8  1  0  0  0  0
  8  9  1  0  0  0  0
  8 29  1  0  0  0  0
  8 30  1  0  0  0  0
  9 20  1  0  0  0  0
  9 10  1  0  0  0  0
  9 16  1  0  0  0  0
 10 15  1  0  0  0  0
 10 11  2  0  0  0  0
 11 12  1  0  0  0  0
 11 31  1  0  0  0  0
 12 13  2  0  0  0  0
 12 32  1  0  0  0  0
 13 14  1  0  0  0  0
 14 15  2  0  0  0  0
 14 33  1  0  0  0  0
 15 34  1  0  0  0  0
 16 17  1  0  0  0  0
 16 35  1  0  0  0  0
 16 36  1  0  0  0  0
 17 18  1  0  0  0  0
 17 37  1  0  0  0  0
 17 38  1  0  0  0  0
 18 19  1  0  0  0  0
 18 39  1  0  0  0  0
 18 40  1  0  0  0  0
 19 20  1  0  0  0  0
 19 41  1  0  0  0  0
 19 42  1  0  0  0  0
 20 43  1  0  0  0  0
 20 44  1  0  0  0  0
M  CHG  1   2   1
M  CHG  1   7  -1
M  END
> <s_m_source_file>
AV-unprocessed.smi

> <i_m_source_file_index>
2790

> <i_lp_mmshare_version>
43012

> <i_f3d_flags>
0

> <s_epik_input>
W0NIM11OKFtDSDNdKVtDSDJdQyg9TylbTkhdW0NIMl1DMShbQ0gyXVtDSDJdW0NIMl1bQ0gyXVtDSDJdMSljMltjSF1bY0hdbltjSF1bY0hdMg==

> <s_epik_cmdline>
J2VwaWtfcHl0aG9uJywgJy1waCcsICc3LjAnLCAnLXRuJywgJzgnLCAnLW1hJywgJzIwMCcsICctbWV0YWxfYmluZGluZycsICctaW1hZScsICc8aW5maWxlLm1hZT4nLCAnLW9tYWUnLCAnPG91dGZpbGUubWFlPic=

> <r_epik_Ionization_Penalty>
6.38592

> <r_epik_Ionization_Penalty_Charging>
6.21784

> <r_epik_Ionization_Penalty_Neutral>
0.168075

> <r_epik_State_Penalty>
6.29446

> <r_epik_Charging_Adjusted_Penalty>
12.5123

> <i_epik_Tot_Q>
0

> <i_epik_Tot_abs_Q>
2

> <r_epik_Metal_State_Penalty>
2.27801

> <b_epik_Metal_Only>
1

> <s_lp_Force_Field>
OPLS_2005

> <r_lp_Energy>
25.1562

> <b_lp_Chiralities_Consistent>
1

> <s_lp_Variant>
AV-unprocessed.smi:2790-4

> <Gold.Version>
5.8.1

> <Gold.Id.Protein>
6NUR|6NUR_protein|mol2

> <Gold.PLP.Fitness>
36.2358

> <Gold.PLP.PLP>
-27.6906

> <Gold.PLP.part.hbond>
-2.0000

> <Gold.PLP.part.metal>
0.0000

> <Gold.PLP.part.buried>
0.0621

> <Gold.PLP.part.nonpolar>
-25.5599

> <Gold.PLP.part.repulsive>
0.1104

> <Gold.PLP.ligand.clash>
0.0000

> <Gold.PLP.ligand.torsion>
0.3813

> <Gold.PLP.Chemscore.Hbond>
3.0000

> <Gold.PLP.Chemscore.CHOScore>
0.0000

> <Gold.PLP.Chemscore.Metal>
0.0000

> <Gold.Chemscore.Hbonds>
donor molecule, donor type, donor heavy atom, donor atom, acceptor molecule, acceptor atom, score
      L1  H     2    45       P1  7948  2.00
      P1  H  7997  8008       L1    13  1.00

> <Gold.PLP.Chemscore.Internal.Correction>
0.3077

> <Gold.Rescore>
     Score         DG    S(hbond)    S(metal)    S(lipo)     H(rot)  DE(clash)    DE(int)     intcor
     13.54     -16.05       1.78        0.00      74.33       1.59       0.79       1.72       ----

> <Gold.Chemscore.Fitness>
13.5397

> <Gold.Chemscore.DG>
-16.0490

> <Gold.Chemscore.ZeroCoef>
-5.4800

> <Gold.Chemscore.Hbond>
1.7821

> <Gold.Chemscore.Metal>
0.0000

> <Gold.Chemscore.Lipo>
74.3340

> <Gold.Chemscore.Internal_Hbond>
0.0000

> <Gold.Chemscore.DEClash>
0.7911

> <Gold.Chemscore.DEInternal>
1.7182

> <Gold.Chemscore.Rot>
1.5938

> <Gold.Chemscore.Internal.Correction>
   9.000000E+99

> <Gold.Chemscore.Hbonds>
donor molecule, donor type, donor heavy atom, donor atom, acceptor molecule, acceptor atom, score
      L1  H     2    45       P1  7948  0.98
      P1  H  7997  8008       L1    13  0.49

> <Gold.Chemscore.Hbond.Weighted>
-5.9522

> <Gold.Chemscore.Metal.Weighted>
-0.0000

> <Gold.Chemscore.Lipo.Weighted>
-8.6971

> <Gold.Chemscore.Internal_Hbond.Weighted>
0.0000

> <Gold.Chemscore.DEClash.Weighted>
0.7911

> <Gold.Chemscore.DEInternal.Weighted>
1.7182

> <Gold.Chemscore.Rot.Weighted>
4.0802

> <Gold.Chemscore.Internal.Correction.Weighted>
   9.000000E+99

> <Gold.Protein.RotatedTorsions>
[ 6907 6896 6895 6894 ] final  -58.76 input  -60.11 | X-H torsion
[ 7974 7965 7964 7962 ] final  -20.97 input  175.53 | X-H torsion
[ 8008 7997 7996 7995 ] final  -51.74 input   59.86 | X-H torsion
[ 10167 10162 10161 10158 ] final -123.44 input  -65.29 | X-H torsion
[ 10718 10713 10712 10709 ] final    2.19 input   66.30 | X-H torsion
[ 10763 10752 10751 10750 ] final -139.49 input  -60.55 | X-H torsion
[ 11005 11000 10999 10996 ] final   46.55 input  -57.11 | X-H torsion

> <Gold.Protein.ActiveResidues>
 VAL166  LYS551  ARG553  GLY616  TRP617  ASP618  TYR619  PRO620  LYS621  CYS622 
 ASP623  PHE694  ASN695  SER759  ASP760  ASP761  ALA762  ILE779  LEU786  VAL792 
 PHE793  MET794  SER795  GLU796  ALA797  LYS798  CYS799  TRP800  GLU811  SER814 

> <Gold.Protein.RotatedAtoms>
  150.7982  134.7056  159.6574 H   0  0  0  0  0  0  0  0  0  0  0  0  # atno 6907 bound_to 6896
  152.4096  134.6144  160.0044 H   0  0  0  0  0  0  0  0  0  0  0  0  # atno 6908 bound_to 6896
  151.6391  133.3290  159.3162 H   0  0  0  0  0  0  0  0  0  0  0  0  # atno 6909 bound_to 6896
  146.1759  140.4276  142.8514 H   0  0  0  0  0  0  0  0  0  0  0  0  # atno 7974 bound_to 7965
  154.4090  140.1240  156.4878 H   0  0  0  0  0  0  0  0  0  0  0  0  # atno 8008 bound_to 7997
  155.7020  140.3494  155.4918 H   0  0  0  0  0  0  0  0  0  0  0  0  # atno 8009 bound_to 7997
  155.9376  140.1081  157.1072 H   0  0  0  0  0  0  0  0  0  0  0  0  # atno 8010 bound_to 7997
  140.0034  143.5516  152.2294 H   0  0  0  0  0  0  0  0  0  0  0  0  # atno 10167 bound_to 10162
  156.8594  130.5581  149.5664 H   0  0  0  0  0  0  0  0  0  0  0  0  # atno 10718 bound_to 10713
  154.8607  135.3581  154.5554 H   0  0  0  0  0  0  0  0  0  0  0  0  # atno 10763 bound_to 10752
  153.6171  135.7007  153.5329 H   0  0  0  0  0  0  0  0  0  0  0  0  # atno 10764 bound_to 10752
  153.3160  135.4165  155.1337 H   0  0  0  0  0  0  0  0  0  0  0  0  # atno 10765 bound_to 10752
  140.1359  134.4646  155.8486 H   0  0  0  0  0  0  0  0  0  0  0  0  # atno 11005 bound_to 11000
  144.8235  140.6590  143.6337 LP  0  0  0  0  0  0  0  0  0  0  0  0  # atno 17320 bound_to 7965
  145.4213  139.1563  143.4073 LP  0  0  0  0  0  0  0  0  0  0  0  0  # atno 17321 bound_to 7965
  139.6255  144.7636  151.2647 LP  0  0  0  0  0  0  0  0  0  0  0  0  # atno 17342 bound_to 10162
  140.7410  143.6571  150.8197 LP  0  0  0  0  0  0  0  0  0  0  0  0  # atno 17343 bound_to 10162
  156.0785  130.5801  150.9519 LP  0  0  0  0  0  0  0  0  0  0  0  0  # atno 17370 bound_to 10713
  157.6259  131.0925  150.8535 LP  0  0  0  0  0  0  0  0  0  0  0  0  # atno 17371 bound_to 10713
  141.2178  133.6814  156.7156 LP  0  0  0  0  0  0  0  0  0  0  0  0  # atno 17394 bound_to 11000
  140.2783  134.8337  157.3910 LP  0  0  0  0  0  0  0  0  0  0  0  0  # atno 17395 bound_to 11000

$$$$
