AV-unprocessed.smi:3249|AV-procd|sdf|12421|dock8
  -GOLD-   2272018303D 1   1.00000     0.00000
 Structure written by MMmdl.
 44 45  0  0  0  0  0  0  0  0  2 V2000
  145.5226  132.4383  149.4171 C   0  0  0  0  0  0  0  0  0  0  0  0
  145.3799  133.6806  150.2484 C   0  0  0  0  0  0  0  0  0  0  0  0
  144.4689  134.7588  150.0625 C   0  0  0  0  0  0  0  0  0  0  0  0
  144.6018  135.7068  150.9756 N   0  0  0  0  0  0  0  0  0  0  0  0
  145.6015  135.2739  151.7735 N   0  0  0  0  0  0  0  0  0  0  0  0
  146.0162  136.0798  152.9148 C   0  0  2  0  0  0  0  0  0  0  0  0
  145.9779  135.2268  154.1961 C   0  0  0  0  0  0  0  0  0  0  0  0
  145.1867  137.3864  153.0280 C   0  0  2  0  0  0  0  0  0  0  0  0
  143.6722  137.1344  153.1409 C   0  0  0  0  0  0  0  0  0  0  0  0
  145.4373  138.2594  151.8594 N   0  3  0  0  0  0  0  0  0  0  0  0
  146.7773  138.8804  151.8221 C   0  0  0  0  0  0  0  0  0  0  0  0
  147.1027  139.5668  153.1553 C   0  0  1  0  0  0  0  0  0  0  0  0
  148.5802  139.3787  153.5506 C   0  0  0  0  0  0  0  0  0  0  0  0
  148.9002  140.1590  154.8305 C   0  0  0  0  0  0  0  0  0  0  0  0
  148.4764  141.6220  154.6631 C   0  0  0  0  0  0  0  0  0  0  0  0
  147.0117  141.7053  154.2055 C   0  0  0  0  0  0  0  0  0  0  0  0
  146.8361  140.9599  153.0042 O   0  0  0  0  0  0  0  0  0  0  0  0
  146.0863  134.0499  151.3574 C   0  0  0  0  0  0  0  0  0  0  0  0
  144.8202  132.4244  148.5833 H   0  0  0  0  0  0  0  0  0  0  0  0
  145.3414  131.5385  150.0052 H   0  0  0  0  0  0  0  0  0  0  0  0
  146.5235  132.3507  148.9942 H   0  0  0  0  0  0  0  0  0  0  0  0
  143.7183  134.8789  149.2951 H   0  0  0  0  0  0  0  0  0  0  0  0
  147.0580  136.3617  152.7481 H   0  0  0  0  0  0  0  0  0  0  0  0
  146.4220  135.7539  155.0408 H   0  0  0  0  0  0  0  0  0  0  0  0
  146.5395  134.3010  154.0657 H   0  0  0  0  0  0  0  0  0  0  0  0
  144.9569  134.9599  154.4702 H   0  0  0  0  0  0  0  0  0  0  0  0
  145.4887  137.9109  153.9366 H   0  0  0  0  0  0  0  0  0  0  0  0
  143.4182  136.5851  154.0477 H   0  0  0  0  0  0  0  0  0  0  0  0
  143.3018  136.5610  152.2904 H   0  0  0  0  0  0  0  0  0  0  0  0
  143.1204  138.0743  153.1740 H   0  0  0  0  0  0  0  0  0  0  0  0
  145.3123  137.7105  151.0204 H   0  0  0  0  0  0  0  0  0  0  0  0
  147.5125  138.1020  151.6133 H   0  0  0  0  0  0  0  0  0  0  0  0
  146.8339  139.6031  151.0071 H   0  0  0  0  0  0  0  0  0  0  0  0
  146.4626  139.1544  153.9377 H   0  0  0  0  0  0  0  0  0  0  0  0
  148.8027  138.3210  153.6949 H   0  0  0  0  0  0  0  0  0  0  0  0
  149.2253  139.7260  152.7424 H   0  0  0  0  0  0  0  0  0  0  0  0
  148.3686  139.7159  155.6738 H   0  0  0  0  0  0  0  0  0  0  0  0
  149.9640  140.0945  155.0604 H   0  0  0  0  0  0  0  0  0  0  0  0
  148.6120  142.1642  155.5994 H   0  0  0  0  0  0  0  0  0  0  0  0
  149.1160  142.1067  153.9245 H   0  0  0  0  0  0  0  0  0  0  0  0
  146.3392  141.3325  154.9795 H   0  0  0  0  0  0  0  0  0  0  0  0
  146.7368  142.7435  154.0185 H   0  0  0  0  0  0  0  0  0  0  0  0
  146.8869  133.5464  151.8790 H   0  0  0  0  0  0  0  0  0  0  0  0
  144.7492  138.9989  151.8609 H   0  0  0  0  0  0  0  0  0  0  0  0
  1  2  1  0  0  0  0
  1 19  1  0  0  0  0
  1 20  1  0  0  0  0
  1 21  1  0  0  0  0
  2 18  2  0  0  0  0
  2  3  1  0  0  0  0
  3  4  2  0  0  0  0
  3 22  1  0  0  0  0
  4  5  1  0  0  0  0
  5  6  1  0  0  0  0
  5 18  1  0  0  0  0
  6  7  1  0  0  0  0
  6  8  1  0  0  0  0
  6 23  1  0  0  0  0
  7 24  1  0  0  0  0
  7 25  1  0  0  0  0
  7 26  1  0  0  0  0
  8  9  1  0  0  0  0
  8 10  1  0  0  0  0
  8 27  1  0  0  0  0
  9 28  1  0  0  0  0
  9 29  1  0  0  0  0
  9 30  1  0  0  0  0
 10 11  1  0  0  0  0
 10 31  1  0  0  0  0
 10 44  1  0  0  0  0
 11 12  1  0  0  0  0
 11 32  1  0  0  0  0
 11 33  1  0  0  0  0
 12 17  1  0  0  0  0
 12 13  1  0  0  0  0
 12 34  1  0  0  0  0
 13 14  1  0  0  0  0
 13 35  1  0  0  0  0
 13 36  1  0  0  0  0
 14 15  1  0  0  0  0
 14 37  1  0  0  0  0
 14 38  1  0  0  0  0
 15 16  1  0  0  0  0
 15 39  1  0  0  0  0
 15 40  1  0  0  0  0
 16 17  1  0  0  0  0
 16 41  1  0  0  0  0
 16 42  1  0  0  0  0
 18 43  1  0  0  0  0
M  CHG  1  10   1
M  END
> <s_m_source_file>
AV-unprocessed.smi

> <i_m_source_file_index>
3249

> <i_lp_mmshare_version>
43012

> <i_f3d_flags>
0

> <s_epik_input>
W0NIM11jMVtjSF1ubihbY0hdMSlbQ0BIXShbQ0gzXSlbQ0BIXShbQ0gzXSlbTkhdW0NIMl1bQ0BASF0yW0NIMl1bQ0gyXVtDSDJdW0NIMl1PMg==

> <s_epik_cmdline>
J2VwaWtfcHl0aG9uJywgJy1waCcsICc3LjAnLCAnLXRuJywgJzgnLCAnLW1hJywgJzIwMCcsICctbWV0YWxfYmluZGluZycsICctaW1hZScsICc8aW5maWxlLm1hZT4nLCAnLW9tYWUnLCAnPG91dGZpbGUubWFlPic=

> <r_lp_tautomer_probability>
1

> <r_epik_Ionization_Penalty>
0.00659207

> <r_epik_Ionization_Penalty_Charging>
0.00656881

> <r_epik_Ionization_Penalty_Neutral>
2.32662e-05

> <r_epik_State_Penalty>
0.0048654

> <r_epik_Charging_Adjusted_Penalty>
0.0114342

> <i_epik_Tot_Q>
1

> <i_epik_Tot_abs_Q>
1

> <r_epik_Metal_State_Penalty>
-0

> <b_epik_Metal_Only>
0

> <s_lp_Force_Field>
OPLS_2005

> <r_lp_Energy>
18.8744

> <b_lp_Chiralities_Consistent>
1

> <s_lp_Variant>
AV-unprocessed.smi:3249-5

> <Gold.Version>
5.8.1

> <Gold.Id.Protein>
6NUR|6NUR_protein|mol2

> <Gold.PLP.Fitness>
40.0000

> <Gold.PLP.PLP>
-31.8403

> <Gold.PLP.part.hbond>
-2.0000

> <Gold.PLP.part.metal>
0.0000

> <Gold.PLP.part.buried>
0.9934

> <Gold.PLP.part.nonpolar>
-31.4640

> <Gold.PLP.part.repulsive>
0.4695

> <Gold.PLP.ligand.clash>
0.0000

> <Gold.PLP.ligand.torsion>
0.7349

> <Gold.PLP.Chemscore.Hbond>
2.1654

> <Gold.PLP.Chemscore.CHOScore>
1.0000

> <Gold.PLP.Chemscore.Metal>
0.0000

> <Gold.Chemscore.Hbonds>
donor molecule, donor type, donor heavy atom, donor atom, acceptor molecule, acceptor atom, score
      L1  H    10    31       P1 10171  0.17
      L1  H    10    44       P1 10175  2.00
      L1  C     3    22       P1 10186  0.44

> <Gold.PLP.Chemscore.Internal.Correction>
0.1333

> <Gold.Rescore>
     Score         DG    S(hbond)    S(metal)    S(lipo)     H(rot)  DE(clash)    DE(int)     intcor
     12.14     -16.16       1.35        0.00      86.24       1.53       2.15       1.87       ----

> <Gold.Chemscore.Fitness>
12.1382

> <Gold.Chemscore.DG>
-16.1608

> <Gold.Chemscore.ZeroCoef>
-5.4800

> <Gold.Chemscore.Hbond>
1.3522

> <Gold.Chemscore.Metal>
0.0000

> <Gold.Chemscore.Lipo>
86.2362

> <Gold.Chemscore.Internal_Hbond>
0.0000

> <Gold.Chemscore.DEClash>
2.1489

> <Gold.Chemscore.DEInternal>
1.8737

> <Gold.Chemscore.Rot>
1.5333

> <Gold.Chemscore.Internal.Correction>
   9.000000E+99

> <Gold.Chemscore.Hbonds>
donor molecule, donor type, donor heavy atom, donor atom, acceptor molecule, acceptor atom, score
      L1  H    10    31       P1 10171  0.18
      L1  H    10    44       P1 10175  0.99

> <Gold.Chemscore.Hbond.Weighted>
-4.5164

> <Gold.Chemscore.Metal.Weighted>
-0.0000

> <Gold.Chemscore.Lipo.Weighted>
-10.0896

> <Gold.Chemscore.Internal_Hbond.Weighted>
0.0000

> <Gold.Chemscore.DEClash.Weighted>
2.1489

> <Gold.Chemscore.DEInternal.Weighted>
1.8737

> <Gold.Chemscore.Rot.Weighted>
3.9252

> <Gold.Chemscore.Internal.Correction.Weighted>
   9.000000E+99

> <Gold.Protein.RotatedTorsions>
[ 6907 6896 6895 6894 ] final  -58.22 input  -60.11 | X-H torsion
[ 7974 7965 7964 7962 ] final -117.20 input  175.53 | X-H torsion
[ 8008 7997 7996 7995 ] final   58.84 input   59.86 | X-H torsion
[ 10167 10162 10161 10158 ] final -108.94 input  -65.29 | X-H torsion
[ 10718 10713 10712 10709 ] final  105.15 input   66.30 | X-H torsion
[ 10763 10752 10751 10750 ] final -140.38 input  -60.55 | X-H torsion
[ 11005 11000 10999 10996 ] final -111.47 input  -57.11 | X-H torsion

> <Gold.Protein.ActiveResidues>
 VAL166  LYS551  ARG553  GLY616  TRP617  ASP618  TYR619  PRO620  LYS621  CYS622 
 ASP623  PHE694  ASN695  SER759  ASP760  ASP761  ALA762  ILE779  LEU786  VAL792 
 PHE793  MET794  SER795  GLU796  ALA797  LYS798  CYS799  TRP800  GLU811  SER814 

> <Gold.Protein.RotatedAtoms>
  150.8024  134.7126  159.6612 H   0  0  0  0  0  0  0  0  0  0  0  0  # atno 6907 bound_to 6896
  152.4141  134.6069  160.0025 H   0  0  0  0  0  0  0  0  0  0  0  0  # atno 6908 bound_to 6896
  151.6303  133.3295  159.3143 H   0  0  0  0  0  0  0  0  0  0  0  0  # atno 6909 bound_to 6896
  145.0879  140.8470  143.4000 H   0  0  0  0  0  0  0  0  0  0  0  0  # atno 7974 bound_to 7965
  155.5564  140.3487  155.4481 H   0  0  0  0  0  0  0  0  0  0  0  0  # atno 8008 bound_to 7997
  156.0546  140.1325  157.0037 H   0  0  0  0  0  0  0  0  0  0  0  0  # atno 8009 bound_to 7997
  154.4450  140.0998  156.6411 H   0  0  0  0  0  0  0  0  0  0  0  0  # atno 8010 bound_to 7997
  140.1607  143.4122  152.1427 H   0  0  0  0  0  0  0  0  0  0  0  0  # atno 10167 bound_to 10162
  157.6715  131.0821  150.5814 H   0  0  0  0  0  0  0  0  0  0  0  0  # atno 10718 bound_to 10713
  154.8580  135.3555  154.5699 H   0  0  0  0  0  0  0  0  0  0  0  0  # atno 10763 bound_to 10752
  153.6312  135.7002  153.5279 H   0  0  0  0  0  0  0  0  0  0  0  0  # atno 10764 bound_to 10752
  153.3048  135.4196  155.1244 H   0  0  0  0  0  0  0  0  0  0  0  0  # atno 10765 bound_to 10752
  141.0732  133.9344  157.2442 H   0  0  0  0  0  0  0  0  0  0  0  0  # atno 11005 bound_to 11000
  145.1100  139.2763  143.5642 LP  0  0  0  0  0  0  0  0  0  0  0  0  # atno 17320 bound_to 7965
  146.3531  140.0693  142.8624 LP  0  0  0  0  0  0  0  0  0  0  0  0  # atno 17321 bound_to 7965
  139.5382  144.7231  151.4821 LP  0  0  0  0  0  0  0  0  0  0  0  0  # atno 17342 bound_to 10162
  140.6645  143.8428  150.6925 LP  0  0  0  0  0  0  0  0  0  0  0  0  # atno 17343 bound_to 10162
  156.6115  130.4381  149.5857 LP  0  0  0  0  0  0  0  0  0  0  0  0  # atno 17370 bound_to 10713
  156.2427  130.6861  151.1571 LP  0  0  0  0  0  0  0  0  0  0  0  0  # atno 17371 bound_to 10713
  139.9545  135.0168  156.9089 LP  0  0  0  0  0  0  0  0  0  0  0  0  # atno 17394 bound_to 11000
  140.5629  134.0518  155.7404 LP  0  0  0  0  0  0  0  0  0  0  0  0  # atno 17395 bound_to 11000

$$$$
