AV-unprocessed.smi:1803|AV-procd|sdf|7283|dock4
  -GOLD-   22720 8543D 1   1.00000     0.00000
 Structure written by MMmdl.
 36 38  0  0  0  0  0  0  0  0  2 V2000
  145.7298  138.6863  153.1784 O   0  0  0  0  0  0  0  0  0  0  0  0
  146.6001  137.8910  152.8295 C   0  0  0  0  0  0  0  0  0  0  0  0
  147.9051  138.1286  153.0789 N   0  0  0  0  0  0  0  0  0  0  0  0
  148.5512  139.2211  153.7276 C   0  0  0  0  0  0  0  0  0  0  0  0
  149.8329  139.2118  154.1302 N   0  0  0  0  0  0  0  0  0  0  0  0
  150.2078  140.4165  154.7089 N   0  0  0  0  0  0  0  0  0  0  0  0
  149.2007  141.2941  154.7084 C   0  0  0  0  0  0  0  0  0  0  0  0
  147.6957  140.7324  154.0019 S   0  0  0  0  0  0  0  0  0  0  0  0
  146.3222  136.7447  152.1860 N   0  0  0  0  0  0  0  0  0  0  0  0
  144.9962  136.2977  151.7664 C   0  0  2  0  0  0  0  0  0  0  0  0
  143.9954  136.2272  152.9364 C   0  0  0  0  0  0  0  0  0  0  0  0
  143.2330  134.9160  152.7206 C   0  0  0  0  0  0  0  0  0  0  0  0
  144.2410  134.0473  152.1019 N   0  3  1  0  0  0  0  0  0  0  0  0
  143.8014  132.7634  151.5185 C   0  0  0  0  0  0  0  0  0  0  0  0
  145.0529  131.9641  151.0960 C   0  0  0  0  0  0  0  0  0  0  0  0
  145.9939  132.7874  150.1878 C   0  0  0  0  0  0  0  0  0  0  0  0
  146.3131  134.1696  150.7973 C   0  0  0  0  0  0  0  0  0  0  0  0
  144.9928  134.8802  151.1476 C   0  0  2  0  0  0  0  0  0  0  0  0
  148.5229  137.3674  152.8363 H   0  0  0  0  0  0  0  0  0  0  0  0
  149.3460  142.2802  155.1242 H   0  0  0  0  0  0  0  0  0  0  0  0
  147.1001  136.1471  151.9445 H   0  0  0  0  0  0  0  0  0  0  0  0
  144.5999  136.9963  151.0269 H   0  0  0  0  0  0  0  0  0  0  0  0
  144.5273  136.1791  153.8883 H   0  0  0  0  0  0  0  0  0  0  0  0
  143.3327  137.0923  152.9751 H   0  0  0  0  0  0  0  0  0  0  0  0
  142.8448  134.4959  153.6487 H   0  0  0  0  0  0  0  0  0  0  0  0
  142.4007  135.0647  152.0309 H   0  0  0  0  0  0  0  0  0  0  0  0
  143.2268  132.2015  152.2556 H   0  0  0  0  0  0  0  0  0  0  0  0
  143.1468  132.9430  150.6643 H   0  0  0  0  0  0  0  0  0  0  0  0
  145.5999  131.6595  151.9893 H   0  0  0  0  0  0  0  0  0  0  0  0
  144.7565  131.0442  150.5909 H   0  0  0  0  0  0  0  0  0  0  0  0
  146.9168  132.2358  150.0065 H   0  0  0  0  0  0  0  0  0  0  0  0
  145.5219  132.9242  149.2141 H   0  0  0  0  0  0  0  0  0  0  0  0
  146.9309  134.0505  151.6887 H   0  0  0  0  0  0  0  0  0  0  0  0
  146.8900  134.7620  150.0865 H   0  0  0  0  0  0  0  0  0  0  0  0
  144.3979  134.9478  150.2341 H   0  0  0  0  0  0  0  0  0  0  0  0
  144.8894  133.8188  152.8419 H   0  0  0  0  0  0  0  0  0  0  0  0
  1  2  2  0  0  0  0
  2  3  1  0  0  0  0
  2  9  1  0  0  0  0
  3  4  1  0  0  0  0
  3 19  1  0  0  0  0
  4  8  1  0  0  0  0
  4  5  2  0  0  0  0
  5  6  1  0  0  0  0
  6  7  2  0  0  0  0
  7  8  1  0  0  0  0
  7 20  1  0  0  0  0
  9 10  1  0  0  0  0
  9 21  1  0  0  0  0
 10 18  1  0  0  0  0
 10 11  1  0  0  0  0
 10 22  1  0  0  0  0
 11 12  1  0  0  0  0
 11 23  1  0  0  0  0
 11 24  1  0  0  0  0
 12 13  1  0  0  0  0
 12 25  1  0  0  0  0
 12 26  1  0  0  0  0
 13 18  1  0  0  0  0
 13 14  1  0  0  0  0
 13 36  1  0  0  0  0
 14 15  1  0  0  0  0
 14 27  1  0  0  0  0
 14 28  1  0  0  0  0
 15 16  1  0  0  0  0
 15 29  1  0  0  0  0
 15 30  1  0  0  0  0
 16 17  1  0  0  0  0
 16 31  1  0  0  0  0
 16 32  1  0  0  0  0
 17 18  1  0  0  0  0
 17 33  1  0  0  0  0
 17 34  1  0  0  0  0
 18 35  1  0  0  0  0
M  CHG  1  13   1
M  END
> <s_m_source_file>
AV-unprocessed.smi

> <i_m_source_file_index>
1803

> <i_lp_mmshare_version>
43012

> <i_f3d_flags>
0

> <s_epik_input>
czFbY0hdbm5jMVtOSF1DKD1PKVtOSF1bQ0BIXShbQ0gyXVtDSDJdMilbQ0BASF0oTjIzKVtDSDJdW0NIMl1bQ0gyXVtDSDJdMw==

> <s_epik_cmdline>
J2VwaWtfcHl0aG9uJywgJy1waCcsICc3LjAnLCAnLXRuJywgJzgnLCAnLW1hJywgJzIwMCcsICctbWV0YWxfYmluZGluZycsICctaW1hZScsICc8aW5maWxlLm1hZT4nLCAnLW9tYWUnLCAnPG91dGZpbGUubWFlPic=

> <r_lp_tautomer_probability>
1

> <r_epik_Ionization_Penalty>
0.00213286

> <r_epik_Ionization_Penalty_Charging>
0.00107044

> <r_epik_Ionization_Penalty_Neutral>
0.00106242

> <r_epik_State_Penalty>
-0

> <r_epik_Charging_Adjusted_Penalty>
0.00107044

> <i_epik_Tot_Q>
1

> <i_epik_Tot_abs_Q>
1

> <r_epik_Metal_State_Penalty>
0.292783

> <b_epik_Metal_Only>
0

> <s_lp_Force_Field>
OPLS_2005

> <r_lp_Energy>
42.6799

> <b_lp_Chiralities_Consistent>
1

> <s_lp_Variant>
AV-unprocessed.smi:1803-5

> <Gold.Version>
5.8.1

> <Gold.Id.Protein>
6NUR|6NUR_protein|mol2

> <Gold.PLP.Fitness>
38.9418

> <Gold.PLP.PLP>
-27.8443

> <Gold.PLP.part.hbond>
-3.3328

> <Gold.PLP.part.metal>
0.0000

> <Gold.PLP.part.buried>
-2.5433

> <Gold.PLP.part.nonpolar>
-24.0346

> <Gold.PLP.part.repulsive>
3.0143

> <Gold.PLP.ligand.clash>
0.0000

> <Gold.PLP.ligand.torsion>
0.0655

> <Gold.PLP.Chemscore.Hbond>
2.7424

> <Gold.PLP.Chemscore.CHOScore>
1.0000

> <Gold.PLP.Chemscore.Metal>
0.0000

> <Gold.Chemscore.Hbonds>
donor molecule, donor type, donor heavy atom, donor atom, acceptor molecule, acceptor atom, score
      L1  H     3    19       P1  7948  1.00
      L1  H     9    21       P1  7948  0.80
      P1  H  7989  7998       L1     6  0.89
      L1  C     7    20       P1  8028  0.99

> <Gold.PLP.Chemscore.Internal.Correction>
0.0013

> <Gold.Rescore>
     Score         DG    S(hbond)    S(metal)    S(lipo)     H(rot)  DE(clash)    DE(int)     intcor
     13.08     -15.56       1.77        0.00      57.57       1.00       0.18       2.30       ----

> <Gold.Chemscore.Fitness>
13.0806

> <Gold.Chemscore.DG>
-15.5613

> <Gold.Chemscore.ZeroCoef>
-5.4800

> <Gold.Chemscore.Hbond>
1.7681

> <Gold.Chemscore.Metal>
0.0000

> <Gold.Chemscore.Lipo>
57.5721

> <Gold.Chemscore.Internal_Hbond>
0.0000

> <Gold.Chemscore.DEClash>
0.1847

> <Gold.Chemscore.DEInternal>
2.2960

> <Gold.Chemscore.Rot>
1.0000

> <Gold.Chemscore.Internal.Correction>
   9.000000E+99

> <Gold.Chemscore.Hbonds>
donor molecule, donor type, donor heavy atom, donor atom, acceptor molecule, acceptor atom, score
      L1  H     3    19       P1  7948  0.89
      L1  H     9    21       P1  7948  0.80
      P1  H  7989  7998       L1     6  0.14

> <Gold.Chemscore.Hbond.Weighted>
-5.9053

> <Gold.Chemscore.Metal.Weighted>
-0.0000

> <Gold.Chemscore.Lipo.Weighted>
-6.7359

> <Gold.Chemscore.Internal_Hbond.Weighted>
0.0000

> <Gold.Chemscore.DEClash.Weighted>
0.1847

> <Gold.Chemscore.DEInternal.Weighted>
2.2960

> <Gold.Chemscore.Rot.Weighted>
2.5600

> <Gold.Chemscore.Internal.Correction.Weighted>
   9.000000E+99

> <Gold.Protein.RotatedTorsions>
[ 6907 6896 6895 6894 ] final  128.50 input  -60.11 | X-H torsion
[ 7974 7965 7964 7962 ] final -160.35 input  175.53 | X-H torsion
[ 8008 7997 7996 7995 ] final -158.48 input   59.86 | X-H torsion
[ 10167 10162 10161 10158 ] final  -87.83 input  -65.29 | X-H torsion
[ 10718 10713 10712 10709 ] final -127.40 input   66.30 | X-H torsion
[ 10763 10752 10751 10750 ] final -152.26 input  -60.55 | X-H torsion
[ 11005 11000 10999 10996 ] final  -90.60 input  -57.11 | X-H torsion

> <Gold.Protein.ActiveResidues>
 VAL166  LYS551  ARG553  GLY616  TRP617  ASP618  TYR619  PRO620  LYS621  CYS622 
 ASP623  PHE694  ASN695  SER759  ASP760  ASP761  ALA762  ILE779  LEU786  VAL792 
 PHE793  MET794  SER795  GLU796  ALA797  LYS798  CYS799  TRP800  GLU811  SER814 

> <Gold.Protein.RotatedAtoms>
  152.3713  133.6423  159.6089 H   0  0  0  0  0  0  0  0  0  0  0  0  # atno 6907 bound_to 6896
  150.7671  133.9265  159.3423 H   0  0  0  0  0  0  0  0  0  0  0  0  # atno 6908 bound_to 6896
  151.7087  135.0918  160.0315 H   0  0  0  0  0  0  0  0  0  0  0  0  # atno 6909 bound_to 6896
  144.7430  140.3554  143.6107 H   0  0  0  0  0  0  0  0  0  0  0  0  # atno 7974 bound_to 7965
  155.7481  140.0823  157.2214 H   0  0  0  0  0  0  0  0  0  0  0  0  # atno 8008 bound_to 7997
  154.4015  140.1565  156.2749 H   0  0  0  0  0  0  0  0  0  0  0  0  # atno 8009 bound_to 7997
  155.8956  140.3413  155.5991 H   0  0  0  0  0  0  0  0  0  0  0  0  # atno 8010 bound_to 7997
  140.3806  143.2750  151.9388 H   0  0  0  0  0  0  0  0  0  0  0  0  # atno 10167 bound_to 10162
  156.1854  130.6759  151.0357 H   0  0  0  0  0  0  0  0  0  0  0  0  # atno 10718 bound_to 10713
  154.8005  135.3240  154.7561 H   0  0  0  0  0  0  0  0  0  0  0  0  # atno 10763 bound_to 10752
  153.8230  135.6886  153.4829 H   0  0  0  0  0  0  0  0  0  0  0  0  # atno 10764 bound_to 10752
  153.1720  135.4619  154.9858 H   0  0  0  0  0  0  0  0  0  0  0  0  # atno 10765 bound_to 10752
  141.1562  133.7702  156.9760 H   0  0  0  0  0  0  0  0  0  0  0  0  # atno 11005 bound_to 11000
  145.7232  139.1715  143.2472 LP  0  0  0  0  0  0  0  0  0  0  0  0  # atno 17320 bound_to 7965
  146.1261  140.7246  142.9434 LP  0  0  0  0  0  0  0  0  0  0  0  0  # atno 17321 bound_to 7965
  139.4796  144.5822  151.7913 LP  0  0  0  0  0  0  0  0  0  0  0  0  # atno 17342 bound_to 10162
  140.4941  144.1266  150.5956 LP  0  0  0  0  0  0  0  0  0  0  0  0  # atno 17343 bound_to 10162
  157.6895  131.0814  150.7148 LP  0  0  0  0  0  0  0  0  0  0  0  0  # atno 17370 bound_to 10713
  156.7205  130.4679  149.5524 LP  0  0  0  0  0  0  0  0  0  0  0  0  # atno 17371 bound_to 10713
  140.1097  134.9484  157.2047 LP  0  0  0  0  0  0  0  0  0  0  0  0  # atno 17394 bound_to 11000
  140.3210  134.2917  155.7246 LP  0  0  0  0  0  0  0  0  0  0  0  0  # atno 17395 bound_to 11000

$$$$
