AV-unprocessed.smi:335|AV-procd|sdf|2370|dock8
  -GOLD-   2262022283D 1   1.00000     0.00000
 Structure written by MMmdl.
 42 44  0  0  0  0  0  0  0  0  1 V2000
  144.4983  144.4857  153.5287 C   0  0  0  0  0  0  0  0  0  0  0  0
  145.2557  143.2963  153.6641 O   0  0  0  0  0  0  0  0  0  0  0  0
  145.5247  142.9758  155.0195 C   0  0  0  0  0  0  0  0  0  0  0  0
  145.8842  141.4851  155.1336 C   0  0  0  0  0  0  0  0  0  0  0  0
  147.3280  141.2823  155.2996 N   0  0  0  0  0  0  0  0  0  0  0  0
  147.8237  141.7253  156.5145 N   0  0  0  0  0  0  0  0  0  0  0  0
  149.0780  141.5808  156.7976 C   0  0  0  0  0  0  0  0  0  0  0  0
  149.6491  142.0406  158.0936 C   0  0  0  0  0  0  0  0  0  0  0  0
  148.9313  142.3580  159.0436 O   0  0  0  0  0  0  0  0  0  0  0  0
  150.9931  142.0827  158.1450 N   0  0  0  0  0  0  0  0  0  0  0  0
  151.7931  142.5044  159.2895 C   0  0  0  0  0  0  0  0  0  0  0  0
  151.8459  144.0163  159.4279 C   0  0  0  0  0  0  0  0  0  0  0  0
  150.7894  144.9019  158.8105 C   0  0  0  0  0  0  0  0  0  0  0  0
  152.1952  144.9002  158.2544 C   0  0  0  0  0  0  0  0  0  0  0  0
  153.1963  141.9295  159.2314 C   0  0  0  0  0  0  0  0  0  0  0  0
  153.5096  140.5772  159.8260 C   0  0  0  0  0  0  0  0  0  0  0  0
  154.0587  141.8319  160.4676 C   0  0  0  0  0  0  0  0  0  0  0  0
  149.9873  140.9586  155.8499 C   0  0  0  0  0  0  0  0  0  0  0  0
  149.4911  140.5394  154.6652 C   0  0  0  0  0  0  0  0  0  0  0  0
  148.0767  140.6904  154.3206 C   0  0  0  0  0  0  0  0  0  0  0  0
  147.6011  140.3149  153.2494 O   0  0  0  0  0  0  0  0  0  0  0  0
  144.3156  144.6861  152.4730 H   0  0  0  0  0  0  0  0  0  0  0  0
  145.0312  145.3414  153.9453 H   0  0  0  0  0  0  0  0  0  0  0  0
  143.5321  144.3974  154.0272 H   0  0  0  0  0  0  0  0  0  0  0  0
  146.3334  143.5980  155.4059 H   0  0  0  0  0  0  0  0  0  0  0  0
  144.6411  143.1845  155.6242 H   0  0  0  0  0  0  0  0  0  0  0  0
  145.3493  141.0413  155.9748 H   0  0  0  0  0  0  0  0  0  0  0  0
  145.5236  140.9546  154.2504 H   0  0  0  0  0  0  0  0  0  0  0  0
  151.5006  141.8054  157.3169 H   0  0  0  0  0  0  0  0  0  0  0  0
  151.3308  142.1085  160.1961 H   0  0  0  0  0  0  0  0  0  0  0  0
  152.2251  144.3468  160.3934 H   0  0  0  0  0  0  0  0  0  0  0  0
  150.0153  144.4321  158.2071 H   0  0  0  0  0  0  0  0  0  0  0  0
  150.4731  145.7750  159.3773 H   0  0  0  0  0  0  0  0  0  0  0  0
  152.8180  145.7700  158.4521 H   0  0  0  0  0  0  0  0  0  0  0  0
  152.3504  144.4253  157.2877 H   0  0  0  0  0  0  0  0  0  0  0  0
  153.7243  142.1709  158.3104 H   0  0  0  0  0  0  0  0  0  0  0  0
  152.7097  140.0553  160.3480 H   0  0  0  0  0  0  0  0  0  0  0  0
  154.2069  139.9405  159.2855 H   0  0  0  0  0  0  0  0  0  0  0  0
  155.1221  142.0325  160.3545 H   0  0  0  0  0  0  0  0  0  0  0  0
  153.6261  142.1346  161.4191 H   0  0  0  0  0  0  0  0  0  0  0  0
  151.0359  140.8336  156.0778 H   0  0  0  0  0  0  0  0  0  0  0  0
  150.1562  140.0774  153.9503 H   0  0  0  0  0  0  0  0  0  0  0  0
  1  2  1  0  0  0  0
  1 22  1  0  0  0  0
  1 23  1  0  0  0  0
  1 24  1  0  0  0  0
  2  3  1  0  0  0  0
  3  4  1  0  0  0  0
  3 25  1  0  0  0  0
  3 26  1  0  0  0  0
  4  5  1  0  0  0  0
  4 27  1  0  0  0  0
  4 28  1  0  0  0  0
  5 20  1  0  0  0  0
  5  6  1  0  0  0  0
  6  7  2  0  0  0  0
  7  8  1  0  0  0  0
  7 18  1  0  0  0  0
  8  9  2  0  0  0  0
  8 10  1  0  0  0  0
 10 11  1  0  0  0  0
 10 29  1  0  0  0  0
 11 12  1  0  0  0  0
 11 15  1  0  0  0  0
 11 30  1  0  0  0  0
 12 14  1  0  0  0  0
 12 13  1  0  0  0  0
 12 31  1  0  0  0  0
 13 14  1  0  0  0  0
 13 32  1  0  0  0  0
 13 33  1  0  0  0  0
 14 34  1  0  0  0  0
 14 35  1  0  0  0  0
 15 17  1  0  0  0  0
 15 16  1  0  0  0  0
 15 36  1  0  0  0  0
 16 17  1  0  0  0  0
 16 37  1  0  0  0  0
 16 38  1  0  0  0  0
 17 39  1  0  0  0  0
 17 40  1  0  0  0  0
 18 19  2  0  0  0  0
 18 41  1  0  0  0  0
 19 20  1  0  0  0  0
 19 42  1  0  0  0  0
 20 21  2  0  0  0  0
M  END
> <s_m_source_file>
AV-unprocessed.smi

> <i_m_source_file_index>
335

> <i_lp_mmshare_version>
43012

> <i_f3d_flags>
0

> <s_epik_input>
W0NIM11PW0NIMl1bQ0gyXW4xbmMoW2NIXVtjSF1jMT1PKUMoPU8pW05IXVtDSF0oW0NIXTJbQ0gyXVtDSDJdMilbQ0hdM1tDSDJdW0NIMl0z

> <s_epik_cmdline>
J2VwaWtfcHl0aG9uJywgJy1waCcsICc3LjAnLCAnLXRuJywgJzgnLCAnLW1hJywgJzIwMCcsICctbWV0YWxfYmluZGluZycsICctaW1hZScsICc8aW5maWxlLm1hZT4nLCAnLW9tYWUnLCAnPG91dGZpbGUubWFlPic=

> <r_lp_tautomer_probability>
1

> <r_epik_Ionization_Penalty>
5.73468e-07

> <r_epik_Ionization_Penalty_Charging>
6.67133e-09

> <r_epik_Ionization_Penalty_Neutral>
5.66797e-07

> <r_epik_State_Penalty>
-0

> <r_epik_Charging_Adjusted_Penalty>
6.67133e-09

> <i_epik_Tot_Q>
0

> <i_epik_Tot_abs_Q>
0

> <r_epik_Metal_State_Penalty>
-0

> <b_epik_Metal_Only>
0

> <s_lp_Force_Field>
OPLS_2005

> <r_lp_Energy>
44.174

> <b_lp_Chiralities_Consistent>
1

> <s_lp_Variant>
AV-unprocessed.smi:335-1

> <Gold.Version>
5.8.1

> <Gold.Id.Protein>
6NUR|6NUR_protein|mol2

> <Gold.PLP.Fitness>
42.9410

> <Gold.PLP.PLP>
-44.7911

> <Gold.PLP.part.hbond>
-0.9904

> <Gold.PLP.part.metal>
0.0000

> <Gold.PLP.part.buried>
-7.3628

> <Gold.PLP.part.nonpolar>
-39.4651

> <Gold.PLP.part.repulsive>
3.4964

> <Gold.PLP.ligand.clash>
0.1321

> <Gold.PLP.ligand.torsion>
1.9327

> <Gold.PLP.Chemscore.Hbond>
0.0000

> <Gold.PLP.Chemscore.CHOScore>
0.0000

> <Gold.PLP.Chemscore.Metal>
0.0000

> <Gold.Chemscore.Hbonds>
donor molecule, donor type, donor heavy atom, donor atom, acceptor molecule, acceptor atom, score
      P1  H  6933  6944       L1     9  0.01

> <Gold.PLP.Chemscore.Internal.Correction>
2.1475

> <Gold.Rescore>
     Score         DG    S(hbond)    S(metal)    S(lipo)     H(rot)  DE(clash)    DE(int)     intcor
     12.22     -14.15       0.08        0.00     112.09       1.85       0.03       1.90       ----

> <Gold.Chemscore.Fitness>
12.2247

> <Gold.Chemscore.DG>
-14.1525

> <Gold.Chemscore.ZeroCoef>
-5.4800

> <Gold.Chemscore.Hbond>
0.0847

> <Gold.Chemscore.Metal>
0.0000

> <Gold.Chemscore.Lipo>
112.0931

> <Gold.Chemscore.Internal_Hbond>
0.0000

> <Gold.Chemscore.DEClash>
0.0310

> <Gold.Chemscore.DEInternal>
1.8968

> <Gold.Chemscore.Rot>
1.8458

> <Gold.Chemscore.Internal.Correction>
   9.000000E+99

> <Gold.Chemscore.Hbonds>
donor molecule, donor type, donor heavy atom, donor atom, acceptor molecule, acceptor atom, score
      P1  H  6933  6944       L1     9  0.01

> <Gold.Chemscore.Hbond.Weighted>
-0.2828

> <Gold.Chemscore.Metal.Weighted>
-0.0000

> <Gold.Chemscore.Lipo.Weighted>
-13.1149

> <Gold.Chemscore.Internal_Hbond.Weighted>
0.0000

> <Gold.Chemscore.DEClash.Weighted>
0.0310

> <Gold.Chemscore.DEInternal.Weighted>
1.8968

> <Gold.Chemscore.Rot.Weighted>
4.7252

> <Gold.Chemscore.Internal.Correction.Weighted>
   9.000000E+99

> <Gold.Protein.RotatedTorsions>
[ 6907 6896 6895 6894 ] final  -77.94 input  -60.11 | X-H torsion
[ 7974 7965 7964 7962 ] final   94.54 input  175.53 | X-H torsion
[ 8008 7997 7996 7995 ] final   70.76 input   59.86 | X-H torsion
[ 10167 10162 10161 10158 ] final   81.97 input  -65.29 | X-H torsion
[ 10718 10713 10712 10709 ] final -157.70 input   66.30 | X-H torsion
[ 10763 10752 10751 10750 ] final -120.45 input  -60.55 | X-H torsion
[ 11005 11000 10999 10996 ] final   10.34 input  -57.11 | X-H torsion

> <Gold.Protein.ActiveResidues>
 VAL166  LYS551  ARG553  GLY616  TRP617  ASP618  TYR619  PRO620  LYS621  CYS622 
 ASP623  PHE694  ASN695  SER759  ASP760  ASP761  ALA762  ILE779  LEU786  VAL792 
 PHE793  MET794  SER795  GLU796  ALA797  LYS798  CYS799  TRP800  GLU811  SER814 

> <Gold.Protein.RotatedAtoms>
  150.6985  134.4346  159.5264 H   0  0  0  0  0  0  0  0  0  0  0  0  # atno 6907 bound_to 6896
  152.2067  134.8536  160.0511 H   0  0  0  0  0  0  0  0  0  0  0  0  # atno 6908 bound_to 6896
  151.9436  133.3610  159.4011 H   0  0  0  0  0  0  0  0  0  0  0  0  # atno 6909 bound_to 6896
  145.4642  139.2285  143.2971 H   0  0  0  0  0  0  0  0  0  0  0  0  # atno 7974 bound_to 7965
  155.7437  140.3490  155.5116 H   0  0  0  0  0  0  0  0  0  0  0  0  # atno 8008 bound_to 7997
  155.9070  140.1044  157.1329 H   0  0  0  0  0  0  0  0  0  0  0  0  # atno 8009 bound_to 7997
  154.4051  140.1275  156.4496 H   0  0  0  0  0  0  0  0  0  0  0  0  # atno 8010 bound_to 7997
  139.9336  144.6135  150.8320 H   0  0  0  0  0  0  0  0  0  0  0  0  # atno 10167 bound_to 10162
  156.5439  130.8575  151.2758 H   0  0  0  0  0  0  0  0  0  0  0  0  # atno 10718 bound_to 10713
  154.8644  135.4202  154.2461 H   0  0  0  0  0  0  0  0  0  0  0  0  # atno 10763 bound_to 10752
  153.3417  135.6994  153.6867 H   0  0  0  0  0  0  0  0  0  0  0  0  # atno 10764 bound_to 10752
  153.5843  135.3567  155.2860 H   0  0  0  0  0  0  0  0  0  0  0  0  # atno 10765 bound_to 10752
  140.5156  134.0609  155.7830 H   0  0  0  0  0  0  0  0  0  0  0  0  # atno 11005 bound_to 11000
  146.2434  140.5414  142.8924 LP  0  0  0  0  0  0  0  0  0  0  0  0  # atno 17320 bound_to 7965
  144.7984  140.6167  143.6494 LP  0  0  0  0  0  0  0  0  0  0  0  0  # atno 17321 bound_to 7965
  140.7630  143.3213  151.2616 LP  0  0  0  0  0  0  0  0  0  0  0  0  # atno 17342 bound_to 10162
  139.6761  143.9934  152.2782 LP  0  0  0  0  0  0  0  0  0  0  0  0  # atno 17343 bound_to 10162
  157.7400  130.9842  150.2350 LP  0  0  0  0  0  0  0  0  0  0  0  0  # atno 17370 bound_to 10713
  156.2946  130.3750  149.7809 LP  0  0  0  0  0  0  0  0  0  0  0  0  # atno 17371 bound_to 10713
  141.1362  133.9217  157.2428 LP  0  0  0  0  0  0  0  0  0  0  0  0  # atno 17394 bound_to 11000
  139.9634  135.0148  156.9323 LP  0  0  0  0  0  0  0  0  0  0  0  0  # atno 17395 bound_to 11000

$$$$
