AV-unprocessed.smi:2668|AV-procd|sdf|10339|dock9
  -GOLD-   2272014363D 1   1.00000     0.00000
 Structure written by MMmdl.
 54 55  0  0  0  0  0  0  0  0  3 V2000
  149.7921  134.1272  154.6378 C   0  0  0  0  0  0  0  0  0  0  0  0
  148.8945  135.3031  154.7596 N   0  3  0  0  0  0  0  0  0  0  0  0
  147.4963  134.8572  154.9811 C   0  0  0  0  0  0  0  0  0  0  0  0
  149.3664  136.3205  155.7560 C   0  0  2  0  0  0  0  0  0  0  0  0
  148.2153  137.0518  156.4813 C   0  0  0  0  0  0  0  0  0  0  0  0
  147.4286  137.9820  155.5386 C   0  0  0  0  0  0  0  0  0  0  0  0
  148.3189  138.9993  154.9012 N   0  3  2  0  0  0  0  0  0  0  0  0
  147.6184  140.0774  154.1098 C   0  0  0  0  0  0  0  0  0  0  0  0
  146.9467  139.5055  152.8393 C   0  0  0  0  0  0  0  0  0  0  0  0
  146.5124  140.7502  154.9606 C   0  0  0  0  0  0  0  0  0  0  0  0
  148.6185  141.1919  153.6761 C   0  0  0  0  0  0  0  0  0  0  0  0
  149.0929  142.0272  154.7809 N   0  0  0  0  0  0  0  0  0  0  0  0
  150.0329  141.6810  155.6723 C   0  0  0  0  0  0  0  0  0  0  0  0
  150.6343  140.6085  155.6409 O   0  0  0  0  0  0  0  0  0  0  0  0
  150.2073  142.6445  156.5929 N   0  0  0  0  0  0  0  0  0  0  0  0
  151.1174  142.6677  157.6841 C   0  0  0  0  0  0  0  0  0  0  0  0
  151.6066  143.9198  158.1108 C   0  0  0  0  0  0  0  0  0  0  0  0
  152.5234  143.9716  159.1780 C   0  0  0  0  0  0  0  0  0  0  0  0
  152.9248  142.7610  159.7750 C   0  0  0  0  0  0  0  0  0  0  0  0
  152.4794  141.5533  159.3695 N   0  0  0  0  0  0  0  0  0  0  0  0
  151.5982  141.5107  158.3471 C   0  0  0  0  0  0  0  0  0  0  0  0
  149.4568  138.3386  154.1935 C   0  0  0  0  0  0  0  0  0  0  0  0
  150.2548  137.4232  155.1388 C   0  0  0  0  0  0  0  0  0  0  0  0
  149.9534  133.6541  155.6074 H   0  0  0  0  0  0  0  0  0  0  0  0
  150.7587  134.3983  154.2158 H   0  0  0  0  0  0  0  0  0  0  0  0
  149.3691  133.3794  153.9658 H   0  0  0  0  0  0  0  0  0  0  0  0
  147.3625  134.4732  155.9933 H   0  0  0  0  0  0  0  0  0  0  0  0
  147.2228  134.0654  154.2827 H   0  0  0  0  0  0  0  0  0  0  0  0
  146.7833  135.6635  154.8161 H   0  0  0  0  0  0  0  0  0  0  0  0
  149.9561  135.7864  156.5029 H   0  0  0  0  0  0  0  0  0  0  0  0
  147.5426  136.3596  156.9851 H   0  0  0  0  0  0  0  0  0  0  0  0
  148.6371  137.6563  157.2859 H   0  0  0  0  0  0  0  0  0  0  0  0
  146.9205  137.3941  154.7741 H   0  0  0  0  0  0  0  0  0  0  0  0
  146.6550  138.4556  156.1397 H   0  0  0  0  0  0  0  0  0  0  0  0
  146.4186  140.2893  152.2947 H   0  0  0  0  0  0  0  0  0  0  0  0
  146.2127  138.7345  153.0733 H   0  0  0  0  0  0  0  0  0  0  0  0
  147.6687  139.0764  152.1448 H   0  0  0  0  0  0  0  0  0  0  0  0
  146.1343  141.6520  154.4774 H   0  0  0  0  0  0  0  0  0  0  0  0
  146.8771  141.0390  155.9468 H   0  0  0  0  0  0  0  0  0  0  0  0
  145.6468  140.1031  155.1023 H   0  0  0  0  0  0  0  0  0  0  0  0
  149.4995  140.7538  153.2074 H   0  0  0  0  0  0  0  0  0  0  0  0
  148.1817  141.8138  152.8925 H   0  0  0  0  0  0  0  0  0  0  0  0
  148.6394  142.9210  154.9017 H   0  0  0  0  0  0  0  0  0  0  0  0
  149.5756  143.4303  156.5422 H   0  0  0  0  0  0  0  0  0  0  0  0
  151.2818  144.8318  157.6315 H   0  0  0  0  0  0  0  0  0  0  0  0
  152.9099  144.9164  159.5306 H   0  0  0  0  0  0  0  0  0  0  0  0
  153.6266  142.7626  160.5957 H   0  0  0  0  0  0  0  0  0  0  0  0
  151.2995  140.5167  158.0533 H   0  0  0  0  0  0  0  0  0  0  0  0
  149.0879  137.7568  153.3486 H   0  0  0  0  0  0  0  0  0  0  0  0
  150.1486  139.0742  153.7887 H   0  0  0  0  0  0  0  0  0  0  0  0
  150.6703  138.0334  155.9424 H   0  0  0  0  0  0  0  0  0  0  0  0
  151.1250  137.0115  154.6299 H   0  0  0  0  0  0  0  0  0  0  0  0
  148.9021  135.7516  153.8548 H   0  0  0  0  0  0  0  0  0  0  0  0
  148.7386  139.4956  155.6748 H   0  0  0  0  0  0  0  0  0  0  0  0
  1  2  1  0  0  0  0
  1 24  1  0  0  0  0
  1 25  1  0  0  0  0
  1 26  1  0  0  0  0
  2  3  1  0  0  0  0
  2  4  1  0  0  0  0
  2 53  1  0  0  0  0
  3 27  1  0  0  0  0
  3 28  1  0  0  0  0
  3 29  1  0  0  0  0
  4 23  1  0  0  0  0
  4  5  1  0  0  0  0
  4 30  1  0  0  0  0
  5  6  1  0  0  0  0
  5 31  1  0  0  0  0
  5 32  1  0  0  0  0
  6  7  1  0  0  0  0
  6 33  1  0  0  0  0
  6 34  1  0  0  0  0
  7  8  1  0  0  0  0
  7 22  1  0  0  0  0
  7 54  1  0  0  0  0
  8  9  1  0  0  0  0
  8 10  1  0  0  0  0
  8 11  1  0  0  0  0
  9 35  1  0  0  0  0
  9 36  1  0  0  0  0
  9 37  1  0  0  0  0
 10 38  1  0  0  0  0
 10 39  1  0  0  0  0
 10 40  1  0  0  0  0
 11 12  1  0  0  0  0
 11 41  1  0  0  0  0
 11 42  1  0  0  0  0
 12 13  1  0  0  0  0
 12 43  1  0  0  0  0
 13 14  2  0  0  0  0
 13 15  1  0  0  0  0
 15 16  1  0  0  0  0
 15 44  1  0  0  0  0
 16 21  1  0  0  0  0
 16 17  2  0  0  0  0
 17 18  1  0  0  0  0
 17 45  1  0  0  0  0
 18 19  2  0  0  0  0
 18 46  1  0  0  0  0
 19 20  1  0  0  0  0
 19 47  1  0  0  0  0
 20 21  2  0  0  0  0
 21 48  1  0  0  0  0
 22 23  1  0  0  0  0
 22 49  1  0  0  0  0
 22 50  1  0  0  0  0
 23 51  1  0  0  0  0
 23 52  1  0  0  0  0
M  CHG  1   2   1
M  CHG  1   7   1
M  END
> <s_m_source_file>
AV-unprocessed.smi

> <i_m_source_file_index>
2668

> <i_lp_mmshare_version>
43012

> <i_f3d_flags>
0

> <s_epik_input>
W0NIM11OKFtDSDNdKVtDSF0xW0NIMl1bQ0gyXU4oW0NIMl1bQ0gyXTEpQyhbQ0gzXSkoW0NIM10pW0NIMl1bTkhdQyg9TylbTkhdYzJbY0hdW2NIXVtjSF1uW2NIXTI=

> <s_epik_cmdline>
J2VwaWtfcHl0aG9uJywgJy1waCcsICc3LjAnLCAnLXRuJywgJzgnLCAnLW1hJywgJzIwMCcsICctbWV0YWxfYmluZGluZycsICctaW1hZScsICc8aW5maWxlLm1hZT4nLCAnLW9tYWUnLCAnPG91dGZpbGUubWFlPic=

> <r_epik_Ionization_Penalty>
0.210461

> <r_epik_Ionization_Penalty_Charging>
0.206231

> <r_epik_Ionization_Penalty_Neutral>
0.00422959

> <r_epik_State_Penalty>
0.176025

> <r_epik_Charging_Adjusted_Penalty>
0.382256

> <i_epik_Tot_Q>
2

> <i_epik_Tot_abs_Q>
2

> <r_epik_Metal_State_Penalty>
0.176152

> <b_epik_Metal_Only>
0

> <s_lp_Force_Field>
OPLS_2005

> <r_lp_Energy>
56.664

> <b_lp_Chiralities_Consistent>
1

> <s_lp_Variant>
AV-unprocessed.smi:2668-2

> <Gold.Version>
5.8.1

> <Gold.Id.Protein>
6NUR|6NUR_protein|mol2

> <Gold.PLP.Fitness>
47.0191

> <Gold.PLP.PLP>
-36.2782

> <Gold.PLP.part.hbond>
-3.8909

> <Gold.PLP.part.metal>
0.0000

> <Gold.PLP.part.buried>
-2.0652

> <Gold.PLP.part.nonpolar>
-30.7020

> <Gold.PLP.part.repulsive>
0.4053

> <Gold.PLP.ligand.clash>
0.0000

> <Gold.PLP.ligand.torsion>
1.4251

> <Gold.PLP.Chemscore.Hbond>
4.4820

> <Gold.PLP.Chemscore.CHOScore>
0.0000

> <Gold.PLP.Chemscore.Metal>
0.0000

> <Gold.Chemscore.Hbonds>
donor molecule, donor type, donor heavy atom, donor atom, acceptor molecule, acceptor atom, score
      L1  H     2    53       P1  7948  2.00
      L1  H    12    43       P1  8028  0.88
      L1  H    15    44       P1  8028  1.00
      P1  H  7989  7998       L1    14  0.11

> <Gold.PLP.Chemscore.Internal.Correction>
0.1451

> <Gold.Rescore>
     Score         DG    S(hbond)    S(metal)    S(lipo)     H(rot)  DE(clash)    DE(int)     intcor
     18.18     -23.50       2.97        0.00     106.21       1.69       0.87       4.44       ----

> <Gold.Chemscore.Fitness>
18.1808

> <Gold.Chemscore.DG>
-23.4969

> <Gold.Chemscore.ZeroCoef>
-5.4800

> <Gold.Chemscore.Hbond>
2.9674

> <Gold.Chemscore.Metal>
0.0000

> <Gold.Chemscore.Lipo>
106.2081

> <Gold.Chemscore.Internal_Hbond>
0.0000

> <Gold.Chemscore.DEClash>
0.8738

> <Gold.Chemscore.DEInternal>
4.4423

> <Gold.Chemscore.Rot>
1.6877

> <Gold.Chemscore.Internal.Correction>
   9.000000E+99

> <Gold.Chemscore.Hbonds>
donor molecule, donor type, donor heavy atom, donor atom, acceptor molecule, acceptor atom, score
      L1  H     2    53       P1  7948  0.88
      L1  H    12    43       P1  8028  0.86
      L1  H    15    44       P1  8028  0.95
      P1  H  7989  7998       L1    14  0.02

> <Gold.Chemscore.Hbond.Weighted>
-9.9111

> <Gold.Chemscore.Metal.Weighted>
-0.0000

> <Gold.Chemscore.Lipo.Weighted>
-12.4263

> <Gold.Chemscore.Internal_Hbond.Weighted>
0.0000

> <Gold.Chemscore.DEClash.Weighted>
0.8738

> <Gold.Chemscore.DEInternal.Weighted>
4.4423

> <Gold.Chemscore.Rot.Weighted>
4.3205

> <Gold.Chemscore.Internal.Correction.Weighted>
   9.000000E+99

> <Gold.Protein.RotatedTorsions>
[ 6907 6896 6895 6894 ] final  126.03 input  -60.11 | X-H torsion
[ 7974 7965 7964 7962 ] final -163.35 input  175.53 | X-H torsion
[ 8008 7997 7996 7995 ] final  102.90 input   59.86 | X-H torsion
[ 10167 10162 10161 10158 ] final  111.53 input  -65.29 | X-H torsion
[ 10718 10713 10712 10709 ] final -168.80 input   66.30 | X-H torsion
[ 10763 10752 10751 10750 ] final  105.56 input  -60.55 | X-H torsion
[ 11005 11000 10999 10996 ] final -135.99 input  -57.11 | X-H torsion

> <Gold.Protein.ActiveResidues>
 VAL166  LYS551  ARG553  GLY616  TRP617  ASP618  TYR619  PRO620  LYS621  CYS622 
 ASP623  PHE694  ASN695  SER759  ASP760  ASP761  ALA762  ILE779  LEU786  VAL792 
 PHE793  MET794  SER795  GLU796  ALA797  LYS798  CYS799  TRP800  GLU811  SER814 

> <Gold.Protein.RotatedAtoms>
  152.3940  133.6720  159.6260 H   0  0  0  0  0  0  0  0  0  0  0  0  # atno 6907 bound_to 6896
  150.7843  133.8906  159.3321 H   0  0  0  0  0  0  0  0  0  0  0  0  # atno 6908 bound_to 6896
  151.6686  135.0981  160.0245 H   0  0  0  0  0  0  0  0  0  0  0  0  # atno 6909 bound_to 6896
  144.7329  140.3120  143.6186 H   0  0  0  0  0  0  0  0  0  0  0  0  # atno 7974 bound_to 7965
  156.1435  140.3173  155.8533 H   0  0  0  0  0  0  0  0  0  0  0  0  # atno 8008 bound_to 7997
  155.4108  140.0506  157.3049 H   0  0  0  0  0  0  0  0  0  0  0  0  # atno 8009 bound_to 7997
  154.4996  140.2124  155.9385 H   0  0  0  0  0  0  0  0  0  0  0  0  # atno 8010 bound_to 7997
  139.6604  144.7129  151.1876 H   0  0  0  0  0  0  0  0  0  0  0  0  # atno 10167 bound_to 10162
  156.7023  130.9201  151.3081 H   0  0  0  0  0  0  0  0  0  0  0  0  # atno 10718 bound_to 10713
  153.3810  135.3906  155.1857 H   0  0  0  0  0  0  0  0  0  0  0  0  # atno 10763 bound_to 10752
  154.8707  135.3725  154.4857 H   0  0  0  0  0  0  0  0  0  0  0  0  # atno 10764 bound_to 10752
  153.5334  135.7085  153.5733 H   0  0  0  0  0  0  0  0  0  0  0  0  # atno 10765 bound_to 10752
  140.8847  134.1888  157.4568 H   0  0  0  0  0  0  0  0  0  0  0  0  # atno 11005 bound_to 11000
  145.7655  139.1839  143.2242 LP  0  0  0  0  0  0  0  0  0  0  0  0  # atno 17320 bound_to 7965
  146.0952  140.7609  142.9576 LP  0  0  0  0  0  0  0  0  0  0  0  0  # atno 17321 bound_to 7965
  140.7577  143.6003  150.8706 LP  0  0  0  0  0  0  0  0  0  0  0  0  # atno 17342 bound_to 10162
  139.9660  143.6110  152.2988 LP  0  0  0  0  0  0  0  0  0  0  0  0  # atno 17343 bound_to 10162
  157.6968  130.9290  150.0668 LP  0  0  0  0  0  0  0  0  0  0  0  0  # atno 17370 bound_to 10713
  156.1720  130.3647  149.9152 LP  0  0  0  0  0  0  0  0  0  0  0  0  # atno 17371 bound_to 10713
  139.8723  134.9832  156.5190 LP  0  0  0  0  0  0  0  0  0  0  0  0  # atno 17394 bound_to 11000
  140.8419  133.8198  155.9084 LP  0  0  0  0  0  0  0  0  0  0  0  0  # atno 17395 bound_to 11000

$$$$
