AV-unprocessed.smi:1384|AV-procd|sdf|5627|dock3
  -GOLD-   22720 5243D 1   1.00000     0.00000
 Structure written by MMmdl.
 41 42  0  0  0  0  0  0  0  0  1 V2000
  151.3822  141.6005  157.8468 C   0  0  0  0  0  0  0  0  0  0  0  0
  151.1882  141.0484  156.4272 C   0  0  2  0  0  0  0  0  0  0  0  0
  149.7130  140.6931  156.1602 C   0  0  0  0  0  0  0  0  0  0  0  0
  149.5101  140.1336  154.7406 C   0  0  0  0  0  0  0  0  0  0  0  0
  150.4185  138.9225  154.4551 C   0  0  2  0  0  0  0  0  0  0  0  0
  149.9724  137.7642  155.2279 N   0  0  0  0  0  0  0  0  0  0  0  0
  150.4746  136.5236  155.1350 C   0  0  0  0  0  0  0  0  0  0  0  0
  151.3967  136.2243  154.3749 O   0  0  0  0  0  0  0  0  0  0  0  0
  149.8387  135.4759  156.0603 C   0  0  0  0  0  0  0  0  0  0  0  0
  149.8481  134.1127  155.5014 N   0  0  0  0  0  0  0  0  0  0  0  0
  149.0389  133.8833  154.3744 C   0  0  0  0  0  0  0  0  0  0  0  0
  148.9715  132.6809  153.7871 C   0  0  0  0  0  0  0  0  0  0  0  0
  149.7589  131.6065  154.3408 C   0  0  0  0  0  0  0  0  0  0  0  0
  150.5416  131.7949  155.4285 C   0  0  0  0  0  0  0  0  0  0  0  0
  151.3849  130.6695  156.0241 C   0  0  0  0  0  0  0  0  0  0  0  0
  152.6674  131.0286  156.0937 F   0  0  0  0  0  0  0  0  0  0  0  0
  150.9671  130.3749  157.2557 F   0  0  0  0  0  0  0  0  0  0  0  0
  151.3135  129.5567  155.2919 F   0  0  0  0  0  0  0  0  0  0  0  0
  150.6049  133.1240  156.0707 C   0  0  0  0  0  0  0  0  0  0  0  0
  151.2973  133.3429  157.0663 O   0  0  0  0  0  0  0  0  0  0  0  0
  151.8946  139.2660  154.7488 C   0  0  0  0  0  0  0  0  0  0  0  0
  152.0917  139.8277  156.1681 C   0  0  0  0  0  0  0  0  0  0  0  0
  151.1067  140.8620  158.6004 H   0  0  0  0  0  0  0  0  0  0  0  0
  150.7692  142.4872  158.0101 H   0  0  0  0  0  0  0  0  0  0  0  0
  152.4212  141.8822  158.0206 H   0  0  0  0  0  0  0  0  0  0  0  0
  151.4768  141.8341  155.7272 H   0  0  0  0  0  0  0  0  0  0  0  0
  149.3710  139.9629  156.8946 H   0  0  0  0  0  0  0  0  0  0  0  0
  149.0880  141.5765  156.2946 H   0  0  0  0  0  0  0  0  0  0  0  0
  148.4637  139.8652  154.5908 H   0  0  0  0  0  0  0  0  0  0  0  0
  149.7267  140.9197  154.0160 H   0  0  0  0  0  0  0  0  0  0  0  0
  150.3224  138.6768  153.3959 H   0  0  0  0  0  0  0  0  0  0  0  0
  149.2210  137.9212  155.8839 H   0  0  0  0  0  0  0  0  0  0  0  0
  150.3672  135.5003  157.0145 H   0  0  0  0  0  0  0  0  0  0  0  0
  148.8169  135.7796  156.2956 H   0  0  0  0  0  0  0  0  0  0  0  0
  148.4762  134.7382  154.0277 H   0  0  0  0  0  0  0  0  0  0  0  0
  148.3416  132.5196  152.9249 H   0  0  0  0  0  0  0  0  0  0  0  0
  149.7102  130.6383  153.8653 H   0  0  0  0  0  0  0  0  0  0  0  0
  152.5287  138.3910  154.6025 H   0  0  0  0  0  0  0  0  0  0  0  0
  152.2367  140.0066  154.0248 H   0  0  0  0  0  0  0  0  0  0  0  0
  153.1378  140.1034  156.3063 H   0  0  0  0  0  0  0  0  0  0  0  0
  151.8816  139.0489  156.9024 H   0  0  0  0  0  0  0  0  0  0  0  0
  1  2  1  0  0  0  0
  1 23  1  0  0  0  0
  1 24  1  0  0  0  0
  1 25  1  0  0  0  0
  2 22  1  0  0  0  0
  2  3  1  0  0  0  0
  2 26  1  0  0  0  0
  3  4  1  0  0  0  0
  3 27  1  0  0  0  0
  3 28  1  0  0  0  0
  4  5  1  0  0  0  0
  4 29  1  0  0  0  0
  4 30  1  0  0  0  0
  5  6  1  0  0  0  0
  5 21  1  0  0  0  0
  5 31  1  0  0  0  0
  6  7  1  0  0  0  0
  6 32  1  0  0  0  0
  7  8  2  0  0  0  0
  7  9  1  0  0  0  0
  9 10  1  0  0  0  0
  9 33  1  0  0  0  0
  9 34  1  0  0  0  0
 10 19  1  0  0  0  0
 10 11  1  0  0  0  0
 11 12  2  0  0  0  0
 11 35  1  0  0  0  0
 12 13  1  0  0  0  0
 12 36  1  0  0  0  0
 13 14  2  0  0  0  0
 13 37  1  0  0  0  0
 14 15  1  0  0  0  0
 14 19  1  0  0  0  0
 15 16  1  0  0  0  0
 15 17  1  0  0  0  0
 15 18  1  0  0  0  0
 19 20  2  0  0  0  0
 21 22  1  0  0  0  0
 21 38  1  0  0  0  0
 21 39  1  0  0  0  0
 22 40  1  0  0  0  0
 22 41  1  0  0  0  0
M  END
> <s_m_source_file>
AV-unprocessed.smi

> <i_m_source_file_index>
1384

> <i_lp_mmshare_version>
43012

> <i_f3d_flags>
0

> <s_epik_input>
W0NIM11bQ0BASF0xW0NIMl1bQ0gyXVtDQEhdKFtDSDJdW0NIMl0xKVtOSF1DKD1PKVtDSDJdbjJbY0hdW2NIXVtjSF1jKEMoRikoRilGKWMyPU8=

> <s_epik_cmdline>
J2VwaWtfcHl0aG9uJywgJy1waCcsICc3LjAnLCAnLXRuJywgJzgnLCAnLW1hJywgJzIwMCcsICctbWV0YWxfYmluZGluZycsICctaW1hZScsICc8aW5maWxlLm1hZT4nLCAnLW9tYWUnLCAnPG91dGZpbGUubWFlPic=

> <r_lp_tautomer_probability>
1

> <r_epik_Ionization_Penalty>
2.11165e-08

> <r_epik_Ionization_Penalty_Charging>
2.06965e-09

> <r_epik_Ionization_Penalty_Neutral>
1.90469e-08

> <r_epik_State_Penalty>
-0

> <r_epik_Charging_Adjusted_Penalty>
2.06965e-09

> <i_epik_Tot_Q>
0

> <i_epik_Tot_abs_Q>
0

> <r_epik_Metal_State_Penalty>
-0

> <b_epik_Metal_Only>
0

> <s_lp_Force_Field>
OPLS_2005

> <r_lp_Energy>
18.4349

> <b_lp_Chiralities_Consistent>
1

> <s_lp_Variant>
AV-unprocessed.smi:1384-2

> <Gold.Version>
5.8.1

> <Gold.Id.Protein>
6NUR|6NUR_protein|mol2

> <Gold.PLP.Fitness>
46.1164

> <Gold.PLP.PLP>
-39.0609

> <Gold.PLP.part.hbond>
-2.0000

> <Gold.PLP.part.metal>
0.0000

> <Gold.PLP.part.buried>
-3.4799

> <Gold.PLP.part.nonpolar>
-35.4537

> <Gold.PLP.part.repulsive>
1.0139

> <Gold.PLP.ligand.clash>
0.2612

> <Gold.PLP.ligand.torsion>
0.5031

> <Gold.PLP.Chemscore.Hbond>
1.6661

> <Gold.PLP.Chemscore.CHOScore>
1.0000

> <Gold.PLP.Chemscore.Metal>
0.0000

> <Gold.Chemscore.Hbonds>
donor molecule, donor type, donor heavy atom, donor atom, acceptor molecule, acceptor atom, score
      P1  H  6896  6907       L1    20  0.53
      P1  H 10752 10763       L1     8  1.00
      L1  C    11    35       P1  7948  0.66

> <Gold.PLP.Chemscore.Internal.Correction>
0.3246

> <Gold.Rescore>
     Score         DG    S(hbond)    S(metal)    S(lipo)     H(rot)  DE(clash)    DE(int)     intcor
     14.21     -17.12       1.91        0.00      78.27       1.52       0.13       2.77       ----

> <Gold.Chemscore.Fitness>
14.2084

> <Gold.Chemscore.DG>
-17.1152

> <Gold.Chemscore.ZeroCoef>
-5.4800

> <Gold.Chemscore.Hbond>
1.9100

> <Gold.Chemscore.Metal>
0.0000

> <Gold.Chemscore.Lipo>
78.2710

> <Gold.Chemscore.Internal_Hbond>
0.0000

> <Gold.Chemscore.DEClash>
0.1345

> <Gold.Chemscore.DEInternal>
2.7724

> <Gold.Chemscore.Rot>
1.5242

> <Gold.Chemscore.Internal.Correction>
   9.000000E+99

> <Gold.Chemscore.Hbonds>
donor molecule, donor type, donor heavy atom, donor atom, acceptor molecule, acceptor atom, score
      P1  H  6896  6907       L1    20  0.51
      P1  H 10752 10763       L1     8  1.00

> <Gold.Chemscore.Hbond.Weighted>
-6.3794

> <Gold.Chemscore.Metal.Weighted>
-0.0000

> <Gold.Chemscore.Lipo.Weighted>
-9.1577

> <Gold.Chemscore.Internal_Hbond.Weighted>
0.0000

> <Gold.Chemscore.DEClash.Weighted>
0.1345

> <Gold.Chemscore.DEInternal.Weighted>
2.7724

> <Gold.Chemscore.Rot.Weighted>
3.9019

> <Gold.Chemscore.Internal.Correction.Weighted>
   9.000000E+99

> <Gold.Protein.RotatedTorsions>
[ 6907 6896 6895 6894 ] final -161.11 input  -60.11 | X-H torsion
[ 7974 7965 7964 7962 ] final -108.03 input  175.53 | X-H torsion
[ 8008 7997 7996 7995 ] final  -62.70 input   59.86 | X-H torsion
[ 10167 10162 10161 10158 ] final  137.46 input  -65.29 | X-H torsion
[ 10718 10713 10712 10709 ] final -114.55 input   66.30 | X-H torsion
[ 10763 10752 10751 10750 ] final   48.34 input  -60.55 | X-H torsion
[ 11005 11000 10999 10996 ] final   -1.22 input  -57.11 | X-H torsion

> <Gold.Protein.ActiveResidues>
 VAL166  LYS551  ARG553  GLY616  TRP617  ASP618  TYR619  PRO620  LYS621  CYS622 
 ASP623  PHE694  ASN695  SER759  ASP760  ASP761  ALA762  ILE779  LEU786  VAL792 
 PHE793  MET794  SER795  GLU796  ALA797  LYS798  CYS799  TRP800  GLU811  SER814 

> <Gold.Protein.RotatedAtoms>
  151.3596  133.3894  159.2688 H   0  0  0  0  0  0  0  0  0  0  0  0  # atno 6907 bound_to 6896
  150.9736  134.9105  159.7813 H   0  0  0  0  0  0  0  0  0  0  0  0  # atno 6908 bound_to 6896
  152.5193  134.3559  159.9320 H   0  0  0  0  0  0  0  0  0  0  0  0  # atno 6909 bound_to 6896
  145.1980  140.9044  143.3386 H   0  0  0  0  0  0  0  0  0  0  0  0  # atno 7974 bound_to 7965
  154.4514  140.0990  156.6628 H   0  0  0  0  0  0  0  0  0  0  0  0  # atno 8008 bound_to 7997
  155.5274  140.3480  155.4400 H   0  0  0  0  0  0  0  0  0  0  0  0  # atno 8009 bound_to 7997
  156.0688  140.1344  156.9842 H   0  0  0  0  0  0  0  0  0  0  0  0  # atno 8010 bound_to 7997
  139.5144  144.6409  151.5572 H   0  0  0  0  0  0  0  0  0  0  0  0  # atno 10167 bound_to 10162
  156.0837  130.6033  150.8790 H   0  0  0  0  0  0  0  0  0  0  0  0  # atno 10718 bound_to 10713
  152.9792  135.5947  154.3910 H   0  0  0  0  0  0  0  0  0  0  0  0  # atno 10763 bound_to 10752
  154.3565  135.2767  155.2345 H   0  0  0  0  0  0  0  0  0  0  0  0  # atno 10764 bound_to 10752
  154.4361  135.6024  153.6154 H   0  0  0  0  0  0  0  0  0  0  0  0  # atno 10765 bound_to 10752
  140.6450  133.9456  155.8347 H   0  0  0  0  0  0  0  0  0  0  0  0  # atno 11005 bound_to 11000
  144.9976  139.3629  143.6184 LP  0  0  0  0  0  0  0  0  0  0  0  0  # atno 17320 bound_to 7965
  146.3423  139.9185  142.8770 LP  0  0  0  0  0  0  0  0  0  0  0  0  # atno 17321 bound_to 7965
  140.6175  143.9321  150.6500 LP  0  0  0  0  0  0  0  0  0  0  0  0  # atno 17342 bound_to 10162
  140.2584  143.3542  152.1344 LP  0  0  0  0  0  0  0  0  0  0  0  0  # atno 17343 bound_to 10162
  157.5964  131.0943  150.9033 LP  0  0  0  0  0  0  0  0  0  0  0  0  # atno 17370 bound_to 10713
  156.9199  130.5311  149.5279 LP  0  0  0  0  0  0  0  0  0  0  0  0  # atno 17371 bound_to 10713
  141.0579  134.0389  157.3698 LP  0  0  0  0  0  0  0  0  0  0  0  0  # atno 17394 bound_to 11000
  139.9066  135.0181  156.7513 LP  0  0  0  0  0  0  0  0  0  0  0  0  # atno 17395 bound_to 11000

$$$$
