AV-unprocessed.smi:3241|AV-procd|sdf|12391|dock1
  -GOLD-   2272018263D 1   1.00000     0.00000
 Structure written by MMmdl.
 43 44  0  0  0  0  0  0  0  0  1 V2000
  154.1593  140.5031  160.6824 C   0  0  0  0  0  0  0  0  0  0  0  0
  153.7156  141.9736  160.6413 C   0  0  2  0  0  0  0  0  0  0  0  0
  152.8813  142.3570  161.8806 C   0  0  0  0  0  0  0  0  0  0  0  0
  152.4698  143.8378  161.8498 C   0  0  0  0  0  0  0  0  0  0  0  0
  151.7236  144.1839  160.5526 C   0  0  0  0  0  0  0  0  0  0  0  0
  152.5524  143.8043  159.3150 C   0  0  0  0  0  0  0  0  0  0  0  0
  152.9659  142.3177  159.3348 C   0  0  2  0  0  0  0  0  0  0  0  0
  151.7962  141.5075  159.2449 O   0  0  0  0  0  0  0  0  0  0  0  0
  151.0721  141.5840  158.0214 C   0  0  0  0  0  0  0  0  0  0  0  0
  150.8606  140.2048  157.3773 C   0  0  0  0  0  0  0  0  0  0  0  0
  152.1361  139.6136  156.9926 N   0  0  0  0  0  0  0  0  0  0  0  0
  152.2851  139.4101  155.5556 C   0  0  0  0  0  0  0  0  0  0  0  0
  151.1012  138.6204  154.9758 C   0  0  0  0  0  0  0  0  0  0  0  0
  150.0176  139.4937  154.5578 N   0  0  0  0  0  0  0  0  0  0  0  0
  148.8546  139.1583  153.8969 C   0  0  0  0  0  0  0  0  0  0  0  0
  148.1473  140.3108  153.7080 C   0  0  0  0  0  0  0  0  0  0  0  0
  148.9694  141.3120  154.2967 C   0  0  0  0  0  0  0  0  0  0  0  0
  150.0872  140.8200  154.8058 N   0  0  0  0  0  0  0  0  0  0  0  0
  153.3029  139.8282  160.6982 H   0  0  0  0  0  0  0  0  0  0  0  0
  154.7577  140.2994  161.5707 H   0  0  0  0  0  0  0  0  0  0  0  0
  154.7654  140.2518  159.8116 H   0  0  0  0  0  0  0  0  0  0  0  0
  154.6241  142.5773  160.6615 H   0  0  0  0  0  0  0  0  0  0  0  0
  151.9884  141.7328  161.9343 H   0  0  0  0  0  0  0  0  0  0  0  0
  153.4500  142.1568  162.7892 H   0  0  0  0  0  0  0  0  0  0  0  0
  151.8423  144.0668  162.7116 H   0  0  0  0  0  0  0  0  0  0  0  0
  153.3572  144.4655  161.9383 H   0  0  0  0  0  0  0  0  0  0  0  0
  150.7669  143.6603  160.5277 H   0  0  0  0  0  0  0  0  0  0  0  0
  151.4912  145.2487  160.5308 H   0  0  0  0  0  0  0  0  0  0  0  0
  151.9895  144.0370  158.4118 H   0  0  0  0  0  0  0  0  0  0  0  0
  153.4481  144.4254  159.2799 H   0  0  0  0  0  0  0  0  0  0  0  0
  153.6362  142.1258  158.4950 H   0  0  0  0  0  0  0  0  0  0  0  0
  150.1140  142.0765  158.1931 H   0  0  0  0  0  0  0  0  0  0  0  0
  151.6280  142.2268  157.3383 H   0  0  0  0  0  0  0  0  0  0  0  0
  150.3219  139.5435  158.0560 H   0  0  0  0  0  0  0  0  0  0  0  0
  150.2295  140.3174  156.4952 H   0  0  0  0  0  0  0  0  0  0  0  0
  152.9047  140.1718  157.3503 H   0  0  0  0  0  0  0  0  0  0  0  0
  152.3658  140.3711  155.0463 H   0  0  0  0  0  0  0  0  0  0  0  0
  153.2122  138.8726  155.3544 H   0  0  0  0  0  0  0  0  0  0  0  0
  151.4287  138.0495  154.1063 H   0  0  0  0  0  0  0  0  0  0  0  0
  150.7275  137.8965  155.7021 H   0  0  0  0  0  0  0  0  0  0  0  0
  148.6323  138.1394  153.6159 H   0  0  0  0  0  0  0  0  0  0  0  0
  147.1899  140.4228  153.2213 H   0  0  0  0  0  0  0  0  0  0  0  0
  148.7892  142.3746  154.3674 H   0  0  0  0  0  0  0  0  0  0  0  0
  1  2  1  0  0  0  0
  1 19  1  0  0  0  0
  1 20  1  0  0  0  0
  1 21  1  0  0  0  0
  2  7  1  0  0  0  0
  2  3  1  0  0  0  0
  2 22  1  0  0  0  0
  3  4  1  0  0  0  0
  3 23  1  0  0  0  0
  3 24  1  0  0  0  0
  4  5  1  0  0  0  0
  4 25  1  0  0  0  0
  4 26  1  0  0  0  0
  5  6  1  0  0  0  0
  5 27  1  0  0  0  0
  5 28  1  0  0  0  0
  6  7  1  0  0  0  0
  6 29  1  0  0  0  0
  6 30  1  0  0  0  0
  7  8  1  0  0  0  0
  7 31  1  0  0  0  0
  8  9  1  0  0  0  0
  9 10  1  0  0  0  0
  9 32  1  0  0  0  0
  9 33  1  0  0  0  0
 10 11  1  0  0  0  0
 10 34  1  0  0  0  0
 10 35  1  0  0  0  0
 11 12  1  0  0  0  0
 11 36  1  0  0  0  0
 12 13  1  0  0  0  0
 12 37  1  0  0  0  0
 12 38  1  0  0  0  0
 13 14  1  0  0  0  0
 13 39  1  0  0  0  0
 13 40  1  0  0  0  0
 14 18  1  0  0  0  0
 14 15  1  0  0  0  0
 15 16  2  0  0  0  0
 15 41  1  0  0  0  0
 16 17  1  0  0  0  0
 16 42  1  0  0  0  0
 17 18  2  0  0  0  0
 17 43  1  0  0  0  0
M  END
> <s_m_source_file>
AV-unprocessed.smi

> <i_m_source_file_index>
3241

> <i_lp_mmshare_version>
43012

> <i_f3d_flags>
0

> <s_epik_input>
W0NIM11bQ0BASF0xW0NIMl1bQ0gyXVtDSDJdW0NIMl1bQ0BIXTFPW0NIMl1bQ0gyXVtOSF1bQ0gyXVtDSDJdbjJbY0hdW2NIXVtjSF1uMg==

> <s_epik_cmdline>
J2VwaWtfcHl0aG9uJywgJy1waCcsICc3LjAnLCAnLXRuJywgJzgnLCAnLW1hJywgJzIwMCcsICctbWV0YWxfYmluZGluZycsICctaW1hZScsICc8aW5maWxlLm1hZT4nLCAnLW9tYWUnLCAnPG91dGZpbGUubWFlPic=

> <r_lp_tautomer_probability>
1

> <r_epik_Ionization_Penalty>
2.47055

> <r_epik_Ionization_Penalty_Charging>
0

> <r_epik_Ionization_Penalty_Neutral>
2.47055

> <r_epik_State_Penalty>
2.6322

> <r_epik_Charging_Adjusted_Penalty>
2.6322

> <i_epik_Tot_Q>
0

> <i_epik_Tot_abs_Q>
0

> <r_epik_Metal_State_Penalty>
2.63108

> <b_epik_Metal_Only>
0

> <s_lp_Force_Field>
OPLS_2005

> <r_lp_Energy>
17.4206

> <b_lp_Chiralities_Consistent>
1

> <s_lp_Variant>
AV-unprocessed.smi:3241-7

> <Gold.Version>
5.8.1

> <Gold.Id.Protein>
6NUR|6NUR_protein|mol2

> <Gold.PLP.Fitness>
49.9345

> <Gold.PLP.PLP>
-46.7783

> <Gold.PLP.part.hbond>
-1.0214

> <Gold.PLP.part.metal>
0.0000

> <Gold.PLP.part.buried>
-3.1282

> <Gold.PLP.part.nonpolar>
-42.1061

> <Gold.PLP.part.repulsive>
0.1114

> <Gold.PLP.ligand.clash>
0.0000

> <Gold.PLP.ligand.torsion>
0.9909

> <Gold.PLP.Chemscore.Hbond>
0.1375

> <Gold.PLP.Chemscore.CHOScore>
1.5283

> <Gold.PLP.Chemscore.Metal>
0.0000

> <Gold.Chemscore.Hbonds>
donor molecule, donor type, donor heavy atom, donor atom, acceptor molecule, acceptor atom, score
      P1  H  7989  7998       L1    18  0.31
      L1  C    15    41       P1  7948  0.84
      L1  C    17    43       P1  8028  0.68

> <Gold.PLP.Chemscore.Internal.Correction>
0.1407

> <Gold.Rescore>
     Score         DG    S(hbond)    S(metal)    S(lipo)     H(rot)  DE(clash)    DE(int)     intcor
     16.36     -17.87       0.71        0.00     124.63       1.79       0.50       1.00       ----

> <Gold.Chemscore.Fitness>
16.3568

> <Gold.Chemscore.DG>
-17.8658

> <Gold.Chemscore.ZeroCoef>
-5.4800

> <Gold.Chemscore.Hbond>
0.7148

> <Gold.Chemscore.Metal>
0.0000

> <Gold.Chemscore.Lipo>
124.6254

> <Gold.Chemscore.Internal_Hbond>
0.0000

> <Gold.Chemscore.DEClash>
0.5048

> <Gold.Chemscore.DEInternal>
1.0041

> <Gold.Chemscore.Rot>
1.7901

> <Gold.Chemscore.Internal.Correction>
   9.000000E+99

> <Gold.Chemscore.Hbonds>
donor molecule, donor type, donor heavy atom, donor atom, acceptor molecule, acceptor atom, score
      P1  H  7989  7998       L1    18  0.01

> <Gold.Chemscore.Hbond.Weighted>
-2.3873

> <Gold.Chemscore.Metal.Weighted>
-0.0000

> <Gold.Chemscore.Lipo.Weighted>
-14.5812

> <Gold.Chemscore.Internal_Hbond.Weighted>
0.0000

> <Gold.Chemscore.DEClash.Weighted>
0.5048

> <Gold.Chemscore.DEInternal.Weighted>
1.0041

> <Gold.Chemscore.Rot.Weighted>
4.5827

> <Gold.Chemscore.Internal.Correction.Weighted>
   9.000000E+99

> <Gold.Protein.RotatedTorsions>
[ 6907 6896 6895 6894 ] final -135.59 input  -60.11 | X-H torsion
[ 7974 7965 7964 7962 ] final   31.68 input  175.53 | X-H torsion
[ 8008 7997 7996 7995 ] final  -37.26 input   59.86 | X-H torsion
[ 10167 10162 10161 10158 ] final   28.13 input  -65.29 | X-H torsion
[ 10718 10713 10712 10709 ] final  130.59 input   66.30 | X-H torsion
[ 10763 10752 10751 10750 ] final   87.95 input  -60.55 | X-H torsion
[ 11005 11000 10999 10996 ] final  165.87 input  -57.11 | X-H torsion

> <Gold.Protein.ActiveResidues>
 VAL166  LYS551  ARG553  GLY616  TRP617  ASP618  TYR619  PRO620  LYS621  CYS622 
 ASP623  PHE694  ASN695  SER759  ASP760  ASP761  ALA762  ILE779  LEU786  VAL792 
 PHE793  MET794  SER795  GLU796  ALA797  LYS798  CYS799  TRP800  GLU811  SER814 

> <Gold.Protein.RotatedAtoms>
  150.9997  133.6068  159.2696 H   0  0  0  0  0  0  0  0  0  0  0  0  # atno 6907 bound_to 6896
  151.3259  135.0829  159.9332 H   0  0  0  0  0  0  0  0  0  0  0  0  # atno 6908 bound_to 6896
  152.5270  133.9635  159.7782 H   0  0  0  0  0  0  0  0  0  0  0  0  # atno 6909 bound_to 6896
  146.1534  139.6624  142.9083 H   0  0  0  0  0  0  0  0  0  0  0  0  # atno 7974 bound_to 7965
  154.4057  140.1609  156.2508 H   0  0  0  0  0  0  0  0  0  0  0  0  # atno 8008 bound_to 7997
  155.9121  140.3426  155.6084 H   0  0  0  0  0  0  0  0  0  0  0  0  # atno 8009 bound_to 7997
  155.7324  140.0782  157.2273 H   0  0  0  0  0  0  0  0  0  0  0  0  # atno 8010 bound_to 7997
  140.4879  144.0514  150.6287 H   0  0  0  0  0  0  0  0  0  0  0  0  # atno 10167 bound_to 10162
  157.5047  131.1095  150.9378 H   0  0  0  0  0  0  0  0  0  0  0  0  # atno 10718 bound_to 10713
  153.1720  135.4524  154.9914 H   0  0  0  0  0  0  0  0  0  0  0  0  # atno 10763 bound_to 10752
  154.7972  135.3242  154.7640 H   0  0  0  0  0  0  0  0  0  0  0  0  # atno 10764 bound_to 10752
  153.8116  135.6954  153.4895 H   0  0  0  0  0  0  0  0  0  0  0  0  # atno 10765 bound_to 10752
  140.2606  134.7905  157.3586 H   0  0  0  0  0  0  0  0  0  0  0  0  # atno 11005 bound_to 11000
  145.4767  141.0437  143.2669 LP  0  0  0  0  0  0  0  0  0  0  0  0  # atno 17320 bound_to 7965
  144.7933  139.6285  143.7104 LP  0  0  0  0  0  0  0  0  0  0  0  0  # atno 17321 bound_to 7965
  140.3774  143.2821  152.0209 LP  0  0  0  0  0  0  0  0  0  0  0  0  # atno 17342 bound_to 10162
  139.4845  144.6182  151.7306 LP  0  0  0  0  0  0  0  0  0  0  0  0  # atno 17343 bound_to 10162
  157.0037  130.5610  149.5314 LP  0  0  0  0  0  0  0  0  0  0  0  0  # atno 17370 bound_to 10713
  156.0251  130.5345  150.8384 LP  0  0  0  0  0  0  0  0  0  0  0  0  # atno 17371 bound_to 10713
  140.1468  134.4901  155.7990 LP  0  0  0  0  0  0  0  0  0  0  0  0  # atno 17394 bound_to 11000
  141.2191  133.6847  156.7308 LP  0  0  0  0  0  0  0  0  0  0  0  0  # atno 17395 bound_to 11000

$$$$
