AV-unprocessed.smi:1756|AV-procd|sdf|7073|dock5
  -GOLD-   22720 8293D 1   1.00000     0.00000
 Structure written by MMmdl.
 37 38  0  0  0  0  0  0  0  0  2 V2000
  151.9640  135.6785  155.3713 O   0  0  0  0  0  0  0  0  0  0  0  0
  151.0797  135.8431  154.5314 C   0  0  0  0  0  0  0  0  0  0  0  0
  150.7415  137.0472  154.0482 N   0  0  0  0  0  0  0  0  0  0  0  0
  151.3402  138.3192  154.4413 C   0  0  0  0  0  0  0  0  0  0  0  0
  150.3496  139.2172  155.2043 C   0  0  2  0  0  0  0  0  0  0  0  0
  148.9816  139.3627  154.5031 C   0  0  0  0  0  0  0  0  0  0  0  0
  148.0867  140.3509  155.2596 C   0  0  0  0  0  0  0  0  0  0  0  0
  148.8324  141.6729  155.4660 C   0  0  0  0  0  0  0  0  0  0  0  0
  150.1980  141.4151  156.1207 C   0  0  0  0  0  0  0  0  0  0  0  0
  150.9515  140.5045  155.3258 O   0  0  0  0  0  0  0  0  0  0  0  0
  150.3370  134.8772  153.9607 N   0  0  0  0  0  0  0  0  0  0  0  0
  150.3410  133.4883  154.1794 C   0  0  0  0  0  0  0  0  0  0  0  0
  151.3367  132.7949  154.7990 C   0  0  0  0  0  0  0  0  0  0  0  0
  151.2734  131.3532  155.0043 C   0  0  0  0  0  0  0  0  0  0  0  0
  152.3260  130.5635  155.7621 C   0  0  0  0  0  0  0  0  0  0  0  0
  151.7940  129.9388  156.8131 F   0  0  0  0  0  0  0  0  0  0  0  0
  152.8666  129.6451  154.9629 F   0  0  0  0  0  0  0  0  0  0  0  0
  153.3011  131.3617  156.1971 F   0  0  0  0  0  0  0  0  0  0  0  0
  150.0971  130.8071  154.5289 C   0  0  0  0  0  0  0  0  0  0  0  0
  149.0708  131.4170  153.8965 N   0  5  0  0  0  0  0  0  0  0  0  0
  149.1440  132.7640  153.7031 C   0  0  0  0  0  0  0  0  0  0  0  0
  148.2385  133.3831  153.1427 O   0  0  0  0  0  0  0  0  0  0  0  0
  150.0088  137.0877  153.3549 H   0  0  0  0  0  0  0  0  0  0  0  0
  152.1888  138.0904  155.0866 H   0  0  0  0  0  0  0  0  0  0  0  0
  151.7508  138.8482  153.5796 H   0  0  0  0  0  0  0  0  0  0  0  0
  150.2050  138.8056  156.2048 H   0  0  0  0  0  0  0  0  0  0  0  0
  149.1285  139.7117  153.4802 H   0  0  0  0  0  0  0  0  0  0  0  0
  148.4787  138.3981  154.4348 H   0  0  0  0  0  0  0  0  0  0  0  0
  147.1577  140.5179  154.7139 H   0  0  0  0  0  0  0  0  0  0  0  0
  147.8117  139.9293  156.2271 H   0  0  0  0  0  0  0  0  0  0  0  0
  148.9768  142.1671  154.5042 H   0  0  0  0  0  0  0  0  0  0  0  0
  148.2391  142.3496  156.0811 H   0  0  0  0  0  0  0  0  0  0  0  0
  150.7535  142.3489  156.2083 H   0  0  0  0  0  0  0  0  0  0  0  0
  150.0783  141.0208  157.1310 H   0  0  0  0  0  0  0  0  0  0  0  0
  149.6851  135.1778  153.2508 H   0  0  0  0  0  0  0  0  0  0  0  0
  152.2134  133.2947  155.1750 H   0  0  0  0  0  0  0  0  0  0  0  0
  149.9572  129.7161  154.6846 H   0  0  0  0  0  0  0  0  0  0  0  0
  1  2  2  0  0  0  0
  2  3  1  0  0  0  0
  2 11  1  0  0  0  0
  3  4  1  0  0  0  0
  3 23  1  0  0  0  0
  4  5  1  0  0  0  0
  4 24  1  0  0  0  0
  4 25  1  0  0  0  0
  5 10  1  0  0  0  0
  5  6  1  0  0  0  0
  5 26  1  0  0  0  0
  6  7  1  0  0  0  0
  6 27  1  0  0  0  0
  6 28  1  0  0  0  0
  7  8  1  0  0  0  0
  7 29  1  0  0  0  0
  7 30  1  0  0  0  0
  8  9  1  0  0  0  0
  8 31  1  0  0  0  0
  8 32  1  0  0  0  0
  9 10  1  0  0  0  0
  9 33  1  0  0  0  0
  9 34  1  0  0  0  0
 11 12  1  0  0  0  0
 11 35  1  0  0  0  0
 12 21  1  0  0  0  0
 12 13  2  0  0  0  0
 13 14  1  0  0  0  0
 13 36  1  0  0  0  0
 14 15  1  0  0  0  0
 14 19  2  0  0  0  0
 15 16  1  0  0  0  0
 15 17  1  0  0  0  0
 15 18  1  0  0  0  0
 19 20  1  0  0  0  0
 19 37  1  0  0  0  0
 20 21  1  0  0  0  0
 21 22  2  0  0  0  0
M  CHG  1  20  -1
M  END
> <s_m_source_file>
AV-unprocessed.smi

> <i_m_source_file_index>
1756

> <i_lp_mmshare_version>
43012

> <i_f3d_flags>
0

> <s_epik_input>
Tz1jMVtuSF1bY0hdYyhDKEYpKEYpRilbY0hdYzFbTkhdQyg9TylbTkhdW0NIMl1bQ0BASF0yW0NIMl1bQ0gyXVtDSDJdW0NIMl1PMg==

> <s_epik_cmdline>
J2VwaWtfcHl0aG9uJywgJy1waCcsICc3LjAnLCAnLXRuJywgJzgnLCAnLW1hJywgJzIwMCcsICctbWV0YWxfYmluZGluZycsICctaW1hZScsICc8aW5maWxlLm1hZT4nLCAnLW9tYWUnLCAnPG91dGZpbGUubWFlPic=

> <r_lp_tautomer_probability>
1

> <r_epik_Ionization_Penalty>
3.16985

> <r_epik_Ionization_Penalty_Charging>
0.174782

> <r_epik_Ionization_Penalty_Neutral>
2.99507

> <r_epik_State_Penalty>
2.99125

> <r_epik_Charging_Adjusted_Penalty>
3.16603

> <i_epik_Tot_Q>
-1

> <i_epik_Tot_abs_Q>
1

> <r_epik_Metal_State_Penalty>
0.453096

> <b_epik_Metal_Only>
1

> <s_lp_Force_Field>
OPLS_2005

> <r_lp_Energy>
21.0117

> <b_lp_Chiralities_Consistent>
1

> <s_lp_Variant>
AV-unprocessed.smi:1756-3

> <Gold.Version>
5.8.1

> <Gold.Id.Protein>
6NUR|6NUR_protein|mol2

> <Gold.PLP.Fitness>
44.2391

> <Gold.PLP.PLP>
-33.5010

> <Gold.PLP.part.hbond>
-5.6905

> <Gold.PLP.part.metal>
0.0000

> <Gold.PLP.part.buried>
1.6194

> <Gold.PLP.part.nonpolar>
-28.4274

> <Gold.PLP.part.repulsive>
0.4568

> <Gold.PLP.ligand.clash>
0.0000

> <Gold.PLP.ligand.torsion>
0.1945

> <Gold.PLP.Chemscore.Hbond>
3.6920

> <Gold.PLP.Chemscore.CHOScore>
0.0000

> <Gold.PLP.Chemscore.Metal>
0.0000

> <Gold.Chemscore.Hbonds>
donor molecule, donor type, donor heavy atom, donor atom, acceptor molecule, acceptor atom, score
      L1  H     3    23       P1  7948  0.94
      L1  H    11    35       P1  7948  0.25
      P1  H  7989  7998       L1    10  0.96
      P1  H 10752 10763       L1     1  0.24

> <Gold.PLP.Chemscore.Internal.Correction>
0.0510

> <Gold.Rescore>
     Score         DG    S(hbond)    S(metal)    S(lipo)     H(rot)  DE(clash)    DE(int)     intcor
     17.34     -18.52       2.71        0.00      62.99       1.32       0.04       1.14       ----

> <Gold.Chemscore.Fitness>
17.3379

> <Gold.Chemscore.DG>
-18.5206

> <Gold.Chemscore.ZeroCoef>
-5.4800

> <Gold.Chemscore.Hbond>
2.7134

> <Gold.Chemscore.Metal>
0.0000

> <Gold.Chemscore.Lipo>
62.9858

> <Gold.Chemscore.Internal_Hbond>
0.0000

> <Gold.Chemscore.DEClash>
0.0424

> <Gold.Chemscore.DEInternal>
1.1403

> <Gold.Chemscore.Rot>
1.3248

> <Gold.Chemscore.Internal.Correction>
   9.000000E+99

> <Gold.Chemscore.Hbonds>
donor molecule, donor type, donor heavy atom, donor atom, acceptor molecule, acceptor atom, score
      L1  H     3    23       P1  7948  0.20
      P1  H  7989  7998       L1    10  0.40
      P1  H 10752 10763       L1     1  0.24

> <Gold.Chemscore.Hbond.Weighted>
-9.0627

> <Gold.Chemscore.Metal.Weighted>
-0.0000

> <Gold.Chemscore.Lipo.Weighted>
-7.3693

> <Gold.Chemscore.Internal_Hbond.Weighted>
0.0000

> <Gold.Chemscore.DEClash.Weighted>
0.0424

> <Gold.Chemscore.DEInternal.Weighted>
1.1403

> <Gold.Chemscore.Rot.Weighted>
3.3915

> <Gold.Chemscore.Internal.Correction.Weighted>
   9.000000E+99

> <Gold.Protein.RotatedTorsions>
[ 6907 6896 6895 6894 ] final  -50.71 input  -60.11 | X-H torsion
[ 7974 7965 7964 7962 ] final   55.18 input  175.53 | X-H torsion
[ 8008 7997 7996 7995 ] final   74.05 input   59.86 | X-H torsion
[ 10167 10162 10161 10158 ] final -175.10 input  -65.29 | X-H torsion
[ 10718 10713 10712 10709 ] final  -21.59 input   66.30 | X-H torsion
[ 10763 10752 10751 10750 ] final   89.65 input  -60.55 | X-H torsion
[ 11005 11000 10999 10996 ] final   25.87 input  -57.11 | X-H torsion

> <Gold.Protein.ActiveResidues>
 VAL166  LYS551  ARG553  GLY616  TRP617  ASP618  TYR619  PRO620  LYS621  CYS622 
 ASP623  PHE694  ASN695  SER759  ASP760  ASP761  ALA762  ILE779  LEU786  VAL792 
 PHE793  MET794  SER795  GLU796  ALA797  LYS798  CYS799  TRP800  GLU811  SER814 

> <Gold.Protein.RotatedAtoms>
  150.8681  134.8049  159.7133 H   0  0  0  0  0  0  0  0  0  0  0  0  # atno 6907 bound_to 6896
  152.4695  134.4991  159.9729 H   0  0  0  0  0  0  0  0  0  0  0  0  # atno 6908 bound_to 6896
  151.5084  133.3451  159.2916 H   0  0  0  0  0  0  0  0  0  0  0  0  # atno 6909 bound_to 6896
  145.9531  139.3990  143.0294 H   0  0  0  0  0  0  0  0  0  0  0  0  # atno 7974 bound_to 7965
  155.7926  140.3479  155.5358 H   0  0  0  0  0  0  0  0  0  0  0  0  # atno 8008 bound_to 7997
  155.8618  140.0972  157.1629 H   0  0  0  0  0  0  0  0  0  0  0  0  # atno 8009 bound_to 7997
  154.4012  140.1357  156.3958 H   0  0  0  0  0  0  0  0  0  0  0  0  # atno 8010 bound_to 7997
  139.5599  144.1896  152.1221 H   0  0  0  0  0  0  0  0  0  0  0  0  # atno 10167 bound_to 10162
  156.5160  130.4621  149.6622 H   0  0  0  0  0  0  0  0  0  0  0  0  # atno 10718 bound_to 10713
  153.1893  135.4462  155.0128 H   0  0  0  0  0  0  0  0  0  0  0  0  # atno 10763 bound_to 10752
  154.8080  135.3282  154.7383 H   0  0  0  0  0  0  0  0  0  0  0  0  # atno 10764 bound_to 10752
  153.7839  135.6975  153.4939 H   0  0  0  0  0  0  0  0  0  0  0  0  # atno 10765 bound_to 10752
  140.3432  134.2310  155.7687 H   0  0  0  0  0  0  0  0  0  0  0  0  # atno 11005 bound_to 11000
  145.8143  140.9710  143.0932 LP  0  0  0  0  0  0  0  0  0  0  0  0  # atno 17320 bound_to 7965
  144.6800  139.9961  143.7484 LP  0  0  0  0  0  0  0  0  0  0  0  0  # atno 17321 bound_to 7965
  140.1408  144.5204  150.6745 LP  0  0  0  0  0  0  0  0  0  0  0  0  # atno 17342 bound_to 10162
  140.6877  143.2359  151.5216 LP  0  0  0  0  0  0  0  0  0  0  0  0  # atno 17343 bound_to 10162
  156.3194  130.7272  151.2181 LP  0  0  0  0  0  0  0  0  0  0  0  0  # atno 17370 bound_to 10713
  157.7444  131.0460  150.4869 LP  0  0  0  0  0  0  0  0  0  0  0  0  # atno 17371 bound_to 10713
  141.2033  133.7916  157.0347 LP  0  0  0  0  0  0  0  0  0  0  0  0  # atno 17394 bound_to 11000
  140.0764  134.9673  157.1552 LP  0  0  0  0  0  0  0  0  0  0  0  0  # atno 17395 bound_to 11000

$$$$
