AV-unprocessed.smi:34|AV-procd|sdf|244|dock10
  -GOLD-   2262016 03D 1   1.00000     0.00000
 Structure written by MMmdl.
 54 58  0  0  0  0  0  0  0  0  2 V2000
  151.9937  133.7837  156.7119 O   0  0  0  0  0  0  0  0  0  0  0  0
  151.0178  133.0360  156.8054 C   0  0  0  0  0  0  0  0  0  0  0  0
  149.9525  133.1597  157.6375 N   0  5  0  0  0  0  0  0  0  0  0  0
  149.1754  134.2519  157.5750 C   0  0  0  0  0  0  0  0  0  0  0  0
  148.3198  134.5388  158.5894 N   0  0  0  0  0  0  0  0  0  0  0  0
  147.5396  135.6247  158.5308 C   0  0  0  0  0  0  0  0  0  0  0  0
  147.4515  136.5458  157.5660 N   0  0  0  0  0  0  0  0  0  0  0  0
  148.3033  136.2635  156.5378 C   0  0  0  0  0  0  0  0  0  0  0  0
  149.1816  135.1444  156.4669 C   0  0  0  0  0  0  0  0  0  0  0  0
  149.9006  135.1618  155.2804 N   0  0  0  0  0  0  0  0  0  0  0  0
  149.4446  136.2726  154.7040 C   0  0  0  0  0  0  0  0  0  0  0  0
  148.5057  136.9769  155.3703 N   0  0  0  0  0  0  0  0  0  0  0  0
  147.8221  138.2520  154.9950 C   0  0  1  0  0  0  0  0  0  0  0  0
  147.9900  139.1680  156.0416 O   0  0  0  0  0  0  0  0  0  0  0  0
  148.7649  140.2888  155.6186 C   0  0  1  0  0  0  0  0  0  0  0  0
  150.2344  140.1096  156.0316 C   0  0  0  0  0  0  0  0  0  0  0  0
  150.6525  141.2532  156.7593 O   0  0  0  0  0  0  0  0  0  0  0  0
  151.7651  141.2052  157.5167 C   0  0  0  0  0  0  0  0  0  0  0  0
  152.5539  140.2581  157.5112 O   0  0  0  0  0  0  0  0  0  0  0  0
  151.9419  142.4203  158.3635 C   0  0  0  0  0  0  0  0  0  0  0  0
  152.5194  142.2923  159.6484 C   0  0  0  0  0  0  0  0  0  0  0  0
  152.6964  143.4216  160.4712 C   0  0  0  0  0  0  0  0  0  0  0  0
  152.2973  144.6931  160.0197 C   0  0  0  0  0  0  0  0  0  0  0  0
  151.7212  144.8338  158.7438 C   0  0  0  0  0  0  0  0  0  0  0  0
  151.5441  143.7056  157.9191 C   0  0  0  0  0  0  0  0  0  0  0  0
  148.5470  140.3298  154.1076 C   0  0  2  0  0  0  0  0  0  0  0  0
  147.3754  140.9326  153.8871 F   0  0  0  0  0  0  0  0  0  0  0  0
  148.4815  138.8543  153.7463 C   0  0  2  0  0  0  0  0  0  0  0  0
  147.7365  138.6604  152.5611 O   0  0  0  0  0  0  0  0  0  0  0  0
  150.9783  131.7871  155.9648 C   0  0  0  0  0  0  0  0  0  0  0  0
  149.7804  131.4233  155.3076 C   0  0  0  0  0  0  0  0  0  0  0  0
  149.7126  130.2443  154.5399 C   0  0  0  0  0  0  0  0  0  0  0  0
  150.8412  129.4114  154.4262 C   0  0  0  0  0  0  0  0  0  0  0  0
  152.0359  129.7560  155.0848 C   0  0  0  0  0  0  0  0  0  0  0  0
  152.1035  130.9336  155.8549 C   0  0  0  0  0  0  0  0  0  0  0  0
  146.8922  135.7778  159.3814 H   0  0  0  0  0  0  0  0  0  0  0  0
  149.8233  136.5903  153.7444 H   0  0  0  0  0  0  0  0  0  0  0  0
  146.7689  137.9935  154.8753 H   0  0  0  0  0  0  0  0  0  0  0  0
  148.3718  141.1865  156.0980 H   0  0  0  0  0  0  0  0  0  0  0  0
  150.3314  139.2314  156.6710 H   0  0  0  0  0  0  0  0  0  0  0  0
  150.8725  139.9536  155.1610 H   0  0  0  0  0  0  0  0  0  0  0  0
  152.8334  141.3261  160.0168 H   0  0  0  0  0  0  0  0  0  0  0  0
  153.1389  143.3117  161.4504 H   0  0  0  0  0  0  0  0  0  0  0  0
  152.4322  145.5590  160.6509 H   0  0  0  0  0  0  0  0  0  0  0  0
  151.4136  145.8090  158.3960 H   0  0  0  0  0  0  0  0  0  0  0  0
  151.0977  143.8495  156.9461 H   0  0  0  0  0  0  0  0  0  0  0  0
  149.3127  140.8827  153.5622 H   0  0  0  0  0  0  0  0  0  0  0  0
  149.4894  138.4528  153.6271 H   0  0  0  0  0  0  0  0  0  0  0  0
  148.1340  137.9565  152.0706 H   0  0  0  0  0  0  0  0  0  0  0  0
  148.9039  132.0500  155.3859 H   0  0  0  0  0  0  0  0  0  0  0  0
  148.7931  129.9788  154.0399 H   0  0  0  0  0  0  0  0  0  0  0  0
  150.7892  128.5073  153.8381 H   0  0  0  0  0  0  0  0  0  0  0  0
  152.9012  129.1152  155.0036 H   0  0  0  0  0  0  0  0  0  0  0  0
  153.0272  131.1715  156.3623 H   0  0  0  0  0  0  0  0  0  0  0  0
  1  2  2  0  0  0  0
  2  3  1  0  0  0  0
  2 30  1  0  0  0  0
  3  4  1  0  0  0  0
  4  9  1  0  0  0  0
  4  5  2  0  0  0  0
  5  6  1  0  0  0  0
  6  7  2  0  0  0  0
  6 36  1  0  0  0  0
  7  8  1  0  0  0  0
  8 12  1  0  0  0  0
  8  9  2  0  0  0  0
  9 10  1  0  0  0  0
 10 11  2  0  0  0  0
 11 12  1  0  0  0  0
 11 37  1  0  0  0  0
 12 13  1  0  0  0  0
 13 28  1  0  0  0  0
 13 14  1  0  0  0  0
 13 38  1  0  0  0  0
 14 15  1  0  0  0  0
 15 16  1  0  0  0  0
 15 26  1  0  0  0  0
 15 39  1  0  0  0  0
 16 17  1  0  0  0  0
 16 40  1  0  0  0  0
 16 41  1  0  0  0  0
 17 18  1  0  0  0  0
 18 19  2  0  0  0  0
 18 20  1  0  0  0  0
 20 25  1  0  0  0  0
 20 21  2  0  0  0  0
 21 22  1  0  0  0  0
 21 42  1  0  0  0  0
 22 23  2  0  0  0  0
 22 43  1  0  0  0  0
 23 24  1  0  0  0  0
 23 44  1  0  0  0  0
 24 25  2  0  0  0  0
 24 45  1  0  0  0  0
 25 46  1  0  0  0  0
 26 27  1  0  0  0  0
 26 28  1  0  0  0  0
 26 47  1  0  0  0  0
 28 29  1  0  0  0  0
 28 48  1  0  0  0  0
 29 49  1  0  0  0  0
 30 35  1  0  0  0  0
 30 31  2  0  0  0  0
 31 32  1  0  0  0  0
 31 50  1  0  0  0  0
 32 33  2  0  0  0  0
 32 51  1  0  0  0  0
 33 34  1  0  0  0  0
 33 52  1  0  0  0  0
 34 35  2  0  0  0  0
 34 53  1  0  0  0  0
 35 54  1  0  0  0  0
M  CHG  1   3  -1
M  END
> <s_m_source_file>
AV-unprocessed.smi

> <i_m_source_file_index>
34

> <i_lp_mmshare_version>
43012

> <i_f3d_flags>
0

> <s_epik_input>
W2NIXTFbY0hdW2NIXVtjSF1bY0hdYzFDKD1PKVtOSF1jKG5bY0hdbjIpYyhjMjMpbltjSF1uM1tDQEBIXTRPW0NASF0oW0NAQEhdKEYpW0NASF00W09IXSlbQ0gyXU9DKD1PKWM1W2NIXVtjSF1bY0hdW2NIXVtjSF01

> <s_epik_cmdline>
J2VwaWtfcHl0aG9uJywgJy1waCcsICc3LjAnLCAnLXRuJywgJzgnLCAnLW1hJywgJzIwMCcsICctbWV0YWxfYmluZGluZycsICctaW1hZScsICc8aW5maWxlLm1hZT4nLCAnLW9tYWUnLCAnPG91dGZpbGUubWFlPic=

> <r_lp_tautomer_probability>
1

> <r_epik_Ionization_Penalty>
4.33227

> <r_epik_Ionization_Penalty_Charging>
3.41027

> <r_epik_Ionization_Penalty_Neutral>
0.922001

> <r_epik_State_Penalty>
3.41358

> <r_epik_Charging_Adjusted_Penalty>
6.82385

> <i_epik_Tot_Q>
-1

> <i_epik_Tot_abs_Q>
1

> <r_epik_Metal_State_Penalty>
0.496292

> <b_epik_Metal_Only>
1

> <s_epik_Chemistry_Notes>
This compound has an ester and may undergo hydrolysis at high or low pH. This compound contains an acetal/aminal-like group ( X-CH(R)-Y where X, Y are N, S, or O) that may be acid/base labile, releasing an aldehyde.

> <s_lp_Force_Field>
OPLS_2005

> <r_lp_Energy>
49.0999

> <b_lp_Chiralities_Consistent>
1

> <s_lp_Variant>
AV-unprocessed.smi:34-30

> <Gold.Version>
5.8.1

> <Gold.Id.Protein>
6NUR|6NUR_protein|mol2

> <Gold.PLP.Fitness>
57.8275

> <Gold.PLP.PLP>
-49.5286

> <Gold.PLP.part.hbond>
-4.5803

> <Gold.PLP.part.metal>
0.0000

> <Gold.PLP.part.buried>
-1.0631

> <Gold.PLP.part.nonpolar>
-44.0866

> <Gold.PLP.part.repulsive>
0.1673

> <Gold.PLP.ligand.clash>
0.0000

> <Gold.PLP.ligand.torsion>
2.8487

> <Gold.PLP.Chemscore.Hbond>
3.5920

> <Gold.PLP.Chemscore.CHOScore>
0.9495

> <Gold.PLP.Chemscore.Metal>
0.0000

> <Gold.Chemscore.Hbonds>
donor molecule, donor type, donor heavy atom, donor atom, acceptor molecule, acceptor atom, score
      L1  H    29    49       P1  7948  1.00
      P1  H  6896  6907       L1     3  1.50
      P1  H  7997  8009       L1    19  0.99
      L1  C    11    37       P1  7948  0.96

> <Gold.PLP.Chemscore.Internal.Correction>
0.3717

> <Gold.Rescore>
     Score         DG    S(hbond)    S(metal)    S(lipo)     H(rot)  DE(clash)    DE(int)     intcor
     14.29     -19.47       1.94        0.00     123.24       2.69       0.03       5.16       ----

> <Gold.Chemscore.Fitness>
14.2905

> <Gold.Chemscore.DG>
-19.4735

> <Gold.Chemscore.ZeroCoef>
-5.4800

> <Gold.Chemscore.Hbond>
1.9377

> <Gold.Chemscore.Metal>
0.0000

> <Gold.Chemscore.Lipo>
123.2414

> <Gold.Chemscore.Internal_Hbond>
0.0000

> <Gold.Chemscore.DEClash>
0.0255

> <Gold.Chemscore.DEInternal>
5.1576

> <Gold.Chemscore.Rot>
2.6944

> <Gold.Chemscore.Internal.Correction>
   9.000000E+99

> <Gold.Chemscore.Hbonds>
donor molecule, donor type, donor heavy atom, donor atom, acceptor molecule, acceptor atom, score
      L1  H    29    49       P1  7948  0.98
      P1  H  6896  6907       L1     3  0.03
      P1  H  7997  8009       L1    19  0.89

> <Gold.Chemscore.Hbond.Weighted>
-6.4718

> <Gold.Chemscore.Metal.Weighted>
-0.0000

> <Gold.Chemscore.Lipo.Weighted>
-14.4192

> <Gold.Chemscore.Internal_Hbond.Weighted>
0.0000

> <Gold.Chemscore.DEClash.Weighted>
0.0255

> <Gold.Chemscore.DEInternal.Weighted>
5.1576

> <Gold.Chemscore.Rot.Weighted>
6.8975

> <Gold.Chemscore.Internal.Correction.Weighted>
   9.000000E+99

> <Gold.Protein.RotatedTorsions>
[ 6907 6896 6895 6894 ] final -139.48 input  -60.11 | X-H torsion
[ 7974 7965 7964 7962 ] final   35.26 input  175.53 | X-H torsion
[ 8008 7997 7996 7995 ] final  171.41 input   59.86 | X-H torsion
[ 10167 10162 10161 10158 ] final  -85.34 input  -65.29 | X-H torsion
[ 10718 10713 10712 10709 ] final  104.18 input   66.30 | X-H torsion
[ 10763 10752 10751 10750 ] final -166.70 input  -60.55 | X-H torsion
[ 11005 11000 10999 10996 ] final  -39.40 input  -57.11 | X-H torsion

> <Gold.Protein.ActiveResidues>
 VAL166  LYS551  ARG553  GLY616  TRP617  ASP618  TYR619  PRO620  LYS621  CYS622 
 ASP623  PHE694  ASN695  SER759  ASP760  ASP761  ALA762  ILE779  LEU786  VAL792 
 PHE793  MET794  SER795  GLU796  ALA797  LYS798  CYS799  TRP800  GLU811  SER814 

> <Gold.Protein.RotatedAtoms>
  151.0483  133.5646  159.2644 H   0  0  0  0  0  0  0  0  0  0  0  0  # atno 6907 bound_to 6896
  151.2667  135.0670  159.9128 H   0  0  0  0  0  0  0  0  0  0  0  0  # atno 6908 bound_to 6896
  152.5377  134.0220  159.8040 H   0  0  0  0  0  0  0  0  0  0  0  0  # atno 6909 bound_to 6896
  146.1295  139.6165  142.9236 H   0  0  0  0  0  0  0  0  0  0  0  0  # atno 7974 bound_to 7965
  156.1274  140.1512  156.9116 H   0  0  0  0  0  0  0  0  0  0  0  0  # atno 8008 bound_to 7997
  154.4882  140.0859  156.7575 H   0  0  0  0  0  0  0  0  0  0  0  0  # atno 8009 bound_to 7997
  155.4319  140.3427  155.4283 H   0  0  0  0  0  0  0  0  0  0  0  0  # atno 8010 bound_to 7997
  140.4047  143.2648  151.9097 H   0  0  0  0  0  0  0  0  0  0  0  0  # atno 10167 bound_to 10162
  157.6748  131.0797  150.5668 H   0  0  0  0  0  0  0  0  0  0  0  0  # atno 10718 bound_to 10713
  154.6807  135.2954  154.9617 H   0  0  0  0  0  0  0  0  0  0  0  0  # atno 10763 bound_to 10752
  154.0613  135.6631  153.4816 H   0  0  0  0  0  0  0  0  0  0  0  0  # atno 10764 bound_to 10752
  153.0545  135.5153  154.7849 H   0  0  0  0  0  0  0  0  0  0  0  0  # atno 10765 bound_to 10752
  141.0099  133.6913  156.2181 H   0  0  0  0  0  0  0  0  0  0  0  0  # atno 11005 bound_to 11000
  145.5291  141.0428  143.2393 LP  0  0  0  0  0  0  0  0  0  0  0  0  # atno 17320 bound_to 7965
  144.7676  139.6809  143.7208 LP  0  0  0  0  0  0  0  0  0  0  0  0  # atno 17321 bound_to 7965
  139.4784  144.5598  151.8257 LP  0  0  0  0  0  0  0  0  0  0  0  0  # atno 17342 bound_to 10162
  140.4702  144.1597  150.5917 LP  0  0  0  0  0  0  0  0  0  0  0  0  # atno 17343 bound_to 10162
  156.5970  130.4344  149.5913 LP  0  0  0  0  0  0  0  0  0  0  0  0  # atno 17370 bound_to 10713
  156.2537  130.6922  151.1668 LP  0  0  0  0  0  0  0  0  0  0  0  0  # atno 17371 bound_to 10713
  140.6751  134.4826  157.5588 LP  0  0  0  0  0  0  0  0  0  0  0  0  # atno 17394 bound_to 11000
  139.9084  134.8399  156.1619 LP  0  0  0  0  0  0  0  0  0  0  0  0  # atno 17395 bound_to 11000

$$$$
