AV-unprocessed.smi:271|AV-procd|sdf|2050|dock5
  -GOLD-   2262021283D 1   1.00000     0.00000
 Structure written by MMmdl.
 58 60  0  0  0  0  0  0  0  0  1 V2000
  152.2145  145.0658  158.3688 C   0  0  0  0  0  0  0  0  0  0  0  0
  152.1048  143.9853  159.4556 C   0  0  0  0  0  0  0  0  0  0  0  0
  152.0968  144.6291  160.8526 C   0  0  0  0  0  0  0  0  0  0  0  0
  153.2270  142.9402  159.3006 C   0  0  0  0  0  0  0  0  0  0  0  0
  153.0550  141.7075  160.2131 C   0  0  0  0  0  0  0  0  0  0  0  0
  154.0823  140.6845  160.0175 N   0  0  0  0  0  0  0  0  0  0  0  0
  153.5728  139.3232  159.8674 C   0  0  0  0  0  0  0  0  0  0  0  0
  152.2834  139.2437  159.0343 C   0  0  0  0  0  0  0  0  0  0  0  0
  152.5420  139.3611  157.5919 C   0  0  0  0  0  0  0  0  0  0  0  0
  152.7451  139.4532  156.4567 N   0  0  0  0  0  0  0  0  0  0  0  0
  155.1077  140.7672  160.8958 C   0  0  0  0  0  0  0  0  0  0  0  0
  156.1845  139.9765  160.6654 N   0  0  0  0  0  0  0  0  0  0  0  0
  157.2318  140.0187  161.4942 C   0  0  0  0  0  0  0  0  0  0  0  0
  157.4019  140.7665  162.5866 N   0  0  0  0  0  0  0  0  0  0  0  0
  156.3201  141.5643  162.8195 C   0  0  0  0  0  0  0  0  0  0  0  0
  155.1358  141.6228  162.0331 C   0  0  0  0  0  0  0  0  0  0  0  0
  154.2467  142.5381  162.5815 N   0  0  0  0  0  0  0  0  0  0  0  0
  154.8713  142.9967  163.6313 C   0  0  0  0  0  0  0  0  0  0  0  0
  156.1311  142.4805  163.8410 N   0  0  0  0  0  0  0  0  0  0  0  0
  157.0466  142.8150  164.9233 C   0  0  0  0  0  0  0  0  0  0  0  0
  156.6339  142.2499  166.3109 C   0  0  1  0  0  0  0  0  0  0  0  0
  157.1323  140.8005  166.5217 C   0  0  0  0  0  0  0  0  0  0  0  0
  157.0755  140.4435  167.8868 O   0  0  0  0  0  0  0  0  0  0  0  0
  157.0680  143.1730  167.4803 C   0  0  2  0  0  0  0  0  0  0  0  0
  156.7673  144.6495  167.2797 C   0  0  0  0  0  0  0  0  0  0  0  0
  157.7045  145.3228  168.2786 C   0  0  0  0  0  0  0  0  0  0  0  0
  158.8140  144.4440  168.4304 O   0  0  0  0  0  0  0  0  0  0  0  0
  158.5826  143.2440  167.7027 C   0  0  0  0  0  0  0  0  0  0  0  0
  153.1564  145.6100  158.4448 H   0  0  0  0  0  0  0  0  0  0  0  0
  151.4040  145.7910  158.4504 H   0  0  0  0  0  0  0  0  0  0  0  0
  152.1624  144.6288  157.3711 H   0  0  0  0  0  0  0  0  0  0  0  0
  151.1487  143.4797  159.3136 H   0  0  0  0  0  0  0  0  0  0  0  0
  153.0455  145.1223  161.0673 H   0  0  0  0  0  0  0  0  0  0  0  0
  151.9191  143.8924  161.6355 H   0  0  0  0  0  0  0  0  0  0  0  0
  151.3084  145.3781  160.9333 H   0  0  0  0  0  0  0  0  0  0  0  0
  153.2540  142.5974  158.2653 H   0  0  0  0  0  0  0  0  0  0  0  0
  154.1876  143.4229  159.4849 H   0  0  0  0  0  0  0  0  0  0  0  0
  153.0411  142.0062  161.2609 H   0  0  0  0  0  0  0  0  0  0  0  0
  152.0828  141.2553  160.0131 H   0  0  0  0  0  0  0  0  0  0  0  0
  154.3416  138.6884  159.4250 H   0  0  0  0  0  0  0  0  0  0  0  0
  153.3751  138.9182  160.8605 H   0  0  0  0  0  0  0  0  0  0  0  0
  151.7769  138.2936  159.2053 H   0  0  0  0  0  0  0  0  0  0  0  0
  151.5878  140.0384  159.3047 H   0  0  0  0  0  0  0  0  0  0  0  0
  158.0515  139.3609  161.2456 H   0  0  0  0  0  0  0  0  0  0  0  0
  154.4251  143.7349  164.2806 H   0  0  0  0  0  0  0  0  0  0  0  0
  158.0418  142.4662  164.6475 H   0  0  0  0  0  0  0  0  0  0  0  0
  157.1284  143.9012  164.9743 H   0  0  0  0  0  0  0  0  0  0  0  0
  155.5433  142.2164  166.3235 H   0  0  0  0  0  0  0  0  0  0  0  0
  156.5540  140.0897  165.9312 H   0  0  0  0  0  0  0  0  0  0  0  0
  158.1710  140.6933  166.2118 H   0  0  0  0  0  0  0  0  0  0  0  0
  156.2559  140.7491  168.2443 H   0  0  0  0  0  0  0  0  0  0  0  0
  156.5868  142.8540  168.4058 H   0  0  0  0  0  0  0  0  0  0  0  0
  157.0247  144.9556  166.2646 H   0  0  0  0  0  0  0  0  0  0  0  0
  155.7232  144.9075  167.4586 H   0  0  0  0  0  0  0  0  0  0  0  0
  158.0226  146.3104  167.9440 H   0  0  0  0  0  0  0  0  0  0  0  0
  157.2163  145.4341  169.2474 H   0  0  0  0  0  0  0  0  0  0  0  0
  158.9778  142.3829  168.2402 H   0  0  0  0  0  0  0  0  0  0  0  0
  159.1088  143.3135  166.7494 H   0  0  0  0  0  0  0  0  0  0  0  0
  1  2  1  0  0  0  0
  1 29  1  0  0  0  0
  1 30  1  0  0  0  0
  1 31  1  0  0  0  0
  2  3  1  0  0  0  0
  2  4  1  0  0  0  0
  2 32  1  0  0  0  0
  3 33  1  0  0  0  0
  3 34  1  0  0  0  0
  3 35  1  0  0  0  0
  4  5  1  0  0  0  0
  4 36  1  0  0  0  0
  4 37  1  0  0  0  0
  5  6  1  0  0  0  0
  5 38  1  0  0  0  0
  5 39  1  0  0  0  0
  6  7  1  0  0  0  0
  6 11  1  0  0  0  0
  7  8  1  0  0  0  0
  7 40  1  0  0  0  0
  7 41  1  0  0  0  0
  8  9  1  0  0  0  0
  8 42  1  0  0  0  0
  8 43  1  0  0  0  0
  9 10  3  0  0  0  0
 11 16  1  0  0  0  0
 11 12  2  0  0  0  0
 12 13  1  0  0  0  0
 13 14  2  0  0  0  0
 13 44  1  0  0  0  0
 14 15  1  0  0  0  0
 15 19  1  0  0  0  0
 15 16  2  0  0  0  0
 16 17  1  0  0  0  0
 17 18  2  0  0  0  0
 18 19  1  0  0  0  0
 18 45  1  0  0  0  0
 19 20  1  0  0  0  0
 20 21  1  0  0  0  0
 20 46  1  0  0  0  0
 20 47  1  0  0  0  0
 21 22  1  0  0  0  0
 21 24  1  0  0  0  0
 21 48  1  0  0  0  0
 22 23  1  0  0  0  0
 22 49  1  0  0  0  0
 22 50  1  0  0  0  0
 23 51  1  0  0  0  0
 24 28  1  0  0  0  0
 24 25  1  0  0  0  0
 24 52  1  0  0  0  0
 25 26  1  0  0  0  0
 25 53  1  0  0  0  0
 25 54  1  0  0  0  0
 26 27  1  0  0  0  0
 26 55  1  0  0  0  0
 26 56  1  0  0  0  0
 27 28  1  0  0  0  0
 28 57  1  0  0  0  0
 28 58  1  0  0  0  0
M  END
> <s_m_source_file>
AV-unprocessed.smi

> <i_m_source_file_index>
271

> <i_lp_mmshare_version>
43012

> <i_f3d_flags>
0

> <s_epik_input>
W0NIM11bQ0hdKFtDSDNdKVtDSDJdW0NIMl1OKFtDSDJdW0NIMl1DI04pYyhuW2NIXW4xKWMoYzEyKW5bY0hdbjJbQ0gyXVtDQEhdKFtDSDJdW09IXSlbQ0BASF0zW0NIMl1bQ0gyXU9bQ0gyXTM=

> <s_epik_cmdline>
J2VwaWtfcHl0aG9uJywgJy1waCcsICc3LjAnLCAnLXRuJywgJzgnLCAnLW1hJywgJzIwMCcsICctbWV0YWxfYmluZGluZycsICctaW1hZScsICc8aW5maWxlLm1hZT4nLCAnLW9tYWUnLCAnPG91dGZpbGUubWFlPic=

> <r_lp_tautomer_probability>
1

> <r_epik_Ionization_Penalty>
0.000825874

> <r_epik_Ionization_Penalty_Charging>
0

> <r_epik_Ionization_Penalty_Neutral>
0.000825874

> <r_epik_State_Penalty>
0.000396768

> <r_epik_Charging_Adjusted_Penalty>
0.000396768

> <i_epik_Tot_Q>
0

> <i_epik_Tot_abs_Q>
0

> <r_epik_Metal_State_Penalty>
-0

> <b_epik_Metal_Only>
0

> <s_lp_Force_Field>
OPLS_2005

> <r_lp_Energy>
35.3128

> <b_lp_Chiralities_Consistent>
1

> <s_lp_Variant>
AV-unprocessed.smi:271-2

> <Gold.Version>
5.8.1

> <Gold.Id.Protein>
6NUR|6NUR_protein|mol2

> <Gold.PLP.Fitness>
54.6520

> <Gold.PLP.PLP>
-54.1121

> <Gold.PLP.part.hbond>
-4.0000

> <Gold.PLP.part.metal>
0.0000

> <Gold.PLP.part.buried>
-0.1945

> <Gold.PLP.part.nonpolar>
-49.3320

> <Gold.PLP.part.repulsive>
0.1806

> <Gold.PLP.ligand.clash>
0.0000

> <Gold.PLP.ligand.torsion>
1.6662

> <Gold.PLP.Chemscore.Hbond>
1.0000

> <Gold.PLP.Chemscore.CHOScore>
0.0000

> <Gold.PLP.Chemscore.Metal>
0.0000

> <Gold.Chemscore.Hbonds>
donor molecule, donor type, donor heavy atom, donor atom, acceptor molecule, acceptor atom, score
      P1  H  7997  8009       L1    10  0.70

> <Gold.PLP.Chemscore.Internal.Correction>
0.8722

> <Gold.Rescore>
     Score         DG    S(hbond)    S(metal)    S(lipo)     H(rot)  DE(clash)    DE(int)     intcor
      7.11     -13.04       0.90        0.00     121.22       3.77       3.17       2.76       ----

> <Gold.Chemscore.Fitness>
7.1098

> <Gold.Chemscore.DG>
-13.0351

> <Gold.Chemscore.ZeroCoef>
-5.4800

> <Gold.Chemscore.Hbond>
0.9040

> <Gold.Chemscore.Metal>
0.0000

> <Gold.Chemscore.Lipo>
121.2183

> <Gold.Chemscore.Internal_Hbond>
0.0000

> <Gold.Chemscore.DEClash>
3.1691

> <Gold.Chemscore.DEInternal>
2.7561

> <Gold.Chemscore.Rot>
3.7683

> <Gold.Chemscore.Internal.Correction>
   9.000000E+99

> <Gold.Chemscore.Hbonds>
donor molecule, donor type, donor heavy atom, donor atom, acceptor molecule, acceptor atom, score
      P1  H  7997  8009       L1    10  0.07

> <Gold.Chemscore.Hbond.Weighted>
-3.0193

> <Gold.Chemscore.Metal.Weighted>
-0.0000

> <Gold.Chemscore.Lipo.Weighted>
-14.1825

> <Gold.Chemscore.Internal_Hbond.Weighted>
0.0000

> <Gold.Chemscore.DEClash.Weighted>
3.1691

> <Gold.Chemscore.DEInternal.Weighted>
2.7561

> <Gold.Chemscore.Rot.Weighted>
9.6468

> <Gold.Chemscore.Internal.Correction.Weighted>
   9.000000E+99

> <Gold.Protein.RotatedTorsions>
[ 6907 6896 6895 6894 ] final -138.17 input  -60.11 | X-H torsion
[ 7974 7965 7964 7962 ] final  -42.55 input  175.53 | X-H torsion
[ 8008 7997 7996 7995 ] final  176.17 input   59.86 | X-H torsion
[ 10167 10162 10161 10158 ] final  -21.31 input  -65.29 | X-H torsion
[ 10718 10713 10712 10709 ] final -136.17 input   66.30 | X-H torsion
[ 10763 10752 10751 10750 ] final   -3.74 input  -60.55 | X-H torsion
[ 11005 11000 10999 10996 ] final  -37.26 input  -57.11 | X-H torsion

> <Gold.Protein.ActiveResidues>
 VAL166  LYS551  ARG553  GLY616  TRP617  ASP618  TYR619  PRO620  LYS621  CYS622 
 ASP623  PHE694  ASN695  SER759  ASP760  ASP761  ALA762  ILE779  LEU786  VAL792 
 PHE793  MET794  SER795  GLU796  ALA797  LYS798  CYS799  TRP800  GLU811  SER814 

> <Gold.Protein.RotatedAtoms>
  151.0316  133.5785  159.2659 H   0  0  0  0  0  0  0  0  0  0  0  0  # atno 6907 bound_to 6896
  151.2864  135.0728  159.9198 H   0  0  0  0  0  0  0  0  0  0  0  0  # atno 6908 bound_to 6896
  152.5346  134.0022  159.7954 H   0  0  0  0  0  0  0  0  0  0  0  0  # atno 6909 bound_to 6896
  146.0105  140.6970  142.9226 H   0  0  0  0  0  0  0  0  0  0  0  0  # atno 7974 bound_to 7965
  156.0793  140.1390  156.9732 H   0  0  0  0  0  0  0  0  0  0  0  0  # atno 8008 bound_to 7997
  154.4576  140.0955  156.6851 H   0  0  0  0  0  0  0  0  0  0  0  0  # atno 8009 bound_to 7997
  155.5101  140.3453  155.4389 H   0  0  0  0  0  0  0  0  0  0  0  0  # atno 8010 bound_to 7997
  140.7281  143.4640  151.0340 H   0  0  0  0  0  0  0  0  0  0  0  0  # atno 10167 bound_to 10162
  156.2741  130.7283  151.1259 H   0  0  0  0  0  0  0  0  0  0  0  0  # atno 10718 bound_to 10713
  153.3754  135.6996  153.6606 H   0  0  0  0  0  0  0  0  0  0  0  0  # atno 10763 bound_to 10752
  153.5239  135.3606  155.2645 H   0  0  0  0  0  0  0  0  0  0  0  0  # atno 10764 bound_to 10752
  154.8686  135.4164  154.3040 H   0  0  0  0  0  0  0  0  0  0  0  0  # atno 10765 bound_to 10752
  140.9938  133.6991  156.1898 H   0  0  0  0  0  0  0  0  0  0  0  0  # atno 11005 bound_to 11000
  144.6951  140.3390  143.7202 LP  0  0  0  0  0  0  0  0  0  0  0  0  # atno 17320 bound_to 7965
  145.7349  139.1747  143.2409 LP  0  0  0  0  0  0  0  0  0  0  0  0  # atno 17321 bound_to 7965
  139.8327  143.7670  152.3180 LP  0  0  0  0  0  0  0  0  0  0  0  0  # atno 17342 bound_to 10162
  139.7791  144.7451  151.0114 LP  0  0  0  0  0  0  0  0  0  0  0  0  # atno 17343 bound_to 10162
  157.7293  131.0625  150.5777 LP  0  0  0  0  0  0  0  0  0  0  0  0  # atno 17370 bound_to 10713
  156.5877  130.4321  149.5950 LP  0  0  0  0  0  0  0  0  0  0  0  0  # atno 17371 bound_to 10713
  140.6998  134.4577  157.5586 LP  0  0  0  0  0  0  0  0  0  0  0  0  # atno 17394 bound_to 11000
  139.9005  134.8567  156.1917 LP  0  0  0  0  0  0  0  0  0  0  0  0  # atno 17395 bound_to 11000

$$$$
