AV-unprocessed.smi:507|AV-procd|sdf|2752|dock1
  -GOLD-   2262023223D 1   1.00000     0.00000
 Structure written by MMmdl.
 34 35  0  0  0  0  0  0  0  0  2 V2000
  153.4042  142.3009  161.5767 C   0  0  0  0  0  0  0  0  0  0  0  0
  152.7275  142.1324  160.2277 C   0  0  0  0  0  0  0  0  0  0  0  0
  153.0319  140.9969  159.4433 C   0  0  0  0  0  0  0  0  0  0  0  0
  152.4242  140.8029  158.1837 C   0  0  0  0  0  0  0  0  0  0  0  0
  152.5728  139.7818  157.2608 N   0  0  0  0  0  0  0  0  0  0  0  0
  151.7415  140.1678  156.2972 C   0  0  0  0  0  0  0  0  0  0  0  0
  151.0677  141.3186  156.4888 N   0  0  0  0  0  0  0  0  0  0  0  0
  150.1059  141.9355  155.5931 C   0  0  0  0  0  0  0  0  0  0  0  0
  149.2727  140.8930  154.8225 C   0  0  2  0  0  0  0  0  0  0  0  0
  149.7775  140.7698  153.5062 O   0  0  0  0  0  0  0  0  0  0  0  0
  147.7859  141.2774  154.7501 C   0  0  0  0  0  0  0  0  0  0  0  0
  147.6061  142.6366  154.2099 N   0  3  0  0  0  0  0  0  0  0  0  0
  151.4936  141.7821  157.7286 C   0  0  0  0  0  0  0  0  0  0  0  0
  151.1839  142.9172  158.4985 C   0  0  0  0  0  0  0  0  0  0  0  0
  151.8021  143.0967  159.7536 C   0  0  0  0  0  0  0  0  0  0  0  0
  151.4635  144.3263  160.5778 C   0  0  0  0  0  0  0  0  0  0  0  0
  154.0864  141.4766  161.7858 H   0  0  0  0  0  0  0  0  0  0  0  0
  152.6623  142.3313  162.3749 H   0  0  0  0  0  0  0  0  0  0  0  0
  153.9802  143.2261  161.6023 H   0  0  0  0  0  0  0  0  0  0  0  0
  153.7375  140.2627  159.8036 H   0  0  0  0  0  0  0  0  0  0  0  0
  151.6106  139.5767  155.4025 H   0  0  0  0  0  0  0  0  0  0  0  0
  149.4530  142.5748  156.1887 H   0  0  0  0  0  0  0  0  0  0  0  0
  150.6384  142.5909  154.9022 H   0  0  0  0  0  0  0  0  0  0  0  0
  149.3698  139.9254  155.3175 H   0  0  0  0  0  0  0  0  0  0  0  0
  149.1906  140.2238  153.0049 H   0  0  0  0  0  0  0  0  0  0  0  0
  147.2524  140.5869  154.0959 H   0  0  0  0  0  0  0  0  0  0  0  0
  147.3179  141.2111  155.7332 H   0  0  0  0  0  0  0  0  0  0  0  0
  146.6352  142.9053  154.2804 H   0  0  0  0  0  0  0  0  0  0  0  0
  147.8924  142.6551  153.2417 H   0  0  0  0  0  0  0  0  0  0  0  0
  150.4774  143.6438  158.1259 H   0  0  0  0  0  0  0  0  0  0  0  0
  150.7368  144.9597  160.0683 H   0  0  0  0  0  0  0  0  0  0  0  0
  152.3578  144.9229  160.7589 H   0  0  0  0  0  0  0  0  0  0  0  0
  151.0388  144.0370  161.5393 H   0  0  0  0  0  0  0  0  0  0  0  0
  148.1746  143.2830  154.7385 H   0  0  0  0  0  0  0  0  0  0  0  0
  1  2  1  0  0  0  0
  1 17  1  0  0  0  0
  1 18  1  0  0  0  0
  1 19  1  0  0  0  0
  2 15  1  0  0  0  0
  2  3  2  0  0  0  0
  3  4  1  0  0  0  0
  3 20  1  0  0  0  0
  4 13  2  0  0  0  0
  4  5  1  0  0  0  0
  5  6  2  0  0  0  0
  6  7  1  0  0  0  0
  6 21  1  0  0  0  0
  7  8  1  0  0  0  0
  7 13  1  0  0  0  0
  8  9  1  0  0  0  0
  8 22  1  0  0  0  0
  8 23  1  0  0  0  0
  9 10  1  0  0  0  0
  9 11  1  0  0  0  0
  9 24  1  0  0  0  0
 10 25  1  0  0  0  0
 11 12  1  0  0  0  0
 11 26  1  0  0  0  0
 11 27  1  0  0  0  0
 12 28  1  0  0  0  0
 12 29  1  0  0  0  0
 12 34  1  0  0  0  0
 13 14  1  0  0  0  0
 14 15  2  0  0  0  0
 14 30  1  0  0  0  0
 15 16  1  0  0  0  0
 16 31  1  0  0  0  0
 16 32  1  0  0  0  0
 16 33  1  0  0  0  0
M  CHG  1  12   1
M  END
> <s_m_source_file>
AV-unprocessed.smi

> <i_m_source_file_index>
507

> <i_lp_mmshare_version>
43012

> <i_f3d_flags>
0

> <s_epik_input>
W0NIM11jKFtjSF0xKWMoW0NIM10pW2NIXWMoYzEyKW4oW2NIXW4yKVtDSDJdW0NASF0oW09IXSlbQ0gyXVtOSDJd

> <s_epik_cmdline>
J2VwaWtfcHl0aG9uJywgJy1waCcsICc3LjAnLCAnLXRuJywgJzgnLCAnLW1hJywgJzIwMCcsICctbWV0YWxfYmluZGluZycsICctaW1hZScsICc8aW5maWxlLm1hZT4nLCAnLW9tYWUnLCAnPG91dGZpbGUubWFlPic=

> <r_epik_Ionization_Penalty>
0.102893

> <r_epik_Ionization_Penalty_Charging>
0.0134096

> <r_epik_Ionization_Penalty_Neutral>
0.0894835

> <r_epik_State_Penalty>
0.093868

> <r_epik_Charging_Adjusted_Penalty>
0.107278

> <i_epik_Tot_Q>
1

> <i_epik_Tot_abs_Q>
1

> <r_epik_Metal_State_Penalty>
0.010477

> <b_epik_Metal_Only>
0

> <s_lp_Force_Field>
OPLS_2005

> <r_lp_Energy>
7.44215

> <b_lp_Chiralities_Consistent>
1

> <s_lp_Variant>
AV-unprocessed.smi:507-1

> <Gold.Version>
5.8.1

> <Gold.Id.Protein>
6NUR|6NUR_protein|mol2

> <Gold.PLP.Fitness>
50.7168

> <Gold.PLP.PLP>
-38.6084

> <Gold.PLP.part.hbond>
-4.4926

> <Gold.PLP.part.metal>
0.0000

> <Gold.PLP.part.buried>
-2.9278

> <Gold.PLP.part.nonpolar>
-29.7442

> <Gold.PLP.part.repulsive>
0.1975

> <Gold.PLP.ligand.clash>
0.0000

> <Gold.PLP.ligand.torsion>
0.9800

> <Gold.PLP.Chemscore.Hbond>
4.6880

> <Gold.PLP.Chemscore.CHOScore>
0.0000

> <Gold.PLP.Chemscore.Metal>
0.0000

> <Gold.Chemscore.Hbonds>
donor molecule, donor type, donor heavy atom, donor atom, acceptor molecule, acceptor atom, score
      L1  H    10    25       P1  7957  0.32
      L1  H    12    34       P1  8028  2.00
      P1  H  7989  7998       L1    10  0.37
      P1  H  7997  8009       L1     5  1.00
      P1  H  8011  8017       L1    10  1.00

> <Gold.PLP.Chemscore.Internal.Correction>
0.0044

> <Gold.Rescore>
     Score         DG    S(hbond)    S(metal)    S(lipo)     H(rot)  DE(clash)    DE(int)     intcor
     18.63     -20.77       2.85        0.00      98.97       2.27       1.18       0.97       ----

> <Gold.Chemscore.Fitness>
18.6265

> <Gold.Chemscore.DG>
-20.7733

> <Gold.Chemscore.ZeroCoef>
-5.4800

> <Gold.Chemscore.Hbond>
2.8534

> <Gold.Chemscore.Metal>
0.0000

> <Gold.Chemscore.Lipo>
98.9651

> <Gold.Chemscore.Internal_Hbond>
0.0000

> <Gold.Chemscore.DEClash>
1.1792

> <Gold.Chemscore.DEInternal>
0.9676

> <Gold.Chemscore.Rot>
2.2718

> <Gold.Chemscore.Internal.Correction>
   9.000000E+99

> <Gold.Chemscore.Hbonds>
donor molecule, donor type, donor heavy atom, donor atom, acceptor molecule, acceptor atom, score
      L1  H    10    25       P1  7957  0.32
      L1  H    12    34       P1  8028  0.96
      P1  H  7989  7998       L1    10  0.30
      P1  H  7997  8009       L1     5  0.15
      P1  H  8011  8017       L1    10  0.23

> <Gold.Chemscore.Hbond.Weighted>
-9.5303

> <Gold.Chemscore.Metal.Weighted>
-0.0000

> <Gold.Chemscore.Lipo.Weighted>
-11.5789

> <Gold.Chemscore.Internal_Hbond.Weighted>
0.0000

> <Gold.Chemscore.DEClash.Weighted>
1.1792

> <Gold.Chemscore.DEInternal.Weighted>
0.9676

> <Gold.Chemscore.Rot.Weighted>
5.8159

> <Gold.Chemscore.Internal.Correction.Weighted>
   9.000000E+99

> <Gold.Protein.RotatedTorsions>
[ 6907 6896 6895 6894 ] final  -98.96 input  -60.11 | X-H torsion
[ 7974 7965 7964 7962 ] final  -94.96 input  175.53 | X-H torsion
[ 8008 7997 7996 7995 ] final -170.33 input   59.86 | X-H torsion
[ 10167 10162 10161 10158 ] final   18.83 input  -65.29 | X-H torsion
[ 10718 10713 10712 10709 ] final   75.77 input   66.30 | X-H torsion
[ 10763 10752 10751 10750 ] final  -37.09 input  -60.55 | X-H torsion
[ 11005 11000 10999 10996 ] final   64.78 input  -57.11 | X-H torsion

> <Gold.Protein.ActiveResidues>
 VAL166  LYS551  ARG553  GLY616  TRP617  ASP618  TYR619  PRO620  LYS621  CYS622 
 ASP623  PHE694  ASN695  SER759  ASP760  ASP761  ALA762  ILE779  LEU786  VAL792 
 PHE793  MET794  SER795  GLU796  ALA797  LYS798  CYS799  TRP800  GLU811  SER814 

> <Gold.Protein.RotatedAtoms>
  150.7064  134.1114  159.4001 H   0  0  0  0  0  0  0  0  0  0  0  0  # atno 6907 bound_to 6896
  151.9101  135.0340  160.0523 H   0  0  0  0  0  0  0  0  0  0  0  0  # atno 6908 bound_to 6896
  152.2343  133.5048  159.5270 H   0  0  0  0  0  0  0  0  0  0  0  0  # atno 6909 bound_to 6896
  145.3663  140.9499  143.2472 H   0  0  0  0  0  0  0  0  0  0  0  0  # atno 7974 bound_to 7965
  155.9169  140.1067  157.1237 H   0  0  0  0  0  0  0  0  0  0  0  0  # atno 8008 bound_to 7997
  154.4048  140.1263  156.4693 H   0  0  0  0  0  0  0  0  0  0  0  0  # atno 8009 bound_to 7997
  155.7243  140.3469  155.5032 H   0  0  0  0  0  0  0  0  0  0  0  0  # atno 8010 bound_to 7997
  140.5624  143.9312  150.6652 H   0  0  0  0  0  0  0  0  0  0  0  0  # atno 10167 bound_to 10162
  157.6647  130.9742  150.1401 H   0  0  0  0  0  0  0  0  0  0  0  0  # atno 10718 bound_to 10713
  153.8905  135.6812  153.4761 H   0  0  0  0  0  0  0  0  0  0  0  0  # atno 10763 bound_to 10752
  153.1183  135.4751  154.9151 H   0  0  0  0  0  0  0  0  0  0  0  0  # atno 10764 bound_to 10752
  154.7625  135.3214  154.8304 H   0  0  0  0  0  0  0  0  0  0  0  0  # atno 10765 bound_to 10752
  139.9937  134.6551  156.0047 H   0  0  0  0  0  0  0  0  0  0  0  0  # atno 11005 bound_to 11000
  144.8609  139.5179  143.6812 LP  0  0  0  0  0  0  0  0  0  0  0  0  # atno 17320 bound_to 7965
  146.2905  139.7126  142.9164 LP  0  0  0  0  0  0  0  0  0  0  0  0  # atno 17321 bound_to 7965
  140.2766  143.3418  152.1189 LP  0  0  0  0  0  0  0  0  0  0  0  0  # atno 17342 bound_to 10162
  139.5077  144.6836  151.5945 LP  0  0  0  0  0  0  0  0  0  0  0  0  # atno 17343 bound_to 10162
  156.2226  130.3675  149.8538 LP  0  0  0  0  0  0  0  0  0  0  0  0  # atno 17370 bound_to 10713
  156.6387  130.8696  151.3509 LP  0  0  0  0  0  0  0  0  0  0  0  0  # atno 17371 bound_to 10713
  141.1587  133.6540  156.4245 LP  0  0  0  0  0  0  0  0  0  0  0  0  # atno 17394 bound_to 11000
  140.4860  134.6620  157.5191 LP  0  0  0  0  0  0  0  0  0  0  0  0  # atno 17395 bound_to 11000

$$$$
