AV-unprocessed.smi:1979|AV-procd|sdf|8016|dock4
  -GOLD-   2272010203D 1   1.00000     0.00000
 Structure written by MMmdl.
 28 28  0  0  0  0  0  0  0  0  1 V2000
  152.1199  132.3353  157.6860 N   0  0  0  0  0  0  0  0  0  0  0  0
  151.3808  132.2597  156.7992 C   0  0  0  0  0  0  0  0  0  0  0  0
  150.4531  132.1647  155.6852 C   0  0  0  0  0  0  0  0  0  0  0  0
  149.8825  133.3214  155.1193 C   0  0  0  0  0  0  0  0  0  0  0  0
  148.9888  133.1797  154.0399 C   0  0  0  0  0  0  0  0  0  0  0  0
  148.6972  131.8787  153.5632 C   0  0  0  0  0  0  0  0  0  0  0  0
  147.8239  131.6444  152.4935 N   0  0  0  0  0  0  0  0  0  0  0  0
  146.5290  132.3053  152.4356 C   0  0  0  0  0  0  0  0  0  0  0  0
  145.6378  131.7041  151.3440 C   0  0  0  0  0  0  0  0  0  0  0  0
  144.3212  132.2096  151.4909 O   0  0  0  0  0  0  0  0  0  0  0  0
  144.0381  133.2751  150.5988 C   0  0  0  0  0  0  0  0  0  0  0  0
  144.0298  132.7373  149.1629 C   0  0  0  0  0  0  0  0  0  0  0  0
  142.7819  132.1446  148.8737 O   0  0  0  0  0  0  0  0  0  0  0  0
  149.2436  130.7697  154.1083 N   0  0  0  0  0  0  0  0  0  0  0  0
  150.1004  130.9127  155.1426 C   0  0  0  0  0  0  0  0  0  0  0  0
  150.1213  134.3036  155.5015 H   0  0  0  0  0  0  0  0  0  0  0  0
  148.5452  134.0611  153.6016 H   0  0  0  0  0  0  0  0  0  0  0  0
  148.1871  131.2272  151.6484 H   0  0  0  0  0  0  0  0  0  0  0  0
  146.0380  132.1886  153.4022 H   0  0  0  0  0  0  0  0  0  0  0  0
  146.6611  133.3745  152.2650 H   0  0  0  0  0  0  0  0  0  0  0  0
  146.0347  131.9296  150.3528 H   0  0  0  0  0  0  0  0  0  0  0  0
  145.6214  130.6185  151.4501 H   0  0  0  0  0  0  0  0  0  0  0  0
  143.0509  133.6746  150.8364 H   0  0  0  0  0  0  0  0  0  0  0  0
  144.7538  134.0918  150.7100 H   0  0  0  0  0  0  0  0  0  0  0  0
  144.2563  133.5240  148.4426 H   0  0  0  0  0  0  0  0  0  0  0  0
  144.7935  131.9672  149.0518 H   0  0  0  0  0  0  0  0  0  0  0  0
  142.1158  132.8139  148.9092 H   0  0  0  0  0  0  0  0  0  0  0  0
  150.5135  129.9986  155.5444 H   0  0  0  0  0  0  0  0  0  0  0  0
  1  2  3  0  0  0  0
  2  3  1  0  0  0  0
  3 15  1  0  0  0  0
  3  4  2  0  0  0  0
  4  5  1  0  0  0  0
  4 16  1  0  0  0  0
  5  6  2  0  0  0  0
  5 17  1  0  0  0  0
  6  7  1  0  0  0  0
  6 14  1  0  0  0  0
  7  8  1  0  0  0  0
  7 18  1  0  0  0  0
  8  9  1  0  0  0  0
  8 19  1  0  0  0  0
  8 20  1  0  0  0  0
  9 10  1  0  0  0  0
  9 21  1  0  0  0  0
  9 22  1  0  0  0  0
 10 11  1  0  0  0  0
 11 12  1  0  0  0  0
 11 23  1  0  0  0  0
 11 24  1  0  0  0  0
 12 13  1  0  0  0  0
 12 25  1  0  0  0  0
 12 26  1  0  0  0  0
 13 27  1  0  0  0  0
 14 15  2  0  0  0  0
 15 28  1  0  0  0  0
M  END
> <s_m_source_file>
AV-unprocessed.smi

> <i_m_source_file_index>
1979

> <i_lp_mmshare_version>
43012

> <i_f3d_flags>
0

> <s_epik_input>
TiNDYzFbY0hdW2NIXWMobltjSF0xKVtOSF1bQ0gyXVtDSDJdT1tDSDJdW0NIMl1bT0hd

> <s_epik_cmdline>
J2VwaWtfcHl0aG9uJywgJy1waCcsICc3LjAnLCAnLXRuJywgJzgnLCAnLW1hJywgJzIwMCcsICctbWV0YWxfYmluZGluZycsICctaW1hZScsICc8aW5maWxlLm1hZT4nLCAnLW9tYWUnLCAnPG91dGZpbGUubWFlPic=

> <r_lp_tautomer_probability>
1

> <r_epik_Ionization_Penalty>
1.11368e-05

> <r_epik_Ionization_Penalty_Charging>
0

> <r_epik_Ionization_Penalty_Neutral>
1.11368e-05

> <r_epik_State_Penalty>
-0

> <r_epik_Charging_Adjusted_Penalty>
0

> <i_epik_Tot_Q>
0

> <i_epik_Tot_abs_Q>
0

> <r_epik_Metal_State_Penalty>
-0

> <b_epik_Metal_Only>
0

> <s_lp_Force_Field>
OPLS_2005

> <r_lp_Energy>
5.28627

> <b_lp_Chiralities_Consistent>
1

> <s_lp_Variant>
AV-unprocessed.smi:1979-1

> <Gold.Version>
5.8.1

> <Gold.Id.Protein>
6NUR|6NUR_protein|mol2

> <Gold.PLP.Fitness>
42.8551

> <Gold.PLP.PLP>
-32.6564

> <Gold.PLP.part.hbond>
-5.0000

> <Gold.PLP.part.metal>
0.0000

> <Gold.PLP.part.buried>
-6.5478

> <Gold.PLP.part.nonpolar>
-22.2074

> <Gold.PLP.part.repulsive>
0.2315

> <Gold.PLP.ligand.clash>
0.0000

> <Gold.PLP.ligand.torsion>
0.8832

> <Gold.PLP.Chemscore.Hbond>
3.9750

> <Gold.PLP.Chemscore.CHOScore>
0.0000

> <Gold.PLP.Chemscore.Metal>
0.0000

> <Gold.Chemscore.Hbonds>
donor molecule, donor type, donor heavy atom, donor atom, acceptor molecule, acceptor atom, score
      L1  H     7    18       P1 10747  1.00
      L1  H    13    27       P1 10186  0.98
      P1  H  6896  6908       L1     1  1.00
      P1  H 10785 10796       L1    13  0.96

> <Gold.PLP.Chemscore.Internal.Correction>
0.0401

> <Gold.Rescore>
     Score         DG    S(hbond)    S(metal)    S(lipo)     H(rot)  DE(clash)    DE(int)     intcor
     15.54     -16.50       3.60        0.00      54.52       2.88       0.00       0.97       ----

> <Gold.Chemscore.Fitness>
15.5363

> <Gold.Chemscore.DG>
-16.5026

> <Gold.Chemscore.ZeroCoef>
-5.4800

> <Gold.Chemscore.Hbond>
3.5967

> <Gold.Chemscore.Metal>
0.0000

> <Gold.Chemscore.Lipo>
54.5247

> <Gold.Chemscore.Internal_Hbond>
0.0000

> <Gold.Chemscore.DEClash>
0.0000

> <Gold.Chemscore.DEInternal>
0.9664

> <Gold.Chemscore.Rot>
2.8788

> <Gold.Chemscore.Internal.Correction>
   9.000000E+99

> <Gold.Chemscore.Hbonds>
donor molecule, donor type, donor heavy atom, donor atom, acceptor molecule, acceptor atom, score
      L1  H     7    18       P1 10747  0.99
      L1  H    13    27       P1 10186  0.92
      P1  H  6896  6908       L1     1  0.97
      P1  H 10785 10796       L1    13  0.45

> <Gold.Chemscore.Hbond.Weighted>
-12.0131

> <Gold.Chemscore.Metal.Weighted>
-0.0000

> <Gold.Chemscore.Lipo.Weighted>
-6.3794

> <Gold.Chemscore.Internal_Hbond.Weighted>
0.0000

> <Gold.Chemscore.DEClash.Weighted>
0.0000

> <Gold.Chemscore.DEInternal.Weighted>
0.9664

> <Gold.Chemscore.Rot.Weighted>
7.3699

> <Gold.Chemscore.Internal.Correction.Weighted>
   9.000000E+99

> <Gold.Protein.RotatedTorsions>
[ 6907 6896 6895 6894 ] final   43.21 input  -60.11 | X-H torsion
[ 7974 7965 7964 7962 ] final -116.31 input  175.53 | X-H torsion
[ 8008 7997 7996 7995 ] final   25.73 input   59.86 | X-H torsion
[ 10167 10162 10161 10158 ] final  160.62 input  -65.29 | X-H torsion
[ 10718 10713 10712 10709 ] final   32.37 input   66.30 | X-H torsion
[ 10763 10752 10751 10750 ] final   68.26 input  -60.55 | X-H torsion
[ 11005 11000 10999 10996 ] final   62.92 input  -57.11 | X-H torsion

> <Gold.Protein.ActiveResidues>
 VAL166  LYS551  ARG553  GLY616  TRP617  ASP618  TYR619  PRO620  LYS621  CYS622 
 ASP623  PHE694  ASN695  SER759  ASP760  ASP761  ALA762  ILE779  LEU786  VAL792 
 PHE793  MET794  SER795  GLU796  ALA797  LYS798  CYS799  TRP800  GLU811  SER814 

> <Gold.Protein.RotatedAtoms>
  152.2175  134.8444  160.0489 H   0  0  0  0  0  0  0  0  0  0  0  0  # atno 6907 bound_to 6896
  151.9240  133.3588  159.3915 H   0  0  0  0  0  0  0  0  0  0  0  0  # atno 6908 bound_to 6896
  150.6991  134.4531  159.5389 H   0  0  0  0  0  0  0  0  0  0  0  0  # atno 6909 bound_to 6896
  145.0983  140.8535  143.3941 H   0  0  0  0  0  0  0  0  0  0  0  0  # atno 7974 bound_to 7965
  155.0162  140.3142  155.4811 H   0  0  0  0  0  0  0  0  0  0  0  0  # atno 8008 bound_to 7997
  156.2900  140.2205  156.5220 H   0  0  0  0  0  0  0  0  0  0  0  0  # atno 8009 bound_to 7997
  154.7491  140.0467  157.0866 H   0  0  0  0  0  0  0  0  0  0  0  0  # atno 8010 bound_to 7997
  139.4841  144.4617  151.8696 H   0  0  0  0  0  0  0  0  0  0  0  0  # atno 10167 bound_to 10162
  157.2843  130.7271  149.6574 H   0  0  0  0  0  0  0  0  0  0  0  0  # atno 10718 bound_to 10713
  153.0227  135.5254  154.7107 H   0  0  0  0  0  0  0  0  0  0  0  0  # atno 10763 bound_to 10752
  154.6190  135.2887  155.0349 H   0  0  0  0  0  0  0  0  0  0  0  0  # atno 10764 bound_to 10752
  154.1342  135.6588  153.4981 H   0  0  0  0  0  0  0  0  0  0  0  0  # atno 10765 bound_to 10752
  140.0059  134.6370  155.9856 H   0  0  0  0  0  0  0  0  0  0  0  0  # atno 11005 bound_to 11000
  145.0985  139.2839  143.5698 LP  0  0  0  0  0  0  0  0  0  0  0  0  # atno 17320 bound_to 7965
  146.3530  140.0545  142.8633 LP  0  0  0  0  0  0  0  0  0  0  0  0  # atno 17321 bound_to 7965
  140.4079  144.2407  150.5890 LP  0  0  0  0  0  0  0  0  0  0  0  0  # atno 17342 bound_to 10162
  140.4994  143.2322  151.8701 LP  0  0  0  0  0  0  0  0  0  0  0  0  # atno 17343 bound_to 10162
  155.9665  130.4328  150.4980 LP  0  0  0  0  0  0  0  0  0  0  0  0  # atno 17370 bound_to 10713
  157.2930  131.0630  151.2121 LP  0  0  0  0  0  0  0  0  0  0  0  0  # atno 17371 bound_to 10713
  141.1676  133.6537  156.4537 LP  0  0  0  0  0  0  0  0  0  0  0  0  # atno 17394 bound_to 11000
  140.4642  134.6813  157.5099 LP  0  0  0  0  0  0  0  0  0  0  0  0  # atno 17395 bound_to 11000

$$$$
