AV-unprocessed.smi:36|AV-procd|sdf|284|dock1
  -GOLD-   2262016 63D 1   1.00000     0.00000
 Structure written by MMmdl.
 64 67  0  0  0  0  0  0  0  0  1 V2000
  145.8082  134.9380  160.3174 C   0  0  0  0  0  0  0  0  0  0  0  0
  146.5255  133.9519  161.2540 C   0  0  0  0  0  0  0  0  0  0  0  0
  147.6010  134.6915  162.0675 C   0  0  0  0  0  0  0  0  0  0  0  0
  145.5097  133.3036  162.2092 C   0  0  0  0  0  0  0  0  0  0  0  0
  147.3629  132.5839  160.2163 Si  0  0  0  0  0  0  0  0  0  0  0  0
  148.3700  131.4045  161.3133 C   0  0  0  0  0  0  0  0  0  0  0  0
  146.0806  131.5987  159.2180 C   0  0  0  0  0  0  0  0  0  0  0  0
  148.4242  133.3354  159.1356 O   0  0  0  0  0  0  0  0  0  0  0  0
  147.9991  134.0892  158.0205 C   0  0  0  0  0  0  0  0  0  0  0  0
  148.9320  133.7975  156.8387 C   0  0  1  0  0  0  0  0  0  0  0  0
  148.7764  134.7765  155.8066 O   0  0  0  0  0  0  0  0  0  0  0  0
  150.0244  135.2324  155.3691 C   0  0  1  0  0  0  0  0  0  0  0  0
  150.2783  136.5749  155.9880 N   0  0  0  0  0  0  0  0  0  0  0  0
  149.5250  137.2725  156.9102 C   0  0  0  0  0  0  0  0  0  0  0  0
  150.0055  138.4349  157.2625 N   0  0  0  0  0  0  0  0  0  0  0  0
  151.1607  138.5654  156.5033 C   0  0  0  0  0  0  0  0  0  0  0  0
  152.1502  139.5756  156.3828 C   0  0  0  0  0  0  0  0  0  0  0  0
  152.0709  140.6993  157.1332 N   0  0  0  0  0  0  0  0  0  0  0  0
  152.7048  140.9696  158.4115 C   0  0  0  0  0  0  0  0  0  0  0  0
  153.5084  140.1889  158.9226 O   0  0  0  0  0  0  0  0  0  0  0  0
  152.3954  142.3011  159.0310 C   0  0  0  0  0  0  0  0  0  0  0  0
  151.9788  143.3794  158.2185 C   0  0  0  0  0  0  0  0  0  0  0  0
  151.7060  144.6379  158.7892 C   0  0  0  0  0  0  0  0  0  0  0  0
  151.8549  144.8309  160.1755 C   0  0  0  0  0  0  0  0  0  0  0  0
  152.2797  143.7652  160.9908 C   0  0  0  0  0  0  0  0  0  0  0  0
  152.5525  142.5061  160.4216 C   0  0  0  0  0  0  0  0  0  0  0  0
  153.1653  139.3552  155.5061 N   0  0  0  0  0  0  0  0  0  0  0  0
  153.2042  138.2268  154.7913 C   0  0  0  0  0  0  0  0  0  0  0  0
  152.3493  137.2016  154.8040 N   0  0  0  0  0  0  0  0  0  0  0  0
  151.3327  137.4119  155.6894 C   0  0  0  0  0  0  0  0  0  0  0  0
  151.0443  134.2135  155.8795 C   0  0  0  0  0  0  0  0  0  0  0  0
  150.4219  133.8047  157.1975 C   0  0  2  0  0  0  0  0  0  0  0  0
  150.8857  132.5339  157.6052 O   0  0  0  0  0  0  0  0  0  0  0  0
  145.3181  135.7325  160.8808 H   0  0  0  0  0  0  0  0  0  0  0  0
  145.0434  134.4371  159.7234 H   0  0  0  0  0  0  0  0  0  0  0  0
  146.5066  135.4090  159.6254 H   0  0  0  0  0  0  0  0  0  0  0  0
  148.3306  135.1739  161.4166 H   0  0  0  0  0  0  0  0  0  0  0  0
  148.1441  134.0077  162.7209 H   0  0  0  0  0  0  0  0  0  0  0  0
  147.1598  135.4664  162.6954 H   0  0  0  0  0  0  0  0  0  0  0  0
  145.0235  134.0505  162.8377 H   0  0  0  0  0  0  0  0  0  0  0  0
  145.9919  132.5819  162.8695 H   0  0  0  0  0  0  0  0  0  0  0  0
  144.7281  132.7769  161.6614 H   0  0  0  0  0  0  0  0  0  0  0  0
  147.7372  130.8935  162.0385 H   0  0  0  0  0  0  0  0  0  0  0  0
  149.1414  131.9352  161.8709 H   0  0  0  0  0  0  0  0  0  0  0  0
  148.8688  130.6374  160.7215 H   0  0  0  0  0  0  0  0  0  0  0  0
  145.3332  131.1425  159.8668 H   0  0  0  0  0  0  0  0  0  0  0  0
  146.5477  130.7950  158.6491 H   0  0  0  0  0  0  0  0  0  0  0  0
  145.5520  132.2338  158.5075 H   0  0  0  0  0  0  0  0  0  0  0  0
  146.9751  133.8089  157.7719 H   0  0  0  0  0  0  0  0  0  0  0  0
  147.9989  135.1503  158.2674 H   0  0  0  0  0  0  0  0  0  0  0  0
  148.6653  132.8393  156.3897 H   0  0  0  0  0  0  0  0  0  0  0  0
  150.0549  135.4117  154.2938 H   0  0  0  0  0  0  0  0  0  0  0  0
  148.6000  136.8976  157.3211 H   0  0  0  0  0  0  0  0  0  0  0  0
  151.4829  141.4337  156.7668 H   0  0  0  0  0  0  0  0  0  0  0  0
  151.8614  143.2477  157.1524 H   0  0  0  0  0  0  0  0  0  0  0  0
  151.3838  145.4563  158.1624 H   0  0  0  0  0  0  0  0  0  0  0  0
  151.6475  145.7963  160.6127 H   0  0  0  0  0  0  0  0  0  0  0  0
  152.3996  143.9147  162.0537 H   0  0  0  0  0  0  0  0  0  0  0  0
  152.8872  141.7050  161.0643 H   0  0  0  0  0  0  0  0  0  0  0  0
  154.0407  138.1315  154.1149 H   0  0  0  0  0  0  0  0  0  0  0  0
  151.0712  133.3766  155.1798 H   0  0  0  0  0  0  0  0  0  0  0  0
  152.0484  134.6272  155.9720 H   0  0  0  0  0  0  0  0  0  0  0  0
  150.6387  134.5490  157.9654 H   0  0  0  0  0  0  0  0  0  0  0  0
  151.1952  132.0697  156.8418 H   0  0  0  0  0  0  0  0  0  0  0  0
  1  2  1  0  0  0  0
  1 34  1  0  0  0  0
  1 35  1  0  0  0  0
  1 36  1  0  0  0  0
  2  3  1  0  0  0  0
  2  4  1  0  0  0  0
  2  5  1  0  0  0  0
  3 37  1  0  0  0  0
  3 38  1  0  0  0  0
  3 39  1  0  0  0  0
  4 40  1  0  0  0  0
  4 41  1  0  0  0  0
  4 42  1  0  0  0  0
  5  6  1  0  0  0  0
  5  7  1  0  0  0  0
  5  8  1  0  0  0  0
  6 43  1  0  0  0  0
  6 44  1  0  0  0  0
  6 45  1  0  0  0  0
  7 46  1  0  0  0  0
  7 47  1  0  0  0  0
  7 48  1  0  0  0  0
  8  9  1  0  0  0  0
  9 10  1  0  0  0  0
  9 49  1  0  0  0  0
  9 50  1  0  0  0  0
 10 32  1  0  0  0  0
 10 11  1  0  0  0  0
 10 51  1  0  0  0  0
 11 12  1  0  0  0  0
 12 13  1  0  0  0  0
 12 31  1  0  0  0  0
 12 52  1  0  0  0  0
 13 30  1  0  0  0  0
 13 14  1  0  0  0  0
 14 15  2  0  0  0  0
 14 53  1  0  0  0  0
 15 16  1  0  0  0  0
 16 30  2  0  0  0  0
 16 17  1  0  0  0  0
 17 18  1  0  0  0  0
 17 27  2  0  0  0  0
 18 19  1  0  0  0  0
 18 54  1  0  0  0  0
 19 20  2  0  0  0  0
 19 21  1  0  0  0  0
 21 26  1  0  0  0  0
 21 22  2  0  0  0  0
 22 23  1  0  0  0  0
 22 55  1  0  0  0  0
 23 24  2  0  0  0  0
 23 56  1  0  0  0  0
 24 25  1  0  0  0  0
 24 57  1  0  0  0  0
 25 26  2  0  0  0  0
 25 58  1  0  0  0  0
 26 59  1  0  0  0  0
 27 28  1  0  0  0  0
 28 29  2  0  0  0  0
 28 60  1  0  0  0  0
 29 30  1  0  0  0  0
 31 32  1  0  0  0  0
 31 61  1  0  0  0  0
 31 62  1  0  0  0  0
 32 33  1  0  0  0  0
 32 63  1  0  0  0  0
 33 64  1  0  0  0  0
M  END
> <s_m_source_file>
AV-unprocessed.smi

> <i_m_source_file_index>
36

> <i_lp_mmshare_version>
43012

> <i_f3d_flags>
0

> <s_epik_input>
W0NIM11DKFtDSDNdKShbQ0gzXSlbU2ldKFtDSDNdKShbQ0gzXSlPW0NIMl1bQ0BASF0xT1tDQEhdKFtDSDJdW0NASF0xW09IXSluKFtjSF1uMiljKGMyMyluW2NIXW5jM1tOSF1DKD1PKWM0W2NIXVtjSF1bY0hdW2NIXVtjSF00

> <s_epik_cmdline>
J2VwaWtfcHl0aG9uJywgJy1waCcsICc3LjAnLCAnLXRuJywgJzgnLCAnLW1hJywgJzIwMCcsICctbWV0YWxfYmluZGluZycsICctaW1hZScsICc8aW5maWxlLm1hZT4nLCAnLW9tYWUnLCAnPG91dGZpbGUubWFlPic=

> <r_lp_tautomer_probability>
1

> <r_epik_Ionization_Penalty>
0.00150433

> <r_epik_Ionization_Penalty_Charging>
0

> <r_epik_Ionization_Penalty_Neutral>
0.00150433

> <r_epik_State_Penalty>
0.00724046

> <r_epik_Charging_Adjusted_Penalty>
0.00724046

> <i_epik_Tot_Q>
0

> <i_epik_Tot_abs_Q>
0

> <r_epik_Metal_State_Penalty>
0.323355

> <b_epik_Metal_Only>
0

> <s_epik_Chemistry_Notes>
This compound contains an acetal/aminal-like group ( X-CH(R)-Y where X, Y are N, S, or O) that may be acid/base labile, releasing an aldehyde.

> <s_lp_Force_Field>
OPLS_2005

> <r_lp_Energy>
33.6094

> <b_lp_Chiralities_Consistent>
1

> <s_lp_Variant>
AV-unprocessed.smi:36-6

> <Gold.Version>
5.8.1

> <Gold.Id.Protein>
6NUR|6NUR_protein|mol2

> <Gold.PLP.Fitness>
57.3866

> <Gold.PLP.PLP>
-52.1898

> <Gold.PLP.part.hbond>
-4.2169

> <Gold.PLP.part.metal>
0.0000

> <Gold.PLP.part.buried>
-5.6681

> <Gold.PLP.part.nonpolar>
-42.1672

> <Gold.PLP.part.repulsive>
0.2784

> <Gold.PLP.ligand.clash>
0.0000

> <Gold.PLP.ligand.torsion>
1.6525

> <Gold.PLP.Chemscore.Hbond>
2.5953

> <Gold.PLP.Chemscore.CHOScore>
0.0000

> <Gold.PLP.Chemscore.Metal>
0.0000

> <Gold.Chemscore.Hbonds>
donor molecule, donor type, donor heavy atom, donor atom, acceptor molecule, acceptor atom, score
      P1  H  6896  6908       L1    33  0.05
      P1  H  7997  8008       L1    20  0.23
      P1  H  7997  8009       L1    27  0.94
      P1  H 10752 10765       L1    29  0.70

> <Gold.PLP.Chemscore.Internal.Correction>
0.7159

> <Gold.Rescore>
     Score         DG    S(hbond)    S(metal)    S(lipo)     H(rot)  DE(clash)    DE(int)     intcor
     16.03     -18.96       1.94        0.00     119.00       2.70       0.10       2.83       ----

> <Gold.Chemscore.Fitness>
16.0305

> <Gold.Chemscore.DG>
-18.9595

> <Gold.Chemscore.ZeroCoef>
-5.4800

> <Gold.Chemscore.Hbond>
1.9398

> <Gold.Chemscore.Metal>
0.0000

> <Gold.Chemscore.Lipo>
119.0004

> <Gold.Chemscore.Internal_Hbond>
0.0000

> <Gold.Chemscore.DEClash>
0.1008

> <Gold.Chemscore.DEInternal>
2.8283

> <Gold.Chemscore.Rot>
2.7041

> <Gold.Chemscore.Internal.Correction>
   9.000000E+99

> <Gold.Chemscore.Hbonds>
donor molecule, donor type, donor heavy atom, donor atom, acceptor molecule, acceptor atom, score
      P1  H  7997  8008       L1    20  0.09
      P1  H  7997  8009       L1    27  0.82
      P1  H 10752 10765       L1    29  0.68

> <Gold.Chemscore.Hbond.Weighted>
-6.4790

> <Gold.Chemscore.Metal.Weighted>
-0.0000

> <Gold.Chemscore.Lipo.Weighted>
-13.9230

> <Gold.Chemscore.Internal_Hbond.Weighted>
0.0000

> <Gold.Chemscore.DEClash.Weighted>
0.1008

> <Gold.Chemscore.DEInternal.Weighted>
2.8283

> <Gold.Chemscore.Rot.Weighted>
6.9225

> <Gold.Chemscore.Internal.Correction.Weighted>
   9.000000E+99

> <Gold.Protein.RotatedTorsions>
[ 6907 6896 6895 6894 ] final   91.90 input  -60.11 | X-H torsion
[ 7974 7965 7964 7962 ] final  -83.03 input  175.53 | X-H torsion
[ 8008 7997 7996 7995 ] final -124.63 input   59.86 | X-H torsion
[ 10167 10162 10161 10158 ] final  126.69 input  -65.29 | X-H torsion
[ 10718 10713 10712 10709 ] final   57.18 input   66.30 | X-H torsion
[ 10763 10752 10751 10750 ] final  163.78 input  -60.55 | X-H torsion
[ 11005 11000 10999 10996 ] final  -31.87 input  -57.11 | X-H torsion

> <Gold.Protein.ActiveResidues>
 VAL166  LYS551  ARG553  GLY616  TRP617  ASP618  TYR619  PRO620  LYS621  CYS622 
 ASP623  PHE694  ASN695  SER759  ASP760  ASP761  ALA762  ILE779  LEU786  VAL792 
 PHE793  MET794  SER795  GLU796  ALA797  LYS798  CYS799  TRP800  GLU811  SER814 

> <Gold.Protein.RotatedAtoms>
  152.5451  134.1585  159.8547 H   0  0  0  0  0  0  0  0  0  0  0  0  # atno 6907 bound_to 6896
  151.1605  133.4841  159.2602 H   0  0  0  0  0  0  0  0  0  0  0  0  # atno 6908 bound_to 6896
  151.1377  135.0174  159.8666 H   0  0  0  0  0  0  0  0  0  0  0  0  # atno 6909 bound_to 6896
  145.5255  140.9527  143.1632 H   0  0  0  0  0  0  0  0  0  0  0  0  # atno 7974 bound_to 7965
  155.2000  140.0415  157.2915 H   0  0  0  0  0  0  0  0  0  0  0  0  # atno 8008 bound_to 7997
  154.6081  140.2469  155.7676 H   0  0  0  0  0  0  0  0  0  0  0  0  # atno 8009 bound_to 7997
  156.2362  140.2920  156.0330 H   0  0  0  0  0  0  0  0  0  0  0  0  # atno 8010 bound_to 7997
  139.5618  144.6886  151.4022 H   0  0  0  0  0  0  0  0  0  0  0  0  # atno 10167 bound_to 10162
  157.5493  130.8754  149.8939 H   0  0  0  0  0  0  0  0  0  0  0  0  # atno 10718 bound_to 10713
  154.2989  135.2759  155.2620 H   0  0  0  0  0  0  0  0  0  0  0  0  # atno 10763 bound_to 10752
  154.5066  135.5794  153.6575 H   0  0  0  0  0  0  0  0  0  0  0  0  # atno 10764 bound_to 10752
  152.9903  135.6171  154.3158 H   0  0  0  0  0  0  0  0  0  0  0  0  # atno 10765 bound_to 10752
  140.9504  133.7224  156.1211 H   0  0  0  0  0  0  0  0  0  0  0  0  # atno 11005 bound_to 11000
  144.7653  139.6859  143.7217 LP  0  0  0  0  0  0  0  0  0  0  0  0  # atno 17320 bound_to 7965
  146.2078  139.5415  142.9701 LP  0  0  0  0  0  0  0  0  0  0  0  0  # atno 17321 bound_to 7965
  140.6898  143.7888  150.7239 LP  0  0  0  0  0  0  0  0  0  0  0  0  # atno 17342 bound_to 10162
  140.1367  143.4478  152.2220 LP  0  0  0  0  0  0  0  0  0  0  0  0  # atno 17343 bound_to 10162
  156.0563  130.3708  150.1085 LP  0  0  0  0  0  0  0  0  0  0  0  0  # atno 17370 bound_to 10713
  156.9259  130.9698  151.3541 LP  0  0  0  0  0  0  0  0  0  0  0  0  # atno 17371 bound_to 10713
  140.7610  134.3939  157.5525 LP  0  0  0  0  0  0  0  0  0  0  0  0  # atno 17394 bound_to 11000
  139.8846  134.8961  156.2695 LP  0  0  0  0  0  0  0  0  0  0  0  0  # atno 17395 bound_to 11000

$$$$
