AV-unprocessed.smi:505|AV-procd|sdf|2749|dock3
  -GOLD-   2262023213D 1   1.00000     0.00000
 Structure written by MMmdl.
 36 37  0  0  0  0  0  0  0  0  2 V2000
  150.3678  140.6764  155.2229 C   0  0  0  0  0  0  0  0  0  0  0  0
  151.6209  140.0301  155.0855 O   0  0  0  0  0  0  0  0  0  0  0  0
  151.6329  138.7407  155.6744 C   0  0  0  0  0  0  0  0  0  0  0  0
  150.6585  137.8361  154.9104 C   0  0  0  0  0  0  0  0  0  0  0  0
  149.3258  137.8606  155.5039 N   0  0  0  0  0  0  0  0  0  0  0  0
  148.1805  138.3128  154.9367 C   0  0  0  0  0  0  0  0  0  0  0  0
  148.1860  138.8135  153.6403 N   0  0  0  0  0  0  0  0  0  0  0  0
  147.1320  139.3526  152.8008 C   0  0  0  0  0  0  0  0  0  0  0  0
  146.0805  138.2931  152.4416 C   0  0  0  0  0  0  0  0  0  0  0  0
  146.4334  137.6527  151.2339 O   0  0  0  0  0  0  0  0  0  0  0  0
  147.0951  138.2219  155.7069 N   0  0  0  0  0  0  0  0  0  0  0  0
  147.5948  137.6475  156.8680 C   0  0  0  0  0  0  0  0  0  0  0  0
  148.9310  137.4108  156.7662 C   0  0  0  0  0  0  0  0  0  0  0  0
  149.7416  136.7826  157.8308 C   0  0  0  0  0  0  0  0  0  0  0  0
  150.9436  136.5771  157.6741 O   0  0  0  0  0  0  0  0  0  0  0  0
  148.9926  136.4798  158.9383 N   0  5  0  0  0  0  0  0  0  0  0  0
  147.6407  136.7049  159.0884 C   0  0  0  0  0  0  0  0  0  0  0  0
  147.0412  136.3974  160.1195 O   0  0  0  0  0  0  0  0  0  0  0  0
  146.9291  137.2854  158.0710 N   0  0  0  0  0  0  0  0  0  0  0  0
  145.4915  137.5382  158.2035 C   0  0  0  0  0  0  0  0  0  0  0  0
  150.4113  141.6620  154.7597 H   0  0  0  0  0  0  0  0  0  0  0  0
  150.1048  140.8093  156.2731 H   0  0  0  0  0  0  0  0  0  0  0  0
  149.5759  140.1088  154.7326 H   0  0  0  0  0  0  0  0  0  0  0  0
  152.6408  138.3239  155.6343 H   0  0  0  0  0  0  0  0  0  0  0  0
  151.3441  138.8041  156.7246 H   0  0  0  0  0  0  0  0  0  0  0  0
  150.5938  138.1315  153.8640 H   0  0  0  0  0  0  0  0  0  0  0  0
  151.0301  136.8114  154.9003 H   0  0  0  0  0  0  0  0  0  0  0  0
  149.0811  138.7594  153.1763 H   0  0  0  0  0  0  0  0  0  0  0  0
  146.6546  140.1597  153.3573 H   0  0  0  0  0  0  0  0  0  0  0  0
  147.5612  139.8014  151.9045 H   0  0  0  0  0  0  0  0  0  0  0  0
  145.9490  137.5614  153.2396 H   0  0  0  0  0  0  0  0  0  0  0  0
  145.1147  138.7747  152.2877 H   0  0  0  0  0  0  0  0  0  0  0  0
  145.7302  137.7730  150.6142 H   0  0  0  0  0  0  0  0  0  0  0  0
  145.2913  138.1666  159.0726 H   0  0  0  0  0  0  0  0  0  0  0  0
  144.9499  136.5999  158.3284 H   0  0  0  0  0  0  0  0  0  0  0  0
  145.0719  138.0454  157.3349 H   0  0  0  0  0  0  0  0  0  0  0  0
  1  2  1  0  0  0  0
  1 21  1  0  0  0  0
  1 22  1  0  0  0  0
  1 23  1  0  0  0  0
  2  3  1  0  0  0  0
  3  4  1  0  0  0  0
  3 24  1  0  0  0  0
  3 25  1  0  0  0  0
  4  5  1  0  0  0  0
  4 26  1  0  0  0  0
  4 27  1  0  0  0  0
  5 13  1  0  0  0  0
  5  6  1  0  0  0  0
  6  7  1  0  0  0  0
  6 11  2  0  0  0  0
  7  8  1  0  0  0  0
  7 28  1  0  0  0  0
  8  9  1  0  0  0  0
  8 29  1  0  0  0  0
  8 30  1  0  0  0  0
  9 10  1  0  0  0  0
  9 31  1  0  0  0  0
  9 32  1  0  0  0  0
 10 33  1  0  0  0  0
 11 12  1  0  0  0  0
 12 19  1  0  0  0  0
 12 13  2  0  0  0  0
 13 14  1  0  0  0  0
 14 15  2  0  0  0  0
 14 16  1  0  0  0  0
 16 17  1  0  0  0  0
 17 18  2  0  0  0  0
 17 19  1  0  0  0  0
 19 20  1  0  0  0  0
 20 34  1  0  0  0  0
 20 35  1  0  0  0  0
 20 36  1  0  0  0  0
M  CHG  1  16  -1
M  END
> <s_m_source_file>
AV-unprocessed.smi

> <i_m_source_file_index>
505

> <i_lp_mmshare_version>
43012

> <i_f3d_flags>
0

> <s_epik_input>
W09IXVtDSDJdW0NIMl1bTkhdYyhuMSluKFtDSDJdW0NIMl1PW0NIM10pYyhjMTIpYyg9TylbbkhdYyg9TyluMltDSDNd

> <s_epik_cmdline>
J2VwaWtfcHl0aG9uJywgJy1waCcsICc3LjAnLCAnLXRuJywgJzgnLCAnLW1hJywgJzIwMCcsICctbWV0YWxfYmluZGluZycsICctaW1hZScsICc8aW5maWxlLm1hZT4nLCAnLW9tYWUnLCAnPG91dGZpbGUubWFlPic=

> <r_lp_tautomer_probability>
1

> <r_epik_Ionization_Penalty>
5.9232

> <r_epik_Ionization_Penalty_Charging>
1.43987e-08

> <r_epik_Ionization_Penalty_Neutral>
5.9232

> <r_epik_State_Penalty>
5.92302

> <r_epik_Charging_Adjusted_Penalty>
5.92302

> <i_epik_Tot_Q>
-1

> <i_epik_Tot_abs_Q>
1

> <r_epik_Metal_State_Penalty>
1.88194

> <b_epik_Metal_Only>
1

> <s_lp_Force_Field>
OPLS_2005

> <r_lp_Energy>
27.5321

> <b_lp_Chiralities_Consistent>
1

> <s_lp_Variant>
AV-unprocessed.smi:505-2

> <Gold.Version>
5.8.1

> <Gold.Id.Protein>
6NUR|6NUR_protein|mol2

> <Gold.PLP.Fitness>
44.0432

> <Gold.PLP.PLP>
-26.6963

> <Gold.PLP.part.hbond>
-7.7154

> <Gold.PLP.part.metal>
0.0000

> <Gold.PLP.part.buried>
-2.7600

> <Gold.PLP.part.nonpolar>
-18.0260

> <Gold.PLP.part.repulsive>
0.1572

> <Gold.PLP.ligand.clash>
0.0000

> <Gold.PLP.ligand.torsion>
0.4438

> <Gold.PLP.Chemscore.Hbond>
6.0618

> <Gold.PLP.Chemscore.CHOScore>
0.0000

> <Gold.PLP.Chemscore.Metal>
0.0000

> <Gold.Chemscore.Hbonds>
donor molecule, donor type, donor heavy atom, donor atom, acceptor molecule, acceptor atom, score
      L1  H    10    33       P1 10171  0.65
      P1  H  7954  7966       L1    10  0.59
      P1  H  7989  7998       L1     2  0.20

> <Gold.PLP.Chemscore.Internal.Correction>
0.0492

> <Gold.Rescore>
     Score         DG    S(hbond)    S(metal)    S(lipo)     H(rot)  DE(clash)    DE(int)     intcor
     16.04     -17.86       4.54        0.00      42.33       3.02       0.15       1.68       ----

> <Gold.Chemscore.Fitness>
16.0355

> <Gold.Chemscore.DG>
-17.8648

> <Gold.Chemscore.ZeroCoef>
-5.4800

> <Gold.Chemscore.Hbond>
4.5385

> <Gold.Chemscore.Metal>
0.0000

> <Gold.Chemscore.Lipo>
42.3300

> <Gold.Chemscore.Internal_Hbond>
0.0000

> <Gold.Chemscore.DEClash>
0.1472

> <Gold.Chemscore.DEInternal>
1.6820

> <Gold.Chemscore.Rot>
3.0181

> <Gold.Chemscore.Internal.Correction>
   9.000000E+99

> <Gold.Chemscore.Hbonds>
donor molecule, donor type, donor heavy atom, donor atom, acceptor molecule, acceptor atom, score
      L1  H     7    28       P1  7957  0.03
      L1  H    10    33       P1 10171  0.64
      P1  H  7954  7966       L1    10  0.15

> <Gold.Chemscore.Hbond.Weighted>
-15.1586

> <Gold.Chemscore.Metal.Weighted>
-0.0000

> <Gold.Chemscore.Lipo.Weighted>
-4.9526

> <Gold.Chemscore.Internal_Hbond.Weighted>
0.0000

> <Gold.Chemscore.DEClash.Weighted>
0.1472

> <Gold.Chemscore.DEInternal.Weighted>
1.6820

> <Gold.Chemscore.Rot.Weighted>
7.7264

> <Gold.Chemscore.Internal.Correction.Weighted>
   9.000000E+99

> <Gold.Protein.RotatedTorsions>
[ 6907 6896 6895 6894 ] final   37.85 input  -60.11 | X-H torsion
[ 7974 7965 7964 7962 ] final  -64.01 input  175.53 | X-H torsion
[ 8008 7997 7996 7995 ] final   56.80 input   59.86 | X-H torsion
[ 10167 10162 10161 10158 ] final -120.61 input  -65.29 | X-H torsion
[ 10718 10713 10712 10709 ] final   72.62 input   66.30 | X-H torsion
[ 10763 10752 10751 10750 ] final -146.02 input  -60.55 | X-H torsion
[ 11005 11000 10999 10996 ] final   -9.67 input  -57.11 | X-H torsion

> <Gold.Protein.ActiveResidues>
 VAL166  LYS551  ARG553  GLY616  TRP617  ASP618  TYR619  PRO620  LYS621  CYS622 
 ASP623  PHE694  ASN695  SER759  ASP760  ASP761  ALA762  ILE779  LEU786  VAL792 
 PHE793  MET794  SER795  GLU796  ALA797  LYS798  CYS799  TRP800  GLU811  SER814 

> <Gold.Protein.RotatedAtoms>
  152.1486  134.9006  160.0549 H   0  0  0  0  0  0  0  0  0  0  0  0  # atno 6907 bound_to 6896
  152.0046  133.3833  159.4203 H   0  0  0  0  0  0  0  0  0  0  0  0  # atno 6908 bound_to 6896
  150.6873  134.3718  159.5039 H   0  0  0  0  0  0  0  0  0  0  0  0  # atno 6909 bound_to 6896
  145.7719  140.8808  143.0375 H   0  0  0  0  0  0  0  0  0  0  0  0  # atno 7974 bound_to 7965
  155.5234  140.3480  155.4411 H   0  0  0  0  0  0  0  0  0  0  0  0  # atno 8008 bound_to 7997
  156.0768  140.1376  156.9788 H   0  0  0  0  0  0  0  0  0  0  0  0  # atno 8009 bound_to 7997
  154.4558  140.0954  156.6728 H   0  0  0  0  0  0  0  0  0  0  0  0  # atno 8010 bound_to 7997
  140.0340  143.5219  152.2162 H   0  0  0  0  0  0  0  0  0  0  0  0  # atno 10167 bound_to 10162
  157.6509  130.9588  150.0954 H   0  0  0  0  0  0  0  0  0  0  0  0  # atno 10718 bound_to 10713
  154.8356  135.3398  154.6595 H   0  0  0  0  0  0  0  0  0  0  0  0  # atno 10763 bound_to 10752
  153.7210  135.6958  153.5017 H   0  0  0  0  0  0  0  0  0  0  0  0  # atno 10764 bound_to 10752
  153.2381  135.4394  155.0621 H   0  0  0  0  0  0  0  0  0  0  0  0  # atno 10765 bound_to 10752
  140.7367  133.8704  155.8935 H   0  0  0  0  0  0  0  0  0  0  0  0  # atno 11005 bound_to 11000
  144.6811  139.9868  143.7484 LP  0  0  0  0  0  0  0  0  0  0  0  0  # atno 17320 bound_to 7965
  146.0161  139.3211  143.0841 LP  0  0  0  0  0  0  0  0  0  0  0  0  # atno 17321 bound_to 7965
  139.6057  144.7595  151.3067 LP  0  0  0  0  0  0  0  0  0  0  0  0  # atno 17342 bound_to 10162
  140.7289  143.6921  150.7913 LP  0  0  0  0  0  0  0  0  0  0  0  0  # atno 17343 bound_to 10162
  156.1891  130.3654  149.8933 LP  0  0  0  0  0  0  0  0  0  0  0  0  # atno 17370 bound_to 10713
  156.6866  130.8879  151.3583 LP  0  0  0  0  0  0  0  0  0  0  0  0  # atno 17371 bound_to 10713
  140.9873  134.1325  157.4440 LP  0  0  0  0  0  0  0  0  0  0  0  0  # atno 17394 bound_to 11000
  139.8815  135.0029  156.6157 LP  0  0  0  0  0  0  0  0  0  0  0  0  # atno 17395 bound_to 11000

$$$$
