AV-unprocessed.smi:1954|AV-procd|sdf|7897|dock10
  -GOLD-   2272010 53D 1   1.00000     0.00000
 Structure written by MMmdl.
 45 47  0  0  0  0  0  0  0  0  2 V2000
  145.2570  135.1201  153.0398 O   0  0  0  0  0  0  0  0  0  0  0  0
  146.3505  135.5096  152.6302 C   0  0  0  0  0  0  0  0  0  0  0  0
  146.9982  136.5632  153.1476 N   0  0  0  0  0  0  0  0  0  0  0  0
  146.5281  137.4053  154.2477 C   0  0  0  0  0  0  0  0  0  0  0  0
  147.6255  138.3673  154.8039 C   0  0  2  0  0  0  0  0  0  0  0  0
  148.9644  137.6809  154.6816 N   0  3  0  0  0  0  0  0  0  0  0  0
  150.1415  138.5670  154.9040 C   0  0  0  0  0  0  0  0  0  0  0  0
  151.4439  137.8434  154.5304 C   0  0  0  0  0  0  0  0  0  0  0  0
  151.5617  136.6656  155.3152 O   0  0  0  0  0  0  0  0  0  0  0  0
  150.5014  135.7569  155.0554 C   0  0  0  0  0  0  0  0  0  0  0  0
  149.1483  136.3980  155.4128 C   0  0  0  0  0  0  0  0  0  0  0  0
  147.2649  138.7888  156.2571 C   0  0  0  0  0  0  0  0  0  0  0  0
  146.0549  139.7254  156.2036 C   0  0  0  0  0  0  0  0  0  0  0  0
  146.2194  140.7129  154.6974 S   0  0  0  0  0  0  0  0  0  0  0  0
  147.5836  139.7125  154.0408 C   0  0  0  0  0  0  0  0  0  0  0  0
  147.0500  134.9540  151.6257 N   0  0  0  0  0  0  0  0  0  0  0  0
  146.7067  133.8389  150.8151 C   0  0  0  0  0  0  0  0  0  0  0  0
  147.6956  133.1520  150.0635 C   0  0  0  0  0  0  0  0  0  0  0  0
  147.3235  132.0327  149.2939 C   0  0  0  0  0  0  0  0  0  0  0  0
  145.9803  131.6183  149.3023 C   0  0  0  0  0  0  0  0  0  0  0  0
  145.0682  132.3445  150.0889 C   0  0  0  0  0  0  0  0  0  0  0  0
  145.4212  133.4177  150.8281 N   0  0  0  0  0  0  0  0  0  0  0  0
  147.8967  136.8017  152.7528 H   0  0  0  0  0  0  0  0  0  0  0  0
  145.6396  137.9559  153.9382 H   0  0  0  0  0  0  0  0  0  0  0  0
  146.1683  136.7326  155.0254 H   0  0  0  0  0  0  0  0  0  0  0  0
  150.0607  139.4772  154.3118 H   0  0  0  0  0  0  0  0  0  0  0  0
  150.1955  138.8702  155.9501 H   0  0  0  0  0  0  0  0  0  0  0  0
  151.4699  137.5983  153.4674 H   0  0  0  0  0  0  0  0  0  0  0  0
  152.3009  138.4870  154.7302 H   0  0  0  0  0  0  0  0  0  0  0  0
  150.5194  135.4538  154.0069 H   0  0  0  0  0  0  0  0  0  0  0  0
  150.6567  134.8551  155.6478 H   0  0  0  0  0  0  0  0  0  0  0  0
  149.0802  136.5700  156.4879 H   0  0  0  0  0  0  0  0  0  0  0  0
  148.3774  135.6786  155.1395 H   0  0  0  0  0  0  0  0  0  0  0  0
  147.0913  137.9407  156.9199 H   0  0  0  0  0  0  0  0  0  0  0  0
  148.0669  139.3779  156.7013 H   0  0  0  0  0  0  0  0  0  0  0  0
  145.1260  139.1573  156.1534 H   0  0  0  0  0  0  0  0  0  0  0  0
  145.9981  140.3673  157.0830 H   0  0  0  0  0  0  0  0  0  0  0  0
  148.4999  140.2776  154.2160 H   0  0  0  0  0  0  0  0  0  0  0  0
  147.4764  139.5865  152.9630 H   0  0  0  0  0  0  0  0  0  0  0  0
  147.9786  135.3206  151.4760 H   0  0  0  0  0  0  0  0  0  0  0  0
  148.7319  133.4529  150.0730 H   0  0  0  0  0  0  0  0  0  0  0  0
  148.0591  131.4975  148.7122 H   0  0  0  0  0  0  0  0  0  0  0  0
  145.6587  130.7634  148.7259 H   0  0  0  0  0  0  0  0  0  0  0  0
  144.0286  132.0549  150.1292 H   0  0  0  0  0  0  0  0  0  0  0  0
  149.0148  137.4171  153.7076 H   0  0  0  0  0  0  0  0  0  0  0  0
  1  2  2  0  0  0  0
  2  3  1  0  0  0  0
  2 16  1  0  0  0  0
  3  4  1  0  0  0  0
  3 23  1  0  0  0  0
  4  5  1  0  0  0  0
  4 24  1  0  0  0  0
  4 25  1  0  0  0  0
  5 15  1  0  0  0  0
  5  6  1  0  0  0  0
  5 12  1  0  0  0  0
  6 11  1  0  0  0  0
  6  7  1  0  0  0  0
  6 45  1  0  0  0  0
  7  8  1  0  0  0  0
  7 26  1  0  0  0  0
  7 27  1  0  0  0  0
  8  9  1  0  0  0  0
  8 28  1  0  0  0  0
  8 29  1  0  0  0  0
  9 10  1  0  0  0  0
 10 11  1  0  0  0  0
 10 30  1  0  0  0  0
 10 31  1  0  0  0  0
 11 32  1  0  0  0  0
 11 33  1  0  0  0  0
 12 13  1  0  0  0  0
 12 34  1  0  0  0  0
 12 35  1  0  0  0  0
 13 14  1  0  0  0  0
 13 36  1  0  0  0  0
 13 37  1  0  0  0  0
 14 15  1  0  0  0  0
 15 38  1  0  0  0  0
 15 39  1  0  0  0  0
 16 17  1  0  0  0  0
 16 40  1  0  0  0  0
 17 22  1  0  0  0  0
 17 18  2  0  0  0  0
 18 19  1  0  0  0  0
 18 41  1  0  0  0  0
 19 20  2  0  0  0  0
 19 42  1  0  0  0  0
 20 21  1  0  0  0  0
 20 43  1  0  0  0  0
 21 22  2  0  0  0  0
 21 44  1  0  0  0  0
M  CHG  1   6   1
M  END
> <s_m_source_file>
AV-unprocessed.smi

> <i_m_source_file_index>
1954

> <i_lp_mmshare_version>
43012

> <i_f3d_flags>
0

> <s_epik_input>
bjFbY0hdW2NIXVtjSF1bY0hdYzFbTkhdQyg9TylbTkhdW0NIMl1bQ0BdMihbQ0gyXVtDSDJdU1tDSDJdMilOM1tDSDJdW0NIMl1PW0NIMl1bQ0gyXTM=

> <s_epik_cmdline>
J2VwaWtfcHl0aG9uJywgJy1waCcsICc3LjAnLCAnLXRuJywgJzgnLCAnLW1hJywgJzIwMCcsICctbWV0YWxfYmluZGluZycsICctaW1hZScsICc8aW5maWxlLm1hZT4nLCAnLW9tYWUnLCAnPG91dGZpbGUubWFlPic=

> <r_epik_Ionization_Penalty>
2.03222

> <r_epik_Ionization_Penalty_Charging>
2.03219

> <r_epik_Ionization_Penalty_Neutral>
3.25833e-05

> <r_epik_State_Penalty>
2.16328

> <r_epik_Charging_Adjusted_Penalty>
4.19546

> <i_epik_Tot_Q>
1

> <i_epik_Tot_abs_Q>
1

> <r_epik_Metal_State_Penalty>
2.16328

> <b_epik_Metal_Only>
0

> <s_lp_Force_Field>
OPLS_2005

> <r_lp_Energy>
46.5202

> <b_lp_Chiralities_Consistent>
1

> <s_lp_Variant>
AV-unprocessed.smi:1954-4

> <Gold.Version>
5.8.1

> <Gold.Id.Protein>
6NUR|6NUR_protein|mol2

> <Gold.PLP.Fitness>
50.1136

> <Gold.PLP.PLP>
-33.4262

> <Gold.PLP.part.hbond>
-4.0000

> <Gold.PLP.part.metal>
0.0000

> <Gold.PLP.part.buried>
-0.7999

> <Gold.PLP.part.nonpolar>
-29.3927

> <Gold.PLP.part.repulsive>
0.4679

> <Gold.PLP.ligand.clash>
0.0000

> <Gold.PLP.ligand.torsion>
0.6965

> <Gold.PLP.Chemscore.Hbond>
4.9825

> <Gold.PLP.Chemscore.CHOScore>
1.0000

> <Gold.PLP.Chemscore.Metal>
0.0000

> <Gold.Chemscore.Hbonds>
donor molecule, donor type, donor heavy atom, donor atom, acceptor molecule, acceptor atom, score
      L1  H     3    23       P1  7948  0.74
      L1  H     6    45       P1  7948  1.27
      L1  H    16    40       P1  7948  0.49
      P1  H 10752 10764       L1     9  0.90

> <Gold.PLP.Chemscore.Internal.Correction>
0.1328

> <Gold.Rescore>
     Score         DG    S(hbond)    S(metal)    S(lipo)     H(rot)  DE(clash)    DE(int)     intcor
     18.02     -21.63       2.80        0.00      91.76       1.54       1.66       1.96       ----

> <Gold.Chemscore.Fitness>
18.0182

> <Gold.Chemscore.DG>
-21.6344

> <Gold.Chemscore.ZeroCoef>
-5.4800

> <Gold.Chemscore.Hbond>
2.7992

> <Gold.Chemscore.Metal>
0.0000

> <Gold.Chemscore.Lipo>
91.7620

> <Gold.Chemscore.Internal_Hbond>
0.0000

> <Gold.Chemscore.DEClash>
1.6606

> <Gold.Chemscore.DEInternal>
1.9556

> <Gold.Chemscore.Rot>
1.5355

> <Gold.Chemscore.Internal.Correction>
   9.000000E+99

> <Gold.Chemscore.Hbonds>
donor molecule, donor type, donor heavy atom, donor atom, acceptor molecule, acceptor atom, score
      L1  H     3    23       P1  7948  0.71
      L1  H     6    45       P1  7948  0.62
      L1  H    16    40       P1  7948  0.16
      P1  H 10752 10764       L1     9  0.16

> <Gold.Chemscore.Hbond.Weighted>
-9.3492

> <Gold.Chemscore.Metal.Weighted>
-0.0000

> <Gold.Chemscore.Lipo.Weighted>
-10.7362

> <Gold.Chemscore.Internal_Hbond.Weighted>
0.0000

> <Gold.Chemscore.DEClash.Weighted>
1.6606

> <Gold.Chemscore.DEInternal.Weighted>
1.9556

> <Gold.Chemscore.Rot.Weighted>
3.9309

> <Gold.Chemscore.Internal.Correction.Weighted>
   9.000000E+99

> <Gold.Protein.RotatedTorsions>
[ 6907 6896 6895 6894 ] final  143.73 input  -60.11 | X-H torsion
[ 7974 7965 7964 7962 ] final -178.33 input  175.53 | X-H torsion
[ 8008 7997 7996 7995 ] final   93.47 input   59.86 | X-H torsion
[ 10167 10162 10161 10158 ] final  -18.65 input  -65.29 | X-H torsion
[ 10718 10713 10712 10709 ] final -115.83 input   66.30 | X-H torsion
[ 10763 10752 10751 10750 ] final  -46.15 input  -60.55 | X-H torsion
[ 11005 11000 10999 10996 ] final -160.77 input  -57.11 | X-H torsion

> <Gold.Protein.ActiveResidues>
 VAL166  LYS551  ARG553  GLY616  TRP617  ASP618  TYR619  PRO620  LYS621  CYS622 
 ASP623  PHE694  ASN695  SER759  ASP760  ASP761  ALA762  ILE779  LEU786  VAL792 
 PHE793  MET794  SER795  GLU796  ALA797  LYS798  CYS799  TRP800  GLU811  SER814 

> <Gold.Protein.RotatedAtoms>
  152.2026  133.4852  159.5066 H   0  0  0  0  0  0  0  0  0  0  0  0  # atno 6907 bound_to 6896
  150.6973  134.1571  159.4171 H   0  0  0  0  0  0  0  0  0  0  0  0  # atno 6908 bound_to 6896
  151.9489  135.0178  160.0591 H   0  0  0  0  0  0  0  0  0  0  0  0  # atno 6909 bound_to 6896
  144.7130  140.0885  143.6422 H   0  0  0  0  0  0  0  0  0  0  0  0  # atno 7974 bound_to 7965
  156.0471  140.3312  155.7308 H   0  0  0  0  0  0  0  0  0  0  0  0  # atno 8008 bound_to 7997
  155.5658  140.0623  157.2836 H   0  0  0  0  0  0  0  0  0  0  0  0  # atno 8009 bound_to 7997
  154.4418  140.1869  156.0817 H   0  0  0  0  0  0  0  0  0  0  0  0  # atno 8010 bound_to 7997
  140.7261  143.4896  151.0010 H   0  0  0  0  0  0  0  0  0  0  0  0  # atno 10167 bound_to 10162
  156.0922  130.6102  150.8957 H   0  0  0  0  0  0  0  0  0  0  0  0  # atno 10718 bound_to 10713
  154.0403  135.6645  153.4789 H   0  0  0  0  0  0  0  0  0  0  0  0  # atno 10763 bound_to 10752
  153.0504  135.5088  154.7849 H   0  0  0  0  0  0  0  0  0  0  0  0  # atno 10764 bound_to 10752
  154.6822  135.3047  154.9562 H   0  0  0  0  0  0  0  0  0  0  0  0  # atno 10765 bound_to 10752
  140.6278  134.4683  157.5228 H   0  0  0  0  0  0  0  0  0  0  0  0  # atno 11005 bound_to 11000
  145.9641  139.2822  143.1138 LP  0  0  0  0  0  0  0  0  0  0  0  0  # atno 17320 bound_to 7965
  145.9189  140.9129  143.0415 LP  0  0  0  0  0  0  0  0  0  0  0  0  # atno 17321 bound_to 7965
  139.8599  143.7328  152.3174 LP  0  0  0  0  0  0  0  0  0  0  0  0  # atno 17342 bound_to 10162
  139.7539  144.7526  151.0464 LP  0  0  0  0  0  0  0  0  0  0  0  0  # atno 17343 bound_to 10162
  157.6074  131.0938  150.8854 LP  0  0  0  0  0  0  0  0  0  0  0  0  # atno 17370 bound_to 10713
  156.9000  130.5243  149.5283 LP  0  0  0  0  0  0  0  0  0  0  0  0  # atno 17371 bound_to 10713
  139.9128  134.8309  156.1469 LP  0  0  0  0  0  0  0  0  0  0  0  0  # atno 17394 bound_to 11000
  141.0697  133.6802  156.2116 LP  0  0  0  0  0  0  0  0  0  0  0  0  # atno 17395 bound_to 11000

$$$$
