AV-unprocessed.smi:1537|AV-procd|sdf|6191|dock10
  -GOLD-   22720 6353D 1   1.00000     0.00000
 Structure written by MMmdl.
 43 43  0  0  0  0  0  0  0  0  1 V2000
  151.6217  145.0382  159.4216 C   0  0  0  0  0  0  0  0  0  0  0  0
  152.4376  144.1708  158.4576 C   0  0  0  0  0  0  0  0  0  0  0  0
  152.5958  142.7695  158.9446 C   0  0  0  0  0  0  0  0  0  0  0  0
  152.2109  141.6993  158.2448 N   0  0  0  0  0  0  0  0  0  0  0  0
  152.4243  140.4992  158.9319 C   0  0  0  0  0  0  0  0  0  0  0  0
  152.0510  139.1923  158.2953 C   0  0  0  0  0  0  0  0  0  0  0  0
  151.8491  139.3756  156.7905 C   0  0  0  0  0  0  0  0  0  0  0  0
  152.7086  139.9448  156.1175 O   0  0  0  0  0  0  0  0  0  0  0  0
  150.7062  138.8924  156.2763 N   0  0  0  0  0  0  0  0  0  0  0  0
  150.3092  138.9722  154.8721 C   0  0  1  0  0  0  0  0  0  0  0  0
  151.0080  137.8298  154.1163 C   0  0  0  0  0  0  0  0  0  0  0  0
  148.7905  138.7837  154.7242 C   0  0  0  0  0  0  0  0  0  0  0  0
  148.0943  138.5361  155.7099 O   0  0  0  0  0  0  0  0  0  0  0  0
  148.3069  138.8924  153.4742 N   0  0  0  0  0  0  0  0  0  0  0  0
  146.9174  138.7683  153.0183 C   0  0  0  0  0  0  0  0  0  0  0  0
  146.1238  139.9026  153.6897 C   0  0  0  0  0  0  0  0  0  0  0  0
  146.3214  137.4131  153.4544 C   0  0  0  0  0  0  0  0  0  0  0  0
  146.8280  138.9348  151.4867 C   0  0  0  0  0  0  0  0  0  0  0  0
  152.9805  140.6807  160.1742 C   0  0  0  0  0  0  0  0  0  0  0  0
  153.2421  142.3656  160.5306 S   0  0  0  0  0  0  0  0  0  0  0  0
  151.5252  146.0557  159.0425 H   0  0  0  0  0  0  0  0  0  0  0  0
  152.0976  145.0908  160.4012 H   0  0  0  0  0  0  0  0  0  0  0  0
  150.6171  144.6361  159.5579 H   0  0  0  0  0  0  0  0  0  0  0  0
  151.9598  144.1521  157.4773 H   0  0  0  0  0  0  0  0  0  0  0  0
  153.4277  144.6044  158.3145 H   0  0  0  0  0  0  0  0  0  0  0  0
  152.8213  138.4392  158.4670 H   0  0  0  0  0  0  0  0  0  0  0  0
  151.1339  138.7995  158.7363 H   0  0  0  0  0  0  0  0  0  0  0  0
  150.0577  138.4434  156.9068 H   0  0  0  0  0  0  0  0  0  0  0  0
  150.6160  139.9321  154.4515 H   0  0  0  0  0  0  0  0  0  0  0  0
  150.7521  137.8409  153.0560 H   0  0  0  0  0  0  0  0  0  0  0  0
  150.7350  136.8512  154.5146 H   0  0  0  0  0  0  0  0  0  0  0  0
  152.0922  137.9229  154.1885 H   0  0  0  0  0  0  0  0  0  0  0  0
  148.9816  139.0936  152.7506 H   0  0  0  0  0  0  0  0  0  0  0  0
  145.0726  139.8771  153.4002 H   0  0  0  0  0  0  0  0  0  0  0  0
  146.5162  140.8816  153.4115 H   0  0  0  0  0  0  0  0  0  0  0  0
  146.1653  139.8290  154.7771 H   0  0  0  0  0  0  0  0  0  0  0  0
  146.4098  137.2692  154.5320 H   0  0  0  0  0  0  0  0  0  0  0  0
  146.8146  136.5716  152.9682 H   0  0  0  0  0  0  0  0  0  0  0  0
  145.2624  137.3511  153.2018 H   0  0  0  0  0  0  0  0  0  0  0  0
  145.7898  138.9403  151.1533 H   0  0  0  0  0  0  0  0  0  0  0  0
  147.3284  138.1258  150.9550 H   0  0  0  0  0  0  0  0  0  0  0  0
  147.2811  139.8723  151.1624 H   0  0  0  0  0  0  0  0  0  0  0  0
  153.2432  139.9272  160.9021 H   0  0  0  0  0  0  0  0  0  0  0  0
  1  2  1  0  0  0  0
  1 21  1  0  0  0  0
  1 22  1  0  0  0  0
  1 23  1  0  0  0  0
  2  3  1  0  0  0  0
  2 24  1  0  0  0  0
  2 25  1  0  0  0  0
  3 20  1  0  0  0  0
  3  4  2  0  0  0  0
  4  5  1  0  0  0  0
  5  6  1  0  0  0  0
  5 19  2  0  0  0  0
  6  7  1  0  0  0  0
  6 26  1  0  0  0  0
  6 27  1  0  0  0  0
  7  8  2  0  0  0  0
  7  9  1  0  0  0  0
  9 10  1  0  0  0  0
  9 28  1  0  0  0  0
 10 11  1  0  0  0  0
 10 12  1  0  0  0  0
 10 29  1  0  0  0  0
 11 30  1  0  0  0  0
 11 31  1  0  0  0  0
 11 32  1  0  0  0  0
 12 13  2  0  0  0  0
 12 14  1  0  0  0  0
 14 15  1  0  0  0  0
 14 33  1  0  0  0  0
 15 16  1  0  0  0  0
 15 17  1  0  0  0  0
 15 18  1  0  0  0  0
 16 34  1  0  0  0  0
 16 35  1  0  0  0  0
 16 36  1  0  0  0  0
 17 37  1  0  0  0  0
 17 38  1  0  0  0  0
 17 39  1  0  0  0  0
 18 40  1  0  0  0  0
 18 41  1  0  0  0  0
 18 42  1  0  0  0  0
 19 20  1  0  0  0  0
 19 43  1  0  0  0  0
M  END
> <s_m_source_file>
AV-unprocessed.smi

> <i_m_source_file_index>
1537

> <i_lp_mmshare_version>
43012

> <i_f3d_flags>
0

> <s_epik_input>
W0NIM11bQ0gyXWMxbmMoW2NIXXMxKVtDSDJdQyg9TylbTkhdW0NASF0oW0NIM10pQyg9TylbTkhdQyhbQ0gzXSkoW0NIM10pW0NIM10=

> <s_epik_cmdline>
J2VwaWtfcHl0aG9uJywgJy1waCcsICc3LjAnLCAnLXRuJywgJzgnLCAnLW1hJywgJzIwMCcsICctbWV0YWxfYmluZGluZycsICctaW1hZScsICc8aW5maWxlLm1hZT4nLCAnLW9tYWUnLCAnPG91dGZpbGUubWFlPic=

> <r_lp_tautomer_probability>
1

> <r_epik_Ionization_Penalty>
4.05444e-05

> <r_epik_Ionization_Penalty_Charging>
0

> <r_epik_Ionization_Penalty_Neutral>
4.05444e-05

> <r_epik_State_Penalty>
-0

> <r_epik_Charging_Adjusted_Penalty>
0

> <i_epik_Tot_Q>
0

> <i_epik_Tot_abs_Q>
0

> <r_epik_Metal_State_Penalty>
-0

> <b_epik_Metal_Only>
0

> <s_lp_Force_Field>
OPLS_2005

> <r_lp_Energy>
-2.34744

> <b_lp_Chiralities_Consistent>
1

> <s_lp_Variant>
AV-unprocessed.smi:1537-2

> <Gold.Version>
5.8.1

> <Gold.Id.Protein>
6NUR|6NUR_protein|mol2

> <Gold.PLP.Fitness>
41.8218

> <Gold.PLP.PLP>
-37.1035

> <Gold.PLP.part.hbond>
-2.4372

> <Gold.PLP.part.metal>
0.0000

> <Gold.PLP.part.buried>
3.3586

> <Gold.PLP.part.nonpolar>
-37.3121

> <Gold.PLP.part.repulsive>
0.0899

> <Gold.PLP.ligand.clash>
0.0000

> <Gold.PLP.ligand.torsion>
0.6665

> <Gold.PLP.Chemscore.Hbond>
2.0000

> <Gold.PLP.Chemscore.CHOScore>
0.0000

> <Gold.PLP.Chemscore.Metal>
0.0000

> <Gold.Chemscore.Hbonds>
donor molecule, donor type, donor heavy atom, donor atom, acceptor molecule, acceptor atom, score
      L1  H    14    33       P1  7957  1.00
      P1  H  7997  8010       L1     8  1.00

> <Gold.PLP.Chemscore.Internal.Correction>
0.0513

> <Gold.Rescore>
     Score         DG    S(hbond)    S(metal)    S(lipo)     H(rot)  DE(clash)    DE(int)     intcor
     15.62     -19.90       1.96        0.00     108.27       1.88       1.37       2.92       ----

> <Gold.Chemscore.Fitness>
15.6194

> <Gold.Chemscore.DG>
-19.9012

> <Gold.Chemscore.ZeroCoef>
-5.4800

> <Gold.Chemscore.Hbond>
1.9634

> <Gold.Chemscore.Metal>
0.0000

> <Gold.Chemscore.Lipo>
108.2714

> <Gold.Chemscore.Internal_Hbond>
0.0000

> <Gold.Chemscore.DEClash>
1.3657

> <Gold.Chemscore.DEInternal>
2.9161

> <Gold.Chemscore.Rot>
1.8766

> <Gold.Chemscore.Internal.Correction>
   9.000000E+99

> <Gold.Chemscore.Hbonds>
donor molecule, donor type, donor heavy atom, donor atom, acceptor molecule, acceptor atom, score
      L1  H    14    33       P1  7957  0.97
      P1  H  7997  8010       L1     8  1.00

> <Gold.Chemscore.Hbond.Weighted>
-6.5576

> <Gold.Chemscore.Metal.Weighted>
-0.0000

> <Gold.Chemscore.Lipo.Weighted>
-12.6678

> <Gold.Chemscore.Internal_Hbond.Weighted>
0.0000

> <Gold.Chemscore.DEClash.Weighted>
1.3657

> <Gold.Chemscore.DEInternal.Weighted>
2.9161

> <Gold.Chemscore.Rot.Weighted>
4.8042

> <Gold.Chemscore.Internal.Correction.Weighted>
   9.000000E+99

> <Gold.Protein.RotatedTorsions>
[ 6907 6896 6895 6894 ] final  -55.51 input  -60.11 | X-H torsion
[ 7974 7965 7964 7962 ] final  135.56 input  175.53 | X-H torsion
[ 8008 7997 7996 7995 ] final   83.88 input   59.86 | X-H torsion
[ 10167 10162 10161 10158 ] final   68.11 input  -65.29 | X-H torsion
[ 10718 10713 10712 10709 ] final -101.60 input   66.30 | X-H torsion
[ 10763 10752 10751 10750 ] final -108.72 input  -60.55 | X-H torsion
[ 11005 11000 10999 10996 ] final -144.76 input  -57.11 | X-H torsion

> <Gold.Protein.ActiveResidues>
 VAL166  LYS551  ARG553  GLY616  TRP617  ASP618  TYR619  PRO620  LYS621  CYS622 
 ASP623  PHE694  ASN695  SER759  ASP760  ASP761  ALA762  ILE779  LEU786  VAL792 
 PHE793  MET794  SER795  GLU796  ALA797  LYS798  CYS799  TRP800  GLU811  SER814 

> <Gold.Protein.RotatedAtoms>
  150.8245  134.7470  159.6800 H   0  0  0  0  0  0  0  0  0  0  0  0  # atno 6907 bound_to 6896
  152.4358  134.5687  159.9924 H   0  0  0  0  0  0  0  0  0  0  0  0  # atno 6908 bound_to 6896
  151.5862  133.3334  159.3054 H   0  0  0  0  0  0  0  0  0  0  0  0  # atno 6909 bound_to 6896
  144.9651  139.4667  143.5460 H   0  0  0  0  0  0  0  0  0  0  0  0  # atno 7974 bound_to 7965
  155.9298  140.3415  155.6239 H   0  0  0  0  0  0  0  0  0  0  0  0  # atno 8008 bound_to 7997
  155.7172  140.0779  157.2365 H   0  0  0  0  0  0  0  0  0  0  0  0  # atno 8009 bound_to 7997
  154.4083  140.1612  156.2349 H   0  0  0  0  0  0  0  0  0  0  0  0  # atno 8010 bound_to 7997
  140.0822  144.5061  150.7154 H   0  0  0  0  0  0  0  0  0  0  0  0  # atno 10167 bound_to 10162
  156.0200  130.5381  150.6986 H   0  0  0  0  0  0  0  0  0  0  0  0  # atno 10718 bound_to 10713
  154.8152  135.4627  154.0623 H   0  0  0  0  0  0  0  0  0  0  0  0  # atno 10763 bound_to 10752
  153.2022  135.6870  153.8224 H   0  0  0  0  0  0  0  0  0  0  0  0  # atno 10764 bound_to 10752
  153.7705  135.3271  155.3328 H   0  0  0  0  0  0  0  0  0  0  0  0  # atno 10765 bound_to 10752
  140.7991  134.2878  157.4985 H   0  0  0  0  0  0  0  0  0  0  0  0  # atno 11005 bound_to 11000
  146.3365  139.8827  142.8822 LP  0  0  0  0  0  0  0  0  0  0  0  0  # atno 17320 bound_to 7965
  145.2642  141.0087  143.3809 LP  0  0  0  0  0  0  0  0  0  0  0  0  # atno 17321 bound_to 7965
  140.7072  143.2477  151.4691 LP  0  0  0  0  0  0  0  0  0  0  0  0  # atno 17342 bound_to 10162
  139.5773  144.1790  152.1920 LP  0  0  0  0  0  0  0  0  0  0  0  0  # atno 17343 bound_to 10162
  157.4651  131.0887  151.0703 LP  0  0  0  0  0  0  0  0  0  0  0  0  # atno 17370 bound_to 10713
  157.1179  130.6049  149.5498 LP  0  0  0  0  0  0  0  0  0  0  0  0  # atno 17371 bound_to 10713
  139.8723  134.9419  156.3810 LP  0  0  0  0  0  0  0  0  0  0  0  0  # atno 17394 bound_to 11000
  140.9312  133.7578  156.0027 LP  0  0  0  0  0  0  0  0  0  0  0  0  # atno 17395 bound_to 11000

$$$$
