AV-unprocessed.smi:756|AV-procd|sdf|3612|dock3
  -GOLD-   22720 1 13D 1   1.00000     0.00000
 Structure written by MMmdl.
 42 43  0  0  0  0  0  0  0  0  1 V2000
  146.6195  139.3626  156.8303 C   0  0  0  0  0  0  0  0  0  0  0  0
  146.6804  140.1459  155.5306 C   0  0  0  0  0  0  0  0  0  0  0  0
  147.0444  139.6543  154.3415 C   0  0  0  0  0  0  0  0  0  0  0  0
  146.9591  140.8425  153.0643 S   0  0  0  0  0  0  0  0  0  0  0  0
  146.3853  142.0786  154.2406 C   0  0  0  0  0  0  0  0  0  0  0  0
  146.1208  143.2354  153.9172 O   0  0  0  0  0  0  0  0  0  0  0  0
  146.3108  141.4981  155.5066 N   0  0  0  0  0  0  0  0  0  0  0  0
  145.8856  142.2459  156.6974 C   0  0  0  0  0  0  0  0  0  0  0  0
  146.9472  142.2723  157.8051 C   0  0  0  0  0  0  0  0  0  0  0  0
  146.7233  141.7816  158.9126 O   0  0  0  0  0  0  0  0  0  0  0  0
  148.1164  142.8403  157.4805 N   0  0  0  0  0  0  0  0  0  0  0  0
  149.2556  142.9636  158.3832 C   0  0  0  0  0  0  0  0  0  0  0  0
  150.6017  142.5900  157.7110 C   0  0  1  0  0  0  0  0  0  0  0  0
  150.6552  141.1005  157.3043 C   0  0  0  0  0  0  0  0  0  0  0  0
  150.7124  143.3662  156.5316 O   0  0  0  0  0  0  0  0  0  0  0  0
  151.7892  142.9457  158.6524 C   0  0  0  0  0  0  0  0  0  0  0  0
  152.1372  141.8975  159.7190 C   0  0  0  0  0  0  0  0  0  0  0  0
  153.0507  142.6415  160.6925 C   0  0  0  0  0  0  0  0  0  0  0  0
  152.5687  144.0975  160.6828 C   0  0  0  0  0  0  0  0  0  0  0  0
  151.6460  144.2467  159.4635 C   0  0  0  0  0  0  0  0  0  0  0  0
  146.6686  138.2916  156.6308 H   0  0  0  0  0  0  0  0  0  0  0  0
  145.6909  139.5531  157.3687 H   0  0  0  0  0  0  0  0  0  0  0  0
  147.4601  139.6259  157.4726 H   0  0  0  0  0  0  0  0  0  0  0  0
  147.3546  138.6404  154.1354 H   0  0  0  0  0  0  0  0  0  0  0  0
  145.6084  143.2684  156.4423 H   0  0  0  0  0  0  0  0  0  0  0  0
  144.9762  141.7939  157.0974 H   0  0  0  0  0  0  0  0  0  0  0  0
  148.2240  143.2256  156.5534 H   0  0  0  0  0  0  0  0  0  0  0  0
  149.2858  143.9807  158.7775 H   0  0  0  0  0  0  0  0  0  0  0  0
  149.0843  142.3033  159.2353 H   0  0  0  0  0  0  0  0  0  0  0  0
  150.5488  140.4535  158.1756 H   0  0  0  0  0  0  0  0  0  0  0  0
  151.5984  140.8474  156.8202 H   0  0  0  0  0  0  0  0  0  0  0  0
  149.8661  140.8367  156.5997 H   0  0  0  0  0  0  0  0  0  0  0  0
  149.9614  143.9372  156.4765 H   0  0  0  0  0  0  0  0  0  0  0  0
  152.6779  143.0622  158.0293 H   0  0  0  0  0  0  0  0  0  0  0  0
  151.2396  141.5675  160.2433 H   0  0  0  0  0  0  0  0  0  0  0  0
  152.6222  141.0147  159.3015 H   0  0  0  0  0  0  0  0  0  0  0  0
  153.0357  142.2035  161.6909 H   0  0  0  0  0  0  0  0  0  0  0  0
  154.0787  142.5970  160.3300 H   0  0  0  0  0  0  0  0  0  0  0  0
  152.0232  144.3313  161.5978 H   0  0  0  0  0  0  0  0  0  0  0  0
  153.4161  144.7816  160.6263 H   0  0  0  0  0  0  0  0  0  0  0  0
  151.9018  145.1253  158.8706 H   0  0  0  0  0  0  0  0  0  0  0  0
  150.6206  144.3789  159.8099 H   0  0  0  0  0  0  0  0  0  0  0  0
  1  2  1  0  0  0  0
  1 21  1  0  0  0  0
  1 22  1  0  0  0  0
  1 23  1  0  0  0  0
  2  7  1  0  0  0  0
  2  3  2  0  0  0  0
  3  4  1  0  0  0  0
  3 24  1  0  0  0  0
  4  5  1  0  0  0  0
  5  6  2  0  0  0  0
  5  7  1  0  0  0  0
  7  8  1  0  0  0  0
  8  9  1  0  0  0  0
  8 25  1  0  0  0  0
  8 26  1  0  0  0  0
  9 10  2  0  0  0  0
  9 11  1  0  0  0  0
 11 12  1  0  0  0  0
 11 27  1  0  0  0  0
 12 13  1  0  0  0  0
 12 28  1  0  0  0  0
 12 29  1  0  0  0  0
 13 14  1  0  0  0  0
 13 15  1  0  0  0  0
 13 16  1  0  0  0  0
 14 30  1  0  0  0  0
 14 31  1  0  0  0  0
 14 32  1  0  0  0  0
 15 33  1  0  0  0  0
 16 20  1  0  0  0  0
 16 17  1  0  0  0  0
 16 34  1  0  0  0  0
 17 18  1  0  0  0  0
 17 35  1  0  0  0  0
 17 36  1  0  0  0  0
 18 19  1  0  0  0  0
 18 37  1  0  0  0  0
 18 38  1  0  0  0  0
 19 20  1  0  0  0  0
 19 39  1  0  0  0  0
 19 40  1  0  0  0  0
 20 41  1  0  0  0  0
 20 42  1  0  0  0  0
M  END
> <s_m_source_file>
AV-unprocessed.smi

> <i_m_source_file_index>
756

> <i_lp_mmshare_version>
43012

> <i_f3d_flags>
0

> <s_epik_input>
W0NIM11jMVtjSF1zYyg9TyluMVtDSDJdQyg9TylbTkhdW0NIMl1bQ0BAXShbQ0gzXSkoW09IXSlbQ0hdMltDSDJdW0NIMl1bQ0gyXVtDSDJdMg==

> <s_epik_cmdline>
J2VwaWtfcHl0aG9uJywgJy1waCcsICc3LjAnLCAnLXRuJywgJzgnLCAnLW1hJywgJzIwMCcsICctbWV0YWxfYmluZGluZycsICctaW1hZScsICc8aW5maWxlLm1hZT4nLCAnLW9tYWUnLCAnPG91dGZpbGUubWFlPic=

> <r_lp_tautomer_probability>
1

> <r_epik_Ionization_Penalty>
1.53576e-06

> <r_epik_Ionization_Penalty_Charging>
1.31044e-06

> <r_epik_Ionization_Penalty_Neutral>
2.25323e-07

> <r_epik_State_Penalty>
-0

> <r_epik_Charging_Adjusted_Penalty>
1.31044e-06

> <i_epik_Tot_Q>
0

> <i_epik_Tot_abs_Q>
0

> <r_epik_Metal_State_Penalty>
-0

> <b_epik_Metal_Only>
0

> <s_lp_Force_Field>
OPLS_2005

> <r_lp_Energy>
32.8559

> <b_lp_Chiralities_Consistent>
1

> <s_lp_Variant>
AV-unprocessed.smi:756-1

> <Gold.Version>
5.8.1

> <Gold.Id.Protein>
6NUR|6NUR_protein|mol2

> <Gold.PLP.Fitness>
40.4967

> <Gold.PLP.PLP>
-34.2962

> <Gold.PLP.part.hbond>
-3.6706

> <Gold.PLP.part.metal>
0.0000

> <Gold.PLP.part.buried>
-5.6497

> <Gold.PLP.part.nonpolar>
-25.4275

> <Gold.PLP.part.repulsive>
0.2775

> <Gold.PLP.ligand.clash>
0.0000

> <Gold.PLP.ligand.torsion>
0.7268

> <Gold.PLP.Chemscore.Hbond>
2.5360

> <Gold.PLP.Chemscore.CHOScore>
0.0000

> <Gold.PLP.Chemscore.Metal>
0.0000

> <Gold.Chemscore.Hbonds>
donor molecule, donor type, donor heavy atom, donor atom, acceptor molecule, acceptor atom, score
      L1  H    11    27       P1  8028  0.83
      L1  H    15    33       P1  8028  1.00
      P1  H  6934  6946       L1    10  0.69

> <Gold.PLP.Chemscore.Internal.Correction>
0.0462

> <Gold.Rescore>
     Score         DG    S(hbond)    S(metal)    S(lipo)     H(rot)  DE(clash)    DE(int)     intcor
     15.80     -16.27       2.06        0.00      85.30       2.37       0.03       0.43       ----

> <Gold.Chemscore.Fitness>
15.8002

> <Gold.Chemscore.DG>
-16.2657

> <Gold.Chemscore.ZeroCoef>
-5.4800

> <Gold.Chemscore.Hbond>
2.0591

> <Gold.Chemscore.Metal>
0.0000

> <Gold.Chemscore.Lipo>
85.2971

> <Gold.Chemscore.Internal_Hbond>
0.0000

> <Gold.Chemscore.DEClash>
0.0330

> <Gold.Chemscore.DEInternal>
0.4326

> <Gold.Chemscore.Rot>
2.3717

> <Gold.Chemscore.Internal.Correction>
   9.000000E+99

> <Gold.Chemscore.Hbonds>
donor molecule, donor type, donor heavy atom, donor atom, acceptor molecule, acceptor atom, score
      L1  H    11    27       P1  8028  0.29
      L1  H    15    33       P1  8028  0.92
      P1  H  6934  6946       L1    10  0.64

> <Gold.Chemscore.Hbond.Weighted>
-6.8775

> <Gold.Chemscore.Metal.Weighted>
-0.0000

> <Gold.Chemscore.Lipo.Weighted>
-9.9798

> <Gold.Chemscore.Internal_Hbond.Weighted>
0.0000

> <Gold.Chemscore.DEClash.Weighted>
0.0330

> <Gold.Chemscore.DEInternal.Weighted>
0.4326

> <Gold.Chemscore.Rot.Weighted>
6.0715

> <Gold.Chemscore.Internal.Correction.Weighted>
   9.000000E+99

> <Gold.Protein.RotatedTorsions>
[ 6907 6896 6895 6894 ] final   42.71 input  -60.11 | X-H torsion
[ 7974 7965 7964 7962 ] final   29.90 input  175.53 | X-H torsion
[ 8008 7997 7996 7995 ] final  -50.90 input   59.86 | X-H torsion
[ 10167 10162 10161 10158 ] final   57.69 input  -65.29 | X-H torsion
[ 10718 10713 10712 10709 ] final  144.60 input   66.30 | X-H torsion
[ 10763 10752 10751 10750 ] final  132.43 input  -60.55 | X-H torsion
[ 11005 11000 10999 10996 ] final -110.42 input  -57.11 | X-H torsion

> <Gold.Protein.ActiveResidues>
 VAL166  LYS551  ARG553  GLY616  TRP617  ASP618  TYR619  PRO620  LYS621  CYS622 
 ASP623  PHE694  ASN695  SER759  ASP760  ASP761  ALA762  ILE779  LEU786  VAL792 
 PHE793  MET794  SER795  GLU796  ALA797  LYS798  CYS799  TRP800  GLU811  SER814 

> <Gold.Protein.RotatedAtoms>
  152.2112  134.8500  160.0496 H   0  0  0  0  0  0  0  0  0  0  0  0  # atno 6907 bound_to 6896
  151.9317  133.3608  159.3941 H   0  0  0  0  0  0  0  0  0  0  0  0  # atno 6908 bound_to 6896
  150.6977  134.4455  159.5356 H   0  0  0  0  0  0  0  0  0  0  0  0  # atno 6909 bound_to 6896
  146.1644  139.6860  142.9011 H   0  0  0  0  0  0  0  0  0  0  0  0  # atno 7974 bound_to 7965
  154.4071  140.1261  156.4741 H   0  0  0  0  0  0  0  0  0  0  0  0  # atno 8008 bound_to 7997
  155.7150  140.3493  155.4971 H   0  0  0  0  0  0  0  0  0  0  0  0  # atno 8009 bound_to 7997
  155.9266  140.1062  157.1155 H   0  0  0  0  0  0  0  0  0  0  0  0  # atno 8010 bound_to 7997
  140.1953  144.4044  150.6553 H   0  0  0  0  0  0  0  0  0  0  0  0  # atno 10167 bound_to 10162
  157.3552  131.0957  151.0965 H   0  0  0  0  0  0  0  0  0  0  0  0  # atno 10718 bound_to 10713
  153.7906  135.3155  155.3378 H   0  0  0  0  0  0  0  0  0  0  0  0  # atno 10763 bound_to 10752
  154.8127  135.4656  154.0563 H   0  0  0  0  0  0  0  0  0  0  0  0  # atno 10764 bound_to 10752
  153.1880  135.6904  153.8477 H   0  0  0  0  0  0  0  0  0  0  0  0  # atno 10765 bound_to 10752
  141.0793  133.9248  157.2323 H   0  0  0  0  0  0  0  0  0  0  0  0  # atno 11005 bound_to 11000
  145.4506  141.0428  143.2807 LP  0  0  0  0  0  0  0  0  0  0  0  0  # atno 17320 bound_to 7965
  144.8071  139.6030  143.7046 LP  0  0  0  0  0  0  0  0  0  0  0  0  # atno 17321 bound_to 7965
  140.6428  143.2207  151.6253 LP  0  0  0  0  0  0  0  0  0  0  0  0  # atno 17342 bound_to 10162
  139.5239  144.3119  152.0985 LP  0  0  0  0  0  0  0  0  0  0  0  0  # atno 17343 bound_to 10162
  157.2125  130.6444  149.5780 LP  0  0  0  0  0  0  0  0  0  0  0  0  # atno 17370 bound_to 10713
  155.9728  130.4655  150.6256 LP  0  0  0  0  0  0  0  0  0  0  0  0  # atno 17371 bound_to 10713
  139.9606  135.0155  156.9250 LP  0  0  0  0  0  0  0  0  0  0  0  0  # atno 17394 bound_to 11000
  140.5504  134.0632  155.7367 LP  0  0  0  0  0  0  0  0  0  0  0  0  # atno 17395 bound_to 11000

$$$$
