AV-unprocessed.smi:363|AV-procd|sdf|2423|dock9
  -GOLD-   2262022363D 1   1.00000     0.00000
 Structure written by MMmdl.
 39 40  0  0  0  0  0  0  0  0  1 V2000
  149.0753  140.7431  153.5171 C   0  0  0  0  0  0  0  0  0  0  0  0
  149.5878  140.5361  154.9372 C   0  0  0  0  0  0  0  0  0  0  0  0
  150.0149  141.6994  155.6793 C   0  0  0  0  0  0  0  0  0  0  0  0
  150.5212  141.5864  156.9175 C   0  0  0  0  0  0  0  0  0  0  0  0
  150.9841  142.8213  157.6835 C   0  0  0  0  0  0  0  0  0  0  0  0
  150.6288  140.3118  157.5396 N   0  0  0  0  0  0  0  0  0  0  0  0
  151.1906  140.2111  158.9073 C   0  0  0  0  0  0  0  0  0  0  0  0
  152.6602  140.6904  158.9723 C   0  0  2  0  0  0  0  0  0  0  0  0
  153.5128  139.6221  158.6107 O   0  0  0  0  0  0  0  0  0  0  0  0
  153.0054  141.2115  160.3593 C   0  0  0  0  0  0  0  0  0  0  0  0
  152.3955  142.3884  160.8443 C   0  0  0  0  0  0  0  0  0  0  0  0
  152.7082  142.8729  162.1294 C   0  0  0  0  0  0  0  0  0  0  0  0
  153.6315  142.1826  162.9382 C   0  0  0  0  0  0  0  0  0  0  0  0
  154.0150  142.7774  164.5118 Cl  0  0  0  0  0  0  0  0  0  0  0  0
  154.2409  141.0061  162.4611 C   0  0  0  0  0  0  0  0  0  0  0  0
  153.9283  140.5215  161.1761 C   0  0  0  0  0  0  0  0  0  0  0  0
  150.2140  139.1608  156.9190 C   0  0  0  0  0  0  0  0  0  0  0  0
  150.2617  138.0794  157.5142 O   0  0  0  0  0  0  0  0  0  0  0  0
  149.6991  139.3173  155.5307 C   0  0  0  0  0  0  0  0  0  0  0  0
  149.2847  138.0821  154.8370 C   0  0  0  0  0  0  0  0  0  0  0  0
  149.9103  137.8439  153.6761 N   0  0  0  0  0  0  0  0  0  0  0  0
  148.3814  137.3359  155.2112 O   0  0  0  0  0  0  0  0  0  0  0  0
  149.2613  141.7618  153.1762 H   0  0  0  0  0  0  0  0  0  0  0  0
  148.0002  140.5683  153.4692 H   0  0  0  0  0  0  0  0  0  0  0  0
  149.5720  140.0706  152.8171 H   0  0  0  0  0  0  0  0  0  0  0  0
  149.9348  142.6762  155.2244 H   0  0  0  0  0  0  0  0  0  0  0  0
  151.0666  143.6796  157.0159 H   0  0  0  0  0  0  0  0  0  0  0  0
  151.9635  142.6868  158.1393 H   0  0  0  0  0  0  0  0  0  0  0  0
  150.2639  143.0805  158.4601 H   0  0  0  0  0  0  0  0  0  0  0  0
  150.5815  140.8026  159.5893 H   0  0  0  0  0  0  0  0  0  0  0  0
  151.0997  139.2098  159.3324 H   0  0  0  0  0  0  0  0  0  0  0  0
  152.8249  141.4921  158.2517 H   0  0  0  0  0  0  0  0  0  0  0  0
  153.2505  138.8534  159.0936 H   0  0  0  0  0  0  0  0  0  0  0  0
  151.6845  142.9257  160.2336 H   0  0  0  0  0  0  0  0  0  0  0  0
  152.2387  143.7750  162.4934 H   0  0  0  0  0  0  0  0  0  0  0  0
  154.9483  140.4733  163.0794 H   0  0  0  0  0  0  0  0  0  0  0  0
  154.3991  139.6170  160.8193 H   0  0  0  0  0  0  0  0  0  0  0  0
  149.6714  137.0273  153.1323 H   0  0  0  0  0  0  0  0  0  0  0  0
  150.6081  138.4923  153.3409 H   0  0  0  0  0  0  0  0  0  0  0  0
  1  2  1  0  0  0  0
  1 23  1  0  0  0  0
  1 24  1  0  0  0  0
  1 25  1  0  0  0  0
  2 19  2  0  0  0  0
  2  3  1  0  0  0  0
  3  4  2  0  0  0  0
  3 26  1  0  0  0  0
  4  5  1  0  0  0  0
  4  6  1  0  0  0  0
  5 27  1  0  0  0  0
  5 28  1  0  0  0  0
  5 29  1  0  0  0  0
  6  7  1  0  0  0  0
  6 17  1  0  0  0  0
  7  8  1  0  0  0  0
  7 30  1  0  0  0  0
  7 31  1  0  0  0  0
  8  9  1  0  0  0  0
  8 10  1  0  0  0  0
  8 32  1  0  0  0  0
  9 33  1  0  0  0  0
 10 16  1  0  0  0  0
 10 11  2  0  0  0  0
 11 12  1  0  0  0  0
 11 34  1  0  0  0  0
 12 13  2  0  0  0  0
 12 35  1  0  0  0  0
 13 14  1  0  0  0  0
 13 15  1  0  0  0  0
 15 16  2  0  0  0  0
 15 36  1  0  0  0  0
 16 37  1  0  0  0  0
 17 18  2  0  0  0  0
 17 19  1  0  0  0  0
 19 20  1  0  0  0  0
 20 21  1  0  0  0  0
 20 22  2  0  0  0  0
 21 38  1  0  0  0  0
 21 39  1  0  0  0  0
M  END
> <s_m_source_file>
AV-unprocessed.smi

> <i_m_source_file_index>
363

> <i_lp_mmshare_version>
43012

> <i_f3d_flags>
0

> <s_epik_input>
W0NIM11jMVtjSF1jKFtDSDNdKW4oYyg9TyljMUMoPU8pW05IMl0pW0NIMl1bQ0BIXShbT0hdKWMyW2NIXVtjSF1jKENsKVtjSF1bY0hdMg==

> <s_epik_cmdline>
J2VwaWtfcHl0aG9uJywgJy1waCcsICc3LjAnLCAnLXRuJywgJzgnLCAnLW1hJywgJzIwMCcsICctbWV0YWxfYmluZGluZycsICctaW1hZScsICc8aW5maWxlLm1hZT4nLCAnLW9tYWUnLCAnPG91dGZpbGUubWFlPic=

> <r_lp_tautomer_probability>
1

> <r_epik_Ionization_Penalty>
3.91973e-07

> <r_epik_Ionization_Penalty_Charging>
1.35363e-07

> <r_epik_Ionization_Penalty_Neutral>
2.5661e-07

> <r_epik_State_Penalty>
-0

> <r_epik_Charging_Adjusted_Penalty>
1.35363e-07

> <i_epik_Tot_Q>
0

> <i_epik_Tot_abs_Q>
0

> <r_epik_Metal_State_Penalty>
-0

> <b_epik_Metal_Only>
0

> <s_lp_Force_Field>
OPLS_2005

> <r_lp_Energy>
39.7948

> <b_lp_Chiralities_Consistent>
1

> <s_lp_Variant>
AV-unprocessed.smi:363-1

> <Gold.Version>
5.8.1

> <Gold.Id.Protein>
6NUR|6NUR_protein|mol2

> <Gold.PLP.Fitness>
44.1745

> <Gold.PLP.PLP>
-40.9129

> <Gold.PLP.part.hbond>
-2.5594

> <Gold.PLP.part.metal>
0.0000

> <Gold.PLP.part.buried>
4.6433

> <Gold.PLP.part.nonpolar>
-41.6362

> <Gold.PLP.part.repulsive>
0.1314

> <Gold.PLP.ligand.clash>
0.0000

> <Gold.PLP.ligand.torsion>
1.5456

> <Gold.PLP.Chemscore.Hbond>
2.0000

> <Gold.PLP.Chemscore.CHOScore>
0.0000

> <Gold.PLP.Chemscore.Metal>
0.0000

> <Gold.Chemscore.Hbonds>
donor molecule, donor type, donor heavy atom, donor atom, acceptor molecule, acceptor atom, score
      L1  H    21    38       P1  7948  1.00
      P1  H  7997  8010       L1     9  0.96

> <Gold.PLP.Chemscore.Internal.Correction>
0.3528

> <Gold.Rescore>
     Score         DG    S(hbond)    S(metal)    S(lipo)     H(rot)  DE(clash)    DE(int)     intcor
     17.20     -18.83       1.57        0.00     111.86       1.95       0.12       1.51       ----

> <Gold.Chemscore.Fitness>
17.1959

> <Gold.Chemscore.DG>
-18.8319

> <Gold.Chemscore.ZeroCoef>
-5.4800

> <Gold.Chemscore.Hbond>
1.5735

> <Gold.Chemscore.Metal>
0.0000

> <Gold.Chemscore.Lipo>
111.8568

> <Gold.Chemscore.Internal_Hbond>
0.0000

> <Gold.Chemscore.DEClash>
0.1248

> <Gold.Chemscore.DEInternal>
1.5112

> <Gold.Chemscore.Rot>
1.9495

> <Gold.Chemscore.Internal.Correction>
   9.000000E+99

> <Gold.Chemscore.Hbonds>
donor molecule, donor type, donor heavy atom, donor atom, acceptor molecule, acceptor atom, score
      L1  H    21    38       P1  7948  0.54
      P1  H  7997  8010       L1     9  0.82

> <Gold.Chemscore.Hbond.Weighted>
-5.2555

> <Gold.Chemscore.Metal.Weighted>
-0.0000

> <Gold.Chemscore.Lipo.Weighted>
-13.0872

> <Gold.Chemscore.Internal_Hbond.Weighted>
0.0000

> <Gold.Chemscore.DEClash.Weighted>
0.1248

> <Gold.Chemscore.DEInternal.Weighted>
1.5112

> <Gold.Chemscore.Rot.Weighted>
4.9908

> <Gold.Chemscore.Internal.Correction.Weighted>
   9.000000E+99

> <Gold.Protein.RotatedTorsions>
[ 6907 6896 6895 6894 ] final  -59.36 input  -60.11 | X-H torsion
[ 7974 7965 7964 7962 ] final -129.54 input  175.53 | X-H torsion
[ 8008 7997 7996 7995 ] final    5.36 input   59.86 | X-H torsion
[ 10167 10162 10161 10158 ] final   75.05 input  -65.29 | X-H torsion
[ 10718 10713 10712 10709 ] final -177.85 input   66.30 | X-H torsion
[ 10763 10752 10751 10750 ] final  127.91 input  -60.55 | X-H torsion
[ 11005 11000 10999 10996 ] final  -36.76 input  -57.11 | X-H torsion

> <Gold.Protein.ActiveResidues>
 VAL166  LYS551  ARG553  GLY616  TRP617  ASP618  TYR619  PRO620  LYS621  CYS622 
 ASP623  PHE694  ASN695  SER759  ASP760  ASP761  ALA762  ILE779  LEU786  VAL792 
 PHE793  MET794  SER795  GLU796  ALA797  LYS798  CYS799  TRP800  GLU811  SER814 

> <Gold.Protein.RotatedAtoms>
  150.7936  134.6978  159.6532 H   0  0  0  0  0  0  0  0  0  0  0  0  # atno 6907 bound_to 6896
  152.4045  134.6227  160.0065 H   0  0  0  0  0  0  0  0  0  0  0  0  # atno 6908 bound_to 6896
  151.6488  133.3285  159.3183 H   0  0  0  0  0  0  0  0  0  0  0  0  # atno 6909 bound_to 6896
  144.9562  140.7398  143.4757 H   0  0  0  0  0  0  0  0  0  0  0  0  # atno 7974 bound_to 7965
  154.7275  140.2724  155.6486 H   0  0  0  0  0  0  0  0  0  0  0  0  # atno 8008 bound_to 7997
  156.2840  140.2722  156.1890 H   0  0  0  0  0  0  0  0  0  0  0  0  # atno 8009 bound_to 7997
  155.0426  140.0371  157.2505 H   0  0  0  0  0  0  0  0  0  0  0  0  # atno 8010 bound_to 7997
  140.0072  144.5642  150.7688 H   0  0  0  0  0  0  0  0  0  0  0  0  # atno 10167 bound_to 10162
  156.8356  130.9668  151.3103 H   0  0  0  0  0  0  0  0  0  0  0  0  # atno 10718 bound_to 10713
  153.7170  135.3259  155.3258 H   0  0  0  0  0  0  0  0  0  0  0  0  # atno 10763 bound_to 10752
  154.8368  135.4490  154.1256 H   0  0  0  0  0  0  0  0  0  0  0  0  # atno 10764 bound_to 10752
  153.2366  135.6966  153.7910 H   0  0  0  0  0  0  0  0  0  0  0  0  # atno 10765 bound_to 10752
  140.9900  133.7010  156.1833 H   0  0  0  0  0  0  0  0  0  0  0  0  # atno 11005 bound_to 11000
  145.2768  139.1933  143.4812 LP  0  0  0  0  0  0  0  0  0  0  0  0  # atno 17320 bound_to 7965
  146.3338  140.2724  142.8606 LP  0  0  0  0  0  0  0  0  0  0  0  0  # atno 17321 bound_to 7965
  140.7396  143.2793  151.3646 LP  0  0  0  0  0  0  0  0  0  0  0  0  # atno 17342 bound_to 10162
  139.6230  144.0869  152.2409 LP  0  0  0  0  0  0  0  0  0  0  0  0  # atno 17343 bound_to 10162
  157.6383  130.8785  149.9401 LP  0  0  0  0  0  0  0  0  0  0  0  0  # atno 17370 bound_to 10713
  156.0909  130.3663  150.0396 LP  0  0  0  0  0  0  0  0  0  0  0  0  # atno 17371 bound_to 10713
  140.7055  134.4518  157.5584 LP  0  0  0  0  0  0  0  0  0  0  0  0  # atno 17394 bound_to 11000
  139.8988  134.8606  156.1987 LP  0  0  0  0  0  0  0  0  0  0  0  0  # atno 17395 bound_to 11000

$$$$
