AV-unprocessed.smi:2114|AV-procd|sdf|8622|dock1
  -GOLD-   2272011363D 1   1.00000     0.00000
 Structure written by MMmdl.
 47 48  0  0  0  0  0  0  0  0  1 V2000
  155.8407  139.5720  165.6695 C   0  0  0  0  0  0  0  0  0  0  0  0
  155.7249  138.6491  164.6010 O   0  0  0  0  0  0  0  0  0  0  0  0
  154.8509  137.5731  164.9020 C   0  0  0  0  0  0  0  0  0  0  0  0
  155.0343  136.4629  163.8559 C   0  0  1  0  0  0  0  0  0  0  0  0
  154.4308  135.1319  164.3262 C   0  0  0  0  0  0  0  0  0  0  0  0
  154.4045  136.8644  162.6007 N   0  0  0  0  0  0  0  0  0  0  0  0
  155.0268  137.0094  161.4193 C   0  0  0  0  0  0  0  0  0  0  0  0
  156.2338  136.8344  161.2526 O   0  0  0  0  0  0  0  0  0  0  0  0
  154.1557  137.4753  160.2899 C   0  0  0  0  0  0  0  0  0  0  0  0
  152.7482  137.5140  160.4074 C   0  0  0  0  0  0  0  0  0  0  0  0
  151.9822  137.9437  159.3070 C   0  0  0  0  0  0  0  0  0  0  0  0
  152.6474  138.3197  158.1223 C   0  0  0  0  0  0  0  0  0  0  0  0
  151.8890  138.7559  157.0274 N   0  0  0  0  0  0  0  0  0  0  0  0
  151.6303  140.1890  157.0190 C   0  0  0  0  0  0  0  0  0  0  0  0
  150.6426  140.5373  155.8913 C   0  0  1  0  0  0  0  0  0  0  0  0
  150.4164  142.0483  155.7739 C   0  0  0  0  0  0  0  0  0  0  0  0
  151.1622  140.0673  154.6468 O   0  0  0  0  0  0  0  0  0  0  0  0
  151.4437  138.6653  154.6027 C   0  0  2  0  0  0  0  0  0  0  0  0
  150.1589  137.8194  154.5637 C   0  0  0  0  0  0  0  0  0  0  0  0
  152.3990  138.2777  155.7493 C   0  0  0  0  0  0  0  0  0  0  0  0
  153.9949  138.2715  157.9958 N   0  0  0  0  0  0  0  0  0  0  0  0
  154.7232  137.8531  159.0531 C   0  0  0  0  0  0  0  0  0  0  0  0
  156.5181  140.3776  165.3859 H   0  0  0  0  0  0  0  0  0  0  0  0
  156.2429  139.0935  166.5634 H   0  0  0  0  0  0  0  0  0  0  0  0
  154.8746  140.0153  165.9139 H   0  0  0  0  0  0  0  0  0  0  0  0
  155.0822  137.1876  165.8963 H   0  0  0  0  0  0  0  0  0  0  0  0
  153.8152  137.9169  164.9174 H   0  0  0  0  0  0  0  0  0  0  0  0
  156.1060  136.3128  163.7132 H   0  0  0  0  0  0  0  0  0  0  0  0
  154.8976  134.7957  165.2523 H   0  0  0  0  0  0  0  0  0  0  0  0
  154.5786  134.3490  163.5816 H   0  0  0  0  0  0  0  0  0  0  0  0
  153.3591  135.2226  164.5072 H   0  0  0  0  0  0  0  0  0  0  0  0
  153.4150  137.0616  162.6365 H   0  0  0  0  0  0  0  0  0  0  0  0
  152.2530  137.2187  161.3211 H   0  0  0  0  0  0  0  0  0  0  0  0
  150.9049  137.9858  159.3745 H   0  0  0  0  0  0  0  0  0  0  0  0
  151.2236  140.4949  157.9838 H   0  0  0  0  0  0  0  0  0  0  0  0
  152.5663  140.7313  156.8758 H   0  0  0  0  0  0  0  0  0  0  0  0
  149.6792  140.0664  156.0888 H   0  0  0  0  0  0  0  0  0  0  0  0
  150.0095  142.4573  156.6991 H   0  0  0  0  0  0  0  0  0  0  0  0
  149.7121  142.2752  154.9732 H   0  0  0  0  0  0  0  0  0  0  0  0
  151.3481  142.5718  155.5567 H   0  0  0  0  0  0  0  0  0  0  0  0
  151.9656  138.4895  153.6619 H   0  0  0  0  0  0  0  0  0  0  0  0
  150.3938  136.7688  154.3911 H   0  0  0  0  0  0  0  0  0  0  0  0
  149.5031  138.1471  153.7568 H   0  0  0  0  0  0  0  0  0  0  0  0
  149.5976  137.8760  155.4962 H   0  0  0  0  0  0  0  0  0  0  0  0
  153.3806  138.7192  155.5700 H   0  0  0  0  0  0  0  0  0  0  0  0
  152.5376  137.1961  155.7794 H   0  0  0  0  0  0  0  0  0  0  0  0
  155.7932  137.8305  158.9042 H   0  0  0  0  0  0  0  0  0  0  0  0
  1  2  1  0  0  0  0
  1 23  1  0  0  0  0
  1 24  1  0  0  0  0
  1 25  1  0  0  0  0
  2  3  1  0  0  0  0
  3  4  1  0  0  0  0
  3 26  1  0  0  0  0
  3 27  1  0  0  0  0
  4  5  1  0  0  0  0
  4  6  1  0  0  0  0
  4 28  1  0  0  0  0
  5 29  1  0  0  0  0
  5 30  1  0  0  0  0
  5 31  1  0  0  0  0
  6  7  1  0  0  0  0
  6 32  1  0  0  0  0
  7  8  2  0  0  0  0
  7  9  1  0  0  0  0
  9 22  1  0  0  0  0
  9 10  2  0  0  0  0
 10 11  1  0  0  0  0
 10 33  1  0  0  0  0
 11 12  2  0  0  0  0
 11 34  1  0  0  0  0
 12 13  1  0  0  0  0
 12 21  1  0  0  0  0
 13 20  1  0  0  0  0
 13 14  1  0  0  0  0
 14 15  1  0  0  0  0
 14 35  1  0  0  0  0
 14 36  1  0  0  0  0
 15 16  1  0  0  0  0
 15 17  1  0  0  0  0
 15 37  1  0  0  0  0
 16 38  1  0  0  0  0
 16 39  1  0  0  0  0
 16 40  1  0  0  0  0
 17 18  1  0  0  0  0
 18 19  1  0  0  0  0
 18 20  1  0  0  0  0
 18 41  1  0  0  0  0
 19 42  1  0  0  0  0
 19 43  1  0  0  0  0
 19 44  1  0  0  0  0
 20 45  1  0  0  0  0
 20 46  1  0  0  0  0
 21 22  2  0  0  0  0
 22 47  1  0  0  0  0
M  END
> <s_m_source_file>
AV-unprocessed.smi

> <i_m_source_file_index>
2114

> <i_lp_mmshare_version>
43012

> <i_f3d_flags>
0

> <s_epik_input>
W0NIM11PW0NIMl1bQ0BIXShbQ0gzXSlbTkhdQyg9TyljMVtjSF1bY0hdYyhuW2NIXTEpTjJbQ0gyXVtDQEBIXShbQ0gzXSlPW0NAQEhdKFtDSDNdKVtDSDJdMg==

> <s_epik_cmdline>
J2VwaWtfcHl0aG9uJywgJy1waCcsICc3LjAnLCAnLXRuJywgJzgnLCAnLW1hJywgJzIwMCcsICctbWV0YWxfYmluZGluZycsICctaW1hZScsICc8aW5maWxlLm1hZT4nLCAnLW9tYWUnLCAnPG91dGZpbGUubWFlPic=

> <r_lp_tautomer_probability>
1

> <r_epik_Ionization_Penalty>
1.92915e-05

> <r_epik_Ionization_Penalty_Charging>
0

> <r_epik_Ionization_Penalty_Neutral>
1.92915e-05

> <r_epik_State_Penalty>
-0

> <r_epik_Charging_Adjusted_Penalty>
0

> <i_epik_Tot_Q>
0

> <i_epik_Tot_abs_Q>
0

> <r_epik_Metal_State_Penalty>
-0

> <b_epik_Metal_Only>
0

> <s_lp_Force_Field>
OPLS_2005

> <r_lp_Energy>
24.377

> <b_lp_Chiralities_Consistent>
1

> <s_lp_Variant>
AV-unprocessed.smi:2114-6

> <Gold.Version>
5.8.1

> <Gold.Id.Protein>
6NUR|6NUR_protein|mol2

> <Gold.PLP.Fitness>
37.6558

> <Gold.PLP.PLP>
-33.3074

> <Gold.PLP.part.hbond>
-1.9372

> <Gold.PLP.part.metal>
0.0000

> <Gold.PLP.part.buried>
-4.9558

> <Gold.PLP.part.nonpolar>
-26.9266

> <Gold.PLP.part.repulsive>
0.1125

> <Gold.PLP.ligand.clash>
0.0000

> <Gold.PLP.ligand.torsion>
0.8716

> <Gold.PLP.Chemscore.Hbond>
1.9750

> <Gold.PLP.Chemscore.CHOScore>
0.0000

> <Gold.PLP.Chemscore.Metal>
0.0000

> <Gold.Chemscore.Hbonds>
donor molecule, donor type, donor heavy atom, donor atom, acceptor molecule, acceptor atom, score
      P1  H  7989  7998       L1    17  0.86
      P1  H  7997  8008       L1    21  0.89

> <Gold.PLP.Chemscore.Internal.Correction>
0.1667

> <Gold.Rescore>
     Score         DG    S(hbond)    S(metal)    S(lipo)     H(rot)  DE(clash)    DE(int)     intcor
     16.42     -17.35       1.68        0.00      86.95       1.52       0.16       0.77       ----

> <Gold.Chemscore.Fitness>
16.4173

> <Gold.Chemscore.DG>
-17.3506

> <Gold.Chemscore.ZeroCoef>
-5.4800

> <Gold.Chemscore.Hbond>
1.6753

> <Gold.Chemscore.Metal>
0.0000

> <Gold.Chemscore.Lipo>
86.9489

> <Gold.Chemscore.Internal_Hbond>
0.0000

> <Gold.Chemscore.DEClash>
0.1618

> <Gold.Chemscore.DEInternal>
0.7715

> <Gold.Chemscore.Rot>
1.5226

> <Gold.Chemscore.Internal.Correction>
   9.000000E+99

> <Gold.Chemscore.Hbonds>
donor molecule, donor type, donor heavy atom, donor atom, acceptor molecule, acceptor atom, score
      P1  H  7989  7998       L1    17  0.78
      P1  H  7997  8008       L1    21  0.56

> <Gold.Chemscore.Hbond.Weighted>
-5.5955

> <Gold.Chemscore.Metal.Weighted>
-0.0000

> <Gold.Chemscore.Lipo.Weighted>
-10.1730

> <Gold.Chemscore.Internal_Hbond.Weighted>
0.0000

> <Gold.Chemscore.DEClash.Weighted>
0.1618

> <Gold.Chemscore.DEInternal.Weighted>
0.7715

> <Gold.Chemscore.Rot.Weighted>
3.8980

> <Gold.Chemscore.Internal.Correction.Weighted>
   9.000000E+99

> <Gold.Protein.RotatedTorsions>
[ 6907 6896 6895 6894 ] final   78.20 input  -60.11 | X-H torsion
[ 7974 7965 7964 7962 ] final  -26.85 input  175.53 | X-H torsion
[ 8008 7997 7996 7995 ] final  -90.36 input   59.86 | X-H torsion
[ 10167 10162 10161 10158 ] final   -8.49 input  -65.29 | X-H torsion
[ 10718 10713 10712 10709 ] final   27.64 input   66.30 | X-H torsion
[ 10763 10752 10751 10750 ] final   90.01 input  -60.55 | X-H torsion
[ 11005 11000 10999 10996 ] final  133.15 input  -57.11 | X-H torsion

> <Gold.Protein.ActiveResidues>
 VAL166  LYS551  ARG553  GLY616  TRP617  ASP618  TYR619  PRO620  LYS621  CYS622 
 ASP623  PHE694  ASN695  SER759  ASP760  ASP761  ALA762  ILE779  LEU786  VAL792 
 PHE793  MET794  SER795  GLU796  ALA797  LYS798  CYS799  TRP800  GLU811  SER814 

> <Gold.Protein.RotatedAtoms>
  152.5149  134.3701  159.9314 H   0  0  0  0  0  0  0  0  0  0  0  0  # atno 6907 bound_to 6896
  151.3655  133.3867  159.2702 H   0  0  0  0  0  0  0  0  0  0  0  0  # atno 6908 bound_to 6896
  150.9618  134.9024  159.7793 H   0  0  0  0  0  0  0  0  0  0  0  0  # atno 6909 bound_to 6896
  146.1397  140.5075  142.8657 H   0  0  0  0  0  0  0  0  0  0  0  0  # atno 7974 bound_to 7965
  154.6977  140.0531  157.0427 H   0  0  0  0  0  0  0  0  0  0  0  0  # atno 8008 bound_to 7997
  155.0728  140.3201  155.4606 H   0  0  0  0  0  0  0  0  0  0  0  0  # atno 8009 bound_to 7997
  156.2749  140.2078  156.5856 H   0  0  0  0  0  0  0  0  0  0  0  0  # atno 8010 bound_to 7997
  140.7060  143.5963  150.8842 H   0  0  0  0  0  0  0  0  0  0  0  0  # atno 10167 bound_to 10162
  157.2229  130.6987  149.6278 H   0  0  0  0  0  0  0  0  0  0  0  0  # atno 10718 bound_to 10713
  153.1931  135.4449  155.0174 H   0  0  0  0  0  0  0  0  0  0  0  0  # atno 10763 bound_to 10752
  154.8102  135.3291  154.7327 H   0  0  0  0  0  0  0  0  0  0  0  0  # atno 10764 bound_to 10752
  153.7779  135.6979  153.4949 H   0  0  0  0  0  0  0  0  0  0  0  0  # atno 10765 bound_to 10752
  139.9834  134.9540  156.9684 H   0  0  0  0  0  0  0  0  0  0  0  0  # atno 11005 bound_to 11000
  144.7779  140.5778  143.6625 LP  0  0  0  0  0  0  0  0  0  0  0  0  # atno 17320 bound_to 7965
  145.5074  139.1480  143.3623 LP  0  0  0  0  0  0  0  0  0  0  0  0  # atno 17321 bound_to 7965
  139.9688  143.6080  152.2980 LP  0  0  0  0  0  0  0  0  0  0  0  0  # atno 17342 bound_to 10162
  139.6659  144.7662  151.1874 LP  0  0  0  0  0  0  0  0  0  0  0  0  # atno 17343 bound_to 10162
  155.9681  130.4514  150.5734 LP  0  0  0  0  0  0  0  0  0  0  0  0  # atno 17370 bound_to 10713
  157.3557  131.0741  151.1677 LP  0  0  0  0  0  0  0  0  0  0  0  0  # atno 17371 bound_to 10713
  140.5051  134.1058  155.7258 LP  0  0  0  0  0  0  0  0  0  0  0  0  # atno 17394 bound_to 11000
  141.1503  133.8981  157.2115 LP  0  0  0  0  0  0  0  0  0  0  0  0  # atno 17395 bound_to 11000

$$$$
