AV-unprocessed.smi:1978|AV-procd|sdf|8012|dock7
  -GOLD-   2272010203D 1   1.00000     0.00000
 Structure written by MMmdl.
 44 45  0  0  0  0  0  0  0  0  3 V2000
  153.3375  142.1565  161.2075 C   0  0  0  0  0  0  0  0  0  0  0  0
  153.0441  141.4903  159.9074 C   0  0  0  0  0  0  0  0  0  0  0  0
  152.0759  141.6802  158.9623 C   0  0  0  0  0  0  0  0  0  0  0  0
  152.3850  140.6980  157.9838 C   0  0  0  0  0  0  0  0  0  0  0  0
  151.5913  140.5676  156.8136 N   0  0  0  0  0  0  0  0  0  0  0  0
  151.8771  139.9209  155.6685 C   0  0  0  0  0  0  0  0  0  0  0  0
  152.9542  139.3272  155.5380 O   0  0  0  0  0  0  0  0  0  0  0  0
  150.8698  140.0191  154.7584 N   0  5  0  0  0  0  0  0  0  0  0  0
  150.0918  138.8875  154.2545 C   0  0  0  0  0  0  0  0  0  0  0  0
  148.6606  139.3419  153.8561 C   0  0  2  0  0  0  0  0  0  0  0  0
  148.0286  140.3811  154.8178 C   0  0  0  0  0  0  0  0  0  0  0  0
  147.7725  138.1514  153.6162 N   0  3  1  0  0  0  0  0  0  0  0  0
  147.4736  137.3536  154.8491 C   0  0  0  0  0  0  0  0  0  0  0  0
  146.7968  136.0190  154.5167 C   0  0  0  0  0  0  0  0  0  0  0  0
  145.4945  136.2681  153.7576 C   0  0  0  0  0  0  0  0  0  0  0  0
  145.7915  137.0907  152.5019 C   0  0  0  0  0  0  0  0  0  0  0  0
  146.5259  138.4152  152.8175 C   0  0  2  0  0  0  0  0  0  0  0  0
  146.7831  139.1408  151.4780 C   0  0  0  0  0  0  0  0  0  0  0  0
  153.4502  139.9773  158.3022 N   0  0  0  0  0  0  0  0  0  0  0  0
  153.8777  140.4812  159.5362 O   0  0  0  0  0  0  0  0  0  0  0  0
  152.5152  142.8069  161.5063 H   0  0  0  0  0  0  0  0  0  0  0  0
  154.2401  142.7632  161.1350 H   0  0  0  0  0  0  0  0  0  0  0  0
  153.4874  141.4184  161.9957 H   0  0  0  0  0  0  0  0  0  0  0  0
  151.2742  142.4037  158.9720 H   0  0  0  0  0  0  0  0  0  0  0  0
  150.6884  141.0163  156.8481 H   0  0  0  0  0  0  0  0  0  0  0  0
  150.5632  138.4422  153.3768 H   0  0  0  0  0  0  0  0  0  0  0  0
  150.0235  138.0853  154.9895 H   0  0  0  0  0  0  0  0  0  0  0  0
  148.8056  139.8664  152.9171 H   0  0  0  0  0  0  0  0  0  0  0  0
  148.6033  141.3084  154.8477 H   0  0  0  0  0  0  0  0  0  0  0  0
  147.9507  140.0192  155.8444 H   0  0  0  0  0  0  0  0  0  0  0  0
  147.0255  140.6519  154.4877 H   0  0  0  0  0  0  0  0  0  0  0  0
  148.3855  137.1453  155.4089 H   0  0  0  0  0  0  0  0  0  0  0  0
  146.8226  137.9241  155.5130 H   0  0  0  0  0  0  0  0  0  0  0  0
  147.4675  135.3991  153.9200 H   0  0  0  0  0  0  0  0  0  0  0  0
  146.5923  135.4659  155.4338 H   0  0  0  0  0  0  0  0  0  0  0  0
  145.0256  135.3212  153.4882 H   0  0  0  0  0  0  0  0  0  0  0  0
  144.7859  136.8009  154.3931 H   0  0  0  0  0  0  0  0  0  0  0  0
  146.3947  136.4922  151.8173 H   0  0  0  0  0  0  0  0  0  0  0  0
  144.8546  137.2963  151.9826 H   0  0  0  0  0  0  0  0  0  0  0  0
  145.8644  139.0386  153.4208 H   0  0  0  0  0  0  0  0  0  0  0  0
  145.8979  139.1105  150.8421 H   0  0  0  0  0  0  0  0  0  0  0  0
  147.5993  138.6769  150.9230 H   0  0  0  0  0  0  0  0  0  0  0  0
  147.0122  140.1975  151.6088 H   0  0  0  0  0  0  0  0  0  0  0  0
  148.3286  137.5472  153.0277 H   0  0  0  0  0  0  0  0  0  0  0  0
  1  2  1  0  0  0  0
  1 21  1  0  0  0  0
  1 22  1  0  0  0  0
  1 23  1  0  0  0  0
  2 20  1  0  0  0  0
  2  3  2  0  0  0  0
  3  4  1  0  0  0  0
  3 24  1  0  0  0  0
  4  5  1  0  0  0  0
  4 19  2  0  0  0  0
  5  6  1  0  0  0  0
  5 25  1  0  0  0  0
  6  7  2  0  0  0  0
  6  8  1  0  0  0  0
  8  9  1  0  0  0  0
  9 10  1  0  0  0  0
  9 26  1  0  0  0  0
  9 27  1  0  0  0  0
 10 11  1  0  0  0  0
 10 12  1  0  0  0  0
 10 28  1  0  0  0  0
 11 29  1  0  0  0  0
 11 30  1  0  0  0  0
 11 31  1  0  0  0  0
 12 17  1  0  0  0  0
 12 13  1  0  0  0  0
 12 44  1  0  0  0  0
 13 14  1  0  0  0  0
 13 32  1  0  0  0  0
 13 33  1  0  0  0  0
 14 15  1  0  0  0  0
 14 34  1  0  0  0  0
 14 35  1  0  0  0  0
 15 16  1  0  0  0  0
 15 36  1  0  0  0  0
 15 37  1  0  0  0  0
 16 17  1  0  0  0  0
 16 38  1  0  0  0  0
 16 39  1  0  0  0  0
 17 18  1  0  0  0  0
 17 40  1  0  0  0  0
 18 41  1  0  0  0  0
 18 42  1  0  0  0  0
 18 43  1  0  0  0  0
 19 20  1  0  0  0  0
M  CHG  1   8  -1
M  CHG  1  12   1
M  END
> <s_m_source_file>
AV-unprocessed.smi

> <i_m_source_file_index>
1978

> <i_lp_mmshare_version>
43012

> <i_f3d_flags>
0

> <s_epik_input>
W0NIM11jMVtjSF1jKG5vMSlbTkhdQyg9TylbTkhdW0NIMl1bQ0BIXShbQ0gzXSlOMltDSDJdW0NIMl1bQ0gyXVtDSDJdW0NASF0yW0NIM10=

> <s_epik_cmdline>
J2VwaWtfcHl0aG9uJywgJy1waCcsICc3LjAnLCAnLXRuJywgJzgnLCAnLW1hJywgJzIwMCcsICctbWV0YWxfYmluZGluZycsICctaW1hZScsICc8aW5maWxlLm1hZT4nLCAnLW9tYWUnLCAnPG91dGZpbGUubWFlPic=

> <r_epik_Ionization_Penalty>
6.7666

> <r_epik_Ionization_Penalty_Charging>
6.7666

> <r_epik_Ionization_Penalty_Neutral>
5.77131e-06

> <r_epik_State_Penalty>
6.79217

> <r_epik_Charging_Adjusted_Penalty>
13.5588

> <i_epik_Tot_Q>
0

> <i_epik_Tot_abs_Q>
2

> <r_epik_Metal_State_Penalty>
2.72569

> <b_epik_Metal_Only>
1

> <s_lp_Force_Field>
OPLS_2005

> <r_lp_Energy>
22.8368

> <b_lp_Chiralities_Consistent>
1

> <s_lp_Variant>
AV-unprocessed.smi:1978-21

> <Gold.Version>
5.8.1

> <Gold.Id.Protein>
6NUR|6NUR_protein|mol2

> <Gold.PLP.Fitness>
44.9060

> <Gold.PLP.PLP>
-33.6592

> <Gold.PLP.part.hbond>
-4.0000

> <Gold.PLP.part.metal>
0.0000

> <Gold.PLP.part.buried>
-0.0041

> <Gold.PLP.part.nonpolar>
-28.6313

> <Gold.PLP.part.repulsive>
0.2040

> <Gold.PLP.ligand.clash>
0.0000

> <Gold.PLP.ligand.torsion>
1.0993

> <Gold.PLP.Chemscore.Hbond>
4.4240

> <Gold.PLP.Chemscore.CHOScore>
0.0000

> <Gold.PLP.Chemscore.Metal>
0.0000

> <Gold.Chemscore.Hbonds>
donor molecule, donor type, donor heavy atom, donor atom, acceptor molecule, acceptor atom, score
      L1  H    12    44       P1  7948  2.00
      P1  H  7989  7998       L1     8  1.00
      P1  H  7997  8008       L1    19  0.54
      P1  H  7997  8009       L1     7  0.86

> <Gold.PLP.Chemscore.Internal.Correction>
0.1733

> <Gold.Rescore>
     Score         DG    S(hbond)    S(metal)    S(lipo)     H(rot)  DE(clash)    DE(int)     intcor
     15.43     -18.05       2.33        0.00      74.21       1.52       0.26       2.36       ----

> <Gold.Chemscore.Fitness>
15.4307

> <Gold.Chemscore.DG>
-18.0515

> <Gold.Chemscore.ZeroCoef>
-5.4800

> <Gold.Chemscore.Hbond>
2.3287

> <Gold.Chemscore.Metal>
0.0000

> <Gold.Chemscore.Lipo>
74.2064

> <Gold.Chemscore.Internal_Hbond>
0.0000

> <Gold.Chemscore.DEClash>
0.2620

> <Gold.Chemscore.DEInternal>
2.3588

> <Gold.Chemscore.Rot>
1.5190

> <Gold.Chemscore.Internal.Correction>
   9.000000E+99

> <Gold.Chemscore.Hbonds>
donor molecule, donor type, donor heavy atom, donor atom, acceptor molecule, acceptor atom, score
      L1  H    12    44       P1  7948  1.00
      P1  H  7989  7998       L1     8  0.28
      P1  H  7997  8008       L1    19  0.14
      P1  H  7997  8009       L1     7  0.83

> <Gold.Chemscore.Hbond.Weighted>
-7.7780

> <Gold.Chemscore.Metal.Weighted>
-0.0000

> <Gold.Chemscore.Lipo.Weighted>
-8.6822

> <Gold.Chemscore.Internal_Hbond.Weighted>
0.0000

> <Gold.Chemscore.DEClash.Weighted>
0.2620

> <Gold.Chemscore.DEInternal.Weighted>
2.3588

> <Gold.Chemscore.Rot.Weighted>
3.8886

> <Gold.Chemscore.Internal.Correction.Weighted>
   9.000000E+99

> <Gold.Protein.RotatedTorsions>
[ 6907 6896 6895 6894 ] final   19.11 input  -60.11 | X-H torsion
[ 7974 7965 7964 7962 ] final -106.79 input  175.53 | X-H torsion
[ 8008 7997 7996 7995 ] final -122.16 input   59.86 | X-H torsion
[ 10167 10162 10161 10158 ] final  -94.74 input  -65.29 | X-H torsion
[ 10718 10713 10712 10709 ] final -156.24 input   66.30 | X-H torsion
[ 10763 10752 10751 10750 ] final -129.82 input  -60.55 | X-H torsion
[ 11005 11000 10999 10996 ] final  163.12 input  -57.11 | X-H torsion

> <Gold.Protein.ActiveResidues>
 VAL166  LYS551  ARG553  GLY616  TRP617  ASP618  TYR619  PRO620  LYS621  CYS622 
 ASP623  PHE694  ASN695  SER759  ASP760  ASP761  ALA762  ILE779  LEU786  VAL792 
 PHE793  MET794  SER795  GLU796  ALA797  LYS798  CYS799  TRP800  GLU811  SER814 

> <Gold.Protein.RotatedAtoms>
  151.8758  135.0472  160.0483 H   0  0  0  0  0  0  0  0  0  0  0  0  # atno 6907 bound_to 6896
  152.2552  133.5245  159.5357 H   0  0  0  0  0  0  0  0  0  0  0  0  # atno 6908 bound_to 6896
  150.7097  134.0821  159.3944 H   0  0  0  0  0  0  0  0  0  0  0  0  # atno 6909 bound_to 6896
  145.2134  140.9105  143.3301 H   0  0  0  0  0  0  0  0  0  0  0  0  # atno 7974 bound_to 7965
  155.1597  140.0405  157.2840 H   0  0  0  0  0  0  0  0  0  0  0  0  # atno 8008 bound_to 7997
  154.6345  140.2532  155.7368 H   0  0  0  0  0  0  0  0  0  0  0  0  # atno 8009 bound_to 7997
  156.2501  140.2868  156.0711 H   0  0  0  0  0  0  0  0  0  0  0  0  # atno 8010 bound_to 7997
  140.3113  143.3103  152.0145 H   0  0  0  0  0  0  0  0  0  0  0  0  # atno 10167 bound_to 10162
  156.5238  130.8490  151.2692 H   0  0  0  0  0  0  0  0  0  0  0  0  # atno 10718 bound_to 10713
  154.8757  135.3883  154.3982 H   0  0  0  0  0  0  0  0  0  0  0  0  # atno 10763 bound_to 10752
  153.4709  135.7030  153.5999 H   0  0  0  0  0  0  0  0  0  0  0  0  # atno 10764 bound_to 10752
  153.4456  135.3846  155.2222 H   0  0  0  0  0  0  0  0  0  0  0  0  # atno 10765 bound_to 10752
  140.2326  134.8112  157.3332 H   0  0  0  0  0  0  0  0  0  0  0  0  # atno 11005 bound_to 11000
  144.9834  139.3761  143.6251 LP  0  0  0  0  0  0  0  0  0  0  0  0  # atno 17320 bound_to 7965
  146.3392  139.8985  142.8798 LP  0  0  0  0  0  0  0  0  0  0  0  0  # atno 17321 bound_to 7965
  139.4893  144.6382  151.6931 LP  0  0  0  0  0  0  0  0  0  0  0  0  # atno 17342 bound_to 10162
  140.5565  144.0339  150.6150 LP  0  0  0  0  0  0  0  0  0  0  0  0  # atno 17343 bound_to 10162
  157.7432  130.9908  150.2578 LP  0  0  0  0  0  0  0  0  0  0  0  0  # atno 17370 bound_to 10713
  156.3124  130.3774  149.7649 LP  0  0  0  0  0  0  0  0  0  0  0  0  # atno 17371 bound_to 10713
  140.1735  134.4579  155.7816 LP  0  0  0  0  0  0  0  0  0  0  0  0  # atno 17394 bound_to 11000
  141.2216  133.6952  156.7747 LP  0  0  0  0  0  0  0  0  0  0  0  0  # atno 17395 bound_to 11000

$$$$
