AV-unprocessed.smi:2474|AV-procd|sdf|9753|dock3
  -GOLD-   2272013393D 1   1.00000     0.00000
 Structure written by MMmdl.
 40 41  0  0  0  0  0  0  0  0  1 V2000
  146.3688  136.5831  151.0142 C   0  0  0  0  0  0  0  0  0  0  0  0
  146.5620  137.4824  152.1875 C   0  0  0  0  0  0  0  0  0  0  0  0
  146.3612  137.1890  153.5136 C   0  0  0  0  0  0  0  0  0  0  0  0
  146.6274  138.2559  154.3744 N   0  0  0  0  0  0  0  0  0  0  0  0
  147.0346  139.3490  153.7229 C   0  0  0  0  0  0  0  0  0  0  0  0
  147.3683  140.6459  154.3962 C   0  0  2  0  0  0  0  0  0  0  0  0
  146.4112  141.7747  153.9880 C   0  0  0  0  0  0  0  0  0  0  0  0
  148.8570  141.0389  154.2590 C   0  0  0  0  0  0  0  0  0  0  0  0
  149.3059  141.9586  155.3012 N   0  0  0  0  0  0  0  0  0  0  0  0
  149.9328  141.5985  156.4290 C   0  0  0  0  0  0  0  0  0  0  0  0
  150.1750  140.4327  156.7418 O   0  0  0  0  0  0  0  0  0  0  0  0
  150.2841  142.6636  157.1624 N   0  0  0  0  0  0  0  0  0  0  0  0
  151.0297  142.6138  158.4164 C   0  0  1  0  0  0  0  0  0  0  0  0
  152.1670  141.5759  158.3148 C   0  0  0  0  0  0  0  0  0  0  0  0
  152.9603  141.4387  159.6244 C   0  0  0  0  0  0  0  0  0  0  0  0
  153.6333  142.7533  160.0432 C   0  0  0  0  0  0  0  0  0  0  0  0
  152.4049  144.0508  160.3519 S   0  0  0  0  0  0  0  0  0  0  0  0
  151.5663  144.0180  158.7436 C   0  0  0  0  0  0  0  0  0  0  0  0
  147.1047  139.1263  151.9778 S   0  0  0  0  0  0  0  0  0  0  0  0
  146.0372  135.5931  151.3278 H   0  0  0  0  0  0  0  0  0  0  0  0
  147.3004  136.4660  150.4603 H   0  0  0  0  0  0  0  0  0  0  0  0
  145.6194  136.9898  150.3349 H   0  0  0  0  0  0  0  0  0  0  0  0
  146.0283  136.2508  153.9322 H   0  0  0  0  0  0  0  0  0  0  0  0
  147.1897  140.4817  155.4595 H   0  0  0  0  0  0  0  0  0  0  0  0
  145.3760  141.5078  154.2019 H   0  0  0  0  0  0  0  0  0  0  0  0
  146.4860  141.9921  152.9221 H   0  0  0  0  0  0  0  0  0  0  0  0
  146.6342  142.6939  154.5305 H   0  0  0  0  0  0  0  0  0  0  0  0
  149.4766  140.1449  154.3349 H   0  0  0  0  0  0  0  0  0  0  0  0
  149.0526  141.4661  153.2743 H   0  0  0  0  0  0  0  0  0  0  0  0
  149.1549  142.9426  155.1336 H   0  0  0  0  0  0  0  0  0  0  0  0
  150.0384  143.5797  156.8169 H   0  0  0  0  0  0  0  0  0  0  0  0
  150.3498  142.3172  159.2178 H   0  0  0  0  0  0  0  0  0  0  0  0
  151.7529  140.6013  158.0530 H   0  0  0  0  0  0  0  0  0  0  0  0
  152.8443  141.8454  157.5031 H   0  0  0  0  0  0  0  0  0  0  0  0
  152.3005  141.0921  160.4209 H   0  0  0  0  0  0  0  0  0  0  0  0
  153.7227  140.6687  159.5027 H   0  0  0  0  0  0  0  0  0  0  0  0
  154.2196  142.6047  160.9501 H   0  0  0  0  0  0  0  0  0  0  0  0
  154.3222  143.0925  159.2687 H   0  0  0  0  0  0  0  0  0  0  0  0
  152.2644  144.3518  157.9749 H   0  0  0  0  0  0  0  0  0  0  0  0
  150.7501  144.7405  158.7705 H   0  0  0  0  0  0  0  0  0  0  0  0
  1  2  1  0  0  0  0
  1 20  1  0  0  0  0
  1 21  1  0  0  0  0
  1 22  1  0  0  0  0
  2 19  1  0  0  0  0
  2  3  2  0  0  0  0
  3  4  1  0  0  0  0
  3 23  1  0  0  0  0
  4  5  2  0  0  0  0
  5  6  1  0  0  0  0
  5 19  1  0  0  0  0
  6  7  1  0  0  0  0
  6  8  1  0  0  0  0
  6 24  1  0  0  0  0
  7 25  1  0  0  0  0
  7 26  1  0  0  0  0
  7 27  1  0  0  0  0
  8  9  1  0  0  0  0
  8 28  1  0  0  0  0
  8 29  1  0  0  0  0
  9 10  1  0  0  0  0
  9 30  1  0  0  0  0
 10 11  2  0  0  0  0
 10 12  1  0  0  0  0
 12 13  1  0  0  0  0
 12 31  1  0  0  0  0
 13 18  1  0  0  0  0
 13 14  1  0  0  0  0
 13 32  1  0  0  0  0
 14 15  1  0  0  0  0
 14 33  1  0  0  0  0
 14 34  1  0  0  0  0
 15 16  1  0  0  0  0
 15 35  1  0  0  0  0
 15 36  1  0  0  0  0
 16 17  1  0  0  0  0
 16 37  1  0  0  0  0
 16 38  1  0  0  0  0
 17 18  1  0  0  0  0
 18 39  1  0  0  0  0
 18 40  1  0  0  0  0
M  END
> <s_m_source_file>
AV-unprocessed.smi

> <i_m_source_file_index>
2474

> <i_lp_mmshare_version>
43012

> <i_f3d_flags>
0

> <s_epik_input>
W0NIM11jMVtjSF1uYyhzMSlbQ0BIXShbQ0gzXSlbQ0gyXVtOSF1DKD1PKVtOSF1bQ0BASF0yW0NIMl1bQ0gyXVtDSDJdU1tDSDJdMg==

> <s_epik_cmdline>
J2VwaWtfcHl0aG9uJywgJy1waCcsICc3LjAnLCAnLXRuJywgJzgnLCAnLW1hJywgJzIwMCcsICctbWV0YWxfYmluZGluZycsICctaW1hZScsICc8aW5maWxlLm1hZT4nLCAnLW9tYWUnLCAnPG91dGZpbGUubWFlPic=

> <r_epik_Ionization_Penalty>
0.000644338

> <r_epik_Ionization_Penalty_Charging>
0

> <r_epik_Ionization_Penalty_Neutral>
0.000644338

> <r_epik_State_Penalty>
0.000374131

> <r_epik_Charging_Adjusted_Penalty>
0.000374131

> <i_epik_Tot_Q>
0

> <i_epik_Tot_abs_Q>
0

> <r_epik_Metal_State_Penalty>
-0

> <b_epik_Metal_Only>
0

> <s_lp_Force_Field>
OPLS_2005

> <r_lp_Energy>
-6.48006

> <b_lp_Chiralities_Consistent>
1

> <s_lp_Variant>
AV-unprocessed.smi:2474-3

> <Gold.Version>
5.8.1

> <Gold.Id.Protein>
6NUR|6NUR_protein|mol2

> <Gold.PLP.Fitness>
44.0590

> <Gold.PLP.PLP>
-39.7284

> <Gold.PLP.part.hbond>
-2.0000

> <Gold.PLP.part.metal>
0.0000

> <Gold.PLP.part.buried>
3.0740

> <Gold.PLP.part.nonpolar>
-41.5027

> <Gold.PLP.part.repulsive>
0.3720

> <Gold.PLP.ligand.clash>
0.0000

> <Gold.PLP.ligand.torsion>
0.6078

> <Gold.PLP.Chemscore.Hbond>
1.8080

> <Gold.PLP.Chemscore.CHOScore>
0.0000

> <Gold.PLP.Chemscore.Metal>
0.0000

> <Gold.Chemscore.Hbonds>
donor molecule, donor type, donor heavy atom, donor atom, acceptor molecule, acceptor atom, score
      L1  H     9    30       P1  8028  1.00
      L1  H    12    31       P1  8028  1.00

> <Gold.PLP.Chemscore.Internal.Correction>
0.1222

> <Gold.Rescore>
     Score         DG    S(hbond)    S(metal)    S(lipo)     H(rot)  DE(clash)    DE(int)     intcor
     19.51     -20.15       1.70        0.00     108.78       1.46       0.10       0.54       ----

> <Gold.Chemscore.Fitness>
19.5117

> <Gold.Chemscore.DG>
-20.1522

> <Gold.Chemscore.ZeroCoef>
-5.4800

> <Gold.Chemscore.Hbond>
1.7025

> <Gold.Chemscore.Metal>
0.0000

> <Gold.Chemscore.Lipo>
108.7824

> <Gold.Chemscore.Internal_Hbond>
0.0000

> <Gold.Chemscore.DEClash>
0.1005

> <Gold.Chemscore.DEInternal>
0.5400

> <Gold.Chemscore.Rot>
1.4616

> <Gold.Chemscore.Internal.Correction>
   9.000000E+99

> <Gold.Chemscore.Hbonds>
donor molecule, donor type, donor heavy atom, donor atom, acceptor molecule, acceptor atom, score
      L1  H     9    30       P1  8028  0.98
      L1  H    12    31       P1  8028  0.92

> <Gold.Chemscore.Hbond.Weighted>
-5.6863

> <Gold.Chemscore.Metal.Weighted>
-0.0000

> <Gold.Chemscore.Lipo.Weighted>
-12.7275

> <Gold.Chemscore.Internal_Hbond.Weighted>
0.0000

> <Gold.Chemscore.DEClash.Weighted>
0.1005

> <Gold.Chemscore.DEInternal.Weighted>
0.5400

> <Gold.Chemscore.Rot.Weighted>
3.7416

> <Gold.Chemscore.Internal.Correction.Weighted>
   9.000000E+99

> <Gold.Protein.RotatedTorsions>
[ 6907 6896 6895 6894 ] final   36.55 input  -60.11 | X-H torsion
[ 7974 7965 7964 7962 ] final  163.84 input  175.53 | X-H torsion
[ 8008 7997 7996 7995 ] final -142.16 input   59.86 | X-H torsion
[ 10167 10162 10161 10158 ] final  149.62 input  -65.29 | X-H torsion
[ 10718 10713 10712 10709 ] final  119.27 input   66.30 | X-H torsion
[ 10763 10752 10751 10750 ] final  111.47 input  -60.55 | X-H torsion
[ 11005 11000 10999 10996 ] final -155.96 input  -57.11 | X-H torsion

> <Gold.Protein.ActiveResidues>
 VAL166  LYS551  ARG553  GLY616  TRP617  ASP618  TYR619  PRO620  LYS621  CYS622 
 ASP623  PHE694  ASN695  SER759  ASP760  ASP761  ALA762  ILE779  LEU786  VAL792 
 PHE793  MET794  SER795  GLU796  ALA797  LYS798  CYS799  TRP800  GLU811  SER814 

> <Gold.Protein.RotatedAtoms>
  152.1312  134.9133  160.0558 H   0  0  0  0  0  0  0  0  0  0  0  0  # atno 6907 bound_to 6896
  152.0236  133.3904  159.4276 H   0  0  0  0  0  0  0  0  0  0  0  0  # atno 6908 bound_to 6896
  150.6856  134.3520  159.4956 H   0  0  0  0  0  0  0  0  0  0  0  0  # atno 6909 bound_to 6896
  144.7571  139.8240  143.6346 H   0  0  0  0  0  0  0  0  0  0  0  0  # atno 7974 bound_to 7965
  155.4896  140.0567  157.2955 H   0  0  0  0  0  0  0  0  0  0  0  0  # atno 8008 bound_to 7997
  154.4628  140.2004  156.0149 H   0  0  0  0  0  0  0  0  0  0  0  0  # atno 8009 bound_to 7997
  156.0921  140.3232  155.7834 H   0  0  0  0  0  0  0  0  0  0  0  0  # atno 8010 bound_to 7997
  139.4859  144.5587  151.7270 H   0  0  0  0  0  0  0  0  0  0  0  0  # atno 10167 bound_to 10162
  157.5973  131.1056  150.7872 H   0  0  0  0  0  0  0  0  0  0  0  0  # atno 10718 bound_to 10713
  153.4638  135.3716  155.2353 H   0  0  0  0  0  0  0  0  0  0  0  0  # atno 10763 bound_to 10752
  154.8757  135.3915  154.3893 H   0  0  0  0  0  0  0  0  0  0  0  0  # atno 10764 bound_to 10752
  153.4471  135.7085  153.6197 H   0  0  0  0  0  0  0  0  0  0  0  0  # atno 10765 bound_to 10752
  140.6808  134.4147  157.5226 H   0  0  0  0  0  0  0  0  0  0  0  0  # atno 11005 bound_to 11000
  146.1594  139.4704  142.9998 LP  0  0  0  0  0  0  0  0  0  0  0  0  # atno 17320 bound_to 7965
  145.6741  141.0209  143.1642 LP  0  0  0  0  0  0  0  0  0  0  0  0  # atno 17321 bound_to 7965
  140.5153  144.0962  150.6006 LP  0  0  0  0  0  0  0  0  0  0  0  0  # atno 17342 bound_to 10162
  140.3902  143.2756  152.0069 LP  0  0  0  0  0  0  0  0  0  0  0  0  # atno 17343 bound_to 10162
  156.8280  130.5006  149.5335 LP  0  0  0  0  0  0  0  0  0  0  0  0  # atno 17370 bound_to 10713
  156.1038  130.5989  150.9938 LP  0  0  0  0  0  0  0  0  0  0  0  0  # atno 17371 bound_to 10713
  139.8952  134.8687  156.2140 LP  0  0  0  0  0  0  0  0  0  0  0  0  # atno 17394 bound_to 11000
  141.0319  133.6984  156.1445 LP  0  0  0  0  0  0  0  0  0  0  0  0  # atno 17395 bound_to 11000

$$$$
