AV-unprocessed.smi:3308|AV-procd|sdf|12713|dock8
  -GOLD-   2272019 53D 1   1.00000     0.00000
 Structure written by MMmdl.
 40 41  0  0  0  0  0  0  0  0  1 V2000
  147.4876  141.7187  155.5745 C   0  0  0  0  0  0  0  0  0  0  0  0
  148.9002  141.0954  155.5370 C   0  0  1  0  0  0  0  0  0  0  0  0
  149.0880  140.2921  156.7415 N   0  0  0  0  0  0  0  0  0  0  0  0
  149.2754  141.1174  157.9415 C   0  0  0  0  0  0  0  0  0  0  0  0
  150.7438  141.1409  158.3773 C   0  0  0  0  0  0  0  0  0  0  0  0
  151.3217  140.0699  158.5631 O   0  0  0  0  0  0  0  0  0  0  0  0
  151.3570  142.3319  158.5463 N   0  0  0  0  0  0  0  0  0  0  0  0
  152.7493  142.5317  158.9492 C   0  0  0  0  0  0  0  0  0  0  0  0
  153.0249  144.0241  158.7639 C   0  0  0  0  0  0  0  0  0  0  0  0
  151.6533  144.6740  158.8817 C   0  0  0  0  0  0  0  0  0  0  0  0
  150.6912  143.6166  158.3404 C   0  0  0  0  0  0  0  0  0  0  0  0
  149.1320  140.1855  154.3007 C   0  0  2  0  0  0  0  0  0  0  0  0
  147.9186  139.2908  153.9850 C   0  0  0  0  0  0  0  0  0  0  0  0
  150.3205  139.3552  154.4542 N   0  0  0  0  0  0  0  0  0  0  0  0
  150.4401  137.9863  154.3164 C   0  0  0  0  0  0  0  0  0  0  0  0
  151.7458  137.6641  154.5517 C   0  0  0  0  0  0  0  0  0  0  0  0
  152.3595  138.9188  154.8223 C   0  0  0  0  0  0  0  0  0  0  0  0
  151.5058  139.9277  154.7609 N   0  0  0  0  0  0  0  0  0  0  0  0
  147.3153  142.3772  154.7234 H   0  0  0  0  0  0  0  0  0  0  0  0
  147.3262  142.3207  156.4680 H   0  0  0  0  0  0  0  0  0  0  0  0
  146.7173  140.9469  155.5549 H   0  0  0  0  0  0  0  0  0  0  0  0
  149.6412  141.8968  155.5109 H   0  0  0  0  0  0  0  0  0  0  0  0
  149.8807  139.6810  156.6050 H   0  0  0  0  0  0  0  0  0  0  0  0
  148.9539  142.1381  157.7283 H   0  0  0  0  0  0  0  0  0  0  0  0
  148.6528  140.7654  158.7633 H   0  0  0  0  0  0  0  0  0  0  0  0
  152.8609  142.2522  159.9978 H   0  0  0  0  0  0  0  0  0  0  0  0
  153.4437  141.9314  158.3603 H   0  0  0  0  0  0  0  0  0  0  0  0
  153.7418  144.4147  159.4865 H   0  0  0  0  0  0  0  0  0  0  0  0
  153.4274  144.2005  157.7653 H   0  0  0  0  0  0  0  0  0  0  0  0
  151.4308  144.8675  159.9320 H   0  0  0  0  0  0  0  0  0  0  0  0
  151.5856  145.6213  158.3458 H   0  0  0  0  0  0  0  0  0  0  0  0
  150.5250  143.7613  157.2719 H   0  0  0  0  0  0  0  0  0  0  0  0
  149.7245  143.6651  158.8439 H   0  0  0  0  0  0  0  0  0  0  0  0
  149.2990  140.8303  153.4350 H   0  0  0  0  0  0  0  0  0  0  0  0
  147.0322  139.8820  153.7553 H   0  0  0  0  0  0  0  0  0  0  0  0
  147.6734  138.6395  154.8245 H   0  0  0  0  0  0  0  0  0  0  0  0
  148.1164  138.6569  153.1198 H   0  0  0  0  0  0  0  0  0  0  0  0
  149.5935  137.3624  154.0688 H   0  0  0  0  0  0  0  0  0  0  0  0
  152.1944  136.6820  154.5322 H   0  0  0  0  0  0  0  0  0  0  0  0
  153.3927  139.1253  155.0594 H   0  0  0  0  0  0  0  0  0  0  0  0
  1  2  1  0  0  0  0
  1 19  1  0  0  0  0
  1 20  1  0  0  0  0
  1 21  1  0  0  0  0
  2  3  1  0  0  0  0
  2 12  1  0  0  0  0
  2 22  1  0  0  0  0
  3  4  1  0  0  0  0
  3 23  1  0  0  0  0
  4  5  1  0  0  0  0
  4 24  1  0  0  0  0
  4 25  1  0  0  0  0
  5  6  2  0  0  0  0
  5  7  1  0  0  0  0
  7 11  1  0  0  0  0
  7  8  1  0  0  0  0
  8  9  1  0  0  0  0
  8 26  1  0  0  0  0
  8 27  1  0  0  0  0
  9 10  1  0  0  0  0
  9 28  1  0  0  0  0
  9 29  1  0  0  0  0
 10 11  1  0  0  0  0
 10 30  1  0  0  0  0
 10 31  1  0  0  0  0
 11 32  1  0  0  0  0
 11 33  1  0  0  0  0
 12 13  1  0  0  0  0
 12 14  1  0  0  0  0
 12 34  1  0  0  0  0
 13 35  1  0  0  0  0
 13 36  1  0  0  0  0
 13 37  1  0  0  0  0
 14 18  1  0  0  0  0
 14 15  1  0  0  0  0
 15 16  2  0  0  0  0
 15 38  1  0  0  0  0
 16 17  1  0  0  0  0
 16 39  1  0  0  0  0
 17 18  2  0  0  0  0
 17 40  1  0  0  0  0
M  END
> <s_m_source_file>
AV-unprocessed.smi

> <i_m_source_file_index>
3308

> <i_lp_mmshare_version>
43012

> <i_f3d_flags>
0

> <s_epik_input>
bjFbY0hdW2NIXVtjSF1uMVtDQEBIXShbQ0gzXSlbQ0BIXShbQ0gzXSlbTkhdW0NIMl1DKD1PKU4yW0NIMl1bQ0gyXVtDSDJdW0NIMl0y

> <s_epik_cmdline>
J2VwaWtfcHl0aG9uJywgJy1waCcsICc3LjAnLCAnLXRuJywgJzgnLCAnLW1hJywgJzIwMCcsICctbWV0YWxfYmluZGluZycsICctaW1hZScsICc8aW5maWxlLm1hZT4nLCAnLW9tYWUnLCAnPG91dGZpbGUubWFlPic=

> <r_lp_tautomer_probability>
1

> <r_epik_Ionization_Penalty>
0.918676

> <r_epik_Ionization_Penalty_Charging>
0

> <r_epik_Ionization_Penalty_Neutral>
0.918676

> <r_epik_State_Penalty>
0.958258

> <r_epik_Charging_Adjusted_Penalty>
0.958258

> <i_epik_Tot_Q>
0

> <i_epik_Tot_abs_Q>
0

> <r_epik_Metal_State_Penalty>
0.956879

> <b_epik_Metal_Only>
0

> <s_lp_Force_Field>
OPLS_2005

> <r_lp_Energy>
35.768

> <b_lp_Chiralities_Consistent>
1

> <s_lp_Variant>
AV-unprocessed.smi:3308-6

> <Gold.Version>
5.8.1

> <Gold.Id.Protein>
6NUR|6NUR_protein|mol2

> <Gold.PLP.Fitness>
42.4622

> <Gold.PLP.PLP>
-37.9710

> <Gold.PLP.part.hbond>
-0.9211

> <Gold.PLP.part.metal>
0.0000

> <Gold.PLP.part.buried>
-3.5021

> <Gold.PLP.part.nonpolar>
-34.0895

> <Gold.PLP.part.repulsive>
0.0705

> <Gold.PLP.ligand.clash>
0.0000

> <Gold.PLP.ligand.torsion>
0.7760

> <Gold.PLP.Chemscore.Hbond>
1.0000

> <Gold.PLP.Chemscore.CHOScore>
0.9924

> <Gold.PLP.Chemscore.Metal>
0.0000

> <Gold.Chemscore.Hbonds>
donor molecule, donor type, donor heavy atom, donor atom, acceptor molecule, acceptor atom, score
      P1  H  7989  7998       L1    18  0.95
      L1  C    15    38       P1  7948  0.98

> <Gold.PLP.Chemscore.Internal.Correction>
0.0659

> <Gold.Rescore>
     Score         DG    S(hbond)    S(metal)    S(lipo)     H(rot)  DE(clash)    DE(int)     intcor
     14.50     -15.38       0.96        0.00      94.90       1.72       0.15       0.73       ----

> <Gold.Chemscore.Fitness>
14.5021

> <Gold.Chemscore.DG>
-15.3822

> <Gold.Chemscore.ZeroCoef>
-5.4800

> <Gold.Chemscore.Hbond>
0.9586

> <Gold.Chemscore.Metal>
0.0000

> <Gold.Chemscore.Lipo>
94.9027

> <Gold.Chemscore.Internal_Hbond>
0.0000

> <Gold.Chemscore.DEClash>
0.1508

> <Gold.Chemscore.DEInternal>
0.7293

> <Gold.Chemscore.Rot>
1.7200

> <Gold.Chemscore.Internal.Correction>
   9.000000E+99

> <Gold.Chemscore.Hbonds>
donor molecule, donor type, donor heavy atom, donor atom, acceptor molecule, acceptor atom, score
      P1  H  7989  7998       L1    18  0.19

> <Gold.Chemscore.Hbond.Weighted>
-3.2017

> <Gold.Chemscore.Metal.Weighted>
-0.0000

> <Gold.Chemscore.Lipo.Weighted>
-11.1036

> <Gold.Chemscore.Internal_Hbond.Weighted>
0.0000

> <Gold.Chemscore.DEClash.Weighted>
0.1508

> <Gold.Chemscore.DEInternal.Weighted>
0.7293

> <Gold.Chemscore.Rot.Weighted>
4.4031

> <Gold.Chemscore.Internal.Correction.Weighted>
   9.000000E+99

> <Gold.Protein.RotatedTorsions>
[ 6907 6896 6895 6894 ] final   23.45 input  -60.11 | X-H torsion
[ 7974 7965 7964 7962 ] final  137.15 input  175.53 | X-H torsion
[ 8008 7997 7996 7995 ] final  -68.44 input   59.86 | X-H torsion
[ 10167 10162 10161 10158 ] final  153.42 input  -65.29 | X-H torsion
[ 10718 10713 10712 10709 ] final -145.31 input   66.30 | X-H torsion
[ 10763 10752 10751 10750 ] final  -87.84 input  -60.55 | X-H torsion
[ 11005 11000 10999 10996 ] final  108.00 input  -57.11 | X-H torsion

> <Gold.Protein.ActiveResidues>
 VAL166  LYS551  ARG553  GLY616  TRP617  ASP618  TYR619  PRO620  LYS621  CYS622 
 ASP623  PHE694  ASN695  SER759  ASP760  ASP761  ALA762  ILE779  LEU786  VAL792 
 PHE793  MET794  SER795  GLU796  ALA797  LYS798  CYS799  TRP800  GLU811  SER814 

> <Gold.Protein.RotatedAtoms>
  151.9426  135.0206  160.0536 H   0  0  0  0  0  0  0  0  0  0  0  0  # atno 6907 bound_to 6896
  152.2023  133.4845  159.5073 H   0  0  0  0  0  0  0  0  0  0  0  0  # atno 6908 bound_to 6896
  150.6957  134.1491  159.4176 H   0  0  0  0  0  0  0  0  0  0  0  0  # atno 6909 bound_to 6896
  144.9495  139.4835  143.5532 H   0  0  0  0  0  0  0  0  0  0  0  0  # atno 7974 bound_to 7965
  154.4868  140.0873  156.7505 H   0  0  0  0  0  0  0  0  0  0  0  0  # atno 8008 bound_to 7997
  155.4329  140.3450  155.4264 H   0  0  0  0  0  0  0  0  0  0  0  0  # atno 8009 bound_to 7997
  156.1273  140.1491  156.9105 H   0  0  0  0  0  0  0  0  0  0  0  0  # atno 8010 bound_to 7997
  139.4827  144.5274  151.7778 H   0  0  0  0  0  0  0  0  0  0  0  0  # atno 10167 bound_to 10162
  156.3809  130.7836  151.2028 H   0  0  0  0  0  0  0  0  0  0  0  0  # atno 10718 bound_to 10713
  154.6380  135.5399  153.7756 H   0  0  0  0  0  0  0  0  0  0  0  0  # atno 10763 bound_to 10752
  153.0318  135.6452  154.1202 H   0  0  0  0  0  0  0  0  0  0  0  0  # atno 10764 bound_to 10752
  154.1128  135.2925  155.3206 H   0  0  0  0  0  0  0  0  0  0  0  0  # atno 10765 bound_to 10752
  139.8837  134.9417  156.5905 H   0  0  0  0  0  0  0  0  0  0  0  0  # atno 11005 bound_to 11000
  146.3316  139.8571  142.8863 LP  0  0  0  0  0  0  0  0  0  0  0  0  # atno 17320 bound_to 7965
  145.2865  141.0154  143.3687 LP  0  0  0  0  0  0  0  0  0  0  0  0  # atno 17321 bound_to 7965
  140.4796  144.1469  150.5930 LP  0  0  0  0  0  0  0  0  0  0  0  0  # atno 17342 bound_to 10162
  140.4293  143.2575  151.9616 LP  0  0  0  0  0  0  0  0  0  0  0  0  # atno 17343 bound_to 10162
  157.7492  131.0344  150.4317 LP  0  0  0  0  0  0  0  0  0  0  0  0  # atno 17370 bound_to 10713
  156.4561  130.4022  149.6605 LP  0  0  0  0  0  0  0  0  0  0  0  0  # atno 17371 bound_to 10713
  140.7959  133.8545  155.8685 LP  0  0  0  0  0  0  0  0  0  0  0  0  # atno 17394 bound_to 11000
  140.9636  134.1623  157.4634 LP  0  0  0  0  0  0  0  0  0  0  0  0  # atno 17395 bound_to 11000

$$$$
