AV-unprocessed.smi:1555|AV-procd|sdf|6267|dock5
  -GOLD-   22720 6453D 1   1.00000     0.00000
 Structure written by MMmdl.
 41 42  0  0  0  0  0  0  0  0  1 V2000
  156.4234  140.1388  163.1206 C   0  0  0  0  0  0  0  0  0  0  0  0
  155.9777  139.9774  161.6587 C   0  0  1  0  0  0  0  0  0  0  0  0
  155.7521  138.4965  161.2992 C   0  0  0  0  0  0  0  0  0  0  0  0
  155.1890  137.7404  162.4028 N   0  0  0  0  0  0  0  0  0  0  0  0
  153.8493  137.4440  162.6193 C   0  0  0  0  0  0  0  0  0  0  0  0
  153.7929  136.7080  163.7812 C   0  0  0  0  0  0  0  0  0  0  0  0
  155.0772  136.5423  164.2942 N   0  0  0  0  0  0  0  0  0  0  0  0
  155.8500  137.1815  163.4255 C   0  0  0  0  0  0  0  0  0  0  0  0
  154.7534  140.7378  161.4193 N   0  0  0  0  0  0  0  0  0  0  0  0
  154.0485  140.7556  160.2755 C   0  0  0  0  0  0  0  0  0  0  0  0
  154.4144  140.1424  159.2718 O   0  0  0  0  0  0  0  0  0  0  0  0
  152.9151  141.5008  160.3215 N   0  0  0  0  0  0  0  0  0  0  0  0
  152.4745  142.3574  161.4356 C   0  0  0  0  0  0  0  0  0  0  0  0
  152.6323  143.8299  161.0177 C   0  0  0  0  0  0  0  0  0  0  0  0
  151.8380  144.1357  159.7282 C   0  0  0  0  0  0  0  0  0  0  0  0
  152.0757  145.5825  159.2589 C   0  0  0  0  0  0  0  0  0  0  0  0
  151.8970  146.4908  160.3255 O   0  0  0  0  0  0  0  0  0  0  0  0
  152.1693  143.0997  158.6282 C   0  0  0  0  0  0  0  0  0  0  0  0
  152.0383  141.6590  159.1552 C   0  0  0  0  0  0  0  0  0  0  0  0
  157.3439  139.5866  163.3118 H   0  0  0  0  0  0  0  0  0  0  0  0
  155.6642  139.7695  163.8105 H   0  0  0  0  0  0  0  0  0  0  0  0
  156.6136  141.1849  163.3636 H   0  0  0  0  0  0  0  0  0  0  0  0
  156.7701  140.3652  161.0156 H   0  0  0  0  0  0  0  0  0  0  0  0
  155.0701  138.4140  160.4519 H   0  0  0  0  0  0  0  0  0  0  0  0
  156.6887  138.0273  160.9938 H   0  0  0  0  0  0  0  0  0  0  0  0
  153.0696  137.7697  161.9466 H   0  0  0  0  0  0  0  0  0  0  0  0
  152.9338  136.2887  164.2833 H   0  0  0  0  0  0  0  0  0  0  0  0
  156.9231  137.2416  163.5333 H   0  0  0  0  0  0  0  0  0  0  0  0
  154.3929  141.2704  162.1974 H   0  0  0  0  0  0  0  0  0  0  0  0
  151.4275  142.1449  161.6569 H   0  0  0  0  0  0  0  0  0  0  0  0
  153.0044  142.1784  162.3711 H   0  0  0  0  0  0  0  0  0  0  0  0
  152.2950  144.4794  161.8261 H   0  0  0  0  0  0  0  0  0  0  0  0
  153.6897  144.0502  160.8638 H   0  0  0  0  0  0  0  0  0  0  0  0
  150.7794  144.0329  159.9733 H   0  0  0  0  0  0  0  0  0  0  0  0
  153.0932  145.6975  158.8840 H   0  0  0  0  0  0  0  0  0  0  0  0
  151.4004  145.8439  158.4436 H   0  0  0  0  0  0  0  0  0  0  0  0
  151.1820  146.1863  160.8632 H   0  0  0  0  0  0  0  0  0  0  0  0
  151.5093  143.2354  157.7711 H   0  0  0  0  0  0  0  0  0  0  0  0
  153.1850  143.2594  158.2636 H   0  0  0  0  0  0  0  0  0  0  0  0
  152.2640  140.9514  158.3562 H   0  0  0  0  0  0  0  0  0  0  0  0
  151.0065  141.4568  159.4455 H   0  0  0  0  0  0  0  0  0  0  0  0
  1  2  1  0  0  0  0
  1 20  1  0  0  0  0
  1 21  1  0  0  0  0
  1 22  1  0  0  0  0
  2  3  1  0  0  0  0
  2  9  1  0  0  0  0
  2 23  1  0  0  0  0
  3  4  1  0  0  0  0
  3 24  1  0  0  0  0
  3 25  1  0  0  0  0
  4  8  1  0  0  0  0
  4  5  1  0  0  0  0
  5  6  2  0  0  0  0
  5 26  1  0  0  0  0
  6  7  1  0  0  0  0
  6 27  1  0  0  0  0
  7  8  2  0  0  0  0
  8 28  1  0  0  0  0
  9 10  1  0  0  0  0
  9 29  1  0  0  0  0
 10 11  2  0  0  0  0
 10 12  1  0  0  0  0
 12 19  1  0  0  0  0
 12 13  1  0  0  0  0
 13 14  1  0  0  0  0
 13 30  1  0  0  0  0
 13 31  1  0  0  0  0
 14 15  1  0  0  0  0
 14 32  1  0  0  0  0
 14 33  1  0  0  0  0
 15 16  1  0  0  0  0
 15 18  1  0  0  0  0
 15 34  1  0  0  0  0
 16 17  1  0  0  0  0
 16 35  1  0  0  0  0
 16 36  1  0  0  0  0
 17 37  1  0  0  0  0
 18 19  1  0  0  0  0
 18 38  1  0  0  0  0
 18 39  1  0  0  0  0
 19 40  1  0  0  0  0
 19 41  1  0  0  0  0
M  END
> <s_m_source_file>
AV-unprocessed.smi

> <i_m_source_file_index>
1555

> <i_lp_mmshare_version>
43012

> <i_f3d_flags>
0

> <s_epik_input>
W2NIXTFuW2NIXVtjSF1uMVtDSDJdW0NAQEhdKFtDSDNdKVtOSF1DKD1PKU4yW0NIMl1bQ0gyXVtDSF0oW0NIMl1bT0hdKVtDSDJdW0NIMl0y

> <s_epik_cmdline>
J2VwaWtfcHl0aG9uJywgJy1waCcsICc3LjAnLCAnLXRuJywgJzgnLCAnLW1hJywgJzIwMCcsICctbWV0YWxfYmluZGluZycsICctaW1hZScsICc8aW5maWxlLm1hZT4nLCAnLW9tYWUnLCAnPG91dGZpbGUubWFlPic=

> <r_lp_tautomer_probability>
1

> <r_epik_Ionization_Penalty>
0.625883

> <r_epik_Ionization_Penalty_Charging>
0.625812

> <r_epik_Ionization_Penalty_Neutral>
7.07114e-05

> <r_epik_State_Penalty>
0.642234

> <r_epik_Charging_Adjusted_Penalty>
1.26805

> <i_epik_Tot_Q>
0

> <i_epik_Tot_abs_Q>
0

> <r_epik_Metal_State_Penalty>
0.307949

> <b_epik_Metal_Only>
0

> <s_lp_Force_Field>
OPLS_2005

> <r_lp_Energy>
32.573

> <b_lp_Chiralities_Consistent>
1

> <s_lp_Variant>
AV-unprocessed.smi:1555-4

> <Gold.Version>
5.8.1

> <Gold.Id.Protein>
6NUR|6NUR_protein|mol2

> <Gold.PLP.Fitness>
43.5318

> <Gold.PLP.PLP>
-42.0710

> <Gold.PLP.part.hbond>
-4.9860

> <Gold.PLP.part.metal>
0.0000

> <Gold.PLP.part.buried>
-1.7595

> <Gold.PLP.part.nonpolar>
-33.1750

> <Gold.PLP.part.repulsive>
0.0742

> <Gold.PLP.ligand.clash>
0.0000

> <Gold.PLP.ligand.torsion>
0.6952

> <Gold.PLP.Chemscore.Hbond>
0.9360

> <Gold.PLP.Chemscore.CHOScore>
0.0000

> <Gold.PLP.Chemscore.Metal>
0.0000

> <Gold.Chemscore.Hbonds>
donor molecule, donor type, donor heavy atom, donor atom, acceptor molecule, acceptor atom, score
      P1  H  7997  8010       L1    11  0.90

> <Gold.PLP.Chemscore.Internal.Correction>
0.0432

> <Gold.Rescore>
     Score         DG    S(hbond)    S(metal)    S(lipo)     H(rot)  DE(clash)    DE(int)     intcor
     11.47     -14.09       0.96        0.00     100.69       2.49       0.77       1.84       ----

> <Gold.Chemscore.Fitness>
11.4723

> <Gold.Chemscore.DG>
-14.0881

> <Gold.Chemscore.ZeroCoef>
-5.4800

> <Gold.Chemscore.Hbond>
0.9560

> <Gold.Chemscore.Metal>
0.0000

> <Gold.Chemscore.Lipo>
100.6922

> <Gold.Chemscore.Internal_Hbond>
0.0000

> <Gold.Chemscore.DEClash>
0.7709

> <Gold.Chemscore.DEInternal>
1.8448

> <Gold.Chemscore.Rot>
2.4867

> <Gold.Chemscore.Internal.Correction>
   9.000000E+99

> <Gold.Chemscore.Hbonds>
donor molecule, donor type, donor heavy atom, donor atom, acceptor molecule, acceptor atom, score
      P1  H  7997  8010       L1    11  0.83

> <Gold.Chemscore.Hbond.Weighted>
-3.1931

> <Gold.Chemscore.Metal.Weighted>
-0.0000

> <Gold.Chemscore.Lipo.Weighted>
-11.7810

> <Gold.Chemscore.Internal_Hbond.Weighted>
0.0000

> <Gold.Chemscore.DEClash.Weighted>
0.7709

> <Gold.Chemscore.DEInternal.Weighted>
1.8448

> <Gold.Chemscore.Rot.Weighted>
6.3660

> <Gold.Chemscore.Internal.Correction.Weighted>
   9.000000E+99

> <Gold.Protein.RotatedTorsions>
[ 6907 6896 6895 6894 ] final  143.12 input  -60.11 | X-H torsion
[ 7974 7965 7964 7962 ] final -133.19 input  175.53 | X-H torsion
[ 8008 7997 7996 7995 ] final    6.10 input   59.86 | X-H torsion
[ 10167 10162 10161 10158 ] final  156.09 input  -65.29 | X-H torsion
[ 10718 10713 10712 10709 ] final -172.31 input   66.30 | X-H torsion
[ 10763 10752 10751 10750 ] final  114.29 input  -60.55 | X-H torsion
[ 11005 11000 10999 10996 ] final  -83.02 input  -57.11 | X-H torsion

> <Gold.Protein.ActiveResidues>
 VAL166  LYS551  ARG553  GLY616  TRP617  ASP618  TYR619  PRO620  LYS621  CYS622 
 ASP623  PHE694  ASN695  SER759  ASP760  ASP761  ALA762  ILE779  LEU786  VAL792 
 PHE793  MET794  SER795  GLU796  ALA797  LYS798  CYS799  TRP800  GLU811  SER814 

> <Gold.Protein.RotatedAtoms>
  152.2103  133.4906  159.5106 H   0  0  0  0  0  0  0  0  0  0  0  0  # atno 6907 bound_to 6896
  150.6989  134.1476  159.4137 H   0  0  0  0  0  0  0  0  0  0  0  0  # atno 6908 bound_to 6896
  151.9395  135.0219  160.0585 H   0  0  0  0  0  0  0  0  0  0  0  0  # atno 6909 bound_to 6896
  144.9216  140.7021  143.4962 H   0  0  0  0  0  0  0  0  0  0  0  0  # atno 7974 bound_to 7965
  154.7367  140.2741  155.6409 H   0  0  0  0  0  0  0  0  0  0  0  0  # atno 8008 bound_to 7997
  156.2863  140.2705  156.2008 H   0  0  0  0  0  0  0  0  0  0  0  0  # atno 8009 bound_to 7997
  155.0311  140.0371  157.2464 H   0  0  0  0  0  0  0  0  0  0  0  0  # atno 8010 bound_to 7997
  139.4821  144.5040  151.8125 H   0  0  0  0  0  0  0  0  0  0  0  0  # atno 10167 bound_to 10162
  156.7537  130.9388  151.3115 H   0  0  0  0  0  0  0  0  0  0  0  0  # atno 10718 bound_to 10713
  153.5051  135.3630  155.2559 H   0  0  0  0  0  0  0  0  0  0  0  0  # atno 10763 bound_to 10752
  154.8745  135.4009  154.3433 H   0  0  0  0  0  0  0  0  0  0  0  0  # atno 10764 bound_to 10752
  153.4076  135.7077  153.6448 H   0  0  0  0  0  0  0  0  0  0  0  0  # atno 10765 bound_to 10752
  141.1660  133.7273  156.8658 H   0  0  0  0  0  0  0  0  0  0  0  0  # atno 11005 bound_to 11000
  145.3287  139.1766  143.4548 LP  0  0  0  0  0  0  0  0  0  0  0  0  # atno 17320 bound_to 7965
  146.3207  140.3314  142.8640 LP  0  0  0  0  0  0  0  0  0  0  0  0  # atno 17321 bound_to 7965
  140.4536  144.1820  150.5899 LP  0  0  0  0  0  0  0  0  0  0  0  0  # atno 17342 bound_to 10162
  140.4558  143.2468  151.9286 LP  0  0  0  0  0  0  0  0  0  0  0  0  # atno 17343 bound_to 10162
  157.6765  130.9100  150.0164 LP  0  0  0  0  0  0  0  0  0  0  0  0  # atno 17370 bound_to 10713
  156.1384  130.3642  149.9620 LP  0  0  0  0  0  0  0  0  0  0  0  0  # atno 17371 bound_to 10713
  140.1816  134.9029  157.2955 LP  0  0  0  0  0  0  0  0  0  0  0  0  # atno 17394 bound_to 11000
  140.2389  134.3820  155.7489 LP  0  0  0  0  0  0  0  0  0  0  0  0  # atno 17395 bound_to 11000

$$$$
