AV-unprocessed.smi:72|AV-procd|sdf|677|dock3
  -GOLD-   2262016583D 1   1.00000     0.00000
 Structure written by MMmdl.
 29 30  0  0  0  0  0  0  0  0  1 V2000
  153.0003  135.2183  157.5654 N   0  0  0  0  0  0  0  0  0  0  0  0
  152.1320  136.0613  157.1323 C   0  0  0  0  0  0  0  0  0  0  0  0
  151.7639  136.2278  155.7888 N   0  0  0  0  0  0  0  0  0  0  0  0
  150.8685  137.1191  155.4930 C   0  0  0  0  0  0  0  0  0  0  0  0
  150.2348  137.9484  156.5089 N   0  0  0  0  0  0  0  0  0  0  0  0
  149.1826  138.9898  156.1701 C   0  0  2  0  0  0  0  0  0  0  0  0
  148.2361  138.4459  155.2939 O   0  0  0  0  0  0  0  0  0  0  0  0
  148.3849  139.0120  153.9942 C   0  0  1  0  0  0  0  0  0  0  0  0
  147.0574  138.9098  153.2283 C   0  0  0  0  0  0  0  0  0  0  0  0
  147.2988  138.9331  151.8377 O   0  0  0  0  0  0  0  0  0  0  0  0
  148.7942  140.4457  154.3283 C   0  0  2  0  0  0  0  0  0  0  0  0
  149.3591  141.1347  153.2285 O   0  0  0  0  0  0  0  0  0  0  0  0
  149.7634  140.2538  155.4913 C   0  0  2  0  0  0  0  0  0  0  0  0
  151.1046  140.1006  155.0505 O   0  0  0  0  0  0  0  0  0  0  0  0
  150.6011  137.7966  157.8682 C   0  0  0  0  0  0  0  0  0  0  0  0
  150.1088  138.4837  158.7629 O   0  0  0  0  0  0  0  0  0  0  0  0
  151.5352  136.8546  158.1213 N   0  0  0  0  0  0  0  0  0  0  0  0
  148.6705  139.2044  157.1097 H   0  0  0  0  0  0  0  0  0  0  0  0
  149.1936  138.5154  153.4546 H   0  0  0  0  0  0  0  0  0  0  0  0
  147.9221  140.9993  154.6805 H   0  0  0  0  0  0  0  0  0  0  0  0
  149.7232  141.0931  156.1862 H   0  0  0  0  0  0  0  0  0  0  0  0
  153.0931  135.2873  158.5682 H   0  0  0  0  0  0  0  0  0  0  0  0
  150.5410  137.2979  154.4691 H   0  0  0  0  0  0  0  0  0  0  0  0
  146.5074  138.0097  153.5045 H   0  0  0  0  0  0  0  0  0  0  0  0
  146.4211  139.7636  153.4632 H   0  0  0  0  0  0  0  0  0  0  0  0
  148.1553  139.3032  151.6878 H   0  0  0  0  0  0  0  0  0  0  0  0
  149.6162  140.4999  152.5772 H   0  0  0  0  0  0  0  0  0  0  0  0
  151.3232  139.1815  155.0708 H   0  0  0  0  0  0  0  0  0  0  0  0
  151.8162  136.7246  159.0820 H   0  0  0  0  0  0  0  0  0  0  0  0
  1  2  2  0  0  0  0
  1 22  1  0  0  0  0
  2 17  1  0  0  0  0
  2  3  1  0  0  0  0
  3  4  2  0  0  0  0
  4  5  1  0  0  0  0
  4 23  1  0  0  0  0
  5  6  1  0  0  0  0
  5 15  1  0  0  0  0
  6 18  1  0  0  0  0
  6 13  1  0  0  0  0
  6  7  1  0  0  0  0
  7  8  1  0  0  0  0
  8 19  1  0  0  0  0
  8  9  1  0  0  0  0
  8 11  1  0  0  0  0
  9 10  1  0  0  0  0
  9 24  1  0  0  0  0
  9 25  1  0  0  0  0
 10 26  1  0  0  0  0
 11 20  1  0  0  0  0
 11 12  1  0  0  0  0
 11 13  1  0  0  0  0
 12 27  1  0  0  0  0
 13 21  1  0  0  0  0
 13 14  1  0  0  0  0
 14 28  1  0  0  0  0
 15 16  2  0  0  0  0
 15 17  1  0  0  0  0
 17 29  1  0  0  0  0
M  END
> <s_m_source_file>
AV-unprocessed.smi

> <i_m_source_file_index>
72

> <i_lp_mmshare_version>
43012

> <i_f3d_flags>
0

> <s_epik_input>
W05IMl1jMW5bY0hdbihjKD1PKW4xKVtDQEBIXTJPW0NASF0oW0NIMl1bT0hdKVtDQEBIXShbT0hdKVtDQEhdMltPSF0=

> <s_epik_cmdline>
J2VwaWtfcHl0aG9uJywgJy1waCcsICc3LjAnLCAnLXRuJywgJzgnLCAnLW1hJywgJzIwMCcsICctbWV0YWxfYmluZGluZycsICctaW1hZScsICc8aW5maWxlLm1hZT4nLCAnLW9tYWUnLCAnPG91dGZpbGUubWFlPic=

> <r_lp_tautomer_probability>
7.17554e-07

> <r_epik_Ionization_Penalty>
0.0066451

> <r_epik_Ionization_Penalty_Charging>
0.00663793

> <r_epik_Ionization_Penalty_Neutral>
7.17052e-06

> <r_epik_State_Penalty>
0.419231

> <r_epik_Charging_Adjusted_Penalty>
0.425868

> <i_epik_Tot_Q>
0

> <i_epik_Tot_abs_Q>
0

> <r_epik_Metal_State_Penalty>
1.44144

> <b_epik_Metal_Only>
0

> <s_epik_Chemistry_Notes>
This compound contains an acetal/aminal-like group ( X-CH(R)-Y where X, Y are N, S, or O) that may be acid/base labile, releasing an aldehyde.

> <s_lp_Force_Field>
OPLS_2005

> <r_lp_Energy>
48.3326

> <b_lp_Chiralities_Consistent>
1

> <s_lp_Variant>
AV-unprocessed.smi:72-15

> <Gold.Version>
5.8.1

> <Gold.Id.Protein>
6NUR|6NUR_protein|mol2

> <Gold.PLP.Fitness>
34.0891

> <Gold.PLP.PLP>
-21.5994

> <Gold.PLP.part.hbond>
-7.6854

> <Gold.PLP.part.metal>
0.0000

> <Gold.PLP.part.buried>
-5.2343

> <Gold.PLP.part.nonpolar>
-9.8741

> <Gold.PLP.part.repulsive>
0.2042

> <Gold.PLP.ligand.clash>
0.0000

> <Gold.PLP.ligand.torsion>
0.6500

> <Gold.PLP.Chemscore.Hbond>
4.5705

> <Gold.PLP.Chemscore.CHOScore>
0.0000

> <Gold.PLP.Chemscore.Metal>
0.0000

> <Gold.Chemscore.Hbonds>
donor molecule, donor type, donor heavy atom, donor atom, acceptor molecule, acceptor atom, score
      L1  H    10    26       P1  7957  1.00
      L1  H    12    27       P1  7957  0.87
      P1  H  7989  7998       L1    14  1.00
      P1  H  8011  8017       L1    12  0.70
      P1  H 10752 10765       L1     3  1.00

> <Gold.PLP.Chemscore.Internal.Correction>
0.0783

> <Gold.Rescore>
     Score         DG    S(hbond)    S(metal)    S(lipo)     H(rot)  DE(clash)    DE(int)     intcor
      9.72     -10.51       3.74        0.00      25.03       4.06       0.02       0.76       ----

> <Gold.Chemscore.Fitness>
9.7229

> <Gold.Chemscore.DG>
-10.5104

> <Gold.Chemscore.ZeroCoef>
-5.4800

> <Gold.Chemscore.Hbond>
3.7411

> <Gold.Chemscore.Metal>
0.0000

> <Gold.Chemscore.Lipo>
25.0318

> <Gold.Chemscore.Internal_Hbond>
0.0000

> <Gold.Chemscore.DEClash>
0.0234

> <Gold.Chemscore.DEInternal>
0.7641

> <Gold.Chemscore.Rot>
4.0600

> <Gold.Chemscore.Internal.Correction>
   9.000000E+99

> <Gold.Chemscore.Hbonds>
donor molecule, donor type, donor heavy atom, donor atom, acceptor molecule, acceptor atom, score
      L1  H    10    26       P1  7957  0.98
      L1  H    12    27       P1  7957  0.80
      P1  H  7989  7998       L1    14  0.76
      P1  H  8011  8017       L1    12  0.07
      P1  H 10752 10765       L1     3  0.81

> <Gold.Chemscore.Hbond.Weighted>
-12.4953

> <Gold.Chemscore.Metal.Weighted>
-0.0000

> <Gold.Chemscore.Lipo.Weighted>
-2.9287

> <Gold.Chemscore.Internal_Hbond.Weighted>
0.0000

> <Gold.Chemscore.DEClash.Weighted>
0.0234

> <Gold.Chemscore.DEInternal.Weighted>
0.7641

> <Gold.Chemscore.Rot.Weighted>
10.3936

> <Gold.Chemscore.Internal.Correction.Weighted>
   9.000000E+99

> <Gold.Protein.RotatedTorsions>
[ 6907 6896 6895 6894 ] final   35.25 input  -60.11 | X-H torsion
[ 7974 7965 7964 7962 ] final  -72.65 input  175.53 | X-H torsion
[ 8008 7997 7996 7995 ] final  -31.57 input   59.86 | X-H torsion
[ 10167 10162 10161 10158 ] final   73.81 input  -65.29 | X-H torsion
[ 10718 10713 10712 10709 ] final    5.06 input   66.30 | X-H torsion
[ 10763 10752 10751 10750 ] final -174.75 input  -60.55 | X-H torsion
[ 11005 11000 10999 10996 ] final  162.74 input  -57.11 | X-H torsion

> <Gold.Protein.ActiveResidues>
 VAL166  LYS551  ARG553  GLY616  TRP617  ASP618  TYR619  PRO620  LYS621  CYS622 
 ASP623  PHE694  ASN695  SER759  ASP760  ASP761  ALA762  ILE779  LEU786  VAL792 
 PHE793  MET794  SER795  GLU796  ALA797  LYS798  CYS799  TRP800  GLU811  SER814 

> <Gold.Protein.RotatedAtoms>
  152.1135  134.9257  160.0565 H   0  0  0  0  0  0  0  0  0  0  0  0  # atno 6907 bound_to 6896
  152.0425  133.3979  159.4351 H   0  0  0  0  0  0  0  0  0  0  0  0  # atno 6908 bound_to 6896
  150.6845  134.3319  159.4874 H   0  0  0  0  0  0  0  0  0  0  0  0  # atno 6909 bound_to 6896
  145.6624  140.9248  143.0926 H   0  0  0  0  0  0  0  0  0  0  0  0  # atno 7974 bound_to 7965
  154.4209  140.1761  156.1588 H   0  0  0  0  0  0  0  0  0  0  0  0  # atno 8008 bound_to 7997
  155.9855  140.3373  155.6679 H   0  0  0  0  0  0  0  0  0  0  0  0  # atno 8009 bound_to 7997
  155.6443  140.0683  157.2599 H   0  0  0  0  0  0  0  0  0  0  0  0  # atno 8010 bound_to 7997
  140.0205  144.5544  150.7586 H   0  0  0  0  0  0  0  0  0  0  0  0  # atno 10167 bound_to 10162
  156.9018  130.5724  149.5648 H   0  0  0  0  0  0  0  0  0  0  0  0  # atno 10718 bound_to 10713
  154.5925  135.2846  155.0620 H   0  0  0  0  0  0  0  0  0  0  0  0  # atno 10763 bound_to 10752
  154.1915  135.6440  153.5065 H   0  0  0  0  0  0  0  0  0  0  0  0  # atno 10764 bound_to 10752
  153.0126  135.5447  154.6616 H   0  0  0  0  0  0  0  0  0  0  0  0  # atno 10765 bound_to 10752
  140.2288  134.8140  157.3295 H   0  0  0  0  0  0  0  0  0  0  0  0  # atno 11005 bound_to 11000
  144.7084  139.8467  143.7422 LP  0  0  0  0  0  0  0  0  0  0  0  0  # atno 17320 bound_to 7965
  146.1114  139.4119  143.0285 LP  0  0  0  0  0  0  0  0  0  0  0  0  # atno 17321 bound_to 7965
  140.7344  143.2729  151.3832 LP  0  0  0  0  0  0  0  0  0  0  0  0  # atno 17342 bound_to 10162
  139.6143  144.1034  152.2330 LP  0  0  0  0  0  0  0  0  0  0  0  0  # atno 17343 bound_to 10162
  156.0578  130.5636  150.9129 LP  0  0  0  0  0  0  0  0  0  0  0  0  # atno 17370 bound_to 10713
  157.6021  131.0940  150.8942 LP  0  0  0  0  0  0  0  0  0  0  0  0  # atno 17371 bound_to 10713
  140.1772  134.4534  155.7794 LP  0  0  0  0  0  0  0  0  0  0  0  0  # atno 17394 bound_to 11000
  141.2219  133.6968  156.7808 LP  0  0  0  0  0  0  0  0  0  0  0  0  # atno 17395 bound_to 11000

$$$$
