AV-unprocessed.smi:275|AV-procd|sdf|2069|dock8
  -GOLD-   2262021323D 1   1.00000     0.00000
 Structure written by MMmdl.
 65 69  0  0  0  0  0  0  0  0  1 V2000
  147.7248  133.3208  160.1591 C   0  0  0  0  0  0  0  0  0  0  0  0
  147.9119  134.4834  161.1481 C   0  0  0  0  0  0  0  0  0  0  0  0
  147.2774  134.0727  162.4912 C   0  0  0  0  0  0  0  0  0  0  0  0
  147.3426  135.8322  160.6346 C   0  0  1  0  0  0  0  0  0  0  0  0
  147.6985  135.9453  159.2174 N   0  0  0  0  0  0  0  0  0  0  0  0
  148.2653  137.1872  158.7793 C   0  0  0  0  0  0  0  0  0  0  0  0
  147.5063  138.0281  158.0246 N   0  0  0  0  0  0  0  0  0  0  0  0
  147.9836  139.1928  157.5788 C   0  0  0  0  0  0  0  0  0  0  0  0
  149.1963  139.7153  157.7525 N   0  0  0  0  0  0  0  0  0  0  0  0
  149.9846  138.8777  158.4815 C   0  0  0  0  0  0  0  0  0  0  0  0
  149.6074  137.6124  159.0199 C   0  0  0  0  0  0  0  0  0  0  0  0
  150.6932  137.0547  159.6864 N   0  0  0  0  0  0  0  0  0  0  0  0
  151.6451  137.9374  159.5620 C   0  0  0  0  0  0  0  0  0  0  0  0
  151.3021  139.0673  158.8579 N   0  0  0  0  0  0  0  0  0  0  0  0
  152.1572  140.2050  158.5687 C   0  0  0  0  0  0  0  0  0  0  0  0
  152.4889  141.0583  159.8187 C   0  0  1  0  0  0  0  0  0  0  0  0
  153.9915  141.0224  160.1908 C   0  0  0  0  0  0  0  0  0  0  0  0
  154.1887  141.2640  161.5690 O   0  0  0  0  0  0  0  0  0  0  0  0
  151.9532  142.5053  159.6768 C   0  0  1  0  0  0  0  0  0  0  0  0
  152.1893  143.3938  160.8855 C   0  0  0  0  0  0  0  0  0  0  0  0
  152.0070  144.7892  160.2985 C   0  0  0  0  0  0  0  0  0  0  0  0
  152.4679  144.7026  158.9552 O   0  0  0  0  0  0  0  0  0  0  0  0
  152.6316  143.3375  158.5833 C   0  0  0  0  0  0  0  0  0  0  0  0
  146.3345  135.6518  158.7950 C   0  0  0  0  0  0  0  0  0  0  0  0
  145.8613  136.0619  160.1970 C   0  0  0  0  0  0  0  0  0  0  0  0
  145.3414  137.5182  160.2782 C   0  0  0  0  0  0  0  0  0  0  0  0
  144.9284  137.9533  161.6914 C   0  0  0  0  0  0  0  0  0  0  0  0
  143.8224  137.0449  162.2321 C   0  0  0  0  0  0  0  0  0  0  0  0
  144.2722  135.5833  162.1907 C   0  0  0  0  0  0  0  0  0  0  0  0
  144.7452  135.1711  160.7806 C   0  0  0  0  0  0  0  0  0  0  0  0
  146.7098  133.2941  159.7616 H   0  0  0  0  0  0  0  0  0  0  0  0
  147.9133  132.3603  160.6396 H   0  0  0  0  0  0  0  0  0  0  0  0
  148.4232  133.3750  159.3282 H   0  0  0  0  0  0  0  0  0  0  0  0
  148.9851  134.5821  161.3190 H   0  0  0  0  0  0  0  0  0  0  0  0
  146.2069  133.8967  162.3841 H   0  0  0  0  0  0  0  0  0  0  0  0
  147.4156  134.8347  163.2583 H   0  0  0  0  0  0  0  0  0  0  0  0
  147.7239  133.1545  162.8732 H   0  0  0  0  0  0  0  0  0  0  0  0
  147.6787  136.6742  161.2379 H   0  0  0  0  0  0  0  0  0  0  0  0
  147.2949  139.7891  156.9988 H   0  0  0  0  0  0  0  0  0  0  0  0
  152.6271  137.7898  159.9875 H   0  0  0  0  0  0  0  0  0  0  0  0
  153.0763  139.8365  158.1109 H   0  0  0  0  0  0  0  0  0  0  0  0
  151.6571  140.8101  157.8119 H   0  0  0  0  0  0  0  0  0  0  0  0
  151.9605  140.6038  160.6580 H   0  0  0  0  0  0  0  0  0  0  0  0
  154.4312  140.0575  159.9394 H   0  0  0  0  0  0  0  0  0  0  0  0
  154.5545  141.7620  159.6214 H   0  0  0  0  0  0  0  0  0  0  0  0
  154.8821  141.8988  161.6662 H   0  0  0  0  0  0  0  0  0  0  0  0
  150.8804  142.4800  159.4781 H   0  0  0  0  0  0  0  0  0  0  0  0
  151.5010  143.1959  161.7078 H   0  0  0  0  0  0  0  0  0  0  0  0
  153.2086  143.2734  161.2557 H   0  0  0  0  0  0  0  0  0  0  0  0
  150.9509  145.0619  160.2857 H   0  0  0  0  0  0  0  0  0  0  0  0
  152.5486  145.5525  160.8583 H   0  0  0  0  0  0  0  0  0  0  0  0
  153.7003  143.1228  158.5387 H   0  0  0  0  0  0  0  0  0  0  0  0
  152.2092  143.1496  157.5959 H   0  0  0  0  0  0  0  0  0  0  0  0
  145.9181  136.2531  157.9868 H   0  0  0  0  0  0  0  0  0  0  0  0
  146.2073  134.5868  158.5956 H   0  0  0  0  0  0  0  0  0  0  0  0
  146.0903  138.2218  159.9173 H   0  0  0  0  0  0  0  0  0  0  0  0
  144.4896  137.6424  159.6080 H   0  0  0  0  0  0  0  0  0  0  0  0
  145.7931  137.9227  162.3554 H   0  0  0  0  0  0  0  0  0  0  0  0
  144.5836  138.9874  161.6766 H   0  0  0  0  0  0  0  0  0  0  0  0
  143.5641  137.3311  163.2521 H   0  0  0  0  0  0  0  0  0  0  0  0
  142.9188  137.1691  161.6340 H   0  0  0  0  0  0  0  0  0  0  0  0
  145.0706  135.4559  162.9183 H   0  0  0  0  0  0  0  0  0  0  0  0
  143.4573  134.9346  162.5131 H   0  0  0  0  0  0  0  0  0  0  0  0
  143.8827  135.1976  160.1132 H   0  0  0  0  0  0  0  0  0  0  0  0
  145.0535  134.1263  160.7876 H   0  0  0  0  0  0  0  0  0  0  0  0
  1  2  1  0  0  0  0
  1 31  1  0  0  0  0
  1 32  1  0  0  0  0
  1 33  1  0  0  0  0
  2  3  1  0  0  0  0
  2  4  1  0  0  0  0
  2 34  1  0  0  0  0
  3 35  1  0  0  0  0
  3 36  1  0  0  0  0
  3 37  1  0  0  0  0
  4 25  1  0  0  0  0
  4  5  1  0  0  0  0
  4 38  1  0  0  0  0
  5  6  1  0  0  0  0
  5 24  1  0  0  0  0
  6 11  1  0  0  0  0
  6  7  2  0  0  0  0
  7  8  1  0  0  0  0
  8  9  2  0  0  0  0
  8 39  1  0  0  0  0
  9 10  1  0  0  0  0
 10 14  1  0  0  0  0
 10 11  2  0  0  0  0
 11 12  1  0  0  0  0
 12 13  2  0  0  0  0
 13 14  1  0  0  0  0
 13 40  1  0  0  0  0
 14 15  1  0  0  0  0
 15 16  1  0  0  0  0
 15 41  1  0  0  0  0
 15 42  1  0  0  0  0
 16 17  1  0  0  0  0
 16 19  1  0  0  0  0
 16 43  1  0  0  0  0
 17 18  1  0  0  0  0
 17 44  1  0  0  0  0
 17 45  1  0  0  0  0
 18 46  1  0  0  0  0
 19 23  1  0  0  0  0
 19 20  1  0  0  0  0
 19 47  1  0  0  0  0
 20 21  1  0  0  0  0
 20 48  1  0  0  0  0
 20 49  1  0  0  0  0
 21 22  1  0  0  0  0
 21 50  1  0  0  0  0
 21 51  1  0  0  0  0
 22 23  1  0  0  0  0
 23 52  1  0  0  0  0
 23 53  1  0  0  0  0
 24 25  1  0  0  0  0
 24 54  1  0  0  0  0
 24 55  1  0  0  0  0
 25 30  1  0  0  0  0
 25 26  1  0  0  0  0
 26 27  1  0  0  0  0
 26 56  1  0  0  0  0
 26 57  1  0  0  0  0
 27 28  1  0  0  0  0
 27 58  1  0  0  0  0
 27 59  1  0  0  0  0
 28 29  1  0  0  0  0
 28 60  1  0  0  0  0
 28 61  1  0  0  0  0
 29 30  1  0  0  0  0
 29 62  1  0  0  0  0
 29 63  1  0  0  0  0
 30 64  1  0  0  0  0
 30 65  1  0  0  0  0
M  END
> <s_m_source_file>
AV-unprocessed.smi

> <i_m_source_file_index>
275

> <i_lp_mmshare_version>
43012

> <i_f3d_flags>
0

> <s_epik_input>
W0NIMl0xW0NIMl1bQ0gyXVtDSDJdW0NIMl1DMTJbQ0BIXShbQ0hdKFtDSDNdKVtDSDNdKU4oW0NIMl0yKWMobltjSF1uMyljKGMzNCluW2NIXW40W0NIMl1bQ0BIXShbQ0gyXVtPSF0pW0NAQEhdNVtDSDJdW0NIMl1PW0NIMl01

> <s_epik_cmdline>
J2VwaWtfcHl0aG9uJywgJy1waCcsICc3LjAnLCAnLXRuJywgJzgnLCAnLW1hJywgJzIwMCcsICctbWV0YWxfYmluZGluZycsICctaW1hZScsICc8aW5maWxlLm1hZT4nLCAnLW9tYWUnLCAnPG91dGZpbGUubWFlPic=

> <r_lp_tautomer_probability>
1

> <r_epik_Ionization_Penalty>
0.00375122

> <r_epik_Ionization_Penalty_Charging>
0

> <r_epik_Ionization_Penalty_Neutral>
0.00375122

> <r_epik_State_Penalty>
0.00260593

> <r_epik_Charging_Adjusted_Penalty>
0.00260593

> <i_epik_Tot_Q>
0

> <i_epik_Tot_abs_Q>
0

> <r_epik_Metal_State_Penalty>
-0

> <b_epik_Metal_Only>
0

> <s_lp_Force_Field>
OPLS_2005

> <r_lp_Energy>
68.7999

> <b_lp_Chiralities_Consistent>
1

> <s_lp_Variant>
AV-unprocessed.smi:275-8

> <Gold.Version>
5.8.1

> <Gold.Id.Protein>
6NUR|6NUR_protein|mol2

> <Gold.PLP.Fitness>
48.0997

> <Gold.PLP.PLP>
-47.5012

> <Gold.PLP.part.hbond>
-1.4346

> <Gold.PLP.part.metal>
0.0000

> <Gold.PLP.part.buried>
-9.4976

> <Gold.PLP.part.nonpolar>
-37.7178

> <Gold.PLP.part.repulsive>
0.0063

> <Gold.PLP.ligand.clash>
0.0000

> <Gold.PLP.ligand.torsion>
1.4274

> <Gold.PLP.Chemscore.Hbond>
0.9913

> <Gold.PLP.Chemscore.CHOScore>
0.0000

> <Gold.PLP.Chemscore.Metal>
0.0000

> <Gold.Chemscore.Hbonds>
donor molecule, donor type, donor heavy atom, donor atom, acceptor molecule, acceptor atom, score
      P1  H  6896  6907       L1    12  1.00

> <Gold.PLP.Chemscore.Internal.Correction>
0.4795

> <Gold.Rescore>
     Score         DG    S(hbond)    S(metal)    S(lipo)     H(rot)  DE(clash)    DE(int)     intcor
     14.58     -17.30       0.96        0.00     129.22       2.54       0.32       2.40       ----

> <Gold.Chemscore.Fitness>
14.5780

> <Gold.Chemscore.DG>
-17.2953

> <Gold.Chemscore.ZeroCoef>
-5.4800

> <Gold.Chemscore.Hbond>
0.9561

> <Gold.Chemscore.Metal>
0.0000

> <Gold.Chemscore.Lipo>
129.2195

> <Gold.Chemscore.Internal_Hbond>
0.0000

> <Gold.Chemscore.DEClash>
0.3158

> <Gold.Chemscore.DEInternal>
2.4015

> <Gold.Chemscore.Rot>
2.5377

> <Gold.Chemscore.Internal.Correction>
   9.000000E+99

> <Gold.Chemscore.Hbonds>
donor molecule, donor type, donor heavy atom, donor atom, acceptor molecule, acceptor atom, score
      P1  H  6896  6907       L1    12  0.91

> <Gold.Chemscore.Hbond.Weighted>
-3.1932

> <Gold.Chemscore.Metal.Weighted>
-0.0000

> <Gold.Chemscore.Lipo.Weighted>
-15.1187

> <Gold.Chemscore.Internal_Hbond.Weighted>
0.0000

> <Gold.Chemscore.DEClash.Weighted>
0.3158

> <Gold.Chemscore.DEInternal.Weighted>
2.4015

> <Gold.Chemscore.Rot.Weighted>
6.4966

> <Gold.Chemscore.Internal.Correction.Weighted>
   9.000000E+99

> <Gold.Protein.RotatedTorsions>
[ 6907 6896 6895 6894 ] final  -20.38 input  -60.11 | X-H torsion
[ 7974 7965 7964 7962 ] final -141.38 input  175.53 | X-H torsion
[ 8008 7997 7996 7995 ] final  -61.77 input   59.86 | X-H torsion
[ 10167 10162 10161 10158 ] final   20.51 input  -65.29 | X-H torsion
[ 10718 10713 10712 10709 ] final -105.95 input   66.30 | X-H torsion
[ 10763 10752 10751 10750 ] final   25.06 input  -60.55 | X-H torsion
[ 11005 11000 10999 10996 ] final -146.26 input  -57.11 | X-H torsion

> <Gold.Protein.ActiveResidues>
 VAL166  LYS551  ARG553  GLY616  TRP617  ASP618  TYR619  PRO620  LYS621  CYS622 
 ASP623  PHE694  ASN695  SER759  ASP760  ASP761  ALA762  ILE779  LEU786  VAL792 
 PHE793  MET794  SER795  GLU796  ALA797  LYS798  CYS799  TRP800  GLU811  SER814 

> <Gold.Protein.RotatedAtoms>
  151.2490  135.0615  159.9054 H   0  0  0  0  0  0  0  0  0  0  0  0  # atno 6907 bound_to 6896
  152.5383  134.0353  159.8053 H   0  0  0  0  0  0  0  0  0  0  0  0  # atno 6908 bound_to 6896
  151.0558  133.5536  159.2669 H   0  0  0  0  0  0  0  0  0  0  0  0  # atno 6909 bound_to 6896
  144.8524  140.6086  143.5382 H   0  0  0  0  0  0  0  0  0  0  0  0  # atno 7974 bound_to 7965
  154.4464  140.1010  156.6482 H   0  0  0  0  0  0  0  0  0  0  0  0  # atno 8008 bound_to 7997
  155.5427  140.3484  155.4432 H   0  0  0  0  0  0  0  0  0  0  0  0  # atno 8009 bound_to 7997
  156.0586  140.1321  156.9957 H   0  0  0  0  0  0  0  0  0  0  0  0  # atno 8010 bound_to 7997
  140.5498  143.9529  150.6571 H   0  0  0  0  0  0  0  0  0  0  0  0  # atno 10167 bound_to 10162
  156.0368  130.5589  150.7612 H   0  0  0  0  0  0  0  0  0  0  0  0  # atno 10718 bound_to 10713
  153.0719  135.6591  154.0229 H   0  0  0  0  0  0  0  0  0  0  0  0  # atno 10763 bound_to 10752
  153.9872  135.2949  155.3416 H   0  0  0  0  0  0  0  0  0  0  0  0  # atno 10764 bound_to 10752
  154.7096  135.5211  153.8716 H   0  0  0  0  0  0  0  0  0  0  0  0  # atno 10765 bound_to 10752
  140.7838  134.3048  157.5036 H   0  0  0  0  0  0  0  0  0  0  0  0  # atno 11005 bound_to 11000
  145.4474  139.1528  143.3937 LP  0  0  0  0  0  0  0  0  0  0  0  0  # atno 17320 bound_to 7965
  146.2795  140.4598  142.8782 LP  0  0  0  0  0  0  0  0  0  0  0  0  # atno 17321 bound_to 7965
  140.2952  143.3297  152.1025 LP  0  0  0  0  0  0  0  0  0  0  0  0  # atno 17342 bound_to 10162
  139.5022  144.6731  151.6195 LP  0  0  0  0  0  0  0  0  0  0  0  0  # atno 17343 bound_to 10162
  157.5131  131.0927  151.0173 LP  0  0  0  0  0  0  0  0  0  0  0  0  # atno 17370 bound_to 10713
  157.0523  130.5792  149.5372 LP  0  0  0  0  0  0  0  0  0  0  0  0  # atno 17371 bound_to 10713
  139.8739  134.9334  156.3580 LP  0  0  0  0  0  0  0  0  0  0  0  0  # atno 17394 bound_to 11000
  140.9456  133.7485  156.0204 LP  0  0  0  0  0  0  0  0  0  0  0  0  # atno 17395 bound_to 11000

$$$$
