AV-unprocessed.smi:2406|AV-procd|sdf|9517|dock6
  -GOLD-   2272013153D 1   1.00000     0.00000
 Structure written by MMmdl.
 36 37  0  0  0  0  0  0  0  0  1 V2000
  151.3244  134.7550  154.9677 C   0  0  0  0  0  0  0  0  0  0  0  0
  151.9841  135.7912  155.6864 O   0  0  0  0  0  0  0  0  0  0  0  0
  151.6234  137.0967  155.4246 C   0  0  0  0  0  0  0  0  0  0  0  0
  152.0430  138.1185  156.3009 C   0  0  0  0  0  0  0  0  0  0  0  0
  151.6583  139.4427  155.9921 C   0  0  0  0  0  0  0  0  0  0  0  0
  152.1102  140.4423  156.8935 N   0  0  0  0  0  0  0  0  0  0  0  0
  152.3132  140.3337  158.2182 C   0  0  0  0  0  0  0  0  0  0  0  0
  152.1745  139.3028  158.8770 O   0  0  0  0  0  0  0  0  0  0  0  0
  152.6847  141.5095  158.7458 N   0  0  0  0  0  0  0  0  0  0  0  0
  152.9303  141.7744  160.1622 C   0  0  1  0  0  0  0  0  0  0  0  0
  154.2872  141.1816  160.5679 C   0  0  0  0  0  0  0  0  0  0  0  0
  152.8629  143.2885  160.4367 C   0  0  0  0  0  0  0  0  0  0  0  0
  151.5259  143.9073  160.0662 C   0  0  0  0  0  0  0  0  0  0  0  0
  151.3137  144.5840  158.7314 C   0  0  0  0  0  0  0  0  0  0  0  0
  151.3613  145.4068  159.9975 C   0  0  0  0  0  0  0  0  0  0  0  0
  150.9083  139.6895  154.8898 N   0  0  0  0  0  0  0  0  0  0  0  0
  150.5596  138.6528  154.1256 C   0  0  0  0  0  0  0  0  0  0  0  0
  150.8749  137.3733  154.3295 N   0  0  0  0  0  0  0  0  0  0  0  0
  151.7239  133.7898  155.2785 H   0  0  0  0  0  0  0  0  0  0  0  0
  151.4870  134.8495  153.8931 H   0  0  0  0  0  0  0  0  0  0  0  0
  150.2522  134.7496  155.1683 H   0  0  0  0  0  0  0  0  0  0  0  0
  152.6404  137.8901  157.1716 H   0  0  0  0  0  0  0  0  0  0  0  0
  152.2698  141.3526  156.4882 H   0  0  0  0  0  0  0  0  0  0  0  0
  152.7762  142.2974  158.1215 H   0  0  0  0  0  0  0  0  0  0  0  0
  152.1624  141.2945  160.7716 H   0  0  0  0  0  0  0  0  0  0  0  0
  154.4882  141.3506  161.6262 H   0  0  0  0  0  0  0  0  0  0  0  0
  155.1029  141.6287  159.9990 H   0  0  0  0  0  0  0  0  0  0  0  0
  154.3119  140.1049  160.3974 H   0  0  0  0  0  0  0  0  0  0  0  0
  153.0362  143.4753  161.4970 H   0  0  0  0  0  0  0  0  0  0  0  0
  153.6596  143.8047  159.8987 H   0  0  0  0  0  0  0  0  0  0  0  0
  150.6716  143.3597  160.4600 H   0  0  0  0  0  0  0  0  0  0  0  0
  152.1640  144.6530  158.0557 H   0  0  0  0  0  0  0  0  0  0  0  0
  150.3464  144.4510  158.2512 H   0  0  0  0  0  0  0  0  0  0  0  0
  150.4250  145.8258  160.3602 H   0  0  0  0  0  0  0  0  0  0  0  0
  152.2429  146.0238  160.1606 H   0  0  0  0  0  0  0  0  0  0  0  0
  149.9626  138.8724  153.2530 H   0  0  0  0  0  0  0  0  0  0  0  0
  1  2  1  0  0  0  0
  1 19  1  0  0  0  0
  1 20  1  0  0  0  0
  1 21  1  0  0  0  0
  2  3  1  0  0  0  0
  3 18  1  0  0  0  0
  3  4  2  0  0  0  0
  4  5  1  0  0  0  0
  4 22  1  0  0  0  0
  5  6  1  0  0  0  0
  5 16  2  0  0  0  0
  6  7  1  0  0  0  0
  6 23  1  0  0  0  0
  7  8  2  0  0  0  0
  7  9  1  0  0  0  0
  9 10  1  0  0  0  0
  9 24  1  0  0  0  0
 10 11  1  0  0  0  0
 10 12  1  0  0  0  0
 10 25  1  0  0  0  0
 11 26  1  0  0  0  0
 11 27  1  0  0  0  0
 11 28  1  0  0  0  0
 12 13  1  0  0  0  0
 12 29  1  0  0  0  0
 12 30  1  0  0  0  0
 13 15  1  0  0  0  0
 13 14  1  0  0  0  0
 13 31  1  0  0  0  0
 14 15  1  0  0  0  0
 14 32  1  0  0  0  0
 14 33  1  0  0  0  0
 15 34  1  0  0  0  0
 15 35  1  0  0  0  0
 16 17  1  0  0  0  0
 17 18  2  0  0  0  0
 17 36  1  0  0  0  0
M  END
> <s_m_source_file>
AV-unprocessed.smi

> <i_m_source_file_index>
2406

> <i_lp_mmshare_version>
43012

> <i_f3d_flags>
0

> <s_epik_input>
W0NIM11PYzFbY0hdYyhuW2NIXW4xKVtOSF1DKD1PKVtOSF1bQ0BIXShbQ0gzXSlbQ0gyXVtDSF0yW0NIMl1bQ0gyXTI=

> <s_epik_cmdline>
J2VwaWtfcHl0aG9uJywgJy1waCcsICc3LjAnLCAnLXRuJywgJzgnLCAnLW1hJywgJzIwMCcsICctbWV0YWxfYmluZGluZycsICctaW1hZScsICc8aW5maWxlLm1hZT4nLCAnLW9tYWUnLCAnPG91dGZpbGUubWFlPic=

> <r_lp_tautomer_probability>
1

> <r_epik_Ionization_Penalty>
2.82876e-05

> <r_epik_Ionization_Penalty_Charging>
0

> <r_epik_Ionization_Penalty_Neutral>
2.82876e-05

> <r_epik_State_Penalty>
-0

> <r_epik_Charging_Adjusted_Penalty>
0

> <i_epik_Tot_Q>
0

> <i_epik_Tot_abs_Q>
0

> <r_epik_Metal_State_Penalty>
-0

> <b_epik_Metal_Only>
0

> <s_lp_Force_Field>
OPLS_2005

> <r_lp_Energy>
10.7025

> <b_lp_Chiralities_Consistent>
1

> <s_lp_Variant>
AV-unprocessed.smi:2406-2

> <Gold.Version>
5.8.1

> <Gold.Id.Protein>
6NUR|6NUR_protein|mol2

> <Gold.PLP.Fitness>
45.1626

> <Gold.PLP.PLP>
-37.3495

> <Gold.PLP.part.hbond>
-2.0000

> <Gold.PLP.part.metal>
0.0000

> <Gold.PLP.part.buried>
-5.3880

> <Gold.PLP.part.nonpolar>
-30.4417

> <Gold.PLP.part.repulsive>
0.5480

> <Gold.PLP.ligand.clash>
0.0000

> <Gold.PLP.ligand.torsion>
0.8831

> <Gold.PLP.Chemscore.Hbond>
2.0000

> <Gold.PLP.Chemscore.CHOScore>
1.0000

> <Gold.PLP.Chemscore.Metal>
0.0000

> <Gold.Chemscore.Hbonds>
donor molecule, donor type, donor heavy atom, donor atom, acceptor molecule, acceptor atom, score
      P1  H  7989  7998       L1    16  0.95
      P1  H 10752 10764       L1     2  0.41
      L1  C    17    36       P1  7957  1.00

> <Gold.PLP.Chemscore.Internal.Correction>
0.5792

> <Gold.Rescore>
     Score         DG    S(hbond)    S(metal)    S(lipo)     H(rot)  DE(clash)    DE(int)     intcor
     10.06     -12.43       0.78        0.00      77.41       1.85       0.09       2.28       ----

> <Gold.Chemscore.Fitness>
10.0597

> <Gold.Chemscore.DG>
-12.4295

> <Gold.Chemscore.ZeroCoef>
-5.4800

> <Gold.Chemscore.Hbond>
0.7838

> <Gold.Chemscore.Metal>
0.0000

> <Gold.Chemscore.Lipo>
77.4090

> <Gold.Chemscore.Internal_Hbond>
0.0000

> <Gold.Chemscore.DEClash>
0.0933

> <Gold.Chemscore.DEInternal>
2.2765

> <Gold.Chemscore.Rot>
1.8458

> <Gold.Chemscore.Internal.Correction>
   9.000000E+99

> <Gold.Chemscore.Hbonds>
donor molecule, donor type, donor heavy atom, donor atom, acceptor molecule, acceptor atom, score
      P1  H  7989  7998       L1    16  0.21
      P1  H 10752 10764       L1     2  0.02

> <Gold.Chemscore.Hbond.Weighted>
-2.6181

> <Gold.Chemscore.Metal.Weighted>
-0.0000

> <Gold.Chemscore.Lipo.Weighted>
-9.0569

> <Gold.Chemscore.Internal_Hbond.Weighted>
0.0000

> <Gold.Chemscore.DEClash.Weighted>
0.0933

> <Gold.Chemscore.DEInternal.Weighted>
2.2765

> <Gold.Chemscore.Rot.Weighted>
4.7254

> <Gold.Chemscore.Internal.Correction.Weighted>
   9.000000E+99

> <Gold.Protein.RotatedTorsions>
[ 6907 6896 6895 6894 ] final  166.65 input  -60.11 | X-H torsion
[ 7974 7965 7964 7962 ] final  -55.84 input  175.53 | X-H torsion
[ 8008 7997 7996 7995 ] final -155.68 input   59.86 | X-H torsion
[ 10167 10162 10161 10158 ] final  -21.58 input  -65.29 | X-H torsion
[ 10718 10713 10712 10709 ] final -175.57 input   66.30 | X-H torsion
[ 10763 10752 10751 10750 ] final  -20.75 input  -60.55 | X-H torsion
[ 11005 11000 10999 10996 ] final  131.38 input  -57.11 | X-H torsion

> <Gold.Protein.ActiveResidues>
 VAL166  LYS551  ARG553  GLY616  TRP617  ASP618  TYR619  PRO620  LYS621  CYS622 
 ASP623  PHE694  ASN695  SER759  ASP760  ASP761  ALA762  ILE779  LEU786  VAL792 
 PHE793  MET794  SER795  GLU796  ALA797  LYS798  CYS799  TRP800  GLU811  SER814 

> <Gold.Protein.RotatedAtoms>
  151.8757  133.3484  159.3749 H   0  0  0  0  0  0  0  0  0  0  0  0  # atno 6907 bound_to 6896
  150.7141  134.5069  159.5598 H   0  0  0  0  0  0  0  0  0  0  0  0  # atno 6908 bound_to 6896
  152.2610  134.8034  160.0481 H   0  0  0  0  0  0  0  0  0  0  0  0  # atno 6909 bound_to 6896
  145.8695  140.8226  142.9895 H   0  0  0  0  0  0  0  0  0  0  0  0  # atno 7974 bound_to 7965
  155.7055  140.0772  157.2393 H   0  0  0  0  0  0  0  0  0  0  0  0  # atno 8008 bound_to 7997
  154.4066  140.1639  156.2292 H   0  0  0  0  0  0  0  0  0  0  0  0  # atno 8009 bound_to 7997
  155.9329  140.3390  155.6267 H   0  0  0  0  0  0  0  0  0  0  0  0  # atno 8010 bound_to 7997
  140.7282  143.4614  151.0374 H   0  0  0  0  0  0  0  0  0  0  0  0  # atno 10167 bound_to 10162
  156.8018  130.9555  151.3118 H   0  0  0  0  0  0  0  0  0  0  0  0  # atno 10718 bound_to 10713
  153.6254  135.6991  153.5295 H   0  0  0  0  0  0  0  0  0  0  0  0  # atno 10763 bound_to 10752
  153.2903  135.4159  155.1160 H   0  0  0  0  0  0  0  0  0  0  0  0  # atno 10764 bound_to 10752
  154.8534  135.3623  154.5796 H   0  0  0  0  0  0  0  0  0  0  0  0  # atno 10765 bound_to 10752
  139.9727  134.9573  156.9430 H   0  0  0  0  0  0  0  0  0  0  0  0  # atno 11005 bound_to 11000
  144.6726  140.1217  143.7449 LP  0  0  0  0  0  0  0  0  0  0  0  0  # atno 17320 bound_to 7965
  145.9153  139.2512  143.1413 LP  0  0  0  0  0  0  0  0  0  0  0  0  # atno 17321 bound_to 7965
  139.8299  143.7705  152.3179 LP  0  0  0  0  0  0  0  0  0  0  0  0  # atno 17342 bound_to 10162
  139.7817  144.7442  151.0079 LP  0  0  0  0  0  0  0  0  0  0  0  0  # atno 17343 bound_to 10162
  157.6550  130.8916  149.9710 LP  0  0  0  0  0  0  0  0  0  0  0  0  # atno 17370 bound_to 10713
  156.1096  130.3650  150.0072 LP  0  0  0  0  0  0  0  0  0  0  0  0  # atno 17371 bound_to 10713
  140.5260  134.0861  155.7303 LP  0  0  0  0  0  0  0  0  0  0  0  0  # atno 17394 bound_to 11000
  141.1406  133.9145  157.2335 LP  0  0  0  0  0  0  0  0  0  0  0  0  # atno 17395 bound_to 11000

$$$$
