AV-unprocessed.smi:912|AV-procd|sdf|4146|dock8
  -GOLD-   22720 2 53D 1   1.00000     0.00000
 Structure written by MMmdl.
 26 26  0  0  0  0  0  0  0  0  3 V2000
  147.7463  138.9023  153.5183 C   0  0  0  0  0  0  0  0  0  0  0  0
  149.1964  138.6086  153.4462 N   0  3  0  0  0  0  0  0  0  0  0  0
  149.9460  138.4513  154.7285 C   0  0  1  0  0  0  0  0  0  0  0  0
  149.4448  137.1848  155.4718 C   0  0  0  0  0  0  0  0  0  0  0  0
  151.4654  138.3578  154.4038 C   0  0  0  0  0  0  0  0  0  0  0  0
  151.8189  137.1949  153.8112 N   0  5  0  0  0  0  0  0  0  0  0  0
  152.2160  139.2890  154.6919 O   0  0  0  0  0  0  0  0  0  0  0  0
  149.7109  139.6766  155.6399 C   0  0  0  0  0  0  0  0  0  0  0  0
  150.0804  140.9934  155.2624 C   0  0  0  0  0  0  0  0  0  0  0  0
  149.8242  142.0578  156.1500 C   0  0  0  0  0  0  0  0  0  0  0  0
  149.2336  141.8995  157.3519 N   0  0  0  0  0  0  0  0  0  0  0  0
  148.8780  140.6505  157.7148 C   0  0  0  0  0  0  0  0  0  0  0  0
  149.0901  139.5191  156.9032 C   0  0  0  0  0  0  0  0  0  0  0  0
  147.3235  138.8679  152.5144 H   0  0  0  0  0  0  0  0  0  0  0  0
  147.5584  139.8989  153.9172 H   0  0  0  0  0  0  0  0  0  0  0  0
  147.2125  138.1728  154.1272 H   0  0  0  0  0  0  0  0  0  0  0  0
  149.3107  137.7406  152.9418 H   0  0  0  0  0  0  0  0  0  0  0  0
  149.9272  137.0606  156.4416 H   0  0  0  0  0  0  0  0  0  0  0  0
  149.6411  136.2691  154.9135 H   0  0  0  0  0  0  0  0  0  0  0  0
  148.3705  137.2362  155.6522 H   0  0  0  0  0  0  0  0  0  0  0  0
  151.6182  137.0612  152.8132 H   0  0  0  0  0  0  0  0  0  0  0  0
  150.5570  141.2140  154.3197 H   0  0  0  0  0  0  0  0  0  0  0  0
  150.1012  143.0672  155.8840 H   0  0  0  0  0  0  0  0  0  0  0  0
  148.4084  140.5485  158.6819 H   0  0  0  0  0  0  0  0  0  0  0  0
  148.7845  138.5446  157.2556 H   0  0  0  0  0  0  0  0  0  0  0  0
  149.6381  139.3457  152.9172 H   0  0  0  0  0  0  0  0  0  0  0  0
  1  2  1  0  0  0  0
  1 14  1  0  0  0  0
  1 15  1  0  0  0  0
  1 16  1  0  0  0  0
  2  3  1  0  0  0  0
  2 17  1  0  0  0  0
  2 26  1  0  0  0  0
  3  4  1  0  0  0  0
  3  5  1  0  0  0  0
  3  8  1  0  0  0  0
  4 18  1  0  0  0  0
  4 19  1  0  0  0  0
  4 20  1  0  0  0  0
  5  6  1  0  0  0  0
  5  7  2  0  0  0  0
  6 21  1  0  0  0  0
  8 13  1  0  0  0  0
  8  9  2  0  0  0  0
  9 10  1  0  0  0  0
  9 22  1  0  0  0  0
 10 11  2  0  0  0  0
 10 23  1  0  0  0  0
 11 12  1  0  0  0  0
 12 13  2  0  0  0  0
 12 24  1  0  0  0  0
 13 25  1  0  0  0  0
M  CHG  1   2   1
M  CHG  1   6  -1
M  END
> <s_m_source_file>
AV-unprocessed.smi

> <i_m_source_file_index>
912

> <i_lp_mmshare_version>
43012

> <i_f3d_flags>
0

> <s_epik_input>
W0NIM11bTkhdW0NAQF0oW0NIM10pKEMoPU8pW05IMl0pYzFbY0hdW2NIXW5bY0hdW2NIXTE=

> <s_epik_cmdline>
J2VwaWtfcHl0aG9uJywgJy1waCcsICc3LjAnLCAnLXRuJywgJzgnLCAnLW1hJywgJzIwMCcsICctbWV0YWxfYmluZGluZycsICctaW1hZScsICc8aW5maWxlLm1hZT4nLCAnLW9tYWUnLCAnPG91dGZpbGUubWFlPic=

> <r_epik_Ionization_Penalty>
6.88213

> <r_epik_Ionization_Penalty_Charging>
6.88153

> <r_epik_Ionization_Penalty_Neutral>
0.000601258

> <r_epik_State_Penalty>
7.02604

> <r_epik_Charging_Adjusted_Penalty>
13.9076

> <i_epik_Tot_Q>
0

> <i_epik_Tot_abs_Q>
2

> <r_epik_Metal_State_Penalty>
3.10652

> <b_epik_Metal_Only>
1

> <s_lp_Force_Field>
OPLS_2005

> <r_lp_Energy>
7.69215

> <b_lp_Chiralities_Consistent>
1

> <s_lp_Variant>
AV-unprocessed.smi:912-7

> <Gold.Version>
5.8.1

> <Gold.Id.Protein>
6NUR|6NUR_protein|mol2

> <Gold.PLP.Fitness>
41.1309

> <Gold.PLP.PLP>
-19.0709

> <Gold.PLP.part.hbond>
-5.0000

> <Gold.PLP.part.metal>
0.0000

> <Gold.PLP.part.buried>
-0.7921

> <Gold.PLP.part.nonpolar>
-12.7906

> <Gold.PLP.part.repulsive>
0.2581

> <Gold.PLP.ligand.clash>
0.0000

> <Gold.PLP.ligand.torsion>
0.3729

> <Gold.PLP.Chemscore.Hbond>
6.6000

> <Gold.PLP.Chemscore.CHOScore>
0.9998

> <Gold.PLP.Chemscore.Metal>
0.0000

> <Gold.Chemscore.Hbonds>
donor molecule, donor type, donor heavy atom, donor atom, acceptor molecule, acceptor atom, score
      L1  H     2    17       P1  7948  2.00
      L1  H     2    26       P1  7957  0.77
      L1  H     6    21       P1  7949  0.99
      P1  H  7989  7998       L1     7  0.78
      P1  H 10752 10765       L1     6  2.00
      L1  C    10    23       P1  8028  0.98

> <Gold.PLP.Chemscore.Internal.Correction>
0.0064

> <Gold.Rescore>
     Score         DG    S(hbond)    S(metal)    S(lipo)     H(rot)  DE(clash)    DE(int)     intcor
     16.04     -18.97       4.07        0.00      38.66       1.80       1.42       1.51       ----

> <Gold.Chemscore.Fitness>
16.0422

> <Gold.Chemscore.DG>
-18.9731

> <Gold.Chemscore.ZeroCoef>
-5.4800

> <Gold.Chemscore.Hbond>
4.0679

> <Gold.Chemscore.Metal>
0.0000

> <Gold.Chemscore.Lipo>
38.6633

> <Gold.Chemscore.Internal_Hbond>
0.0000

> <Gold.Chemscore.DEClash>
1.4223

> <Gold.Chemscore.DEInternal>
1.5086

> <Gold.Chemscore.Rot>
1.8037

> <Gold.Chemscore.Internal.Correction>
   9.000000E+99

> <Gold.Chemscore.Hbonds>
donor molecule, donor type, donor heavy atom, donor atom, acceptor molecule, acceptor atom, score
      L1  H     2    17       P1  7948  0.96
      L1  H     2    26       P1  7957  0.76
      L1  H     6    21       P1  7949  0.92
      P1  H  7989  7998       L1     7  0.40
      P1  H 10752 10765       L1     6  0.30

> <Gold.Chemscore.Hbond.Weighted>
-13.5869

> <Gold.Chemscore.Metal.Weighted>
-0.0000

> <Gold.Chemscore.Lipo.Weighted>
-4.5236

> <Gold.Chemscore.Internal_Hbond.Weighted>
0.0000

> <Gold.Chemscore.DEClash.Weighted>
1.4223

> <Gold.Chemscore.DEInternal.Weighted>
1.5086

> <Gold.Chemscore.Rot.Weighted>
4.6174

> <Gold.Chemscore.Internal.Correction.Weighted>
   9.000000E+99

> <Gold.Protein.RotatedTorsions>
[ 6907 6896 6895 6894 ] final  -88.74 input  -60.11 | X-H torsion
[ 7974 7965 7964 7962 ] final -141.38 input  175.53 | X-H torsion
[ 8008 7997 7996 7995 ] final   -3.54 input   59.86 | X-H torsion
[ 10167 10162 10161 10158 ] final   63.76 input  -65.29 | X-H torsion
[ 10718 10713 10712 10709 ] final   74.14 input   66.30 | X-H torsion
[ 10763 10752 10751 10750 ] final  154.28 input  -60.55 | X-H torsion
[ 11005 11000 10999 10996 ] final   57.24 input  -57.11 | X-H torsion

> <Gold.Protein.ActiveResidues>
 VAL166  LYS551  ARG553  GLY616  TRP617  ASP618  TYR619  PRO620  LYS621  CYS622 
 ASP623  PHE694  ASN695  SER759  ASP760  ASP761  ALA762  ILE779  LEU786  VAL792 
 PHE793  MET794  SER795  GLU796  ALA797  LYS798  CYS799  TRP800  GLU811  SER814 

> <Gold.Protein.RotatedAtoms>
  150.6870  134.2694  159.4581 H   0  0  0  0  0  0  0  0  0  0  0  0  # atno 6907 bound_to 6896
  152.0618  134.9587  160.0584 H   0  0  0  0  0  0  0  0  0  0  0  0  # atno 6908 bound_to 6896
  152.1011  133.4215  159.4624 H   0  0  0  0  0  0  0  0  0  0  0  0  # atno 6909 bound_to 6896
  144.8524  140.6087  143.5381 H   0  0  0  0  0  0  0  0  0  0  0  0  # atno 7974 bound_to 7965
  154.6238  140.2507  155.7516 H   0  0  0  0  0  0  0  0  0  0  0  0  # atno 8008 bound_to 7997
  156.2442  140.2921  156.0478 H   0  0  0  0  0  0  0  0  0  0  0  0  # atno 8009 bound_to 7997
  155.1854  140.0390  157.2880 H   0  0  0  0  0  0  0  0  0  0  0  0  # atno 8010 bound_to 7997
  140.1296  144.4656  150.6872 H   0  0  0  0  0  0  0  0  0  0  0  0  # atno 10167 bound_to 10162
  157.6579  130.9663  150.1169 H   0  0  0  0  0  0  0  0  0  0  0  0  # atno 10718 bound_to 10713
  154.1497  135.2816  155.3138 H   0  0  0  0  0  0  0  0  0  0  0  0  # atno 10763 bound_to 10752
  154.6226  135.5462  153.7595 H   0  0  0  0  0  0  0  0  0  0  0  0  # atno 10764 bound_to 10752
  153.0225  135.6443  154.1642 H   0  0  0  0  0  0  0  0  0  0  0  0  # atno 10765 bound_to 10752
  140.0467  134.5795  155.9313 H   0  0  0  0  0  0  0  0  0  0  0  0  # atno 11005 bound_to 11000
  145.4474  139.1528  143.3937 LP  0  0  0  0  0  0  0  0  0  0  0  0  # atno 17320 bound_to 7965
  146.2795  140.4598  142.8782 LP  0  0  0  0  0  0  0  0  0  0  0  0  # atno 17321 bound_to 7965
  140.6825  143.2333  151.5347 LP  0  0  0  0  0  0  0  0  0  0  0  0  # atno 17342 bound_to 10162
  139.5526  144.2355  152.1558 LP  0  0  0  0  0  0  0  0  0  0  0  0  # atno 17343 bound_to 10162
  156.2051  130.3663  149.8740 LP  0  0  0  0  0  0  0  0  0  0  0  0  # atno 17370 bound_to 10713
  156.6634  130.8791  151.3551 LP  0  0  0  0  0  0  0  0  0  0  0  0  # atno 17371 bound_to 10713
  141.1910  133.6570  156.5439 LP  0  0  0  0  0  0  0  0  0  0  0  0  # atno 17394 bound_to 11000
  140.3982  134.7380  157.4763 LP  0  0  0  0  0  0  0  0  0  0  0  0  # atno 17395 bound_to 11000

$$$$
