AV-unprocessed.smi:3303|AV-procd|sdf|12661|dock5
  -GOLD-   2272018593D 1   1.00000     0.00000
 Structure written by MMmdl.
 45 46  0  0  0  0  0  0  0  0  3 V2000
  152.0224  138.9519  154.6810 C   0  0  0  0  0  0  0  0  0  0  0  0
  150.6096  139.2687  155.2036 C   0  0  2  0  0  0  0  0  0  0  0  0
  149.5507  138.7422  154.2111 C   0  0  0  0  0  0  0  0  0  0  0  0
  148.1708  139.0319  154.6752 N   0  3  2  0  0  0  0  0  0  0  0  0
  147.1357  138.3624  153.8545 C   0  0  0  0  0  0  0  0  0  0  0  0
  147.9204  140.4821  154.9101 C   0  0  2  0  0  0  0  0  0  0  0  0
  147.8522  141.3194  153.6143 C   0  0  0  0  0  0  0  0  0  0  0  0
  148.9522  141.0378  155.9119 C   0  0  0  0  0  0  0  0  0  0  0  0
  150.4098  140.7791  155.4719 C   0  0  1  0  0  0  0  0  0  0  0  0
  151.3613  141.2541  156.5044 N   0  3  0  0  0  0  0  0  0  0  0  0
  151.1205  140.7394  157.8685 C   0  0  0  0  0  0  0  0  0  0  0  0
  152.3623  140.9207  158.7517 C   0  0  0  0  0  0  0  0  0  0  0  0
  152.3600  142.2564  159.4699 C   0  0  0  0  0  0  0  0  0  0  0  0
  152.3403  143.4666  158.7444 C   0  0  0  0  0  0  0  0  0  0  0  0
  152.3279  144.6781  159.4627 C   0  0  0  0  0  0  0  0  0  0  0  0
  152.3346  144.6322  160.8702 C   0  0  0  0  0  0  0  0  0  0  0  0
  152.3533  143.3718  161.5002 C   0  0  0  0  0  0  0  0  0  0  0  0
  152.3638  142.2042  160.8209 N   0  0  0  0  0  0  0  0  0  0  0  0
  152.2281  139.4776  153.7480 H   0  0  0  0  0  0  0  0  0  0  0  0
  152.1391  137.8844  154.4911 H   0  0  0  0  0  0  0  0  0  0  0  0
  152.7924  139.2348  155.3990 H   0  0  0  0  0  0  0  0  0  0  0  0
  150.4766  138.7332  156.1453 H   0  0  0  0  0  0  0  0  0  0  0  0
  149.7076  139.1674  153.2190 H   0  0  0  0  0  0  0  0  0  0  0  0
  149.6653  137.6625  154.1037 H   0  0  0  0  0  0  0  0  0  0  0  0
  147.1815  138.6794  152.8123 H   0  0  0  0  0  0  0  0  0  0  0  0
  146.1375  138.5766  154.2379 H   0  0  0  0  0  0  0  0  0  0  0  0
  147.2734  137.2809  153.8799 H   0  0  0  0  0  0  0  0  0  0  0  0
  146.9425  140.5598  155.3876 H   0  0  0  0  0  0  0  0  0  0  0  0
  147.6775  142.3704  153.8456 H   0  0  0  0  0  0  0  0  0  0  0  0
  147.0327  141.0012  152.9700 H   0  0  0  0  0  0  0  0  0  0  0  0
  148.7716  141.2662  153.0326 H   0  0  0  0  0  0  0  0  0  0  0  0
  148.7742  142.1036  156.0558 H   0  0  0  0  0  0  0  0  0  0  0  0
  148.7844  140.5728  156.8848 H   0  0  0  0  0  0  0  0  0  0  0  0
  150.6132  141.3214  154.5474 H   0  0  0  0  0  0  0  0  0  0  0  0
  152.3023  141.0193  156.2217 H   0  0  0  0  0  0  0  0  0  0  0  0
  150.2749  141.2686  158.3099 H   0  0  0  0  0  0  0  0  0  0  0  0
  150.8529  139.6838  157.8229 H   0  0  0  0  0  0  0  0  0  0  0  0
  152.4155  140.1218  159.4934 H   0  0  0  0  0  0  0  0  0  0  0  0
  153.2670  140.8393  158.1471 H   0  0  0  0  0  0  0  0  0  0  0  0
  152.3340  143.4711  157.6641 H   0  0  0  0  0  0  0  0  0  0  0  0
  152.3131  145.6250  158.9436 H   0  0  0  0  0  0  0  0  0  0  0  0
  152.3256  145.5410  161.4537 H   0  0  0  0  0  0  0  0  0  0  0  0
  152.3583  143.2994  162.5779 H   0  0  0  0  0  0  0  0  0  0  0  0
  151.2844  142.2604  156.5502 H   0  0  0  0  0  0  0  0  0  0  0  0
  148.0988  138.6009  155.5859 H   0  0  0  0  0  0  0  0  0  0  0  0
  1  2  1  0  0  0  0
  1 19  1  0  0  0  0
  1 20  1  0  0  0  0
  1 21  1  0  0  0  0
  2  9  1  0  0  0  0
  2  3  1  0  0  0  0
  2 22  1  0  0  0  0
  3  4  1  0  0  0  0
  3 23  1  0  0  0  0
  3 24  1  0  0  0  0
  4  5  1  0  0  0  0
  4  6  1  0  0  0  0
  4 45  1  0  0  0  0
  5 25  1  0  0  0  0
  5 26  1  0  0  0  0
  5 27  1  0  0  0  0
  6  7  1  0  0  0  0
  6  8  1  0  0  0  0
  6 28  1  0  0  0  0
  7 29  1  0  0  0  0
  7 30  1  0  0  0  0
  7 31  1  0  0  0  0
  8  9  1  0  0  0  0
  8 32  1  0  0  0  0
  8 33  1  0  0  0  0
  9 10  1  0  0  0  0
  9 34  1  0  0  0  0
 10 11  1  0  0  0  0
 10 35  1  0  0  0  0
 10 44  1  0  0  0  0
 11 12  1  0  0  0  0
 11 36  1  0  0  0  0
 11 37  1  0  0  0  0
 12 13  1  0  0  0  0
 12 38  1  0  0  0  0
 12 39  1  0  0  0  0
 13 18  1  0  0  0  0
 13 14  2  0  0  0  0
 14 15  1  0  0  0  0
 14 40  1  0  0  0  0
 15 16  2  0  0  0  0
 15 41  1  0  0  0  0
 16 17  1  0  0  0  0
 16 42  1  0  0  0  0
 17 18  2  0  0  0  0
 17 43  1  0  0  0  0
M  CHG  1   4   1
M  CHG  1  10   1
M  END
> <s_m_source_file>
AV-unprocessed.smi

> <i_m_source_file_index>
3303

> <i_lp_mmshare_version>
43012

> <i_f3d_flags>
0

> <s_epik_input>
W0NIM11bQ0BASF0xW0NIMl1OKFtDSDNdKVtDQEBIXShbQ0gzXSlbQ0gyXVtDQEhdMVtOSF1bQ0gyXVtDSDJdYzJbY0hdW2NIXVtjSF1bY0hdbjI=

> <s_epik_cmdline>
J2VwaWtfcHl0aG9uJywgJy1waCcsICc3LjAnLCAnLXRuJywgJzgnLCAnLW1hJywgJzIwMCcsICctbWV0YWxfYmluZGluZycsICctaW1hZScsICc8aW5maWxlLm1hZT4nLCAnLW9tYWUnLCAnPG91dGZpbGUubWFlPic=

> <r_epik_Ionization_Penalty>
0.0769462

> <r_epik_Ionization_Penalty_Charging>
0.0759813

> <r_epik_Ionization_Penalty_Neutral>
0.000964829

> <r_epik_State_Penalty>
0.0654373

> <r_epik_Charging_Adjusted_Penalty>
0.141419

> <i_epik_Tot_Q>
2

> <i_epik_Tot_abs_Q>
2

> <r_epik_Metal_State_Penalty>
0.0656439

> <b_epik_Metal_Only>
0

> <s_lp_Force_Field>
OPLS_2005

> <r_lp_Energy>
28.3665

> <b_lp_Chiralities_Consistent>
1

> <s_lp_Variant>
AV-unprocessed.smi:3303-5

> <Gold.Version>
5.8.1

> <Gold.Id.Protein>
6NUR|6NUR_protein|mol2

> <Gold.PLP.Fitness>
39.3064

> <Gold.PLP.PLP>
-39.8745

> <Gold.PLP.part.hbond>
-0.0769

> <Gold.PLP.part.metal>
0.0000

> <Gold.PLP.part.buried>
-3.8396

> <Gold.PLP.part.nonpolar>
-34.6887

> <Gold.PLP.part.repulsive>
0.1531

> <Gold.PLP.ligand.clash>
0.0000

> <Gold.PLP.ligand.torsion>
0.2900

> <Gold.PLP.Chemscore.Hbond>
0.0000

> <Gold.PLP.Chemscore.CHOScore>
0.0000

> <Gold.PLP.Chemscore.Metal>
0.0000

> <Gold.PLP.Chemscore.Internal.Correction>
0.0119

> <Gold.Rescore>
     Score         DG    S(hbond)    S(metal)    S(lipo)     H(rot)  DE(clash)    DE(int)     intcor
     16.04     -16.62       0.00        0.00     125.24       1.37       0.29       0.28       ----

> <Gold.Chemscore.Fitness>
16.0408

> <Gold.Chemscore.DG>
-16.6152

> <Gold.Chemscore.ZeroCoef>
-5.4800

> <Gold.Chemscore.Hbond>
0.0000

> <Gold.Chemscore.Metal>
0.0000

> <Gold.Chemscore.Lipo>
125.2448

> <Gold.Chemscore.Internal_Hbond>
0.0000

> <Gold.Chemscore.DEClash>
0.2947

> <Gold.Chemscore.DEInternal>
0.2797

> <Gold.Chemscore.Rot>
1.3744

> <Gold.Chemscore.Internal.Correction>
   9.000000E+99

> <Gold.Chemscore.Hbond.Weighted>
-0.0000

> <Gold.Chemscore.Metal.Weighted>
-0.0000

> <Gold.Chemscore.Lipo.Weighted>
-14.6536

> <Gold.Chemscore.Internal_Hbond.Weighted>
0.0000

> <Gold.Chemscore.DEClash.Weighted>
0.2947

> <Gold.Chemscore.DEInternal.Weighted>
0.2797

> <Gold.Chemscore.Rot.Weighted>
3.5185

> <Gold.Chemscore.Internal.Correction.Weighted>
   9.000000E+99

> <Gold.Protein.RotatedTorsions>
[ 6907 6896 6895 6894 ] final  130.32 input  -60.11 | X-H torsion
[ 7974 7965 7964 7962 ] final   45.17 input  175.53 | X-H torsion
[ 8008 7997 7996 7995 ] final  -60.65 input   59.86 | X-H torsion
[ 10167 10162 10161 10158 ] final   43.78 input  -65.29 | X-H torsion
[ 10718 10713 10712 10709 ] final  -48.06 input   66.30 | X-H torsion
[ 10763 10752 10751 10750 ] final  164.29 input  -60.55 | X-H torsion
[ 11005 11000 10999 10996 ] final -178.60 input  -57.11 | X-H torsion

> <Gold.Protein.ActiveResidues>
 VAL166  LYS551  ARG553  GLY616  TRP617  ASP618  TYR619  PRO620  LYS621  CYS622 
 ASP623  PHE694  ASN695  SER759  ASP760  ASP761  ALA762  ILE779  LEU786  VAL792 
 PHE793  MET794  SER795  GLU796  ALA797  LYS798  CYS799  TRP800  GLU811  SER814 

> <Gold.Protein.RotatedAtoms>
  152.3537  133.6211  159.5963 H   0  0  0  0  0  0  0  0  0  0  0  0  # atno 6907 bound_to 6896
  150.7555  133.9533  159.3501 H   0  0  0  0  0  0  0  0  0  0  0  0  # atno 6908 bound_to 6896
  151.7381  135.0861  160.0362 H   0  0  0  0  0  0  0  0  0  0  0  0  # atno 6909 bound_to 6896
  146.0503  139.4993  142.9722 H   0  0  0  0  0  0  0  0  0  0  0  0  # atno 7974 bound_to 7965
  154.4409  140.1035  156.6307 H   0  0  0  0  0  0  0  0  0  0  0  0  # atno 8008 bound_to 7997
  155.5608  140.3487  155.4472 H   0  0  0  0  0  0  0  0  0  0  0  0  # atno 8009 bound_to 7997
  156.0461  140.1293  157.0091 H   0  0  0  0  0  0  0  0  0  0  0  0  # atno 8010 bound_to 7997
  140.3410  144.2471  150.6156 H   0  0  0  0  0  0  0  0  0  0  0  0  # atno 10167 bound_to 10162
  156.2024  130.4157  149.9223 H   0  0  0  0  0  0  0  0  0  0  0  0  # atno 10718 bound_to 10713
  154.3067  135.2758  155.2585 H   0  0  0  0  0  0  0  0  0  0  0  0  # atno 10763 bound_to 10752
  154.4999  135.5811  153.6526 H   0  0  0  0  0  0  0  0  0  0  0  0  # atno 10764 bound_to 10752
  152.9893  135.6155  154.3241 H   0  0  0  0  0  0  0  0  0  0  0  0  # atno 10765 bound_to 10752
  140.4280  134.6545  157.4697 H   0  0  0  0  0  0  0  0  0  0  0  0  # atno 11005 bound_to 11000
  145.6735  141.0210  143.1645 LP  0  0  0  0  0  0  0  0  0  0  0  0  # atno 17320 bound_to 7965
  144.7119  139.8338  143.7411 LP  0  0  0  0  0  0  0  0  0  0  0  0  # atno 17321 bound_to 7965
  140.5309  143.2243  151.8240 LP  0  0  0  0  0  0  0  0  0  0  0  0  # atno 17342 bound_to 10162
  139.4840  144.4721  151.9412 LP  0  0  0  0  0  0  0  0  0  0  0  0  # atno 17343 bound_to 10162
  156.6928  130.8902  151.3590 LP  0  0  0  0  0  0  0  0  0  0  0  0  # atno 17370 bound_to 10713
  157.6993  130.9316  150.0738 LP  0  0  0  0  0  0  0  0  0  0  0  0  # atno 17371 bound_to 10713
  140.0154  134.6627  155.9318 LP  0  0  0  0  0  0  0  0  0  0  0  0  # atno 17394 bound_to 11000
  141.1757  133.6540  156.4821 LP  0  0  0  0  0  0  0  0  0  0  0  0  # atno 17395 bound_to 11000

$$$$
