AV-unprocessed.smi:1059|AV-procd|sdf|4655|dock8
  -GOLD-   22720 3163D 1   1.00000     0.00000
 Structure written by MMmdl.
 54 55  0  0  0  0  0  0  0  0  1 V2000
  153.2047  142.6617  158.8797 C   0  0  0  0  0  0  0  0  0  0  0  0
  151.9564  142.7706  157.9901 C   0  0  0  0  0  0  0  0  0  0  0  0
  151.3541  144.1844  158.0967 C   0  0  0  0  0  0  0  0  0  0  0  0
  150.9383  141.6584  158.3439 C   0  0  0  0  0  0  0  0  0  0  0  0
  149.6303  141.6645  157.5274 C   0  0  0  0  0  0  0  0  0  0  0  0
  148.5726  141.9505  158.0908 O   0  0  0  0  0  0  0  0  0  0  0  0
  149.6798  141.3611  156.2066 N   0  0  0  0  0  0  0  0  0  0  0  0
  150.9292  141.0061  155.5219 C   0  0  0  0  0  0  0  0  0  0  0  0
  150.9092  139.5030  155.1917 C   0  0  0  0  0  0  0  0  0  0  0  0
  149.6678  139.1266  154.3553 C   0  0  0  0  0  0  0  0  0  0  0  0
  149.5934  137.6747  154.2205 N   0  0  0  0  0  0  0  0  0  0  0  0
  149.7233  136.7938  155.2230 C   0  0  0  0  0  0  0  0  0  0  0  0
  149.9389  137.1189  156.3904 O   0  0  0  0  0  0  0  0  0  0  0  0
  149.5645  135.5334  154.7844 N   0  0  0  0  0  0  0  0  0  0  0  0
  149.6479  134.3261  155.5285 C   0  0  0  0  0  0  0  0  0  0  0  0
  149.2655  133.1269  154.8944 C   0  0  0  0  0  0  0  0  0  0  0  0
  149.3576  131.9148  155.6043 C   0  0  0  0  0  0  0  0  0  0  0  0
  149.8442  131.9401  156.9273 C   0  0  0  0  0  0  0  0  0  0  0  0
  149.9397  130.7389  157.6436 N   0  0  0  0  0  0  0  0  0  0  0  0
  151.3133  130.3411  157.9130 C   0  0  0  0  0  0  0  0  0  0  0  0
  149.0245  130.6808  158.7734 C   0  0  0  0  0  0  0  0  0  0  0  0
  150.2290  133.0842  157.5409 N   0  0  0  0  0  0  0  0  0  0  0  0
  150.1342  134.2442  156.8560 C   0  0  0  0  0  0  0  0  0  0  0  0
  148.3735  139.6889  154.9878 C   0  0  0  0  0  0  0  0  0  0  0  0
  148.5186  141.1839  155.3242 C   0  0  0  0  0  0  0  0  0  0  0  0
  152.9543  142.7959  159.9327 H   0  0  0  0  0  0  0  0  0  0  0  0
  153.9441  143.4181  158.6143 H   0  0  0  0  0  0  0  0  0  0  0  0
  153.6824  141.6873  158.7728 H   0  0  0  0  0  0  0  0  0  0  0  0
  152.2894  142.6242  156.9615 H   0  0  0  0  0  0  0  0  0  0  0  0
  151.0047  144.3891  159.1089 H   0  0  0  0  0  0  0  0  0  0  0  0
  150.5104  144.3229  157.4213 H   0  0  0  0  0  0  0  0  0  0  0  0
  152.0945  144.9440  157.8443 H   0  0  0  0  0  0  0  0  0  0  0  0
  151.4060  140.6848  158.1918 H   0  0  0  0  0  0  0  0  0  0  0  0
  150.7002  141.7348  159.4055 H   0  0  0  0  0  0  0  0  0  0  0  0
  151.0179  141.5911  154.6052 H   0  0  0  0  0  0  0  0  0  0  0  0
  151.8170  141.2445  156.1092 H   0  0  0  0  0  0  0  0  0  0  0  0
  151.8189  139.2279  154.6568 H   0  0  0  0  0  0  0  0  0  0  0  0
  150.9146  138.9351  156.1236 H   0  0  0  0  0  0  0  0  0  0  0  0
  149.7888  139.5695  153.3647 H   0  0  0  0  0  0  0  0  0  0  0  0
  149.4170  137.3153  153.2937 H   0  0  0  0  0  0  0  0  0  0  0  0
  149.2974  135.4288  153.8166 H   0  0  0  0  0  0  0  0  0  0  0  0
  148.9001  133.1325  153.8779 H   0  0  0  0  0  0  0  0  0  0  0  0
  149.0618  130.9850  155.1405 H   0  0  0  0  0  0  0  0  0  0  0  0
  151.9168  130.3917  157.0059 H   0  0  0  0  0  0  0  0  0  0  0  0
  151.3431  129.3148  158.2798 H   0  0  0  0  0  0  0  0  0  0  0  0
  151.7668  130.9863  158.6665 H   0  0  0  0  0  0  0  0  0  0  0  0
  148.0188  130.9794  158.4754 H   0  0  0  0  0  0  0  0  0  0  0  0
  149.3559  131.3386  159.5776 H   0  0  0  0  0  0  0  0  0  0  0  0
  148.9718  129.6644  159.1637 H   0  0  0  0  0  0  0  0  0  0  0  0
  150.4813  135.1146  157.3908 H   0  0  0  0  0  0  0  0  0  0  0  0
  147.5291  139.5437  154.3129 H   0  0  0  0  0  0  0  0  0  0  0  0
  148.1376  139.1390  155.9003 H   0  0  0  0  0  0  0  0  0  0  0  0
  147.5844  141.5546  155.7413 H   0  0  0  0  0  0  0  0  0  0  0  0
  148.6740  141.7575  154.4093 H   0  0  0  0  0  0  0  0  0  0  0  0
  1  2  1  0  0  0  0
  1 26  1  0  0  0  0
  1 27  1  0  0  0  0
  1 28  1  0  0  0  0
  2  3  1  0  0  0  0
  2  4  1  0  0  0  0
  2 29  1  0  0  0  0
  3 30  1  0  0  0  0
  3 31  1  0  0  0  0
  3 32  1  0  0  0  0
  4  5  1  0  0  0  0
  4 33  1  0  0  0  0
  4 34  1  0  0  0  0
  5  6  2  0  0  0  0
  5  7  1  0  0  0  0
  7 25  1  0  0  0  0
  7  8  1  0  0  0  0
  8  9  1  0  0  0  0
  8 35  1  0  0  0  0
  8 36  1  0  0  0  0
  9 10  1  0  0  0  0
  9 37  1  0  0  0  0
  9 38  1  0  0  0  0
 10 11  1  0  0  0  0
 10 24  1  0  0  0  0
 10 39  1  0  0  0  0
 11 12  1  0  0  0  0
 11 40  1  0  0  0  0
 12 13  2  0  0  0  0
 12 14  1  0  0  0  0
 14 15  1  0  0  0  0
 14 41  1  0  0  0  0
 15 23  1  0  0  0  0
 15 16  2  0  0  0  0
 16 17  1  0  0  0  0
 16 42  1  0  0  0  0
 17 18  2  0  0  0  0
 17 43  1  0  0  0  0
 18 19  1  0  0  0  0
 18 22  1  0  0  0  0
 19 20  1  0  0  0  0
 19 21  1  0  0  0  0
 20 44  1  0  0  0  0
 20 45  1  0  0  0  0
 20 46  1  0  0  0  0
 21 47  1  0  0  0  0
 21 48  1  0  0  0  0
 21 49  1  0  0  0  0
 22 23  2  0  0  0  0
 23 50  1  0  0  0  0
 24 25  1  0  0  0  0
 24 51  1  0  0  0  0
 24 52  1  0  0  0  0
 25 53  1  0  0  0  0
 25 54  1  0  0  0  0
M  END
> <s_m_source_file>
AV-unprocessed.smi

> <i_m_source_file_index>
1059

> <i_lp_mmshare_version>
43012

> <i_f3d_flags>
0

> <s_epik_input>
W0NIM11bQ0hdKFtDSDNdKVtDSDJdQyg9TylOMVtDSDJdW0NIMl1bQ0hdKFtDSDJdW0NIMl0xKVtOSF1DKD1PKVtOSF1jMltjSF1bY0hdYyhOKFtDSDNdKVtDSDNdKW5bY0hdMg==

> <s_epik_cmdline>
J2VwaWtfcHl0aG9uJywgJy1waCcsICc3LjAnLCAnLXRuJywgJzgnLCAnLW1hJywgJzIwMCcsICctbWV0YWxfYmluZGluZycsICctaW1hZScsICc8aW5maWxlLm1hZT4nLCAnLW9tYWUnLCAnPG91dGZpbGUubWFlPic=

> <r_lp_tautomer_probability>
1

> <r_epik_Ionization_Penalty>
0.622059

> <r_epik_Ionization_Penalty_Charging>
0

> <r_epik_Ionization_Penalty_Neutral>
0.622059

> <r_epik_State_Penalty>
0.637048

> <r_epik_Charging_Adjusted_Penalty>
0.637048

> <i_epik_Tot_Q>
0

> <i_epik_Tot_abs_Q>
0

> <r_epik_Metal_State_Penalty>
0.306613

> <b_epik_Metal_Only>
0

> <s_lp_Force_Field>
OPLS_2005

> <r_lp_Energy>
31.4899

> <b_lp_Chiralities_Consistent>
1

> <s_lp_Variant>
AV-unprocessed.smi:1059-2

> <Gold.Version>
5.8.1

> <Gold.Id.Protein>
6NUR|6NUR_protein|mol2

> <Gold.PLP.Fitness>
46.6795

> <Gold.PLP.PLP>
-39.9479

> <Gold.PLP.part.hbond>
-3.0407

> <Gold.PLP.part.metal>
0.0000

> <Gold.PLP.part.buried>
-4.8559

> <Gold.PLP.part.nonpolar>
-32.0139

> <Gold.PLP.part.repulsive>
0.1842

> <Gold.PLP.ligand.clash>
0.0000

> <Gold.PLP.ligand.torsion>
0.3666

> <Gold.PLP.Chemscore.Hbond>
2.4099

> <Gold.PLP.Chemscore.CHOScore>
0.0000

> <Gold.PLP.Chemscore.Metal>
0.0000

> <Gold.Chemscore.Hbonds>
donor molecule, donor type, donor heavy atom, donor atom, acceptor molecule, acceptor atom, score
      L1  H    11    40       P1  7948  1.00
      L1  H    14    41       P1  7948  0.81
      P1  H  6896  6908       L1    22  1.00

> <Gold.PLP.Chemscore.Internal.Correction>
0.2352

> <Gold.Rescore>
     Score         DG    S(hbond)    S(metal)    S(lipo)     H(rot)  DE(clash)    DE(int)     intcor
     16.62     -19.38       2.04        0.00      93.93       1.52       0.00       2.76       ----

> <Gold.Chemscore.Fitness>
16.6160

> <Gold.Chemscore.DG>
-19.3811

> <Gold.Chemscore.ZeroCoef>
-5.4800

> <Gold.Chemscore.Hbond>
2.0393

> <Gold.Chemscore.Metal>
0.0000

> <Gold.Chemscore.Lipo>
93.9325

> <Gold.Chemscore.Internal_Hbond>
0.0000

> <Gold.Chemscore.DEClash>
0.0029

> <Gold.Chemscore.DEInternal>
2.7621

> <Gold.Chemscore.Rot>
1.5235

> <Gold.Chemscore.Internal.Correction>
   9.000000E+99

> <Gold.Chemscore.Hbonds>
donor molecule, donor type, donor heavy atom, donor atom, acceptor molecule, acceptor atom, score
      L1  H    11    40       P1  7948  0.93
      L1  H    14    41       P1  7948  0.34
      P1  H  6896  6908       L1    22  0.59

> <Gold.Chemscore.Hbond.Weighted>
-6.8111

> <Gold.Chemscore.Metal.Weighted>
-0.0000

> <Gold.Chemscore.Lipo.Weighted>
-10.9901

> <Gold.Chemscore.Internal_Hbond.Weighted>
0.0000

> <Gold.Chemscore.DEClash.Weighted>
0.0029

> <Gold.Chemscore.DEInternal.Weighted>
2.7621

> <Gold.Chemscore.Rot.Weighted>
3.9001

> <Gold.Chemscore.Internal.Correction.Weighted>
   9.000000E+99

> <Gold.Protein.RotatedTorsions>
[ 6907 6896 6895 6894 ] final   93.49 input  -60.11 | X-H torsion
[ 7974 7965 7964 7962 ] final  166.90 input  175.53 | X-H torsion
[ 8008 7997 7996 7995 ] final  -44.64 input   59.86 | X-H torsion
[ 10167 10162 10161 10158 ] final    5.69 input  -65.29 | X-H torsion
[ 10718 10713 10712 10709 ] final  -62.48 input   66.30 | X-H torsion
[ 10763 10752 10751 10750 ] final  155.16 input  -60.55 | X-H torsion
[ 11005 11000 10999 10996 ] final  100.30 input  -57.11 | X-H torsion

> <Gold.Protein.ActiveResidues>
 VAL166  LYS551  ARG553  GLY616  TRP617  ASP618  TYR619  PRO620  LYS621  CYS622 
 ASP623  PHE694  ASN695  SER759  ASP760  ASP761  ALA762  ILE779  LEU786  VAL792 
 PHE793  MET794  SER795  GLU796  ALA797  LYS798  CYS799  TRP800  GLU811  SER814 

> <Gold.Protein.RotatedAtoms>
  152.5452  134.1339  159.8450 H   0  0  0  0  0  0  0  0  0  0  0  0  # atno 6907 bound_to 6896
  151.1382  133.4982  159.2605 H   0  0  0  0  0  0  0  0  0  0  0  0  # atno 6908 bound_to 6896
  151.1602  135.0280  159.8761 H   0  0  0  0  0  0  0  0  0  0  0  0  # atno 6909 bound_to 6896
  144.7444  139.8683  143.6386 H   0  0  0  0  0  0  0  0  0  0  0  0  # atno 7974 bound_to 7965
  154.3998  140.1417  156.3716 H   0  0  0  0  0  0  0  0  0  0  0  0  # atno 8008 bound_to 7997
  155.8087  140.3473  155.5424 H   0  0  0  0  0  0  0  0  0  0  0  0  # atno 8009 bound_to 7997
  155.8409  140.0926  157.1725 H   0  0  0  0  0  0  0  0  0  0  0  0  # atno 8010 bound_to 7997
  140.6468  143.7641  150.7512 H   0  0  0  0  0  0  0  0  0  0  0  0  # atno 10167 bound_to 10162
  156.0852  130.4209  150.1141 H   0  0  0  0  0  0  0  0  0  0  0  0  # atno 10718 bound_to 10713
  154.1639  135.2808  155.3100 H   0  0  0  0  0  0  0  0  0  0  0  0  # atno 10763 bound_to 10752
  154.6126  135.5494  153.7492 H   0  0  0  0  0  0  0  0  0  0  0  0  # atno 10764 bound_to 10752
  153.0184  135.6419  154.1781 H   0  0  0  0  0  0  0  0  0  0  0  0  # atno 10765 bound_to 10752
  139.8771  134.9134  156.4735 H   0  0  0  0  0  0  0  0  0  0  0  0  # atno 11005 bound_to 11000
  146.1299  139.4332  143.0175 LP  0  0  0  0  0  0  0  0  0  0  0  0  # atno 17320 bound_to 7965
  145.7179  141.0085  143.1418 LP  0  0  0  0  0  0  0  0  0  0  0  0  # atno 17321 bound_to 7965
  140.1284  143.4548  152.2270 LP  0  0  0  0  0  0  0  0  0  0  0  0  # atno 17342 bound_to 10162
  139.5680  144.7446  151.3969 LP  0  0  0  0  0  0  0  0  0  0  0  0  # atno 17343 bound_to 10162
  156.9163  130.9668  151.3555 LP  0  0  0  0  0  0  0  0  0  0  0  0  # atno 17370 bound_to 10713
  157.5984  130.8495  149.8765 LP  0  0  0  0  0  0  0  0  0  0  0  0  # atno 17371 bound_to 10713
  140.8779  133.7940  155.9434 LP  0  0  0  0  0  0  0  0  0  0  0  0  # atno 17394 bound_to 11000
  140.8885  134.2524  157.5107 LP  0  0  0  0  0  0  0  0  0  0  0  0  # atno 17395 bound_to 11000

$$$$
