AV-unprocessed.smi:2477|AV-procd|sdf|9759|dock7
  -GOLD-   2272013403D 1   1.00000     0.00000
 Structure written by MMmdl.
 51 53  0  0  0  0  0  0  0  0  1 V2000
  145.4609  131.3845  150.6608 C   0  0  0  0  0  0  0  0  0  0  0  0
  144.9948  132.7106  151.0747 N   0  0  0  0  0  0  0  0  0  0  0  0
  143.6101  132.9481  151.0552 C   0  0  0  0  0  0  0  0  0  0  0  0
  143.0947  134.1317  151.4153 C   0  0  0  0  0  0  0  0  0  0  0  0
  143.9993  135.1766  151.8309 C   0  0  0  0  0  0  0  0  0  0  0  0
  145.3395  134.9658  151.8670 C   0  0  0  0  0  0  0  0  0  0  0  0
  146.2925  135.9249  152.2531 N   0  0  0  0  0  0  0  0  0  0  0  0
  146.1401  137.0308  153.0048 C   0  0  0  0  0  0  0  0  0  0  0  0
  145.0913  137.4130  153.5225 O   0  0  0  0  0  0  0  0  0  0  0  0
  147.3110  137.6670  153.1550 N   0  0  0  0  0  0  0  0  0  0  0  0
  147.5328  138.8627  153.9657 C   0  0  2  0  0  0  0  0  0  0  0  0
  147.0818  140.0979  153.1611 C   0  0  0  0  0  0  0  0  0  0  0  0
  147.3656  141.4064  153.9151 C   0  0  0  0  0  0  0  0  0  0  0  0
  148.8493  141.5151  154.2954 C   0  0  0  0  0  0  0  0  0  0  0  0
  149.2947  140.2963  155.1160 C   0  0  0  0  0  0  0  0  0  0  0  0
  149.0229  138.9793  154.3670 C   0  0  1  0  0  0  0  0  0  0  0  0
  149.3613  137.9184  155.2535 O   0  0  0  0  0  0  0  0  0  0  0  0
  150.6619  137.3707  155.0702 C   0  0  0  0  0  0  0  0  0  0  0  0
  151.1043  136.7509  156.3964 C   0  0  0  0  0  0  0  0  0  0  0  0
  151.6661  137.9115  157.2285 C   0  0  0  0  0  0  0  0  0  0  0  0
  151.9558  139.0533  156.2416 C   0  0  0  0  0  0  0  0  0  0  0  0
  151.6872  138.4856  154.8452 C   0  0  0  0  0  0  0  0  0  0  0  0
  145.8975  133.6601  151.4627 C   0  0  0  0  0  0  0  0  0  0  0  0
  147.1084  133.4236  151.4699 O   0  0  0  0  0  0  0  0  0  0  0  0
  144.6441  130.7197  150.3786 H   0  0  0  0  0  0  0  0  0  0  0  0
  146.0074  130.9001  151.4714 H   0  0  0  0  0  0  0  0  0  0  0  0
  146.1271  131.4629  149.8005 H   0  0  0  0  0  0  0  0  0  0  0  0
  142.9999  132.1172  150.7330 H   0  0  0  0  0  0  0  0  0  0  0  0
  142.0278  134.2992  151.3964 H   0  0  0  0  0  0  0  0  0  0  0  0
  143.5625  136.1257  152.0945 H   0  0  0  0  0  0  0  0  0  0  0  0
  147.2338  135.7198  151.9509 H   0  0  0  0  0  0  0  0  0  0  0  0
  148.1215  137.2776  152.6966 H   0  0  0  0  0  0  0  0  0  0  0  0
  146.9260  138.8156  154.8721 H   0  0  0  0  0  0  0  0  0  0  0  0
  147.5965  140.1209  152.1994 H   0  0  0  0  0  0  0  0  0  0  0  0
  146.0164  140.0288  152.9383 H   0  0  0  0  0  0  0  0  0  0  0  0
  147.0753  142.2598  153.3017 H   0  0  0  0  0  0  0  0  0  0  0  0
  146.7521  141.4500  154.8159 H   0  0  0  0  0  0  0  0  0  0  0  0
  149.4562  141.5908  153.3923 H   0  0  0  0  0  0  0  0  0  0  0  0
  149.0223  142.4294  154.8634 H   0  0  0  0  0  0  0  0  0  0  0  0
  150.3562  140.3778  155.3517 H   0  0  0  0  0  0  0  0  0  0  0  0
  148.7675  140.2901  156.0708 H   0  0  0  0  0  0  0  0  0  0  0  0
  149.6418  138.9638  153.4670 H   0  0  0  0  0  0  0  0  0  0  0  0
  150.6652  136.6284  154.2706 H   0  0  0  0  0  0  0  0  0  0  0  0
  150.2975  136.2195  156.9024 H   0  0  0  0  0  0  0  0  0  0  0  0
  151.8989  136.0283  156.2070 H   0  0  0  0  0  0  0  0  0  0  0  0
  150.9364  138.2376  157.9706 H   0  0  0  0  0  0  0  0  0  0  0  0
  152.5641  137.6056  157.7667 H   0  0  0  0  0  0  0  0  0  0  0  0
  151.2760  139.8839  156.4364 H   0  0  0  0  0  0  0  0  0  0  0  0
  152.9731  139.4344  156.3364 H   0  0  0  0  0  0  0  0  0  0  0  0
  152.6063  138.0524  154.4482 H   0  0  0  0  0  0  0  0  0  0  0  0
  151.3556  139.2467  154.1387 H   0  0  0  0  0  0  0  0  0  0  0  0
  1  2  1  0  0  0  0
  1 25  1  0  0  0  0
  1 26  1  0  0  0  0
  1 27  1  0  0  0  0
  2 23  1  0  0  0  0
  2  3  1  0  0  0  0
  3  4  2  0  0  0  0
  3 28  1  0  0  0  0
  4  5  1  0  0  0  0
  4 29  1  0  0  0  0
  5  6  2  0  0  0  0
  5 30  1  0  0  0  0
  6  7  1  0  0  0  0
  6 23  1  0  0  0  0
  7  8  1  0  0  0  0
  7 31  1  0  0  0  0
  8  9  2  0  0  0  0
  8 10  1  0  0  0  0
 10 11  1  0  0  0  0
 10 32  1  0  0  0  0
 11 16  1  0  0  0  0
 11 12  1  0  0  0  0
 11 33  1  0  0  0  0
 12 13  1  0  0  0  0
 12 34  1  0  0  0  0
 12 35  1  0  0  0  0
 13 14  1  0  0  0  0
 13 36  1  0  0  0  0
 13 37  1  0  0  0  0
 14 15  1  0  0  0  0
 14 38  1  0  0  0  0
 14 39  1  0  0  0  0
 15 16  1  0  0  0  0
 15 40  1  0  0  0  0
 15 41  1  0  0  0  0
 16 17  1  0  0  0  0
 16 42  1  0  0  0  0
 17 18  1  0  0  0  0
 18 22  1  0  0  0  0
 18 19  1  0  0  0  0
 18 43  1  0  0  0  0
 19 20  1  0  0  0  0
 19 44  1  0  0  0  0
 19 45  1  0  0  0  0
 20 21  1  0  0  0  0
 20 46  1  0  0  0  0
 20 47  1  0  0  0  0
 21 22  1  0  0  0  0
 21 48  1  0  0  0  0
 21 49  1  0  0  0  0
 22 50  1  0  0  0  0
 22 51  1  0  0  0  0
 23 24  2  0  0  0  0
M  END
> <s_m_source_file>
AV-unprocessed.smi

> <i_m_source_file_index>
2477

> <i_lp_mmshare_version>
43012

> <i_f3d_flags>
0

> <s_epik_input>
W0NIM11uMVtjSF1bY0hdW2NIXWMoYzE9TylbTkhdQyg9TylbTkhdW0NAQEhdMltDSDJdW0NIMl1bQ0gyXVtDSDJdW0NASF0yT1tDSF0zW0NIMl1bQ0gyXVtDSDJdW0NIMl0z

> <s_epik_cmdline>
J2VwaWtfcHl0aG9uJywgJy1waCcsICc3LjAnLCAnLXRuJywgJzgnLCAnLW1hJywgJzIwMCcsICctbWV0YWxfYmluZGluZycsICctaW1hZScsICc8aW5maWxlLm1hZT4nLCAnLW9tYWUnLCAnPG91dGZpbGUubWFlPic=

> <r_lp_tautomer_probability>
1

> <r_epik_Ionization_Penalty>
2.40753e-05

> <r_epik_Ionization_Penalty_Charging>
4.84018e-06

> <r_epik_Ionization_Penalty_Neutral>
1.92352e-05

> <r_epik_State_Penalty>
-0

> <r_epik_Charging_Adjusted_Penalty>
4.84018e-06

> <i_epik_Tot_Q>
0

> <i_epik_Tot_abs_Q>
0

> <r_epik_Metal_State_Penalty>
-0

> <b_epik_Metal_Only>
0

> <s_lp_Force_Field>
OPLS_2005

> <r_lp_Energy>
41.4176

> <b_lp_Chiralities_Consistent>
1

> <s_lp_Variant>
AV-unprocessed.smi:2477-1

> <Gold.Version>
5.8.1

> <Gold.Id.Protein>
6NUR|6NUR_protein|mol2

> <Gold.PLP.Fitness>
43.9861

> <Gold.PLP.PLP>
-40.2741

> <Gold.PLP.part.hbond>
-1.8685

> <Gold.PLP.part.metal>
0.0000

> <Gold.PLP.part.buried>
-2.2117

> <Gold.PLP.part.nonpolar>
-35.7463

> <Gold.PLP.part.repulsive>
0.5606

> <Gold.PLP.ligand.clash>
0.0000

> <Gold.PLP.ligand.torsion>
1.1388

> <Gold.PLP.Chemscore.Hbond>
1.9760

> <Gold.PLP.Chemscore.CHOScore>
0.0000

> <Gold.PLP.Chemscore.Metal>
0.0000

> <Gold.Chemscore.Hbonds>
donor molecule, donor type, donor heavy atom, donor atom, acceptor molecule, acceptor atom, score
      L1  H     7    31       P1  7948  0.99
      L1  H    10    32       P1  7948  1.00

> <Gold.PLP.Chemscore.Internal.Correction>
0.0616

> <Gold.Rescore>
     Score         DG    S(hbond)    S(metal)    S(lipo)     H(rot)  DE(clash)    DE(int)     intcor
     18.59     -20.07       1.91        0.00      99.88       1.36       0.10       1.38       ----

> <Gold.Chemscore.Fitness>
18.5895

> <Gold.Chemscore.DG>
-20.0667

> <Gold.Chemscore.ZeroCoef>
-5.4800

> <Gold.Chemscore.Hbond>
1.9081

> <Gold.Chemscore.Metal>
0.0000

> <Gold.Chemscore.Lipo>
99.8821

> <Gold.Chemscore.Internal_Hbond>
0.0000

> <Gold.Chemscore.DEClash>
0.1013

> <Gold.Chemscore.DEInternal>
1.3759

> <Gold.Chemscore.Rot>
1.3564

> <Gold.Chemscore.Internal.Correction>
   9.000000E+99

> <Gold.Chemscore.Hbonds>
donor molecule, donor type, donor heavy atom, donor atom, acceptor molecule, acceptor atom, score
      L1  H     7    31       P1  7948  0.94
      L1  H    10    32       P1  7948  0.96

> <Gold.Chemscore.Hbond.Weighted>
-6.3729

> <Gold.Chemscore.Metal.Weighted>
-0.0000

> <Gold.Chemscore.Lipo.Weighted>
-11.6862

> <Gold.Chemscore.Internal_Hbond.Weighted>
0.0000

> <Gold.Chemscore.DEClash.Weighted>
0.1013

> <Gold.Chemscore.DEInternal.Weighted>
1.3759

> <Gold.Chemscore.Rot.Weighted>
3.4724

> <Gold.Chemscore.Internal.Correction.Weighted>
   9.000000E+99

> <Gold.Protein.RotatedTorsions>
[ 6907 6896 6895 6894 ] final  104.70 input  -60.11 | X-H torsion
[ 7974 7965 7964 7962 ] final  -63.81 input  175.53 | X-H torsion
[ 8008 7997 7996 7995 ] final  -11.72 input   59.86 | X-H torsion
[ 10167 10162 10161 10158 ] final -153.23 input  -65.29 | X-H torsion
[ 10718 10713 10712 10709 ] final  133.02 input   66.30 | X-H torsion
[ 10763 10752 10751 10750 ] final -139.44 input  -60.55 | X-H torsion
[ 11005 11000 10999 10996 ] final -174.87 input  -57.11 | X-H torsion

> <Gold.Protein.ActiveResidues>
 VAL166  LYS551  ARG553  GLY616  TRP617  ASP618  TYR619  PRO620  LYS621  CYS622 
 ASP623  PHE694  ASN695  SER759  ASP760  ASP761  ALA762  ILE779  LEU786  VAL792 
 PHE793  MET794  SER795  GLU796  ALA797  LYS798  CYS799  TRP800  GLU811  SER814 

> <Gold.Protein.RotatedAtoms>
  152.5256  133.9638  159.7729 H   0  0  0  0  0  0  0  0  0  0  0  0  # atno 6907 bound_to 6896
  150.9924  133.6129  159.2713 H   0  0  0  0  0  0  0  0  0  0  0  0  # atno 6908 bound_to 6896
  151.3267  135.0838  159.9378 H   0  0  0  0  0  0  0  0  0  0  0  0  # atno 6909 bound_to 6896
  145.7745  140.8795  143.0363 H   0  0  0  0  0  0  0  0  0  0  0  0  # atno 7974 bound_to 7965
  154.5440  140.2295  155.8594 H   0  0  0  0  0  0  0  0  0  0  0  0  # atno 8008 bound_to 7997
  156.1885  140.3083  155.9247 H   0  0  0  0  0  0  0  0  0  0  0  0  # atno 8009 bound_to 7997
  155.3202  140.0440  157.3029 H   0  0  0  0  0  0  0  0  0  0  0  0  # atno 8010 bound_to 7997
  139.7114  143.9102  152.2469 H   0  0  0  0  0  0  0  0  0  0  0  0  # atno 10167 bound_to 10162
  157.4814  131.1086  150.9677 H   0  0  0  0  0  0  0  0  0  0  0  0  # atno 10718 bound_to 10713
  154.8609  135.3582  154.5547 H   0  0  0  0  0  0  0  0  0  0  0  0  # atno 10763 bound_to 10752
  153.6164  135.7007  153.5332 H   0  0  0  0  0  0  0  0  0  0  0  0  # atno 10764 bound_to 10752
  153.3166  135.4163  155.1341 H   0  0  0  0  0  0  0  0  0  0  0  0  # atno 10765 bound_to 10752
  140.4697  134.6177  157.4877 H   0  0  0  0  0  0  0  0  0  0  0  0  # atno 11005 bound_to 11000
  144.6807  139.9902  143.7484 LP  0  0  0  0  0  0  0  0  0  0  0  0  # atno 17320 bound_to 7965
  146.0136  139.3191  143.0855 LP  0  0  0  0  0  0  0  0  0  0  0  0  # atno 17321 bound_to 7965
  139.8972  144.6932  150.8705 LP  0  0  0  0  0  0  0  0  0  0  0  0  # atno 17342 bound_to 10162
  140.7734  143.3541  151.1956 LP  0  0  0  0  0  0  0  0  0  0  0  0  # atno 17343 bound_to 10162
  157.0409  130.5749  149.5356 LP  0  0  0  0  0  0  0  0  0  0  0  0  # atno 17370 bound_to 10713
  156.0123  130.5216  150.8028 LP  0  0  0  0  0  0  0  0  0  0  0  0  # atno 17371 bound_to 10713
  139.9893  134.7011  155.9718 LP  0  0  0  0  0  0  0  0  0  0  0  0  # atno 17394 bound_to 11000
  141.1583  133.6541  156.4233 LP  0  0  0  0  0  0  0  0  0  0  0  0  # atno 17395 bound_to 11000

$$$$
