AV-unprocessed.smi:1854|AV-procd|sdf|7529|dock7
  -GOLD-   22720 9243D 1   1.00000     0.00000
 Structure written by MMmdl.
 39 41  0  0  0  0  0  0  0  0  1 V2000
  153.8166  136.2231  155.8852 O   0  0  0  0  0  0  0  0  0  0  0  0
  152.7775  136.5273  156.4684 C   0  0  0  0  0  0  0  0  0  0  0  0
  151.7145  137.0952  155.8812 N   0  0  0  0  0  0  0  0  0  0  0  0
  151.6254  137.4476  154.4677 C   0  0  0  0  0  0  0  0  0  0  0  0
  150.5624  138.4916  154.2858 C   0  0  0  0  0  0  0  0  0  0  0  0
  149.4862  138.2794  153.5272 N   0  0  0  0  0  0  0  0  0  0  0  0
  148.7906  139.4666  153.6462 C   0  0  0  0  0  0  0  0  0  0  0  0
  147.5610  139.8716  153.0792 C   0  0  0  0  0  0  0  0  0  0  0  0
  147.0356  141.1513  153.3542 C   0  0  0  0  0  0  0  0  0  0  0  0
  147.7307  142.0423  154.1975 C   0  0  0  0  0  0  0  0  0  0  0  0
  148.9583  141.6592  154.7710 C   0  0  0  0  0  0  0  0  0  0  0  0
  149.4787  140.3813  154.4925 C   0  0  0  0  0  0  0  0  0  0  0  0
  150.6300  139.7072  154.8853 N   0  0  0  0  0  0  0  0  0  0  0  0
  151.6654  140.2215  155.7675 C   0  0  0  0  0  0  0  0  0  0  0  0
  151.2853  140.0439  157.2420 C   0  0  0  0  0  0  0  0  0  0  0  0
  152.3366  140.5610  158.0444 O   0  0  0  0  0  0  0  0  0  0  0  0
  152.3833  141.9216  158.2679 C   0  0  0  0  0  0  0  0  0  0  0  0
  151.6732  142.8747  157.4932 C   0  0  0  0  0  0  0  0  0  0  0  0
  151.7710  144.2490  157.7842 C   0  0  0  0  0  0  0  0  0  0  0  0
  152.5766  144.6902  158.8493 C   0  0  0  0  0  0  0  0  0  0  0  0
  153.2860  143.7540  159.6234 C   0  0  0  0  0  0  0  0  0  0  0  0
  153.1901  142.3785  159.3344 C   0  0  0  0  0  0  0  0  0  0  0  0
  154.0708  141.2509  160.3024 Cl  0  0  0  0  0  0  0  0  0  0  0  0
  152.5939  136.3697  157.5424 H   0  0  0  0  0  0  0  0  0  0  0  0
  150.9112  137.3055  156.4556 H   0  0  0  0  0  0  0  0  0  0  0  0
  152.5807  137.8205  154.0939 H   0  0  0  0  0  0  0  0  0  0  0  0
  151.3848  136.5600  153.8828 H   0  0  0  0  0  0  0  0  0  0  0  0
  147.0206  139.1960  152.4328 H   0  0  0  0  0  0  0  0  0  0  0  0
  146.0944  141.4505  152.9168 H   0  0  0  0  0  0  0  0  0  0  0  0
  147.3209  143.0202  154.4038 H   0  0  0  0  0  0  0  0  0  0  0  0
  149.4930  142.3390  155.4177 H   0  0  0  0  0  0  0  0  0  0  0  0
  152.6098  139.7223  155.5515 H   0  0  0  0  0  0  0  0  0  0  0  0
  151.8201  141.2775  155.5445 H   0  0  0  0  0  0  0  0  0  0  0  0
  150.3550  140.5757  157.4486 H   0  0  0  0  0  0  0  0  0  0  0  0
  151.1302  138.9860  157.4600 H   0  0  0  0  0  0  0  0  0  0  0  0
  151.0453  142.5775  156.6673 H   0  0  0  0  0  0  0  0  0  0  0  0
  151.2263  144.9662  157.1878 H   0  0  0  0  0  0  0  0  0  0  0  0
  152.6506  145.7444  159.0722 H   0  0  0  0  0  0  0  0  0  0  0  0
  153.9053  144.0931  160.4410 H   0  0  0  0  0  0  0  0  0  0  0  0
  1  2  2  0  0  0  0
  2  3  1  0  0  0  0
  2 24  1  0  0  0  0
  3  4  1  0  0  0  0
  3 25  1  0  0  0  0
  4  5  1  0  0  0  0
  4 26  1  0  0  0  0
  4 27  1  0  0  0  0
  5 13  1  0  0  0  0
  5  6  2  0  0  0  0
  6  7  1  0  0  0  0
  7 12  2  0  0  0  0
  7  8  1  0  0  0  0
  8  9  2  0  0  0  0
  8 28  1  0  0  0  0
  9 10  1  0  0  0  0
  9 29  1  0  0  0  0
 10 11  2  0  0  0  0
 10 30  1  0  0  0  0
 11 12  1  0  0  0  0
 11 31  1  0  0  0  0
 12 13  1  0  0  0  0
 13 14  1  0  0  0  0
 14 15  1  0  0  0  0
 14 32  1  0  0  0  0
 14 33  1  0  0  0  0
 15 16  1  0  0  0  0
 15 34  1  0  0  0  0
 15 35  1  0  0  0  0
 16 17  1  0  0  0  0
 17 22  1  0  0  0  0
 17 18  2  0  0  0  0
 18 19  1  0  0  0  0
 18 36  1  0  0  0  0
 19 20  2  0  0  0  0
 19 37  1  0  0  0  0
 20 21  1  0  0  0  0
 20 38  1  0  0  0  0
 21 22  2  0  0  0  0
 21 39  1  0  0  0  0
 22 23  1  0  0  0  0
M  END
> <s_m_source_file>
AV-unprocessed.smi

> <i_m_source_file_index>
1854

> <i_lp_mmshare_version>
43012

> <i_f3d_flags>
0

> <s_epik_input>
Tz1bQ0hdW05IXVtDSDJdYyhuMSluKGMoYzEyKVtjSF1bY0hdW2NIXVtjSF0yKVtDSDJdW0NIMl1PYzNbY0hdW2NIXVtjSF1bY0hdYzNDbA==

> <s_epik_cmdline>
J2VwaWtfcHl0aG9uJywgJy1waCcsICc3LjAnLCAnLXRuJywgJzgnLCAnLW1hJywgJzIwMCcsICctbWV0YWxfYmluZGluZycsICctaW1hZScsICc8aW5maWxlLm1hZT4nLCAnLW9tYWUnLCAnPG91dGZpbGUubWFlPic=

> <r_lp_tautomer_probability>
1

> <r_epik_Ionization_Penalty>
0.0546265

> <r_epik_Ionization_Penalty_Charging>
0

> <r_epik_Ionization_Penalty_Neutral>
0.0546265

> <r_epik_State_Penalty>
0.0470049

> <r_epik_Charging_Adjusted_Penalty>
0.0470049

> <i_epik_Tot_Q>
0

> <i_epik_Tot_abs_Q>
0

> <r_epik_Metal_State_Penalty>
0.0430103

> <b_epik_Metal_Only>
0

> <s_lp_Force_Field>
OPLS_2005

> <r_lp_Energy>
13.3616

> <b_lp_Chiralities_Consistent>
1

> <s_lp_Variant>
AV-unprocessed.smi:1854-1

> <Gold.Version>
5.8.1

> <Gold.Id.Protein>
6NUR|6NUR_protein|mol2

> <Gold.PLP.Fitness>
50.1257

> <Gold.PLP.PLP>
-48.7016

> <Gold.PLP.part.hbond>
-1.0000

> <Gold.PLP.part.metal>
0.0000

> <Gold.PLP.part.buried>
-2.1986

> <Gold.PLP.part.nonpolar>
-48.9303

> <Gold.PLP.part.repulsive>
2.4335

> <Gold.PLP.ligand.clash>
0.0000

> <Gold.PLP.ligand.torsion>
0.8125

> <Gold.PLP.Chemscore.Hbond>
1.0000

> <Gold.PLP.Chemscore.CHOScore>
0.0000

> <Gold.PLP.Chemscore.Metal>
0.0000

> <Gold.PLP.Chemscore.Internal.Correction>
0.0491

> <Gold.Rescore>
     Score         DG    S(hbond)    S(metal)    S(lipo)     H(rot)  DE(clash)    DE(int)     intcor
     16.53     -18.65       0.99        0.00     137.36       2.42       1.38       0.75       ----

> <Gold.Chemscore.Fitness>
16.5269

> <Gold.Chemscore.DG>
-18.6504

> <Gold.Chemscore.ZeroCoef>
-5.4800

> <Gold.Chemscore.Hbond>
0.9869

> <Gold.Chemscore.Metal>
0.0000

> <Gold.Chemscore.Lipo>
137.3555

> <Gold.Chemscore.Internal_Hbond>
0.0000

> <Gold.Chemscore.DEClash>
1.3761

> <Gold.Chemscore.DEInternal>
0.7474

> <Gold.Chemscore.Rot>
2.4205

> <Gold.Chemscore.Internal.Correction>
   9.000000E+99

> <Gold.Chemscore.Hbond.Weighted>
-3.2963

> <Gold.Chemscore.Metal.Weighted>
-0.0000

> <Gold.Chemscore.Lipo.Weighted>
-16.0706

> <Gold.Chemscore.Internal_Hbond.Weighted>
0.0000

> <Gold.Chemscore.DEClash.Weighted>
1.3761

> <Gold.Chemscore.DEInternal.Weighted>
0.7474

> <Gold.Chemscore.Rot.Weighted>
6.1965

> <Gold.Chemscore.Internal.Correction.Weighted>
   9.000000E+99

> <Gold.Protein.RotatedTorsions>
[ 6907 6896 6895 6894 ] final   78.47 input  -60.11 | X-H torsion
[ 7974 7965 7964 7962 ] final  -27.25 input  175.53 | X-H torsion
[ 8008 7997 7996 7995 ] final -113.61 input   59.86 | X-H torsion
[ 10167 10162 10161 10158 ] final  -41.17 input  -65.29 | X-H torsion
[ 10718 10713 10712 10709 ] final  -29.26 input   66.30 | X-H torsion
[ 10763 10752 10751 10750 ] final   14.16 input  -60.55 | X-H torsion
[ 11005 11000 10999 10996 ] final   48.96 input  -57.11 | X-H torsion

> <Gold.Protein.ActiveResidues>
 VAL166  LYS551  ARG553  GLY616  TRP617  ASP618  TYR619  PRO620  LYS621  CYS622 
 ASP623  PHE694  ASN695  SER759  ASP760  ASP761  ALA762  ILE779  LEU786  VAL792 
 PHE793  MET794  SER795  GLU796  ALA797  LYS798  CYS799  TRP800  GLU811  SER814 

> <Gold.Protein.RotatedAtoms>
  152.5160  134.3659  159.9300 H   0  0  0  0  0  0  0  0  0  0  0  0  # atno 6907 bound_to 6896
  151.3613  133.3882  159.2697 H   0  0  0  0  0  0  0  0  0  0  0  0  # atno 6908 bound_to 6896
  150.9650  134.9051  159.7812 H   0  0  0  0  0  0  0  0  0  0  0  0  # atno 6909 bound_to 6896
  146.1371  140.5126  142.8668 H   0  0  0  0  0  0  0  0  0  0  0  0  # atno 7974 bound_to 7965
  155.0234  140.0393  157.2446 H   0  0  0  0  0  0  0  0  0  0  0  0  # atno 8008 bound_to 7997
  154.7358  140.2739  155.6392 H   0  0  0  0  0  0  0  0  0  0  0  0  # atno 8009 bound_to 7997
  156.2852  140.2675  156.2071 H   0  0  0  0  0  0  0  0  0  0  0  0  # atno 8010 bound_to 7997
  140.7011  143.3110  151.3028 H   0  0  0  0  0  0  0  0  0  0  0  0  # atno 10167 bound_to 10162
  156.4147  130.4415  149.7226 H   0  0  0  0  0  0  0  0  0  0  0  0  # atno 10718 bound_to 10713
  153.1649  135.6802  153.8690 H   0  0  0  0  0  0  0  0  0  0  0  0  # atno 10763 bound_to 10752
  153.8073  135.3147  155.3398 H   0  0  0  0  0  0  0  0  0  0  0  0  # atno 10764 bound_to 10752
  154.7958  135.4808  154.0248 H   0  0  0  0  0  0  0  0  0  0  0  0  # atno 10765 bound_to 10752
  140.1145  134.4910  155.8649 H   0  0  0  0  0  0  0  0  0  0  0  0  # atno 11005 bound_to 11000
  144.7751  140.5722  143.6643 LP  0  0  0  0  0  0  0  0  0  0  0  0  # atno 17320 bound_to 7965
  145.5132  139.1478  143.3593 LP  0  0  0  0  0  0  0  0  0  0  0  0  # atno 17321 bound_to 7965
  139.6533  144.0323  152.2642 LP  0  0  0  0  0  0  0  0  0  0  0  0  # atno 17342 bound_to 10162
  139.9866  144.6391  150.7852 LP  0  0  0  0  0  0  0  0  0  0  0  0  # atno 17343 bound_to 10162
  156.4191  130.7760  151.2776 LP  0  0  0  0  0  0  0  0  0  0  0  0  # atno 17370 bound_to 10713
  157.7507  131.0188  150.3642 LP  0  0  0  0  0  0  0  0  0  0  0  0  # atno 17371 bound_to 10713
  141.2138  133.6739  156.6770 LP  0  0  0  0  0  0  0  0  0  0  0  0  # atno 17394 bound_to 11000
  140.3046  134.8135  157.4126 LP  0  0  0  0  0  0  0  0  0  0  0  0  # atno 17395 bound_to 11000

$$$$
