AV-unprocessed.smi:232|AV-procd|sdf|1769|dock2
  -GOLD-   2262020303D 1   1.00000     0.00000
 Structure written by MMmdl.
 52 55  0  0  0  0  0  0  0  0  1 V2000
  147.0160  142.3856  157.1265 C   0  0  0  0  0  0  0  0  0  0  0  0
  147.3797  141.4361  155.9786 C   0  0  0  0  0  0  0  0  0  0  0  0
  148.6566  140.6161  156.2546 C   0  0  2  0  0  0  0  0  0  0  0  0
  149.9315  141.4633  156.3569 C   0  0  0  0  0  0  0  0  0  0  0  0
  151.0518  140.5405  155.8635 C   0  0  0  0  0  0  0  0  0  0  0  0
  150.3373  139.2542  155.4281 C   0  0  2  0  0  0  0  0  0  0  0  0
  150.9930  138.5769  154.2126 C   0  0  0  0  0  0  0  0  0  0  0  0
  148.9522  139.6502  155.2008 N   0  0  0  0  0  0  0  0  0  0  0  0
  148.0914  138.6135  155.0590 C   0  0  0  0  0  0  0  0  0  0  0  0
  147.9290  137.7076  156.0601 N   0  0  0  0  0  0  0  0  0  0  0  0
  147.0893  136.6798  155.9022 C   0  0  0  0  0  0  0  0  0  0  0  0
  146.3344  136.3725  154.8447 N   0  0  0  0  0  0  0  0  0  0  0  0
  146.5002  137.2793  153.8391 C   0  0  0  0  0  0  0  0  0  0  0  0
  147.3496  138.4197  153.8642 C   0  0  0  0  0  0  0  0  0  0  0  0
  147.2590  139.1098  152.6618 N   0  0  0  0  0  0  0  0  0  0  0  0
  146.4062  138.4120  151.9614 C   0  0  0  0  0  0  0  0  0  0  0  0
  145.9042  137.2954  152.5914 N   0  0  0  0  0  0  0  0  0  0  0  0
  144.9543  136.3404  152.0495 C   0  0  0  0  0  0  0  0  0  0  0  0
  145.5574  135.5052  150.9034 C   0  0  2  0  0  0  0  0  0  0  0  0
  145.1395  136.0077  149.6479 O   0  0  0  0  0  0  0  0  0  0  0  0
  145.2357  134.0020  151.0252 C   0  0  2  0  0  0  0  0  0  0  0  0
  146.0518  133.0551  150.1409 C   0  0  0  0  0  0  0  0  0  0  0  0
  145.1346  131.8547  150.0725 C   0  0  0  0  0  0  0  0  0  0  0  0
  143.7612  132.5175  149.9940 C   0  0  0  0  0  0  0  0  0  0  0  0
  143.8651  133.7211  150.7500 O   0  0  0  0  0  0  0  0  0  0  0  0
  146.0935  142.9234  156.9068 H   0  0  0  0  0  0  0  0  0  0  0  0
  147.7975  143.1271  157.2946 H   0  0  0  0  0  0  0  0  0  0  0  0
  146.8673  141.8371  158.0569 H   0  0  0  0  0  0  0  0  0  0  0  0
  146.5378  140.7628  155.8145 H   0  0  0  0  0  0  0  0  0  0  0  0
  147.4962  142.0057  155.0558 H   0  0  0  0  0  0  0  0  0  0  0  0
  148.5359  140.0794  157.1971 H   0  0  0  0  0  0  0  0  0  0  0  0
  149.8691  142.3368  155.7065 H   0  0  0  0  0  0  0  0  0  0  0  0
  150.1021  141.8182  157.3737 H   0  0  0  0  0  0  0  0  0  0  0  0
  151.5705  141.0087  155.0257 H   0  0  0  0  0  0  0  0  0  0  0  0
  151.7909  140.3384  156.6392 H   0  0  0  0  0  0  0  0  0  0  0  0
  150.3554  138.5551  156.2664 H   0  0  0  0  0  0  0  0  0  0  0  0
  152.0409  138.3529  154.4128 H   0  0  0  0  0  0  0  0  0  0  0  0
  150.9513  139.2180  153.3316 H   0  0  0  0  0  0  0  0  0  0  0  0
  150.5014  137.6362  153.9641 H   0  0  0  0  0  0  0  0  0  0  0  0
  147.0150  136.0047  156.7419 H   0  0  0  0  0  0  0  0  0  0  0  0
  146.1218  138.6906  150.9569 H   0  0  0  0  0  0  0  0  0  0  0  0
  144.6259  135.6896  152.8606 H   0  0  0  0  0  0  0  0  0  0  0  0
  144.0719  136.8824  151.7066 H   0  0  0  0  0  0  0  0  0  0  0  0
  146.6423  135.6137  150.9322 H   0  0  0  0  0  0  0  0  0  0  0  0
  144.9041  136.9167  149.7527 H   0  0  0  0  0  0  0  0  0  0  0  0
  145.3957  133.7037  152.0626 H   0  0  0  0  0  0  0  0  0  0  0  0
  146.1958  133.4602  149.1387 H   0  0  0  0  0  0  0  0  0  0  0  0
  147.0317  132.8221  150.5585 H   0  0  0  0  0  0  0  0  0  0  0  0
  145.3423  131.2011  149.2249 H   0  0  0  0  0  0  0  0  0  0  0  0
  145.2173  131.2667  150.9877 H   0  0  0  0  0  0  0  0  0  0  0  0
  143.5252  132.7783  148.9617 H   0  0  0  0  0  0  0  0  0  0  0  0
  142.9652  131.8754  150.3715 H   0  0  0  0  0  0  0  0  0  0  0  0
  1  2  1  0  0  0  0
  1 26  1  0  0  0  0
  1 27  1  0  0  0  0
  1 28  1  0  0  0  0
  2  3  1  0  0  0  0
  2 29  1  0  0  0  0
  2 30  1  0  0  0  0
  3  8  1  0  0  0  0
  3  4  1  0  0  0  0
  3 31  1  0  0  0  0
  4  5  1  0  0  0  0
  4 32  1  0  0  0  0
  4 33  1  0  0  0  0
  5  6  1  0  0  0  0
  5 34  1  0  0  0  0
  5 35  1  0  0  0  0
  6  7  1  0  0  0  0
  6  8  1  0  0  0  0
  6 36  1  0  0  0  0
  7 37  1  0  0  0  0
  7 38  1  0  0  0  0
  7 39  1  0  0  0  0
  8  9  1  0  0  0  0
  9 14  1  0  0  0  0
  9 10  2  0  0  0  0
 10 11  1  0  0  0  0
 11 12  2  0  0  0  0
 11 40  1  0  0  0  0
 12 13  1  0  0  0  0
 13 17  1  0  0  0  0
 13 14  2  0  0  0  0
 14 15  1  0  0  0  0
 15 16  2  0  0  0  0
 16 17  1  0  0  0  0
 16 41  1  0  0  0  0
 17 18  1  0  0  0  0
 18 19  1  0  0  0  0
 18 42  1  0  0  0  0
 18 43  1  0  0  0  0
 19 20  1  0  0  0  0
 19 21  1  0  0  0  0
 19 44  1  0  0  0  0
 20 45  1  0  0  0  0
 21 25  1  0  0  0  0
 21 22  1  0  0  0  0
 21 46  1  0  0  0  0
 22 23  1  0  0  0  0
 22 47  1  0  0  0  0
 22 48  1  0  0  0  0
 23 24  1  0  0  0  0
 23 49  1  0  0  0  0
 23 50  1  0  0  0  0
 24 25  1  0  0  0  0
 24 51  1  0  0  0  0
 24 52  1  0  0  0  0
M  END
> <s_m_source_file>
AV-unprocessed.smi

> <i_m_source_file_index>
232

> <i_lp_mmshare_version>
43012

> <i_f3d_flags>
0

> <s_epik_input>
W0NIM11bQ0gyXVtDQEBIXTFbQ0gyXVtDSDJdW0NAQEhdKFtDSDNdKU4xYyhuW2NIXW4yKWMoYzIzKW5bY0hdbjNbQ0gyXVtDQEhdKFtPSF0pW0NAQEhdNFtDSDJdW0NIMl1bQ0gyXU80

> <s_epik_cmdline>
J2VwaWtfcHl0aG9uJywgJy1waCcsICc3LjAnLCAnLXRuJywgJzgnLCAnLW1hJywgJzIwMCcsICctbWV0YWxfYmluZGluZycsICctaW1hZScsICc8aW5maWxlLm1hZT4nLCAnLW9tYWUnLCAnPG91dGZpbGUubWFlPic=

> <r_lp_tautomer_probability>
1

> <r_epik_Ionization_Penalty>
0.00258048

> <r_epik_Ionization_Penalty_Charging>
0

> <r_epik_Ionization_Penalty_Neutral>
0.00258048

> <r_epik_State_Penalty>
0.00168551

> <r_epik_Charging_Adjusted_Penalty>
0.00168551

> <i_epik_Tot_Q>
0

> <i_epik_Tot_abs_Q>
0

> <r_epik_Metal_State_Penalty>
-0

> <b_epik_Metal_Only>
0

> <s_lp_Force_Field>
OPLS_2005

> <r_lp_Energy>
54.2743

> <b_lp_Chiralities_Consistent>
1

> <s_lp_Variant>
AV-unprocessed.smi:232-3

> <Gold.Version>
5.8.1

> <Gold.Id.Protein>
6NUR|6NUR_protein|mol2

> <Gold.PLP.Fitness>
41.8515

> <Gold.PLP.PLP>
-37.2946

> <Gold.PLP.part.hbond>
-1.9531

> <Gold.PLP.part.metal>
0.0000

> <Gold.PLP.part.buried>
-7.1069

> <Gold.PLP.part.nonpolar>
-30.7321

> <Gold.PLP.part.repulsive>
1.8678

> <Gold.PLP.ligand.clash>
0.0000

> <Gold.PLP.ligand.torsion>
0.8095

> <Gold.PLP.Chemscore.Hbond>
1.0000

> <Gold.PLP.Chemscore.CHOScore>
1.0000

> <Gold.PLP.Chemscore.Metal>
0.0000

> <Gold.Chemscore.Hbonds>
donor molecule, donor type, donor heavy atom, donor atom, acceptor molecule, acceptor atom, score
      L1  H    20    45       P1 10171  1.00
      L1  C    16    41       P1 10171  1.00

> <Gold.PLP.Chemscore.Internal.Correction>
0.1759

> <Gold.Rescore>
     Score         DG    S(hbond)    S(metal)    S(lipo)     H(rot)  DE(clash)    DE(int)     intcor
     11.71     -12.41       0.99        0.00      83.98       2.43       0.05       0.65       ----

> <Gold.Chemscore.Fitness>
11.7073

> <Gold.Chemscore.DG>
-12.4084

> <Gold.Chemscore.ZeroCoef>
-5.4800

> <Gold.Chemscore.Hbond>
0.9920

> <Gold.Chemscore.Metal>
0.0000

> <Gold.Chemscore.Lipo>
83.9815

> <Gold.Chemscore.Internal_Hbond>
0.0000

> <Gold.Chemscore.DEClash>
0.0471

> <Gold.Chemscore.DEInternal>
0.6541

> <Gold.Chemscore.Rot>
2.4260

> <Gold.Chemscore.Internal.Correction>
   9.000000E+99

> <Gold.Chemscore.Hbonds>
donor molecule, donor type, donor heavy atom, donor atom, acceptor molecule, acceptor atom, score
      L1  H    20    45       P1 10171  0.99

> <Gold.Chemscore.Hbond.Weighted>
-3.3133

> <Gold.Chemscore.Metal.Weighted>
-0.0000

> <Gold.Chemscore.Lipo.Weighted>
-9.8258

> <Gold.Chemscore.Internal_Hbond.Weighted>
0.0000

> <Gold.Chemscore.DEClash.Weighted>
0.0471

> <Gold.Chemscore.DEInternal.Weighted>
0.6541

> <Gold.Chemscore.Rot.Weighted>
6.2107

> <Gold.Chemscore.Internal.Correction.Weighted>
   9.000000E+99

> <Gold.Protein.RotatedTorsions>
[ 6907 6896 6895 6894 ] final -133.53 input  -60.11 | X-H torsion
[ 7974 7965 7964 7962 ] final  -34.35 input  175.53 | X-H torsion
[ 8008 7997 7996 7995 ] final   27.90 input   59.86 | X-H torsion
[ 10167 10162 10161 10158 ] final   43.30 input  -65.29 | X-H torsion
[ 10718 10713 10712 10709 ] final -143.61 input   66.30 | X-H torsion
[ 10763 10752 10751 10750 ] final  172.31 input  -60.55 | X-H torsion
[ 11005 11000 10999 10996 ] final   71.09 input  -57.11 | X-H torsion

> <Gold.Protein.ActiveResidues>
 VAL166  LYS551  ARG553  GLY616  TRP617  ASP618  TYR619  PRO620  LYS621  CYS622 
 ASP623  PHE694  ASN695  SER759  ASP760  ASP761  ALA762  ILE779  LEU786  VAL792 
 PHE793  MET794  SER795  GLU796  ALA797  LYS798  CYS799  TRP800  GLU811  SER814 

> <Gold.Protein.RotatedAtoms>
  150.9751  133.6303  159.2731 H   0  0  0  0  0  0  0  0  0  0  0  0  # atno 6907 bound_to 6896
  151.3578  135.0896  159.9434 H   0  0  0  0  0  0  0  0  0  0  0  0  # atno 6908 bound_to 6896
  152.5196  133.9331  159.7645 H   0  0  0  0  0  0  0  0  0  0  0  0  # atno 6909 bound_to 6896
  146.0837  140.6027  142.8896 H   0  0  0  0  0  0  0  0  0  0  0  0  # atno 7974 bound_to 7965
  155.0502  140.3179  155.4694 H   0  0  0  0  0  0  0  0  0  0  0  0  # atno 8008 bound_to 7997
  156.2836  140.2147  156.5572 H   0  0  0  0  0  0  0  0  0  0  0  0  # atno 8009 bound_to 7997
  154.7216  140.0489  157.0633 H   0  0  0  0  0  0  0  0  0  0  0  0  # atno 8010 bound_to 7997
  140.3458  144.2413  150.6150 H   0  0  0  0  0  0  0  0  0  0  0  0  # atno 10167 bound_to 10162
  156.3600  130.7733  151.1899 H   0  0  0  0  0  0  0  0  0  0  0  0  # atno 10718 bound_to 10713
  154.4243  135.2758  155.1955 H   0  0  0  0  0  0  0  0  0  0  0  0  # atno 10763 bound_to 10752
  154.3887  135.6071  153.5835 H   0  0  0  0  0  0  0  0  0  0  0  0  # atno 10764 bound_to 10752
  152.9834  135.5898  154.4544 H   0  0  0  0  0  0  0  0  0  0  0  0  # atno 10765 bound_to 10752
  139.9562  134.7140  156.0748 H   0  0  0  0  0  0  0  0  0  0  0  0  # atno 11005 bound_to 11000
  144.7311  140.4673  143.6937 LP  0  0  0  0  0  0  0  0  0  0  0  0  # atno 17320 bound_to 7965
  145.6170  139.1519  143.3044 LP  0  0  0  0  0  0  0  0  0  0  0  0  # atno 17321 bound_to 7965
  140.5266  143.2253  151.8305 LP  0  0  0  0  0  0  0  0  0  0  0  0  # atno 17342 bound_to 10162
  139.4833  144.4772  151.9352 LP  0  0  0  0  0  0  0  0  0  0  0  0  # atno 17343 bound_to 10162
  157.7472  131.0403  150.4590 LP  0  0  0  0  0  0  0  0  0  0  0  0  # atno 17370 bound_to 10713
  156.4799  130.4071  149.6468 LP  0  0  0  0  0  0  0  0  0  0  0  0  # atno 17371 bound_to 10713
  141.1234  133.6606  156.3273 LP  0  0  0  0  0  0  0  0  0  0  0  0  # atno 17394 bound_to 11000
  140.5604  134.5940  157.5432 LP  0  0  0  0  0  0  0  0  0  0  0  0  # atno 17395 bound_to 11000

$$$$
