AV-unprocessed.smi:2775|AV-procd|sdf|10693|dock5
  -GOLD-   2272015133D 1   1.00000     0.00000
 Structure written by MMmdl.
 42 45  0  0  0  0  0  0  0  0  1 V2000
  143.6691  132.7498  150.7581 C   0  0  0  0  0  0  0  0  0  0  0  0
  143.7847  133.9557  151.6713 C   0  0  0  0  0  0  0  0  0  0  0  0
  142.6330  134.3705  152.2422 N   0  0  0  0  0  0  0  0  0  0  0  0
  142.6821  135.4353  153.0685 C   0  0  0  0  0  0  0  0  0  0  0  0
  143.8676  136.1365  153.3606 C   0  0  0  0  0  0  0  0  0  0  0  0
  145.0740  135.7129  152.7532 C   0  0  0  0  0  0  0  0  0  0  0  0
  146.3359  136.3283  152.9784 N   0  0  0  0  0  0  0  0  0  0  0  0
  146.7160  137.2002  153.9322 C   0  0  0  0  0  0  0  0  0  0  0  0
  145.9878  137.6407  154.8185 O   0  0  0  0  0  0  0  0  0  0  0  0
  148.0021  137.5801  153.8342 N   0  0  0  0  0  0  0  0  0  0  0  0
  148.7209  138.5097  154.7076 C   0  0  1  0  0  0  0  0  0  0  0  0
  150.0806  138.9346  154.1222 C   0  0  2  0  0  0  0  0  0  0  0  0
  151.3508  138.5678  154.8406 C   0  0  0  0  0  0  0  0  0  0  0  0
  151.6710  139.8349  155.6389 C   0  0  0  0  0  0  0  0  0  0  0  0
  150.4228  140.5141  155.7542 O   0  0  0  0  0  0  0  0  0  0  0  0
  149.7381  140.3678  154.5139 C   0  0  2  0  0  0  0  0  0  0  0  0
  148.2580  139.9796  154.6154 C   0  0  0  0  0  0  0  0  0  0  0  0
  147.2573  140.4782  153.5553 C   0  0  0  0  0  0  0  0  0  0  0  0
  146.2059  140.5986  154.6618 C   0  0  0  0  0  0  0  0  0  0  0  0
  147.3465  140.5994  155.6839 C   0  0  0  0  0  0  0  0  0  0  0  0
  145.0297  134.5878  151.8966 C   0  0  0  0  0  0  0  0  0  0  0  0
  146.4705  133.9984  151.1352 Cl  0  0  0  0  0  0  0  0  0  0  0  0
  144.0002  133.0042  149.7511 H   0  0  0  0  0  0  0  0  0  0  0  0
  142.6411  132.3905  150.6942 H   0  0  0  0  0  0  0  0  0  0  0  0
  144.2890  131.9335  151.1296 H   0  0  0  0  0  0  0  0  0  0  0  0
  141.7466  135.7358  153.5167 H   0  0  0  0  0  0  0  0  0  0  0  0
  143.8237  136.9677  154.0461 H   0  0  0  0  0  0  0  0  0  0  0  0
  147.0404  136.1098  152.2889 H   0  0  0  0  0  0  0  0  0  0  0  0
  148.5371  137.1817  153.0759 H   0  0  0  0  0  0  0  0  0  0  0  0
  148.8228  138.1756  155.7425 H   0  0  0  0  0  0  0  0  0  0  0  0
  150.1227  138.8214  153.0371 H   0  0  0  0  0  0  0  0  0  0  0  0
  151.1907  137.7198  155.5073 H   0  0  0  0  0  0  0  0  0  0  0  0
  152.1599  138.3084  154.1575 H   0  0  0  0  0  0  0  0  0  0  0  0
  152.1023  139.6193  156.6165 H   0  0  0  0  0  0  0  0  0  0  0  0
  152.3692  140.4674  155.0888 H   0  0  0  0  0  0  0  0  0  0  0  0
  149.9990  141.1147  153.7627 H   0  0  0  0  0  0  0  0  0  0  0  0
  147.5344  141.4498  153.1435 H   0  0  0  0  0  0  0  0  0  0  0  0
  147.0048  139.7738  152.7631 H   0  0  0  0  0  0  0  0  0  0  0  0
  145.6200  141.5177  154.6339 H   0  0  0  0  0  0  0  0  0  0  0  0
  145.5680  139.7176  154.7379 H   0  0  0  0  0  0  0  0  0  0  0  0
  147.1722  139.9711  156.5577 H   0  0  0  0  0  0  0  0  0  0  0  0
  147.6567  141.6063  155.9674 H   0  0  0  0  0  0  0  0  0  0  0  0
  1  2  1  0  0  0  0
  1 23  1  0  0  0  0
  1 24  1  0  0  0  0
  1 25  1  0  0  0  0
  2 21  1  0  0  0  0
  2  3  2  0  0  0  0
  3  4  1  0  0  0  0
  4  5  2  0  0  0  0
  4 26  1  0  0  0  0
  5  6  1  0  0  0  0
  5 27  1  0  0  0  0
  6  7  1  0  0  0  0
  6 21  2  0  0  0  0
  7  8  1  0  0  0  0
  7 28  1  0  0  0  0
  8  9  2  0  0  0  0
  8 10  1  0  0  0  0
 10 11  1  0  0  0  0
 10 29  1  0  0  0  0
 11 17  1  0  0  0  0
 11 12  1  0  0  0  0
 11 30  1  0  0  0  0
 12 16  1  0  0  0  0
 12 13  1  0  0  0  0
 12 31  1  0  0  0  0
 13 14  1  0  0  0  0
 13 32  1  0  0  0  0
 13 33  1  0  0  0  0
 14 15  1  0  0  0  0
 14 34  1  0  0  0  0
 14 35  1  0  0  0  0
 15 16  1  0  0  0  0
 16 17  1  0  0  0  0
 16 36  1  0  0  0  0
 17 20  1  0  0  0  0
 17 18  1  0  0  0  0
 18 19  1  0  0  0  0
 18 37  1  0  0  0  0
 18 38  1  0  0  0  0
 19 20  1  0  0  0  0
 19 39  1  0  0  0  0
 19 40  1  0  0  0  0
 20 41  1  0  0  0  0
 20 42  1  0  0  0  0
 21 22  1  0  0  0  0
M  END
> <s_m_source_file>
AV-unprocessed.smi

> <i_m_source_file_index>
2775

> <i_lp_mmshare_version>
43012

> <i_f3d_flags>
0

> <s_epik_input>
W0NIM11jMW5bY0hdW2NIXWMoYzFDbClbTkhdQyg9TylbTkhdW0NAQEhdMltDQEhdKFtDSDJdW0NIMl1PMylbQ0BASF0zQzI0W0NIMl1bQ0gyXVtDSDJdNA==

> <s_epik_cmdline>
J2VwaWtfcHl0aG9uJywgJy1waCcsICc3LjAnLCAnLXRuJywgJzgnLCAnLW1hJywgJzIwMCcsICctbWV0YWxfYmluZGluZycsICctaW1hZScsICc8aW5maWxlLm1hZT4nLCAnLW9tYWUnLCAnPG91dGZpbGUubWFlPic=

> <r_epik_Ionization_Penalty>
0.01026

> <r_epik_Ionization_Penalty_Charging>
0

> <r_epik_Ionization_Penalty_Neutral>
0.01026

> <r_epik_State_Penalty>
0.00780685

> <r_epik_Charging_Adjusted_Penalty>
0.00780685

> <i_epik_Tot_Q>
0

> <i_epik_Tot_abs_Q>
0

> <r_epik_Metal_State_Penalty>
0.00767411

> <b_epik_Metal_Only>
0

> <s_lp_Force_Field>
OPLS_2005

> <r_lp_Energy>
55.7344

> <b_lp_Chiralities_Consistent>
1

> <s_lp_Variant>
AV-unprocessed.smi:2775-6

> <Gold.Version>
5.8.1

> <Gold.Id.Protein>
6NUR|6NUR_protein|mol2

> <Gold.PLP.Fitness>
38.1955

> <Gold.PLP.PLP>
-32.5155

> <Gold.PLP.part.hbond>
-2.0000

> <Gold.PLP.part.metal>
0.0000

> <Gold.PLP.part.buried>
-3.6020

> <Gold.PLP.part.nonpolar>
-27.0763

> <Gold.PLP.part.repulsive>
0.3454

> <Gold.PLP.ligand.clash>
0.0000

> <Gold.PLP.ligand.torsion>
0.1490

> <Gold.PLP.Chemscore.Hbond>
1.9280

> <Gold.PLP.Chemscore.CHOScore>
0.0000

> <Gold.PLP.Chemscore.Metal>
0.0000

> <Gold.Chemscore.Hbonds>
donor molecule, donor type, donor heavy atom, donor atom, acceptor molecule, acceptor atom, score
      L1  H     7    28       P1  7948  0.91
      L1  H    10    29       P1  7948  1.00

> <Gold.PLP.Chemscore.Internal.Correction>
0.1940

> <Gold.Rescore>
     Score         DG    S(hbond)    S(metal)    S(lipo)     H(rot)  DE(clash)    DE(int)     intcor
     17.95     -19.25       1.92        0.00      84.70       1.00       0.04       1.27       ----

> <Gold.Chemscore.Fitness>
17.9461

> <Gold.Chemscore.DG>
-19.2548

> <Gold.Chemscore.ZeroCoef>
-5.4800

> <Gold.Chemscore.Hbond>
1.9237

> <Gold.Chemscore.Metal>
0.0000

> <Gold.Chemscore.Lipo>
84.6972

> <Gold.Chemscore.Internal_Hbond>
0.0000

> <Gold.Chemscore.DEClash>
0.0424

> <Gold.Chemscore.DEInternal>
1.2662

> <Gold.Chemscore.Rot>
1.0000

> <Gold.Chemscore.Internal.Correction>
   9.000000E+99

> <Gold.Chemscore.Hbonds>
donor molecule, donor type, donor heavy atom, donor atom, acceptor molecule, acceptor atom, score
      L1  H     7    28       P1  7948  0.89
      L1  H    10    29       P1  7948  0.98

> <Gold.Chemscore.Hbond.Weighted>
-6.4252

> <Gold.Chemscore.Metal.Weighted>
-0.0000

> <Gold.Chemscore.Lipo.Weighted>
-9.9096

> <Gold.Chemscore.Internal_Hbond.Weighted>
0.0000

> <Gold.Chemscore.DEClash.Weighted>
0.0424

> <Gold.Chemscore.DEInternal.Weighted>
1.2662

> <Gold.Chemscore.Rot.Weighted>
2.5600

> <Gold.Chemscore.Internal.Correction.Weighted>
   9.000000E+99

> <Gold.Protein.RotatedTorsions>
[ 6907 6896 6895 6894 ] final   67.71 input  -60.11 | X-H torsion
[ 7974 7965 7964 7962 ] final -153.29 input  175.53 | X-H torsion
[ 8008 7997 7996 7995 ] final  -73.63 input   59.86 | X-H torsion
[ 10167 10162 10161 10158 ] final  156.61 input  -65.29 | X-H torsion
[ 10718 10713 10712 10709 ] final -107.05 input   66.30 | X-H torsion
[ 10763 10752 10751 10750 ] final  139.40 input  -60.55 | X-H torsion
[ 11005 11000 10999 10996 ] final  147.50 input  -57.11 | X-H torsion

> <Gold.Protein.ActiveResidues>
 VAL166  LYS551  ARG553  GLY616  TRP617  ASP618  TYR619  PRO620  LYS621  CYS622 
 ASP623  PHE694  ASN695  SER759  ASP760  ASP761  ALA762  ILE779  LEU786  VAL792 
 PHE793  MET794  SER795  GLU796  ALA797  LYS798  CYS799  TRP800  GLU811  SER814 

> <Gold.Protein.RotatedAtoms>
  152.4570  134.5269  159.9798 H   0  0  0  0  0  0  0  0  0  0  0  0  # atno 6907 bound_to 6896
  151.5327  133.3440  159.2929 H   0  0  0  0  0  0  0  0  0  0  0  0  # atno 6908 bound_to 6896
  150.8518  134.7876  159.7077 H   0  0  0  0  0  0  0  0  0  0  0  0  # atno 6909 bound_to 6896
  144.7748  140.4545  143.5881 H   0  0  0  0  0  0  0  0  0  0  0  0  # atno 7974 bound_to 7965
  154.5263  140.0776  156.8264 H   0  0  0  0  0  0  0  0  0  0  0  0  # atno 8008 bound_to 7997
  155.3469  140.3410  155.4221 H   0  0  0  0  0  0  0  0  0  0  0  0  # atno 8009 bound_to 7997
  156.1735  140.1627  156.8392 H   0  0  0  0  0  0  0  0  0  0  0  0  # atno 8010 bound_to 7997
  139.4821  144.4993  151.8192 H   0  0  0  0  0  0  0  0  0  0  0  0  # atno 10167 bound_to 10162
  156.0418  130.5643  150.7767 H   0  0  0  0  0  0  0  0  0  0  0  0  # atno 10718 bound_to 10713
  153.9055  135.3017  155.3448 H   0  0  0  0  0  0  0  0  0  0  0  0  # atno 10763 bound_to 10752
  154.7649  135.4915  153.9538 H   0  0  0  0  0  0  0  0  0  0  0  0  # atno 10764 bound_to 10752
  153.1221  135.6784  153.9418 H   0  0  0  0  0  0  0  0  0  0  0  0  # atno 10765 bound_to 10752
  140.0881  134.9057  157.1607 H   0  0  0  0  0  0  0  0  0  0  0  0  # atno 11005 bound_to 11000
  145.6217  139.1525  143.3018 LP  0  0  0  0  0  0  0  0  0  0  0  0  # atno 17320 bound_to 7965
  146.1920  140.6327  142.9141 LP  0  0  0  0  0  0  0  0  0  0  0  0  # atno 17321 bound_to 7965
  140.4485  144.1888  150.5895 LP  0  0  0  0  0  0  0  0  0  0  0  0  # atno 17342 bound_to 10162
  140.4610  143.2449  151.9220 LP  0  0  0  0  0  0  0  0  0  0  0  0  # atno 17343 bound_to 10162
  157.5246  131.0933  151.0034 LP  0  0  0  0  0  0  0  0  0  0  0  0  # atno 17370 bound_to 10713
  157.0356  130.5729  149.5349 LP  0  0  0  0  0  0  0  0  0  0  0  0  # atno 17371 bound_to 10713
  140.3391  134.2724  155.7215 LP  0  0  0  0  0  0  0  0  0  0  0  0  # atno 17394 bound_to 11000
  141.2069  133.7820  157.0150 LP  0  0  0  0  0  0  0  0  0  0  0  0  # atno 17395 bound_to 11000

$$$$
