AV-unprocessed.smi:1749|AV-procd|sdf|7049|dock5
  -GOLD-   22720 8263D 1   1.00000     0.00000
 Structure written by MMmdl.
 31 32  0  0  0  0  0  0  0  0  2 V2000
  151.9239  145.2261  158.9337 C   0  0  0  0  0  0  0  0  0  0  0  0
  152.3719  143.7665  158.7732 C   0  0  1  0  0  0  0  0  0  0  0  0
  152.4670  143.0522  160.1350 C   0  0  0  0  0  0  0  0  0  0  0  0
  152.9193  141.5927  159.9737 C   0  0  0  0  0  0  0  0  0  0  0  0
  151.9920  140.8250  159.0197 C   0  0  0  0  0  0  0  0  0  0  0  0
  151.8916  141.5241  157.6519 C   0  0  1  0  0  0  0  0  0  0  0  0
  150.9614  140.7875  156.8010 N   0  0  0  0  0  0  0  0  0  0  0  0
  151.2675  140.1102  155.6768 C   0  0  0  0  0  0  0  0  0  0  0  0
  152.4327  140.1072  155.2814 O   0  0  0  0  0  0  0  0  0  0  0  0
  150.2616  139.4606  155.0334 N   0  5  0  0  0  0  0  0  0  0  0  0
  149.1687  140.0943  154.5690 C   0  0  0  0  0  0  0  0  0  0  0  0
  149.0244  141.4276  154.6364 N   0  0  0  0  0  0  0  0  0  0  0  0
  147.8218  141.8740  154.1054 N   0  0  0  0  0  0  0  0  0  0  0  0
  147.0913  140.8619  153.6387 C   0  0  0  0  0  0  0  0  0  0  0  0
  147.8056  139.2721  153.8053 S   0  0  0  0  0  0  0  0  0  0  0  0
  151.4411  142.9906  157.8205 C   0  0  0  0  0  0  0  0  0  0  0  0
  150.9288  145.2900  159.3749 H   0  0  0  0  0  0  0  0  0  0  0  0
  151.8942  145.7348  157.9697 H   0  0  0  0  0  0  0  0  0  0  0  0
  152.6096  145.7784  159.5765 H   0  0  0  0  0  0  0  0  0  0  0  0
  153.3687  143.7777  158.3298 H   0  0  0  0  0  0  0  0  0  0  0  0
  153.1639  143.5805  160.7864 H   0  0  0  0  0  0  0  0  0  0  0  0
  151.4972  143.0785  160.6341 H   0  0  0  0  0  0  0  0  0  0  0  0
  153.9403  141.5658  159.5907 H   0  0  0  0  0  0  0  0  0  0  0  0
  152.9408  141.1004  160.9463 H   0  0  0  0  0  0  0  0  0  0  0  0
  152.3577  139.8053  158.8928 H   0  0  0  0  0  0  0  0  0  0  0  0
  151.0000  140.7441  159.4673 H   0  0  0  0  0  0  0  0  0  0  0  0
  152.8805  141.5076  157.1899 H   0  0  0  0  0  0  0  0  0  0  0  0
  149.9952  140.7804  157.0930 H   0  0  0  0  0  0  0  0  0  0  0  0
  146.1267  141.0521  153.1924 H   0  0  0  0  0  0  0  0  0  0  0  0
  150.4195  143.0189  158.2029 H   0  0  0  0  0  0  0  0  0  0  0  0
  151.4187  143.4859  156.8489 H   0  0  0  0  0  0  0  0  0  0  0  0
  1  2  1  0  0  0  0
  1 17  1  0  0  0  0
  1 18  1  0  0  0  0
  1 19  1  0  0  0  0
  2 16  1  0  0  0  0
  2  3  1  0  0  0  0
  2 20  1  0  0  0  0
  3  4  1  0  0  0  0
  3 21  1  0  0  0  0
  3 22  1  0  0  0  0
  4  5  1  0  0  0  0
  4 23  1  0  0  0  0
  4 24  1  0  0  0  0
  5  6  1  0  0  0  0
  5 25  1  0  0  0  0
  5 26  1  0  0  0  0
  6  7  1  0  0  0  0
  6 16  1  0  0  0  0
  6 27  1  0  0  0  0
  7  8  1  0  0  0  0
  7 28  1  0  0  0  0
  8  9  2  0  0  0  0
  8 10  1  0  0  0  0
 10 11  1  0  0  0  0
 11 15  1  0  0  0  0
 11 12  2  0  0  0  0
 12 13  1  0  0  0  0
 13 14  2  0  0  0  0
 14 15  1  0  0  0  0
 14 29  1  0  0  0  0
 16 30  1  0  0  0  0
 16 31  1  0  0  0  0
M  CHG  1  10  -1
M  END
> <s_m_source_file>
AV-unprocessed.smi

> <i_m_source_file_index>
1749

> <i_lp_mmshare_version>
43012

> <i_f3d_flags>
0

> <s_epik_input>
W0NIM11bQ0BASF0xW0NIMl1bQ0gyXVtDSDJdW0NASF0oW0NIMl0xKVtOSF1DKD1PKVtOSF1jMm5uW2NIXXMy

> <s_epik_cmdline>
J2VwaWtfcHl0aG9uJywgJy1waCcsICc3LjAnLCAnLXRuJywgJzgnLCAnLW1hJywgJzIwMCcsICctbWV0YWxfYmluZGluZycsICctaW1hZScsICc8aW5maWxlLm1hZT4nLCAnLW9tYWUnLCAnPG91dGZpbGUubWFlPic=

> <r_lp_tautomer_probability>
1

> <r_epik_Ionization_Penalty>
4.55442

> <r_epik_Ionization_Penalty_Charging>
4.5081

> <r_epik_Ionization_Penalty_Neutral>
0.0463156

> <r_epik_State_Penalty>
4.50781

> <r_epik_Charging_Adjusted_Penalty>
9.01591

> <i_epik_Tot_Q>
-1

> <i_epik_Tot_abs_Q>
1

> <r_epik_Metal_State_Penalty>
0.823335

> <b_epik_Metal_Only>
1

> <s_lp_Force_Field>
OPLS_2005

> <r_lp_Energy>
8.86437

> <b_lp_Chiralities_Consistent>
1

> <s_lp_Variant>
AV-unprocessed.smi:1749-6

> <Gold.Version>
5.8.1

> <Gold.Id.Protein>
6NUR|6NUR_protein|mol2

> <Gold.PLP.Fitness>
39.0877

> <Gold.PLP.PLP>
-34.8209

> <Gold.PLP.part.hbond>
-2.0681

> <Gold.PLP.part.metal>
0.0000

> <Gold.PLP.part.buried>
-4.9258

> <Gold.PLP.part.nonpolar>
-28.4372

> <Gold.PLP.part.repulsive>
0.4573

> <Gold.PLP.ligand.clash>
0.0000

> <Gold.PLP.ligand.torsion>
0.5821

> <Gold.PLP.Chemscore.Hbond>
1.0420

> <Gold.PLP.Chemscore.CHOScore>
0.7645

> <Gold.PLP.Chemscore.Metal>
0.0000

> <Gold.Chemscore.Hbonds>
donor molecule, donor type, donor heavy atom, donor atom, acceptor molecule, acceptor atom, score
      P1  H  7989  7998       L1     9  0.16
      P1  H  7997  8008       L1     9  0.84
      L1  C    14    29       P1 10175  0.83

> <Gold.PLP.Chemscore.Internal.Correction>
0.0117

> <Gold.Rescore>
     Score         DG    S(hbond)    S(metal)    S(lipo)     H(rot)  DE(clash)    DE(int)     intcor
     14.66     -16.32       0.98        0.00      86.61       1.00       0.07       1.58       ----

> <Gold.Chemscore.Fitness>
14.6637

> <Gold.Chemscore.DG>
-16.3198

> <Gold.Chemscore.ZeroCoef>
-5.4800

> <Gold.Chemscore.Hbond>
0.9778

> <Gold.Chemscore.Metal>
0.0000

> <Gold.Chemscore.Lipo>
86.6143

> <Gold.Chemscore.Internal_Hbond>
0.0000

> <Gold.Chemscore.DEClash>
0.0733

> <Gold.Chemscore.DEInternal>
1.5829

> <Gold.Chemscore.Rot>
1.0000

> <Gold.Chemscore.Internal.Correction>
   9.000000E+99

> <Gold.Chemscore.Hbonds>
donor molecule, donor type, donor heavy atom, donor atom, acceptor molecule, acceptor atom, score
      P1  H  7997  8008       L1     9  0.82

> <Gold.Chemscore.Hbond.Weighted>
-3.2659

> <Gold.Chemscore.Metal.Weighted>
-0.0000

> <Gold.Chemscore.Lipo.Weighted>
-10.1339

> <Gold.Chemscore.Internal_Hbond.Weighted>
0.0000

> <Gold.Chemscore.DEClash.Weighted>
0.0733

> <Gold.Chemscore.DEInternal.Weighted>
1.5829

> <Gold.Chemscore.Rot.Weighted>
2.5600

> <Gold.Chemscore.Internal.Correction.Weighted>
   9.000000E+99

> <Gold.Protein.RotatedTorsions>
[ 6907 6896 6895 6894 ] final  109.01 input  -60.11 | X-H torsion
[ 7974 7965 7964 7962 ] final    9.95 input  175.53 | X-H torsion
[ 8008 7997 7996 7995 ] final  -22.95 input   59.86 | X-H torsion
[ 10167 10162 10161 10158 ] final    0.86 input  -65.29 | X-H torsion
[ 10718 10713 10712 10709 ] final  109.18 input   66.30 | X-H torsion
[ 10763 10752 10751 10750 ] final    8.19 input  -60.55 | X-H torsion
[ 11005 11000 10999 10996 ] final  -27.94 input  -57.11 | X-H torsion

> <Gold.Protein.ActiveResidues>
 VAL166  LYS551  ARG553  GLY616  TRP617  ASP618  TYR619  PRO620  LYS621  CYS622 
 ASP623  PHE694  ASN695  SER759  ASP760  ASP761  ALA762  ILE779  LEU786  VAL792 
 PHE793  MET794  SER795  GLU796  ALA797  LYS798  CYS799  TRP800  GLU811  SER814 

> <Gold.Protein.RotatedAtoms>
  152.5086  133.9005  159.7438 H   0  0  0  0  0  0  0  0  0  0  0  0  # atno 6907 bound_to 6896
  150.9422  133.6635  159.2795 H   0  0  0  0  0  0  0  0  0  0  0  0  # atno 6908 bound_to 6896
  151.3942  135.0966  159.9588 H   0  0  0  0  0  0  0  0  0  0  0  0  # atno 6909 bound_to 6896
  146.2396  139.9707  142.8447 H   0  0  0  0  0  0  0  0  0  0  0  0  # atno 7974 bound_to 7965
  154.4614  140.1994  156.0235 H   0  0  0  0  0  0  0  0  0  0  0  0  # atno 8008 bound_to 7997
  156.0846  140.3266  155.7709 H   0  0  0  0  0  0  0  0  0  0  0  0  # atno 8009 bound_to 7997
  155.5056  140.0557  157.2923 H   0  0  0  0  0  0  0  0  0  0  0  0  # atno 8010 bound_to 7997
  140.6709  143.7051  150.7921 H   0  0  0  0  0  0  0  0  0  0  0  0  # atno 10167 bound_to 10162
  157.6553  131.0908  150.6416 H   0  0  0  0  0  0  0  0  0  0  0  0  # atno 10718 bound_to 10713
  153.2278  135.6889  153.7925 H   0  0  0  0  0  0  0  0  0  0  0  0  # atno 10763 bound_to 10752
  153.7100  135.3284  155.3245 H   0  0  0  0  0  0  0  0  0  0  0  0  # atno 10764 bound_to 10752
  154.8300  135.4588  154.1151 H   0  0  0  0  0  0  0  0  0  0  0  0  # atno 10765 bound_to 10752
  140.9164  133.7427  156.0741 H   0  0  0  0  0  0  0  0  0  0  0  0  # atno 11005 bound_to 11000
  145.1684  140.9708  143.4336 LP  0  0  0  0  0  0  0  0  0  0  0  0  # atno 17320 bound_to 7965
  145.0051  139.3562  143.6148 LP  0  0  0  0  0  0  0  0  0  0  0  0  # atno 17321 bound_to 7965
  140.0736  143.5037  152.2567 LP  0  0  0  0  0  0  0  0  0  0  0  0  # atno 17342 bound_to 10162
  139.5977  144.7572  151.3246 LP  0  0  0  0  0  0  0  0  0  0  0  0  # atno 17343 bound_to 10162
  156.6723  130.4543  149.5653 LP  0  0  0  0  0  0  0  0  0  0  0  0  # atno 17370 bound_to 10713
  156.1989  130.6607  151.1145 LP  0  0  0  0  0  0  0  0  0  0  0  0  # atno 17371 bound_to 10713
  140.8044  134.3472  157.5430 LP  0  0  0  0  0  0  0  0  0  0  0  0  # atno 17394 bound_to 11000
  139.8767  134.9217  156.3281 LP  0  0  0  0  0  0  0  0  0  0  0  0  # atno 17395 bound_to 11000

$$$$
