AV-unprocessed.smi:699|AV-procd|sdf|3403|dock6
  -GOLD-   22720 0383D 1   1.00000     0.00000
 Structure written by MMmdl.
 35 36  0  0  0  0  0  0  0  0  2 V2000
  150.7541  127.5994  153.8676 N   0  0  0  0  0  0  0  0  0  0  0  0
  150.3709  128.4958  154.7800 C   0  0  0  0  0  0  0  0  0  0  0  0
  149.9521  128.1624  155.8869 O   0  0  0  0  0  0  0  0  0  0  0  0
  150.4718  129.9785  154.3897 C   0  0  2  0  0  0  0  0  0  0  0  0
  151.4604  130.7561  155.2747 C   0  0  0  0  0  0  0  0  0  0  0  0
  150.9257  132.1846  155.2924 C   0  0  0  0  0  0  0  0  0  0  0  0
  149.4090  132.0145  155.3155 C   0  0  0  0  0  0  0  0  0  0  0  0
  149.1193  130.7320  154.5169 C   0  0  1  0  0  0  0  0  0  0  0  0
  148.5499  131.0563  153.2096 N   0  0  0  0  0  0  0  0  0  0  0  0
  147.3575  131.6347  153.0066 C   0  0  0  0  0  0  0  0  0  0  0  0
  146.5879  131.9416  153.9164 O   0  0  0  0  0  0  0  0  0  0  0  0
  147.1173  131.8090  151.6953 N   0  0  0  0  0  0  0  0  0  0  0  0
  145.9871  132.4075  151.0743 C   0  0  0  0  0  0  0  0  0  0  0  0
  145.3187  133.4325  151.7803 C   0  0  0  0  0  0  0  0  0  0  0  0
  144.1823  134.0430  151.2113 C   0  0  0  0  0  0  0  0  0  0  0  0
  143.7360  133.6385  150.0028 N   0  3  0  0  0  0  0  0  0  0  0  0
  144.3323  132.6542  149.2967 C   0  0  0  0  0  0  0  0  0  0  0  0
  145.4720  132.0063  149.8150 C   0  0  0  0  0  0  0  0  0  0  0  0
  150.7008  126.6142  154.0819 H   0  0  0  0  0  0  0  0  0  0  0  0
  151.0919  127.9066  152.9673 H   0  0  0  0  0  0  0  0  0  0  0  0
  150.8284  130.0520  153.3602 H   0  0  0  0  0  0  0  0  0  0  0  0
  151.4762  130.3643  156.2931 H   0  0  0  0  0  0  0  0  0  0  0  0
  152.4800  130.7107  154.8907 H   0  0  0  0  0  0  0  0  0  0  0  0
  151.2967  132.7617  156.1399 H   0  0  0  0  0  0  0  0  0  0  0  0
  151.2246  132.7006  154.3792 H   0  0  0  0  0  0  0  0  0  0  0  0
  149.0833  131.8747  156.3474 H   0  0  0  0  0  0  0  0  0  0  0  0
  148.8882  132.8933  154.9327 H   0  0  0  0  0  0  0  0  0  0  0  0
  148.3807  130.1501  155.0730 H   0  0  0  0  0  0  0  0  0  0  0  0
  149.1147  130.8313  152.4037 H   0  0  0  0  0  0  0  0  0  0  0  0
  147.8063  131.4254  151.0649 H   0  0  0  0  0  0  0  0  0  0  0  0
  145.6740  133.7546  152.7486 H   0  0  0  0  0  0  0  0  0  0  0  0
  143.6199  134.8347  151.6845 H   0  0  0  0  0  0  0  0  0  0  0  0
  143.8791  132.4100  148.3468 H   0  0  0  0  0  0  0  0  0  0  0  0
  145.9190  131.2077  149.2428 H   0  0  0  0  0  0  0  0  0  0  0  0
  142.9106  134.0914  149.6090 H   0  0  0  0  0  0  0  0  0  0  0  0
  1  2  1  0  0  0  0
  1 19  1  0  0  0  0
  1 20  1  0  0  0  0
  2  3  2  0  0  0  0
  2  4  1  0  0  0  0
  4  8  1  0  0  0  0
  4  5  1  0  0  0  0
  4 21  1  0  0  0  0
  5  6  1  0  0  0  0
  5 22  1  0  0  0  0
  5 23  1  0  0  0  0
  6  7  1  0  0  0  0
  6 24  1  0  0  0  0
  6 25  1  0  0  0  0
  7  8  1  0  0  0  0
  7 26  1  0  0  0  0
  7 27  1  0  0  0  0
  8  9  1  0  0  0  0
  8 28  1  0  0  0  0
  9 10  1  0  0  0  0
  9 29  1  0  0  0  0
 10 11  2  0  0  0  0
 10 12  1  0  0  0  0
 12 13  1  0  0  0  0
 12 30  1  0  0  0  0
 13 18  1  0  0  0  0
 13 14  2  0  0  0  0
 14 15  1  0  0  0  0
 14 31  1  0  0  0  0
 15 16  2  0  0  0  0
 15 32  1  0  0  0  0
 16 17  1  0  0  0  0
 16 35  1  0  0  0  0
 17 18  2  0  0  0  0
 17 33  1  0  0  0  0
 18 34  1  0  0  0  0
M  CHG  1  16   1
M  END
> <s_m_source_file>
AV-unprocessed.smi

> <i_m_source_file_index>
699

> <i_lp_mmshare_version>
43012

> <i_f3d_flags>
0

> <s_epik_input>
W05IMl1DKD1PKVtDQEBIXTFbQ0gyXVtDSDJdW0NIMl1bQ0BIXTFbTkhdQyg9TylbTkhdYzJbY0hdW2NIXW5bY0hdW2NIXTI=

> <s_epik_cmdline>
J2VwaWtfcHl0aG9uJywgJy1waCcsICc3LjAnLCAnLXRuJywgJzgnLCAnLW1hJywgJzIwMCcsICctbWV0YWxfYmluZGluZycsICctaW1hZScsICc8aW5maWxlLm1hZT4nLCAnLW9tYWUnLCAnPG91dGZpbGUubWFlPic=

> <r_epik_Ionization_Penalty>
1.0332

> <r_epik_Ionization_Penalty_Charging>
1.03318

> <r_epik_Ionization_Penalty_Neutral>
1.91967e-05

> <r_epik_State_Penalty>
1.08452

> <r_epik_Charging_Adjusted_Penalty>
2.11769

> <i_epik_Tot_Q>
1

> <i_epik_Tot_abs_Q>
1

> <r_epik_Metal_State_Penalty>
1.18144

> <b_epik_Metal_Only>
0

> <s_lp_Force_Field>
OPLS_2005

> <r_lp_Energy>
26.3794

> <b_lp_Chiralities_Consistent>
1

> <s_lp_Variant>
AV-unprocessed.smi:699-5

> <Gold.Version>
5.8.1

> <Gold.Id.Protein>
6NUR|6NUR_protein|mol2

> <Gold.PLP.Fitness>
44.6902

> <Gold.PLP.PLP>
-31.2051

> <Gold.PLP.part.hbond>
-4.0000

> <Gold.PLP.part.metal>
0.0000

> <Gold.PLP.part.buried>
-5.0038

> <Gold.PLP.part.nonpolar>
-21.6696

> <Gold.PLP.part.repulsive>
0.2359

> <Gold.PLP.ligand.clash>
0.0000

> <Gold.PLP.ligand.torsion>
0.2531

> <Gold.PLP.Chemscore.Hbond>
4.6630

> <Gold.PLP.Chemscore.CHOScore>
0.0000

> <Gold.PLP.Chemscore.Metal>
0.0000

> <Gold.Chemscore.Hbonds>
donor molecule, donor type, donor heavy atom, donor atom, acceptor molecule, acceptor atom, score
      L1  H     1    20       P1 10737  1.00
      L1  H     9    29       P1 10747  0.68
      L1  H    12    30       P1 10747  0.98
      L1  H    16    35       P1 10186  2.00

> <Gold.PLP.Chemscore.Internal.Correction>
0.0024

> <Gold.Rescore>
     Score         DG    S(hbond)    S(metal)    S(lipo)     H(rot)  DE(clash)    DE(int)     intcor
     18.92     -20.52       3.23        0.00      69.09       1.50       0.00       1.60       ----

> <Gold.Chemscore.Fitness>
18.9166

> <Gold.Chemscore.DG>
-20.5172

> <Gold.Chemscore.ZeroCoef>
-5.4800

> <Gold.Chemscore.Hbond>
3.2347

> <Gold.Chemscore.Metal>
0.0000

> <Gold.Chemscore.Lipo>
69.0851

> <Gold.Chemscore.Internal_Hbond>
0.0000

> <Gold.Chemscore.DEClash>
0.0000

> <Gold.Chemscore.DEInternal>
1.6006

> <Gold.Chemscore.Rot>
1.5038

> <Gold.Chemscore.Internal.Correction>
   9.000000E+99

> <Gold.Chemscore.Hbonds>
donor molecule, donor type, donor heavy atom, donor atom, acceptor molecule, acceptor atom, score
      L1  H     1    20       P1 10737  0.92
      L1  H     9    29       P1 10747  0.17
      L1  H    12    30       P1 10747  0.92
      L1  H    16    35       P1 10186  0.96

> <Gold.Chemscore.Hbond.Weighted>
-10.8039

> <Gold.Chemscore.Metal.Weighted>
-0.0000

> <Gold.Chemscore.Lipo.Weighted>
-8.0830

> <Gold.Chemscore.Internal_Hbond.Weighted>
0.0000

> <Gold.Chemscore.DEClash.Weighted>
0.0000

> <Gold.Chemscore.DEInternal.Weighted>
1.6006

> <Gold.Chemscore.Rot.Weighted>
3.8496

> <Gold.Chemscore.Internal.Correction.Weighted>
   9.000000E+99

> <Gold.Protein.RotatedTorsions>
[ 6907 6896 6895 6894 ] final  109.93 input  -60.11 | X-H torsion
[ 7974 7965 7964 7962 ] final  109.71 input  175.53 | X-H torsion
[ 8008 7997 7996 7995 ] final -127.37 input   59.86 | X-H torsion
[ 10167 10162 10161 10158 ] final  -91.01 input  -65.29 | X-H torsion
[ 10718 10713 10712 10709 ] final -156.81 input   66.30 | X-H torsion
[ 10763 10752 10751 10750 ] final  123.26 input  -60.55 | X-H torsion
[ 11005 11000 10999 10996 ] final -115.14 input  -57.11 | X-H torsion

> <Gold.Protein.ActiveResidues>
 VAL166  LYS551  ARG553  GLY616  TRP617  ASP618  TYR619  PRO620  LYS621  CYS622 
 ASP623  PHE694  ASN695  SER759  ASP760  ASP761  ALA762  ILE779  LEU786  VAL792 
 PHE793  MET794  SER795  GLU796  ALA797  LYS798  CYS799  TRP800  GLU811  SER814 

> <Gold.Protein.RotatedAtoms>
  152.5044  133.8874  159.7376 H   0  0  0  0  0  0  0  0  0  0  0  0  # atno 6907 bound_to 6896
  150.9321  133.6746  159.2815 H   0  0  0  0  0  0  0  0  0  0  0  0  # atno 6908 bound_to 6896
  151.4087  135.0986  159.9631 H   0  0  0  0  0  0  0  0  0  0  0  0  # atno 6909 bound_to 6896
  145.2643  139.2690  143.4000 H   0  0  0  0  0  0  0  0  0  0  0  0  # atno 7974 bound_to 7965
  155.2451  140.0430  157.2980 H   0  0  0  0  0  0  0  0  0  0  0  0  # atno 8008 bound_to 7997
  154.5804  140.2399  155.8032 H   0  0  0  0  0  0  0  0  0  0  0  0  # atno 8009 bound_to 7997
  156.2188  140.2976  155.9912 H   0  0  0  0  0  0  0  0  0  0  0  0  # atno 8010 bound_to 7997
  140.3491  143.2901  151.9747 H   0  0  0  0  0  0  0  0  0  0  0  0  # atno 10167 bound_to 10162
  156.5317  130.8523  151.2718 H   0  0  0  0  0  0  0  0  0  0  0  0  # atno 10718 bound_to 10713
  153.6427  135.3376  155.3076 H   0  0  0  0  0  0  0  0  0  0  0  0  # atno 10763 bound_to 10752
  154.8556  135.4322  154.1988 H   0  0  0  0  0  0  0  0  0  0  0  0  # atno 10764 bound_to 10752
  153.2911  135.7017  153.7367 H   0  0  0  0  0  0  0  0  0  0  0  0  # atno 10765 bound_to 10752
  141.0507  133.9692  157.2841 H   0  0  0  0  0  0  0  0  0  0  0  0  # atno 11005 bound_to 11000
  146.3266  140.3068  142.8624 LP  0  0  0  0  0  0  0  0  0  0  0  0  # atno 17320 bound_to 7965
  144.9391  140.8059  143.5642 LP  0  0  0  0  0  0  0  0  0  0  0  0  # atno 17321 bound_to 7965
  139.4829  144.6091  151.7466 LP  0  0  0  0  0  0  0  0  0  0  0  0  # atno 17342 bound_to 10162
  140.5236  144.0841  150.6030 LP  0  0  0  0  0  0  0  0  0  0  0  0  # atno 17343 bound_to 10162
  157.7420  130.9882  150.2489 LP  0  0  0  0  0  0  0  0  0  0  0  0  # atno 17370 bound_to 10713
  156.3054  130.3764  149.7711 LP  0  0  0  0  0  0  0  0  0  0  0  0  # atno 17371 bound_to 10713
  139.9348  135.0197  156.8520 LP  0  0  0  0  0  0  0  0  0  0  0  0  # atno 17394 bound_to 11000
  140.6061  134.0126  155.7557 LP  0  0  0  0  0  0  0  0  0  0  0  0  # atno 17395 bound_to 11000

$$$$
