AV-unprocessed.smi:2383|AV-procd|sdf|9460|dock2
  -GOLD-   2272013 83D 1   1.00000     0.00000
 Structure written by MMmdl.
 37 38  0  0  0  0  0  0  0  0  1 V2000
  153.4304  141.2340  160.5472 C   0  0  0  0  0  0  0  0  0  0  0  0
  152.6597  142.4050  159.9747 C   0  0  0  0  0  0  0  0  0  0  0  0
  152.8006  143.6990  160.5135 C   0  0  0  0  0  0  0  0  0  0  0  0
  152.0588  144.7429  159.9326 C   0  0  0  0  0  0  0  0  0  0  0  0
  151.2132  144.4526  158.8447 C   0  0  0  0  0  0  0  0  0  0  0  0
  151.1296  143.1262  158.3638 C   0  0  0  0  0  0  0  0  0  0  0  0
  150.2506  142.9382  157.2641 N   0  0  0  0  0  0  0  0  0  0  0  0
  149.6772  141.7965  156.8441 C   0  0  0  0  0  0  0  0  0  0  0  0
  149.8249  140.6907  157.3654 O   0  0  0  0  0  0  0  0  0  0  0  0
  148.9093  142.0080  155.7651 N   0  0  0  0  0  0  0  0  0  0  0  0
  148.1448  140.9826  155.0610 C   0  0  2  0  0  0  0  0  0  0  0  0
  149.0104  139.7285  154.8174 C   0  0  0  0  0  0  0  0  0  0  0  0
  148.2465  138.6671  154.0097 C   0  0  0  0  0  0  0  0  0  0  0  0
  147.7312  139.2464  152.6813 C   0  0  1  0  0  0  0  0  0  0  0  0
  146.9796  138.2653  151.9987 O   0  0  0  0  0  0  0  0  0  0  0  0
  146.8576  140.4893  152.9224 C   0  0  0  0  0  0  0  0  0  0  0  0
  147.6198  141.5528  153.7295 C   0  0  0  0  0  0  0  0  0  0  0  0
  151.8492  142.1262  158.9311 N   0  0  0  0  0  0  0  0  0  0  0  0
  153.9426  141.5110  161.4690 H   0  0  0  0  0  0  0  0  0  0  0  0
  154.1770  140.8879  159.8321 H   0  0  0  0  0  0  0  0  0  0  0  0
  152.7567  140.4057  160.7693 H   0  0  0  0  0  0  0  0  0  0  0  0
  153.4586  143.8895  161.3487 H   0  0  0  0  0  0  0  0  0  0  0  0
  152.1368  145.7503  160.3141 H   0  0  0  0  0  0  0  0  0  0  0  0
  150.6370  145.2436  158.3870 H   0  0  0  0  0  0  0  0  0  0  0  0
  150.0346  143.7696  156.7347 H   0  0  0  0  0  0  0  0  0  0  0  0
  148.8471  142.9482  155.4029 H   0  0  0  0  0  0  0  0  0  0  0  0
  147.2832  140.7028  155.6705 H   0  0  0  0  0  0  0  0  0  0  0  0
  149.9196  140.0048  154.2815 H   0  0  0  0  0  0  0  0  0  0  0  0
  149.3311  139.3000  155.7676 H   0  0  0  0  0  0  0  0  0  0  0  0
  148.8952  137.8111  153.8205 H   0  0  0  0  0  0  0  0  0  0  0  0
  147.4094  138.2966  154.6033 H   0  0  0  0  0  0  0  0  0  0  0  0
  148.5794  139.5172  152.0512 H   0  0  0  0  0  0  0  0  0  0  0  0
  147.5747  137.6184  151.6512 H   0  0  0  0  0  0  0  0  0  0  0  0
  146.5338  140.9111  151.9701 H   0  0  0  0  0  0  0  0  0  0  0  0
  145.9514  140.2082  153.4609 H   0  0  0  0  0  0  0  0  0  0  0  0
  146.9668  142.4055  153.9192 H   0  0  0  0  0  0  0  0  0  0  0  0
  148.4528  141.9281  153.1331 H   0  0  0  0  0  0  0  0  0  0  0  0
  1  2  1  0  0  0  0
  1 19  1  0  0  0  0
  1 20  1  0  0  0  0
  1 21  1  0  0  0  0
  2 18  1  0  0  0  0
  2  3  2  0  0  0  0
  3  4  1  0  0  0  0
  3 22  1  0  0  0  0
  4  5  2  0  0  0  0
  4 23  1  0  0  0  0
  5  6  1  0  0  0  0
  5 24  1  0  0  0  0
  6  7  1  0  0  0  0
  6 18  2  0  0  0  0
  7  8  1  0  0  0  0
  7 25  1  0  0  0  0
  8  9  2  0  0  0  0
  8 10  1  0  0  0  0
 10 11  1  0  0  0  0
 10 26  1  0  0  0  0
 11 17  1  0  0  0  0
 11 12  1  0  0  0  0
 11 27  1  0  0  0  0
 12 13  1  0  0  0  0
 12 28  1  0  0  0  0
 12 29  1  0  0  0  0
 13 14  1  0  0  0  0
 13 30  1  0  0  0  0
 13 31  1  0  0  0  0
 14 15  1  0  0  0  0
 14 16  1  0  0  0  0
 14 32  1  0  0  0  0
 15 33  1  0  0  0  0
 16 17  1  0  0  0  0
 16 34  1  0  0  0  0
 16 35  1  0  0  0  0
 17 36  1  0  0  0  0
 17 37  1  0  0  0  0
M  END
> <s_m_source_file>
AV-unprocessed.smi

> <i_m_source_file_index>
2383

> <i_lp_mmshare_version>
43012

> <i_f3d_flags>
0

> <s_epik_input>
W0NIM11jMVtjSF1bY0hdW2NIXWMobjEpW05IXUMoPU8pW05IXVtDQEBIXTJbQ0gyXVtDSDJdW0NAQEhdKFtPSF0pW0NIMl1bQ0gyXTI=

> <s_epik_cmdline>
J2VwaWtfcHl0aG9uJywgJy1waCcsICc3LjAnLCAnLXRuJywgJzgnLCAnLW1hJywgJzIwMCcsICctbWV0YWxfYmluZGluZycsICctaW1hZScsICc8aW5maWxlLm1hZT4nLCAnLW9tYWUnLCAnPG91dGZpbGUubWFlPic=

> <r_lp_tautomer_probability>
1

> <r_epik_Ionization_Penalty>
9.15533e-05

> <r_epik_Ionization_Penalty_Charging>
0

> <r_epik_Ionization_Penalty_Neutral>
9.15533e-05

> <r_epik_State_Penalty>
-0

> <r_epik_Charging_Adjusted_Penalty>
0

> <i_epik_Tot_Q>
0

> <i_epik_Tot_abs_Q>
0

> <r_epik_Metal_State_Penalty>
-0

> <b_epik_Metal_Only>
0

> <s_lp_Force_Field>
OPLS_2005

> <r_lp_Energy>
9.20264

> <b_lp_Chiralities_Consistent>
1

> <s_lp_Variant>
AV-unprocessed.smi:2383-1

> <Gold.Version>
5.8.1

> <Gold.Id.Protein>
6NUR|6NUR_protein|mol2

> <Gold.PLP.Fitness>
43.6786

> <Gold.PLP.PLP>
-35.1570

> <Gold.PLP.part.hbond>
-3.3128

> <Gold.PLP.part.metal>
0.0000

> <Gold.PLP.part.buried>
-1.4883

> <Gold.PLP.part.nonpolar>
-31.3598

> <Gold.PLP.part.repulsive>
0.1451

> <Gold.PLP.ligand.clash>
0.0000

> <Gold.PLP.ligand.torsion>
0.2288

> <Gold.PLP.Chemscore.Hbond>
2.9920

> <Gold.PLP.Chemscore.CHOScore>
0.0000

> <Gold.PLP.Chemscore.Metal>
0.0000

> <Gold.Chemscore.Hbonds>
donor molecule, donor type, donor heavy atom, donor atom, acceptor molecule, acceptor atom, score
      L1  H     7    25       P1  8028  1.00
      L1  H    10    26       P1  8028  1.00
      L1  H    15    33       P1  7948  1.00

> <Gold.PLP.Chemscore.Internal.Correction>
0.0033

> <Gold.Rescore>
     Score         DG    S(hbond)    S(metal)    S(lipo)     H(rot)  DE(clash)    DE(int)     intcor
     18.55     -22.54       2.93        0.00      93.55       1.44       1.17       2.82       ----

> <Gold.Chemscore.Fitness>
18.5468

> <Gold.Chemscore.DG>
-22.5409

> <Gold.Chemscore.ZeroCoef>
-5.4800

> <Gold.Chemscore.Hbond>
2.9348

> <Gold.Chemscore.Metal>
0.0000

> <Gold.Chemscore.Lipo>
93.5516

> <Gold.Chemscore.Internal_Hbond>
0.0000

> <Gold.Chemscore.DEClash>
1.1718

> <Gold.Chemscore.DEInternal>
2.8223

> <Gold.Chemscore.Rot>
1.4402

> <Gold.Chemscore.Internal.Correction>
   9.000000E+99

> <Gold.Chemscore.Hbonds>
donor molecule, donor type, donor heavy atom, donor atom, acceptor molecule, acceptor atom, score
      L1  H     7    25       P1  8028  0.95
      L1  H    10    26       P1  8028  0.95
      L1  H    15    33       P1  7948  0.97

> <Gold.Chemscore.Hbond.Weighted>
-9.8022

> <Gold.Chemscore.Metal.Weighted>
-0.0000

> <Gold.Chemscore.Lipo.Weighted>
-10.9455

> <Gold.Chemscore.Internal_Hbond.Weighted>
0.0000

> <Gold.Chemscore.DEClash.Weighted>
1.1718

> <Gold.Chemscore.DEInternal.Weighted>
2.8223

> <Gold.Chemscore.Rot.Weighted>
3.6869

> <Gold.Chemscore.Internal.Correction.Weighted>
   9.000000E+99

> <Gold.Protein.RotatedTorsions>
[ 6907 6896 6895 6894 ] final   99.37 input  -60.11 | X-H torsion
[ 7974 7965 7964 7962 ] final  -21.35 input  175.53 | X-H torsion
[ 8008 7997 7996 7995 ] final   21.31 input   59.86 | X-H torsion
[ 10167 10162 10161 10158 ] final  -82.32 input  -65.29 | X-H torsion
[ 10718 10713 10712 10709 ] final  134.07 input   66.30 | X-H torsion
[ 10763 10752 10751 10750 ] final   79.02 input  -60.55 | X-H torsion
[ 11005 11000 10999 10996 ] final   85.41 input  -57.11 | X-H torsion

> <Gold.Protein.ActiveResidues>
 VAL166  LYS551  ARG553  GLY616  TRP617  ASP618  TYR619  PRO620  LYS621  CYS622 
 ASP623  PHE694  ASN695  SER759  ASP760  ASP761  ALA762  ILE779  LEU786  VAL792 
 PHE793  MET794  SER795  GLU796  ALA797  LYS798  CYS799  TRP800  GLU811  SER814 

> <Gold.Protein.RotatedAtoms>
  152.5393  134.0438  159.8079 H   0  0  0  0  0  0  0  0  0  0  0  0  # atno 6907 bound_to 6896
  151.0590  133.5552  159.2643 H   0  0  0  0  0  0  0  0  0  0  0  0  # atno 6908 bound_to 6896
  151.2458  135.0613  159.9096 H   0  0  0  0  0  0  0  0  0  0  0  0  # atno 6909 bound_to 6896
  146.1738  140.4329  142.8522 H   0  0  0  0  0  0  0  0  0  0  0  0  # atno 7974 bound_to 7965
  154.9486  140.3062  155.5086 H   0  0  0  0  0  0  0  0  0  0  0  0  # atno 8008 bound_to 7997
  156.2989  140.2323  156.4500 H   0  0  0  0  0  0  0  0  0  0  0  0  # atno 8009 bound_to 7997
  154.8076  140.0430  157.1307 H   0  0  0  0  0  0  0  0  0  0  0  0  # atno 8010 bound_to 7997
  140.4331  143.2541  151.8732 H   0  0  0  0  0  0  0  0  0  0  0  0  # atno 10167 bound_to 10162
  157.4709  131.1080  150.9803 H   0  0  0  0  0  0  0  0  0  0  0  0  # atno 10718 bound_to 10713
  153.0920  135.4855  154.8707 H   0  0  0  0  0  0  0  0  0  0  0  0  # atno 10763 bound_to 10752
  154.7280  135.3054  154.8941 H   0  0  0  0  0  0  0  0  0  0  0  0  # atno 10764 bound_to 10752
  153.9586  135.6815  153.4798 H   0  0  0  0  0  0  0  0  0  0  0  0  # atno 10765 bound_to 10752
  139.8972  134.8285  156.2579 H   0  0  0  0  0  0  0  0  0  0  0  0  # atno 11005 bound_to 11000
  144.8203  140.6539  143.6357 LP  0  0  0  0  0  0  0  0  0  0  0  0  # atno 17320 bound_to 7965
  145.4269  139.1555  143.4043 LP  0  0  0  0  0  0  0  0  0  0  0  0  # atno 17321 bound_to 7965
  139.4786  144.5313  151.8662 LP  0  0  0  0  0  0  0  0  0  0  0  0  # atno 17342 bound_to 10162
  140.4405  144.1993  150.5891 LP  0  0  0  0  0  0  0  0  0  0  0  0  # atno 17343 bound_to 10162
  157.0569  130.5809  149.5379 LP  0  0  0  0  0  0  0  0  0  0  0  0  # atno 17370 bound_to 10713
  156.0073  130.5161  150.7872 LP  0  0  0  0  0  0  0  0  0  0  0  0  # atno 17371 bound_to 10713
  141.0182  133.7056  156.1223 LP  0  0  0  0  0  0  0  0  0  0  0  0  # atno 17394 bound_to 11000
  140.7272  134.4294  157.5569 LP  0  0  0  0  0  0  0  0  0  0  0  0  # atno 17395 bound_to 11000

$$$$
