AV-unprocessed.smi:1276|AV-procd|sdf|5344|dock2
  -GOLD-   22720 4473D 1   1.00000     0.00000
 Structure written by MMmdl.
 44 45  0  0  0  0  0  0  0  0  1 V2000
  145.5857  144.0891  153.2017 C   0  0  0  0  0  0  0  0  0  0  0  0
  146.1174  143.1473  154.2481 C   0  0  0  0  0  0  0  0  0  0  0  0
  147.2586  142.5922  154.0030 N   0  0  0  0  0  0  0  0  0  0  0  0
  147.8343  141.7072  154.8941 N   0  0  0  0  0  0  0  0  0  0  0  0
  149.1197  141.1529  154.4438 C   0  0  0  0  0  0  0  0  0  0  0  0
  150.1961  141.1497  155.5393 C   0  0  0  0  0  0  0  0  0  0  0  0
  150.8842  140.1486  155.7438 O   0  0  0  0  0  0  0  0  0  0  0  0
  150.3435  142.2960  156.2218 N   0  0  0  0  0  0  0  0  0  0  0  0
  151.2995  142.5248  157.3035 C   0  0  0  0  0  0  0  0  0  0  0  0
  151.2870  141.2842  158.2223 C   0  0  0  0  0  0  0  0  0  0  0  0
  151.9461  141.4263  159.6066 C   0  0  0  0  0  0  0  0  0  0  0  0
  153.1820  142.3370  159.6728 C   0  0  0  0  0  0  0  0  0  0  0  0
  152.8155  143.8171  159.8732 C   0  0  0  0  0  0  0  0  0  0  0  0
  152.2471  144.5136  158.6283 C   0  0  0  0  0  0  0  0  0  0  0  0
  150.9937  143.8574  158.0223 C   0  0  0  0  0  0  0  0  0  0  0  0
  147.2881  141.3441  156.0904 C   0  0  0  0  0  0  0  0  0  0  0  0
  147.8408  140.5550  156.8585 O   0  0  0  0  0  0  0  0  0  0  0  0
  145.9961  141.9780  156.3620 C   0  0  0  0  0  0  0  0  0  0  0  0
  145.3871  141.6214  157.6029 C   0  0  0  0  0  0  0  0  0  0  0  0
  144.9117  141.3273  158.6164 N   0  0  0  0  0  0  0  0  0  0  0  0
  145.4178  142.8439  155.4925 C   0  0  0  0  0  0  0  0  0  0  0  0
  144.0775  143.5272  155.7267 C   0  0  0  0  0  0  0  0  0  0  0  0
  145.4778  145.0954  153.6066 H   0  0  0  0  0  0  0  0  0  0  0  0
  144.6094  143.7604  152.8450 H   0  0  0  0  0  0  0  0  0  0  0  0
  146.2472  144.1516  152.3363 H   0  0  0  0  0  0  0  0  0  0  0  0
  148.9874  140.1257  154.0995 H   0  0  0  0  0  0  0  0  0  0  0  0
  149.4811  141.7072  153.5755 H   0  0  0  0  0  0  0  0  0  0  0  0
  149.7391  143.0682  155.9813 H   0  0  0  0  0  0  0  0  0  0  0  0
  152.2939  142.5936  156.8583 H   0  0  0  0  0  0  0  0  0  0  0  0
  150.2598  140.9517  158.3804 H   0  0  0  0  0  0  0  0  0  0  0  0
  151.7750  140.4685  157.6869 H   0  0  0  0  0  0  0  0  0  0  0  0
  151.2043  141.7759  160.3259 H   0  0  0  0  0  0  0  0  0  0  0  0
  152.2237  140.4285  159.9486 H   0  0  0  0  0  0  0  0  0  0  0  0
  153.7794  142.0274  160.5311 H   0  0  0  0  0  0  0  0  0  0  0  0
  153.8218  142.2004  158.8004 H   0  0  0  0  0  0  0  0  0  0  0  0
  152.1134  143.9154  160.7018 H   0  0  0  0  0  0  0  0  0  0  0  0
  153.7109  144.3568  160.1831 H   0  0  0  0  0  0  0  0  0  0  0  0
  152.0024  145.5412  158.8990 H   0  0  0  0  0  0  0  0  0  0  0  0
  153.0233  144.5903  157.8660 H   0  0  0  0  0  0  0  0  0  0  0  0
  150.5837  144.5681  157.3031 H   0  0  0  0  0  0  0  0  0  0  0  0
  150.2185  143.7236  158.7777 H   0  0  0  0  0  0  0  0  0  0  0  0
  143.6458  143.2687  156.6930 H   0  0  0  0  0  0  0  0  0  0  0  0
  143.3607  143.2350  154.9587 H   0  0  0  0  0  0  0  0  0  0  0  0
  144.1889  144.6113  155.6994 H   0  0  0  0  0  0  0  0  0  0  0  0
  1  2  1  0  0  0  0
  1 23  1  0  0  0  0
  1 24  1  0  0  0  0
  1 25  1  0  0  0  0
  2 21  1  0  0  0  0
  2  3  2  0  0  0  0
  3  4  1  0  0  0  0
  4  5  1  0  0  0  0
  4 16  1  0  0  0  0
  5  6  1  0  0  0  0
  5 26  1  0  0  0  0
  5 27  1  0  0  0  0
  6  7  2  0  0  0  0
  6  8  1  0  0  0  0
  8  9  1  0  0  0  0
  8 28  1  0  0  0  0
  9 15  1  0  0  0  0
  9 10  1  0  0  0  0
  9 29  1  0  0  0  0
 10 11  1  0  0  0  0
 10 30  1  0  0  0  0
 10 31  1  0  0  0  0
 11 12  1  0  0  0  0
 11 32  1  0  0  0  0
 11 33  1  0  0  0  0
 12 13  1  0  0  0  0
 12 34  1  0  0  0  0
 12 35  1  0  0  0  0
 13 14  1  0  0  0  0
 13 36  1  0  0  0  0
 13 37  1  0  0  0  0
 14 15  1  0  0  0  0
 14 38  1  0  0  0  0
 14 39  1  0  0  0  0
 15 40  1  0  0  0  0
 15 41  1  0  0  0  0
 16 17  2  0  0  0  0
 16 18  1  0  0  0  0
 18 19  1  0  0  0  0
 18 21  2  0  0  0  0
 19 20  3  0  0  0  0
 21 22  1  0  0  0  0
 22 42  1  0  0  0  0
 22 43  1  0  0  0  0
 22 44  1  0  0  0  0
M  END
> <s_m_source_file>
AV-unprocessed.smi

> <i_m_source_file_index>
1276

> <i_lp_mmshare_version>
43012

> <i_f3d_flags>
0

> <s_epik_input>
TiNDYyhjMVtDSDNdKWMoPU8pbihuYzFbQ0gzXSlbQ0gyXUMoPU8pW05IXVtDSF0yW0NIMl1bQ0gyXVtDSDJdW0NIMl1bQ0gyXVtDSDJdMg==

> <s_epik_cmdline>
J2VwaWtfcHl0aG9uJywgJy1waCcsICc3LjAnLCAnLXRuJywgJzgnLCAnLW1hJywgJzIwMCcsICctbWV0YWxfYmluZGluZycsICctaW1hZScsICc8aW5maWxlLm1hZT4nLCAnLW9tYWUnLCAnPG91dGZpbGUubWFlPic=

> <r_lp_tautomer_probability>
1

> <r_epik_Ionization_Penalty>
2.02378e-08

> <r_epik_Ionization_Penalty_Charging>
2.27609e-11

> <r_epik_Ionization_Penalty_Neutral>
2.0215e-08

> <r_epik_State_Penalty>
-0

> <r_epik_Charging_Adjusted_Penalty>
2.27609e-11

> <i_epik_Tot_Q>
0

> <i_epik_Tot_abs_Q>
0

> <r_epik_Metal_State_Penalty>
-0

> <b_epik_Metal_Only>
0

> <s_lp_Force_Field>
OPLS_2005

> <r_lp_Energy>
30.1422

> <b_lp_Chiralities_Consistent>
1

> <s_lp_Variant>
AV-unprocessed.smi:1276-1

> <Gold.Version>
5.8.1

> <Gold.Id.Protein>
6NUR|6NUR_protein|mol2

> <Gold.PLP.Fitness>
45.6076

> <Gold.PLP.PLP>
-43.5709

> <Gold.PLP.part.hbond>
-1.1142

> <Gold.PLP.part.metal>
0.0000

> <Gold.PLP.part.buried>
-4.1584

> <Gold.PLP.part.nonpolar>
-37.0550

> <Gold.PLP.part.repulsive>
0.5014

> <Gold.PLP.ligand.clash>
0.0000

> <Gold.PLP.ligand.torsion>
0.4936

> <Gold.PLP.Chemscore.Hbond>
1.0000

> <Gold.PLP.Chemscore.CHOScore>
0.0000

> <Gold.PLP.Chemscore.Metal>
0.0000

> <Gold.Chemscore.Hbonds>
donor molecule, donor type, donor heavy atom, donor atom, acceptor molecule, acceptor atom, score
      L1  H     8    28       P1  8028  1.00

> <Gold.PLP.Chemscore.Internal.Correction>
0.0240

> <Gold.Rescore>
     Score         DG    S(hbond)    S(metal)    S(lipo)     H(rot)  DE(clash)    DE(int)     intcor
     14.85     -17.65       0.99        0.00     107.74       1.46       0.29       2.51       ----

> <Gold.Chemscore.Fitness>
14.8474

> <Gold.Chemscore.DG>
-17.6534

> <Gold.Chemscore.ZeroCoef>
-5.4800

> <Gold.Chemscore.Hbond>
0.9909

> <Gold.Chemscore.Metal>
0.0000

> <Gold.Chemscore.Lipo>
107.7376

> <Gold.Chemscore.Internal_Hbond>
0.0000

> <Gold.Chemscore.DEClash>
0.2912

> <Gold.Chemscore.DEInternal>
2.5149

> <Gold.Chemscore.Rot>
1.4615

> <Gold.Chemscore.Internal.Correction>
   9.000000E+99

> <Gold.Chemscore.Hbonds>
donor molecule, donor type, donor heavy atom, donor atom, acceptor molecule, acceptor atom, score
      L1  H     8    28       P1  8028  1.00

> <Gold.Chemscore.Hbond.Weighted>
-3.3095

> <Gold.Chemscore.Metal.Weighted>
-0.0000

> <Gold.Chemscore.Lipo.Weighted>
-12.6053

> <Gold.Chemscore.Internal_Hbond.Weighted>
0.0000

> <Gold.Chemscore.DEClash.Weighted>
0.2912

> <Gold.Chemscore.DEInternal.Weighted>
2.5149

> <Gold.Chemscore.Rot.Weighted>
3.7414

> <Gold.Chemscore.Internal.Correction.Weighted>
   9.000000E+99

> <Gold.Protein.RotatedTorsions>
[ 6907 6896 6895 6894 ] final -133.69 input  -60.11 | X-H torsion
[ 7974 7965 7964 7962 ] final -141.12 input  175.53 | X-H torsion
[ 8008 7997 7996 7995 ] final  -33.96 input   59.86 | X-H torsion
[ 10167 10162 10161 10158 ] final  132.02 input  -65.29 | X-H torsion
[ 10718 10713 10712 10709 ] final  100.98 input   66.30 | X-H torsion
[ 10763 10752 10751 10750 ] final  -45.19 input  -60.55 | X-H torsion
[ 11005 11000 10999 10996 ] final    5.10 input  -57.11 | X-H torsion

> <Gold.Protein.ActiveResidues>
 VAL166  LYS551  ARG553  GLY616  TRP617  ASP618  TYR619  PRO620  LYS621  CYS622 
 ASP623  PHE694  ASN695  SER759  ASP760  ASP761  ALA762  ILE779  LEU786  VAL792 
 PHE793  MET794  SER795  GLU796  ALA797  LYS798  CYS799  TRP800  GLU811  SER814 

> <Gold.Protein.RotatedAtoms>
  150.9770  133.6285  159.2728 H   0  0  0  0  0  0  0  0  0  0  0  0  # atno 6907 bound_to 6896
  151.3553  135.0892  159.9426 H   0  0  0  0  0  0  0  0  0  0  0  0  # atno 6908 bound_to 6896
  152.5202  133.9354  159.7655 H   0  0  0  0  0  0  0  0  0  0  0  0  # atno 6909 bound_to 6896
  144.8544  140.6118  143.5369 H   0  0  0  0  0  0  0  0  0  0  0  0  # atno 7974 bound_to 7965
  154.4134  140.1696  156.1973 H   0  0  0  0  0  0  0  0  0  0  0  0  # atno 8008 bound_to 7997
  155.9553  140.3398  155.6420 H   0  0  0  0  0  0  0  0  0  0  0  0  # atno 8009 bound_to 7997
  155.6817  140.0723  157.2473 H   0  0  0  0  0  0  0  0  0  0  0  0  # atno 8010 bound_to 7997
  139.5358  144.6680  151.4791 H   0  0  0  0  0  0  0  0  0  0  0  0  # atno 10167 bound_to 10162
  157.6841  131.0713  150.5183 H   0  0  0  0  0  0  0  0  0  0  0  0  # atno 10718 bound_to 10713
  154.0245  135.6665  153.4775 H   0  0  0  0  0  0  0  0  0  0  0  0  # atno 10763 bound_to 10752
  153.0566  135.5052  154.7991 H   0  0  0  0  0  0  0  0  0  0  0  0  # atno 10764 bound_to 10752
  154.6916  135.3062  154.9435 H   0  0  0  0  0  0  0  0  0  0  0  0  # atno 10765 bound_to 10752
  140.5745  134.0071  155.8022 H   0  0  0  0  0  0  0  0  0  0  0  0  # atno 11005 bound_to 11000
  145.4436  139.1532  143.3957 LP  0  0  0  0  0  0  0  0  0  0  0  0  # atno 17320 bound_to 7965
  146.2811  140.4559  142.8776 LP  0  0  0  0  0  0  0  0  0  0  0  0  # atno 17321 bound_to 7965
  140.6563  143.8592  150.6839 LP  0  0  0  0  0  0  0  0  0  0  0  0  # atno 17342 bound_to 10162
  140.1972  143.3988  152.1819 LP  0  0  0  0  0  0  0  0  0  0  0  0  # atno 17343 bound_to 10162
  156.5498  130.4229  149.6113 LP  0  0  0  0  0  0  0  0  0  0  0  0  # atno 17370 bound_to 10713
  156.2913  130.7125  151.1975 LP  0  0  0  0  0  0  0  0  0  0  0  0  # atno 17371 bound_to 10713
  141.1035  133.9730  157.3037 LP  0  0  0  0  0  0  0  0  0  0  0  0  # atno 17394 bound_to 11000
  139.9346  135.0197  156.8514 LP  0  0  0  0  0  0  0  0  0  0  0  0  # atno 17395 bound_to 11000

$$$$
