AV-unprocessed.smi:2166|AV-procd|sdf|8815|dock5
  -GOLD-   2272012 03D 1   1.00000     0.00000
 Structure written by MMmdl.
 38 39  0  0  0  0  0  0  0  0  1 V2000
  145.5281  136.3640  151.5219 C   0  0  0  0  0  0  0  0  0  0  0  0
  145.4995  137.6053  152.8444 S   0  0  0  0  0  0  0  0  0  0  0  0
  147.0556  138.4907  152.5271 C   0  0  1  0  0  0  0  0  0  0  0  0
  146.8791  139.4726  151.3576 C   0  0  0  0  0  0  0  0  0  0  0  0
  147.5737  139.2035  153.7835 C   0  0  0  0  0  0  0  0  0  0  0  0
  146.8175  139.3910  154.7373 O   0  0  0  0  0  0  0  0  0  0  0  0
  148.8669  139.5777  153.7503 N   0  0  0  0  0  0  0  0  0  0  0  0
  149.6260  140.2168  154.7656 C   0  0  0  0  0  0  0  0  0  0  0  0
  148.8859  141.0505  155.6300 C   0  0  0  0  0  0  0  0  0  0  0  0
  149.5484  141.7391  156.6635 C   0  0  0  0  0  0  0  0  0  0  0  0
  150.9442  141.5887  156.8215 C   0  0  0  0  0  0  0  0  0  0  0  0
  151.6278  142.2757  157.8480 N   0  0  0  0  0  0  0  0  0  0  0  0
  151.6157  143.7357  157.8271 C   0  0  0  0  0  0  0  0  0  0  0  0
  152.6414  144.2945  158.8282 C   0  0  0  0  0  0  0  0  0  0  0  0
  152.3864  143.7618  160.1234 O   0  0  0  0  0  0  0  0  0  0  0  0
  152.5138  142.3438  160.1461 C   0  0  0  0  0  0  0  0  0  0  0  0
  151.4881  141.7119  159.1886 C   0  0  0  0  0  0  0  0  0  0  0  0
  151.5959  140.7221  155.9105 C   0  0  0  0  0  0  0  0  0  0  0  0
  150.9627  140.0624  154.9180 N   0  0  0  0  0  0  0  0  0  0  0  0
  144.6153  135.7693  151.5489 H   0  0  0  0  0  0  0  0  0  0  0  0
  146.3766  135.6904  151.6403 H   0  0  0  0  0  0  0  0  0  0  0  0
  145.5973  136.8461  150.5468 H   0  0  0  0  0  0  0  0  0  0  0  0
  147.7925  137.7474  152.2185 H   0  0  0  0  0  0  0  0  0  0  0  0
  147.7981  140.0259  151.1602 H   0  0  0  0  0  0  0  0  0  0  0  0
  146.0881  140.1971  151.5559 H   0  0  0  0  0  0  0  0  0  0  0  0
  146.6154  138.9414  150.4424 H   0  0  0  0  0  0  0  0  0  0  0  0
  149.3706  139.3619  152.9027 H   0  0  0  0  0  0  0  0  0  0  0  0
  147.8188  141.1656  155.5067 H   0  0  0  0  0  0  0  0  0  0  0  0
  148.9753  142.3661  157.3303 H   0  0  0  0  0  0  0  0  0  0  0  0
  151.8525  144.1008  156.8271 H   0  0  0  0  0  0  0  0  0  0  0  0
  150.6170  144.0937  158.0817 H   0  0  0  0  0  0  0  0  0  0  0  0
  153.6597  144.0542  158.5176 H   0  0  0  0  0  0  0  0  0  0  0  0
  152.5700  145.3814  158.8708 H   0  0  0  0  0  0  0  0  0  0  0  0
  153.5299  142.0547  159.8727 H   0  0  0  0  0  0  0  0  0  0  0  0
  152.3454  141.9890  161.1630 H   0  0  0  0  0  0  0  0  0  0  0  0
  150.4763  141.9058  159.5473 H   0  0  0  0  0  0  0  0  0  0  0  0
  151.6222  140.6311  159.1889 H   0  0  0  0  0  0  0  0  0  0  0  0
  152.6610  140.5504  155.9523 H   0  0  0  0  0  0  0  0  0  0  0  0
  1  2  1  0  0  0  0
  1 20  1  0  0  0  0
  1 21  1  0  0  0  0
  1 22  1  0  0  0  0
  2  3  1  0  0  0  0
  3  4  1  0  0  0  0
  3  5  1  0  0  0  0
  3 23  1  0  0  0  0
  4 24  1  0  0  0  0
  4 25  1  0  0  0  0
  4 26  1  0  0  0  0
  5  6  2  0  0  0  0
  5  7  1  0  0  0  0
  7  8  1  0  0  0  0
  7 27  1  0  0  0  0
  8 19  1  0  0  0  0
  8  9  2  0  0  0  0
  9 10  1  0  0  0  0
  9 28  1  0  0  0  0
 10 11  2  0  0  0  0
 10 29  1  0  0  0  0
 11 12  1  0  0  0  0
 11 18  1  0  0  0  0
 12 17  1  0  0  0  0
 12 13  1  0  0  0  0
 13 14  1  0  0  0  0
 13 30  1  0  0  0  0
 13 31  1  0  0  0  0
 14 15  1  0  0  0  0
 14 32  1  0  0  0  0
 14 33  1  0  0  0  0
 15 16  1  0  0  0  0
 16 17  1  0  0  0  0
 16 34  1  0  0  0  0
 16 35  1  0  0  0  0
 17 36  1  0  0  0  0
 17 37  1  0  0  0  0
 18 19  2  0  0  0  0
 18 38  1  0  0  0  0
M  END
> <s_m_source_file>
AV-unprocessed.smi

> <i_m_source_file_index>
2166

> <i_lp_mmshare_version>
43012

> <i_f3d_flags>
0

> <s_epik_input>
W0NIM11TW0NASF0oW0NIM10pQyg9TylbTkhdYzFbY0hdW2NIXWMoW2NIXW4xKU4yW0NIMl1bQ0gyXU9bQ0gyXVtDSDJdMg==

> <s_epik_cmdline>
J2VwaWtfcHl0aG9uJywgJy1waCcsICc3LjAnLCAnLXRuJywgJzgnLCAnLW1hJywgJzIwMCcsICctbWV0YWxfYmluZGluZycsICctaW1hZScsICc8aW5maWxlLm1hZT4nLCAnLW9tYWUnLCAnPG91dGZpbGUubWFlPic=

> <r_lp_tautomer_probability>
1

> <r_epik_Ionization_Penalty>
0.0038652

> <r_epik_Ionization_Penalty_Charging>
0

> <r_epik_Ionization_Penalty_Neutral>
0.0038652

> <r_epik_State_Penalty>
0.00681294

> <r_epik_Charging_Adjusted_Penalty>
0.00681294

> <i_epik_Tot_Q>
0

> <i_epik_Tot_abs_Q>
0

> <r_epik_Metal_State_Penalty>
-0

> <b_epik_Metal_Only>
0

> <s_lp_Force_Field>
OPLS_2005

> <r_lp_Energy>
24.7489

> <b_lp_Chiralities_Consistent>
1

> <s_lp_Variant>
AV-unprocessed.smi:2166-2

> <Gold.Version>
5.8.1

> <Gold.Id.Protein>
6NUR|6NUR_protein|mol2

> <Gold.PLP.Fitness>
41.3004

> <Gold.PLP.PLP>
-37.1047

> <Gold.PLP.part.hbond>
-2.0000

> <Gold.PLP.part.metal>
0.0000

> <Gold.PLP.part.buried>
-0.0200

> <Gold.PLP.part.nonpolar>
-34.0114

> <Gold.PLP.part.repulsive>
0.3043

> <Gold.PLP.ligand.clash>
0.0000

> <Gold.PLP.ligand.torsion>
0.9881

> <Gold.PLP.Chemscore.Hbond>
1.9280

> <Gold.PLP.Chemscore.CHOScore>
0.0000

> <Gold.PLP.Chemscore.Metal>
0.0000

> <Gold.Chemscore.Hbonds>
donor molecule, donor type, donor heavy atom, donor atom, acceptor molecule, acceptor atom, score
      L1  H     7    27       P1  7957  0.80
      P1  H  7989  7998       L1    19  1.00

> <Gold.PLP.Chemscore.Internal.Correction>
0.3878

> <Gold.Rescore>
     Score         DG    S(hbond)    S(metal)    S(lipo)     H(rot)  DE(clash)    DE(int)     intcor
     15.22     -18.30       1.42        0.00      97.85       1.31       0.65       2.43       ----

> <Gold.Chemscore.Fitness>
15.2215

> <Gold.Chemscore.DG>
-18.3001

> <Gold.Chemscore.ZeroCoef>
-5.4800

> <Gold.Chemscore.Hbond>
1.4153

> <Gold.Chemscore.Metal>
0.0000

> <Gold.Chemscore.Lipo>
97.8462

> <Gold.Chemscore.Internal_Hbond>
0.0000

> <Gold.Chemscore.DEClash>
0.6495

> <Gold.Chemscore.DEInternal>
2.4291

> <Gold.Chemscore.Rot>
1.3105

> <Gold.Chemscore.Internal.Correction>
   9.000000E+99

> <Gold.Chemscore.Hbonds>
donor molecule, donor type, donor heavy atom, donor atom, acceptor molecule, acceptor atom, score
      L1  H     7    27       P1  7957  0.79
      P1  H  7989  7998       L1    19  0.13

> <Gold.Chemscore.Hbond.Weighted>
-4.7271

> <Gold.Chemscore.Metal.Weighted>
-0.0000

> <Gold.Chemscore.Lipo.Weighted>
-11.4480

> <Gold.Chemscore.Internal_Hbond.Weighted>
0.0000

> <Gold.Chemscore.DEClash.Weighted>
0.6495

> <Gold.Chemscore.DEInternal.Weighted>
2.4291

> <Gold.Chemscore.Rot.Weighted>
3.3549

> <Gold.Chemscore.Internal.Correction.Weighted>
   9.000000E+99

> <Gold.Protein.RotatedTorsions>
[ 6907 6896 6895 6894 ] final  -19.03 input  -60.11 | X-H torsion
[ 7974 7965 7964 7962 ] final -138.98 input  175.53 | X-H torsion
[ 8008 7997 7996 7995 ] final   12.98 input   59.86 | X-H torsion
[ 10167 10162 10161 10158 ] final  -18.17 input  -65.29 | X-H torsion
[ 10718 10713 10712 10709 ] final  109.22 input   66.30 | X-H torsion
[ 10763 10752 10751 10750 ] final   31.24 input  -60.55 | X-H torsion
[ 11005 11000 10999 10996 ] final   34.05 input  -57.11 | X-H torsion

> <Gold.Protein.ActiveResidues>
 VAL166  LYS551  ARG553  GLY616  TRP617  ASP618  TYR619  PRO620  LYS621  CYS622 
 ASP623  PHE694  ASN695  SER759  ASP760  ASP761  ALA762  ILE779  LEU786  VAL792 
 PHE793  MET794  SER795  GLU796  ALA797  LYS798  CYS799  TRP800  GLU811  SER814 

> <Gold.Protein.RotatedAtoms>
  151.2692  135.0679  159.9127 H   0  0  0  0  0  0  0  0  0  0  0  0  # atno 6907 bound_to 6896
  152.5353  134.0149  159.7965 H   0  0  0  0  0  0  0  0  0  0  0  0  # atno 6908 bound_to 6896
  151.0384  133.5678  159.2684 H   0  0  0  0  0  0  0  0  0  0  0  0  # atno 6909 bound_to 6896
  144.8714  140.6373  143.5264 H   0  0  0  0  0  0  0  0  0  0  0  0  # atno 7974 bound_to 7965
  154.8281  140.2895  155.5741 H   0  0  0  0  0  0  0  0  0  0  0  0  # atno 8008 bound_to 7997
  156.3003  140.2537  156.3132 H   0  0  0  0  0  0  0  0  0  0  0  0  # atno 8009 bound_to 7997
  154.9262  140.0384  157.2013 H   0  0  0  0  0  0  0  0  0  0  0  0  # atno 8010 bound_to 7997
  140.7256  143.4942  150.9952 H   0  0  0  0  0  0  0  0  0  0  0  0  # atno 10167 bound_to 10162
  157.6551  131.0909  150.6421 H   0  0  0  0  0  0  0  0  0  0  0  0  # atno 10718 bound_to 10713
  153.0327  135.6444  154.1168 H   0  0  0  0  0  0  0  0  0  0  0  0  # atno 10763 bound_to 10752
  154.0888  135.2868  155.3277 H   0  0  0  0  0  0  0  0  0  0  0  0  # atno 10764 bound_to 10752
  154.6479  135.5436  153.7930 H   0  0  0  0  0  0  0  0  0  0  0  0  # atno 10765 bound_to 10752
  140.2568  134.3239  155.7871 H   0  0  0  0  0  0  0  0  0  0  0  0  # atno 11005 bound_to 11000
  145.4123  139.1578  143.4119 LP  0  0  0  0  0  0  0  0  0  0  0  0  # atno 17320 bound_to 7965
  146.2933  140.4228  142.8731 LP  0  0  0  0  0  0  0  0  0  0  0  0  # atno 17321 bound_to 7965
  139.8648  143.7268  152.3171 LP  0  0  0  0  0  0  0  0  0  0  0  0  # atno 17342 bound_to 10162
  139.7496  144.7538  151.0527 LP  0  0  0  0  0  0  0  0  0  0  0  0  # atno 17343 bound_to 10162
  156.6728  130.4544  149.5652 LP  0  0  0  0  0  0  0  0  0  0  0  0  # atno 17370 bound_to 10713
  156.1985  130.6605  151.1141 LP  0  0  0  0  0  0  0  0  0  0  0  0  # atno 17371 bound_to 10713
  141.2195  133.7386  156.9124 LP  0  0  0  0  0  0  0  0  0  0  0  0  # atno 17394 bound_to 11000
  140.1504  134.9234  157.2584 LP  0  0  0  0  0  0  0  0  0  0  0  0  # atno 17395 bound_to 11000

$$$$
