AV-unprocessed.smi:1235|AV-procd|sdf|5176|dock9
  -GOLD-   22720 4253D 1   1.00000     0.00000
 Structure written by MMmdl.
 50 51  0  0  0  0  0  0  0  0  2 V2000
  152.5280  143.4444  158.7573 C   0  0  0  0  0  0  0  0  0  0  0  0
  151.2972  142.7447  158.8135 O   0  0  0  0  0  0  0  0  0  0  0  0
  150.7838  142.4453  157.5266 C   0  0  0  0  0  0  0  0  0  0  0  0
  151.8461  141.6649  156.7378 C   0  0  0  0  0  0  0  0  0  0  0  0
  151.3207  140.3882  156.2441 N   0  0  0  0  0  0  0  0  0  0  0  0
  150.2974  140.5191  155.3205 N   0  0  0  0  0  0  0  0  0  0  0  0
  149.7451  139.4674  154.8077 C   0  0  0  0  0  0  0  0  0  0  0  0
  148.6438  139.5683  153.8097 C   0  0  0  0  0  0  0  0  0  0  0  0
  148.0207  140.6154  153.6280 O   0  0  0  0  0  0  0  0  0  0  0  0
  148.3815  138.4403  153.1275 N   0  0  0  0  0  0  0  0  0  0  0  0
  147.3467  138.3068  152.1121 C   0  0  0  0  0  0  0  0  0  0  0  0
  145.9936  137.9913  152.7717 C   0  0  0  0  0  0  0  0  0  0  0  0
  145.8326  136.5594  153.1442 N   0  3  1  0  0  0  0  0  0  0  0  0
  145.2191  136.4039  154.4912 C   0  0  0  0  0  0  0  0  0  0  0  0
  145.2546  134.9411  154.9608 C   0  0  0  0  0  0  0  0  0  0  0  0
  144.5732  134.0202  153.9432 C   0  0  0  0  0  0  0  0  0  0  0  0
  145.2115  134.2111  152.5607 C   0  0  0  0  0  0  0  0  0  0  0  0
  145.1948  135.6868  152.1075 C   0  0  1  0  0  0  0  0  0  0  0  0
  143.7834  136.1518  151.6881 C   0  0  0  0  0  0  0  0  0  0  0  0
  150.1828  138.1356  155.1900 C   0  0  0  0  0  0  0  0  0  0  0  0
  151.1780  138.0237  156.0971 C   0  0  0  0  0  0  0  0  0  0  0  0
  151.8180  139.1970  156.6944 C   0  0  0  0  0  0  0  0  0  0  0  0
  152.7197  139.1207  157.5285 O   0  0  0  0  0  0  0  0  0  0  0  0
  152.8821  143.6450  159.7686 H   0  0  0  0  0  0  0  0  0  0  0  0
  152.4152  144.4004  158.2441 H   0  0  0  0  0  0  0  0  0  0  0  0
  153.2918  142.8590  158.2437 H   0  0  0  0  0  0  0  0  0  0  0  0
  149.8696  141.8566  157.6184 H   0  0  0  0  0  0  0  0  0  0  0  0
  150.5310  143.3692  157.0034 H   0  0  0  0  0  0  0  0  0  0  0  0
  152.1918  142.2723  155.8991 H   0  0  0  0  0  0  0  0  0  0  0  0
  152.7283  141.5005  157.3588 H   0  0  0  0  0  0  0  0  0  0  0  0
  148.9366  137.6221  153.3347 H   0  0  0  0  0  0  0  0  0  0  0  0
  147.3060  139.2416  151.5529 H   0  0  0  0  0  0  0  0  0  0  0  0
  147.6150  137.5152  151.4103 H   0  0  0  0  0  0  0  0  0  0  0  0
  145.9195  138.5898  153.6809 H   0  0  0  0  0  0  0  0  0  0  0  0
  145.1687  138.3130  152.1355 H   0  0  0  0  0  0  0  0  0  0  0  0
  145.7611  137.0157  155.2132 H   0  0  0  0  0  0  0  0  0  0  0  0
  144.1936  136.7747  154.4806 H   0  0  0  0  0  0  0  0  0  0  0  0
  146.2894  134.6271  155.1039 H   0  0  0  0  0  0  0  0  0  0  0  0
  144.7666  134.8491  155.9316 H   0  0  0  0  0  0  0  0  0  0  0  0
  144.6639  132.9801  154.2578 H   0  0  0  0  0  0  0  0  0  0  0  0
  143.5058  134.2384  153.8994 H   0  0  0  0  0  0  0  0  0  0  0  0
  146.2441  133.8609  152.5969 H   0  0  0  0  0  0  0  0  0  0  0  0
  144.7069  133.5827  151.8260 H   0  0  0  0  0  0  0  0  0  0  0  0
  145.8169  135.7237  151.2143 H   0  0  0  0  0  0  0  0  0  0  0  0
  143.3584  135.4702  150.9508 H   0  0  0  0  0  0  0  0  0  0  0  0
  143.8023  137.1377  151.2247 H   0  0  0  0  0  0  0  0  0  0  0  0
  143.0911  136.1907  152.5285 H   0  0  0  0  0  0  0  0  0  0  0  0
  149.7281  137.2521  154.7657 H   0  0  0  0  0  0  0  0  0  0  0  0
  151.5131  137.0399  156.3916 H   0  0  0  0  0  0  0  0  0  0  0  0
  146.7732  136.2052  153.2447 H   0  0  0  0  0  0  0  0  0  0  0  0
  1  2  1  0  0  0  0
  1 24  1  0  0  0  0
  1 25  1  0  0  0  0
  1 26  1  0  0  0  0
  2  3  1  0  0  0  0
  3  4  1  0  0  0  0
  3 27  1  0  0  0  0
  3 28  1  0  0  0  0
  4  5  1  0  0  0  0
  4 29  1  0  0  0  0
  4 30  1  0  0  0  0
  5 22  1  0  0  0  0
  5  6  1  0  0  0  0
  6  7  2  0  0  0  0
  7  8  1  0  0  0  0
  7 20  1  0  0  0  0
  8  9  2  0  0  0  0
  8 10  1  0  0  0  0
 10 11  1  0  0  0  0
 10 31  1  0  0  0  0
 11 12  1  0  0  0  0
 11 32  1  0  0  0  0
 11 33  1  0  0  0  0
 12 13  1  0  0  0  0
 12 34  1  0  0  0  0
 12 35  1  0  0  0  0
 13 18  1  0  0  0  0
 13 14  1  0  0  0  0
 13 50  1  0  0  0  0
 14 15  1  0  0  0  0
 14 36  1  0  0  0  0
 14 37  1  0  0  0  0
 15 16  1  0  0  0  0
 15 38  1  0  0  0  0
 15 39  1  0  0  0  0
 16 17  1  0  0  0  0
 16 40  1  0  0  0  0
 16 41  1  0  0  0  0
 17 18  1  0  0  0  0
 17 42  1  0  0  0  0
 17 43  1  0  0  0  0
 18 19  1  0  0  0  0
 18 44  1  0  0  0  0
 19 45  1  0  0  0  0
 19 46  1  0  0  0  0
 19 47  1  0  0  0  0
 20 21  2  0  0  0  0
 20 48  1  0  0  0  0
 21 22  1  0  0  0  0
 21 49  1  0  0  0  0
 22 23  2  0  0  0  0
M  CHG  1  13   1
M  END
> <s_m_source_file>
AV-unprocessed.smi

> <i_m_source_file_index>
1235

> <i_lp_mmshare_version>
43012

> <i_f3d_flags>
0

> <s_epik_input>
W0NIM11PW0NIMl1bQ0gyXW4xbmMoW2NIXVtjSF1jMT1PKUMoPU8pW05IXVtDSDJdW0NIMl1OMltDSDJdW0NIMl1bQ0gyXVtDSDJdW0NASF0yW0NIM10=

> <s_epik_cmdline>
J2VwaWtfcHl0aG9uJywgJy1waCcsICc3LjAnLCAnLXRuJywgJzgnLCAnLW1hJywgJzIwMCcsICctbWV0YWxfYmluZGluZycsICctaW1hZScsICc8aW5maWxlLm1hZT4nLCAnLW9tYWUnLCAnPG91dGZpbGUubWFlPic=

> <r_lp_tautomer_probability>
1

> <r_epik_Ionization_Penalty>
0.00271975

> <r_epik_Ionization_Penalty_Charging>
0.00271407

> <r_epik_Ionization_Penalty_Neutral>
5.6803e-06

> <r_epik_State_Penalty>
0.00189271

> <r_epik_Charging_Adjusted_Penalty>
0.00460678

> <i_epik_Tot_Q>
1

> <i_epik_Tot_abs_Q>
1

> <r_epik_Metal_State_Penalty>
-0

> <b_epik_Metal_Only>
0

> <s_lp_Force_Field>
OPLS_2005

> <r_lp_Energy>
41.7034

> <b_lp_Chiralities_Consistent>
1

> <s_lp_Variant>
AV-unprocessed.smi:1235-2

> <Gold.Version>
5.8.1

> <Gold.Id.Protein>
6NUR|6NUR_protein|mol2

> <Gold.PLP.Fitness>
53.6636

> <Gold.PLP.PLP>
-45.2362

> <Gold.PLP.part.hbond>
-4.2646

> <Gold.PLP.part.metal>
0.0000

> <Gold.PLP.part.buried>
-3.9195

> <Gold.PLP.part.nonpolar>
-36.6153

> <Gold.PLP.part.repulsive>
0.2986

> <Gold.PLP.ligand.clash>
0.0000

> <Gold.PLP.ligand.torsion>
1.2790

> <Gold.PLP.Chemscore.Hbond>
3.6264

> <Gold.PLP.Chemscore.CHOScore>
0.0000

> <Gold.PLP.Chemscore.Metal>
0.0000

> <Gold.Chemscore.Hbonds>
donor molecule, donor type, donor heavy atom, donor atom, acceptor molecule, acceptor atom, score
      L1  H    10    31       P1  7948  0.29
      P1  H  7989  7998       L1     6  0.21
      P1  H  7997  8010       L1    23  0.83

> <Gold.PLP.Chemscore.Internal.Correction>
0.1063

> <Gold.Rescore>
     Score         DG    S(hbond)    S(metal)    S(lipo)     H(rot)  DE(clash)    DE(int)     intcor
     17.84     -19.32       2.59        0.00      88.29       2.00       0.14       1.34       ----

> <Gold.Chemscore.Fitness>
17.8358

> <Gold.Chemscore.DG>
-19.3206

> <Gold.Chemscore.ZeroCoef>
-5.4800

> <Gold.Chemscore.Hbond>
2.5855

> <Gold.Chemscore.Metal>
0.0000

> <Gold.Chemscore.Lipo>
88.2919

> <Gold.Chemscore.Internal_Hbond>
0.0000

> <Gold.Chemscore.DEClash>
0.1409

> <Gold.Chemscore.DEInternal>
1.3439

> <Gold.Chemscore.Rot>
2.0020

> <Gold.Chemscore.Internal.Correction>
   9.000000E+99

> <Gold.Chemscore.Hbonds>
donor molecule, donor type, donor heavy atom, donor atom, acceptor molecule, acceptor atom, score
      L1  H    10    31       P1  7948  0.27
      P1  H  7997  8010       L1    23  0.49

> <Gold.Chemscore.Hbond.Weighted>
-8.6356

> <Gold.Chemscore.Metal.Weighted>
-0.0000

> <Gold.Chemscore.Lipo.Weighted>
-10.3302

> <Gold.Chemscore.Internal_Hbond.Weighted>
0.0000

> <Gold.Chemscore.DEClash.Weighted>
0.1409

> <Gold.Chemscore.DEInternal.Weighted>
1.3439

> <Gold.Chemscore.Rot.Weighted>
5.1252

> <Gold.Chemscore.Internal.Correction.Weighted>
   9.000000E+99

> <Gold.Protein.RotatedTorsions>
[ 6907 6896 6895 6894 ] final  157.71 input  -60.11 | X-H torsion
[ 7974 7965 7964 7962 ] final -130.73 input  175.53 | X-H torsion
[ 8008 7997 7996 7995 ] final   57.68 input   59.86 | X-H torsion
[ 10167 10162 10161 10158 ] final   73.20 input  -65.29 | X-H torsion
[ 10718 10713 10712 10709 ] final  -87.91 input   66.30 | X-H torsion
[ 10763 10752 10751 10750 ] final  148.50 input  -60.55 | X-H torsion
[ 11005 11000 10999 10996 ] final  123.19 input  -57.11 | X-H torsion

> <Gold.Protein.ActiveResidues>
 VAL166  LYS551  ARG553  GLY616  TRP617  ASP618  TYR619  PRO620  LYS621  CYS622 
 ASP623  PHE694  ASN695  SER759  ASP760  ASP761  ALA762  ILE779  LEU786  VAL792 
 PHE793  MET794  SER795  GLU796  ALA797  LYS798  CYS799  TRP800  GLU811  SER814 

> <Gold.Protein.RotatedAtoms>
  152.0111  133.3862  159.4219 H   0  0  0  0  0  0  0  0  0  0  0  0  # atno 6907 bound_to 6896
  150.6899  134.3729  159.5009 H   0  0  0  0  0  0  0  0  0  0  0  0  # atno 6908 bound_to 6896
  152.1490  134.9003  160.0600 H   0  0  0  0  0  0  0  0  0  0  0  0  # atno 6909 bound_to 6896
  144.9446  140.7277  143.4825 H   0  0  0  0  0  0  0  0  0  0  0  0  # atno 7974 bound_to 7965
  155.5377  140.3483  155.4440 H   0  0  0  0  0  0  0  0  0  0  0  0  # atno 8008 bound_to 7997
  156.0673  140.1354  156.9896 H   0  0  0  0  0  0  0  0  0  0  0  0  # atno 8009 bound_to 7997
  154.4510  140.0973  156.6592 H   0  0  0  0  0  0  0  0  0  0  0  0  # atno 8010 bound_to 7997
  140.0270  144.5495  150.7536 H   0  0  0  0  0  0  0  0  0  0  0  0  # atno 10167 bound_to 10162
  155.9984  130.4816  150.4938 H   0  0  0  0  0  0  0  0  0  0  0  0  # atno 10718 bound_to 10713
  154.0557  135.2878  155.3333 H   0  0  0  0  0  0  0  0  0  0  0  0  # atno 10763 bound_to 10752
  154.6840  135.5252  153.8305 H   0  0  0  0  0  0  0  0  0  0  0  0  # atno 10764 bound_to 10752
  153.0542  135.6589  154.0750 H   0  0  0  0  0  0  0  0  0  0  0  0  # atno 10765 bound_to 10752
  139.9301  134.9641  156.8222 H   0  0  0  0  0  0  0  0  0  0  0  0  # atno 11005 bound_to 11000
  145.2937  139.1874  143.4726 LP  0  0  0  0  0  0  0  0  0  0  0  0  # atno 17320 bound_to 7965
  146.3299  140.2918  142.8615 LP  0  0  0  0  0  0  0  0  0  0  0  0  # atno 17321 bound_to 7965
  140.7318  143.2698  151.3924 LP  0  0  0  0  0  0  0  0  0  0  0  0  # atno 17342 bound_to 10162
  139.6101  144.1116  152.2290 LP  0  0  0  0  0  0  0  0  0  0  0  0  # atno 17343 bound_to 10162
  157.2930  131.0630  151.2120 LP  0  0  0  0  0  0  0  0  0  0  0  0  # atno 17370 bound_to 10713
  157.3126  130.6897  149.6224 LP  0  0  0  0  0  0  0  0  0  0  0  0  # atno 17371 bound_to 10713
  140.6225  133.9981  155.7624 LP  0  0  0  0  0  0  0  0  0  0  0  0  # atno 17394 bound_to 11000
  141.0885  133.9953  157.3275 LP  0  0  0  0  0  0  0  0  0  0  0  0  # atno 17395 bound_to 11000

$$$$
