AV-unprocessed.smi:1254|AV-procd|sdf|5272|dock2
  -GOLD-   22720 4383D 1   1.00000     0.00000
 Structure written by MMmdl.
 46 47  0  0  0  0  0  0  0  0  2 V2000
  151.8704  141.3080  157.7455 C   0  0  0  0  0  0  0  0  0  0  0  0
  151.5505  140.4729  156.5534 C   0  0  0  0  0  0  0  0  0  0  0  0
  150.4211  140.3247  155.7986 C   0  0  0  0  0  0  0  0  0  0  0  0
  150.8115  139.3692  154.8233 C   0  0  0  0  0  0  0  0  0  0  0  0
  149.9028  138.9351  153.8248 N   0  0  0  0  0  0  0  0  0  0  0  0
  148.6199  139.3035  153.6714 C   0  0  0  0  0  0  0  0  0  0  0  0
  148.0227  140.1121  154.3827 O   0  0  0  0  0  0  0  0  0  0  0  0
  148.0495  138.6722  152.6351 N   0  0  0  0  0  0  0  0  0  0  0  0
  146.6639  138.8470  152.2125 C   0  0  0  0  0  0  0  0  0  0  0  0
  145.8246  137.5787  152.4519 C   0  0  1  0  0  0  0  0  0  0  0  0
  145.8719  136.6202  151.2466 C   0  0  0  0  0  0  0  0  0  0  0  0
  145.0964  135.3880  151.5343 N   0  3  1  0  0  0  0  0  0  0  0  0
  145.0468  134.4321  150.3982 C   0  0  0  0  0  0  0  0  0  0  0  0
  144.3252  133.1109  150.7425 C   0  0  0  0  0  0  0  0  0  0  0  0
  143.8457  132.3722  149.4817 C   0  0  0  0  0  0  0  0  0  0  0  0
  143.1452  133.3735  151.6899 C   0  0  0  0  0  0  0  0  0  0  0  0
  145.5804  134.7547  152.7839 C   0  0  0  0  0  0  0  0  0  0  0  0
  145.5636  135.7656  153.9421 C   0  0  0  0  0  0  0  0  0  0  0  0
  146.3432  136.9020  153.5926 O   0  0  0  0  0  0  0  0  0  0  0  0
  152.0663  138.9710  154.9683 N   0  0  0  0  0  0  0  0  0  0  0  0
  152.5457  139.6754  156.0788 O   0  0  0  0  0  0  0  0  0  0  0  0
  151.1861  142.1530  157.8233 H   0  0  0  0  0  0  0  0  0  0  0  0
  152.8855  141.7007  157.6853 H   0  0  0  0  0  0  0  0  0  0  0  0
  151.7878  140.7205  158.6601 H   0  0  0  0  0  0  0  0  0  0  0  0
  149.4711  140.8212  155.9269 H   0  0  0  0  0  0  0  0  0  0  0  0
  150.2672  138.2664  153.1627 H   0  0  0  0  0  0  0  0  0  0  0  0
  148.6100  138.0230  152.1025 H   0  0  0  0  0  0  0  0  0  0  0  0
  146.2283  139.6955  152.7425 H   0  0  0  0  0  0  0  0  0  0  0  0
  146.6573  139.1073  151.1537 H   0  0  0  0  0  0  0  0  0  0  0  0
  144.7869  137.8614  152.6390 H   0  0  0  0  0  0  0  0  0  0  0  0
  145.4660  137.1274  150.3723 H   0  0  0  0  0  0  0  0  0  0  0  0
  146.9049  136.3576  151.0130 H   0  0  0  0  0  0  0  0  0  0  0  0
  144.5728  134.9170  149.5432 H   0  0  0  0  0  0  0  0  0  0  0  0
  146.0644  134.1928  150.0853 H   0  0  0  0  0  0  0  0  0  0  0  0
  145.0124  132.4547  151.2756 H   0  0  0  0  0  0  0  0  0  0  0  0
  143.1545  132.9845  148.9016 H   0  0  0  0  0  0  0  0  0  0  0  0
  143.3302  131.4470  149.7418 H   0  0  0  0  0  0  0  0  0  0  0  0
  144.6797  132.1054  148.8325 H   0  0  0  0  0  0  0  0  0  0  0  0
  142.3989  134.0189  151.2254 H   0  0  0  0  0  0  0  0  0  0  0  0
  143.4777  133.8569  152.6090 H   0  0  0  0  0  0  0  0  0  0  0  0
  142.6507  132.4430  151.9709 H   0  0  0  0  0  0  0  0  0  0  0  0
  144.9508  133.9007  153.0362 H   0  0  0  0  0  0  0  0  0  0  0  0
  146.5924  134.3752  152.6332 H   0  0  0  0  0  0  0  0  0  0  0  0
  144.5431  136.0677  154.1831 H   0  0  0  0  0  0  0  0  0  0  0  0
  145.9816  135.3134  154.8415 H   0  0  0  0  0  0  0  0  0  0  0  0
  144.1437  135.6730  151.7128 H   0  0  0  0  0  0  0  0  0  0  0  0
  1  2  1  0  0  0  0
  1 22  1  0  0  0  0
  1 23  1  0  0  0  0
  1 24  1  0  0  0  0
  2 21  1  0  0  0  0
  2  3  2  0  0  0  0
  3  4  1  0  0  0  0
  3 25  1  0  0  0  0
  4  5  1  0  0  0  0
  4 20  2  0  0  0  0
  5  6  1  0  0  0  0
  5 26  1  0  0  0  0
  6  7  2  0  0  0  0
  6  8  1  0  0  0  0
  8  9  1  0  0  0  0
  8 27  1  0  0  0  0
  9 10  1  0  0  0  0
  9 28  1  0  0  0  0
  9 29  1  0  0  0  0
 10 19  1  0  0  0  0
 10 11  1  0  0  0  0
 10 30  1  0  0  0  0
 11 12  1  0  0  0  0
 11 31  1  0  0  0  0
 11 32  1  0  0  0  0
 12 13  1  0  0  0  0
 12 17  1  0  0  0  0
 12 46  1  0  0  0  0
 13 14  1  0  0  0  0
 13 33  1  0  0  0  0
 13 34  1  0  0  0  0
 14 15  1  0  0  0  0
 14 16  1  0  0  0  0
 14 35  1  0  0  0  0
 15 36  1  0  0  0  0
 15 37  1  0  0  0  0
 15 38  1  0  0  0  0
 16 39  1  0  0  0  0
 16 40  1  0  0  0  0
 16 41  1  0  0  0  0
 17 18  1  0  0  0  0
 17 42  1  0  0  0  0
 17 43  1  0  0  0  0
 18 19  1  0  0  0  0
 18 44  1  0  0  0  0
 18 45  1  0  0  0  0
 20 21  1  0  0  0  0
M  CHG  1  12   1
M  END
> <s_m_source_file>
AV-unprocessed.smi

> <i_m_source_file_index>
1254

> <i_lp_mmshare_version>
43012

> <i_f3d_flags>
0

> <s_epik_input>
W0NIM11jMVtjSF1jKG5vMSlbTkhdQyg9TylbTkhdW0NIMl1bQ0BASF0yW0NIMl1OKFtDSDJdW0NIMl1PMilbQ0gyXVtDSF0oW0NIM10pW0NIM10=

> <s_epik_cmdline>
J2VwaWtfcHl0aG9uJywgJy1waCcsICc3LjAnLCAnLXRuJywgJzgnLCAnLW1hJywgJzIwMCcsICctbWV0YWxfYmluZGluZycsICctaW1hZScsICc8aW5maWxlLm1hZT4nLCAnLW9tYWUnLCAnPG91dGZpbGUubWFlPic=

> <r_epik_Ionization_Penalty>
0.0986825

> <r_epik_Ionization_Penalty_Charging>
0.0986478

> <r_epik_Ionization_Penalty_Neutral>
3.46838e-05

> <r_epik_State_Penalty>
0.0887259

> <r_epik_Charging_Adjusted_Penalty>
0.187374

> <i_epik_Tot_Q>
1

> <i_epik_Tot_abs_Q>
1

> <r_epik_Metal_State_Penalty>
0.103424

> <b_epik_Metal_Only>
0

> <s_lp_Force_Field>
OPLS_2005

> <r_lp_Energy>
13.7393

> <b_lp_Chiralities_Consistent>
1

> <s_lp_Variant>
AV-unprocessed.smi:1254-4

> <Gold.Version>
5.8.1

> <Gold.Id.Protein>
6NUR|6NUR_protein|mol2

> <Gold.PLP.Fitness>
39.5397

> <Gold.PLP.PLP>
-35.1076

> <Gold.PLP.part.hbond>
-4.0726

> <Gold.PLP.part.metal>
0.0000

> <Gold.PLP.part.buried>
0.5671

> <Gold.PLP.part.nonpolar>
-31.5105

> <Gold.PLP.part.repulsive>
0.4244

> <Gold.PLP.ligand.clash>
0.0000

> <Gold.PLP.ligand.torsion>
0.6417

> <Gold.PLP.Chemscore.Hbond>
1.8960

> <Gold.PLP.Chemscore.CHOScore>
0.0000

> <Gold.PLP.Chemscore.Metal>
0.0000

> <Gold.Chemscore.Hbonds>
donor molecule, donor type, donor heavy atom, donor atom, acceptor molecule, acceptor atom, score
      L1  H     8    27       P1  7948  0.90
      P1  H  7997  8008       L1    21  1.00

> <Gold.PLP.Chemscore.Internal.Correction>
0.0275

> <Gold.Rescore>
     Score         DG    S(hbond)    S(metal)    S(lipo)     H(rot)  DE(clash)    DE(int)     intcor
     14.01     -16.11       1.90        0.00      74.56       1.73       0.15       1.95       ----

> <Gold.Chemscore.Fitness>
14.0069

> <Gold.Chemscore.DG>
-16.1115

> <Gold.Chemscore.ZeroCoef>
-5.4800

> <Gold.Chemscore.Hbond>
1.8965

> <Gold.Chemscore.Metal>
0.0000

> <Gold.Chemscore.Lipo>
74.5607

> <Gold.Chemscore.Internal_Hbond>
0.0000

> <Gold.Chemscore.DEClash>
0.1518

> <Gold.Chemscore.DEInternal>
1.9528

> <Gold.Chemscore.Rot>
1.7291

> <Gold.Chemscore.Internal.Correction>
   9.000000E+99

> <Gold.Chemscore.Hbonds>
donor molecule, donor type, donor heavy atom, donor atom, acceptor molecule, acceptor atom, score
      L1  H     8    27       P1  7948  0.88
      P1  H  7997  8008       L1    21  0.96

> <Gold.Chemscore.Hbond.Weighted>
-6.3344

> <Gold.Chemscore.Metal.Weighted>
-0.0000

> <Gold.Chemscore.Lipo.Weighted>
-8.7236

> <Gold.Chemscore.Internal_Hbond.Weighted>
0.0000

> <Gold.Chemscore.DEClash.Weighted>
0.1518

> <Gold.Chemscore.DEInternal.Weighted>
1.9528

> <Gold.Chemscore.Rot.Weighted>
4.4265

> <Gold.Chemscore.Internal.Correction.Weighted>
   9.000000E+99

> <Gold.Protein.RotatedTorsions>
[ 6907 6896 6895 6894 ] final   98.66 input  -60.11 | X-H torsion
[ 7974 7965 7964 7962 ] final  -59.76 input  175.53 | X-H torsion
[ 8008 7997 7996 7995 ] final  -30.88 input   59.86 | X-H torsion
[ 10167 10162 10161 10158 ] final -171.64 input  -65.29 | X-H torsion
[ 10718 10713 10712 10709 ] final -114.77 input   66.30 | X-H torsion
[ 10763 10752 10751 10750 ] final  -17.98 input  -60.55 | X-H torsion
[ 11005 11000 10999 10996 ] final  -24.02 input  -57.11 | X-H torsion

> <Gold.Protein.ActiveResidues>
 VAL166  LYS551  ARG553  GLY616  TRP617  ASP618  TYR619  PRO620  LYS621  CYS622 
 ASP623  PHE694  ASN695  SER759  ASP760  ASP761  ALA762  ILE779  LEU786  VAL792 
 PHE793  MET794  SER795  GLU796  ALA797  LYS798  CYS799  TRP800  GLU811  SER814 

> <Gold.Protein.RotatedAtoms>
  152.5405  134.0547  159.8125 H   0  0  0  0  0  0  0  0  0  0  0  0  # atno 6907 bound_to 6896
  151.0684  133.5479  159.2636 H   0  0  0  0  0  0  0  0  0  0  0  0  # atno 6908 bound_to 6896
  151.2351  135.0577  159.9057 H   0  0  0  0  0  0  0  0  0  0  0  0  # atno 6909 bound_to 6896
  145.8236  140.8524  143.0120 H   0  0  0  0  0  0  0  0  0  0  0  0  # atno 7974 bound_to 7965
  154.4234  140.1779  156.1478 H   0  0  0  0  0  0  0  0  0  0  0  0  # atno 8008 bound_to 7997
  155.9940  140.3366  155.6756 H   0  0  0  0  0  0  0  0  0  0  0  0  # atno 8009 bound_to 7997
  155.6334  140.0672  157.2632 H   0  0  0  0  0  0  0  0  0  0  0  0  # atno 8010 bound_to 7997
  139.5790  144.1466  152.1490 H   0  0  0  0  0  0  0  0  0  0  0  0  # atno 10167 bound_to 10162
  156.0851  130.6044  150.8818 H   0  0  0  0  0  0  0  0  0  0  0  0  # atno 10718 bound_to 10713
  153.5822  135.7005  153.5458 H   0  0  0  0  0  0  0  0  0  0  0  0  # atno 10763 bound_to 10752
  153.3251  135.4063  155.1449 H   0  0  0  0  0  0  0  0  0  0  0  0  # atno 10764 bound_to 10752
  154.8615  135.3705  154.5350 H   0  0  0  0  0  0  0  0  0  0  0  0  # atno 10765 bound_to 10752
  140.8806  133.7656  156.0297 H   0  0  0  0  0  0  0  0  0  0  0  0  # atno 11005 bound_to 11000
  144.6745  140.0570  143.7477 LP  0  0  0  0  0  0  0  0  0  0  0  0  # atno 17320 bound_to 7965
  145.9648  139.2826  143.1134 LP  0  0  0  0  0  0  0  0  0  0  0  0  # atno 17321 bound_to 7965
  140.1015  144.5535  150.6986 LP  0  0  0  0  0  0  0  0  0  0  0  0  # atno 17342 bound_to 10162
  140.7070  143.2476  151.4695 LP  0  0  0  0  0  0  0  0  0  0  0  0  # atno 17343 bound_to 10162
  157.5983  131.0942  150.9004 LP  0  0  0  0  0  0  0  0  0  0  0  0  # atno 17370 bound_to 10713
  156.9166  130.5300  149.5279 LP  0  0  0  0  0  0  0  0  0  0  0  0  # atno 17371 bound_to 10713
  140.8466  134.3004  157.5292 LP  0  0  0  0  0  0  0  0  0  0  0  0  # atno 17394 bound_to 11000
  139.8719  134.9445  156.3882 LP  0  0  0  0  0  0  0  0  0  0  0  0  # atno 17395 bound_to 11000

$$$$
