AV-unprocessed.smi:11|AV-procd|sdf|60|dock4
  -GOLD-   2262015173D 1   1.00000     0.00000
 Structure written by MMmdl.
 33 35  0  0  0  0  0  0  0  0  1 V2000
  149.3903  138.7643  154.2362 C   0  0  0  0  0  0  0  0  0  0  0  0
  150.1344  137.9268  155.2887 C   0  0  0  0  0  0  0  0  0  0  0  0
  151.6658  137.8204  155.0816 C   0  0  2  0  0  0  0  0  0  0  0  0
  151.9183  137.1348  153.8706 O   0  0  0  0  0  0  0  0  0  0  0  0
  152.3484  137.0942  156.2450 C   0  0  0  0  0  0  0  0  0  0  0  0
  152.6114  138.2037  157.2686 C   0  0  0  0  0  0  0  0  0  0  0  0
  152.6660  139.4549  156.5174 N   0  0  0  0  0  0  0  0  0  0  0  0
  152.0479  140.5587  157.1430 C   0  0  0  0  0  0  0  0  0  0  0  0
  151.0629  141.2345  156.4976 N   0  0  0  0  0  0  0  0  0  0  0  0
  150.4822  142.2760  157.1467 C   0  0  0  0  0  0  0  0  0  0  0  0
  150.7631  142.7468  158.3872 N   0  0  0  0  0  0  0  0  0  0  0  0
  151.7561  142.0843  159.0517 C   0  0  0  0  0  0  0  0  0  0  0  0
  152.2384  142.3341  160.2649 N   0  0  0  0  0  0  0  0  0  0  0  0
  153.2087  141.4283  160.4778 C   0  0  0  0  0  0  0  0  0  0  0  0
  153.4001  140.5202  159.3663 C   0  0  0  0  0  0  0  0  0  0  0  0
  152.4117  140.9858  158.4475 C   0  0  0  0  0  0  0  0  0  0  0  0
  152.3983  139.1691  155.1090 C   0  0  0  0  0  0  0  0  0  0  0  0
  148.3180  138.7563  154.4311 H   0  0  0  0  0  0  0  0  0  0  0  0
  149.5426  138.3723  153.2306 H   0  0  0  0  0  0  0  0  0  0  0  0
  149.7118  139.8050  154.2453 H   0  0  0  0  0  0  0  0  0  0  0  0
  149.9233  138.3451  156.2735 H   0  0  0  0  0  0  0  0  0  0  0  0
  149.7060  136.9237  155.2974 H   0  0  0  0  0  0  0  0  0  0  0  0
  151.0897  136.9101  153.4757 H   0  0  0  0  0  0  0  0  0  0  0  0
  151.7592  136.2716  156.6519 H   0  0  0  0  0  0  0  0  0  0  0  0
  153.3054  136.6821  155.9206 H   0  0  0  0  0  0  0  0  0  0  0  0
  151.8016  138.2349  157.9995 H   0  0  0  0  0  0  0  0  0  0  0  0
  153.5425  138.0268  157.8068 H   0  0  0  0  0  0  0  0  0  0  0  0
  149.7007  142.7920  156.6088 H   0  0  0  0  0  0  0  0  0  0  0  0
  153.7713  141.4163  161.4031 H   0  0  0  0  0  0  0  0  0  0  0  0
  154.1085  139.7082  159.2643 H   0  0  0  0  0  0  0  0  0  0  0  0
  153.3691  139.0737  154.6207 H   0  0  0  0  0  0  0  0  0  0  0  0
  151.8686  139.9530  154.5705 H   0  0  0  0  0  0  0  0  0  0  0  0
  150.2489  143.5381  158.7475 H   0  0  0  0  0  0  0  0  0  0  0  0
  1  2  1  0  0  0  0
  1 18  1  0  0  0  0
  1 19  1  0  0  0  0
  1 20  1  0  0  0  0
  2  3  1  0  0  0  0
  2 21  1  0  0  0  0
  2 22  1  0  0  0  0
  3 17  1  0  0  0  0
  3  4  1  0  0  0  0
  3  5  1  0  0  0  0
  4 23  1  0  0  0  0
  5  6  1  0  0  0  0
  5 24  1  0  0  0  0
  5 25  1  0  0  0  0
  6  7  1  0  0  0  0
  6 26  1  0  0  0  0
  6 27  1  0  0  0  0
  7  8  1  0  0  0  0
  7 17  1  0  0  0  0
  8 16  2  0  0  0  0
  8  9  1  0  0  0  0
  9 10  2  0  0  0  0
 10 11  1  0  0  0  0
 10 28  1  0  0  0  0
 11 12  1  0  0  0  0
 11 33  1  0  0  0  0
 12 16  1  0  0  0  0
 12 13  2  0  0  0  0
 13 14  1  0  0  0  0
 14 15  2  0  0  0  0
 14 29  1  0  0  0  0
 15 16  1  0  0  0  0
 15 30  1  0  0  0  0
 17 31  1  0  0  0  0
 17 32  1  0  0  0  0
M  END
> <s_m_source_file>
AV-unprocessed.smi

> <i_m_source_file_index>
11

> <i_lp_mmshare_version>
43012

> <i_f3d_flags>
0

> <s_epik_input>
W0NIM11bQ0gyXVtDQEBdMShbT0hdKVtDSDJdW0NIMl1OKFtDSDJdMSljKG5bY0hdbjIpYyhjMjMpW2NIXVtjSF1bbkhdMw==

> <s_epik_cmdline>
J2VwaWtfcHl0aG9uJywgJy1waCcsICc3LjAnLCAnLXRuJywgJzgnLCAnLW1hJywgJzIwMCcsICctbWV0YWxfYmluZGluZycsICctaW1hZScsICc8aW5maWxlLm1hZT4nLCAnLW9tYWUnLCAnPG91dGZpbGUubWFlPic=

> <r_lp_tautomer_probability>
1.75997e-05

> <r_epik_Ionization_Penalty>
5.31594

> <r_epik_Ionization_Penalty_Charging>
0

> <r_epik_Ionization_Penalty_Neutral>
5.31594

> <r_epik_State_Penalty>
7.79803

> <r_epik_Charging_Adjusted_Penalty>
7.79803

> <i_epik_Tot_Q>
0

> <i_epik_Tot_abs_Q>
0

> <r_epik_Metal_State_Penalty>
4.83511

> <b_epik_Metal_Only>
1

> <s_lp_Force_Field>
OPLS_2005

> <r_lp_Energy>
41.8975

> <b_lp_Chiralities_Consistent>
1

> <s_lp_Variant>
AV-unprocessed.smi:11-6

> <Gold.Version>
5.8.1

> <Gold.Id.Protein>
6NUR|6NUR_protein|mol2

> <Gold.PLP.Fitness>
36.7889

> <Gold.PLP.PLP>
-27.3115

> <Gold.PLP.part.hbond>
-3.0000

> <Gold.PLP.part.metal>
0.0000

> <Gold.PLP.part.buried>
-3.8812

> <Gold.PLP.part.nonpolar>
-19.9830

> <Gold.PLP.part.repulsive>
0.1063

> <Gold.PLP.ligand.clash>
0.0000

> <Gold.PLP.ligand.torsion>
0.1070

> <Gold.PLP.Chemscore.Hbond>
2.1716

> <Gold.PLP.Chemscore.CHOScore>
1.0000

> <Gold.PLP.Chemscore.Metal>
0.0000

> <Gold.Chemscore.Hbonds>
donor molecule, donor type, donor heavy atom, donor atom, acceptor molecule, acceptor atom, score
      L1  H     4    23       P1  7949  0.20
      P1  H  7997  8009       L1     7  0.86
      P1  H 10752 10764       L1     4  1.00
      L1  C    10    28       P1  8028  1.00

> <Gold.PLP.Chemscore.Internal.Correction>
0.1767

> <Gold.Rescore>
     Score         DG    S(hbond)    S(metal)    S(lipo)     H(rot)  DE(clash)    DE(int)     intcor
     11.02     -11.22       0.99        0.00      60.65       1.83       0.11       0.10       ----

> <Gold.Chemscore.Fitness>
11.0211

> <Gold.Chemscore.DG>
-11.2245

> <Gold.Chemscore.ZeroCoef>
-5.4800

> <Gold.Chemscore.Hbond>
0.9950

> <Gold.Chemscore.Metal>
0.0000

> <Gold.Chemscore.Lipo>
60.6538

> <Gold.Chemscore.Internal_Hbond>
0.0000

> <Gold.Chemscore.DEClash>
0.1075

> <Gold.Chemscore.DEInternal>
0.0959

> <Gold.Chemscore.Rot>
1.8263

> <Gold.Chemscore.Internal.Correction>
   9.000000E+99

> <Gold.Chemscore.Hbonds>
donor molecule, donor type, donor heavy atom, donor atom, acceptor molecule, acceptor atom, score
      L1  H     4    23       P1  7949  0.08
      P1  H  7997  8009       L1     7  0.03
      P1  H 10752 10764       L1     4  0.54

> <Gold.Chemscore.Hbond.Weighted>
-3.3232

> <Gold.Chemscore.Metal.Weighted>
-0.0000

> <Gold.Chemscore.Lipo.Weighted>
-7.0965

> <Gold.Chemscore.Internal_Hbond.Weighted>
0.0000

> <Gold.Chemscore.DEClash.Weighted>
0.1075

> <Gold.Chemscore.DEInternal.Weighted>
0.0959

> <Gold.Chemscore.Rot.Weighted>
4.6752

> <Gold.Chemscore.Internal.Correction.Weighted>
   9.000000E+99

> <Gold.Protein.RotatedTorsions>
[ 6907 6896 6895 6894 ] final -137.09 input  -60.11 | X-H torsion
[ 7974 7965 7964 7962 ] final  -50.14 input  175.53 | X-H torsion
[ 8008 7997 7996 7995 ] final -161.78 input   59.86 | X-H torsion
[ 10167 10162 10161 10158 ] final   83.44 input  -65.29 | X-H torsion
[ 10718 10713 10712 10709 ] final  151.71 input   66.30 | X-H torsion
[ 10763 10752 10751 10750 ] final  -79.30 input  -60.55 | X-H torsion
[ 11005 11000 10999 10996 ] final  162.24 input  -57.11 | X-H torsion

> <Gold.Protein.ActiveResidues>
 VAL166  LYS551  ARG553  GLY616  TRP617  ASP618  TYR619  PRO620  LYS621  CYS622 
 ASP623  PHE694  ASN695  SER759  ASP760  ASP761  ALA762  ILE779  LEU786  VAL792 
 PHE793  MET794  SER795  GLU796  ALA797  LYS798  CYS799  TRP800  GLU811  SER814 

> <Gold.Protein.RotatedAtoms>
  151.0182  133.5901  159.2674 H   0  0  0  0  0  0  0  0  0  0  0  0  # atno 6907 bound_to 6896
  151.3028  135.0772  159.9254 H   0  0  0  0  0  0  0  0  0  0  0  0  # atno 6908 bound_to 6896
  152.5316  133.9861  159.7883 H   0  0  0  0  0  0  0  0  0  0  0  0  # atno 6909 bound_to 6896
  145.9331  140.7731  142.9590 H   0  0  0  0  0  0  0  0  0  0  0  0  # atno 7974 bound_to 7965
  155.7972  140.0886  157.1977 H   0  0  0  0  0  0  0  0  0  0  0  0  # atno 8008 bound_to 7997
  154.3983  140.1479  156.3290 H   0  0  0  0  0  0  0  0  0  0  0  0  # atno 8009 bound_to 7997
  155.8499  140.3435  155.5689 H   0  0  0  0  0  0  0  0  0  0  0  0  # atno 8010 bound_to 7997
  139.9183  144.6228  150.8466 H   0  0  0  0  0  0  0  0  0  0  0  0  # atno 10167 bound_to 10162
  157.2672  131.0810  151.1625 H   0  0  0  0  0  0  0  0  0  0  0  0  # atno 10718 bound_to 10713
  154.5368  135.5700  153.6805 H   0  0  0  0  0  0  0  0  0  0  0  0  # atno 10763 bound_to 10752
  152.9953  135.6218  154.2555 H   0  0  0  0  0  0  0  0  0  0  0  0  # atno 10764 bound_to 10752
  154.2484  135.2860  155.2806 H   0  0  0  0  0  0  0  0  0  0  0  0  # atno 10765 bound_to 10752
  140.2238  134.8176  157.3247 H   0  0  0  0  0  0  0  0  0  0  0  0  # atno 11005 bound_to 11000
  144.6767  140.2159  143.7372 LP  0  0  0  0  0  0  0  0  0  0  0  0  # atno 17320 bound_to 7965
  145.8400  139.2125  143.1833 LP  0  0  0  0  0  0  0  0  0  0  0  0  # atno 17321 bound_to 7965
  140.7668  143.3315  151.2400 LP  0  0  0  0  0  0  0  0  0  0  0  0  # atno 17342 bound_to 10162
  139.6883  143.9735  152.2846 LP  0  0  0  0  0  0  0  0  0  0  0  0  # atno 17343 bound_to 10162
  157.3111  130.6890  149.6216 LP  0  0  0  0  0  0  0  0  0  0  0  0  # atno 17370 bound_to 10713
  155.9663  130.4363  150.5128 LP  0  0  0  0  0  0  0  0  0  0  0  0  # atno 17371 bound_to 10713
  140.1822  134.4475  155.7765 LP  0  0  0  0  0  0  0  0  0  0  0  0  # atno 17394 bound_to 11000
  141.2222  133.6989  156.7888 LP  0  0  0  0  0  0  0  0  0  0  0  0  # atno 17395 bound_to 11000

$$$$
