AV-unprocessed.smi:1506|AV-procd|sdf|6076|dock1
  -GOLD-   22720 6193D 1   1.00000     0.00000
 Structure written by MMmdl.
 39 41  0  0  0  0  0  0  0  0  1 V2000
  145.1314  144.2546  153.0345 C   0  0  0  0  0  0  0  0  0  0  0  0
  145.5867  143.3297  154.1446 C   0  0  0  0  0  0  0  0  0  0  0  0
  144.8940  143.2944  155.3710 C   0  0  0  0  0  0  0  0  0  0  0  0
  145.3248  142.4318  156.3959 C   0  0  0  0  0  0  0  0  0  0  0  0
  146.4479  141.6047  156.2010 C   0  0  0  0  0  0  0  0  0  0  0  0
  147.1560  141.6348  154.9731 C   0  0  0  0  0  0  0  0  0  0  0  0
  148.2664  140.8658  154.6989 O   0  0  0  0  0  0  0  0  0  0  0  0
  149.0139  140.3436  155.7908 C   0  0  0  0  0  0  0  0  0  0  0  0
  150.5081  140.6556  155.6036 C   0  0  2  0  0  0  0  0  0  0  0  0
  150.9937  139.9427  154.4828 O   0  0  0  0  0  0  0  0  0  0  0  0
  151.3634  140.3889  156.8582 C   0  0  0  0  0  0  0  0  0  0  0  0
  151.3250  141.4961  157.7969 N   0  0  0  0  0  0  0  0  0  0  0  0
  150.5856  142.6176  157.6986 C   0  0  0  0  0  0  0  0  0  0  0  0
  150.7057  143.5141  158.6735 N   0  0  0  0  0  0  0  0  0  0  0  0
  151.6306  142.9030  159.5031 C   0  0  0  0  0  0  0  0  0  0  0  0
  152.1964  143.3369  160.7235 C   0  0  0  0  0  0  0  0  0  0  0  0
  153.1374  142.5331  161.4005 C   0  0  0  0  0  0  0  0  0  0  0  0
  153.5267  141.2862  160.8693 C   0  0  0  0  0  0  0  0  0  0  0  0
  152.9769  140.8329  159.6548 C   0  0  0  0  0  0  0  0  0  0  0  0
  152.0378  141.6374  158.9829 C   0  0  0  0  0  0  0  0  0  0  0  0
  146.7122  142.5023  153.9537 C   0  0  0  0  0  0  0  0  0  0  0  0
  144.1181  144.6164  153.2118 H   0  0  0  0  0  0  0  0  0  0  0  0
  145.1418  143.7350  152.0760 H   0  0  0  0  0  0  0  0  0  0  0  0
  145.7961  145.1161  152.9661 H   0  0  0  0  0  0  0  0  0  0  0  0
  144.0324  143.9262  155.5304 H   0  0  0  0  0  0  0  0  0  0  0  0
  144.7928  142.4042  157.3354 H   0  0  0  0  0  0  0  0  0  0  0  0
  146.7463  140.9565  157.0105 H   0  0  0  0  0  0  0  0  0  0  0  0
  148.6633  140.7504  156.7410 H   0  0  0  0  0  0  0  0  0  0  0  0
  148.8798  139.2612  155.8234 H   0  0  0  0  0  0  0  0  0  0  0  0
  150.5946  141.7122  155.3469 H   0  0  0  0  0  0  0  0  0  0  0  0
  150.5955  139.0857  154.4774 H   0  0  0  0  0  0  0  0  0  0  0  0
  151.0108  139.4921  157.3693 H   0  0  0  0  0  0  0  0  0  0  0  0
  152.4036  140.2038  156.5875 H   0  0  0  0  0  0  0  0  0  0  0  0
  149.9241  142.7865  156.8614 H   0  0  0  0  0  0  0  0  0  0  0  0
  151.9065  144.2903  161.1396 H   0  0  0  0  0  0  0  0  0  0  0  0
  153.5637  142.8755  162.3319 H   0  0  0  0  0  0  0  0  0  0  0  0
  154.2489  140.6782  161.3943 H   0  0  0  0  0  0  0  0  0  0  0  0
  153.2748  139.8797  159.2434 H   0  0  0  0  0  0  0  0  0  0  0  0
  147.2446  142.5328  153.0142 H   0  0  0  0  0  0  0  0  0  0  0  0
  1  2  1  0  0  0  0
  1 22  1  0  0  0  0
  1 23  1  0  0  0  0
  1 24  1  0  0  0  0
  2 21  1  0  0  0  0
  2  3  2  0  0  0  0
  3  4  1  0  0  0  0
  3 25  1  0  0  0  0
  4  5  2  0  0  0  0
  4 26  1  0  0  0  0
  5  6  1  0  0  0  0
  5 27  1  0  0  0  0
  6  7  1  0  0  0  0
  6 21  2  0  0  0  0
  7  8  1  0  0  0  0
  8  9  1  0  0  0  0
  8 28  1  0  0  0  0
  8 29  1  0  0  0  0
  9 10  1  0  0  0  0
  9 11  1  0  0  0  0
  9 30  1  0  0  0  0
 10 31  1  0  0  0  0
 11 12  1  0  0  0  0
 11 32  1  0  0  0  0
 11 33  1  0  0  0  0
 12 20  1  0  0  0  0
 12 13  1  0  0  0  0
 13 14  2  0  0  0  0
 13 34  1  0  0  0  0
 14 15  1  0  0  0  0
 15 20  2  0  0  0  0
 15 16  1  0  0  0  0
 16 17  2  0  0  0  0
 16 35  1  0  0  0  0
 17 18  1  0  0  0  0
 17 36  1  0  0  0  0
 18 19  2  0  0  0  0
 18 37  1  0  0  0  0
 19 20  1  0  0  0  0
 19 38  1  0  0  0  0
 21 39  1  0  0  0  0
M  END
> <s_m_source_file>
AV-unprocessed.smi

> <i_m_source_file_index>
1506

> <i_lp_mmshare_version>
43012

> <i_f3d_flags>
0

> <s_epik_input>
W0NIM11jMVtjSF1bY0hdW2NIXWMoW2NIXTEpT1tDSDJdW0NASF0oW09IXSlbQ0gyXW4oW2NIXW4yKWMoYzIzKVtjSF1bY0hdW2NIXVtjSF0z

> <s_epik_cmdline>
J2VwaWtfcHl0aG9uJywgJy1waCcsICc3LjAnLCAnLXRuJywgJzgnLCAnLW1hJywgJzIwMCcsICctbWV0YWxfYmluZGluZycsICctaW1hZScsICc8aW5maWxlLm1hZT4nLCAnLW9tYWUnLCAnPG91dGZpbGUubWFlPic=

> <r_lp_tautomer_probability>
1

> <r_epik_Ionization_Penalty>
0.0608485

> <r_epik_Ionization_Penalty_Charging>
0

> <r_epik_Ionization_Penalty_Neutral>
0.0608485

> <r_epik_State_Penalty>
0.0527778

> <r_epik_Charging_Adjusted_Penalty>
0.0527778

> <i_epik_Tot_Q>
0

> <i_epik_Tot_abs_Q>
0

> <r_epik_Metal_State_Penalty>
5.51973e-05

> <b_epik_Metal_Only>
0

> <s_lp_Force_Field>
OPLS_2005

> <r_lp_Energy>
16.3702

> <b_lp_Chiralities_Consistent>
1

> <s_lp_Variant>
AV-unprocessed.smi:1506-1

> <Gold.Version>
5.8.1

> <Gold.Id.Protein>
6NUR|6NUR_protein|mol2

> <Gold.PLP.Fitness>
50.9226

> <Gold.PLP.PLP>
-46.7446

> <Gold.PLP.part.hbond>
-1.0000

> <Gold.PLP.part.metal>
0.0000

> <Gold.PLP.part.buried>
-7.4812

> <Gold.PLP.part.nonpolar>
-38.9175

> <Gold.PLP.part.repulsive>
0.2357

> <Gold.PLP.ligand.clash>
0.0000

> <Gold.PLP.ligand.torsion>
0.9942

> <Gold.PLP.Chemscore.Hbond>
1.0000

> <Gold.PLP.Chemscore.CHOScore>
1.0000

> <Gold.PLP.Chemscore.Metal>
0.0000

> <Gold.Chemscore.Hbonds>
donor molecule, donor type, donor heavy atom, donor atom, acceptor molecule, acceptor atom, score
      P1  H  7989  7998       L1    10  0.91
      L1  C    13    34       P1  8028  1.00

> <Gold.PLP.Chemscore.Internal.Correction>
0.1664

> <Gold.Rescore>
     Score         DG    S(hbond)    S(metal)    S(lipo)     H(rot)  DE(clash)    DE(int)     intcor
     15.76     -16.76       0.97        0.00     116.52       2.19       0.04       0.96       ----

> <Gold.Chemscore.Fitness>
15.7634

> <Gold.Chemscore.DG>
-16.7574

> <Gold.Chemscore.ZeroCoef>
-5.4800

> <Gold.Chemscore.Hbond>
0.9717

> <Gold.Chemscore.Metal>
0.0000

> <Gold.Chemscore.Lipo>
116.5167

> <Gold.Chemscore.Internal_Hbond>
0.0000

> <Gold.Chemscore.DEClash>
0.0389

> <Gold.Chemscore.DEInternal>
0.9550

> <Gold.Chemscore.Rot>
2.1877

> <Gold.Chemscore.Internal.Correction>
   9.000000E+99

> <Gold.Chemscore.Hbonds>
donor molecule, donor type, donor heavy atom, donor atom, acceptor molecule, acceptor atom, score
      P1  H  7989  7998       L1    10  0.68

> <Gold.Chemscore.Hbond.Weighted>
-3.2454

> <Gold.Chemscore.Metal.Weighted>
-0.0000

> <Gold.Chemscore.Lipo.Weighted>
-13.6325

> <Gold.Chemscore.Internal_Hbond.Weighted>
0.0000

> <Gold.Chemscore.DEClash.Weighted>
0.0389

> <Gold.Chemscore.DEInternal.Weighted>
0.9550

> <Gold.Chemscore.Rot.Weighted>
5.6005

> <Gold.Chemscore.Internal.Correction.Weighted>
   9.000000E+99

> <Gold.Protein.RotatedTorsions>
[ 6907 6896 6895 6894 ] final  131.55 input  -60.11 | X-H torsion
[ 7974 7965 7964 7962 ] final  165.45 input  175.53 | X-H torsion
[ 8008 7997 7996 7995 ] final  -82.62 input   59.86 | X-H torsion
[ 10167 10162 10161 10158 ] final -125.68 input  -65.29 | X-H torsion
[ 10718 10713 10712 10709 ] final   41.95 input   66.30 | X-H torsion
[ 10763 10752 10751 10750 ] final  -88.91 input  -60.55 | X-H torsion
[ 11005 11000 10999 10996 ] final  -39.38 input  -57.11 | X-H torsion

> <Gold.Protein.ActiveResidues>
 VAL166  LYS551  ARG553  GLY616  TRP617  ASP618  TYR619  PRO620  LYS621  CYS622 
 ASP623  PHE694  ASN695  SER759  ASP760  ASP761  ALA762  ILE779  LEU786  VAL792 
 PHE793  MET794  SER795  GLU796  ALA797  LYS798  CYS799  TRP800  GLU811  SER814 

> <Gold.Protein.RotatedAtoms>
  152.3415  133.6072  159.5879 H   0  0  0  0  0  0  0  0  0  0  0  0  # atno 6907 bound_to 6896
  150.7481  133.9715  159.3556 H   0  0  0  0  0  0  0  0  0  0  0  0  # atno 6908 bound_to 6896
  151.7578  135.0818  160.0392 H   0  0  0  0  0  0  0  0  0  0  0  0  # atno 6909 bound_to 6896
  144.7502  139.8472  143.6369 H   0  0  0  0  0  0  0  0  0  0  0  0  # atno 7974 bound_to 7965
  154.6105  140.0630  156.9487 H   0  0  0  0  0  0  0  0  0  0  0  0  # atno 8008 bound_to 7997
  155.1981  140.3313  155.4329 H   0  0  0  0  0  0  0  0  0  0  0  0  # atno 8009 bound_to 7997
  156.2373  140.1869  156.7067 H   0  0  0  0  0  0  0  0  0  0  0  0  # atno 8010 bound_to 7997
  139.9795  143.5758  152.2383 H   0  0  0  0  0  0  0  0  0  0  0  0  # atno 10167 bound_to 10162
  157.3994  130.7851  149.7336 H   0  0  0  0  0  0  0  0  0  0  0  0  # atno 10718 bound_to 10713
  154.6496  135.5360  153.7886 H   0  0  0  0  0  0  0  0  0  0  0  0  # atno 10763 bound_to 10752
  153.0379  135.6479  154.1036 H   0  0  0  0  0  0  0  0  0  0  0  0  # atno 10764 bound_to 10752
  154.0954  135.2937  155.3242 H   0  0  0  0  0  0  0  0  0  0  0  0  # atno 10765 bound_to 10752
  141.0097  133.6914  156.2179 H   0  0  0  0  0  0  0  0  0  0  0  0  # atno 11005 bound_to 11000
  146.1441  139.4506  143.0090 LP  0  0  0  0  0  0  0  0  0  0  0  0  # atno 17320 bound_to 7965
  145.6972  141.0147  143.1523 LP  0  0  0  0  0  0  0  0  0  0  0  0  # atno 17321 bound_to 7965
  139.6420  144.7655  151.2319 LP  0  0  0  0  0  0  0  0  0  0  0  0  # atno 17342 bound_to 10162
  140.7494  143.6301  150.8431 LP  0  0  0  0  0  0  0  0  0  0  0  0  # atno 17343 bound_to 10162
  155.9819  130.4015  150.3446 LP  0  0  0  0  0  0  0  0  0  0  0  0  # atno 17370 bound_to 10713
  157.1571  131.0335  151.2858 LP  0  0  0  0  0  0  0  0  0  0  0  0  # atno 17371 bound_to 10713
  140.6754  134.4824  157.5588 LP  0  0  0  0  0  0  0  0  0  0  0  0  # atno 17394 bound_to 11000
  139.9083  134.8400  156.1622 LP  0  0  0  0  0  0  0  0  0  0  0  0  # atno 17395 bound_to 11000

$$$$
