AV-unprocessed.smi:3193|AV-procd|sdf|12205|dock8
  -GOLD-   2272018 43D 1   1.00000     0.00000
 Structure written by MMmdl.
 41 42  0  0  0  0  0  0  0  0  3 V2000
  153.1408  141.6454  159.7576 C   0  0  0  0  0  0  0  0  0  0  0  0
  152.6095  143.0593  159.4603 C   0  0  2  0  0  0  0  0  0  0  0  0
  152.4509  143.8377  160.7838 C   0  0  0  0  0  0  0  0  0  0  0  0
  151.9753  145.2779  160.5526 C   0  0  0  0  0  0  0  0  0  0  0  0
  150.6636  145.2968  159.7607 C   0  0  0  0  0  0  0  0  0  0  0  0
  150.8141  144.5345  158.4368 C   0  0  0  0  0  0  0  0  0  0  0  0
  151.2794  143.0763  158.6491 C   0  0  1  0  0  0  0  0  0  0  0  0
  151.3794  142.3661  157.2795 C   0  0  0  0  0  0  0  0  0  0  0  0
  150.0582  142.1992  156.6406 N   0  3  0  0  0  0  0  0  0  0  0  0
  149.9659  141.0333  155.7405 C   0  0  0  0  0  0  0  0  0  0  0  0
  149.4069  141.4373  154.3688 C   0  0  0  0  0  0  0  0  0  0  0  0
  147.9423  141.4100  154.3452 N   0  0  0  0  0  0  0  0  0  0  0  0
  147.0836  142.1151  155.1494 C   0  0  0  0  0  0  0  0  0  0  0  0
  145.8139  141.7713  154.7624 C   0  0  0  0  0  0  0  0  0  0  0  0
  145.9508  140.8702  153.7405 N   0  3  0  0  0  0  0  0  0  0  0  0
  147.2457  140.6519  153.4879 C   0  0  0  0  0  0  0  0  0  0  0  0
  152.3905  141.0353  160.2616 H   0  0  0  0  0  0  0  0  0  0  0  0
  154.0193  141.6861  160.4024 H   0  0  0  0  0  0  0  0  0  0  0  0
  153.4476  141.1293  158.8487 H   0  0  0  0  0  0  0  0  0  0  0  0
  153.3714  143.5717  158.8706 H   0  0  0  0  0  0  0  0  0  0  0  0
  151.7417  143.3209  161.4323 H   0  0  0  0  0  0  0  0  0  0  0  0
  153.3992  143.8579  161.3222 H   0  0  0  0  0  0  0  0  0  0  0  0
  151.8407  145.7845  161.5089 H   0  0  0  0  0  0  0  0  0  0  0  0
  152.7404  145.8354  160.0108 H   0  0  0  0  0  0  0  0  0  0  0  0
  149.8674  144.8483  160.3563 H   0  0  0  0  0  0  0  0  0  0  0  0
  150.3623  146.3264  159.5658 H   0  0  0  0  0  0  0  0  0  0  0  0
  149.8588  144.5504  157.9104 H   0  0  0  0  0  0  0  0  0  0  0  0
  151.5252  145.0589  157.7968 H   0  0  0  0  0  0  0  0  0  0  0  0
  150.5072  142.5775  159.2375 H   0  0  0  0  0  0  0  0  0  0  0  0
  151.9940  142.9523  156.5948 H   0  0  0  0  0  0  0  0  0  0  0  0
  151.8714  141.3987  157.3904 H   0  0  0  0  0  0  0  0  0  0  0  0
  149.3684  142.0948  157.3713 H   0  0  0  0  0  0  0  0  0  0  0  0
  150.9548  140.5868  155.6265 H   0  0  0  0  0  0  0  0  0  0  0  0
  149.3219  140.2808  156.1976 H   0  0  0  0  0  0  0  0  0  0  0  0
  149.7323  142.4429  154.0974 H   0  0  0  0  0  0  0  0  0  0  0  0
  149.7666  140.7622  153.5909 H   0  0  0  0  0  0  0  0  0  0  0  0
  147.4285  142.7911  155.9186 H   0  0  0  0  0  0  0  0  0  0  0  0
  144.8487  142.0900  155.1288 H   0  0  0  0  0  0  0  0  0  0  0  0
  147.6467  139.9925  152.7385 H   0  0  0  0  0  0  0  0  0  0  0  0
  149.8474  143.0366  156.1161 H   0  0  0  0  0  0  0  0  0  0  0  0
  145.1838  140.4296  153.2473 H   0  0  0  0  0  0  0  0  0  0  0  0
  1  2  1  0  0  0  0
  1 17  1  0  0  0  0
  1 18  1  0  0  0  0
  1 19  1  0  0  0  0
  2  7  1  0  0  0  0
  2  3  1  0  0  0  0
  2 20  1  0  0  0  0
  3  4  1  0  0  0  0
  3 21  1  0  0  0  0
  3 22  1  0  0  0  0
  4  5  1  0  0  0  0
  4 23  1  0  0  0  0
  4 24  1  0  0  0  0
  5  6  1  0  0  0  0
  5 25  1  0  0  0  0
  5 26  1  0  0  0  0
  6  7  1  0  0  0  0
  6 27  1  0  0  0  0
  6 28  1  0  0  0  0
  7  8  1  0  0  0  0
  7 29  1  0  0  0  0
  8  9  1  0  0  0  0
  8 30  1  0  0  0  0
  8 31  1  0  0  0  0
  9 10  1  0  0  0  0
  9 32  1  0  0  0  0
  9 40  1  0  0  0  0
 10 11  1  0  0  0  0
 10 33  1  0  0  0  0
 10 34  1  0  0  0  0
 11 12  1  0  0  0  0
 11 35  1  0  0  0  0
 11 36  1  0  0  0  0
 12 16  1  0  0  0  0
 12 13  1  0  0  0  0
 13 14  2  0  0  0  0
 13 37  1  0  0  0  0
 14 15  1  0  0  0  0
 14 38  1  0  0  0  0
 15 16  2  0  0  0  0
 15 41  1  0  0  0  0
 16 39  1  0  0  0  0
M  CHG  1   9   1
M  CHG  1  15   1
M  END
> <s_m_source_file>
AV-unprocessed.smi

> <i_m_source_file_index>
3193

> <i_lp_mmshare_version>
43012

> <i_f3d_flags>
0

> <s_epik_input>
W0NIM11bQ0BASF0xW0NIMl1bQ0gyXVtDSDJdW0NIMl1bQ0BIXTFbQ0gyXVtOSF1bQ0gyXVtDSDJdbjJbY0hdW2NIXW5bY0hdMg==

> <s_epik_cmdline>
J2VwaWtfcHl0aG9uJywgJy1waCcsICc3LjAnLCAnLXRuJywgJzgnLCAnLW1hJywgJzIwMCcsICctbWV0YWxfYmluZGluZycsICctaW1hZScsICc8aW5maWxlLm1hZT4nLCAnLW9tYWUnLCAnPG91dGZpbGUubWFlPic=

> <r_lp_tautomer_probability>
1

> <r_epik_Ionization_Penalty>
1.50262

> <r_epik_Ionization_Penalty_Charging>
0.00193432

> <r_epik_Ionization_Penalty_Neutral>
1.50068

> <r_epik_State_Penalty>
1.11854

> <r_epik_Charging_Adjusted_Penalty>
1.12048

> <i_epik_Tot_Q>
2

> <i_epik_Tot_abs_Q>
2

> <r_epik_Metal_State_Penalty>
5.11322

> <b_epik_Metal_Only>
0

> <s_lp_Force_Field>
OPLS_2005

> <r_lp_Energy>
26.3387

> <b_lp_Chiralities_Consistent>
1

> <s_lp_Variant>
AV-unprocessed.smi:3193-5

> <Gold.Version>
5.8.1

> <Gold.Id.Protein>
6NUR|6NUR_protein|mol2

> <Gold.PLP.Fitness>
55.5505

> <Gold.PLP.PLP>
-39.1529

> <Gold.PLP.part.hbond>
-2.0000

> <Gold.PLP.part.metal>
0.0000

> <Gold.PLP.part.buried>
-2.2326

> <Gold.PLP.part.nonpolar>
-34.9592

> <Gold.PLP.part.repulsive>
0.0468

> <Gold.PLP.ligand.clash>
0.0000

> <Gold.PLP.ligand.torsion>
0.7189

> <Gold.PLP.Chemscore.Hbond>
4.0000

> <Gold.PLP.Chemscore.CHOScore>
1.9304

> <Gold.PLP.Chemscore.Metal>
0.0000

> <Gold.Chemscore.Hbonds>
donor molecule, donor type, donor heavy atom, donor atom, acceptor molecule, acceptor atom, score
      L1  H     9    40       P1  8028  2.00
      L1  H    15    41       P1 10175  2.00
      L1  C    13    37       P1  8028  0.91
      L1  C    16    39       P1  7957  1.00

> <Gold.PLP.Chemscore.Internal.Correction>
0.0443

> <Gold.Rescore>
     Score         DG    S(hbond)    S(metal)    S(lipo)     H(rot)  DE(clash)    DE(int)     intcor
     18.58     -19.74       1.94        0.00     109.71       1.98       0.46       0.71       ----

> <Gold.Chemscore.Fitness>
18.5792

> <Gold.Chemscore.DG>
-19.7408

> <Gold.Chemscore.ZeroCoef>
-5.4800

> <Gold.Chemscore.Hbond>
1.9421

> <Gold.Chemscore.Metal>
0.0000

> <Gold.Chemscore.Lipo>
109.7134

> <Gold.Chemscore.Internal_Hbond>
0.0000

> <Gold.Chemscore.DEClash>
0.4554

> <Gold.Chemscore.DEInternal>
0.7062

> <Gold.Chemscore.Rot>
1.9774

> <Gold.Chemscore.Internal.Correction>
   9.000000E+99

> <Gold.Chemscore.Hbonds>
donor molecule, donor type, donor heavy atom, donor atom, acceptor molecule, acceptor atom, score
      L1  H     9    40       P1  8028  0.96
      L1  H    15    41       P1 10175  0.94

> <Gold.Chemscore.Hbond.Weighted>
-6.4865

> <Gold.Chemscore.Metal.Weighted>
-0.0000

> <Gold.Chemscore.Lipo.Weighted>
-12.8365

> <Gold.Chemscore.Internal_Hbond.Weighted>
0.0000

> <Gold.Chemscore.DEClash.Weighted>
0.4554

> <Gold.Chemscore.DEInternal.Weighted>
0.7062

> <Gold.Chemscore.Rot.Weighted>
5.0622

> <Gold.Chemscore.Internal.Correction.Weighted>
   9.000000E+99

> <Gold.Protein.RotatedTorsions>
[ 6907 6896 6895 6894 ] final  -96.03 input  -60.11 | X-H torsion
[ 7974 7965 7964 7962 ] final  125.68 input  175.53 | X-H torsion
[ 8008 7997 7996 7995 ] final   82.35 input   59.86 | X-H torsion
[ 10167 10162 10161 10158 ] final   71.04 input  -65.29 | X-H torsion
[ 10718 10713 10712 10709 ] final    8.35 input   66.30 | X-H torsion
[ 10763 10752 10751 10750 ] final -121.98 input  -60.55 | X-H torsion
[ 11005 11000 10999 10996 ] final   35.95 input  -57.11 | X-H torsion

> <Gold.Protein.ActiveResidues>
 VAL166  LYS551  ARG553  GLY616  TRP617  ASP618  TYR619  PRO620  LYS621  CYS622 
 ASP623  PHE694  ASN695  SER759  ASP760  ASP761  ALA762  ILE779  LEU786  VAL792 
 PHE793  MET794  SER795  GLU796  ALA797  LYS798  CYS799  TRP800  GLU811  SER814 

> <Gold.Protein.RotatedAtoms>
  150.6978  134.1565  159.4159 H   0  0  0  0  0  0  0  0  0  0  0  0  # atno 6907 bound_to 6896
  151.9547  135.0150  160.0553 H   0  0  0  0  0  0  0  0  0  0  0  0  # atno 6908 bound_to 6896
  152.1980  133.4785  159.5080 H   0  0  0  0  0  0  0  0  0  0  0  0  # atno 6909 bound_to 6896
  145.0702  139.3736  143.4961 H   0  0  0  0  0  0  0  0  0  0  0  0  # atno 7974 bound_to 7965
  155.9094  140.3428  155.6087 H   0  0  0  0  0  0  0  0  0  0  0  0  # atno 8008 bound_to 7997
  155.7406  140.0807  157.2266 H   0  0  0  0  0  0  0  0  0  0  0  0  # atno 8009 bound_to 7997
  154.4054  140.1571  156.2598 H   0  0  0  0  0  0  0  0  0  0  0  0  # atno 8010 bound_to 7997
  140.0504  144.5316  150.7367 H   0  0  0  0  0  0  0  0  0  0  0  0  # atno 10167 bound_to 10162
  156.9503  130.5894  149.5656 H   0  0  0  0  0  0  0  0  0  0  0  0  # atno 10718 bound_to 10713
  154.8680  135.4149  154.2708 H   0  0  0  0  0  0  0  0  0  0  0  0  # atno 10763 bound_to 10752
  153.3618  135.7003  153.6711 H   0  0  0  0  0  0  0  0  0  0  0  0  # atno 10764 bound_to 10752
  153.5609  135.3610  155.2771 H   0  0  0  0  0  0  0  0  0  0  0  0  # atno 10765 bound_to 10752
  140.2375  134.3454  155.7939 H   0  0  0  0  0  0  0  0  0  0  0  0  # atno 11005 bound_to 11000
  146.3528  140.0443  142.8640 LP  0  0  0  0  0  0  0  0  0  0  0  0  # atno 17320 bound_to 7965
  145.1302  140.9513  143.4549 LP  0  0  0  0  0  0  0  0  0  0  0  0  # atno 17321 bound_to 7965
  140.7219  143.2597  151.4249 LP  0  0  0  0  0  0  0  0  0  0  0  0  # atno 17342 bound_to 10162
  139.5957  144.1403  152.2140 LP  0  0  0  0  0  0  0  0  0  0  0  0  # atno 17343 bound_to 10162
  156.0366  130.5452  150.8668 LP  0  0  0  0  0  0  0  0  0  0  0  0  # atno 17370 bound_to 10713
  157.5726  131.0946  150.9394 LP  0  0  0  0  0  0  0  0  0  0  0  0  # atno 17371 bound_to 10713
  141.2213  133.7280  156.8832 LP  0  0  0  0  0  0  0  0  0  0  0  0  # atno 17394 bound_to 11000
  140.1687  134.9115  157.2806 LP  0  0  0  0  0  0  0  0  0  0  0  0  # atno 17395 bound_to 11000

$$$$
