AV-unprocessed.smi:36|AV-procd|sdf|294|dock6
  -GOLD-   2262016 83D 1   1.00000     0.00000
 Structure written by MMmdl.
 64 67  0  0  0  0  0  0  0  0  1 V2000
  155.5585  128.6579  155.7206 C   0  0  0  0  0  0  0  0  0  0  0  0
  154.5179  129.7730  155.5261 C   0  0  0  0  0  0  0  0  0  0  0  0
  155.2098  131.1459  155.5575 C   0  0  0  0  0  0  0  0  0  0  0  0
  153.7953  129.5883  154.1800 C   0  0  0  0  0  0  0  0  0  0  0  0
  153.2273  129.6904  156.9326 Si  0  0  0  0  0  0  0  0  0  0  0  0
  152.4380  127.9610  157.0114 C   0  0  0  0  0  0  0  0  0  0  0  0
  154.0120  130.1032  158.6120 C   0  0  0  0  0  0  0  0  0  0  0  0
  152.0501  130.8654  156.6071 O   0  0  0  0  0  0  0  0  0  0  0  0
  151.3439  130.9924  155.3893 C   0  0  0  0  0  0  0  0  0  0  0  0
  150.4374  132.2263  155.4811 C   0  0  1  0  0  0  0  0  0  0  0  0
  151.2198  133.4137  155.3787 O   0  0  0  0  0  0  0  0  0  0  0  0
  150.5137  134.4043  154.6968 C   0  0  2  0  0  0  0  0  0  0  0  0
  150.4422  135.6228  155.5600 N   0  0  0  0  0  0  0  0  0  0  0  0
  149.7722  135.7318  156.7219 C   0  0  0  0  0  0  0  0  0  0  0  0
  149.8390  136.9227  157.3108 N   0  0  0  0  0  0  0  0  0  0  0  0
  150.6322  137.6522  156.4316 C   0  0  0  0  0  0  0  0  0  0  0  0
  151.0865  139.0583  156.4988 C   0  0  0  0  0  0  0  0  0  0  0  0
  150.7183  139.7616  157.5263 N   0  0  0  0  0  0  0  0  0  0  0  0
  151.1249  141.0841  157.6495 C   0  0  0  0  0  0  0  0  0  0  0  0
  150.7120  142.0782  157.0455 O   0  0  0  0  0  0  0  0  0  0  0  0
  152.1545  141.2896  158.7138 C   0  0  0  0  0  0  0  0  0  0  0  0
  152.8395  140.1842  159.2625 C   0  0  0  0  0  0  0  0  0  0  0  0
  153.8061  140.3798  160.2682 C   0  0  0  0  0  0  0  0  0  0  0  0
  154.0924  141.6799  160.7276 C   0  0  0  0  0  0  0  0  0  0  0  0
  153.4111  142.7850  160.1821 C   0  0  0  0  0  0  0  0  0  0  0  0
  152.4424  142.5908  159.1779 C   0  0  0  0  0  0  0  0  0  0  0  0
  151.8680  139.3603  155.3762 N   0  0  0  0  0  0  0  0  0  0  0  0
  152.1889  138.4760  154.3353 C   0  0  0  0  0  0  0  0  0  0  0  0
  151.7997  137.2313  154.2677 N   0  0  0  0  0  0  0  0  0  0  0  0
  151.0140  136.8784  155.3563 C   0  0  0  0  0  0  0  0  0  0  0  0
  149.1221  133.8474  154.4032 C   0  0  0  0  0  0  0  0  0  0  0  0
  149.4200  132.3634  154.3465 C   0  0  2  0  0  0  0  0  0  0  0  0
  148.2509  131.6042  154.5738 O   0  0  0  0  0  0  0  0  0  0  0  0
  156.3112  128.6770  154.9318 H   0  0  0  0  0  0  0  0  0  0  0  0
  155.0926  127.6723  155.7049 H   0  0  0  0  0  0  0  0  0  0  0  0
  156.0781  128.7616  156.6736 H   0  0  0  0  0  0  0  0  0  0  0  0
  155.7404  131.3029  156.4969 H   0  0  0  0  0  0  0  0  0  0  0  0
  154.4877  131.9556  155.4483 H   0  0  0  0  0  0  0  0  0  0  0  0
  155.9371  131.2419  154.7506 H   0  0  0  0  0  0  0  0  0  0  0  0
  154.4925  129.6439  153.3434 H   0  0  0  0  0  0  0  0  0  0  0  0
  153.0380  130.3584  154.0289 H   0  0  0  0  0  0  0  0  0  0  0  0
  153.2934  128.6221  154.1240 H   0  0  0  0  0  0  0  0  0  0  0  0
  153.1660  127.2062  157.3072 H   0  0  0  0  0  0  0  0  0  0  0  0
  152.0361  127.6549  156.0461 H   0  0  0  0  0  0  0  0  0  0  0  0
  151.6223  127.9205  157.7326 H   0  0  0  0  0  0  0  0  0  0  0  0
  154.8077  129.4034  158.8658 H   0  0  0  0  0  0  0  0  0  0  0  0
  153.2766  130.0640  159.4153 H   0  0  0  0  0  0  0  0  0  0  0  0
  154.4434  131.1038  158.6179 H   0  0  0  0  0  0  0  0  0  0  0  0
  152.0195  131.0520  154.5356 H   0  0  0  0  0  0  0  0  0  0  0  0
  150.7415  130.0928  155.2608 H   0  0  0  0  0  0  0  0  0  0  0  0
  149.9131  132.2342  156.4380 H   0  0  0  0  0  0  0  0  0  0  0  0
  151.0610  134.7058  153.8025 H   0  0  0  0  0  0  0  0  0  0  0  0
  149.2154  134.9110  157.1495 H   0  0  0  0  0  0  0  0  0  0  0  0
  152.6251  139.1832  158.9163 H   0  0  0  0  0  0  0  0  0  0  0  0
  154.3281  139.5325  160.6875 H   0  0  0  0  0  0  0  0  0  0  0  0
  154.8343  141.8289  161.4981 H   0  0  0  0  0  0  0  0  0  0  0  0
  153.6302  143.7820  160.5347 H   0  0  0  0  0  0  0  0  0  0  0  0
  151.9233  143.4441  158.7657 H   0  0  0  0  0  0  0  0  0  0  0  0
  152.8105  138.9164  153.5543 H   0  0  0  0  0  0  0  0  0  0  0  0
  148.4465  134.0815  155.2282 H   0  0  0  0  0  0  0  0  0  0  0  0
  148.7162  134.2565  153.4777 H   0  0  0  0  0  0  0  0  0  0  0  0
  149.8667  132.0998  153.3865 H   0  0  0  0  0  0  0  0  0  0  0  0
  148.2932  131.2423  155.4459 H   0  0  0  0  0  0  0  0  0  0  0  0
  152.2327  140.3000  155.3118 H   0  0  0  0  0  0  0  0  0  0  0  0
  1  2  1  0  0  0  0
  1 34  1  0  0  0  0
  1 35  1  0  0  0  0
  1 36  1  0  0  0  0
  2  3  1  0  0  0  0
  2  4  1  0  0  0  0
  2  5  1  0  0  0  0
  3 37  1  0  0  0  0
  3 38  1  0  0  0  0
  3 39  1  0  0  0  0
  4 40  1  0  0  0  0
  4 41  1  0  0  0  0
  4 42  1  0  0  0  0
  5  6  1  0  0  0  0
  5  7  1  0  0  0  0
  5  8  1  0  0  0  0
  6 43  1  0  0  0  0
  6 44  1  0  0  0  0
  6 45  1  0  0  0  0
  7 46  1  0  0  0  0
  7 47  1  0  0  0  0
  7 48  1  0  0  0  0
  8  9  1  0  0  0  0
  9 10  1  0  0  0  0
  9 49  1  0  0  0  0
  9 50  1  0  0  0  0
 10 32  1  0  0  0  0
 10 11  1  0  0  0  0
 10 51  1  0  0  0  0
 11 12  1  0  0  0  0
 12 13  1  0  0  0  0
 12 31  1  0  0  0  0
 12 52  1  0  0  0  0
 13 30  1  0  0  0  0
 13 14  1  0  0  0  0
 14 15  2  0  0  0  0
 14 53  1  0  0  0  0
 15 16  1  0  0  0  0
 16 30  2  0  0  0  0
 16 17  1  0  0  0  0
 17 18  2  0  0  0  0
 17 27  1  0  0  0  0
 18 19  1  0  0  0  0
 19 20  2  0  0  0  0
 19 21  1  0  0  0  0
 21 26  1  0  0  0  0
 21 22  2  0  0  0  0
 22 23  1  0  0  0  0
 22 54  1  0  0  0  0
 23 24  2  0  0  0  0
 23 55  1  0  0  0  0
 24 25  1  0  0  0  0
 24 56  1  0  0  0  0
 25 26  2  0  0  0  0
 25 57  1  0  0  0  0
 26 58  1  0  0  0  0
 27 28  1  0  0  0  0
 27 64  1  0  0  0  0
 28 29  2  0  0  0  0
 28 59  1  0  0  0  0
 29 30  1  0  0  0  0
 31 32  1  0  0  0  0
 31 60  1  0  0  0  0
 31 61  1  0  0  0  0
 32 33  1  0  0  0  0
 32 62  1  0  0  0  0
 33 63  1  0  0  0  0
M  END
> <s_m_source_file>
AV-unprocessed.smi

> <i_m_source_file_index>
36

> <i_lp_mmshare_version>
43012

> <i_f3d_flags>
0

> <s_epik_input>
W0NIM11DKFtDSDNdKShbQ0gzXSlbU2ldKFtDSDNdKShbQ0gzXSlPW0NIMl1bQ0BASF0xT1tDQEhdKFtDSDJdW0NASF0xW09IXSluKFtjSF1uMiljKGMyMyluW2NIXW5jM1tOSF1DKD1PKWM0W2NIXVtjSF1bY0hdW2NIXVtjSF00

> <s_epik_cmdline>
J2VwaWtfcHl0aG9uJywgJy1waCcsICc3LjAnLCAnLXRuJywgJzgnLCAnLW1hJywgJzIwMCcsICctbWV0YWxfYmluZGluZycsICctaW1hZScsICc8aW5maWxlLm1hZT4nLCAnLW9tYWUnLCAnPG91dGZpbGUubWFlPic=

> <r_epik_Ionization_Penalty>
0.0850405

> <r_epik_Ionization_Penalty_Charging>
0.0850403

> <r_epik_Ionization_Penalty_Neutral>
1.47497e-07

> <r_epik_State_Penalty>
2.6133

> <r_epik_Charging_Adjusted_Penalty>
2.69834

> <i_epik_Tot_Q>
0

> <i_epik_Tot_abs_Q>
0

> <r_epik_Metal_State_Penalty>
2.92945

> <b_epik_Metal_Only>
0

> <s_epik_Chemistry_Notes>
This compound contains an acetal/aminal-like group ( X-CH(R)-Y where X, Y are N, S, or O) that may be acid/base labile, releasing an aldehyde.

> <s_lp_Force_Field>
OPLS_2005

> <r_lp_Energy>
45.0835

> <b_lp_Chiralities_Consistent>
1

> <s_lp_Variant>
AV-unprocessed.smi:36-16

> <Gold.Version>
5.8.1

> <Gold.Id.Protein>
6NUR|6NUR_protein|mol2

> <Gold.PLP.Fitness>
46.9291

> <Gold.PLP.PLP>
-45.7398

> <Gold.PLP.part.hbond>
-1.0000

> <Gold.PLP.part.metal>
0.0000

> <Gold.PLP.part.buried>
-7.6093

> <Gold.PLP.part.nonpolar>
-38.2277

> <Gold.PLP.part.repulsive>
0.4538

> <Gold.PLP.ligand.clash>
0.0000

> <Gold.PLP.ligand.torsion>
1.0564

> <Gold.PLP.Chemscore.Hbond>
1.0000

> <Gold.PLP.Chemscore.CHOScore>
0.0000

> <Gold.PLP.Chemscore.Metal>
0.0000

> <Gold.Chemscore.Hbonds>
donor molecule, donor type, donor heavy atom, donor atom, acceptor molecule, acceptor atom, score
      P1  H 10752 10763       L1    29  1.00

> <Gold.PLP.Chemscore.Internal.Correction>
0.3022

> <Gold.Rescore>
     Score         DG    S(hbond)    S(metal)    S(lipo)     H(rot)  DE(clash)    DE(int)     intcor
     11.66     -12.89       0.79        0.00     100.04       2.70       0.01       1.21       ----

> <Gold.Chemscore.Fitness>
11.6637

> <Gold.Chemscore.DG>
-12.8906

> <Gold.Chemscore.ZeroCoef>
-5.4800

> <Gold.Chemscore.Hbond>
0.7871

> <Gold.Chemscore.Metal>
0.0000

> <Gold.Chemscore.Lipo>
100.0351

> <Gold.Chemscore.Internal_Hbond>
0.0000

> <Gold.Chemscore.DEClash>
0.0132

> <Gold.Chemscore.DEInternal>
1.2138

> <Gold.Chemscore.Rot>
2.7041

> <Gold.Chemscore.Internal.Correction>
   9.000000E+99

> <Gold.Chemscore.Hbonds>
donor molecule, donor type, donor heavy atom, donor atom, acceptor molecule, acceptor atom, score
      P1  H 10752 10763       L1    29  0.29

> <Gold.Chemscore.Hbond.Weighted>
-2.6290

> <Gold.Chemscore.Metal.Weighted>
-0.0000

> <Gold.Chemscore.Lipo.Weighted>
-11.7041

> <Gold.Chemscore.Internal_Hbond.Weighted>
0.0000

> <Gold.Chemscore.DEClash.Weighted>
0.0132

> <Gold.Chemscore.DEInternal.Weighted>
1.2138

> <Gold.Chemscore.Rot.Weighted>
6.9225

> <Gold.Chemscore.Internal.Correction.Weighted>
   9.000000E+99

> <Gold.Protein.RotatedTorsions>
[ 6907 6896 6895 6894 ] final  145.13 input  -60.11 | X-H torsion
[ 7974 7965 7964 7962 ] final  -23.40 input  175.53 | X-H torsion
[ 8008 7997 7996 7995 ] final   87.64 input   59.86 | X-H torsion
[ 10167 10162 10161 10158 ] final   74.27 input  -65.29 | X-H torsion
[ 10718 10713 10712 10709 ] final -116.51 input   66.30 | X-H torsion
[ 10763 10752 10751 10750 ] final   33.27 input  -60.55 | X-H torsion
[ 11005 11000 10999 10996 ] final -170.09 input  -57.11 | X-H torsion

> <Gold.Protein.ActiveResidues>
 VAL166  LYS551  ARG553  GLY616  TRP617  ASP618  TYR619  PRO620  LYS621  CYS622 
 ASP623  PHE694  ASN695  SER759  ASP760  ASP761  ALA762  ILE779  LEU786  VAL792 
 PHE793  MET794  SER795  GLU796  ALA797  LYS798  CYS799  TRP800  GLU811  SER814 

> <Gold.Protein.RotatedAtoms>
  152.1848  133.4732  159.4976 H   0  0  0  0  0  0  0  0  0  0  0  0  # atno 6907 bound_to 6896
  150.6941  134.1787  159.4249 H   0  0  0  0  0  0  0  0  0  0  0  0  # atno 6908 bound_to 6896
  151.9700  135.0081  160.0603 H   0  0  0  0  0  0  0  0  0  0  0  0  # atno 6909 bound_to 6896
  146.1618  140.4610  142.8568 H   0  0  0  0  0  0  0  0  0  0  0  0  # atno 7974 bound_to 7965
  155.9779  140.3380  155.6635 H   0  0  0  0  0  0  0  0  0  0  0  0  # atno 8008 bound_to 7997
  155.6588  140.0714  157.2579 H   0  0  0  0  0  0  0  0  0  0  0  0  # atno 8009 bound_to 7997
  154.4183  140.1712  156.1742 H   0  0  0  0  0  0  0  0  0  0  0  0  # atno 8010 bound_to 7997
  140.0155  144.5581  150.7623 H   0  0  0  0  0  0  0  0  0  0  0  0  # atno 10167 bound_to 10162
  156.0968  130.6139  150.9044 H   0  0  0  0  0  0  0  0  0  0  0  0  # atno 10718 bound_to 10713
  153.0220  135.6391  154.1485 H   0  0  0  0  0  0  0  0  0  0  0  0  # atno 10763 bound_to 10752
  154.1219  135.2846  155.3208 H   0  0  0  0  0  0  0  0  0  0  0  0  # atno 10764 bound_to 10752
  154.6257  135.5509  153.7687 H   0  0  0  0  0  0  0  0  0  0  0  0  # atno 10765 bound_to 10752
  140.5234  134.5687  157.5054 H   0  0  0  0  0  0  0  0  0  0  0  0  # atno 11005 bound_to 11000
  144.8038  140.6262  143.6460 LP  0  0  0  0  0  0  0  0  0  0  0  0  # atno 17320 bound_to 7965
  145.4568  139.1517  143.3888 LP  0  0  0  0  0  0  0  0  0  0  0  0  # atno 17321 bound_to 7965
  140.7364  143.2752  151.3763 LP  0  0  0  0  0  0  0  0  0  0  0  0  # atno 17342 bound_to 10162
  139.6175  144.0973  152.2360 LP  0  0  0  0  0  0  0  0  0  0  0  0  # atno 17343 bound_to 10162
  157.6131  131.0935  150.8759 LP  0  0  0  0  0  0  0  0  0  0  0  0  # atno 17370 bound_to 10713
  156.8896  130.5208  149.5287 LP  0  0  0  0  0  0  0  0  0  0  0  0  # atno 17371 bound_to 10713
  139.9593  134.7480  156.0272 LP  0  0  0  0  0  0  0  0  0  0  0  0  # atno 17394 bound_to 11000
  141.1321  133.6584  156.3494 LP  0  0  0  0  0  0  0  0  0  0  0  0  # atno 17395 bound_to 11000

$$$$
