AV-unprocessed.smi:264|AV-procd|sdf|2013|dock9
  -GOLD-   2262021213D 1   1.00000     0.00000
 Structure written by MMmdl.
 52 56  0  0  0  0  0  0  0  0  1 V2000
  146.4477  134.0826  151.0102 C   0  0  0  0  0  0  0  0  0  0  0  0
  145.1496  133.5055  151.5981 C   0  0  2  0  0  0  0  0  0  0  0  0
  144.9646  132.1554  151.1732 O   0  0  0  0  0  0  0  0  0  0  0  0
  143.7359  132.0297  150.4728 C   0  0  0  0  0  0  0  0  0  0  0  0
  142.8562  133.1201  151.0684 C   0  0  0  0  0  0  0  0  0  0  0  0
  143.8409  134.2641  151.2695 C   0  0  2  0  0  0  0  0  0  0  0  0
  143.9571  134.9695  150.0438 O   0  0  0  0  0  0  0  0  0  0  0  0
  143.4238  135.2660  152.3728 C   0  0  0  0  0  0  0  0  0  0  0  0
  144.5060  136.1437  152.7920 N   0  0  0  0  0  0  0  0  0  0  0  0
  144.7768  137.4047  152.3107 C   0  0  0  0  0  0  0  0  0  0  0  0
  145.8143  137.9917  152.8414 N   0  0  0  0  0  0  0  0  0  0  0  0
  146.2956  137.0675  153.7615 C   0  0  0  0  0  0  0  0  0  0  0  0
  147.3885  137.0534  154.6744 C   0  0  0  0  0  0  0  0  0  0  0  0
  148.2688  138.0817  154.7818 N   0  0  0  0  0  0  0  0  0  0  0  0
  148.0185  139.2007  153.8816 C   0  0  0  0  0  0  0  0  0  0  0  0
  148.8226  140.4272  154.3338 C   0  0  0  0  0  0  0  0  0  0  0  0
  150.2061  140.0983  154.4507 O   0  0  0  0  0  0  0  0  0  0  0  0
  150.5016  139.0033  155.3271 C   0  0  2  0  0  0  0  0  0  0  0  0
  150.3372  139.3808  156.7969 C   0  0  0  0  0  0  0  0  0  0  0  0
  151.6329  140.1233  157.0847 C   0  0  0  0  0  0  0  0  0  0  0  0
  152.6097  139.3608  156.3946 O   0  0  0  0  0  0  0  0  0  0  0  0
  152.0196  138.7667  155.2403 C   0  0  0  0  0  0  0  0  0  0  0  0
  149.6891  137.7617  154.8990 C   0  0  0  0  0  0  0  0  0  0  0  0
  147.5319  135.9498  155.4570 N   0  0  0  0  0  0  0  0  0  0  0  0
  146.6788  134.9272  155.3481 C   0  0  0  0  0  0  0  0  0  0  0  0
  145.6288  134.7997  154.5350 N   0  0  0  0  0  0  0  0  0  0  0  0
  145.4726  135.9056  153.7533 C   0  0  0  0  0  0  0  0  0  0  0  0
  146.5925  135.1178  151.3202 H   0  0  0  0  0  0  0  0  0  0  0  0
  146.4436  134.0522  149.9204 H   0  0  0  0  0  0  0  0  0  0  0  0
  147.3119  133.5108  151.3486 H   0  0  0  0  0  0  0  0  0  0  0  0
  145.2650  133.4536  152.6814 H   0  0  0  0  0  0  0  0  0  0  0  0
  143.9082  132.2096  149.4108 H   0  0  0  0  0  0  0  0  0  0  0  0
  143.3090  131.0331  150.5862 H   0  0  0  0  0  0  0  0  0  0  0  0
  142.0042  133.3762  150.4373 H   0  0  0  0  0  0  0  0  0  0  0  0
  142.4707  132.7808  152.0307 H   0  0  0  0  0  0  0  0  0  0  0  0
  143.1541  134.8619  149.5572 H   0  0  0  0  0  0  0  0  0  0  0  0
  142.6040  135.8936  152.0207 H   0  0  0  0  0  0  0  0  0  0  0  0
  143.0461  134.7340  153.2470 H   0  0  0  0  0  0  0  0  0  0  0  0
  144.1801  137.8768  151.5437 H   0  0  0  0  0  0  0  0  0  0  0  0
  148.3149  138.9137  152.8717 H   0  0  0  0  0  0  0  0  0  0  0  0
  146.9610  139.4576  153.8377 H   0  0  0  0  0  0  0  0  0  0  0  0
  148.7178  141.2290  153.6027 H   0  0  0  0  0  0  0  0  0  0  0  0
  148.4334  140.8177  155.2733 H   0  0  0  0  0  0  0  0  0  0  0  0
  149.4505  139.9699  157.0241 H   0  0  0  0  0  0  0  0  0  0  0  0
  150.2963  138.4814  157.4128 H   0  0  0  0  0  0  0  0  0  0  0  0
  151.6014  141.1334  156.6732 H   0  0  0  0  0  0  0  0  0  0  0  0
  151.8548  140.1906  158.1500 H   0  0  0  0  0  0  0  0  0  0  0  0
  152.2590  137.7029  155.2529 H   0  0  0  0  0  0  0  0  0  0  0  0
  152.4479  139.1864  154.3292 H   0  0  0  0  0  0  0  0  0  0  0  0
  149.8395  136.9529  155.6156 H   0  0  0  0  0  0  0  0  0  0  0  0
  150.0478  137.4044  153.9325 H   0  0  0  0  0  0  0  0  0  0  0  0
  146.8651  134.0903  156.0051 H   0  0  0  0  0  0  0  0  0  0  0  0
  1  2  1  0  0  0  0
  1 28  1  0  0  0  0
  1 29  1  0  0  0  0
  1 30  1  0  0  0  0
  2  6  1  0  0  0  0
  2  3  1  0  0  0  0
  2 31  1  0  0  0  0
  3  4  1  0  0  0  0
  4  5  1  0  0  0  0
  4 32  1  0  0  0  0
  4 33  1  0  0  0  0
  5  6  1  0  0  0  0
  5 34  1  0  0  0  0
  5 35  1  0  0  0  0
  6  7  1  0  0  0  0
  6  8  1  0  0  0  0
  7 36  1  0  0  0  0
  8  9  1  0  0  0  0
  8 37  1  0  0  0  0
  8 38  1  0  0  0  0
  9 27  1  0  0  0  0
  9 10  1  0  0  0  0
 10 11  2  0  0  0  0
 10 39  1  0  0  0  0
 11 12  1  0  0  0  0
 12 27  2  0  0  0  0
 12 13  1  0  0  0  0
 13 14  1  0  0  0  0
 13 24  2  0  0  0  0
 14 23  1  0  0  0  0
 14 15  1  0  0  0  0
 15 16  1  0  0  0  0
 15 40  1  0  0  0  0
 15 41  1  0  0  0  0
 16 17  1  0  0  0  0
 16 42  1  0  0  0  0
 16 43  1  0  0  0  0
 17 18  1  0  0  0  0
 18 22  1  0  0  0  0
 18 19  1  0  0  0  0
 18 23  1  0  0  0  0
 19 20  1  0  0  0  0
 19 44  1  0  0  0  0
 19 45  1  0  0  0  0
 20 21  1  0  0  0  0
 20 46  1  0  0  0  0
 20 47  1  0  0  0  0
 21 22  1  0  0  0  0
 22 48  1  0  0  0  0
 22 49  1  0  0  0  0
 23 50  1  0  0  0  0
 23 51  1  0  0  0  0
 24 25  1  0  0  0  0
 25 26  2  0  0  0  0
 25 52  1  0  0  0  0
 26 27  1  0  0  0  0
M  END
> <s_m_source_file>
AV-unprocessed.smi

> <i_m_source_file_index>
264

> <i_lp_mmshare_version>
43012

> <i_f3d_flags>
0

> <s_epik_input>
W0NIMl0xW0NIMl1PW0NAQEhdKFtDSDNdKVtDQEBdMShbT0hdKVtDSDJdbihbY0hdbjIpYyhjMjMpbltjSF1uYzNOKFtDSDJdNClbQ0gyXVtDSDJdT1tDQF00NVtDSDJdW0NIMl1PW0NIMl01

> <s_epik_cmdline>
J2VwaWtfcHl0aG9uJywgJy1waCcsICc3LjAnLCAnLXRuJywgJzgnLCAnLW1hJywgJzIwMCcsICctbWV0YWxfYmluZGluZycsICctaW1hZScsICc8aW5maWxlLm1hZT4nLCAnLW9tYWUnLCAnPG91dGZpbGUubWFlPic=

> <r_lp_tautomer_probability>
1

> <r_epik_Ionization_Penalty>
0.00539389

> <r_epik_Ionization_Penalty_Charging>
0

> <r_epik_Ionization_Penalty_Neutral>
0.00539389

> <r_epik_State_Penalty>
0.00375441

> <r_epik_Charging_Adjusted_Penalty>
0.00375441

> <i_epik_Tot_Q>
0

> <i_epik_Tot_abs_Q>
0

> <r_epik_Metal_State_Penalty>
-0

> <b_epik_Metal_Only>
0

> <s_lp_Force_Field>
OPLS_2005

> <r_lp_Energy>
54.0423

> <b_lp_Chiralities_Consistent>
1

> <s_lp_Variant>
AV-unprocessed.smi:264-7

> <Gold.Version>
5.8.1

> <Gold.Id.Protein>
6NUR|6NUR_protein|mol2

> <Gold.PLP.Fitness>
44.7488

> <Gold.PLP.PLP>
-34.2077

> <Gold.PLP.part.hbond>
-3.0000

> <Gold.PLP.part.metal>
0.0000

> <Gold.PLP.part.buried>
-5.1251

> <Gold.PLP.part.nonpolar>
-26.8079

> <Gold.PLP.part.repulsive>
0.7019

> <Gold.PLP.ligand.clash>
1.2534

> <Gold.PLP.ligand.torsion>
0.7228

> <Gold.PLP.Chemscore.Hbond>
3.0000

> <Gold.PLP.Chemscore.CHOScore>
1.3206

> <Gold.PLP.Chemscore.Metal>
0.0000

> <Gold.Chemscore.Hbonds>
donor molecule, donor type, donor heavy atom, donor atom, acceptor molecule, acceptor atom, score
      L1  H     7    36       P1 10186  0.63
      P1  H  7989  7998       L1    17  1.00
      P1  H  7997  8008       L1    21  1.00
      L1  C    10    39       P1 10171  0.66
      L1  C    10    39       P1 10175  0.23

> <Gold.PLP.Chemscore.Internal.Correction>
0.2785

> <Gold.Rescore>
     Score         DG    S(hbond)    S(metal)    S(lipo)     H(rot)  DE(clash)    DE(int)     intcor
     16.82     -19.38       2.86        0.00      83.11       2.11       0.15       2.42       ----

> <Gold.Chemscore.Fitness>
16.8150

> <Gold.Chemscore.DG>
-19.3806

> <Gold.Chemscore.ZeroCoef>
-5.4800

> <Gold.Chemscore.Hbond>
2.8650

> <Gold.Chemscore.Metal>
0.0000

> <Gold.Chemscore.Lipo>
83.1088

> <Gold.Chemscore.Internal_Hbond>
0.0000

> <Gold.Chemscore.DEClash>
0.1488

> <Gold.Chemscore.DEInternal>
2.4169

> <Gold.Chemscore.Rot>
2.1063

> <Gold.Chemscore.Internal.Correction>
   9.000000E+99

> <Gold.Chemscore.Hbonds>
donor molecule, donor type, donor heavy atom, donor atom, acceptor molecule, acceptor atom, score
      L1  H     7    36       P1 10186  0.48
      P1  H  7989  7998       L1    17  0.95
      P1  H  7997  8008       L1    21  0.85

> <Gold.Chemscore.Hbond.Weighted>
-9.5690

> <Gold.Chemscore.Metal.Weighted>
-0.0000

> <Gold.Chemscore.Lipo.Weighted>
-9.7237

> <Gold.Chemscore.Internal_Hbond.Weighted>
0.0000

> <Gold.Chemscore.DEClash.Weighted>
0.1488

> <Gold.Chemscore.DEInternal.Weighted>
2.4169

> <Gold.Chemscore.Rot.Weighted>
5.3921

> <Gold.Chemscore.Internal.Correction.Weighted>
   9.000000E+99

> <Gold.Protein.RotatedTorsions>
[ 6907 6896 6895 6894 ] final -156.84 input  -60.11 | X-H torsion
[ 7974 7965 7964 7962 ] final -155.08 input  175.53 | X-H torsion
[ 8008 7997 7996 7995 ] final  -54.55 input   59.86 | X-H torsion
[ 10167 10162 10161 10158 ] final   96.17 input  -65.29 | X-H torsion
[ 10718 10713 10712 10709 ] final -133.52 input   66.30 | X-H torsion
[ 10763 10752 10751 10750 ] final  -84.75 input  -60.55 | X-H torsion
[ 11005 11000 10999 10996 ] final -115.37 input  -57.11 | X-H torsion

> <Gold.Protein.ActiveResidues>
 VAL166  LYS551  ARG553  GLY616  TRP617  ASP618  TYR619  PRO620  LYS621  CYS622 
 ASP623  PHE694  ASN695  SER759  ASP760  ASP761  ALA762  ILE779  LEU786  VAL792 
 PHE793  MET794  SER795  GLU796  ALA797  LYS798  CYS799  TRP800  GLU811  SER814 

> <Gold.Protein.RotatedAtoms>
  151.2938  133.4153  159.2634 H   0  0  0  0  0  0  0  0  0  0  0  0  # atno 6907 bound_to 6896
  151.0255  134.9501  159.8093 H   0  0  0  0  0  0  0  0  0  0  0  0  # atno 6908 bound_to 6896
  152.5334  134.2900  159.9092 H   0  0  0  0  0  0  0  0  0  0  0  0  # atno 6909 bound_to 6896
  144.7657  140.4299  143.5943 H   0  0  0  0  0  0  0  0  0  0  0  0  # atno 7974 bound_to 7965
  154.4166  140.1173  156.5334 H   0  0  0  0  0  0  0  0  0  0  0  0  # atno 8008 bound_to 7997
  155.6582  140.3496  155.4754 H   0  0  0  0  0  0  0  0  0  0  0  0  # atno 8009 bound_to 7997
  155.9735  140.1146  157.0781 H   0  0  0  0  0  0  0  0  0  0  0  0  # atno 8010 bound_to 7997
  139.7920  144.6848  150.9880 H   0  0  0  0  0  0  0  0  0  0  0  0  # atno 10167 bound_to 10162
  156.2458  130.7123  151.1003 H   0  0  0  0  0  0  0  0  0  0  0  0  # atno 10718 bound_to 10713
  154.6031  135.5509  153.7395 H   0  0  0  0  0  0  0  0  0  0  0  0  # atno 10763 bound_to 10752
  153.0163  135.6371  154.1686 H   0  0  0  0  0  0  0  0  0  0  0  0  # atno 10764 bound_to 10752
  154.1625  135.2896  155.3084 H   0  0  0  0  0  0  0  0  0  0  0  0  # atno 10765 bound_to 10752
  141.0492  133.9714  157.2866 H   0  0  0  0  0  0  0  0  0  0  0  0  # atno 11005 bound_to 11000
  145.6476  139.1560  143.2880 LP  0  0  0  0  0  0  0  0  0  0  0  0  # atno 17320 bound_to 7965
  146.1763  140.6568  142.9210 LP  0  0  0  0  0  0  0  0  0  0  0  0  # atno 17321 bound_to 7965
  140.7820  143.4371  151.0607 LP  0  0  0  0  0  0  0  0  0  0  0  0  # atno 17342 bound_to 10162
  139.8047  143.8034  152.3166 LP  0  0  0  0  0  0  0  0  0  0  0  0  # atno 17343 bound_to 10162
  157.7194  131.0690  150.6196 LP  0  0  0  0  0  0  0  0  0  0  0  0  # atno 17370 bound_to 10713
  156.6272  130.4422  149.5800 LP  0  0  0  0  0  0  0  0  0  0  0  0  # atno 17371 bound_to 10713
  139.9336  135.0198  156.8483 LP  0  0  0  0  0  0  0  0  0  0  0  0  # atno 17394 bound_to 11000
  140.6088  134.0102  155.7568 LP  0  0  0  0  0  0  0  0  0  0  0  0  # atno 17395 bound_to 11000

$$$$
