AV-unprocessed.smi:2973|AV-procd|sdf|11352|dock3
  -GOLD-   2272016273D 1   1.00000     0.00000
 Structure written by MMmdl.
 49 51  0  0  0  0  0  0  0  0  3 V2000
  150.0260  140.8350  155.6342 C   0  0  0  0  0  0  0  0  0  0  0  0
  151.0092  141.2975  156.7322 C   0  0  1  0  0  0  0  0  0  0  0  0
  150.2453  142.0683  157.8325 C   0  0  0  0  0  0  0  0  0  0  0  0
  151.1902  142.6178  158.9110 C   0  0  0  0  0  0  0  0  0  0  0  0
  152.0293  141.4973  159.5375 C   0  0  0  0  0  0  0  0  0  0  0  0
  152.8091  140.7247  158.4596 C   0  0  0  0  0  0  0  0  0  0  0  0
  151.9075  140.1614  157.3278 C   0  0  2  0  0  0  0  0  0  0  0  0
  152.7631  139.5998  156.2963 N   0  5  0  0  0  0  0  0  0  0  0  0
  152.5255  138.2715  156.1973 C   0  0  0  0  0  0  0  0  0  0  0  0
  153.0834  137.4787  155.4390 O   0  0  0  0  0  0  0  0  0  0  0  0
  151.5672  137.8859  157.0603 N   0  0  0  0  0  0  0  0  0  0  0  0
  151.0858  136.5072  157.2171 C   0  0  0  0  0  0  0  0  0  0  0  0
  150.4030  135.9643  155.9544 C   0  0  0  0  0  0  0  0  0  0  0  0
  151.0198  135.8644  154.8926 O   0  0  0  0  0  0  0  0  0  0  0  0
  149.1196  135.5992  156.0916 N   0  0  0  0  0  0  0  0  0  0  0  0
  148.2828  135.0698  155.0219 C   0  0  0  0  0  0  0  0  0  0  0  0
  148.9173  133.8302  154.3686 C   0  0  0  0  0  0  0  0  0  0  0  0
  147.9353  133.0772  153.4928 C   0  0  0  0  0  0  0  0  0  0  0  0
  147.6252  131.7171  153.7106 C   0  0  0  0  0  0  0  0  0  0  0  0
  146.6970  131.0773  152.8625 C   0  0  0  0  0  0  0  0  0  0  0  0
  146.0982  131.8107  151.8169 C   0  0  0  0  0  0  0  0  0  0  0  0
  146.4428  133.1670  151.6462 C   0  0  0  0  0  0  0  0  0  0  0  0
  147.3366  133.7440  152.4794 N   0  3  0  0  0  0  0  0  0  0  0  0
  151.1356  138.9245  157.7842 C   0  0  0  0  0  0  0  0  0  0  0  0
  150.2738  138.9094  158.6642 O   0  0  0  0  0  0  0  0  0  0  0  0
  149.2729  140.1505  156.0252 H   0  0  0  0  0  0  0  0  0  0  0  0
  150.5424  140.3314  154.8170 H   0  0  0  0  0  0  0  0  0  0  0  0
  149.4986  141.6860  155.2029 H   0  0  0  0  0  0  0  0  0  0  0  0
  151.6797  142.0166  156.2576 H   0  0  0  0  0  0  0  0  0  0  0  0
  149.6945  142.8972  157.3869 H   0  0  0  0  0  0  0  0  0  0  0  0
  149.4967  141.4255  158.2961 H   0  0  0  0  0  0  0  0  0  0  0  0
  151.8503  143.3664  158.4708 H   0  0  0  0  0  0  0  0  0  0  0  0
  150.6153  143.1280  159.6842 H   0  0  0  0  0  0  0  0  0  0  0  0
  152.7261  141.9201  160.2615 H   0  0  0  0  0  0  0  0  0  0  0  0
  151.3840  140.8211  160.0980 H   0  0  0  0  0  0  0  0  0  0  0  0
  153.5561  141.3934  158.0282 H   0  0  0  0  0  0  0  0  0  0  0  0
  153.3727  139.9198  158.9348 H   0  0  0  0  0  0  0  0  0  0  0  0
  151.9113  135.8418  157.4746 H   0  0  0  0  0  0  0  0  0  0  0  0
  150.3933  136.4567  158.0594 H   0  0  0  0  0  0  0  0  0  0  0  0
  148.6919  135.7075  156.9999 H   0  0  0  0  0  0  0  0  0  0  0  0
  147.2902  134.8330  155.4090 H   0  0  0  0  0  0  0  0  0  0  0  0
  148.1476  135.8567  154.2795 H   0  0  0  0  0  0  0  0  0  0  0  0
  149.7773  134.1237  153.7651 H   0  0  0  0  0  0  0  0  0  0  0  0
  149.2981  133.1519  155.1336 H   0  0  0  0  0  0  0  0  0  0  0  0
  148.0912  131.1701  154.5177 H   0  0  0  0  0  0  0  0  0  0  0  0
  146.4469  130.0372  153.0128 H   0  0  0  0  0  0  0  0  0  0  0  0
  145.3853  131.3397  151.1561 H   0  0  0  0  0  0  0  0  0  0  0  0
  146.0345  133.8031  150.8744 H   0  0  0  0  0  0  0  0  0  0  0  0
  147.5707  134.7268  152.3366 H   0  0  0  0  0  0  0  0  0  0  0  0
  1  2  1  0  0  0  0
  1 26  1  0  0  0  0
  1 27  1  0  0  0  0
  1 28  1  0  0  0  0
  2  7  1  0  0  0  0
  2  3  1  0  0  0  0
  2 29  1  0  0  0  0
  3  4  1  0  0  0  0
  3 30  1  0  0  0  0
  3 31  1  0  0  0  0
  4  5  1  0  0  0  0
  4 32  1  0  0  0  0
  4 33  1  0  0  0  0
  5  6  1  0  0  0  0
  5 34  1  0  0  0  0
  5 35  1  0  0  0  0
  6  7  1  0  0  0  0
  6 36  1  0  0  0  0
  6 37  1  0  0  0  0
  7 24  1  0  0  0  0
  7  8  1  0  0  0  0
  8  9  1  0  0  0  0
  9 10  2  0  0  0  0
  9 11  1  0  0  0  0
 11 12  1  0  0  0  0
 11 24  1  0  0  0  0
 12 13  1  0  0  0  0
 12 38  1  0  0  0  0
 12 39  1  0  0  0  0
 13 14  2  0  0  0  0
 13 15  1  0  0  0  0
 15 16  1  0  0  0  0
 15 40  1  0  0  0  0
 16 17  1  0  0  0  0
 16 41  1  0  0  0  0
 16 42  1  0  0  0  0
 17 18  1  0  0  0  0
 17 43  1  0  0  0  0
 17 44  1  0  0  0  0
 18 23  1  0  0  0  0
 18 19  2  0  0  0  0
 19 20  1  0  0  0  0
 19 45  1  0  0  0  0
 20 21  2  0  0  0  0
 20 46  1  0  0  0  0
 21 22  1  0  0  0  0
 21 47  1  0  0  0  0
 22 23  2  0  0  0  0
 22 48  1  0  0  0  0
 23 49  1  0  0  0  0
 24 25  2  0  0  0  0
M  CHG  1   8  -1
M  CHG  1  23   1
M  END
> <s_m_source_file>
AV-unprocessed.smi

> <i_m_source_file_index>
2973

> <i_lp_mmshare_version>
43012

> <i_f3d_flags>
0

> <s_epik_input>
W0NIMl0xW0NIMl1bQ0gyXVtDSDJdW0NAQEhdKFtDSDNdKVtDQF0xMltOSF1DKD1PKU4oQzI9TylbQ0gyXUMoPU8pW05IXVtDSDJdW0NIMl1jM1tjSF1bY0hdW2NIXVtjSF1uMw==

> <s_epik_cmdline>
J2VwaWtfcHl0aG9uJywgJy1waCcsICc3LjAnLCAnLXRuJywgJzgnLCAnLW1hJywgJzIwMCcsICctbWV0YWxfYmluZGluZycsICctaW1hZScsICc8aW5maWxlLm1hZT4nLCAnLW9tYWUnLCAnPG91dGZpbGUubWFlPic=

> <r_lp_tautomer_probability>
1

> <r_epik_Ionization_Penalty>
7.89073

> <r_epik_Ionization_Penalty_Charging>
7.89073

> <r_epik_Ionization_Penalty_Neutral>
1.56557e-07

> <r_epik_State_Penalty>
8.01193

> <r_epik_Charging_Adjusted_Penalty>
15.9027

> <i_epik_Tot_Q>
0

> <i_epik_Tot_abs_Q>
2

> <r_epik_Metal_State_Penalty>
3.98737

> <b_epik_Metal_Only>
1

> <s_lp_Force_Field>
OPLS_2005

> <r_lp_Energy>
17.432

> <b_lp_Chiralities_Consistent>
1

> <s_lp_Variant>
AV-unprocessed.smi:2973-16

> <Gold.Version>
5.8.1

> <Gold.Id.Protein>
6NUR|6NUR_protein|mol2

> <Gold.PLP.Fitness>
51.2313

> <Gold.PLP.PLP>
-36.3553

> <Gold.PLP.part.hbond>
-4.0000

> <Gold.PLP.part.metal>
0.0000

> <Gold.PLP.part.buried>
-3.8099

> <Gold.PLP.part.nonpolar>
-28.1079

> <Gold.PLP.part.repulsive>
0.2086

> <Gold.PLP.ligand.clash>
0.0000

> <Gold.PLP.ligand.torsion>
0.0731

> <Gold.PLP.Chemscore.Hbond>
5.0000

> <Gold.PLP.Chemscore.CHOScore>
0.0000

> <Gold.PLP.Chemscore.Metal>
0.0000

> <Gold.Chemscore.Hbonds>
donor molecule, donor type, donor heavy atom, donor atom, acceptor molecule, acceptor atom, score
      L1  H    23    49       P1  7948  1.84
      P1  H  7997  8008       L1     8  2.00
      P1  H 10752 10764       L1    14  1.00

> <Gold.PLP.Chemscore.Internal.Correction>
0.0223

> <Gold.Rescore>
     Score         DG    S(hbond)    S(metal)    S(lipo)     H(rot)  DE(clash)    DE(int)     intcor
     18.17     -19.81       2.85        0.00      83.19       1.92       0.00       1.63       ----

> <Gold.Chemscore.Fitness>
18.1726

> <Gold.Chemscore.DG>
-19.8095

> <Gold.Chemscore.ZeroCoef>
-5.4800

> <Gold.Chemscore.Hbond>
2.8458

> <Gold.Chemscore.Metal>
0.0000

> <Gold.Chemscore.Lipo>
83.1919

> <Gold.Chemscore.Internal_Hbond>
0.0000

> <Gold.Chemscore.DEClash>
0.0025

> <Gold.Chemscore.DEInternal>
1.6343

> <Gold.Chemscore.Rot>
1.9175

> <Gold.Chemscore.Internal.Correction>
   9.000000E+99

> <Gold.Chemscore.Hbonds>
donor molecule, donor type, donor heavy atom, donor atom, acceptor molecule, acceptor atom, score
      L1  H    23    49       P1  7948  0.71
      P1  H  7997  8008       L1     8  0.75
      P1  H 10752 10764       L1    14  0.96

> <Gold.Chemscore.Hbond.Weighted>
-9.5048

> <Gold.Chemscore.Metal.Weighted>
-0.0000

> <Gold.Chemscore.Lipo.Weighted>
-9.7334

> <Gold.Chemscore.Internal_Hbond.Weighted>
0.0000

> <Gold.Chemscore.DEClash.Weighted>
0.0025

> <Gold.Chemscore.DEInternal.Weighted>
1.6343

> <Gold.Chemscore.Rot.Weighted>
4.9087

> <Gold.Chemscore.Internal.Correction.Weighted>
   9.000000E+99

> <Gold.Protein.RotatedTorsions>
[ 6907 6896 6895 6894 ] final  -16.51 input  -60.11 | X-H torsion
[ 7974 7965 7964 7962 ] final  -26.74 input  175.53 | X-H torsion
[ 8008 7997 7996 7995 ] final  -52.36 input   59.86 | X-H torsion
[ 10167 10162 10161 10158 ] final -129.07 input  -65.29 | X-H torsion
[ 10718 10713 10712 10709 ] final   83.36 input   66.30 | X-H torsion
[ 10763 10752 10751 10750 ] final  -48.90 input  -60.55 | X-H torsion
[ 11005 11000 10999 10996 ] final -118.01 input  -57.11 | X-H torsion

> <Gold.Protein.ActiveResidues>
 VAL166  LYS551  ARG553  GLY616  TRP617  ASP618  TYR619  PRO620  LYS621  CYS622 
 ASP623  PHE694  ASN695  SER759  ASP760  ASP761  ALA762  ILE779  LEU786  VAL792 
 PHE793  MET794  SER795  GLU796  ALA797  LYS798  CYS799  TRP800  GLU811  SER814 

> <Gold.Protein.RotatedAtoms>
  151.3075  135.0785  159.9260 H   0  0  0  0  0  0  0  0  0  0  0  0  # atno 6907 bound_to 6896
  152.5285  133.9770  159.7799 H   0  0  0  0  0  0  0  0  0  0  0  0  # atno 6908 bound_to 6896
  151.0068  133.5952  159.2718 H   0  0  0  0  0  0  0  0  0  0  0  0  # atno 6909 bound_to 6896
  146.1405  140.5060  142.8654 H   0  0  0  0  0  0  0  0  0  0  0  0  # atno 7974 bound_to 7965
  154.4105  140.1226  156.4979 H   0  0  0  0  0  0  0  0  0  0  0  0  # atno 8008 bound_to 7997
  155.6925  140.3495  155.4880 H   0  0  0  0  0  0  0  0  0  0  0  0  # atno 8009 bound_to 7997
  155.9456  140.1095  157.1009 H   0  0  0  0  0  0  0  0  0  0  0  0  # atno 8010 bound_to 7997
  139.9436  143.6135  152.2496 H   0  0  0  0  0  0  0  0  0  0  0  0  # atno 10167 bound_to 10162
  157.6877  131.0087  150.2512 H   0  0  0  0  0  0  0  0  0  0  0  0  # atno 10718 bound_to 10713
  154.0853  135.6585  153.4844 H   0  0  0  0  0  0  0  0  0  0  0  0  # atno 10763 bound_to 10752
  153.0341  135.5189  154.7434 H   0  0  0  0  0  0  0  0  0  0  0  0  # atno 10764 bound_to 10752
  154.6541  135.3005  154.9918 H   0  0  0  0  0  0  0  0  0  0  0  0  # atno 10765 bound_to 10752
  141.0315  133.9974  157.3135 H   0  0  0  0  0  0  0  0  0  0  0  0  # atno 11005 bound_to 11000
  144.7787  140.5794  143.6620 LP  0  0  0  0  0  0  0  0  0  0  0  0  # atno 17320 bound_to 7965
  145.5058  139.1481  143.3632 LP  0  0  0  0  0  0  0  0  0  0  0  0  # atno 17321 bound_to 7965
  139.6685  144.7661  151.1828 LP  0  0  0  0  0  0  0  0  0  0  0  0  # atno 17342 bound_to 10162
  140.7604  143.5902  150.8804 LP  0  0  0  0  0  0  0  0  0  0  0  0  # atno 17343 bound_to 10162
  156.3108  130.3771  149.7663 LP  0  0  0  0  0  0  0  0  0  0  0  0  # atno 17370 bound_to 10713
  156.5264  130.8238  151.3222 LP  0  0  0  0  0  0  0  0  0  0  0  0  # atno 17371 bound_to 10713
  139.9211  135.0200  156.8067 LP  0  0  0  0  0  0  0  0  0  0  0  0  # atno 17394 bound_to 11000
  140.6398  133.9829  155.7702 LP  0  0  0  0  0  0  0  0  0  0  0  0  # atno 17395 bound_to 11000

$$$$
