AV-unprocessed.smi:1346|AV-procd|sdf|5514|dock5
  -GOLD-   22720 5 93D 1   1.00000     0.00000
 Structure written by MMmdl.
 47 48  0  0  0  0  0  0  0  0  1 V2000
  153.4032  137.7135  156.3610 C   0  0  0  0  0  0  0  0  0  0  0  0
  152.3390  138.5640  155.7286 C   0  0  0  0  0  0  0  0  0  0  0  0
  152.5140  139.8719  155.6409 N   0  0  0  0  0  0  0  0  0  0  0  0
  151.3669  140.3708  155.0168 O   0  0  0  0  0  0  0  0  0  0  0  0
  150.5359  139.3314  154.7502 C   0  0  0  0  0  0  0  0  0  0  0  0
  149.2459  139.6644  154.0801 C   0  0  0  0  0  0  0  0  0  0  0  0
  151.0903  138.1558  155.1776 C   0  0  0  0  0  0  0  0  0  0  0  0
  150.5273  136.7606  155.0940 C   0  0  0  0  0  0  0  0  0  0  0  0
  149.0586  136.7707  155.5174 C   0  0  0  0  0  0  0  0  0  0  0  0
  148.7561  137.0130  156.6855 O   0  0  0  0  0  0  0  0  0  0  0  0
  148.1573  136.5081  154.5588 N   0  0  0  0  0  0  0  0  0  0  0  0
  146.7112  136.4788  154.7469 C   0  0  0  0  0  0  0  0  0  0  0  0
  145.9695  136.2755  153.4184 C   0  0  0  0  0  0  0  0  0  0  0  0
  145.8729  134.8849  153.1493 O   0  0  0  0  0  0  0  0  0  0  0  0
  146.1812  134.5247  151.8072 C   0  0  2  0  0  0  0  0  0  0  0  0
  144.8835  134.6140  150.9827 C   0  0  0  0  0  0  0  0  0  0  0  0
  143.8519  133.5575  151.4135 C   0  0  0  0  0  0  0  0  0  0  0  0
  144.4479  132.1428  151.3654 C   0  0  0  0  0  0  0  0  0  0  0  0
  145.7301  132.0497  152.2079 C   0  0  0  0  0  0  0  0  0  0  0  0
  146.7727  133.0956  151.7655 C   0  0  2  0  0  0  0  0  0  0  0  0
  148.0779  132.9710  152.5662 C   0  0  0  0  0  0  0  0  0  0  0  0
  153.5936  136.8202  155.7664 H   0  0  0  0  0  0  0  0  0  0  0  0
  153.1014  137.3912  157.3576 H   0  0  0  0  0  0  0  0  0  0  0  0
  154.3470  138.2514  156.4569 H   0  0  0  0  0  0  0  0  0  0  0  0
  148.8801  138.8207  153.4954 H   0  0  0  0  0  0  0  0  0  0  0  0
  149.3652  140.5124  153.4056 H   0  0  0  0  0  0  0  0  0  0  0  0
  148.4845  139.9215  154.8163 H   0  0  0  0  0  0  0  0  0  0  0  0
  150.5942  136.3655  154.0797 H   0  0  0  0  0  0  0  0  0  0  0  0
  151.0870  136.0670  155.7230 H   0  0  0  0  0  0  0  0  0  0  0  0
  148.4973  136.3272  153.6254 H   0  0  0  0  0  0  0  0  0  0  0  0
  146.4687  135.6691  155.4354 H   0  0  0  0  0  0  0  0  0  0  0  0
  146.3814  137.4027  155.2249 H   0  0  0  0  0  0  0  0  0  0  0  0
  144.9677  136.7021  153.4835 H   0  0  0  0  0  0  0  0  0  0  0  0
  146.4890  136.7919  152.6101 H   0  0  0  0  0  0  0  0  0  0  0  0
  146.9012  135.2218  151.3731 H   0  0  0  0  0  0  0  0  0  0  0  0
  144.4536  135.6123  151.0715 H   0  0  0  0  0  0  0  0  0  0  0  0
  145.1181  134.4754  149.9266 H   0  0  0  0  0  0  0  0  0  0  0  0
  143.5050  133.7733  152.4250 H   0  0  0  0  0  0  0  0  0  0  0  0
  142.9740  133.6124  150.7692 H   0  0  0  0  0  0  0  0  0  0  0  0
  143.7151  131.4183  151.7212 H   0  0  0  0  0  0  0  0  0  0  0  0
  144.6704  131.8748  150.3318 H   0  0  0  0  0  0  0  0  0  0  0  0
  145.4864  132.1913  153.2618 H   0  0  0  0  0  0  0  0  0  0  0  0
  146.1485  131.0464  152.1218 H   0  0  0  0  0  0  0  0  0  0  0  0
  147.0235  132.8827  150.7253 H   0  0  0  0  0  0  0  0  0  0  0  0
  147.9080  133.1233  153.6319 H   0  0  0  0  0  0  0  0  0  0  0  0
  148.8139  133.7047  152.2365 H   0  0  0  0  0  0  0  0  0  0  0  0
  148.5204  131.9824  152.4421 H   0  0  0  0  0  0  0  0  0  0  0  0
  1  2  1  0  0  0  0
  1 22  1  0  0  0  0
  1 23  1  0  0  0  0
  1 24  1  0  0  0  0
  2  7  1  0  0  0  0
  2  3  2  0  0  0  0
  3  4  1  0  0  0  0
  4  5  1  0  0  0  0
  5  6  1  0  0  0  0
  5  7  2  0  0  0  0
  6 25  1  0  0  0  0
  6 26  1  0  0  0  0
  6 27  1  0  0  0  0
  7  8  1  0  0  0  0
  8  9  1  0  0  0  0
  8 28  1  0  0  0  0
  8 29  1  0  0  0  0
  9 10  2  0  0  0  0
  9 11  1  0  0  0  0
 11 12  1  0  0  0  0
 11 30  1  0  0  0  0
 12 13  1  0  0  0  0
 12 31  1  0  0  0  0
 12 32  1  0  0  0  0
 13 14  1  0  0  0  0
 13 33  1  0  0  0  0
 13 34  1  0  0  0  0
 14 15  1  0  0  0  0
 15 20  1  0  0  0  0
 15 16  1  0  0  0  0
 15 35  1  0  0  0  0
 16 17  1  0  0  0  0
 16 36  1  0  0  0  0
 16 37  1  0  0  0  0
 17 18  1  0  0  0  0
 17 38  1  0  0  0  0
 17 39  1  0  0  0  0
 18 19  1  0  0  0  0
 18 40  1  0  0  0  0
 18 41  1  0  0  0  0
 19 20  1  0  0  0  0
 19 42  1  0  0  0  0
 19 43  1  0  0  0  0
 20 21  1  0  0  0  0
 20 44  1  0  0  0  0
 21 45  1  0  0  0  0
 21 46  1  0  0  0  0
 21 47  1  0  0  0  0
M  END
> <s_m_source_file>
AV-unprocessed.smi

> <i_m_source_file_index>
1346

> <i_lp_mmshare_version>
43012

> <i_f3d_flags>
0

> <s_epik_input>
W0NIM11jMW5vYyhbQ0gzXSljMVtDSDJdQyg9TylbTkhdW0NIMl1bQ0gyXU9bQ0BASF0yW0NIMl1bQ0gyXVtDSDJdW0NIMl1bQ0BIXTJbQ0gzXQ==

> <s_epik_cmdline>
J2VwaWtfcHl0aG9uJywgJy1waCcsICc3LjAnLCAnLXRuJywgJzgnLCAnLW1hJywgJzIwMCcsICctbWV0YWxfYmluZGluZycsICctaW1hZScsICc8aW5maWxlLm1hZT4nLCAnLW9tYWUnLCAnPG91dGZpbGUubWFlPic=

> <r_lp_tautomer_probability>
1

> <r_epik_Ionization_Penalty>
3.26154e-08

> <r_epik_Ionization_Penalty_Charging>
0

> <r_epik_Ionization_Penalty_Neutral>
3.26154e-08

> <r_epik_State_Penalty>
-0

> <r_epik_Charging_Adjusted_Penalty>
0

> <i_epik_Tot_Q>
0

> <i_epik_Tot_abs_Q>
0

> <r_epik_Metal_State_Penalty>
-0

> <b_epik_Metal_Only>
0

> <s_lp_Force_Field>
OPLS_2005

> <r_lp_Energy>
6.35262

> <b_lp_Chiralities_Consistent>
1

> <s_lp_Variant>
AV-unprocessed.smi:1346-3

> <Gold.Version>
5.8.1

> <Gold.Id.Protein>
6NUR|6NUR_protein|mol2

> <Gold.PLP.Fitness>
39.0529

> <Gold.PLP.PLP>
-32.1303

> <Gold.PLP.part.hbond>
-3.2503

> <Gold.PLP.part.metal>
0.0000

> <Gold.PLP.part.buried>
-0.6035

> <Gold.PLP.part.nonpolar>
-27.7795

> <Gold.PLP.part.repulsive>
0.1387

> <Gold.PLP.ligand.clash>
0.0000

> <Gold.PLP.ligand.torsion>
1.0890

> <Gold.PLP.Chemscore.Hbond>
3.0000

> <Gold.PLP.Chemscore.CHOScore>
0.0000

> <Gold.PLP.Chemscore.Metal>
0.0000

> <Gold.Chemscore.Hbonds>
donor molecule, donor type, donor heavy atom, donor atom, acceptor molecule, acceptor atom, score
      L1  H    11    30       P1  7948  1.00
      P1  H  7989  7998       L1     4  1.00
      P1  H  7997  8008       L1     3  1.00

> <Gold.PLP.Chemscore.Internal.Correction>
0.1006

> <Gold.Rescore>
     Score         DG    S(hbond)    S(metal)    S(lipo)     H(rot)  DE(clash)    DE(int)     intcor
     16.82     -18.14       2.15        0.00      84.86       1.74       0.33       0.99       ----

> <Gold.Chemscore.Fitness>
16.8243

> <Gold.Chemscore.DG>
-18.1377

> <Gold.Chemscore.ZeroCoef>
-5.4800

> <Gold.Chemscore.Hbond>
2.1471

> <Gold.Chemscore.Metal>
0.0000

> <Gold.Chemscore.Lipo>
84.8573

> <Gold.Chemscore.Internal_Hbond>
0.0000

> <Gold.Chemscore.DEClash>
0.3279

> <Gold.Chemscore.DEInternal>
0.9855

> <Gold.Chemscore.Rot>
1.7352

> <Gold.Chemscore.Internal.Correction>
   9.000000E+99

> <Gold.Chemscore.Hbonds>
donor molecule, donor type, donor heavy atom, donor atom, acceptor molecule, acceptor atom, score
      L1  H    11    30       P1  7948  1.00
      P1  H  7989  7998       L1     4  0.20
      P1  H  7997  8008       L1     3  0.55

> <Gold.Chemscore.Hbond.Weighted>
-7.1715

> <Gold.Chemscore.Metal.Weighted>
-0.0000

> <Gold.Chemscore.Lipo.Weighted>
-9.9283

> <Gold.Chemscore.Internal_Hbond.Weighted>
0.0000

> <Gold.Chemscore.DEClash.Weighted>
0.3279

> <Gold.Chemscore.DEInternal.Weighted>
0.9855

> <Gold.Chemscore.Rot.Weighted>
4.4420

> <Gold.Chemscore.Internal.Correction.Weighted>
   9.000000E+99

> <Gold.Protein.RotatedTorsions>
[ 6907 6896 6895 6894 ] final -177.53 input  -60.11 | X-H torsion
[ 7974 7965 7964 7962 ] final   29.90 input  175.53 | X-H torsion
[ 8008 7997 7996 7995 ] final  -21.29 input   59.86 | X-H torsion
[ 10167 10162 10161 10158 ] final   86.54 input  -65.29 | X-H torsion
[ 10718 10713 10712 10709 ] final  -42.15 input   66.30 | X-H torsion
[ 10763 10752 10751 10750 ] final  -95.83 input  -60.55 | X-H torsion
[ 11005 11000 10999 10996 ] final   63.47 input  -57.11 | X-H torsion

> <Gold.Protein.ActiveResidues>
 VAL166  LYS551  ARG553  GLY616  TRP617  ASP618  TYR619  PRO620  LYS621  CYS622 
 ASP623  PHE694  ASN695  SER759  ASP760  ASP761  ALA762  ILE779  LEU786  VAL792 
 PHE793  MET794  SER795  GLU796  ALA797  LYS798  CYS799  TRP800  GLU811  SER814 

> <Gold.Protein.RotatedAtoms>
  151.6224  133.3338  159.3090 H   0  0  0  0  0  0  0  0  0  0  0  0  # atno 6907 bound_to 6896
  150.8099  134.7251  159.6689 H   0  0  0  0  0  0  0  0  0  0  0  0  # atno 6908 bound_to 6896
  152.4195  134.5986  160.0045 H   0  0  0  0  0  0  0  0  0  0  0  0  # atno 6909 bound_to 6896
  146.1644  139.6859  142.9011 H   0  0  0  0  0  0  0  0  0  0  0  0  # atno 7974 bound_to 7965
  154.4715  140.2039  155.9983 H   0  0  0  0  0  0  0  0  0  0  0  0  # atno 8008 bound_to 7997
  156.1019  140.3242  155.7924 H   0  0  0  0  0  0  0  0  0  0  0  0  # atno 8009 bound_to 7997
  155.4783  140.0536  157.2961 H   0  0  0  0  0  0  0  0  0  0  0  0  # atno 8010 bound_to 7997
  139.8865  144.6410  150.8785 H   0  0  0  0  0  0  0  0  0  0  0  0  # atno 10167 bound_to 10162
  156.2627  130.4198  149.8525 H   0  0  0  0  0  0  0  0  0  0  0  0  # atno 10718 bound_to 10713
  154.7184  135.5106  153.8774 H   0  0  0  0  0  0  0  0  0  0  0  0  # atno 10763 bound_to 10752
  153.0841  135.6640  153.9994 H   0  0  0  0  0  0  0  0  0  0  0  0  # atno 10764 bound_to 10752
  153.9822  135.3028  155.3398 H   0  0  0  0  0  0  0  0  0  0  0  0  # atno 10765 bound_to 10752
  140.0022  134.6424  155.9912 H   0  0  0  0  0  0  0  0  0  0  0  0  # atno 11005 bound_to 11000
  145.4506  141.0428  143.2806 LP  0  0  0  0  0  0  0  0  0  0  0  0  # atno 17320 bound_to 7965
  144.8071  139.6031  143.7046 LP  0  0  0  0  0  0  0  0  0  0  0  0  # atno 17321 bound_to 7965
  140.7735  143.3544  151.1951 LP  0  0  0  0  0  0  0  0  0  0  0  0  # atno 17342 bound_to 10162
  139.7148  143.9318  152.2962 LP  0  0  0  0  0  0  0  0  0  0  0  0  # atno 17343 bound_to 10162
  156.6034  130.8556  151.3437 LP  0  0  0  0  0  0  0  0  0  0  0  0  # atno 17370 bound_to 10713
  157.7256  130.9618  150.1622 LP  0  0  0  0  0  0  0  0  0  0  0  0  # atno 17371 bound_to 10713
  141.1651  133.6537  156.4450 LP  0  0  0  0  0  0  0  0  0  0  0  0  # atno 17394 bound_to 11000
  140.4706  134.6756  157.5127 LP  0  0  0  0  0  0  0  0  0  0  0  0  # atno 17395 bound_to 11000

$$$$
