AV-unprocessed.smi:3056|AV-procd|sdf|11658|dock6
  -GOLD-   2272017 63D 1   1.00000     0.00000
 Structure written by MMmdl.
 47 48  0  0  0  0  0  0  0  0  1 V2000
  144.4399  133.1018  149.6776 C   0  0  0  0  0  0  0  0  0  0  0  0
  145.3181  132.9353  150.8839 C   0  0  0  0  0  0  0  0  0  0  0  0
  145.8508  131.7285  151.4185 C   0  0  0  0  0  0  0  0  0  0  0  0
  146.5952  131.9280  152.4932 N   0  0  0  0  0  0  0  0  0  0  0  0
  146.5605  133.2655  152.6922 N   0  0  0  0  0  0  0  0  0  0  0  0
  147.3021  133.8787  153.7922 C   0  0  1  0  0  0  0  0  0  0  0  0
  146.6832  133.5524  155.1659 C   0  0  0  0  0  0  0  0  0  0  0  0
  148.8310  133.6115  153.7313 C   0  0  2  0  0  0  0  0  0  0  0  0
  149.1589  132.1144  153.5561 C   0  0  0  0  0  0  0  0  0  0  0  0
  149.4756  134.1248  154.9379 N   0  0  0  0  0  0  0  0  0  0  0  0
  149.3495  135.5803  155.0853 C   0  0  0  0  0  0  0  0  0  0  0  0
  150.6451  136.2051  155.6150 C   0  0  0  0  0  0  0  0  0  0  0  0
  151.5927  135.4521  155.8412 O   0  0  0  0  0  0  0  0  0  0  0  0
  150.7145  137.5433  155.8211 N   0  0  0  0  0  0  0  0  0  0  0  0
  151.8864  138.2928  156.2850 C   0  0  0  0  0  0  0  0  0  0  0  0
  152.3215  139.2526  155.1646 C   0  0  0  0  0  0  0  0  0  0  0  0
  151.2380  140.1137  154.8218 O   0  0  0  0  0  0  0  0  0  0  0  0
  150.0723  139.4133  154.3902 C   0  0  2  0  0  0  0  0  0  0  0  0
  148.9984  140.4456  154.0309 C   0  0  0  0  0  0  0  0  0  0  0  0
  149.6128  138.4585  155.5104 C   0  0  0  0  0  0  0  0  0  0  0  0
  145.7996  133.8950  151.7282 C   0  0  0  0  0  0  0  0  0  0  0  0
  144.5647  132.2816  148.9703 H   0  0  0  0  0  0  0  0  0  0  0  0
  144.6618  134.0241  149.1406 H   0  0  0  0  0  0  0  0  0  0  0  0
  143.3852  133.1340  149.9510 H   0  0  0  0  0  0  0  0  0  0  0  0
  145.7217  130.7192  151.0569 H   0  0  0  0  0  0  0  0  0  0  0  0
  147.1769  134.9552  153.6662 H   0  0  0  0  0  0  0  0  0  0  0  0
  147.1891  134.1003  155.9611 H   0  0  0  0  0  0  0  0  0  0  0  0
  146.7492  132.4906  155.4047 H   0  0  0  0  0  0  0  0  0  0  0  0
  145.6297  133.8318  155.1946 H   0  0  0  0  0  0  0  0  0  0  0  0
  149.2167  134.1560  152.8678 H   0  0  0  0  0  0  0  0  0  0  0  0
  148.6008  131.6916  152.7204 H   0  0  0  0  0  0  0  0  0  0  0  0
  148.9059  131.5384  154.4471 H   0  0  0  0  0  0  0  0  0  0  0  0
  150.2150  131.9484  153.3460 H   0  0  0  0  0  0  0  0  0  0  0  0
  149.0847  133.6486  155.7387 H   0  0  0  0  0  0  0  0  0  0  0  0
  149.0784  136.0557  154.1435 H   0  0  0  0  0  0  0  0  0  0  0  0
  148.5411  135.8009  155.7844 H   0  0  0  0  0  0  0  0  0  0  0  0
  151.6188  138.8575  157.1790 H   0  0  0  0  0  0  0  0  0  0  0  0
  152.7280  137.6665  156.5736 H   0  0  0  0  0  0  0  0  0  0  0  0
  153.1639  139.8605  155.4948 H   0  0  0  0  0  0  0  0  0  0  0  0
  152.6519  138.6985  154.2845 H   0  0  0  0  0  0  0  0  0  0  0  0
  150.3155  138.8377  153.4952 H   0  0  0  0  0  0  0  0  0  0  0  0
  148.0884  139.9589  153.6793 H   0  0  0  0  0  0  0  0  0  0  0  0
  149.3461  141.1100  153.2395 H   0  0  0  0  0  0  0  0  0  0  0  0
  148.7380  141.0609  154.8925 H   0  0  0  0  0  0  0  0  0  0  0  0
  148.7051  137.9378  155.2027 H   0  0  0  0  0  0  0  0  0  0  0  0
  149.3481  139.0214  156.4068 H   0  0  0  0  0  0  0  0  0  0  0  0
  145.6672  134.9669  151.7210 H   0  0  0  0  0  0  0  0  0  0  0  0
  1  2  1  0  0  0  0
  1 22  1  0  0  0  0
  1 23  1  0  0  0  0
  1 24  1  0  0  0  0
  2 21  2  0  0  0  0
  2  3  1  0  0  0  0
  3  4  2  0  0  0  0
  3 25  1  0  0  0  0
  4  5  1  0  0  0  0
  5  6  1  0  0  0  0
  5 21  1  0  0  0  0
  6  7  1  0  0  0  0
  6  8  1  0  0  0  0
  6 26  1  0  0  0  0
  7 27  1  0  0  0  0
  7 28  1  0  0  0  0
  7 29  1  0  0  0  0
  8  9  1  0  0  0  0
  8 10  1  0  0  0  0
  8 30  1  0  0  0  0
  9 31  1  0  0  0  0
  9 32  1  0  0  0  0
  9 33  1  0  0  0  0
 10 11  1  0  0  0  0
 10 34  1  0  0  0  0
 11 12  1  0  0  0  0
 11 35  1  0  0  0  0
 11 36  1  0  0  0  0
 12 13  2  0  0  0  0
 12 14  1  0  0  0  0
 14 20  1  0  0  0  0
 14 15  1  0  0  0  0
 15 16  1  0  0  0  0
 15 37  1  0  0  0  0
 15 38  1  0  0  0  0
 16 17  1  0  0  0  0
 16 39  1  0  0  0  0
 16 40  1  0  0  0  0
 17 18  1  0  0  0  0
 18 19  1  0  0  0  0
 18 20  1  0  0  0  0
 18 41  1  0  0  0  0
 19 42  1  0  0  0  0
 19 43  1  0  0  0  0
 19 44  1  0  0  0  0
 20 45  1  0  0  0  0
 20 46  1  0  0  0  0
 21 47  1  0  0  0  0
M  END
> <s_m_source_file>
AV-unprocessed.smi

> <i_m_source_file_index>
3056

> <i_lp_mmshare_version>
43012

> <i_f3d_flags>
0

> <s_epik_input>
W0NIM11jMVtjSF1ubihbY0hdMSlbQ0BIXShbQ0gzXSlbQ0BIXShbQ0gzXSlbTkhdW0NIMl1DKD1PKU4yW0NIMl1bQ0gyXU9bQ0BASF0oW0NIM10pW0NIMl0y

> <s_epik_cmdline>
J2VwaWtfcHl0aG9uJywgJy1waCcsICc3LjAnLCAnLXRuJywgJzgnLCAnLW1hJywgJzIwMCcsICctbWV0YWxfYmluZGluZycsICctaW1hZScsICc8aW5maWxlLm1hZT4nLCAnLW9tYWUnLCAnPG91dGZpbGUubWFlPic=

> <r_lp_tautomer_probability>
1

> <r_epik_Ionization_Penalty>
0.667689

> <r_epik_Ionization_Penalty_Charging>
0

> <r_epik_Ionization_Penalty_Neutral>
0.667689

> <r_epik_State_Penalty>
0.684601

> <r_epik_Charging_Adjusted_Penalty>
0.684601

> <i_epik_Tot_Q>
0

> <i_epik_Tot_abs_Q>
0

> <r_epik_Metal_State_Penalty>
0.681448

> <b_epik_Metal_Only>
0

> <s_lp_Force_Field>
OPLS_2005

> <r_lp_Energy>
30.4655

> <b_lp_Chiralities_Consistent>
1

> <s_lp_Variant>
AV-unprocessed.smi:3056-14

> <Gold.Version>
5.8.1

> <Gold.Id.Protein>
6NUR|6NUR_protein|mol2

> <Gold.PLP.Fitness>
38.9659

> <Gold.PLP.PLP>
-33.9067

> <Gold.PLP.part.hbond>
-2.0000

> <Gold.PLP.part.metal>
0.0000

> <Gold.PLP.part.buried>
-4.0063

> <Gold.PLP.part.nonpolar>
-27.2135

> <Gold.PLP.part.repulsive>
0.2205

> <Gold.PLP.ligand.clash>
0.0000

> <Gold.PLP.ligand.torsion>
0.5597

> <Gold.PLP.Chemscore.Hbond>
2.0000

> <Gold.PLP.Chemscore.CHOScore>
0.0000

> <Gold.PLP.Chemscore.Metal>
0.0000

> <Gold.Chemscore.Hbonds>
donor molecule, donor type, donor heavy atom, donor atom, acceptor molecule, acceptor atom, score
      P1  H  7989  7998       L1    17  1.00
      P1  H 10752 10764       L1    13  1.00

> <Gold.PLP.Chemscore.Internal.Correction>
0.1787

> <Gold.Rescore>
     Score         DG    S(hbond)    S(metal)    S(lipo)     H(rot)  DE(clash)    DE(int)     intcor
     13.45     -15.42       1.40        0.00      81.86       1.68       0.13       1.84       ----

> <Gold.Chemscore.Fitness>
13.4515

> <Gold.Chemscore.DG>
-15.4231

> <Gold.Chemscore.ZeroCoef>
-5.4800

> <Gold.Chemscore.Hbond>
1.3964

> <Gold.Chemscore.Metal>
0.0000

> <Gold.Chemscore.Lipo>
81.8637

> <Gold.Chemscore.Internal_Hbond>
0.0000

> <Gold.Chemscore.DEClash>
0.1341

> <Gold.Chemscore.DEInternal>
1.8376

> <Gold.Chemscore.Rot>
1.6793

> <Gold.Chemscore.Internal.Correction>
   9.000000E+99

> <Gold.Chemscore.Hbonds>
donor molecule, donor type, donor heavy atom, donor atom, acceptor molecule, acceptor atom, score
      P1  H  7989  7998       L1    17  0.18
      P1  H 10752 10764       L1    13  0.98

> <Gold.Chemscore.Hbond.Weighted>
-4.6641

> <Gold.Chemscore.Metal.Weighted>
-0.0000

> <Gold.Chemscore.Lipo.Weighted>
-9.5781

> <Gold.Chemscore.Internal_Hbond.Weighted>
0.0000

> <Gold.Chemscore.DEClash.Weighted>
0.1341

> <Gold.Chemscore.DEInternal.Weighted>
1.8376

> <Gold.Chemscore.Rot.Weighted>
4.2990

> <Gold.Chemscore.Internal.Correction.Weighted>
   9.000000E+99

> <Gold.Protein.RotatedTorsions>
[ 6907 6896 6895 6894 ] final  -22.70 input  -60.11 | X-H torsion
[ 7974 7965 7964 7962 ] final   98.87 input  175.53 | X-H torsion
[ 8008 7997 7996 7995 ] final   33.61 input   59.86 | X-H torsion
[ 10167 10162 10161 10158 ] final  135.04 input  -65.29 | X-H torsion
[ 10718 10713 10712 10709 ] final   42.19 input   66.30 | X-H torsion
[ 10763 10752 10751 10750 ] final  -26.02 input  -60.55 | X-H torsion
[ 11005 11000 10999 10996 ] final  -72.54 input  -57.11 | X-H torsion

> <Gold.Protein.ActiveResidues>
 VAL166  LYS551  ARG553  GLY616  TRP617  ASP618  TYR619  PRO620  LYS621  CYS622 
 ASP623  PHE694  ASN695  SER759  ASP760  ASP761  ALA762  ILE779  LEU786  VAL792 
 PHE793  MET794  SER795  GLU796  ALA797  LYS798  CYS799  TRP800  GLU811  SER814 

> <Gold.Protein.RotatedAtoms>
  151.2148  135.0495  159.8925 H   0  0  0  0  0  0  0  0  0  0  0  0  # atno 6907 bound_to 6896
  152.5421  134.0705  159.8202 H   0  0  0  0  0  0  0  0  0  0  0  0  # atno 6908 bound_to 6896
  151.0863  133.5303  159.2649 H   0  0  0  0  0  0  0  0  0  0  0  0  # atno 6909 bound_to 6896
  145.4065  139.2340  143.3271 H   0  0  0  0  0  0  0  0  0  0  0  0  # atno 7974 bound_to 7965
  155.1414  140.3266  155.4451 H   0  0  0  0  0  0  0  0  0  0  0  0  # atno 8008 bound_to 7997
  156.2603  140.1993  156.6479 H   0  0  0  0  0  0  0  0  0  0  0  0  # atno 8009 bound_to 7997
  154.6539  140.0555  156.9974 H   0  0  0  0  0  0  0  0  0  0  0  0  # atno 8010 bound_to 7997
  139.5232  144.6537  151.5226 H   0  0  0  0  0  0  0  0  0  0  0  0  # atno 10167 bound_to 10162
  157.4021  130.7866  149.7357 H   0  0  0  0  0  0  0  0  0  0  0  0  # atno 10718 bound_to 10713
  153.7092  135.6952  153.5042 H   0  0  0  0  0  0  0  0  0  0  0  0  # atno 10763 bound_to 10752
  153.2285  135.4345  155.0568 H   0  0  0  0  0  0  0  0  0  0  0  0  # atno 10764 bound_to 10752
  154.8320  135.3478  154.6629 H   0  0  0  0  0  0  0  0  0  0  0  0  # atno 10765 bound_to 10752
  141.1610  133.6850  156.7074 H   0  0  0  0  0  0  0  0  0  0  0  0  # atno 11005 bound_to 11000
  146.2726  140.4770  142.8808 LP  0  0  0  0  0  0  0  0  0  0  0  0  # atno 17320 bound_to 7965
  144.8338  140.6750  143.6273 LP  0  0  0  0  0  0  0  0  0  0  0  0  # atno 17321 bound_to 7965
  140.6353  143.8996  150.6642 LP  0  0  0  0  0  0  0  0  0  0  0  0  # atno 17342 bound_to 10162
  140.2313  143.3733  152.1563 LP  0  0  0  0  0  0  0  0  0  0  0  0  # atno 17343 bound_to 10162
  155.9826  130.4008  150.3408 LP  0  0  0  0  0  0  0  0  0  0  0  0  # atno 17370 bound_to 10713
  157.1537  131.0327  151.2873 LP  0  0  0  0  0  0  0  0  0  0  0  0  # atno 17371 bound_to 10713
  140.2913  134.8238  157.4019 LP  0  0  0  0  0  0  0  0  0  0  0  0  # atno 17394 bound_to 11000
  140.1344  134.5053  155.8080 LP  0  0  0  0  0  0  0  0  0  0  0  0  # atno 17395 bound_to 11000

$$$$
