AV-unprocessed.smi:1346|AV-procd|sdf|5512|dock3
  -GOLD-   22720 5 93D 1   1.00000     0.00000
 Structure written by MMmdl.
 47 48  0  0  0  0  0  0  0  0  1 V2000
  150.0797  135.5448  154.6956 C   0  0  0  0  0  0  0  0  0  0  0  0
  150.2970  136.1863  156.0362 C   0  0  0  0  0  0  0  0  0  0  0  0
  150.8422  135.4808  157.0125 N   0  0  0  0  0  0  0  0  0  0  0  0
  150.9113  136.3394  158.1134 O   0  0  0  0  0  0  0  0  0  0  0  0
  150.3956  137.5421  157.7540 C   0  0  0  0  0  0  0  0  0  0  0  0
  150.3873  138.5998  158.8055 C   0  0  0  0  0  0  0  0  0  0  0  0
  149.9866  137.5146  156.4482 C   0  0  0  0  0  0  0  0  0  0  0  0
  149.3587  138.6144  155.6297 C   0  0  0  0  0  0  0  0  0  0  0  0
  150.2259  139.8726  155.6858 C   0  0  0  0  0  0  0  0  0  0  0  0
  151.2088  139.9739  154.9520 O   0  0  0  0  0  0  0  0  0  0  0  0
  149.8449  140.8251  156.5515 N   0  0  0  0  0  0  0  0  0  0  0  0
  150.5030  142.1145  156.7304 C   0  0  0  0  0  0  0  0  0  0  0  0
  150.9539  142.3103  158.1843 C   0  0  0  0  0  0  0  0  0  0  0  0
  152.0744  143.1814  158.2136 O   0  0  0  0  0  0  0  0  0  0  0  0
  152.7595  143.2163  159.4578 C   0  0  2  0  0  0  0  0  0  0  0  0
  153.0073  141.7677  159.9294 C   0  0  0  0  0  0  0  0  0  0  0  0
  153.6209  141.7287  161.3365 C   0  0  0  0  0  0  0  0  0  0  0  0
  152.7411  142.4858  162.3410 C   0  0  0  0  0  0  0  0  0  0  0  0
  152.4972  143.9311  161.8806 C   0  0  0  0  0  0  0  0  0  0  0  0
  151.8796  143.9865  160.4685 C   0  0  1  0  0  0  0  0  0  0  0  0
  151.6546  145.4433  160.0324 C   0  0  0  0  0  0  0  0  0  0  0  0
  150.0810  136.2867  153.8966 H   0  0  0  0  0  0  0  0  0  0  0  0
  149.1225  135.0241  154.6637 H   0  0  0  0  0  0  0  0  0  0  0  0
  150.8623  134.8200  154.4696 H   0  0  0  0  0  0  0  0  0  0  0  0
  149.8147  139.4701  158.4854 H   0  0  0  0  0  0  0  0  0  0  0  0
  151.4024  138.9285  159.0285 H   0  0  0  0  0  0  0  0  0  0  0  0
  149.9424  138.2252  159.7274 H   0  0  0  0  0  0  0  0  0  0  0  0
  149.2396  138.3105  154.5891 H   0  0  0  0  0  0  0  0  0  0  0  0
  148.3575  138.8602  155.9849 H   0  0  0  0  0  0  0  0  0  0  0  0
  149.0264  140.6496  157.1158 H   0  0  0  0  0  0  0  0  0  0  0  0
  151.3745  142.1304  156.0757 H   0  0  0  0  0  0  0  0  0  0  0  0
  149.8607  142.9359  156.4089 H   0  0  0  0  0  0  0  0  0  0  0  0
  150.1270  142.6978  158.7806 H   0  0  0  0  0  0  0  0  0  0  0  0
  151.2414  141.3509  158.6164 H   0  0  0  0  0  0  0  0  0  0  0  0
  153.7116  143.7413  159.3541 H   0  0  0  0  0  0  0  0  0  0  0  0
  152.0641  141.2194  159.9306 H   0  0  0  0  0  0  0  0  0  0  0  0
  153.6637  141.2436  159.2349 H   0  0  0  0  0  0  0  0  0  0  0  0
  153.7482  140.6947  161.6583 H   0  0  0  0  0  0  0  0  0  0  0  0
  154.6175  142.1717  161.3138 H   0  0  0  0  0  0  0  0  0  0  0  0
  151.7862  141.9706  162.4535 H   0  0  0  0  0  0  0  0  0  0  0  0
  153.2120  142.4830  163.3244 H   0  0  0  0  0  0  0  0  0  0  0  0
  151.8431  144.4336  162.5941 H   0  0  0  0  0  0  0  0  0  0  0  0
  153.4411  144.4779  161.8916 H   0  0  0  0  0  0  0  0  0  0  0  0
  150.9045  143.4984  160.5106 H   0  0  0  0  0  0  0  0  0  0  0  0
  152.5984  145.9838  159.9547 H   0  0  0  0  0  0  0  0  0  0  0  0
  151.0246  145.9739  160.7472 H   0  0  0  0  0  0  0  0  0  0  0  0
  151.1607  145.4955  159.0616 H   0  0  0  0  0  0  0  0  0  0  0  0
  1  2  1  0  0  0  0
  1 22  1  0  0  0  0
  1 23  1  0  0  0  0
  1 24  1  0  0  0  0
  2  7  1  0  0  0  0
  2  3  2  0  0  0  0
  3  4  1  0  0  0  0
  4  5  1  0  0  0  0
  5  6  1  0  0  0  0
  5  7  2  0  0  0  0
  6 25  1  0  0  0  0
  6 26  1  0  0  0  0
  6 27  1  0  0  0  0
  7  8  1  0  0  0  0
  8  9  1  0  0  0  0
  8 28  1  0  0  0  0
  8 29  1  0  0  0  0
  9 10  2  0  0  0  0
  9 11  1  0  0  0  0
 11 12  1  0  0  0  0
 11 30  1  0  0  0  0
 12 13  1  0  0  0  0
 12 31  1  0  0  0  0
 12 32  1  0  0  0  0
 13 14  1  0  0  0  0
 13 33  1  0  0  0  0
 13 34  1  0  0  0  0
 14 15  1  0  0  0  0
 15 20  1  0  0  0  0
 15 16  1  0  0  0  0
 15 35  1  0  0  0  0
 16 17  1  0  0  0  0
 16 36  1  0  0  0  0
 16 37  1  0  0  0  0
 17 18  1  0  0  0  0
 17 38  1  0  0  0  0
 17 39  1  0  0  0  0
 18 19  1  0  0  0  0
 18 40  1  0  0  0  0
 18 41  1  0  0  0  0
 19 20  1  0  0  0  0
 19 42  1  0  0  0  0
 19 43  1  0  0  0  0
 20 21  1  0  0  0  0
 20 44  1  0  0  0  0
 21 45  1  0  0  0  0
 21 46  1  0  0  0  0
 21 47  1  0  0  0  0
M  END
> <s_m_source_file>
AV-unprocessed.smi

> <i_m_source_file_index>
1346

> <i_lp_mmshare_version>
43012

> <i_f3d_flags>
0

> <s_epik_input>
W0NIM11jMW5vYyhbQ0gzXSljMVtDSDJdQyg9TylbTkhdW0NIMl1bQ0gyXU9bQ0BASF0yW0NIMl1bQ0gyXVtDSDJdW0NIMl1bQ0BIXTJbQ0gzXQ==

> <s_epik_cmdline>
J2VwaWtfcHl0aG9uJywgJy1waCcsICc3LjAnLCAnLXRuJywgJzgnLCAnLW1hJywgJzIwMCcsICctbWV0YWxfYmluZGluZycsICctaW1hZScsICc8aW5maWxlLm1hZT4nLCAnLW9tYWUnLCAnPG91dGZpbGUubWFlPic=

> <r_lp_tautomer_probability>
1

> <r_epik_Ionization_Penalty>
3.26154e-08

> <r_epik_Ionization_Penalty_Charging>
0

> <r_epik_Ionization_Penalty_Neutral>
3.26154e-08

> <r_epik_State_Penalty>
-0

> <r_epik_Charging_Adjusted_Penalty>
0

> <i_epik_Tot_Q>
0

> <i_epik_Tot_abs_Q>
0

> <r_epik_Metal_State_Penalty>
-0

> <b_epik_Metal_Only>
0

> <s_lp_Force_Field>
OPLS_2005

> <r_lp_Energy>
5.71646

> <b_lp_Chiralities_Consistent>
1

> <s_lp_Variant>
AV-unprocessed.smi:1346-1

> <Gold.Version>
5.8.1

> <Gold.Id.Protein>
6NUR|6NUR_protein|mol2

> <Gold.PLP.Fitness>
47.6939

> <Gold.PLP.PLP>
-44.3116

> <Gold.PLP.part.hbond>
-2.7774

> <Gold.PLP.part.metal>
0.0000

> <Gold.PLP.part.buried>
-7.1443

> <Gold.PLP.part.nonpolar>
-34.8240

> <Gold.PLP.part.repulsive>
0.1059

> <Gold.PLP.ligand.clash>
0.0429

> <Gold.PLP.ligand.torsion>
0.6254

> <Gold.PLP.Chemscore.Hbond>
1.5075

> <Gold.PLP.Chemscore.CHOScore>
0.0000

> <Gold.PLP.Chemscore.Metal>
0.0000

> <Gold.Chemscore.Hbonds>
donor molecule, donor type, donor heavy atom, donor atom, acceptor molecule, acceptor atom, score
      P1  H  6896  6907       L1     4  0.50
      P1  H  7989  7998       L1    10  1.00

> <Gold.PLP.Chemscore.Internal.Correction>
0.1533

> <Gold.Rescore>
     Score         DG    S(hbond)    S(metal)    S(lipo)     H(rot)  DE(clash)    DE(int)     intcor
     18.08     -18.70       1.03        0.00     121.43       1.74       0.03       0.59       ----

> <Gold.Chemscore.Fitness>
18.0786

> <Gold.Chemscore.DG>
-18.7021

> <Gold.Chemscore.ZeroCoef>
-5.4800

> <Gold.Chemscore.Hbond>
1.0349

> <Gold.Chemscore.Metal>
0.0000

> <Gold.Chemscore.Lipo>
121.4319

> <Gold.Chemscore.Internal_Hbond>
0.0000

> <Gold.Chemscore.DEClash>
0.0348

> <Gold.Chemscore.DEInternal>
0.5887

> <Gold.Chemscore.Rot>
1.7352

> <Gold.Chemscore.Internal.Correction>
   9.000000E+99

> <Gold.Chemscore.Hbonds>
donor molecule, donor type, donor heavy atom, donor atom, acceptor molecule, acceptor atom, score
      P1  H  6896  6907       L1     4  0.17
      P1  H  7989  7998       L1    10  1.00

> <Gold.Chemscore.Hbond.Weighted>
-3.4566

> <Gold.Chemscore.Metal.Weighted>
-0.0000

> <Gold.Chemscore.Lipo.Weighted>
-14.2075

> <Gold.Chemscore.Internal_Hbond.Weighted>
0.0000

> <Gold.Chemscore.DEClash.Weighted>
0.0348

> <Gold.Chemscore.DEInternal.Weighted>
0.5887

> <Gold.Chemscore.Rot.Weighted>
4.4420

> <Gold.Chemscore.Internal.Correction.Weighted>
   9.000000E+99

> <Gold.Protein.RotatedTorsions>
[ 6907 6896 6895 6894 ] final  -40.67 input  -60.11 | X-H torsion
[ 7974 7965 7964 7962 ] final  118.10 input  175.53 | X-H torsion
[ 8008 7997 7996 7995 ] final  132.23 input   59.86 | X-H torsion
[ 10167 10162 10161 10158 ] final  -61.04 input  -65.29 | X-H torsion
[ 10718 10713 10712 10709 ] final -123.53 input   66.30 | X-H torsion
[ 10763 10752 10751 10750 ] final  111.96 input  -60.55 | X-H torsion
[ 11005 11000 10999 10996 ] final  146.94 input  -57.11 | X-H torsion

> <Gold.Protein.ActiveResidues>
 VAL166  LYS551  ARG553  GLY616  TRP617  ASP618  TYR619  PRO620  LYS621  CYS622 
 ASP623  PHE694  ASN695  SER759  ASP760  ASP761  ALA762  ILE779  LEU786  VAL792 
 PHE793  MET794  SER795  GLU796  ALA797  LYS798  CYS799  TRP800  GLU811  SER814 

> <Gold.Protein.RotatedAtoms>
  150.9758  134.9122  159.7814 H   0  0  0  0  0  0  0  0  0  0  0  0  # atno 6907 bound_to 6896
  152.5205  134.3479  159.9250 H   0  0  0  0  0  0  0  0  0  0  0  0  # atno 6908 bound_to 6896
  151.3487  133.3893  159.2712 H   0  0  0  0  0  0  0  0  0  0  0  0  # atno 6909 bound_to 6896
  145.1593  139.3164  143.4525 H   0  0  0  0  0  0  0  0  0  0  0  0  # atno 7974 bound_to 7965
  156.2980  140.2551  156.3055 H   0  0  0  0  0  0  0  0  0  0  0  0  # atno 8008 bound_to 7997
  154.9376  140.0397  157.2099 H   0  0  0  0  0  0  0  0  0  0  0  0  # atno 8009 bound_to 7997
  154.8158  140.2852  155.5826 H   0  0  0  0  0  0  0  0  0  0  0  0  # atno 8010 bound_to 7997
  140.6032  143.2366  151.5882 H   0  0  0  0  0  0  0  0  0  0  0  0  # atno 10167 bound_to 10162
  156.1510  130.6534  150.9913 H   0  0  0  0  0  0  0  0  0  0  0  0  # atno 10718 bound_to 10713
  153.4709  135.3701  155.2390 H   0  0  0  0  0  0  0  0  0  0  0  0  # atno 10763 bound_to 10752
  154.8757  135.3931  154.3813 H   0  0  0  0  0  0  0  0  0  0  0  0  # atno 10764 bound_to 10752
  153.4401  135.7084  153.6239 H   0  0  0  0  0  0  0  0  0  0  0  0  # atno 10765 bound_to 10752
  140.0835  134.9083  157.1538 H   0  0  0  0  0  0  0  0  0  0  0  0  # atno 11005 bound_to 11000
  146.3484  140.1698  142.8590 LP  0  0  0  0  0  0  0  0  0  0  0  0  # atno 17320 bound_to 7965
  145.0347  140.8899  143.5088 LP  0  0  0  0  0  0  0  0  0  0  0  0  # atno 17321 bound_to 7965
  139.5306  144.2929  152.1138 LP  0  0  0  0  0  0  0  0  0  0  0  0  # atno 17342 bound_to 10162
  140.2113  144.4560  150.6384 LP  0  0  0  0  0  0  0  0  0  0  0  0  # atno 17343 bound_to 10162
  157.6657  131.0872  150.7735 LP  0  0  0  0  0  0  0  0  0  0  0  0  # atno 17370 bound_to 10713
  156.7803  130.4857  149.5402 LP  0  0  0  0  0  0  0  0  0  0  0  0  # atno 17371 bound_to 10713
  140.3454  134.2657  155.7206 LP  0  0  0  0  0  0  0  0  0  0  0  0  # atno 17394 bound_to 11000
  141.2054  133.7859  157.0232 LP  0  0  0  0  0  0  0  0  0  0  0  0  # atno 17395 bound_to 11000

$$$$
