AV-unprocessed.smi:3068|AV-procd|sdf|11703|dock4
  -GOLD-   2272017103D 1   1.00000     0.00000
 Structure written by MMmdl.
 40 42  0  0  0  0  0  0  0  0  2 V2000
  151.9843  137.0611  154.8410 N   0  0  0  0  0  0  0  0  0  0  0  0
  151.0826  137.7761  154.7197 C   0  0  0  0  0  0  0  0  0  0  0  0
  149.9458  138.6753  154.5670 C   0  0  0  0  0  0  0  0  0  0  0  0
  150.2063  140.0011  154.6400 N   0  0  0  0  0  0  0  0  0  0  0  0
  149.1621  140.8456  154.5029 C   0  0  0  0  0  0  0  0  0  0  0  0
  147.8529  140.3709  154.2932 C   0  0  0  0  0  0  0  0  0  0  0  0
  147.5835  139.0501  154.2202 N   0  0  0  0  0  0  0  0  0  0  0  0
  148.6240  138.1900  154.3564 C   0  0  0  0  0  0  0  0  0  0  0  0
  148.3592  136.8096  154.2824 N   0  0  0  0  0  0  0  0  0  0  0  0
  147.0770  136.2456  154.6882 C   0  0  0  0  0  0  0  0  0  0  0  0
  146.5749  135.1652  153.7152 C   0  0  1  0  0  0  0  0  0  0  0  0
  145.5729  134.2112  154.4020 C   0  0  0  0  0  0  0  0  0  0  0  0
  144.9917  133.2449  153.4388 N   0  3  2  0  0  0  0  0  0  0  0  0
  145.9124  132.1282  153.0914 C   0  0  0  0  0  0  0  0  0  0  0  0
  145.2379  131.1216  152.1482 C   0  0  0  0  0  0  0  0  0  0  0  0
  144.7412  131.8205  150.8780 C   0  0  0  0  0  0  0  0  0  0  0  0
  143.7920  132.9670  151.2516 C   0  0  0  0  0  0  0  0  0  0  0  0
  144.4215  133.9528  152.2590 C   0  0  2  0  0  0  0  0  0  0  0  0
  145.4655  134.9032  151.6359 C   0  0  0  0  0  0  0  0  0  0  0  0
  145.9191  135.8150  152.6297 O   0  0  0  0  0  0  0  0  0  0  0  0
  149.3722  141.9034  154.5611 H   0  0  0  0  0  0  0  0  0  0  0  0
  147.0211  141.0507  154.1838 H   0  0  0  0  0  0  0  0  0  0  0  0
  149.1066  136.1745  154.0392 H   0  0  0  0  0  0  0  0  0  0  0  0
  147.1635  135.8383  155.6961 H   0  0  0  0  0  0  0  0  0  0  0  0
  146.3486  137.0543  154.7518 H   0  0  0  0  0  0  0  0  0  0  0  0
  147.4255  134.5965  153.3382 H   0  0  0  0  0  0  0  0  0  0  0  0
  146.0475  133.6790  155.2273 H   0  0  0  0  0  0  0  0  0  0  0  0
  144.7574  134.7906  154.8374 H   0  0  0  0  0  0  0  0  0  0  0  0
  146.8215  132.5092  152.6260 H   0  0  0  0  0  0  0  0  0  0  0  0
  146.2196  131.6180  154.0051 H   0  0  0  0  0  0  0  0  0  0  0  0
  145.9384  130.3276  151.8875 H   0  0  0  0  0  0  0  0  0  0  0  0
  144.4011  130.6419  152.6576 H   0  0  0  0  0  0  0  0  0  0  0  0
  145.5880  132.2029  150.3070 H   0  0  0  0  0  0  0  0  0  0  0  0
  144.2289  131.1059  150.2329 H   0  0  0  0  0  0  0  0  0  0  0  0
  143.4705  133.4967  150.3541 H   0  0  0  0  0  0  0  0  0  0  0  0
  142.8878  132.5428  151.6904 H   0  0  0  0  0  0  0  0  0  0  0  0
  143.6104  134.5804  152.6322 H   0  0  0  0  0  0  0  0  0  0  0  0
  146.3100  134.3613  151.2087 H   0  0  0  0  0  0  0  0  0  0  0  0
  145.0155  135.4747  150.8238 H   0  0  0  0  0  0  0  0  0  0  0  0
  144.2120  132.8088  153.9100 H   0  0  0  0  0  0  0  0  0  0  0  0
  1  2  3  0  0  0  0
  2  3  1  0  0  0  0
  3  8  1  0  0  0  0
  3  4  2  0  0  0  0
  4  5  1  0  0  0  0
  5  6  2  0  0  0  0
  5 21  1  0  0  0  0
  6  7  1  0  0  0  0
  6 22  1  0  0  0  0
  7  8  2  0  0  0  0
  8  9  1  0  0  0  0
  9 10  1  0  0  0  0
  9 23  1  0  0  0  0
 10 11  1  0  0  0  0
 10 24  1  0  0  0  0
 10 25  1  0  0  0  0
 11 20  1  0  0  0  0
 11 12  1  0  0  0  0
 11 26  1  0  0  0  0
 12 13  1  0  0  0  0
 12 27  1  0  0  0  0
 12 28  1  0  0  0  0
 13 18  1  0  0  0  0
 13 14  1  0  0  0  0
 13 40  1  0  0  0  0
 14 15  1  0  0  0  0
 14 29  1  0  0  0  0
 14 30  1  0  0  0  0
 15 16  1  0  0  0  0
 15 31  1  0  0  0  0
 15 32  1  0  0  0  0
 16 17  1  0  0  0  0
 16 33  1  0  0  0  0
 16 34  1  0  0  0  0
 17 18  1  0  0  0  0
 17 35  1  0  0  0  0
 17 36  1  0  0  0  0
 18 19  1  0  0  0  0
 18 37  1  0  0  0  0
 19 20  1  0  0  0  0
 19 38  1  0  0  0  0
 19 39  1  0  0  0  0
M  CHG  1  13   1
M  END
> <s_m_source_file>
AV-unprocessed.smi

> <i_m_source_file_index>
3068

> <i_lp_mmshare_version>
43012

> <i_f3d_flags>
0

> <s_epik_input>
TiNDYzFuW2NIXVtjSF1uYzFbTkhdW0NIMl1bQ0BIXShbQ0gyXTIpT1tDSDJdW0NAQEhdKE4yMylbQ0gyXVtDSDJdW0NIMl1bQ0gyXTM=

> <s_epik_cmdline>
J2VwaWtfcHl0aG9uJywgJy1waCcsICc3LjAnLCAnLXRuJywgJzgnLCAnLW1hJywgJzIwMCcsICctbWV0YWxfYmluZGluZycsICctaW1hZScsICc8aW5maWxlLm1hZT4nLCAnLW9tYWUnLCAnPG91dGZpbGUubWFlPic=

> <r_epik_Ionization_Penalty>
0.0804321

> <r_epik_Ionization_Penalty_Charging>
0.0803403

> <r_epik_Ionization_Penalty_Neutral>
9.17277e-05

> <r_epik_State_Penalty>
0.0711481

> <r_epik_Charging_Adjusted_Penalty>
0.151488

> <i_epik_Tot_Q>
1

> <i_epik_Tot_abs_Q>
1

> <r_epik_Metal_State_Penalty>
0.0711481

> <b_epik_Metal_Only>
0

> <s_lp_Force_Field>
OPLS_2005

> <r_lp_Energy>
39.7851

> <b_lp_Chiralities_Consistent>
1

> <s_lp_Variant>
AV-unprocessed.smi:3068-6

> <Gold.Version>
5.8.1

> <Gold.Id.Protein>
6NUR|6NUR_protein|mol2

> <Gold.PLP.Fitness>
41.4394

> <Gold.PLP.PLP>
-29.8644

> <Gold.PLP.part.hbond>
-3.6948

> <Gold.PLP.part.metal>
0.0000

> <Gold.PLP.part.buried>
-5.4612

> <Gold.PLP.part.nonpolar>
-23.0436

> <Gold.PLP.part.repulsive>
0.5373

> <Gold.PLP.ligand.clash>
0.0000

> <Gold.PLP.ligand.torsion>
0.5406

> <Gold.PLP.Chemscore.Hbond>
4.2160

> <Gold.PLP.Chemscore.CHOScore>
0.0000

> <Gold.PLP.Chemscore.Metal>
0.0000

> <Gold.Chemscore.Hbonds>
donor molecule, donor type, donor heavy atom, donor atom, acceptor molecule, acceptor atom, score
      L1  H     9    23       P1  7948  0.01
      L1  H    13    40       P1 10957  1.89
      P1  H  7989  7998       L1     4  1.00
      P1  H 10752 10765       L1     1  0.94

> <Gold.PLP.Chemscore.Internal.Correction>
0.0083

> <Gold.Rescore>
     Score         DG    S(hbond)    S(metal)    S(lipo)     H(rot)  DE(clash)    DE(int)     intcor
     18.04     -18.80       2.86        0.00      61.01       1.32       0.17       0.58       ----

> <Gold.Chemscore.Fitness>
18.0440

> <Gold.Chemscore.DG>
-18.7955

> <Gold.Chemscore.ZeroCoef>
-5.4800

> <Gold.Chemscore.Hbond>
2.8608

> <Gold.Chemscore.Metal>
0.0000

> <Gold.Chemscore.Lipo>
61.0066

> <Gold.Chemscore.Internal_Hbond>
0.0000

> <Gold.Chemscore.DEClash>
0.1739

> <Gold.Chemscore.DEInternal>
0.5777

> <Gold.Chemscore.Rot>
1.3193

> <Gold.Chemscore.Internal.Correction>
   9.000000E+99

> <Gold.Chemscore.Hbonds>
donor molecule, donor type, donor heavy atom, donor atom, acceptor molecule, acceptor atom, score
      L1  H     9    23       P1  7948  0.04
      L1  H    13    40       P1 10957  0.77
      P1  H  7989  7998       L1     4  0.32
      P1  H 10752 10765       L1     1  0.91

> <Gold.Chemscore.Hbond.Weighted>
-9.5551

> <Gold.Chemscore.Metal.Weighted>
-0.0000

> <Gold.Chemscore.Lipo.Weighted>
-7.1378

> <Gold.Chemscore.Internal_Hbond.Weighted>
0.0000

> <Gold.Chemscore.DEClash.Weighted>
0.1739

> <Gold.Chemscore.DEInternal.Weighted>
0.5777

> <Gold.Chemscore.Rot.Weighted>
3.3774

> <Gold.Chemscore.Internal.Correction.Weighted>
   9.000000E+99

> <Gold.Protein.RotatedTorsions>
[ 6907 6896 6895 6894 ] final -178.96 input  -60.11 | X-H torsion
[ 7974 7965 7964 7962 ] final   78.24 input  175.53 | X-H torsion
[ 8008 7997 7996 7995 ] final -107.81 input   59.86 | X-H torsion
[ 10167 10162 10161 10158 ] final   66.38 input  -65.29 | X-H torsion
[ 10718 10713 10712 10709 ] final -162.38 input   66.30 | X-H torsion
[ 10763 10752 10751 10750 ] final  165.02 input  -60.55 | X-H torsion
[ 11005 11000 10999 10996 ] final   12.80 input  -57.11 | X-H torsion

> <Gold.Protein.ActiveResidues>
 VAL166  LYS551  ARG553  GLY616  TRP617  ASP618  TYR619  PRO620  LYS621  CYS622 
 ASP623  PHE694  ASN695  SER759  ASP760  ASP761  ALA762  ILE779  LEU786  VAL792 
 PHE793  MET794  SER795  GLU796  ALA797  LYS798  CYS799  TRP800  GLU811  SER814 

> <Gold.Protein.RotatedAtoms>
  151.6457  133.3323  159.3140 H   0  0  0  0  0  0  0  0  0  0  0  0  # atno 6907 bound_to 6896
  150.7985  134.7066  159.6589 H   0  0  0  0  0  0  0  0  0  0  0  0  # atno 6908 bound_to 6896
  152.4075  134.6186  160.0096 H   0  0  0  0  0  0  0  0  0  0  0  0  # atno 6909 bound_to 6896
  145.6797  139.2520  143.1821 H   0  0  0  0  0  0  0  0  0  0  0  0  # atno 7974 bound_to 7965
  154.9349  140.0404  157.2067 H   0  0  0  0  0  0  0  0  0  0  0  0  # atno 8008 bound_to 7997
  154.8125  140.2870  155.5821 H   0  0  0  0  0  0  0  0  0  0  0  0  # atno 8009 bound_to 7997
  156.2973  140.2534  156.3016 H   0  0  0  0  0  0  0  0  0  0  0  0  # atno 8010 bound_to 7997
  140.1010  144.4904  150.7037 H   0  0  0  0  0  0  0  0  0  0  0  0  # atno 10167 bound_to 10162
  156.6096  130.8845  151.2933 H   0  0  0  0  0  0  0  0  0  0  0  0  # atno 10718 bound_to 10713
  154.3177  135.2756  155.2535 H   0  0  0  0  0  0  0  0  0  0  0  0  # atno 10763 bound_to 10752
  154.4902  135.5835  153.6457 H   0  0  0  0  0  0  0  0  0  0  0  0  # atno 10764 bound_to 10752
  152.9880  135.6132  154.3359 H   0  0  0  0  0  0  0  0  0  0  0  0  # atno 10765 bound_to 10752
  140.4879  134.0870  155.7765 H   0  0  0  0  0  0  0  0  0  0  0  0  # atno 11005 bound_to 11000
  146.0975  140.7583  142.9565 LP  0  0  0  0  0  0  0  0  0  0  0  0  # atno 17320 bound_to 7965
  144.7030  140.3734  143.7140 LP  0  0  0  0  0  0  0  0  0  0  0  0  # atno 17321 bound_to 7965
  140.6978  143.2415  151.4952 LP  0  0  0  0  0  0  0  0  0  0  0  0  # atno 17342 bound_to 10162
  139.5671  144.2016  152.1781 LP  0  0  0  0  0  0  0  0  0  0  0  0  # atno 17343 bound_to 10162
  157.7258  130.9620  150.1628 LP  0  0  0  0  0  0  0  0  0  0  0  0  # atno 17370 bound_to 10713
  156.2401  130.3690  149.8347 LP  0  0  0  0  0  0  0  0  0  0  0  0  # atno 17371 bound_to 10713
  141.1499  133.8988  157.2124 LP  0  0  0  0  0  0  0  0  0  0  0  0  # atno 17394 bound_to 11000
  139.9787  135.0105  156.9696 LP  0  0  0  0  0  0  0  0  0  0  0  0  # atno 17395 bound_to 11000

$$$$
