AV-unprocessed.smi:1809|AV-procd|sdf|7326|dock9
  -GOLD-   22720 8583D 1   1.00000     0.00000
 Structure written by MMmdl.
 39 41  0  0  0  0  0  0  0  0  3 V2000
  151.2865  141.2250  156.4783 C   0  0  0  0  0  0  0  0  0  0  0  0
  151.1881  139.9157  155.7732 C   0  0  0  0  0  0  0  0  0  0  0  0
  150.6597  139.7901  154.5537 N   0  0  0  0  0  0  0  0  0  0  0  0
  150.6764  138.4758  154.1097 N   0  0  0  0  0  0  0  0  0  0  0  0
  151.2074  137.6262  155.0002 C   0  0  0  0  0  0  0  0  0  0  0  0
  151.3196  136.3095  154.7584 N   0  5  0  0  0  0  0  0  0  0  0  0
  150.4820  135.4363  155.3605 C   0  0  0  0  0  0  0  0  0  0  0  0
  150.6091  134.9615  156.4917 O   0  0  0  0  0  0  0  0  0  0  0  0
  149.4340  135.0846  154.6024 N   0  0  0  0  0  0  0  0  0  0  0  0
  148.3881  134.1412  154.9816 C   0  0  0  0  0  0  0  0  0  0  0  0
  147.2296  134.1485  153.9698 C   0  0  1  0  0  0  0  0  0  0  0  0
  146.2099  133.0294  154.2525 C   0  0  0  0  0  0  0  0  0  0  0  0
  145.0324  133.1182  153.3575 N   0  3  2  0  0  0  0  0  0  0  0  0
  145.1968  132.5632  151.9956 C   0  0  0  0  0  0  0  0  0  0  0  0
  144.3007  133.4061  151.0742 C   0  0  0  0  0  0  0  0  0  0  0  0
  143.5582  134.3732  152.0015 C   0  0  0  0  0  0  0  0  0  0  0  0
  144.4610  134.4754  153.2317 C   0  0  2  0  0  0  0  0  0  0  0  0
  145.5669  135.5415  153.0575 C   0  0  0  0  0  0  0  0  0  0  0  0
  146.5532  135.3969  154.0684 O   0  0  0  0  0  0  0  0  0  0  0  0
  151.7563  138.4127  156.4805 S   0  0  0  0  0  0  0  0  0  0  0  0
  150.3389  141.4578  156.9640 H   0  0  0  0  0  0  0  0  0  0  0  0
  151.5233  142.0195  155.7702 H   0  0  0  0  0  0  0  0  0  0  0  0
  152.0699  141.1888  157.2355 H   0  0  0  0  0  0  0  0  0  0  0  0
  149.3668  135.4986  153.6841 H   0  0  0  0  0  0  0  0  0  0  0  0
  148.8126  133.1397  155.0682 H   0  0  0  0  0  0  0  0  0  0  0  0
  148.0243  134.4090  155.9739 H   0  0  0  0  0  0  0  0  0  0  0  0
  147.6354  134.0275  152.9641 H   0  0  0  0  0  0  0  0  0  0  0  0
  146.6715  132.0452  154.1617 H   0  0  0  0  0  0  0  0  0  0  0  0
  145.8552  133.1153  155.2805 H   0  0  0  0  0  0  0  0  0  0  0  0
  146.2346  132.6220  151.6653 H   0  0  0  0  0  0  0  0  0  0  0  0
  144.9076  131.5118  151.9916 H   0  0  0  0  0  0  0  0  0  0  0  0
  144.9192  133.9649  150.3705 H   0  0  0  0  0  0  0  0  0  0  0  0
  143.6131  132.7934  150.4904 H   0  0  0  0  0  0  0  0  0  0  0  0
  143.3543  135.3378  151.5352 H   0  0  0  0  0  0  0  0  0  0  0  0
  142.6004  133.9371  152.2889 H   0  0  0  0  0  0  0  0  0  0  0  0
  143.8807  134.7062  154.1259 H   0  0  0  0  0  0  0  0  0  0  0  0
  146.0387  135.4758  152.0757 H   0  0  0  0  0  0  0  0  0  0  0  0
  145.1353  136.5401  153.1272 H   0  0  0  0  0  0  0  0  0  0  0  0
  144.3076  132.5548  153.7788 H   0  0  0  0  0  0  0  0  0  0  0  0
  1  2  1  0  0  0  0
  1 21  1  0  0  0  0
  1 22  1  0  0  0  0
  1 23  1  0  0  0  0
  2 20  1  0  0  0  0
  2  3  2  0  0  0  0
  3  4  1  0  0  0  0
  4  5  2  0  0  0  0
  5  6  1  0  0  0  0
  5 20  1  0  0  0  0
  6  7  1  0  0  0  0
  7  8  2  0  0  0  0
  7  9  1  0  0  0  0
  9 10  1  0  0  0  0
  9 24  1  0  0  0  0
 10 11  1  0  0  0  0
 10 25  1  0  0  0  0
 10 26  1  0  0  0  0
 11 19  1  0  0  0  0
 11 12  1  0  0  0  0
 11 27  1  0  0  0  0
 12 13  1  0  0  0  0
 12 28  1  0  0  0  0
 12 29  1  0  0  0  0
 13 17  1  0  0  0  0
 13 14  1  0  0  0  0
 13 39  1  0  0  0  0
 14 15  1  0  0  0  0
 14 30  1  0  0  0  0
 14 31  1  0  0  0  0
 15 16  1  0  0  0  0
 15 32  1  0  0  0  0
 15 33  1  0  0  0  0
 16 17  1  0  0  0  0
 16 34  1  0  0  0  0
 16 35  1  0  0  0  0
 17 18  1  0  0  0  0
 17 36  1  0  0  0  0
 18 19  1  0  0  0  0
 18 37  1  0  0  0  0
 18 38  1  0  0  0  0
M  CHG  1   6  -1
M  CHG  1  13   1
M  END
> <s_m_source_file>
AV-unprocessed.smi

> <i_m_source_file_index>
1809

> <i_lp_mmshare_version>
43012

> <i_f3d_flags>
0

> <s_epik_input>
W0NIM11jMW5uYyhzMSlbTkhdQyg9TylbTkhdW0NIMl1bQ0BIXShbQ0gyXTIpT1tDSDJdW0NAQEhdKE4yMylbQ0gyXVtDSDJdW0NIMl0z

> <s_epik_cmdline>
J2VwaWtfcHl0aG9uJywgJy1waCcsICc3LjAnLCAnLXRuJywgJzgnLCAnLW1hJywgJzIwMCcsICctbWV0YWxfYmluZGluZycsICctaW1hZScsICc8aW5maWxlLm1hZT4nLCAnLW9tYWUnLCAnPG91dGZpbGUubWFlPic=

> <r_lp_tautomer_probability>
1

> <r_epik_Ionization_Penalty>
3.2601

> <r_epik_Ionization_Penalty_Charging>
3.1406

> <r_epik_Ionization_Penalty_Neutral>
0.119497

> <r_epik_State_Penalty>
3.08894

> <r_epik_Charging_Adjusted_Penalty>
6.22954

> <i_epik_Tot_Q>
0

> <i_epik_Tot_abs_Q>
2

> <r_epik_Metal_State_Penalty>
0.510807

> <b_epik_Metal_Only>
1

> <s_lp_Force_Field>
OPLS_2005

> <r_lp_Energy>
28.762

> <b_lp_Chiralities_Consistent>
1

> <s_lp_Variant>
AV-unprocessed.smi:1809-18

> <Gold.Version>
5.8.1

> <Gold.Id.Protein>
6NUR|6NUR_protein|mol2

> <Gold.PLP.Fitness>
41.3450

> <Gold.PLP.PLP>
-26.3652

> <Gold.PLP.part.hbond>
-4.0000

> <Gold.PLP.part.metal>
0.0000

> <Gold.PLP.part.buried>
-6.2068

> <Gold.PLP.part.nonpolar>
-17.6770

> <Gold.PLP.part.repulsive>
0.6676

> <Gold.PLP.ligand.clash>
0.0000

> <Gold.PLP.ligand.torsion>
1.5154

> <Gold.PLP.Chemscore.Hbond>
6.0000

> <Gold.PLP.Chemscore.CHOScore>
0.0000

> <Gold.PLP.Chemscore.Metal>
0.0000

> <Gold.Chemscore.Hbonds>
donor molecule, donor type, donor heavy atom, donor atom, acceptor molecule, acceptor atom, score
      L1  H     9    24       P1  7948  1.00
      L1  H    13    39       P1 10957  1.82
      P1  H  7989  7998       L1     3  1.00
      P1  H 10752 10763       L1     6  2.00

> <Gold.PLP.Chemscore.Internal.Correction>
0.0105

> <Gold.Rescore>
     Score         DG    S(hbond)    S(metal)    S(lipo)     H(rot)  DE(clash)    DE(int)     intcor
     16.78     -18.32       3.21        0.00      47.12       1.32       0.22       1.31       ----

> <Gold.Chemscore.Fitness>
16.7801

> <Gold.Chemscore.DG>
-18.3160

> <Gold.Chemscore.ZeroCoef>
-5.4800

> <Gold.Chemscore.Hbond>
3.2079

> <Gold.Chemscore.Metal>
0.0000

> <Gold.Chemscore.Lipo>
47.1163

> <Gold.Chemscore.Internal_Hbond>
0.0000

> <Gold.Chemscore.DEClash>
0.2228

> <Gold.Chemscore.DEInternal>
1.3132

> <Gold.Chemscore.Rot>
1.3246

> <Gold.Chemscore.Internal.Correction>
   9.000000E+99

> <Gold.Chemscore.Hbonds>
donor molecule, donor type, donor heavy atom, donor atom, acceptor molecule, acceptor atom, score
      L1  H     9    24       P1  7948  0.34
      L1  H    13    39       P1 10957  0.44
      P1  H  7989  7998       L1     3  0.45
      P1  H 10752 10763       L1     6  0.83

> <Gold.Chemscore.Hbond.Weighted>
-10.7144

> <Gold.Chemscore.Metal.Weighted>
-0.0000

> <Gold.Chemscore.Lipo.Weighted>
-5.5126

> <Gold.Chemscore.Internal_Hbond.Weighted>
0.0000

> <Gold.Chemscore.DEClash.Weighted>
0.2228

> <Gold.Chemscore.DEInternal.Weighted>
1.3132

> <Gold.Chemscore.Rot.Weighted>
3.3910

> <Gold.Chemscore.Internal.Correction.Weighted>
   9.000000E+99

> <Gold.Protein.RotatedTorsions>
[ 6907 6896 6895 6894 ] final  -50.40 input  -60.11 | X-H torsion
[ 7974 7965 7964 7962 ] final -138.80 input  175.53 | X-H torsion
[ 8008 7997 7996 7995 ] final  112.57 input   59.86 | X-H torsion
[ 10167 10162 10161 10158 ] final  -85.51 input  -65.29 | X-H torsion
[ 10718 10713 10712 10709 ] final  109.95 input   66.30 | X-H torsion
[ 10763 10752 10751 10750 ] final   49.65 input  -60.55 | X-H torsion
[ 11005 11000 10999 10996 ] final -179.78 input  -57.11 | X-H torsion

> <Gold.Protein.ActiveResidues>
 VAL166  LYS551  ARG553  GLY616  TRP617  ASP618  TYR619  PRO620  LYS621  CYS622 
 ASP623  PHE694  ASN695  SER759  ASP760  ASP761  ALA762  ILE779  LEU786  VAL792 
 PHE793  MET794  SER795  GLU796  ALA797  LYS798  CYS799  TRP800  GLU811  SER814 

> <Gold.Protein.RotatedAtoms>
  150.8711  134.8085  159.7155 H   0  0  0  0  0  0  0  0  0  0  0  0  # atno 6907 bound_to 6896
  152.4715  134.4945  159.9715 H   0  0  0  0  0  0  0  0  0  0  0  0  # atno 6908 bound_to 6896
  151.5033  133.3461  159.2908 H   0  0  0  0  0  0  0  0  0  0  0  0  # atno 6909 bound_to 6896
  144.8728  140.6393  143.5256 H   0  0  0  0  0  0  0  0  0  0  0  0  # atno 7974 bound_to 7965
  156.2201  140.2997  155.9932 H   0  0  0  0  0  0  0  0  0  0  0  0  # atno 8008 bound_to 7997
  155.2503  140.0425  157.3003 H   0  0  0  0  0  0  0  0  0  0  0  0  # atno 8009 bound_to 7997
  154.5828  140.2380  155.8038 H   0  0  0  0  0  0  0  0  0  0  0  0  # atno 8010 bound_to 7997
  140.4031  143.2654  151.9117 H   0  0  0  0  0  0  0  0  0  0  0  0  # atno 10167 bound_to 10162
  157.6517  131.0923  150.6530 H   0  0  0  0  0  0  0  0  0  0  0  0  # atno 10718 bound_to 10713
  152.9786  135.5905  154.4124 H   0  0  0  0  0  0  0  0  0  0  0  0  # atno 10763 bound_to 10752
  154.3758  135.2767  155.2242 H   0  0  0  0  0  0  0  0  0  0  0  0  # atno 10764 bound_to 10752
  154.4178  135.6066  153.6046 H   0  0  0  0  0  0  0  0  0  0  0  0  # atno 10765 bound_to 10752
  140.4148  134.6659  157.4633 H   0  0  0  0  0  0  0  0  0  0  0  0  # atno 11005 bound_to 11000
  145.4098  139.1582  143.4132 LP  0  0  0  0  0  0  0  0  0  0  0  0  # atno 17320 bound_to 7965
  146.2942  140.4201  142.8728 LP  0  0  0  0  0  0  0  0  0  0  0  0  # atno 17321 bound_to 7965
  139.4784  144.5613  151.8234 LP  0  0  0  0  0  0  0  0  0  0  0  0  # atno 17342 bound_to 10162
  140.4719  144.1575  150.5919 LP  0  0  0  0  0  0  0  0  0  0  0  0  # atno 17343 bound_to 10162
  156.6840  130.4575  149.5619 LP  0  0  0  0  0  0  0  0  0  0  0  0  # atno 17370 bound_to 10713
  156.1909  130.6559  151.1060 LP  0  0  0  0  0  0  0  0  0  0  0  0  # atno 17371 bound_to 10713
  140.0242  134.6502  155.9197 LP  0  0  0  0  0  0  0  0  0  0  0  0  # atno 17394 bound_to 11000
  141.1807  133.6546  156.5009 LP  0  0  0  0  0  0  0  0  0  0  0  0  # atno 17395 bound_to 11000

$$$$
