AV-unprocessed.smi:1473|AV-procd|sdf|5971|dock8
  -GOLD-   22720 6 63D 1   1.00000     0.00000
 Structure written by MMmdl.
 32 33  0  0  0  0  0  0  0  0  3 V2000
  148.9970  135.3096  159.4753 N   0  5  0  0  0  0  0  0  0  0  0  0
  148.1836  136.4914  160.2279 S   0  0  0  0  0  0  0  0  0  0  0  0
  146.7732  136.4626  159.8119 O   0  0  0  0  0  0  0  0  0  0  0  0
  148.4084  136.4554  161.6839 O   0  0  0  0  0  0  0  0  0  0  0  0
  148.9500  137.7331  159.4981 N   0  5  0  0  0  0  0  0  0  0  0  0
  148.9530  137.9042  158.0475 C   0  0  0  0  0  0  0  0  0  0  0  0
  150.2053  138.6277  157.5727 C   0  0  0  0  0  0  0  0  0  0  0  0
  151.0259  138.0686  156.5686 C   0  0  0  0  0  0  0  0  0  0  0  0
  152.1753  138.7765  156.1736 C   0  0  0  0  0  0  0  0  0  0  0  0
  152.5315  139.9667  156.6992 N   0  0  0  0  0  0  0  0  0  0  0  0
  151.7502  140.5182  157.6607 C   0  0  0  0  0  0  0  0  0  0  0  0
  152.1339  141.7662  158.1985 N   0  0  0  0  0  0  0  0  0  0  0  0
  152.5374  141.7509  159.6023 C   0  0  0  0  0  0  0  0  0  0  0  0
  153.2144  143.0800  159.9801 C   0  0  0  0  0  0  0  0  0  0  0  0
  152.3540  144.1691  159.6623 O   0  0  0  0  0  0  0  0  0  0  0  0
  152.0678  144.2272  158.2688 C   0  0  0  0  0  0  0  0  0  0  0  0
  151.3445  142.9413  157.8350 C   0  0  0  0  0  0  0  0  0  0  0  0
  150.5795  139.8735  158.1274 C   0  0  0  0  0  0  0  0  0  0  0  0
  148.7910  135.3684  158.4710 H   0  0  0  0  0  0  0  0  0  0  0  0
  148.9025  136.9467  157.5272 H   0  0  0  0  0  0  0  0  0  0  0  0
  148.0858  138.4685  157.7015 H   0  0  0  0  0  0  0  0  0  0  0  0
  150.7972  137.1166  156.1091 H   0  0  0  0  0  0  0  0  0  0  0  0
  152.8274  138.3759  155.4117 H   0  0  0  0  0  0  0  0  0  0  0  0
  151.6521  141.5951  160.2200 H   0  0  0  0  0  0  0  0  0  0  0  0
  153.2217  140.9320  159.8183 H   0  0  0  0  0  0  0  0  0  0  0  0
  153.4312  143.0993  161.0482 H   0  0  0  0  0  0  0  0  0  0  0  0
  154.1672  143.1915  159.4602 H   0  0  0  0  0  0  0  0  0  0  0  0
  151.4397  145.0957  158.0709 H   0  0  0  0  0  0  0  0  0  0  0  0
  152.9901  144.3652  157.7022 H   0  0  0  0  0  0  0  0  0  0  0  0
  151.1786  142.9663  156.7571 H   0  0  0  0  0  0  0  0  0  0  0  0
  150.3670  142.8829  158.3156 H   0  0  0  0  0  0  0  0  0  0  0  0
  149.9877  140.3220  158.9138 H   0  0  0  0  0  0  0  0  0  0  0  0
  1  2  1  0  0  0  0
  1 19  1  0  0  0  0
  2  3  2  0  0  0  0
  2  4  2  0  0  0  0
  2  5  1  0  0  0  0
  5  6  1  0  0  0  0
  6  7  1  0  0  0  0
  6 20  1  0  0  0  0
  6 21  1  0  0  0  0
  7 18  1  0  0  0  0
  7  8  2  0  0  0  0
  8  9  1  0  0  0  0
  8 22  1  0  0  0  0
  9 10  2  0  0  0  0
  9 23  1  0  0  0  0
 10 11  1  0  0  0  0
 11 12  1  0  0  0  0
 11 18  2  0  0  0  0
 12 17  1  0  0  0  0
 12 13  1  0  0  0  0
 13 14  1  0  0  0  0
 13 24  1  0  0  0  0
 13 25  1  0  0  0  0
 14 15  1  0  0  0  0
 14 26  1  0  0  0  0
 14 27  1  0  0  0  0
 15 16  1  0  0  0  0
 16 17  1  0  0  0  0
 16 28  1  0  0  0  0
 16 29  1  0  0  0  0
 17 30  1  0  0  0  0
 17 31  1  0  0  0  0
 18 32  1  0  0  0  0
M  CHG  1   1  -1
M  CHG  1   5  -1
M  END
> <s_m_source_file>
AV-unprocessed.smi

> <i_m_source_file_index>
1473

> <i_lp_mmshare_version>
43012

> <i_f3d_flags>
0

> <s_epik_input>
W05IMl1TKD1PKSg9TylbTkhdW0NIMl1jMVtjSF1bY0hdbmMoW2NIXTEpTjJbQ0gyXVtDSDJdT1tDSDJdW0NIMl0y

> <s_epik_cmdline>
J2VwaWtfcHl0aG9uJywgJy1waCcsICc3LjAnLCAnLXRuJywgJzgnLCAnLW1hJywgJzIwMCcsICctbWV0YWxfYmluZGluZycsICctaW1hZScsICc8aW5maWxlLm1hZT4nLCAnLW9tYWUnLCAnPG91dGZpbGUubWFlPic=

> <r_lp_tautomer_probability>
1

> <r_epik_Ionization_Penalty>
9.31635

> <r_epik_Ionization_Penalty_Charging>
9.0542

> <r_epik_Ionization_Penalty_Neutral>
0.262148

> <r_epik_State_Penalty>
4.75451

> <r_epik_Charging_Adjusted_Penalty>
13.8087

> <i_epik_Tot_Q>
-2

> <i_epik_Tot_abs_Q>
2

> <r_epik_Metal_State_Penalty>
1.32914

> <b_epik_Metal_Only>
1

> <s_lp_Force_Field>
OPLS_2005

> <r_lp_Energy>
19.9679

> <b_lp_Chiralities_Consistent>
1

> <s_lp_Variant>
AV-unprocessed.smi:1473-6

> <Gold.Version>
5.8.1

> <Gold.Id.Protein>
6NUR|6NUR_protein|mol2

> <Gold.PLP.Fitness>
40.7829

> <Gold.PLP.PLP>
-29.2893

> <Gold.PLP.part.hbond>
-5.0000

> <Gold.PLP.part.metal>
0.0000

> <Gold.PLP.part.buried>
-3.8020

> <Gold.PLP.part.nonpolar>
-20.6723

> <Gold.PLP.part.repulsive>
0.0106

> <Gold.PLP.ligand.clash>
0.0000

> <Gold.PLP.ligand.torsion>
0.9300

> <Gold.PLP.Chemscore.Hbond>
4.0000

> <Gold.PLP.Chemscore.CHOScore>
0.0000

> <Gold.PLP.Chemscore.Metal>
0.0000

> <Gold.Chemscore.Hbonds>
donor molecule, donor type, donor heavy atom, donor atom, acceptor molecule, acceptor atom, score
      P1  H  6896  6909       L1     1  2.00
      P1  H  6931  6943       L1     4  0.95
      P1  H  7997  8009       L1    10  1.00

> <Gold.PLP.Chemscore.Internal.Correction>
1.3536

> <Gold.Rescore>
     Score         DG    S(hbond)    S(metal)    S(lipo)     H(rot)  DE(clash)    DE(int)     intcor
     15.66     -17.11       2.67        0.00      63.88       1.86       0.39       1.06       ----

> <Gold.Chemscore.Fitness>
15.6638

> <Gold.Chemscore.DG>
-17.1132

> <Gold.Chemscore.ZeroCoef>
-5.4800

> <Gold.Chemscore.Hbond>
2.6715

> <Gold.Chemscore.Metal>
0.0000

> <Gold.Chemscore.Lipo>
63.8752

> <Gold.Chemscore.Internal_Hbond>
0.0000

> <Gold.Chemscore.DEClash>
0.3862

> <Gold.Chemscore.DEInternal>
1.0633

> <Gold.Chemscore.Rot>
1.8606

> <Gold.Chemscore.Internal.Correction>
   9.000000E+99

> <Gold.Chemscore.Hbonds>
donor molecule, donor type, donor heavy atom, donor atom, acceptor molecule, acceptor atom, score
      P1  H  6896  6909       L1     1  0.55
      P1  H  6931  6943       L1     4  0.21
      P1  H  7997  8009       L1    10  0.60

> <Gold.Chemscore.Hbond.Weighted>
-8.9229

> <Gold.Chemscore.Metal.Weighted>
-0.0000

> <Gold.Chemscore.Lipo.Weighted>
-7.4734

> <Gold.Chemscore.Internal_Hbond.Weighted>
0.0000

> <Gold.Chemscore.DEClash.Weighted>
0.3862

> <Gold.Chemscore.DEInternal.Weighted>
1.0633

> <Gold.Chemscore.Rot.Weighted>
4.7631

> <Gold.Chemscore.Internal.Correction.Weighted>
   9.000000E+99

> <Gold.Protein.RotatedTorsions>
[ 6907 6896 6895 6894 ] final   51.84 input  -60.11 | X-H torsion
[ 7974 7965 7964 7962 ] final  116.59 input  175.53 | X-H torsion
[ 8008 7997 7996 7995 ] final -174.69 input   59.86 | X-H torsion
[ 10167 10162 10161 10158 ] final  136.13 input  -65.29 | X-H torsion
[ 10718 10713 10712 10709 ] final -131.51 input   66.30 | X-H torsion
[ 10763 10752 10751 10750 ] final  159.62 input  -60.55 | X-H torsion
[ 11005 11000 10999 10996 ] final  -20.92 input  -57.11 | X-H torsion

> <Gold.Protein.ActiveResidues>
 VAL166  LYS551  ARG553  GLY616  TRP617  ASP618  TYR619  PRO620  LYS621  CYS622 
 ASP623  PHE694  ASN695  SER759  ASP760  ASP761  ALA762  ILE779  LEU786  VAL792 
 PHE793  MET794  SER795  GLU796  ALA797  LYS798  CYS799  TRP800  GLU811  SER814 

> <Gold.Protein.RotatedAtoms>
  152.3169  134.7429  160.0322 H   0  0  0  0  0  0  0  0  0  0  0  0  # atno 6907 bound_to 6896
  151.7890  133.3352  159.3501 H   0  0  0  0  0  0  0  0  0  0  0  0  # atno 6908 bound_to 6896
  150.7349  134.5791  159.5974 H   0  0  0  0  0  0  0  0  0  0  0  0  # atno 6909 bound_to 6896
  145.1778  139.3066  143.4434 H   0  0  0  0  0  0  0  0  0  0  0  0  # atno 7974 bound_to 7965
  155.9733  140.1167  157.0793 H   0  0  0  0  0  0  0  0  0  0  0  0  # atno 8008 bound_to 7997
  154.4162  140.1159  156.5403 H   0  0  0  0  0  0  0  0  0  0  0  0  # atno 8009 bound_to 7997
  155.6568  140.3473  155.4770 H   0  0  0  0  0  0  0  0  0  0  0  0  # atno 8010 bound_to 7997
  139.5191  144.6481  151.5383 H   0  0  0  0  0  0  0  0  0  0  0  0  # atno 10167 bound_to 10162
  156.2251  130.7003  151.0798 H   0  0  0  0  0  0  0  0  0  0  0  0  # atno 10718 bound_to 10713
  154.2346  135.2777  155.2877 H   0  0  0  0  0  0  0  0  0  0  0  0  # atno 10763 bound_to 10752
  154.5596  135.5651  153.6998 H   0  0  0  0  0  0  0  0  0  0  0  0  # atno 10764 bound_to 10752
  153.0013  135.6294  154.2488 H   0  0  0  0  0  0  0  0  0  0  0  0  # atno 10765 bound_to 10752
  140.8511  133.7856  155.9967 H   0  0  0  0  0  0  0  0  0  0  0  0  # atno 11005 bound_to 11000
  146.3458  140.1947  142.8589 LP  0  0  0  0  0  0  0  0  0  0  0  0  # atno 17320 bound_to 7965
  145.0167  140.8759  143.5191 LP  0  0  0  0  0  0  0  0  0  0  0  0  # atno 17321 bound_to 7965
  140.6274  143.9143  150.6576 LP  0  0  0  0  0  0  0  0  0  0  0  0  # atno 17342 bound_to 10162
  140.2436  143.3645  152.1466 LP  0  0  0  0  0  0  0  0  0  0  0  0  # atno 17343 bound_to 10162
  157.7106  131.0735  150.6512 LP  0  0  0  0  0  0  0  0  0  0  0  0  # atno 17370 bound_to 10713
  156.6577  130.4503  149.5698 LP  0  0  0  0  0  0  0  0  0  0  0  0  # atno 17371 bound_to 10713
  140.8789  134.2636  157.5154 LP  0  0  0  0  0  0  0  0  0  0  0  0  # atno 17394 bound_to 11000
  139.8704  134.9605  156.4365 LP  0  0  0  0  0  0  0  0  0  0  0  0  # atno 17395 bound_to 11000

$$$$
