AV-unprocessed.smi:1695|AV-procd|sdf|6798|dock4
  -GOLD-   22720 7563D 1   1.00000     0.00000
 Structure written by MMmdl.
 50 52  0  0  0  0  0  0  0  0  1 V2000
  153.3893  143.0249  163.1783 C   0  0  0  0  0  0  0  0  0  0  0  0
  152.9921  142.5946  161.7773 C   0  0  0  0  0  0  0  0  0  0  0  0
  152.1295  143.4218  161.0231 C   0  0  0  0  0  0  0  0  0  0  0  0
  151.7347  143.0572  159.7172 C   0  0  0  0  0  0  0  0  0  0  0  0
  150.9111  143.7058  158.8130 N   0  0  0  0  0  0  0  0  0  0  0  0
  150.9341  142.8673  157.7807 C   0  0  0  0  0  0  0  0  0  0  0  0
  151.6772  141.7513  157.9098 N   0  0  0  0  0  0  0  0  0  0  0  0
  151.8579  140.6982  156.9267 C   0  0  0  0  0  0  0  0  0  0  0  0
  150.7427  140.6860  155.8643 C   0  0  1  0  0  0  0  0  0  0  0  0
  151.2056  140.0035  154.7152 O   0  0  0  0  0  0  0  0  0  0  0  0
  149.4790  139.9703  156.3821 C   0  0  0  0  0  0  0  0  0  0  0  0
  148.7269  139.2071  155.3830 N   0  0  0  0  0  0  0  0  0  0  0  0
  148.1569  140.0621  154.3362 C   0  0  0  0  0  0  0  0  0  0  0  0
  147.4009  139.2600  153.2631 C   0  0  0  0  0  0  0  0  0  0  0  0
  146.2784  138.4183  153.9017 C   0  0  0  0  0  0  0  0  0  0  0  0
  145.5692  137.5467  152.8565 C   0  0  0  0  0  0  0  0  0  0  0  0
  146.3280  136.7055  152.1494 N   0  0  0  0  0  0  0  0  0  0  0  0
  144.3538  137.6286  152.6878 O   0  0  0  0  0  0  0  0  0  0  0  0
  146.8786  137.5605  155.0329 C   0  0  0  0  0  0  0  0  0  0  0  0
  147.6570  138.4419  156.0242 C   0  0  0  0  0  0  0  0  0  0  0  0
  152.2305  141.8325  159.1825 C   0  0  0  0  0  0  0  0  0  0  0  0
  153.0890  141.0006  159.9228 C   0  0  0  0  0  0  0  0  0  0  0  0
  153.4734  141.3798  161.2261 C   0  0  0  0  0  0  0  0  0  0  0  0
  154.4013  140.4753  162.0175 C   0  0  0  0  0  0  0  0  0  0  0  0
  152.9813  144.0055  163.4245 H   0  0  0  0  0  0  0  0  0  0  0  0
  154.4739  143.0833  163.2690 H   0  0  0  0  0  0  0  0  0  0  0  0
  153.0172  142.3126  163.9147 H   0  0  0  0  0  0  0  0  0  0  0  0
  151.7618  144.3464  161.4431 H   0  0  0  0  0  0  0  0  0  0  0  0
  150.3778  143.0747  156.8782 H   0  0  0  0  0  0  0  0  0  0  0  0
  152.8347  140.8207  156.4562 H   0  0  0  0  0  0  0  0  0  0  0  0
  151.8842  139.7447  157.4556 H   0  0  0  0  0  0  0  0  0  0  0  0
  150.5227  141.7159  155.5878 H   0  0  0  0  0  0  0  0  0  0  0  0
  151.9852  139.5231  154.9499 H   0  0  0  0  0  0  0  0  0  0  0  0
  149.7814  139.3060  157.1932 H   0  0  0  0  0  0  0  0  0  0  0  0
  148.8132  140.7043  156.8390 H   0  0  0  0  0  0  0  0  0  0  0  0
  147.4841  140.7957  154.7832 H   0  0  0  0  0  0  0  0  0  0  0  0
  148.9412  140.6286  153.8375 H   0  0  0  0  0  0  0  0  0  0  0  0
  146.9845  139.9417  152.5204 H   0  0  0  0  0  0  0  0  0  0  0  0
  148.1062  138.6172  152.7335 H   0  0  0  0  0  0  0  0  0  0  0  0
  145.5479  139.1002  154.3414 H   0  0  0  0  0  0  0  0  0  0  0  0
  145.9072  136.1124  151.4490 H   0  0  0  0  0  0  0  0  0  0  0  0
  147.3231  136.6670  152.3177 H   0  0  0  0  0  0  0  0  0  0  0  0
  146.0878  137.0261  155.5605 H   0  0  0  0  0  0  0  0  0  0  0  0
  147.5476  136.8014  154.6240 H   0  0  0  0  0  0  0  0  0  0  0  0
  148.0787  137.8024  156.8005 H   0  0  0  0  0  0  0  0  0  0  0  0
  146.9664  139.1208  156.5267 H   0  0  0  0  0  0  0  0  0  0  0  0
  153.4473  140.0783  159.4900 H   0  0  0  0  0  0  0  0  0  0  0  0
  154.6407  139.5677  161.4628 H   0  0  0  0  0  0  0  0  0  0  0  0
  153.9377  140.1789  162.9587 H   0  0  0  0  0  0  0  0  0  0  0  0
  155.3372  140.9893  162.2381 H   0  0  0  0  0  0  0  0  0  0  0  0
  1  2  1  0  0  0  0
  1 25  1  0  0  0  0
  1 26  1  0  0  0  0
  1 27  1  0  0  0  0
  2 23  1  0  0  0  0
  2  3  2  0  0  0  0
  3  4  1  0  0  0  0
  3 28  1  0  0  0  0
  4 21  2  0  0  0  0
  4  5  1  0  0  0  0
  5  6  2  0  0  0  0
  6  7  1  0  0  0  0
  6 29  1  0  0  0  0
  7  8  1  0  0  0  0
  7 21  1  0  0  0  0
  8  9  1  0  0  0  0
  8 30  1  0  0  0  0
  8 31  1  0  0  0  0
  9 10  1  0  0  0  0
  9 11  1  0  0  0  0
  9 32  1  0  0  0  0
 10 33  1  0  0  0  0
 11 12  1  0  0  0  0
 11 34  1  0  0  0  0
 11 35  1  0  0  0  0
 12 20  1  0  0  0  0
 12 13  1  0  0  0  0
 13 14  1  0  0  0  0
 13 36  1  0  0  0  0
 13 37  1  0  0  0  0
 14 15  1  0  0  0  0
 14 38  1  0  0  0  0
 14 39  1  0  0  0  0
 15 16  1  0  0  0  0
 15 19  1  0  0  0  0
 15 40  1  0  0  0  0
 16 17  1  0  0  0  0
 16 18  2  0  0  0  0
 17 41  1  0  0  0  0
 17 42  1  0  0  0  0
 19 20  1  0  0  0  0
 19 43  1  0  0  0  0
 19 44  1  0  0  0  0
 20 45  1  0  0  0  0
 20 46  1  0  0  0  0
 21 22  1  0  0  0  0
 22 23  2  0  0  0  0
 22 47  1  0  0  0  0
 23 24  1  0  0  0  0
 24 48  1  0  0  0  0
 24 49  1  0  0  0  0
 24 50  1  0  0  0  0
M  END
> <s_m_source_file>
AV-unprocessed.smi

> <i_m_source_file_index>
1695

> <i_lp_mmshare_version>
43012

> <i_f3d_flags>
0

> <s_epik_input>
W0NIM11jKFtjSF0xKWMoW0NIM10pW2NIXWMoYzEyKW4oW2NIXW4yKVtDSDJdW0NASF0oW09IXSlbQ0gyXU4zW0NIMl1bQ0gyXVtDSF0oQyg9TylbTkgyXSlbQ0gyXVtDSDJdMw==

> <s_epik_cmdline>
J2VwaWtfcHl0aG9uJywgJy1waCcsICc3LjAnLCAnLXRuJywgJzgnLCAnLW1hJywgJzIwMCcsICctbWV0YWxfYmluZGluZycsICctaW1hZScsICc8aW5maWxlLm1hZT4nLCAnLW9tYWUnLCAnPG91dGZpbGUubWFlPic=

> <r_epik_Ionization_Penalty>
1.9508

> <r_epik_Ionization_Penalty_Charging>
0

> <r_epik_Ionization_Penalty_Neutral>
1.9508

> <r_epik_State_Penalty>
2.03746

> <r_epik_Charging_Adjusted_Penalty>
2.03746

> <i_epik_Tot_Q>
0

> <i_epik_Tot_abs_Q>
0

> <r_epik_Metal_State_Penalty>
2.03012

> <b_epik_Metal_Only>
0

> <s_lp_Force_Field>
OPLS_2005

> <r_lp_Energy>
30.7191

> <b_lp_Chiralities_Consistent>
1

> <s_lp_Variant>
AV-unprocessed.smi:1695-10

> <Gold.Version>
5.8.1

> <Gold.Id.Protein>
6NUR|6NUR_protein|mol2

> <Gold.PLP.Fitness>
50.4508

> <Gold.PLP.PLP>
-43.4394

> <Gold.PLP.part.hbond>
-1.9858

> <Gold.PLP.part.metal>
0.0000

> <Gold.PLP.part.buried>
-6.8240

> <Gold.PLP.part.nonpolar>
-35.5130

> <Gold.PLP.part.repulsive>
0.9251

> <Gold.PLP.ligand.clash>
0.0000

> <Gold.PLP.ligand.torsion>
1.0169

> <Gold.PLP.Chemscore.Hbond>
2.0000

> <Gold.PLP.Chemscore.CHOScore>
1.0000

> <Gold.PLP.Chemscore.Metal>
0.0000

> <Gold.Chemscore.Hbonds>
donor molecule, donor type, donor heavy atom, donor atom, acceptor molecule, acceptor atom, score
      L1  H    17    42       P1  7948  1.00
      P1  H  7989  7998       L1    10  1.00
      L1  C     6    29       P1  8028  1.00

> <Gold.PLP.Chemscore.Internal.Correction>
0.0453

> <Gold.Rescore>
     Score         DG    S(hbond)    S(metal)    S(lipo)     H(rot)  DE(clash)    DE(int)     intcor
     16.93     -17.86       1.80        0.00     115.31       2.78       0.04       0.90       ----

> <Gold.Chemscore.Fitness>
16.9255

> <Gold.Chemscore.DG>
-17.8642

> <Gold.Chemscore.ZeroCoef>
-5.4800

> <Gold.Chemscore.Hbond>
1.8031

> <Gold.Chemscore.Metal>
0.0000

> <Gold.Chemscore.Lipo>
115.3102

> <Gold.Chemscore.Internal_Hbond>
0.0000

> <Gold.Chemscore.DEClash>
0.0358

> <Gold.Chemscore.DEInternal>
0.9029

> <Gold.Chemscore.Rot>
2.7849

> <Gold.Chemscore.Internal.Correction>
   9.000000E+99

> <Gold.Chemscore.Hbonds>
donor molecule, donor type, donor heavy atom, donor atom, acceptor molecule, acceptor atom, score
      L1  H    17    42       P1  7948  0.95
      P1  H  7989  7998       L1    10  0.40

> <Gold.Chemscore.Hbond.Weighted>
-6.0223

> <Gold.Chemscore.Metal.Weighted>
-0.0000

> <Gold.Chemscore.Lipo.Weighted>
-13.4913

> <Gold.Chemscore.Internal_Hbond.Weighted>
0.0000

> <Gold.Chemscore.DEClash.Weighted>
0.0358

> <Gold.Chemscore.DEInternal.Weighted>
0.9029

> <Gold.Chemscore.Rot.Weighted>
7.1294

> <Gold.Chemscore.Internal.Correction.Weighted>
   9.000000E+99

> <Gold.Protein.RotatedTorsions>
[ 6907 6896 6895 6894 ] final   10.82 input  -60.11 | X-H torsion
[ 7974 7965 7964 7962 ] final   94.46 input  175.53 | X-H torsion
[ 8008 7997 7996 7995 ] final -171.82 input   59.86 | X-H torsion
[ 10167 10162 10161 10158 ] final   41.72 input  -65.29 | X-H torsion
[ 10718 10713 10712 10709 ] final  169.04 input   66.30 | X-H torsion
[ 10763 10752 10751 10750 ] final   21.88 input  -60.55 | X-H torsion
[ 11005 11000 10999 10996 ] final -156.62 input  -57.11 | X-H torsion

> <Gold.Protein.ActiveResidues>
 VAL166  LYS551  ARG553  GLY616  TRP617  ASP618  TYR619  PRO620  LYS621  CYS622 
 ASP623  PHE694  ASN695  SER759  ASP760  ASP761  ALA762  ILE779  LEU786  VAL792 
 PHE793  MET794  SER795  GLU796  ALA797  LYS798  CYS799  TRP800  GLU811  SER814 

> <Gold.Protein.RotatedAtoms>
  151.7444  135.0847  160.0320 H   0  0  0  0  0  0  0  0  0  0  0  0  # atno 6907 bound_to 6896
  152.3458  133.6116  159.5917 H   0  0  0  0  0  0  0  0  0  0  0  0  # atno 6908 bound_to 6896
  150.7508  133.9568  159.3544 H   0  0  0  0  0  0  0  0  0  0  0  0  # atno 6909 bound_to 6896
  145.4652  139.2284  143.2965 H   0  0  0  0  0  0  0  0  0  0  0  0  # atno 7974 bound_to 7965
  155.9366  140.1101  157.1090 H   0  0  0  0  0  0  0  0  0  0  0  0  # atno 8008 bound_to 7997
  154.4081  140.1227  156.4938 H   0  0  0  0  0  0  0  0  0  0  0  0  # atno 8009 bound_to 7997
  155.7014  140.3472  155.4937 H   0  0  0  0  0  0  0  0  0  0  0  0  # atno 8010 bound_to 7997
  140.3616  144.2222  150.6138 H   0  0  0  0  0  0  0  0  0  0  0  0  # atno 10167 bound_to 10162
  157.0284  131.0252  151.2752 H   0  0  0  0  0  0  0  0  0  0  0  0  # atno 10718 bound_to 10713
  153.0959  135.6659  153.9763 H   0  0  0  0  0  0  0  0  0  0  0  0  # atno 10763 bound_to 10752
  153.9347  135.3000  155.3446 H   0  0  0  0  0  0  0  0  0  0  0  0  # atno 10764 bound_to 10752
  154.7378  135.5093  153.9145 H   0  0  0  0  0  0  0  0  0  0  0  0  # atno 10765 bound_to 10752
  140.6735  134.4221  157.5230 H   0  0  0  0  0  0  0  0  0  0  0  0  # atno 11005 bound_to 11000
  146.2428  140.5425  142.8926 LP  0  0  0  0  0  0  0  0  0  0  0  0  # atno 17320 bound_to 7965
  144.7978  140.6156  143.6498 LP  0  0  0  0  0  0  0  0  0  0  0  0  # atno 17321 bound_to 7965
  140.5122  143.2287  151.8518 LP  0  0  0  0  0  0  0  0  0  0  0  0  # atno 17342 bound_to 10162
  139.4813  144.4936  151.9152 LP  0  0  0  0  0  0  0  0  0  0  0  0  # atno 17343 bound_to 10162
  157.5196  130.7990  149.7795 LP  0  0  0  0  0  0  0  0  0  0  0  0  # atno 17370 bound_to 10713
  156.0078  130.3847  150.2370 LP  0  0  0  0  0  0  0  0  0  0  0  0  # atno 17371 bound_to 10713
  139.8974  134.8638  156.2046 LP  0  0  0  0  0  0  0  0  0  0  0  0  # atno 17394 bound_to 11000
  141.0373  133.6956  156.1535 LP  0  0  0  0  0  0  0  0  0  0  0  0  # atno 17395 bound_to 11000

$$$$
