AV-unprocessed.smi:1012|AV-procd|sdf|4424|dock10
  -GOLD-   22720 2373D 1   1.00000     0.00000
 Structure written by MMmdl.
 44 46  0  0  0  0  0  0  0  0  2 V2000
  153.7661  138.3249  158.8683 C   0  0  0  0  0  0  0  0  0  0  0  0
  153.1104  139.3099  158.0829 O   0  0  0  0  0  0  0  0  0  0  0  0
  152.8105  140.5254  158.6649 C   0  0  0  0  0  0  0  0  0  0  0  0
  153.4031  140.9747  159.8736 C   0  0  0  0  0  0  0  0  0  0  0  0
  153.0598  142.2249  160.4217 C   0  0  0  0  0  0  0  0  0  0  0  0
  152.1215  143.0456  159.7730 C   0  0  0  0  0  0  0  0  0  0  0  0
  151.5268  142.6127  158.5748 C   0  0  0  0  0  0  0  0  0  0  0  0
  151.8627  141.3598  158.0198 C   0  0  0  0  0  0  0  0  0  0  0  0
  151.1971  140.9479  156.7167 C   0  0  0  0  0  0  0  0  0  0  0  0
  149.8341  141.3384  156.6870 O   0  0  0  0  0  0  0  0  0  0  0  0
  149.4969  142.0674  155.5185 C   0  0  0  0  0  0  0  0  0  0  0  0
  148.8152  141.1218  154.5200 C   0  0  2  0  0  0  0  0  0  0  0  0
  149.7355  140.8024  153.4954 O   0  0  0  0  0  0  0  0  0  0  0  0
  147.5429  141.7344  153.9014 C   0  0  0  0  0  0  0  0  0  0  0  0
  146.5756  142.1735  154.9154 N   0  0  0  0  0  0  0  0  0  0  0  0
  146.3481  141.7048  156.1723 C   0  0  0  0  0  0  0  0  0  0  0  0
  145.3494  142.4549  156.7156 N   0  3  0  0  0  0  0  0  0  0  0  0
  144.9326  143.4161  155.7916 C   0  0  0  0  0  0  0  0  0  0  0  0
  143.9562  144.4030  155.8783 C   0  0  0  0  0  0  0  0  0  0  0  0
  143.7830  145.2267  154.7461 C   0  0  0  0  0  0  0  0  0  0  0  0
  142.8462  146.2038  154.7777 F   0  0  0  0  0  0  0  0  0  0  0  0
  144.5655  145.0523  153.5846 C   0  0  0  0  0  0  0  0  0  0  0  0
  144.3668  145.8654  152.5202 F   0  0  0  0  0  0  0  0  0  0  0  0
  145.5526  144.0476  153.5083 C   0  0  0  0  0  0  0  0  0  0  0  0
  145.7162  143.2396  154.6323 C   0  0  0  0  0  0  0  0  0  0  0  0
  153.9239  137.4318  158.2641 H   0  0  0  0  0  0  0  0  0  0  0  0
  153.1643  138.0359  159.7311 H   0  0  0  0  0  0  0  0  0  0  0  0
  154.7438  138.6702  159.2069 H   0  0  0  0  0  0  0  0  0  0  0  0
  154.1288  140.3774  160.4040 H   0  0  0  0  0  0  0  0  0  0  0  0
  153.5192  142.5545  161.3419 H   0  0  0  0  0  0  0  0  0  0  0  0
  151.8594  144.0059  160.1923 H   0  0  0  0  0  0  0  0  0  0  0  0
  150.8076  143.2477  158.0782 H   0  0  0  0  0  0  0  0  0  0  0  0
  151.7340  141.4287  155.8973 H   0  0  0  0  0  0  0  0  0  0  0  0
  151.2717  139.8729  156.5528 H   0  0  0  0  0  0  0  0  0  0  0  0
  148.8406  142.9041  155.7641 H   0  0  0  0  0  0  0  0  0  0  0  0
  150.4063  142.4809  155.0788 H   0  0  0  0  0  0  0  0  0  0  0  0
  148.5651  140.1923  155.0326 H   0  0  0  0  0  0  0  0  0  0  0  0
  150.2021  140.0195  153.7451 H   0  0  0  0  0  0  0  0  0  0  0  0
  147.7855  142.5880  153.2670 H   0  0  0  0  0  0  0  0  0  0  0  0
  147.0419  141.0067  153.2613 H   0  0  0  0  0  0  0  0  0  0  0  0
  146.8691  140.8893  156.6534 H   0  0  0  0  0  0  0  0  0  0  0  0
  143.3560  144.5406  156.7655 H   0  0  0  0  0  0  0  0  0  0  0  0
  146.1486  143.9230  152.6162 H   0  0  0  0  0  0  0  0  0  0  0  0
  144.9842  142.3201  157.6499 H   0  0  0  0  0  0  0  0  0  0  0  0
  1  2  1  0  0  0  0
  1 26  1  0  0  0  0
  1 27  1  0  0  0  0
  1 28  1  0  0  0  0
  2  3  1  0  0  0  0
  3  8  1  0  0  0  0
  3  4  2  0  0  0  0
  4  5  1  0  0  0  0
  4 29  1  0  0  0  0
  5  6  2  0  0  0  0
  5 30  1  0  0  0  0
  6  7  1  0  0  0  0
  6 31  1  0  0  0  0
  7  8  2  0  0  0  0
  7 32  1  0  0  0  0
  8  9  1  0  0  0  0
  9 10  1  0  0  0  0
  9 33  1  0  0  0  0
  9 34  1  0  0  0  0
 10 11  1  0  0  0  0
 11 12  1  0  0  0  0
 11 35  1  0  0  0  0
 11 36  1  0  0  0  0
 12 13  1  0  0  0  0
 12 14  1  0  0  0  0
 12 37  1  0  0  0  0
 13 38  1  0  0  0  0
 14 15  1  0  0  0  0
 14 39  1  0  0  0  0
 14 40  1  0  0  0  0
 15 25  1  0  0  0  0
 15 16  1  0  0  0  0
 16 17  2  0  0  0  0
 16 41  1  0  0  0  0
 17 18  1  0  0  0  0
 17 44  1  0  0  0  0
 18 25  2  0  0  0  0
 18 19  1  0  0  0  0
 19 20  2  0  0  0  0
 19 42  1  0  0  0  0
 20 21  1  0  0  0  0
 20 22  1  0  0  0  0
 22 23  1  0  0  0  0
 22 24  2  0  0  0  0
 24 25  1  0  0  0  0
 24 43  1  0  0  0  0
M  CHG  1  17   1
M  END
> <s_m_source_file>
AV-unprocessed.smi

> <i_m_source_file_index>
1012

> <i_lp_mmshare_version>
43012

> <i_f3d_flags>
0

> <s_epik_input>
W0NIM11PYzFbY0hdW2NIXVtjSF1bY0hdYzFbQ0gyXU9bQ0gyXVtDQEhdKFtPSF0pW0NIMl1uKFtjSF1uMiljKGMyMylbY0hdYyhGKWMoRilbY0hdMw==

> <s_epik_cmdline>
J2VwaWtfcHl0aG9uJywgJy1waCcsICc3LjAnLCAnLXRuJywgJzgnLCAnLW1hJywgJzIwMCcsICctbWV0YWxfYmluZGluZycsICctaW1hZScsICc8aW5maWxlLm1hZT4nLCAnLW9tYWUnLCAnPG91dGZpbGUubWFlPic=

> <r_lp_tautomer_probability>
1

> <r_epik_Ionization_Penalty>
2.14697

> <r_epik_Ionization_Penalty_Charging>
2.14697

> <r_epik_Ionization_Penalty_Neutral>
1.07667e-06

> <r_epik_State_Penalty>
2.28651

> <r_epik_Charging_Adjusted_Penalty>
4.43348

> <i_epik_Tot_Q>
1

> <i_epik_Tot_abs_Q>
1

> <r_epik_Metal_State_Penalty>
6.36664

> <b_epik_Metal_Only>
0

> <s_lp_Force_Field>
OPLS_2005

> <r_lp_Energy>
22.239

> <b_lp_Chiralities_Consistent>
1

> <s_lp_Variant>
AV-unprocessed.smi:1012-3

> <Gold.Version>
5.8.1

> <Gold.Id.Protein>
6NUR|6NUR_protein|mol2

> <Gold.PLP.Fitness>
54.0416

> <Gold.PLP.PLP>
-52.3670

> <Gold.PLP.part.hbond>
-3.5697

> <Gold.PLP.part.metal>
0.0000

> <Gold.PLP.part.buried>
1.7702

> <Gold.PLP.part.nonpolar>
-49.6374

> <Gold.PLP.part.repulsive>
0.0896

> <Gold.PLP.ligand.clash>
0.0000

> <Gold.PLP.ligand.torsion>
2.1831

> <Gold.PLP.Chemscore.Hbond>
2.0000

> <Gold.PLP.Chemscore.CHOScore>
0.0000

> <Gold.PLP.Chemscore.Metal>
0.0000

> <Gold.Chemscore.Hbonds>
donor molecule, donor type, donor heavy atom, donor atom, acceptor molecule, acceptor atom, score
      P1  H  7997  8008       L1     2  0.75
      P1  H  8011  8017       L1    13  1.00

> <Gold.PLP.Chemscore.Internal.Correction>
0.0408

> <Gold.Rescore>
     Score         DG    S(hbond)    S(metal)    S(lipo)     H(rot)  DE(clash)    DE(int)     intcor
     11.05     -16.00       0.75        0.00     134.68       3.03       2.92       2.02       ----

> <Gold.Chemscore.Fitness>
11.0517

> <Gold.Chemscore.DG>
-15.9952

> <Gold.Chemscore.ZeroCoef>
-5.4800

> <Gold.Chemscore.Hbond>
0.7511

> <Gold.Chemscore.Metal>
0.0000

> <Gold.Chemscore.Lipo>
134.6802

> <Gold.Chemscore.Internal_Hbond>
0.0000

> <Gold.Chemscore.DEClash>
2.9238

> <Gold.Chemscore.DEInternal>
2.0197

> <Gold.Chemscore.Rot>
3.0278

> <Gold.Chemscore.Internal.Correction>
   9.000000E+99

> <Gold.Chemscore.Hbonds>
donor molecule, donor type, donor heavy atom, donor atom, acceptor molecule, acceptor atom, score
      P1  H  7997  8008       L1     2  0.06
      P1  H  8011  8017       L1    13  0.53

> <Gold.Chemscore.Hbond.Weighted>
-2.5088

> <Gold.Chemscore.Metal.Weighted>
-0.0000

> <Gold.Chemscore.Lipo.Weighted>
-15.7576

> <Gold.Chemscore.Internal_Hbond.Weighted>
0.0000

> <Gold.Chemscore.DEClash.Weighted>
2.9238

> <Gold.Chemscore.DEInternal.Weighted>
2.0197

> <Gold.Chemscore.Rot.Weighted>
7.7512

> <Gold.Chemscore.Internal.Correction.Weighted>
   9.000000E+99

> <Gold.Protein.RotatedTorsions>
[ 6907 6896 6895 6894 ] final  106.02 input  -60.11 | X-H torsion
[ 7974 7965 7964 7962 ] final  -51.33 input  175.53 | X-H torsion
[ 8008 7997 7996 7995 ] final  -69.95 input   59.86 | X-H torsion
[ 10167 10162 10161 10158 ] final   49.00 input  -65.29 | X-H torsion
[ 10718 10713 10712 10709 ] final  -15.02 input   66.30 | X-H torsion
[ 10763 10752 10751 10750 ] final  163.11 input  -60.55 | X-H torsion
[ 11005 11000 10999 10996 ] final  -23.18 input  -57.11 | X-H torsion

> <Gold.Protein.ActiveResidues>
 VAL166  LYS551  ARG553  GLY616  TRP617  ASP618  TYR619  PRO620  LYS621  CYS622 
 ASP623  PHE694  ASN695  SER759  ASP760  ASP761  ALA762  ILE779  LEU786  VAL792 
 PHE793  MET794  SER795  GLU796  ALA797  LYS798  CYS799  TRP800  GLU811  SER814 

> <Gold.Protein.RotatedAtoms>
  152.5209  133.9442  159.7640 H   0  0  0  0  0  0  0  0  0  0  0  0  # atno 6907 bound_to 6896
  150.9766  133.6280  159.2736 H   0  0  0  0  0  0  0  0  0  0  0  0  # atno 6908 bound_to 6896
  151.3473  135.0882  159.9444 H   0  0  0  0  0  0  0  0  0  0  0  0  # atno 6909 bound_to 6896
  145.9202  140.7840  142.9651 H   0  0  0  0  0  0  0  0  0  0  0  0  # atno 7974 bound_to 7965
  154.4976  140.0843  156.7729 H   0  0  0  0  0  0  0  0  0  0  0  0  # atno 8008 bound_to 7997
  155.4080  140.3440  155.4243 H   0  0  0  0  0  0  0  0  0  0  0  0  # atno 8009 bound_to 7997
  156.1414  140.1530  156.8902 H   0  0  0  0  0  0  0  0  0  0  0  0  # atno 8010 bound_to 7997
  140.2874  144.3086  150.6249 H   0  0  0  0  0  0  0  0  0  0  0  0  # atno 10167 bound_to 10162
  156.6076  130.4841  149.6214 H   0  0  0  0  0  0  0  0  0  0  0  0  # atno 10718 bound_to 10713
  154.2886  135.2761  155.2665 H   0  0  0  0  0  0  0  0  0  0  0  0  # atno 10763 bound_to 10752
  154.5154  135.5771  153.6641 H   0  0  0  0  0  0  0  0  0  0  0  0  # atno 10764 bound_to 10752
  152.9918  135.6191  154.3049 H   0  0  0  0  0  0  0  0  0  0  0  0  # atno 10765 bound_to 10752
  140.8727  133.7709  156.0206 H   0  0  0  0  0  0  0  0  0  0  0  0  # atno 11005 bound_to 11000
  144.6752  140.1963  143.7391 LP  0  0  0  0  0  0  0  0  0  0  0  0  # atno 17320 bound_to 7965
  145.8560  139.2199  143.1744 LP  0  0  0  0  0  0  0  0  0  0  0  0  # atno 17321 bound_to 7965
  140.5761  143.2176  151.7513 LP  0  0  0  0  0  0  0  0  0  0  0  0  # atno 17342 bound_to 10162
  139.4947  144.4147  152.0042 LP  0  0  0  0  0  0  0  0  0  0  0  0  # atno 17343 bound_to 10162
  156.2416  130.6854  151.1561 LP  0  0  0  0  0  0  0  0  0  0  0  0  # atno 17370 bound_to 10713
  157.7263  131.0647  150.5917 LP  0  0  0  0  0  0  0  0  0  0  0  0  # atno 17371 bound_to 10713
  140.8554  134.2904  157.5257 LP  0  0  0  0  0  0  0  0  0  0  0  0  # atno 17394 bound_to 11000
  139.8713  134.9490  156.4012 LP  0  0  0  0  0  0  0  0  0  0  0  0  # atno 17395 bound_to 11000

$$$$
