AV-unprocessed.smi:185|AV-procd|sdf|1465|dock8
  -GOLD-   2262019273D 1   1.00000     0.00000
 Structure written by MMmdl.
 53 56  0  0  0  0  0  0  0  0  1 V2000
  151.9322  139.6129  155.4236 C   0  0  0  0  0  0  0  0  0  0  0  0
  151.2635  139.8165  156.7064 N   0  0  0  0  0  0  0  0  0  0  0  0
  151.2243  141.1866  157.2156 C   0  0  0  0  0  0  0  0  0  0  0  0
  152.4350  141.5245  158.1076 C   0  0  0  0  0  0  0  0  0  0  0  0
  152.3117  142.8593  158.6841 N   0  0  0  0  0  0  0  0  0  0  0  0
  152.5228  143.0808  160.1047 C   0  0  0  0  0  0  0  0  0  0  0  0
  152.0897  144.5335  160.3512 C   0  0  0  0  0  0  0  0  0  0  0  0
  151.9518  145.1711  158.9641 C   0  0  0  0  0  0  0  0  0  0  0  0
  151.9913  143.9787  158.0236 C   0  0  0  0  0  0  0  0  0  0  0  0
  151.7527  144.0697  156.8197 O   0  0  0  0  0  0  0  0  0  0  0  0
  151.3034  138.8042  157.6200 C   0  0  0  0  0  0  0  0  0  0  0  0
  152.4873  138.5040  158.2210 N   0  0  0  0  0  0  0  0  0  0  0  0
  152.5594  137.5500  159.1529 C   0  0  0  0  0  0  0  0  0  0  0  0
  151.5833  136.7815  159.6352 N   0  0  0  0  0  0  0  0  0  0  0  0
  150.3932  137.0610  159.0323 C   0  0  0  0  0  0  0  0  0  0  0  0
  150.1668  138.0354  158.0168 C   0  0  0  0  0  0  0  0  0  0  0  0
  148.8303  137.9986  157.6327 N   0  0  0  0  0  0  0  0  0  0  0  0
  148.2955  137.0849  158.3931 C   0  0  0  0  0  0  0  0  0  0  0  0
  149.1601  136.4814  159.2757 N   0  0  0  0  0  0  0  0  0  0  0  0
  148.8306  135.4495  160.2468 C   0  0  0  0  0  0  0  0  0  0  0  0
  147.6240  135.8045  161.1524 C   0  0  0  0  0  0  0  0  0  0  0  0
  147.8493  137.0970  161.6878 O   0  0  0  0  0  0  0  0  0  0  0  0
  146.2849  135.8261  160.3816 C   0  0  0  0  0  0  0  0  0  0  0  0
  145.0758  135.9687  161.3231 C   0  0  0  0  0  0  0  0  0  0  0  0
  145.0962  134.9415  162.3067 O   0  0  0  0  0  0  0  0  0  0  0  0
  146.2387  135.0126  163.1510 C   0  0  0  0  0  0  0  0  0  0  0  0
  147.5196  134.8060  162.3228 C   0  0  0  0  0  0  0  0  0  0  0  0
  151.6070  138.6813  154.9587 H   0  0  0  0  0  0  0  0  0  0  0  0
  153.0151  139.5808  155.5506 H   0  0  0  0  0  0  0  0  0  0  0  0
  151.6974  140.4237  154.7336 H   0  0  0  0  0  0  0  0  0  0  0  0
  151.2070  141.8736  156.3690 H   0  0  0  0  0  0  0  0  0  0  0  0
  150.2902  141.3734  157.7393 H   0  0  0  0  0  0  0  0  0  0  0  0
  152.5254  140.8067  158.9244 H   0  0  0  0  0  0  0  0  0  0  0  0
  153.3584  141.4492  157.5322 H   0  0  0  0  0  0  0  0  0  0  0  0
  151.9440  142.3808  160.7084 H   0  0  0  0  0  0  0  0  0  0  0  0
  153.5794  142.9413  160.3371 H   0  0  0  0  0  0  0  0  0  0  0  0
  151.1279  144.5555  160.8655 H   0  0  0  0  0  0  0  0  0  0  0  0
  152.8068  145.0672  160.9759 H   0  0  0  0  0  0  0  0  0  0  0  0
  151.0233  145.7330  158.8579 H   0  0  0  0  0  0  0  0  0  0  0  0
  152.7901  145.8329  158.7449 H   0  0  0  0  0  0  0  0  0  0  0  0
  153.5381  137.3844  159.5782 H   0  0  0  0  0  0  0  0  0  0  0  0
  147.2464  136.8334  158.3383 H   0  0  0  0  0  0  0  0  0  0  0  0
  148.6258  134.5294  159.6978 H   0  0  0  0  0  0  0  0  0  0  0  0
  149.7161  135.2496  160.8520 H   0  0  0  0  0  0  0  0  0  0  0  0
  147.4831  137.1303  162.5582 H   0  0  0  0  0  0  0  0  0  0  0  0
  146.2693  136.6331  159.6477 H   0  0  0  0  0  0  0  0  0  0  0  0
  146.1793  134.8974  159.8194 H   0  0  0  0  0  0  0  0  0  0  0  0
  145.0656  136.9482  161.8036 H   0  0  0  0  0  0  0  0  0  0  0  0
  144.1501  135.8892  160.7531 H   0  0  0  0  0  0  0  0  0  0  0  0
  146.2588  135.9681  163.6772 H   0  0  0  0  0  0  0  0  0  0  0  0
  146.1592  134.2364  163.9123 H   0  0  0  0  0  0  0  0  0  0  0  0
  147.5136  133.7885  161.9294 H   0  0  0  0  0  0  0  0  0  0  0  0
  148.3969  134.8785  162.9671 H   0  0  0  0  0  0  0  0  0  0  0  0
  1  2  1  0  0  0  0
  1 28  1  0  0  0  0
  1 29  1  0  0  0  0
  1 30  1  0  0  0  0
  2  3  1  0  0  0  0
  2 11  1  0  0  0  0
  3  4  1  0  0  0  0
  3 31  1  0  0  0  0
  3 32  1  0  0  0  0
  4  5  1  0  0  0  0
  4 33  1  0  0  0  0
  4 34  1  0  0  0  0
  5  9  1  0  0  0  0
  5  6  1  0  0  0  0
  6  7  1  0  0  0  0
  6 35  1  0  0  0  0
  6 36  1  0  0  0  0
  7  8  1  0  0  0  0
  7 37  1  0  0  0  0
  7 38  1  0  0  0  0
  8  9  1  0  0  0  0
  8 39  1  0  0  0  0
  8 40  1  0  0  0  0
  9 10  2  0  0  0  0
 11 16  1  0  0  0  0
 11 12  2  0  0  0  0
 12 13  1  0  0  0  0
 13 14  2  0  0  0  0
 13 41  1  0  0  0  0
 14 15  1  0  0  0  0
 15 19  1  0  0  0  0
 15 16  2  0  0  0  0
 16 17  1  0  0  0  0
 17 18  2  0  0  0  0
 18 19  1  0  0  0  0
 18 42  1  0  0  0  0
 19 20  1  0  0  0  0
 20 21  1  0  0  0  0
 20 43  1  0  0  0  0
 20 44  1  0  0  0  0
 21 27  1  0  0  0  0
 21 22  1  0  0  0  0
 21 23  1  0  0  0  0
 22 45  1  0  0  0  0
 23 24  1  0  0  0  0
 23 46  1  0  0  0  0
 23 47  1  0  0  0  0
 24 25  1  0  0  0  0
 24 48  1  0  0  0  0
 24 49  1  0  0  0  0
 25 26  1  0  0  0  0
 26 27  1  0  0  0  0
 26 50  1  0  0  0  0
 26 51  1  0  0  0  0
 27 52  1  0  0  0  0
 27 53  1  0  0  0  0
M  END
> <s_m_source_file>
AV-unprocessed.smi

> <i_m_source_file_index>
185

> <i_lp_mmshare_version>
43012

> <i_f3d_flags>
0

> <s_epik_input>
Tz1DMVtDSDJdW0NIMl1bQ0gyXU4xW0NIMl1bQ0gyXU4oW0NIM10pYyhuW2NIXW4yKWMoYzIzKW5bY0hdbjNbQ0gyXUM0KFtPSF0pW0NIMl1bQ0gyXU9bQ0gyXVtDSDJdNA==

> <s_epik_cmdline>
J2VwaWtfcHl0aG9uJywgJy1waCcsICc3LjAnLCAnLXRuJywgJzgnLCAnLW1hJywgJzIwMCcsICctbWV0YWxfYmluZGluZycsICctaW1hZScsICc8aW5maWxlLm1hZT4nLCAnLW9tYWUnLCAnPG91dGZpbGUubWFlPic=

> <r_lp_tautomer_probability>
1

> <r_epik_Ionization_Penalty>
0.00150291

> <r_epik_Ionization_Penalty_Charging>
0

> <r_epik_Ionization_Penalty_Neutral>
0.00150291

> <r_epik_State_Penalty>
0.000836254

> <r_epik_Charging_Adjusted_Penalty>
0.000836254

> <i_epik_Tot_Q>
0

> <i_epik_Tot_abs_Q>
0

> <r_epik_Metal_State_Penalty>
-0

> <b_epik_Metal_Only>
0

> <s_lp_Force_Field>
OPLS_2005

> <r_lp_Energy>
31.6945

> <b_lp_Chiralities_Consistent>
1

> <s_lp_Variant>
AV-unprocessed.smi:185-1

> <Gold.Version>
5.8.1

> <Gold.Id.Protein>
6NUR|6NUR_protein|mol2

> <Gold.PLP.Fitness>
56.4802

> <Gold.PLP.PLP>
-51.1133

> <Gold.PLP.part.hbond>
-3.0000

> <Gold.PLP.part.metal>
0.0000

> <Gold.PLP.part.buried>
-6.4927

> <Gold.PLP.part.nonpolar>
-41.5080

> <Gold.PLP.part.repulsive>
0.1378

> <Gold.PLP.ligand.clash>
0.0000

> <Gold.PLP.ligand.torsion>
1.8403

> <Gold.PLP.Chemscore.Hbond>
2.8080

> <Gold.PLP.Chemscore.CHOScore>
0.0000

> <Gold.PLP.Chemscore.Metal>
0.0000

> <Gold.Chemscore.Hbonds>
donor molecule, donor type, donor heavy atom, donor atom, acceptor molecule, acceptor atom, score
      P1  H  6896  6907       L1    14  0.51
      P1  H  6931  6943       L1    22  0.85
      P1  H  6934  6947       L1    22  0.43

> <Gold.PLP.Chemscore.Internal.Correction>
0.6234

> <Gold.Rescore>
     Score         DG    S(hbond)    S(metal)    S(lipo)     H(rot)  DE(clash)    DE(int)     intcor
     12.56     -15.34       1.89        0.00      90.08       2.73       0.05       2.74       ----

> <Gold.Chemscore.Fitness>
12.5573

> <Gold.Chemscore.DG>
-15.3417

> <Gold.Chemscore.ZeroCoef>
-5.4800

> <Gold.Chemscore.Hbond>
1.8910

> <Gold.Chemscore.Metal>
0.0000

> <Gold.Chemscore.Lipo>
90.0761

> <Gold.Chemscore.Internal_Hbond>
0.0000

> <Gold.Chemscore.DEClash>
0.0456

> <Gold.Chemscore.DEInternal>
2.7388

> <Gold.Chemscore.Rot>
2.7318

> <Gold.Chemscore.Internal.Correction>
   9.000000E+99

> <Gold.Chemscore.Hbonds>
donor molecule, donor type, donor heavy atom, donor atom, acceptor molecule, acceptor atom, score
      P1  H  6896  6907       L1    14  0.04
      P1  H  6931  6943       L1    22  0.14
      P1  H  6934  6947       L1    22  0.10

> <Gold.Chemscore.Hbond.Weighted>
-6.3160

> <Gold.Chemscore.Metal.Weighted>
-0.0000

> <Gold.Chemscore.Lipo.Weighted>
-10.5389

> <Gold.Chemscore.Internal_Hbond.Weighted>
0.0000

> <Gold.Chemscore.DEClash.Weighted>
0.0456

> <Gold.Chemscore.DEInternal.Weighted>
2.7388

> <Gold.Chemscore.Rot.Weighted>
6.9933

> <Gold.Chemscore.Internal.Correction.Weighted>
   9.000000E+99

> <Gold.Protein.RotatedTorsions>
[ 6907 6896 6895 6894 ] final  -28.32 input  -60.11 | X-H torsion
[ 7974 7965 7964 7962 ] final   48.39 input  175.53 | X-H torsion
[ 8008 7997 7996 7995 ] final   -8.40 input   59.86 | X-H torsion
[ 10167 10162 10161 10158 ] final -133.40 input  -65.29 | X-H torsion
[ 10718 10713 10712 10709 ] final  -11.73 input   66.30 | X-H torsion
[ 10763 10752 10751 10750 ] final  115.27 input  -60.55 | X-H torsion
[ 11005 11000 10999 10996 ] final  177.24 input  -57.11 | X-H torsion

> <Gold.Protein.ActiveResidues>
 VAL166  LYS551  ARG553  GLY616  TRP617  ASP618  TYR619  PRO620  LYS621  CYS622 
 ASP623  PHE694  ASN695  SER759  ASP760  ASP761  ALA762  ILE779  LEU786  VAL792 
 PHE793  MET794  SER795  GLU796  ALA797  LYS798  CYS799  TRP800  GLU811  SER814 

> <Gold.Protein.RotatedAtoms>
  151.1346  135.0148  159.8597 H   0  0  0  0  0  0  0  0  0  0  0  0  # atno 6907 bound_to 6896
  152.5451  134.1570  159.8552 H   0  0  0  0  0  0  0  0  0  0  0  0  # atno 6908 bound_to 6896
  151.1640  133.4781  159.2627 H   0  0  0  0  0  0  0  0  0  0  0  0  # atno 6909 bound_to 6896
  146.0209  139.4650  142.9898 H   0  0  0  0  0  0  0  0  0  0  0  0  # atno 7974 bound_to 7965
  154.5745  140.2382  155.8143 H   0  0  0  0  0  0  0  0  0  0  0  0  # atno 8008 bound_to 7997
  156.2132  140.3020  155.9737 H   0  0  0  0  0  0  0  0  0  0  0  0  # atno 8009 bound_to 7997
  155.2653  140.0416  157.2992 H   0  0  0  0  0  0  0  0  0  0  0  0  # atno 8010 bound_to 7997
  139.8987  143.6634  152.2599 H   0  0  0  0  0  0  0  0  0  0  0  0  # atno 10167 bound_to 10162
  156.6547  130.4965  149.6050 H   0  0  0  0  0  0  0  0  0  0  0  0  # atno 10718 bound_to 10713
  153.5197  135.3600  155.2626 H   0  0  0  0  0  0  0  0  0  0  0  0  # atno 10763 bound_to 10752
  154.8736  135.4042  154.3274 H   0  0  0  0  0  0  0  0  0  0  0  0  # atno 10764 bound_to 10752
  153.3942  135.7073  153.6539 H   0  0  0  0  0  0  0  0  0  0  0  0  # atno 10765 bound_to 10752
  140.3819  134.6939  157.4456 H   0  0  0  0  0  0  0  0  0  0  0  0  # atno 11005 bound_to 11000
  145.7195  141.0080  143.1410 LP  0  0  0  0  0  0  0  0  0  0  0  0  # atno 17320 bound_to 7965
  144.6989  139.8853  143.7450 LP  0  0  0  0  0  0  0  0  0  0  0  0  # atno 17321 bound_to 7965
  139.7045  144.7630  151.1217 LP  0  0  0  0  0  0  0  0  0  0  0  0  # atno 17342 bound_to 10162
  140.7711  143.5413  150.9309 LP  0  0  0  0  0  0  0  0  0  0  0  0  # atno 17343 bound_to 10162
  156.2057  130.6647  151.1215 LP  0  0  0  0  0  0  0  0  0  0  0  0  # atno 17370 bound_to 10713
  157.7129  131.0725  150.6434 LP  0  0  0  0  0  0  0  0  0  0  0  0  # atno 17371 bound_to 10713
  140.0472  134.6183  155.8907 LP  0  0  0  0  0  0  0  0  0  0  0  0  # atno 17394 bound_to 11000
  141.1920  133.6574  156.5484 LP  0  0  0  0  0  0  0  0  0  0  0  0  # atno 17395 bound_to 11000

$$$$
