AV-unprocessed.smi:1322|AV-procd|sdf|5464|dock6
  -GOLD-   22720 5 33D 1   1.00000     0.00000
 Structure written by MMmdl.
 32 33  0  0  0  0  0  0  0  0  1 V2000
  149.5474  141.4992  154.9205 C   0  0  0  0  0  0  0  0  0  0  0  0
  150.1719  141.3575  156.3210 C   0  0  1  0  0  0  0  0  0  0  0  0
  151.5048  140.5831  156.3169 C   0  0  0  0  0  0  0  0  0  0  0  0
  151.3527  139.2051  155.8852 N   0  0  0  0  0  0  0  0  0  0  0  0
  150.7682  138.1571  156.5647 C   0  0  0  0  0  0  0  0  0  0  0  0
  150.8572  137.0540  155.7648 C   0  0  0  0  0  0  0  0  0  0  0  0
  151.5236  137.5328  154.6022 C   0  0  0  0  0  0  0  0  0  0  0  0
  151.8210  138.8200  154.6781 N   0  0  0  0  0  0  0  0  0  0  0  0
  150.3883  142.6762  156.9106 N   0  0  0  0  0  0  0  0  0  0  0  0
  151.1098  142.9281  158.0136 C   0  0  0  0  0  0  0  0  0  0  0  0
  151.6772  142.0502  158.6651 O   0  0  0  0  0  0  0  0  0  0  0  0
  151.1976  144.4004  158.4368 C   0  0  0  0  0  0  0  0  0  0  0  0
  152.1135  144.6680  159.6444 C   0  0  0  0  0  0  0  0  0  0  0  0
  151.0313  145.5937  160.2080 C   0  0  0  0  0  0  0  0  0  0  0  0
  150.0203  144.8885  159.2991 C   0  0  0  0  0  0  0  0  0  0  0  0
  149.3112  140.5270  154.4880 H   0  0  0  0  0  0  0  0  0  0  0  0
  150.2235  142.0126  154.2361 H   0  0  0  0  0  0  0  0  0  0  0  0
  148.6173  142.0672  154.9582 H   0  0  0  0  0  0  0  0  0  0  0  0
  149.4718  140.8049  156.9507 H   0  0  0  0  0  0  0  0  0  0  0  0
  152.2305  141.0791  155.6695 H   0  0  0  0  0  0  0  0  0  0  0  0
  151.9373  140.5748  157.3184 H   0  0  0  0  0  0  0  0  0  0  0  0
  150.3410  138.2838  157.5486 H   0  0  0  0  0  0  0  0  0  0  0  0
  150.5008  136.0572  155.9778 H   0  0  0  0  0  0  0  0  0  0  0  0
  151.7985  136.9869  153.7117 H   0  0  0  0  0  0  0  0  0  0  0  0
  149.9562  143.4591  156.4418 H   0  0  0  0  0  0  0  0  0  0  0  0
  151.4063  145.0806  157.6084 H   0  0  0  0  0  0  0  0  0  0  0  0
  152.2921  143.7965  160.2767 H   0  0  0  0  0  0  0  0  0  0  0  0
  153.0460  145.1759  159.3973 H   0  0  0  0  0  0  0  0  0  0  0  0
  150.8429  145.4766  161.2755 H   0  0  0  0  0  0  0  0  0  0  0  0
  151.1868  146.6387  159.9354 H   0  0  0  0  0  0  0  0  0  0  0  0
  149.3383  145.5665  158.7855 H   0  0  0  0  0  0  0  0  0  0  0  0
  149.4773  144.0922  159.8117 H   0  0  0  0  0  0  0  0  0  0  0  0
  1  2  1  0  0  0  0
  1 16  1  0  0  0  0
  1 17  1  0  0  0  0
  1 18  1  0  0  0  0
  2  3  1  0  0  0  0
  2  9  1  0  0  0  0
  2 19  1  0  0  0  0
  3  4  1  0  0  0  0
  3 20  1  0  0  0  0
  3 21  1  0  0  0  0
  4  8  1  0  0  0  0
  4  5  1  0  0  0  0
  5  6  2  0  0  0  0
  5 22  1  0  0  0  0
  6  7  1  0  0  0  0
  6 23  1  0  0  0  0
  7  8  2  0  0  0  0
  7 24  1  0  0  0  0
  9 10  1  0  0  0  0
  9 25  1  0  0  0  0
 10 11  2  0  0  0  0
 10 12  1  0  0  0  0
 12 15  1  0  0  0  0
 12 13  1  0  0  0  0
 12 26  1  0  0  0  0
 13 14  1  0  0  0  0
 13 27  1  0  0  0  0
 13 28  1  0  0  0  0
 14 15  1  0  0  0  0
 14 29  1  0  0  0  0
 14 30  1  0  0  0  0
 15 31  1  0  0  0  0
 15 32  1  0  0  0  0
M  END
> <s_m_source_file>
AV-unprocessed.smi

> <i_m_source_file_index>
1322

> <i_lp_mmshare_version>
43012

> <i_f3d_flags>
0

> <s_epik_input>
W0NIMl0xW0NIMl1bQ0gyXVtDSF0xQyg9TylbTkhdW0NASF0oW0NIM10pW0NIMl1uMltjSF1bY0hdW2NIXW4y

> <s_epik_cmdline>
J2VwaWtfcHl0aG9uJywgJy1waCcsICc3LjAnLCAnLXRuJywgJzgnLCAnLW1hJywgJzIwMCcsICctbWV0YWxfYmluZGluZycsICctaW1hZScsICc8aW5maWxlLm1hZT4nLCAnLW9tYWUnLCAnPG91dGZpbGUubWFlPic=

> <r_lp_tautomer_probability>
1

> <r_epik_Ionization_Penalty>
0.000326653

> <r_epik_Ionization_Penalty_Charging>
0

> <r_epik_Ionization_Penalty_Neutral>
0.000326653

> <r_epik_State_Penalty>
-0

> <r_epik_Charging_Adjusted_Penalty>
0

> <i_epik_Tot_Q>
0

> <i_epik_Tot_abs_Q>
0

> <r_epik_Metal_State_Penalty>
-0

> <b_epik_Metal_Only>
0

> <s_lp_Force_Field>
OPLS_2005

> <r_lp_Energy>
10.775

> <b_lp_Chiralities_Consistent>
1

> <s_lp_Variant>
AV-unprocessed.smi:1322-2

> <Gold.Version>
5.8.1

> <Gold.Id.Protein>
6NUR|6NUR_protein|mol2

> <Gold.PLP.Fitness>
42.0053

> <Gold.PLP.PLP>
-33.9365

> <Gold.PLP.part.hbond>
-2.0000

> <Gold.PLP.part.metal>
0.0000

> <Gold.PLP.part.buried>
-3.3943

> <Gold.PLP.part.nonpolar>
-29.4815

> <Gold.PLP.part.repulsive>
0.1791

> <Gold.PLP.ligand.clash>
0.0000

> <Gold.PLP.ligand.torsion>
0.6748

> <Gold.PLP.Chemscore.Hbond>
2.0000

> <Gold.PLP.Chemscore.CHOScore>
1.0000

> <Gold.PLP.Chemscore.Metal>
0.0000

> <Gold.Chemscore.Hbonds>
donor molecule, donor type, donor heavy atom, donor atom, acceptor molecule, acceptor atom, score
      L1  H     9    25       P1  8028  1.00
      P1  H  7989  7998       L1     8  0.18
      L1  C     7    24       P1  7949  1.00

> <Gold.PLP.Chemscore.Internal.Correction>
0.4184

> <Gold.Rescore>
     Score         DG    S(hbond)    S(metal)    S(lipo)     H(rot)  DE(clash)    DE(int)     intcor
     13.98     -15.76       1.38        0.00      82.31       1.55       0.14       1.64       ----

> <Gold.Chemscore.Fitness>
13.9817

> <Gold.Chemscore.DG>
-15.7591

> <Gold.Chemscore.ZeroCoef>
-5.4800

> <Gold.Chemscore.Hbond>
1.3802

> <Gold.Chemscore.Metal>
0.0000

> <Gold.Chemscore.Lipo>
82.3077

> <Gold.Chemscore.Internal_Hbond>
0.0000

> <Gold.Chemscore.DEClash>
0.1379

> <Gold.Chemscore.DEInternal>
1.6395

> <Gold.Chemscore.Rot>
1.5471

> <Gold.Chemscore.Internal.Correction>
   9.000000E+99

> <Gold.Chemscore.Hbonds>
donor molecule, donor type, donor heavy atom, donor atom, acceptor molecule, acceptor atom, score
      L1  H     9    25       P1  8028  1.00
      P1  H  7989  7998       L1     8  0.05

> <Gold.Chemscore.Hbond.Weighted>
-4.6098

> <Gold.Chemscore.Metal.Weighted>
-0.0000

> <Gold.Chemscore.Lipo.Weighted>
-9.6300

> <Gold.Chemscore.Internal_Hbond.Weighted>
0.0000

> <Gold.Chemscore.DEClash.Weighted>
0.1379

> <Gold.Chemscore.DEInternal.Weighted>
1.6395

> <Gold.Chemscore.Rot.Weighted>
3.9606

> <Gold.Chemscore.Internal.Correction.Weighted>
   9.000000E+99

> <Gold.Protein.RotatedTorsions>
[ 6907 6896 6895 6894 ] final  -16.87 input  -60.11 | X-H torsion
[ 7974 7965 7964 7962 ] final  152.17 input  175.53 | X-H torsion
[ 8008 7997 7996 7995 ] final    9.94 input   59.86 | X-H torsion
[ 10167 10162 10161 10158 ] final  -22.66 input  -65.29 | X-H torsion
[ 10718 10713 10712 10709 ] final  -33.55 input   66.30 | X-H torsion
[ 10763 10752 10751 10750 ] final  107.74 input  -60.55 | X-H torsion
[ 11005 11000 10999 10996 ] final  162.23 input  -57.11 | X-H torsion

> <Gold.Protein.ActiveResidues>
 VAL166  LYS551  ARG553  GLY616  TRP617  ASP618  TYR619  PRO620  LYS621  CYS622 
 ASP623  PHE694  ASN695  SER759  ASP760  ASP761  ALA762  ILE779  LEU786  VAL792 
 PHE793  MET794  SER795  GLU796  ALA797  LYS798  CYS799  TRP800  GLU811  SER814 

> <Gold.Protein.RotatedAtoms>
  151.3019  135.0771  159.9241 H   0  0  0  0  0  0  0  0  0  0  0  0  # atno 6907 bound_to 6896
  152.5296  133.9824  159.7823 H   0  0  0  0  0  0  0  0  0  0  0  0  # atno 6908 bound_to 6896
  151.0112  133.5912  159.2713 H   0  0  0  0  0  0  0  0  0  0  0  0  # atno 6909 bound_to 6896
  144.8241  139.6634  143.6088 H   0  0  0  0  0  0  0  0  0  0  0  0  # atno 7974 bound_to 7965
  154.7868  140.2828  155.6022 H   0  0  0  0  0  0  0  0  0  0  0  0  # atno 8008 bound_to 7997
  156.2958  140.2612  156.2634 H   0  0  0  0  0  0  0  0  0  0  0  0  # atno 8009 bound_to 7997
  154.9718  140.0376  157.2228 H   0  0  0  0  0  0  0  0  0  0  0  0  # atno 8010 bound_to 7997
  140.7286  143.4514  151.0511 H   0  0  0  0  0  0  0  0  0  0  0  0  # atno 10167 bound_to 10162
  156.3613  130.4324  149.7621 H   0  0  0  0  0  0  0  0  0  0  0  0  # atno 10718 bound_to 10713
  153.4109  135.3834  155.2049 H   0  0  0  0  0  0  0  0  0  0  0  0  # atno 10763 bound_to 10752
  154.8737  135.3794  154.4502 H   0  0  0  0  0  0  0  0  0  0  0  0  # atno 10764 bound_to 10752
  153.5010  135.7088  153.5894 H   0  0  0  0  0  0  0  0  0  0  0  0  # atno 10765 bound_to 10752
  140.2236  134.8177  157.3246 H   0  0  0  0  0  0  0  0  0  0  0  0  # atno 11005 bound_to 11000
  146.2546  139.6274  142.9403 LP  0  0  0  0  0  0  0  0  0  0  0  0  # atno 17320 bound_to 7965
  145.5040  141.0437  143.2525 LP  0  0  0  0  0  0  0  0  0  0  0  0  # atno 17321 bound_to 7965
  139.8191  143.7845  152.3176 LP  0  0  0  0  0  0  0  0  0  0  0  0  # atno 17342 bound_to 10162
  139.7921  144.7406  150.9940 LP  0  0  0  0  0  0  0  0  0  0  0  0  # atno 17343 bound_to 10162
  156.4784  130.8029  151.3045 LP  0  0  0  0  0  0  0  0  0  0  0  0  # atno 17370 bound_to 10713
  157.7474  131.0013  150.2960 LP  0  0  0  0  0  0  0  0  0  0  0  0  # atno 17371 bound_to 10713
  140.1823  134.4474  155.7764 LP  0  0  0  0  0  0  0  0  0  0  0  0  # atno 17394 bound_to 11000
  141.2222  133.6989  156.7889 LP  0  0  0  0  0  0  0  0  0  0  0  0  # atno 17395 bound_to 11000

$$$$
