AV-unprocessed.smi:3351|AV-procd|sdf|12948|dock4
  -GOLD-   2272019383D 1   1.00000     0.00000
 Structure written by MMmdl.
 35 36  0  0  0  0  0  0  0  0  2 V2000
  146.4624  130.2544  153.8843 C   0  0  0  0  0  0  0  0  0  0  0  0
  146.1368  130.4318  152.3923 C   0  0  1  0  0  0  0  0  0  0  0  0
  146.2405  131.8981  151.9192 C   0  0  0  0  0  0  0  0  0  0  0  0
  145.1930  132.2618  150.9601 N   0  0  0  0  0  0  0  0  0  0  0  0
  145.3101  132.3371  149.5959 C   0  0  0  0  0  0  0  0  0  0  0  0
  144.0815  132.7145  149.1184 C   0  0  0  0  0  0  0  0  0  0  0  0
  143.2685  132.8583  150.2107 N   0  3  0  0  0  0  0  0  0  0  0  0
  143.9471  132.5865  151.3302 C   0  0  0  0  0  0  0  0  0  0  0  0
  147.0245  129.5819  151.6041 N   0  0  0  0  0  0  0  0  0  0  0  0
  147.1547  128.2538  151.7473 C   0  0  0  0  0  0  0  0  0  0  0  0
  146.4980  127.5954  152.5552 O   0  0  0  0  0  0  0  0  0  0  0  0
  148.1616  127.5689  150.8145 C   0  0  0  0  0  0  0  0  0  0  0  0
  148.2761  126.1298  151.0590 N   0  0  0  0  0  0  0  0  0  0  0  0
  148.0254  125.1975  149.9668 C   0  0  0  0  0  0  0  0  0  0  0  0
  148.5392  123.8210  150.3945 C   0  0  0  0  0  0  0  0  0  0  0  0
  148.5902  123.7898  152.1971 S   0  0  0  0  0  0  0  0  0  0  0  0
  148.5333  125.5808  152.3084 C   0  0  0  0  0  0  0  0  0  0  0  0
  148.7016  126.1788  153.3697 O   0  0  0  0  0  0  0  0  0  0  0  0
  145.7587  130.7979  154.5151 H   0  0  0  0  0  0  0  0  0  0  0  0
  147.4656  130.6131  154.1166 H   0  0  0  0  0  0  0  0  0  0  0  0
  146.4092  129.2044  154.1748 H   0  0  0  0  0  0  0  0  0  0  0  0
  145.1113  130.0892  152.2418 H   0  0  0  0  0  0  0  0  0  0  0  0
  146.1831  132.5807  152.7689 H   0  0  0  0  0  0  0  0  0  0  0  0
  147.1994  132.0811  151.4326 H   0  0  0  0  0  0  0  0  0  0  0  0
  146.2346  132.1196  149.0803 H   0  0  0  0  0  0  0  0  0  0  0  0
  143.7344  132.8878  148.1101 H   0  0  0  0  0  0  0  0  0  0  0  0
  143.5624  132.6188  152.3340 H   0  0  0  0  0  0  0  0  0  0  0  0
  147.5997  130.0406  150.9124 H   0  0  0  0  0  0  0  0  0  0  0  0
  147.8533  127.7483  149.7840 H   0  0  0  0  0  0  0  0  0  0  0  0
  149.1445  128.0305  150.9256 H   0  0  0  0  0  0  0  0  0  0  0  0
  146.9503  125.1598  149.7872 H   0  0  0  0  0  0  0  0  0  0  0  0
  148.5034  125.5240  149.0426 H   0  0  0  0  0  0  0  0  0  0  0  0
  147.9229  123.0111  150.0040 H   0  0  0  0  0  0  0  0  0  0  0  0
  149.5551  123.6721  150.0278 H   0  0  0  0  0  0  0  0  0  0  0  0
  142.2946  133.1326  150.1787 H   0  0  0  0  0  0  0  0  0  0  0  0
  1  2  1  0  0  0  0
  1 19  1  0  0  0  0
  1 20  1  0  0  0  0
  1 21  1  0  0  0  0
  2  3  1  0  0  0  0
  2  9  1  0  0  0  0
  2 22  1  0  0  0  0
  3  4  1  0  0  0  0
  3 23  1  0  0  0  0
  3 24  1  0  0  0  0
  4  8  1  0  0  0  0
  4  5  1  0  0  0  0
  5  6  2  0  0  0  0
  5 25  1  0  0  0  0
  6  7  1  0  0  0  0
  6 26  1  0  0  0  0
  7  8  2  0  0  0  0
  7 35  1  0  0  0  0
  8 27  1  0  0  0  0
  9 10  1  0  0  0  0
  9 28  1  0  0  0  0
 10 11  2  0  0  0  0
 10 12  1  0  0  0  0
 12 13  1  0  0  0  0
 12 29  1  0  0  0  0
 12 30  1  0  0  0  0
 13 17  1  0  0  0  0
 13 14  1  0  0  0  0
 14 15  1  0  0  0  0
 14 31  1  0  0  0  0
 14 32  1  0  0  0  0
 15 16  1  0  0  0  0
 15 33  1  0  0  0  0
 15 34  1  0  0  0  0
 16 17  1  0  0  0  0
 17 18  2  0  0  0  0
M  CHG  1   7   1
M  END
> <s_m_source_file>
AV-unprocessed.smi

> <i_m_source_file_index>
3351

> <i_lp_mmshare_version>
43012

> <i_f3d_flags>
0

> <s_epik_input>
W2NIXTFuW2NIXVtjSF1uMVtDSDJdW0NAQEhdKFtDSDNdKVtOSF1DKD1PKVtDSDJdTjJbQ0gyXVtDSDJdU0MyPU8=

> <s_epik_cmdline>
J2VwaWtfcHl0aG9uJywgJy1waCcsICc3LjAnLCAnLXRuJywgJzgnLCAnLW1hJywgJzIwMCcsICctbWV0YWxfYmluZGluZycsICctaW1hZScsICc8aW5maWxlLm1hZT4nLCAnLW9tYWUnLCAnPG91dGZpbGUubWFlPic=

> <r_lp_tautomer_probability>
1

> <r_epik_Ionization_Penalty>
0.257312

> <r_epik_Ionization_Penalty_Charging>
0

> <r_epik_Ionization_Penalty_Neutral>
0.257312

> <r_epik_State_Penalty>
0.248897

> <r_epik_Charging_Adjusted_Penalty>
0.248897

> <i_epik_Tot_Q>
1

> <i_epik_Tot_abs_Q>
1

> <r_epik_Metal_State_Penalty>
0.538022

> <b_epik_Metal_Only>
0

> <s_lp_Force_Field>
OPLS_2005

> <r_lp_Energy>
6.1395

> <b_lp_Chiralities_Consistent>
1

> <s_lp_Variant>
AV-unprocessed.smi:3351-2

> <Gold.Version>
5.8.1

> <Gold.Id.Protein>
6NUR|6NUR_protein|mol2

> <Gold.PLP.Fitness>
46.6783

> <Gold.PLP.PLP>
-38.6948

> <Gold.PLP.part.hbond>
-2.0000

> <Gold.PLP.part.metal>
0.0000

> <Gold.PLP.part.buried>
-6.8661

> <Gold.PLP.part.nonpolar>
-30.5188

> <Gold.PLP.part.repulsive>
0.1955

> <Gold.PLP.ligand.clash>
0.0000

> <Gold.PLP.ligand.torsion>
0.8418

> <Gold.PLP.Chemscore.Hbond>
2.9520

> <Gold.PLP.Chemscore.CHOScore>
0.2549

> <Gold.PLP.Chemscore.Metal>
0.0000

> <Gold.Chemscore.Hbonds>
donor molecule, donor type, donor heavy atom, donor atom, acceptor molecule, acceptor atom, score
      L1  H     7    35       P1 10186  1.89
      L1  H     9    28       P1 10747  1.00
      L1  C     8    27       P1 10957  0.29

> <Gold.PLP.Chemscore.Internal.Correction>
0.0465

> <Gold.Rescore>
     Score         DG    S(hbond)    S(metal)    S(lipo)     H(rot)  DE(clash)    DE(int)     intcor
     11.84     -13.90       1.99        0.00      68.04       2.41       0.06       2.00       ----

> <Gold.Chemscore.Fitness>
11.8418

> <Gold.Chemscore.DG>
-13.9024

> <Gold.Chemscore.ZeroCoef>
-5.4800

> <Gold.Chemscore.Hbond>
1.9885

> <Gold.Chemscore.Metal>
0.0000

> <Gold.Chemscore.Lipo>
68.0420

> <Gold.Chemscore.Internal_Hbond>
0.0000

> <Gold.Chemscore.DEClash>
0.0568

> <Gold.Chemscore.DEInternal>
2.0038

> <Gold.Chemscore.Rot>
2.4141

> <Gold.Chemscore.Internal.Correction>
   9.000000E+99

> <Gold.Chemscore.Hbonds>
donor molecule, donor type, donor heavy atom, donor atom, acceptor molecule, acceptor atom, score
      L1  H     7    35       P1 10186  0.91
      L1  H     9    28       P1 10747  0.99

> <Gold.Chemscore.Hbond.Weighted>
-6.6416

> <Gold.Chemscore.Metal.Weighted>
-0.0000

> <Gold.Chemscore.Lipo.Weighted>
-7.9609

> <Gold.Chemscore.Internal_Hbond.Weighted>
0.0000

> <Gold.Chemscore.DEClash.Weighted>
0.0568

> <Gold.Chemscore.DEInternal.Weighted>
2.0038

> <Gold.Chemscore.Rot.Weighted>
6.1800

> <Gold.Chemscore.Internal.Correction.Weighted>
   9.000000E+99

> <Gold.Protein.RotatedTorsions>
[ 6907 6896 6895 6894 ] final  -13.43 input  -60.11 | X-H torsion
[ 7974 7965 7964 7962 ] final   47.19 input  175.53 | X-H torsion
[ 8008 7997 7996 7995 ] final  -15.41 input   59.86 | X-H torsion
[ 10167 10162 10161 10158 ] final  -58.66 input  -65.29 | X-H torsion
[ 10718 10713 10712 10709 ] final  -33.55 input   66.30 | X-H torsion
[ 10763 10752 10751 10750 ] final   -3.74 input  -60.55 | X-H torsion
[ 11005 11000 10999 10996 ] final   94.58 input  -57.11 | X-H torsion

> <Gold.Protein.ActiveResidues>
 VAL166  LYS551  ARG553  GLY616  TRP617  ASP618  TYR619  PRO620  LYS621  CYS622 
 ASP623  PHE694  ASN695  SER759  ASP760  ASP761  ALA762  ILE779  LEU786  VAL792 
 PHE793  MET794  SER795  GLU796  ALA797  LYS798  CYS799  TRP800  GLU811  SER814 

> <Gold.Protein.RotatedAtoms>
  151.3551  135.0892  159.9415 H   0  0  0  0  0  0  0  0  0  0  0  0  # atno 6907 bound_to 6896
  152.5177  133.9314  159.7593 H   0  0  0  0  0  0  0  0  0  0  0  0  # atno 6908 bound_to 6896
  150.9697  133.6303  159.2769 H   0  0  0  0  0  0  0  0  0  0  0  0  # atno 6909 bound_to 6896
  146.0321  139.4776  142.9831 H   0  0  0  0  0  0  0  0  0  0  0  0  # atno 7974 bound_to 7965
  154.5133  140.2197  155.9115 H   0  0  0  0  0  0  0  0  0  0  0  0  # atno 8008 bound_to 7997
  156.1578  140.3148  155.8721 H   0  0  0  0  0  0  0  0  0  0  0  0  # atno 8009 bound_to 7997
  155.3813  140.0472  157.3034 H   0  0  0  0  0  0  0  0  0  0  0  0  # atno 8010 bound_to 7997
  140.6184  143.2410  151.5542 H   0  0  0  0  0  0  0  0  0  0  0  0  # atno 10167 bound_to 10162
  156.3613  130.4324  149.7621 H   0  0  0  0  0  0  0  0  0  0  0  0  # atno 10718 bound_to 10713
  153.3755  135.6996  153.6605 H   0  0  0  0  0  0  0  0  0  0  0  0  # atno 10763 bound_to 10752
  153.5238  135.3606  155.2644 H   0  0  0  0  0  0  0  0  0  0  0  0  # atno 10764 bound_to 10752
  154.8686  135.4164  154.3042 H   0  0  0  0  0  0  0  0  0  0  0  0  # atno 10765 bound_to 10752
  139.8797  134.8853  156.3885 H   0  0  0  0  0  0  0  0  0  0  0  0  # atno 11005 bound_to 11000
  145.7024  141.0132  143.1497 LP  0  0  0  0  0  0  0  0  0  0  0  0  # atno 17320 bound_to 7965
  144.7035  139.8660  143.7437 LP  0  0  0  0  0  0  0  0  0  0  0  0  # atno 17321 bound_to 7965
  139.5417  144.2629  152.1364 LP  0  0  0  0  0  0  0  0  0  0  0  0  # atno 17342 bound_to 10162
  140.1843  144.4814  150.6512 LP  0  0  0  0  0  0  0  0  0  0  0  0  # atno 17343 bound_to 10162
  156.4784  130.8029  151.3045 LP  0  0  0  0  0  0  0  0  0  0  0  0  # atno 17370 bound_to 10713
  157.7474  131.0013  150.2960 LP  0  0  0  0  0  0  0  0  0  0  0  0  # atno 17371 bound_to 10713
  140.9349  133.7553  156.0072 LP  0  0  0  0  0  0  0  0  0  0  0  0  # atno 17394 bound_to 11000
  140.8287  134.3204  157.5356 LP  0  0  0  0  0  0  0  0  0  0  0  0  # atno 17395 bound_to 11000

$$$$
