AV-unprocessed.smi:1596|AV-procd|sdf|6416|dock8
  -GOLD-   22720 7 53D 1   1.00000     0.00000
 Structure written by MMmdl.
 49 50  0  0  0  0  0  0  0  0  2 V2000
  153.4334  141.5906  159.8030 C   0  0  0  0  0  0  0  0  0  0  0  0
  151.9410  141.8348  159.5326 C   0  0  0  0  0  0  0  0  0  0  0  0
  151.6306  141.9970  158.1101 N   0  0  0  0  0  0  0  0  0  0  0  0
  151.5066  143.3434  157.5513 C   0  0  0  0  0  0  0  0  0  0  0  0
  152.0720  144.4366  158.4701 C   0  0  0  0  0  0  0  0  0  0  0  0
  151.2769  140.8676  157.3319 C   0  0  0  0  0  0  0  0  0  0  0  0
  151.1717  140.8900  155.9182 C   0  0  0  0  0  0  0  0  0  0  0  0
  150.8139  139.7192  155.2185 C   0  0  0  0  0  0  0  0  0  0  0  0
  150.5717  138.5238  155.9258 C   0  0  0  0  0  0  0  0  0  0  0  0
  150.1980  137.3729  155.1799 N   0  0  0  0  0  0  0  0  0  0  0  0
  149.9928  136.1201  155.6223 C   0  0  0  0  0  0  0  0  0  0  0  0
  150.1466  135.7429  156.7836 O   0  0  0  0  0  0  0  0  0  0  0  0
  149.6137  135.3085  154.6245 N   0  0  0  0  0  0  0  0  0  0  0  0
  149.3219  133.8843  154.7616 C   0  0  2  0  0  0  0  0  0  0  0  0
  150.5027  133.1502  155.4307 C   0  0  0  0  0  0  0  0  0  0  0  0
  150.2470  131.6368  155.5179 C   0  0  0  0  0  0  0  0  0  0  0  0
  149.9425  131.0445  154.1312 C   0  0  1  0  0  0  0  0  0  0  0  0
  149.6433  129.6708  154.2600 O   0  0  0  0  0  0  0  0  0  0  0  0
  148.7586  131.7691  153.4677 C   0  0  0  0  0  0  0  0  0  0  0  0
  149.0165  133.2821  153.3770 C   0  0  0  0  0  0  0  0  0  0  0  0
  150.6794  138.5508  157.3360 C   0  0  0  0  0  0  0  0  0  0  0  0
  151.0223  139.6956  157.9646 N   0  3  0  0  0  0  0  0  0  0  0  0
  153.6173  141.5018  160.8737 H   0  0  0  0  0  0  0  0  0  0  0  0
  154.0492  142.4100  159.4316 H   0  0  0  0  0  0  0  0  0  0  0  0
  153.7832  140.6707  159.3369 H   0  0  0  0  0  0  0  0  0  0  0  0
  151.3688  140.9938  159.9251 H   0  0  0  0  0  0  0  0  0  0  0  0
  151.5952  142.7039  160.0927 H   0  0  0  0  0  0  0  0  0  0  0  0
  152.0355  143.3769  156.5985 H   0  0  0  0  0  0  0  0  0  0  0  0
  150.4662  143.5525  157.3038 H   0  0  0  0  0  0  0  0  0  0  0  0
  151.9145  145.4219  158.0310 H   0  0  0  0  0  0  0  0  0  0  0  0
  153.1439  144.3187  158.6224 H   0  0  0  0  0  0  0  0  0  0  0  0
  151.5917  144.4319  159.4484 H   0  0  0  0  0  0  0  0  0  0  0  0
  151.3525  141.7888  155.3490 H   0  0  0  0  0  0  0  0  0  0  0  0
  150.7309  139.7433  154.1417 H   0  0  0  0  0  0  0  0  0  0  0  0
  150.1119  137.5102  154.1834 H   0  0  0  0  0  0  0  0  0  0  0  0
  149.5180  135.7024  153.7000 H   0  0  0  0  0  0  0  0  0  0  0  0
  148.4331  133.7611  155.3839 H   0  0  0  0  0  0  0  0  0  0  0  0
  151.4182  133.3289  154.8645 H   0  0  0  0  0  0  0  0  0  0  0  0
  150.6763  133.5480  156.4313 H   0  0  0  0  0  0  0  0  0  0  0  0
  151.1141  131.1410  155.9557 H   0  0  0  0  0  0  0  0  0  0  0  0
  149.4103  131.4515  156.1933 H   0  0  0  0  0  0  0  0  0  0  0  0
  150.8249  131.1369  153.4965 H   0  0  0  0  0  0  0  0  0  0  0  0
  149.0225  129.5629  154.9643 H   0  0  0  0  0  0  0  0  0  0  0  0
  148.5818  131.3648  152.4702 H   0  0  0  0  0  0  0  0  0  0  0  0
  147.8467  131.5926  154.0401 H   0  0  0  0  0  0  0  0  0  0  0  0
  148.1485  133.7755  152.9378 H   0  0  0  0  0  0  0  0  0  0  0  0
  149.8521  133.4655  152.6998 H   0  0  0  0  0  0  0  0  0  0  0  0
  150.4950  137.7135  157.9917 H   0  0  0  0  0  0  0  0  0  0  0  0
  151.0903  139.6767  158.9822 H   0  0  0  0  0  0  0  0  0  0  0  0
  1  2  1  0  0  0  0
  1 23  1  0  0  0  0
  1 24  1  0  0  0  0
  1 25  1  0  0  0  0
  2  3  1  0  0  0  0
  2 26  1  0  0  0  0
  2 27  1  0  0  0  0
  3  4  1  0  0  0  0
  3  6  1  0  0  0  0
  4  5  1  0  0  0  0
  4 28  1  0  0  0  0
  4 29  1  0  0  0  0
  5 30  1  0  0  0  0
  5 31  1  0  0  0  0
  5 32  1  0  0  0  0
  6 22  1  0  0  0  0
  6  7  2  0  0  0  0
  7  8  1  0  0  0  0
  7 33  1  0  0  0  0
  8  9  2  0  0  0  0
  8 34  1  0  0  0  0
  9 10  1  0  0  0  0
  9 21  1  0  0  0  0
 10 11  1  0  0  0  0
 10 35  1  0  0  0  0
 11 12  2  0  0  0  0
 11 13  1  0  0  0  0
 13 14  1  0  0  0  0
 13 36  1  0  0  0  0
 14 20  1  0  0  0  0
 14 15  1  0  0  0  0
 14 37  1  0  0  0  0
 15 16  1  0  0  0  0
 15 38  1  0  0  0  0
 15 39  1  0  0  0  0
 16 17  1  0  0  0  0
 16 40  1  0  0  0  0
 16 41  1  0  0  0  0
 17 18  1  0  0  0  0
 17 19  1  0  0  0  0
 17 42  1  0  0  0  0
 18 43  1  0  0  0  0
 19 20  1  0  0  0  0
 19 44  1  0  0  0  0
 19 45  1  0  0  0  0
 20 46  1  0  0  0  0
 20 47  1  0  0  0  0
 21 22  2  0  0  0  0
 21 48  1  0  0  0  0
 22 49  1  0  0  0  0
M  CHG  1  22   1
M  END
> <s_m_source_file>
AV-unprocessed.smi

> <i_m_source_file_index>
1596

> <i_lp_mmshare_version>
43012

> <i_f3d_flags>
0

> <s_epik_input>
W0NIM11bQ0gyXU4oW0NIMl1bQ0gzXSljMVtjSF1bY0hdYyhbY0hdbjEpW05IXUMoPU8pW05IXVtDQEBIXTJbQ0gyXVtDSDJdW0NAQEhdKFtPSF0pW0NIMl1bQ0gyXTI=

> <s_epik_cmdline>
J2VwaWtfcHl0aG9uJywgJy1waCcsICc3LjAnLCAnLXRuJywgJzgnLCAnLW1hJywgJzIwMCcsICctbWV0YWxfYmluZGluZycsICctaW1hZScsICc8aW5maWxlLm1hZT4nLCAnLW9tYWUnLCAnPG91dGZpbGUubWFlPic=

> <r_lp_tautomer_probability>
0.999994

> <r_epik_Ionization_Penalty>
0.224167

> <r_epik_Ionization_Penalty_Charging>
0.224146

> <r_epik_Ionization_Penalty_Neutral>
2.1696e-05

> <r_epik_State_Penalty>
0.0144855

> <r_epik_Charging_Adjusted_Penalty>
0.238631

> <i_epik_Tot_Q>
1

> <i_epik_Tot_abs_Q>
1

> <r_epik_Metal_State_Penalty>
0.0446449

> <b_epik_Metal_Only>
0

> <s_lp_Force_Field>
OPLS_2005

> <r_lp_Energy>
22.6617

> <b_lp_Chiralities_Consistent>
1

> <s_lp_Variant>
AV-unprocessed.smi:1596-1

> <Gold.Version>
5.8.1

> <Gold.Id.Protein>
6NUR|6NUR_protein|mol2

> <Gold.PLP.Fitness>
42.7008

> <Gold.PLP.PLP>
-40.7939

> <Gold.PLP.part.hbond>
-1.0000

> <Gold.PLP.part.metal>
0.0000

> <Gold.PLP.part.buried>
-4.1928

> <Gold.PLP.part.nonpolar>
-34.7936

> <Gold.PLP.part.repulsive>
0.1576

> <Gold.PLP.ligand.clash>
0.0000

> <Gold.PLP.ligand.torsion>
0.5981

> <Gold.PLP.Chemscore.Hbond>
1.0000

> <Gold.PLP.Chemscore.CHOScore>
0.0000

> <Gold.PLP.Chemscore.Metal>
0.0000

> <Gold.Chemscore.Hbonds>
donor molecule, donor type, donor heavy atom, donor atom, acceptor molecule, acceptor atom, score
      L1  H    13    36       P1  7948  1.00

> <Gold.PLP.Chemscore.Internal.Correction>
0.1032

> <Gold.Rescore>
     Score         DG    S(hbond)    S(metal)    S(lipo)     H(rot)  DE(clash)    DE(int)     intcor
     12.50     -15.55       0.94        0.00      99.37       1.83       0.11       2.94       ----

> <Gold.Chemscore.Fitness>
12.4972

> <Gold.Chemscore.DG>
-15.5491

> <Gold.Chemscore.ZeroCoef>
-5.4800

> <Gold.Chemscore.Hbond>
0.9378

> <Gold.Chemscore.Metal>
0.0000

> <Gold.Chemscore.Lipo>
99.3677

> <Gold.Chemscore.Internal_Hbond>
0.0000

> <Gold.Chemscore.DEClash>
0.1133

> <Gold.Chemscore.DEInternal>
2.9386

> <Gold.Chemscore.Rot>
1.8317

> <Gold.Chemscore.Internal.Correction>
   9.000000E+99

> <Gold.Chemscore.Hbonds>
donor molecule, donor type, donor heavy atom, donor atom, acceptor molecule, acceptor atom, score
      L1  H    13    36       P1  7948  0.30

> <Gold.Chemscore.Hbond.Weighted>
-3.1322

> <Gold.Chemscore.Metal.Weighted>
-0.0000

> <Gold.Chemscore.Lipo.Weighted>
-11.6260

> <Gold.Chemscore.Internal_Hbond.Weighted>
0.0000

> <Gold.Chemscore.DEClash.Weighted>
0.1133

> <Gold.Chemscore.DEInternal.Weighted>
2.9386

> <Gold.Chemscore.Rot.Weighted>
4.6892

> <Gold.Chemscore.Internal.Correction.Weighted>
   9.000000E+99

> <Gold.Protein.RotatedTorsions>
[ 6907 6896 6895 6894 ] final   72.50 input  -60.11 | X-H torsion
[ 7974 7965 7964 7962 ] final  -88.09 input  175.53 | X-H torsion
[ 8008 7997 7996 7995 ] final  -32.19 input   59.86 | X-H torsion
[ 10167 10162 10161 10158 ] final  -82.54 input  -65.29 | X-H torsion
[ 10718 10713 10712 10709 ] final -115.19 input   66.30 | X-H torsion
[ 10763 10752 10751 10750 ] final  146.65 input  -60.55 | X-H torsion
[ 11005 11000 10999 10996 ] final  -29.23 input  -57.11 | X-H torsion

> <Gold.Protein.ActiveResidues>
 VAL166  LYS551  ARG553  GLY616  TRP617  ASP618  TYR619  PRO620  LYS621  CYS622 
 ASP623  PHE694  ASN695  SER759  ASP760  ASP761  ALA762  ILE779  LEU786  VAL792 
 PHE793  MET794  SER795  GLU796  ALA797  LYS798  CYS799  TRP800  GLU811  SER814 

> <Gold.Protein.RotatedAtoms>
  152.4871  134.4561  159.9590 H   0  0  0  0  0  0  0  0  0  0  0  0  # atno 6907 bound_to 6896
  151.4556  133.3600  159.2809 H   0  0  0  0  0  0  0  0  0  0  0  0  # atno 6908 bound_to 6896
  150.8992  134.8427  159.7408 H   0  0  0  0  0  0  0  0  0  0  0  0  # atno 6909 bound_to 6896
  145.4578  140.9561  143.1986 H   0  0  0  0  0  0  0  0  0  0  0  0  # atno 7974 bound_to 7965
  154.4188  140.1744  156.1687 H   0  0  0  0  0  0  0  0  0  0  0  0  # atno 8008 bound_to 7997
  155.9778  140.3380  155.6610 H   0  0  0  0  0  0  0  0  0  0  0  0  # atno 8009 bound_to 7997
  155.6540  140.0693  157.2568 H   0  0  0  0  0  0  0  0  0  0  0  0  # atno 8010 bound_to 7997
  140.4310  143.2548  151.8759 H   0  0  0  0  0  0  0  0  0  0  0  0  # atno 10167 bound_to 10162
  156.0879  130.6067  150.8874 H   0  0  0  0  0  0  0  0  0  0  0  0  # atno 10718 bound_to 10713
  154.0253  135.2902  155.3375 H   0  0  0  0  0  0  0  0  0  0  0  0  # atno 10763 bound_to 10752
  154.7021  135.5184  153.8545 H   0  0  0  0  0  0  0  0  0  0  0  0  # atno 10764 bound_to 10752
  153.0663  135.6632  154.0471 H   0  0  0  0  0  0  0  0  0  0  0  0  # atno 10765 bound_to 10752
  140.9278  133.7357  156.0893 H   0  0  0  0  0  0  0  0  0  0  0  0  # atno 11005 bound_to 11000
  144.8022  139.6120  143.7067 LP  0  0  0  0  0  0  0  0  0  0  0  0  # atno 17320 bound_to 7965
  146.2468  139.6115  142.9454 LP  0  0  0  0  0  0  0  0  0  0  0  0  # atno 17321 bound_to 7965
  139.4785  144.5334  151.8633 LP  0  0  0  0  0  0  0  0  0  0  0  0  # atno 17342 bound_to 10162
  140.4427  144.1964  150.5892 LP  0  0  0  0  0  0  0  0  0  0  0  0  # atno 17343 bound_to 10162
  157.6020  131.0941  150.8944 LP  0  0  0  0  0  0  0  0  0  0  0  0  # atno 17370 bound_to 10713
  156.9100  130.5277  149.5280 LP  0  0  0  0  0  0  0  0  0  0  0  0  # atno 17371 bound_to 10713
  140.7903  134.3625  157.5466 LP  0  0  0  0  0  0  0  0  0  0  0  0  # atno 17394 bound_to 11000
  139.8789  134.9136  156.3087 LP  0  0  0  0  0  0  0  0  0  0  0  0  # atno 17395 bound_to 11000

$$$$
