AV-unprocessed.smi:939|AV-procd|sdf|4218|dock7
  -GOLD-   22720 2123D 1   1.00000     0.00000
 Structure written by MMmdl.
 36 37  0  0  0  0  0  0  0  0  1 V2000
  151.3599  139.0005  157.7808 C   0  0  0  0  0  0  0  0  0  0  0  0
  152.3655  139.1904  158.9217 C   0  0  0  0  0  0  0  0  0  0  0  0
  152.6243  140.6384  159.2159 C   0  0  0  0  0  0  0  0  0  0  0  0
  152.0021  141.6163  158.4352 N   0  0  0  0  0  0  0  0  0  0  0  0
  152.3229  142.8578  158.8071 C   0  0  0  0  0  0  0  0  0  0  0  0
  151.7394  144.0852  158.1819 C   0  0  0  0  0  0  0  0  0  0  0  0
  151.1829  145.0932  159.2064 C   0  0  0  0  0  0  0  0  0  0  0  0
  149.7254  145.1522  159.1836 N   0  0  0  0  0  0  0  0  0  0  0  0
  148.9234  144.8886  160.2282 C   0  0  0  0  0  0  0  0  0  0  0  0
  149.3319  144.4466  161.3004 O   0  0  0  0  0  0  0  0  0  0  0  0
  147.6274  145.1878  160.0304 N   0  0  0  0  0  0  0  0  0  0  0  0
  146.5406  145.0221  160.9481 C   0  0  0  0  0  0  0  0  0  0  0  0
  146.3918  143.6846  161.6389 C   0  0  0  0  0  0  0  0  0  0  0  0
  145.4326  144.0738  160.5463 C   0  0  0  0  0  0  0  0  0  0  0  0
  153.4312  142.9032  160.1700 S   0  0  0  0  0  0  0  0  0  0  0  0
  153.4388  141.1579  160.1950 C   0  0  0  0  0  0  0  0  0  0  0  0
  154.2581  140.4116  161.1948 C   0  0  0  0  0  0  0  0  0  0  0  0
  151.1920  137.9417  157.5830 H   0  0  0  0  0  0  0  0  0  0  0  0
  151.7208  139.4588  156.8595 H   0  0  0  0  0  0  0  0  0  0  0  0
  150.3973  139.4506  158.0248 H   0  0  0  0  0  0  0  0  0  0  0  0
  151.9909  138.6905  159.8158 H   0  0  0  0  0  0  0  0  0  0  0  0
  153.2962  138.6826  158.6686 H   0  0  0  0  0  0  0  0  0  0  0  0
  152.5047  144.5635  157.5701 H   0  0  0  0  0  0  0  0  0  0  0  0
  150.9469  143.7803  157.4971 H   0  0  0  0  0  0  0  0  0  0  0  0
  151.4795  144.7885  160.2103 H   0  0  0  0  0  0  0  0  0  0  0  0
  151.6131  146.0827  159.0446 H   0  0  0  0  0  0  0  0  0  0  0  0
  149.2990  145.5102  158.3415 H   0  0  0  0  0  0  0  0  0  0  0  0
  147.3901  145.5933  159.1364 H   0  0  0  0  0  0  0  0  0  0  0  0
  146.2115  145.8983  161.5045 H   0  0  0  0  0  0  0  0  0  0  0  0
  147.1259  142.9130  161.4142 H   0  0  0  0  0  0  0  0  0  0  0  0
  146.0218  143.6899  162.6622 H   0  0  0  0  0  0  0  0  0  0  0  0
  144.4176  144.3353  160.8388 H   0  0  0  0  0  0  0  0  0  0  0  0
  145.5238  143.5580  159.5920 H   0  0  0  0  0  0  0  0  0  0  0  0
  154.9487  139.7307  160.6969 H   0  0  0  0  0  0  0  0  0  0  0  0
  153.6205  139.8235  161.8552 H   0  0  0  0  0  0  0  0  0  0  0  0
  154.8449  141.0915  161.8127 H   0  0  0  0  0  0  0  0  0  0  0  0
  1  2  1  0  0  0  0
  1 18  1  0  0  0  0
  1 19  1  0  0  0  0
  1 20  1  0  0  0  0
  2  3  1  0  0  0  0
  2 21  1  0  0  0  0
  2 22  1  0  0  0  0
  3 16  2  0  0  0  0
  3  4  1  0  0  0  0
  4  5  2  0  0  0  0
  5  6  1  0  0  0  0
  5 15  1  0  0  0  0
  6  7  1  0  0  0  0
  6 23  1  0  0  0  0
  6 24  1  0  0  0  0
  7  8  1  0  0  0  0
  7 25  1  0  0  0  0
  7 26  1  0  0  0  0
  8  9  1  0  0  0  0
  8 27  1  0  0  0  0
  9 10  2  0  0  0  0
  9 11  1  0  0  0  0
 11 12  1  0  0  0  0
 11 28  1  0  0  0  0
 12 14  1  0  0  0  0
 12 13  1  0  0  0  0
 12 29  1  0  0  0  0
 13 14  1  0  0  0  0
 13 30  1  0  0  0  0
 13 31  1  0  0  0  0
 14 32  1  0  0  0  0
 14 33  1  0  0  0  0
 15 16  1  0  0  0  0
 16 17  1  0  0  0  0
 17 34  1  0  0  0  0
 17 35  1  0  0  0  0
 17 36  1  0  0  0  0
M  END
> <s_m_source_file>
AV-unprocessed.smi

> <i_m_source_file_index>
939

> <i_lp_mmshare_version>
43012

> <i_f3d_flags>
0

> <s_epik_input>
W0NIM11bQ0gyXWMxbmMoc2MxW0NIM10pW0NIMl1bQ0gyXVtOSF1DKD1PKVtOSF1bQ0hdMltDSDJdW0NIMl0y

> <s_epik_cmdline>
J2VwaWtfcHl0aG9uJywgJy1waCcsICc3LjAnLCAnLXRuJywgJzgnLCAnLW1hJywgJzIwMCcsICctbWV0YWxfYmluZGluZycsICctaW1hZScsICc8aW5maWxlLm1hZT4nLCAnLW9tYWUnLCAnPG91dGZpbGUubWFlPic=

> <r_epik_Ionization_Penalty>
0.00437198

> <r_epik_Ionization_Penalty_Charging>
0

> <r_epik_Ionization_Penalty_Neutral>
0.00437198

> <r_epik_State_Penalty>
0.00310304

> <r_epik_Charging_Adjusted_Penalty>
0.00310304

> <i_epik_Tot_Q>
0

> <i_epik_Tot_abs_Q>
0

> <r_epik_Metal_State_Penalty>
-0

> <b_epik_Metal_Only>
0

> <s_lp_Force_Field>
OPLS_2005

> <r_lp_Energy>
13.9428

> <b_lp_Chiralities_Consistent>
1

> <s_lp_Variant>
AV-unprocessed.smi:939-1

> <Gold.Version>
5.8.1

> <Gold.Id.Protein>
6NUR|6NUR_protein|mol2

> <Gold.PLP.Fitness>
44.9961

> <Gold.PLP.PLP>
-39.0277

> <Gold.PLP.part.hbond>
-3.0000

> <Gold.PLP.part.metal>
0.0000

> <Gold.PLP.part.buried>
-7.2972

> <Gold.PLP.part.nonpolar>
-30.2235

> <Gold.PLP.part.repulsive>
0.6263

> <Gold.PLP.ligand.clash>
0.0000

> <Gold.PLP.ligand.torsion>
0.5261

> <Gold.PLP.Chemscore.Hbond>
2.3198

> <Gold.PLP.Chemscore.CHOScore>
0.0000

> <Gold.PLP.Chemscore.Metal>
0.0000

> <Gold.Chemscore.Hbonds>
donor molecule, donor type, donor heavy atom, donor atom, acceptor molecule, acceptor atom, score
      L1  H     8    27       P1  8029  1.00
      L1  H    11    28       P1  8029  0.99
      P1  H  6933  6944       L1    10  0.25

> <Gold.PLP.Chemscore.Internal.Correction>
0.0612

> <Gold.Rescore>
     Score         DG    S(hbond)    S(metal)    S(lipo)     H(rot)  DE(clash)    DE(int)     intcor
     20.08     -20.48       2.46        0.00      95.12       1.69       0.01       0.39       ----

> <Gold.Chemscore.Fitness>
20.0775

> <Gold.Chemscore.DG>
-20.4832

> <Gold.Chemscore.ZeroCoef>
-5.4800

> <Gold.Chemscore.Hbond>
2.4580

> <Gold.Chemscore.Metal>
0.0000

> <Gold.Chemscore.Lipo>
95.1152

> <Gold.Chemscore.Internal_Hbond>
0.0000

> <Gold.Chemscore.DEClash>
0.0141

> <Gold.Chemscore.DEInternal>
0.3916

> <Gold.Chemscore.Rot>
1.6934

> <Gold.Chemscore.Internal.Correction>
   9.000000E+99

> <Gold.Chemscore.Hbonds>
donor molecule, donor type, donor heavy atom, donor atom, acceptor molecule, acceptor atom, score
      L1  H     8    27       P1  8029  0.84
      L1  H    11    28       P1  8029  0.94
      P1  H  6933  6944       L1    10  0.15

> <Gold.Chemscore.Hbond.Weighted>
-8.2098

> <Gold.Chemscore.Metal.Weighted>
-0.0000

> <Gold.Chemscore.Lipo.Weighted>
-11.1285

> <Gold.Chemscore.Internal_Hbond.Weighted>
0.0000

> <Gold.Chemscore.DEClash.Weighted>
0.0141

> <Gold.Chemscore.DEInternal.Weighted>
0.3916

> <Gold.Chemscore.Rot.Weighted>
4.3351

> <Gold.Chemscore.Internal.Correction.Weighted>
   9.000000E+99

> <Gold.Protein.RotatedTorsions>
[ 6907 6896 6895 6894 ] final   53.09 input  -60.11 | X-H torsion
[ 7974 7965 7964 7962 ] final -153.46 input  175.53 | X-H torsion
[ 8008 7997 7996 7995 ] final  -27.58 input   59.86 | X-H torsion
[ 10167 10162 10161 10158 ] final -115.75 input  -65.29 | X-H torsion
[ 10718 10713 10712 10709 ] final   99.40 input   66.30 | X-H torsion
[ 10763 10752 10751 10750 ] final   32.26 input  -60.55 | X-H torsion
[ 11005 11000 10999 10996 ] final -165.21 input  -57.11 | X-H torsion

> <Gold.Protein.ActiveResidues>
 VAL166  LYS551  ARG553  GLY616  TRP617  ASP618  TYR619  PRO620  LYS621  CYS622 
 ASP623  PHE694  ASN695  SER759  ASP760  ASP761  ALA762  ILE779  LEU786  VAL792 
 PHE793  MET794  SER795  GLU796  ALA797  LYS798  CYS799  TRP800  GLU811  SER814 

> <Gold.Protein.RotatedAtoms>
  152.3301  134.7271  160.0291 H   0  0  0  0  0  0  0  0  0  0  0  0  # atno 6907 bound_to 6896
  151.7690  133.3334  159.3447 H   0  0  0  0  0  0  0  0  0  0  0  0  # atno 6908 bound_to 6896
  150.7418  134.5968  159.6060 H   0  0  0  0  0  0  0  0  0  0  0  0  # atno 6909 bound_to 6896
  144.7739  140.4522  143.5887 H   0  0  0  0  0  0  0  0  0  0  0  0  # atno 7974 bound_to 7965
  154.4371  140.1868  156.0954 H   0  0  0  0  0  0  0  0  0  0  0  0  # atno 8008 bound_to 7997
  156.0333  140.3328  155.7138 H   0  0  0  0  0  0  0  0  0  0  0  0  # atno 8009 bound_to 7997
  155.5807  140.0621  157.2775 H   0  0  0  0  0  0  0  0  0  0  0  0  # atno 8010 bound_to 7997
  140.0867  143.4737  152.1894 H   0  0  0  0  0  0  0  0  0  0  0  0  # atno 10167 bound_to 10162
  157.6877  131.0668  150.4943 H   0  0  0  0  0  0  0  0  0  0  0  0  # atno 10718 bound_to 10713
  153.0271  135.6418  154.1328 H   0  0  0  0  0  0  0  0  0  0  0  0  # atno 10763 bound_to 10752
  154.1055  135.2856  155.3244 H   0  0  0  0  0  0  0  0  0  0  0  0  # atno 10764 bound_to 10752
  154.6368  135.5473  153.7806 H   0  0  0  0  0  0  0  0  0  0  0  0  # atno 10765 bound_to 10752
  140.5782  134.5168  157.5174 H   0  0  0  0  0  0  0  0  0  0  0  0  # atno 11005 bound_to 11000
  145.6242  139.1528  143.3005 LP  0  0  0  0  0  0  0  0  0  0  0  0  # atno 17320 bound_to 7965
  146.1906  140.6350  142.9147 LP  0  0  0  0  0  0  0  0  0  0  0  0  # atno 17321 bound_to 7965
  139.5748  144.7481  151.3794 LP  0  0  0  0  0  0  0  0  0  0  0  0  # atno 17342 bound_to 10162
  140.7050  143.7538  150.7466 LP  0  0  0  0  0  0  0  0  0  0  0  0  # atno 17343 bound_to 10162
  156.5268  130.4175  149.6222 LP  0  0  0  0  0  0  0  0  0  0  0  0  # atno 17370 bound_to 10713
  156.3105  130.7226  151.2118 LP  0  0  0  0  0  0  0  0  0  0  0  0  # atno 17371 bound_to 10713
  139.9329  134.7929  156.0880 LP  0  0  0  0  0  0  0  0  0  0  0  0  # atno 17394 bound_to 11000
  141.1013  133.6676  156.2760 LP  0  0  0  0  0  0  0  0  0  0  0  0  # atno 17395 bound_to 11000

$$$$
