AV-unprocessed.smi:3181|AV-procd|sdf|12145|dock3
  -GOLD-   2272017583D 1   1.00000     0.00000
 Structure written by MMmdl.
 42 43  0  0  0  0  0  0  0  0  2 V2000
  149.1567  141.3112  155.8274 C   0  0  0  0  0  0  0  0  0  0  0  0
  150.6178  141.7082  156.1004 C   0  0  2  0  0  0  0  0  0  0  0  0
  151.4812  140.5197  156.5706 C   0  0  0  0  0  0  0  0  0  0  0  0
  151.4898  139.4155  155.6281 N   0  0  0  0  0  0  0  0  0  0  0  0
  152.1382  138.2500  155.6605 C   0  0  0  0  0  0  0  0  0  0  0  0
  151.9081  137.4807  154.6057 N   0  0  0  0  0  0  0  0  0  0  0  0
  151.0566  138.2928  153.9112 C   0  0  0  0  0  0  0  0  0  0  0  0
  150.7761  139.4664  154.4789 N   0  0  0  0  0  0  0  0  0  0  0  0
  150.6657  142.7866  157.1140 N   0  3  0  0  0  0  0  0  0  0  0  0
  151.9751  143.4593  157.2890 C   0  0  1  0  0  0  0  0  0  0  0  0
  151.8343  144.8841  157.8596 C   0  0  0  0  0  0  0  0  0  0  0  0
  151.3775  144.8725  159.3259 C   0  0  0  0  0  0  0  0  0  0  0  0
  152.3168  144.0384  160.2197 C   0  0  1  0  0  0  0  0  0  0  0  0
  151.8207  144.0791  161.6761 C   0  0  0  0  0  0  0  0  0  0  0  0
  152.4604  142.5953  159.6677 C   0  0  2  0  0  0  0  0  0  0  0  0
  153.4402  141.7364  160.4873 C   0  0  0  0  0  0  0  0  0  0  0  0
  152.8989  142.6152  158.1858 C   0  0  0  0  0  0  0  0  0  0  0  0
  149.0848  140.5729  155.0283 H   0  0  0  0  0  0  0  0  0  0  0  0
  148.5634  142.1730  155.5215 H   0  0  0  0  0  0  0  0  0  0  0  0
  148.6893  140.8852  156.7158 H   0  0  0  0  0  0  0  0  0  0  0  0
  151.0428  142.0765  155.1652 H   0  0  0  0  0  0  0  0  0  0  0  0
  152.5125  140.8396  156.7272 H   0  0  0  0  0  0  0  0  0  0  0  0
  151.1205  140.1470  157.5307 H   0  0  0  0  0  0  0  0  0  0  0  0
  152.7883  137.9563  156.4718 H   0  0  0  0  0  0  0  0  0  0  0  0
  150.6317  138.0113  152.9590 H   0  0  0  0  0  0  0  0  0  0  0  0
  149.9695  143.4824  156.8874 H   0  0  0  0  0  0  0  0  0  0  0  0
  152.4404  143.5188  156.3038 H   0  0  0  0  0  0  0  0  0  0  0  0
  152.8004  145.3870  157.7973 H   0  0  0  0  0  0  0  0  0  0  0  0
  151.1503  145.4834  157.2589 H   0  0  0  0  0  0  0  0  0  0  0  0
  151.3318  145.8984  159.6932 H   0  0  0  0  0  0  0  0  0  0  0  0
  150.3615  144.4813  159.3912 H   0  0  0  0  0  0  0  0  0  0  0  0
  153.3007  144.5097  160.1963 H   0  0  0  0  0  0  0  0  0  0  0  0
  150.8687  143.5590  161.7871 H   0  0  0  0  0  0  0  0  0  0  0  0
  151.6765  145.1068  162.0106 H   0  0  0  0  0  0  0  0  0  0  0  0
  152.5351  143.6236  162.3609 H   0  0  0  0  0  0  0  0  0  0  0  0
  151.4835  142.1128  159.7224 H   0  0  0  0  0  0  0  0  0  0  0  0
  154.4263  142.1989  160.5394 H   0  0  0  0  0  0  0  0  0  0  0  0
  153.5618  140.7487  160.0421 H   0  0  0  0  0  0  0  0  0  0  0  0
  153.0880  141.5804  161.5064 H   0  0  0  0  0  0  0  0  0  0  0  0
  152.9567  141.5973  157.7980 H   0  0  0  0  0  0  0  0  0  0  0  0
  153.9115  143.0165  158.1216 H   0  0  0  0  0  0  0  0  0  0  0  0
  150.4197  142.3725  158.0016 H   0  0  0  0  0  0  0  0  0  0  0  0
  1  2  1  0  0  0  0
  1 18  1  0  0  0  0
  1 19  1  0  0  0  0
  1 20  1  0  0  0  0
  2  3  1  0  0  0  0
  2  9  1  0  0  0  0
  2 21  1  0  0  0  0
  3  4  1  0  0  0  0
  3 22  1  0  0  0  0
  3 23  1  0  0  0  0
  4  8  1  0  0  0  0
  4  5  1  0  0  0  0
  5  6  2  0  0  0  0
  5 24  1  0  0  0  0
  6  7  1  0  0  0  0
  7  8  2  0  0  0  0
  7 25  1  0  0  0  0
  9 10  1  0  0  0  0
  9 26  1  0  0  0  0
  9 42  1  0  0  0  0
 10 17  1  0  0  0  0
 10 11  1  0  0  0  0
 10 27  1  0  0  0  0
 11 12  1  0  0  0  0
 11 28  1  0  0  0  0
 11 29  1  0  0  0  0
 12 13  1  0  0  0  0
 12 30  1  0  0  0  0
 12 31  1  0  0  0  0
 13 14  1  0  0  0  0
 13 15  1  0  0  0  0
 13 32  1  0  0  0  0
 14 33  1  0  0  0  0
 14 34  1  0  0  0  0
 14 35  1  0  0  0  0
 15 16  1  0  0  0  0
 15 17  1  0  0  0  0
 15 36  1  0  0  0  0
 16 37  1  0  0  0  0
 16 38  1  0  0  0  0
 16 39  1  0  0  0  0
 17 40  1  0  0  0  0
 17 41  1  0  0  0  0
M  CHG  1   9   1
M  END
> <s_m_source_file>
AV-unprocessed.smi

> <i_m_source_file_index>
3181

> <i_lp_mmshare_version>
43012

> <i_f3d_flags>
0

> <s_epik_input>
bjFbY0hdbltjSF1uMVtDSDJdW0NAQEhdKFtDSDNdKVtOSF1bQ0BASF0yW0NIMl1bQ0gyXVtDQEBIXShbQ0gzXSlbQ0BASF0oW0NIM10pW0NIMl0y

> <s_epik_cmdline>
J2VwaWtfcHl0aG9uJywgJy1waCcsICc3LjAnLCAnLXRuJywgJzgnLCAnLW1hJywgJzIwMCcsICctbWV0YWxfYmluZGluZycsICctaW1hZScsICc8aW5maWxlLm1hZT4nLCAnLW9tYWUnLCAnPG91dGZpbGUubWFlPic=

> <r_lp_tautomer_probability>
1

> <r_epik_Ionization_Penalty>
0.000617007

> <r_epik_Ionization_Penalty_Charging>
0.000616215

> <r_epik_Ionization_Penalty_Neutral>
7.92544e-07

> <r_epik_State_Penalty>
0.000388807

> <r_epik_Charging_Adjusted_Penalty>
0.00100502

> <i_epik_Tot_Q>
1

> <i_epik_Tot_abs_Q>
1

> <r_epik_Metal_State_Penalty>
-0

> <b_epik_Metal_Only>
0

> <s_lp_Force_Field>
OPLS_2005

> <r_lp_Energy>
23.0816

> <b_lp_Chiralities_Consistent>
1

> <s_lp_Variant>
AV-unprocessed.smi:3181-11

> <Gold.Version>
5.8.1

> <Gold.Id.Protein>
6NUR|6NUR_protein|mol2

> <Gold.PLP.Fitness>
50.2499

> <Gold.PLP.PLP>
-36.4092

> <Gold.PLP.part.hbond>
-3.0000

> <Gold.PLP.part.metal>
0.0000

> <Gold.PLP.part.buried>
-5.9560

> <Gold.PLP.part.nonpolar>
-27.9389

> <Gold.PLP.part.repulsive>
0.2732

> <Gold.PLP.ligand.clash>
0.0000

> <Gold.PLP.ligand.torsion>
0.2861

> <Gold.PLP.Chemscore.Hbond>
3.7114

> <Gold.PLP.Chemscore.CHOScore>
1.0862

> <Gold.PLP.Chemscore.Metal>
0.0000

> <Gold.Chemscore.Hbonds>
donor molecule, donor type, donor heavy atom, donor atom, acceptor molecule, acceptor atom, score
      L1  H     9    26       P1  8028  1.92
      P1  H  7989  7998       L1     8  1.00
      P1  H 10752 10765       L1     6  0.74
      L1  C     7    25       P1  7948  0.38
      L1  C     7    25       P1  7949  0.61
      L1  C     7    25       P1  7957  0.08

> <Gold.PLP.Chemscore.Internal.Correction>
0.0202

> <Gold.Rescore>
     Score         DG    S(hbond)    S(metal)    S(lipo)     H(rot)  DE(clash)    DE(int)     intcor
     16.83     -21.74       2.68        0.00     108.66       2.11       2.62       2.29       ----

> <Gold.Chemscore.Fitness>
16.8317

> <Gold.Chemscore.DG>
-21.7446

> <Gold.Chemscore.ZeroCoef>
-5.4800

> <Gold.Chemscore.Hbond>
2.6800

> <Gold.Chemscore.Metal>
0.0000

> <Gold.Chemscore.Lipo>
108.6644

> <Gold.Chemscore.Internal_Hbond>
0.0000

> <Gold.Chemscore.DEClash>
2.6199

> <Gold.Chemscore.DEInternal>
2.2929

> <Gold.Chemscore.Rot>
2.1095

> <Gold.Chemscore.Internal.Correction>
   9.000000E+99

> <Gold.Chemscore.Hbonds>
donor molecule, donor type, donor heavy atom, donor atom, acceptor molecule, acceptor atom, score
      L1  H     9    26       P1  8028  0.90
      P1  H  7989  7998       L1     8  0.28
      P1  H 10752 10765       L1     6  0.71

> <Gold.Chemscore.Hbond.Weighted>
-8.9511

> <Gold.Chemscore.Metal.Weighted>
-0.0000

> <Gold.Chemscore.Lipo.Weighted>
-12.7137

> <Gold.Chemscore.Internal_Hbond.Weighted>
0.0000

> <Gold.Chemscore.DEClash.Weighted>
2.6199

> <Gold.Chemscore.DEInternal.Weighted>
2.2929

> <Gold.Chemscore.Rot.Weighted>
5.4003

> <Gold.Chemscore.Internal.Correction.Weighted>
   9.000000E+99

> <Gold.Protein.RotatedTorsions>
[ 6907 6896 6895 6894 ] final   28.67 input  -60.11 | X-H torsion
[ 7974 7965 7964 7962 ] final  -71.90 input  175.53 | X-H torsion
[ 8008 7997 7996 7995 ] final   88.88 input   59.86 | X-H torsion
[ 10167 10162 10161 10158 ] final  117.44 input  -65.29 | X-H torsion
[ 10718 10713 10712 10709 ] final  -84.00 input   66.30 | X-H torsion
[ 10763 10752 10751 10750 ] final  163.59 input  -60.55 | X-H torsion
[ 11005 11000 10999 10996 ] final  -16.28 input  -57.11 | X-H torsion

> <Gold.Protein.ActiveResidues>
 VAL166  LYS551  ARG553  GLY616  TRP617  ASP618  TYR619  PRO620  LYS621  CYS622 
 ASP623  PHE694  ASN695  SER759  ASP760  ASP761  ALA762  ILE779  LEU786  VAL792 
 PHE793  MET794  SER795  GLU796  ALA797  LYS798  CYS799  TRP800  GLU811  SER814 

> <Gold.Protein.RotatedAtoms>
  152.0204  134.9826  160.0570 H   0  0  0  0  0  0  0  0  0  0  0  0  # atno 6907 bound_to 6896
  152.1343  133.4421  159.4744 H   0  0  0  0  0  0  0  0  0  0  0  0  # atno 6908 bound_to 6896
  150.6859  134.2301  159.4474 H   0  0  0  0  0  0  0  0  0  0  0  0  # atno 6909 bound_to 6896
  145.6720  140.9217  143.0878 H   0  0  0  0  0  0  0  0  0  0  0  0  # atno 7974 bound_to 7965
  155.9931  140.3367  155.6772 H   0  0  0  0  0  0  0  0  0  0  0  0  # atno 8008 bound_to 7997
  155.6393  140.0693  157.2642 H   0  0  0  0  0  0  0  0  0  0  0  0  # atno 8009 bound_to 7997
  154.4225  140.1745  156.1543 H   0  0  0  0  0  0  0  0  0  0  0  0  # atno 8010 bound_to 7997
  139.6179  144.7095  151.2699 H   0  0  0  0  0  0  0  0  0  0  0  0  # atno 10167 bound_to 10162
  156.0011  130.4684  150.4343 H   0  0  0  0  0  0  0  0  0  0  0  0  # atno 10718 bound_to 10713
  154.2960  135.2760  155.2633 H   0  0  0  0  0  0  0  0  0  0  0  0  # atno 10763 bound_to 10752
  154.5090  135.5787  153.6594 H   0  0  0  0  0  0  0  0  0  0  0  0  # atno 10764 bound_to 10752
  152.9907  135.6176  154.3128 H   0  0  0  0  0  0  0  0  0  0  0  0  # atno 10765 bound_to 10752
  140.8051  133.8183  155.9508 H   0  0  0  0  0  0  0  0  0  0  0  0  # atno 11005 bound_to 11000
  144.7053  139.8585  143.7431 LP  0  0  0  0  0  0  0  0  0  0  0  0  # atno 17320 bound_to 7965
  146.1037  139.4035  143.0331 LP  0  0  0  0  0  0  0  0  0  0  0  0  # atno 17321 bound_to 7965
  140.7363  143.6712  150.8080 LP  0  0  0  0  0  0  0  0  0  0  0  0  # atno 17342 bound_to 10162
  140.0318  143.5435  152.2756 LP  0  0  0  0  0  0  0  0  0  0  0  0  # atno 17343 bound_to 10162
  157.2389  131.0521  151.2448 LP  0  0  0  0  0  0  0  0  0  0  0  0  # atno 17370 bound_to 10713
  157.3639  130.7145  149.6520 LP  0  0  0  0  0  0  0  0  0  0  0  0  # atno 17371 bound_to 10713
  140.9255  134.2088  157.4899 LP  0  0  0  0  0  0  0  0  0  0  0  0  # atno 17394 bound_to 11000
  139.8718  134.9810  156.5100 LP  0  0  0  0  0  0  0  0  0  0  0  0  # atno 17395 bound_to 11000

$$$$
