AV-unprocessed.smi:682|AV-procd|sdf|3327|dock1
  -GOLD-   22720 0293D 1   1.00000     0.00000
 Structure written by MMmdl.
 41 42  0  0  0  0  0  0  0  0  1 V2000
  154.0504  141.4510  160.4150 C   0  0  0  0  0  0  0  0  0  0  0  0
  153.6748  142.5248  159.5613 O   0  0  0  0  0  0  0  0  0  0  0  0
  152.3382  143.0296  159.6871 C   0  0  2  0  0  0  0  0  0  0  0  0
  152.1070  143.6005  161.0920 C   0  0  0  0  0  0  0  0  0  0  0  0
  151.3305  142.0178  159.1077 C   0  0  0  0  0  0  0  0  0  0  0  0
  151.6403  142.6086  157.7337 C   0  0  1  0  0  0  0  0  0  0  0  0
  150.4621  142.6969  156.8776 N   0  0  0  0  0  0  0  0  0  0  0  0
  149.9385  141.6621  156.2069 C   0  0  0  0  0  0  0  0  0  0  0  0
  150.3902  140.5181  156.2615 O   0  0  0  0  0  0  0  0  0  0  0  0
  148.8786  142.0401  155.4738 N   0  0  0  0  0  0  0  0  0  0  0  0
  148.0855  141.2259  154.6260 C   0  0  0  0  0  0  0  0  0  0  0  0
  147.2782  141.7083  153.5633 C   0  0  0  0  0  0  0  0  0  0  0  0
  146.6539  140.7158  152.9468 N   0  0  0  0  0  0  0  0  0  0  0  0
  147.0480  139.5952  153.5991 N   0  0  0  0  0  0  0  0  0  0  0  0
  146.5417  138.3097  153.1683 C   0  0  0  0  0  0  0  0  0  0  0  0
  147.9221  139.8694  154.6320 C   0  0  0  0  0  0  0  0  0  0  0  0
  152.0317  143.9296  158.4453 C   0  0  0  0  0  0  0  0  0  0  0  0
  150.9148  144.9748  158.6298 C   0  0  0  0  0  0  0  0  0  0  0  0
  153.2163  144.6907  157.8397 C   0  0  0  0  0  0  0  0  0  0  0  0
  155.0185  141.0655  160.0957 H   0  0  0  0  0  0  0  0  0  0  0  0
  153.3397  140.6257  160.3837 H   0  0  0  0  0  0  0  0  0  0  0  0
  154.1604  141.7802  161.4482 H   0  0  0  0  0  0  0  0  0  0  0  0
  151.1296  144.0730  161.1816 H   0  0  0  0  0  0  0  0  0  0  0  0
  152.8569  144.3510  161.3425 H   0  0  0  0  0  0  0  0  0  0  0  0
  152.1378  142.8261  161.8580 H   0  0  0  0  0  0  0  0  0  0  0  0
  151.5927  140.9653  159.2107 H   0  0  0  0  0  0  0  0  0  0  0  0
  150.3075  142.2002  159.4419 H   0  0  0  0  0  0  0  0  0  0  0  0
  152.4918  142.1092  157.2649 H   0  0  0  0  0  0  0  0  0  0  0  0
  150.0302  143.6041  156.7808 H   0  0  0  0  0  0  0  0  0  0  0  0
  148.6177  143.0142  155.5183 H   0  0  0  0  0  0  0  0  0  0  0  0
  147.1279  142.7228  153.2243 H   0  0  0  0  0  0  0  0  0  0  0  0
  146.9500  137.5170  153.7958 H   0  0  0  0  0  0  0  0  0  0  0  0
  146.8325  138.1266  152.1336 H   0  0  0  0  0  0  0  0  0  0  0  0
  145.4540  138.2964  153.2438 H   0  0  0  0  0  0  0  0  0  0  0  0
  148.3349  139.0915  155.2572 H   0  0  0  0  0  0  0  0  0  0  0  0
  150.6374  145.4400  157.6833 H   0  0  0  0  0  0  0  0  0  0  0  0
  151.2250  145.7754  159.3019 H   0  0  0  0  0  0  0  0  0  0  0  0
  150.0070  144.5392  159.0476 H   0  0  0  0  0  0  0  0  0  0  0  0
  152.9271  145.2314  156.9380 H   0  0  0  0  0  0  0  0  0  0  0  0
  154.0284  144.0221  157.5538 H   0  0  0  0  0  0  0  0  0  0  0  0
  153.6254  145.4159  158.5434 H   0  0  0  0  0  0  0  0  0  0  0  0
  1  2  1  0  0  0  0
  1 20  1  0  0  0  0
  1 21  1  0  0  0  0
  1 22  1  0  0  0  0
  2  3  1  0  0  0  0
  3 17  1  0  0  0  0
  3  4  1  0  0  0  0
  3  5  1  0  0  0  0
  4 23  1  0  0  0  0
  4 24  1  0  0  0  0
  4 25  1  0  0  0  0
  5  6  1  0  0  0  0
  5 26  1  0  0  0  0
  5 27  1  0  0  0  0
  6  7  1  0  0  0  0
  6 17  1  0  0  0  0
  6 28  1  0  0  0  0
  7  8  1  0  0  0  0
  7 29  1  0  0  0  0
  8  9  2  0  0  0  0
  8 10  1  0  0  0  0
 10 11  1  0  0  0  0
 10 30  1  0  0  0  0
 11 16  2  0  0  0  0
 11 12  1  0  0  0  0
 12 13  2  0  0  0  0
 12 31  1  0  0  0  0
 13 14  1  0  0  0  0
 14 15  1  0  0  0  0
 14 16  1  0  0  0  0
 15 32  1  0  0  0  0
 15 33  1  0  0  0  0
 15 34  1  0  0  0  0
 16 35  1  0  0  0  0
 17 18  1  0  0  0  0
 17 19  1  0  0  0  0
 18 36  1  0  0  0  0
 18 37  1  0  0  0  0
 18 38  1  0  0  0  0
 19 39  1  0  0  0  0
 19 40  1  0  0  0  0
 19 41  1  0  0  0  0
M  END
> <s_m_source_file>
AV-unprocessed.smi

> <i_m_source_file_index>
682

> <i_lp_mmshare_version>
43012

> <i_f3d_flags>
0

> <s_epik_input>
W0NIM11PW0NAQF0xKFtDSDNdKVtDSDJdW0NASF0oQzEoW0NIM10pW0NIM10pW05IXUMoPU8pW05IXWMyW2NIXW5uKFtDSDNdKVtjSF0y

> <s_epik_cmdline>
J2VwaWtfcHl0aG9uJywgJy1waCcsICc3LjAnLCAnLXRuJywgJzgnLCAnLW1hJywgJzIwMCcsICctbWV0YWxfYmluZGluZycsICctaW1hZScsICc8aW5maWxlLm1hZT4nLCAnLW9tYWUnLCAnPG91dGZpbGUubWFlPic=

> <r_lp_tautomer_probability>
1

> <r_epik_Ionization_Penalty>
0.000192302

> <r_epik_Ionization_Penalty_Charging>
0

> <r_epik_Ionization_Penalty_Neutral>
0.000192302

> <r_epik_State_Penalty>
-0

> <r_epik_Charging_Adjusted_Penalty>
0

> <i_epik_Tot_Q>
0

> <i_epik_Tot_abs_Q>
0

> <r_epik_Metal_State_Penalty>
-0

> <b_epik_Metal_Only>
0

> <s_lp_Force_Field>
OPLS_2005

> <r_lp_Energy>
24.7984

> <b_lp_Chiralities_Consistent>
1

> <s_lp_Variant>
AV-unprocessed.smi:682-2

> <Gold.Version>
5.8.1

> <Gold.Id.Protein>
6NUR|6NUR_protein|mol2

> <Gold.PLP.Fitness>
44.4671

> <Gold.PLP.PLP>
-39.0935

> <Gold.PLP.part.hbond>
-2.0000

> <Gold.PLP.part.metal>
0.0000

> <Gold.PLP.part.buried>
-5.9461

> <Gold.PLP.part.nonpolar>
-32.0255

> <Gold.PLP.part.repulsive>
0.4373

> <Gold.PLP.ligand.clash>
0.0000

> <Gold.PLP.ligand.torsion>
0.3204

> <Gold.PLP.Chemscore.Hbond>
1.8800

> <Gold.PLP.Chemscore.CHOScore>
0.0000

> <Gold.PLP.Chemscore.Metal>
0.0000

> <Gold.Chemscore.Hbonds>
donor molecule, donor type, donor heavy atom, donor atom, acceptor molecule, acceptor atom, score
      L1  H     7    29       P1  8028  0.93
      L1  H    10    30       P1  8028  1.00

> <Gold.PLP.Chemscore.Internal.Correction>
0.3744

> <Gold.Rescore>
     Score         DG    S(hbond)    S(metal)    S(lipo)     H(rot)  DE(clash)    DE(int)     intcor
     20.76     -22.02       1.95        0.00     112.59       1.23       0.06       1.20       ----

> <Gold.Chemscore.Fitness>
20.7595

> <Gold.Chemscore.DG>
-22.0191

> <Gold.Chemscore.ZeroCoef>
-5.4800

> <Gold.Chemscore.Hbond>
1.9534

> <Gold.Chemscore.Metal>
0.0000

> <Gold.Chemscore.Lipo>
112.5889

> <Gold.Chemscore.Internal_Hbond>
0.0000

> <Gold.Chemscore.DEClash>
0.0577

> <Gold.Chemscore.DEInternal>
1.2019

> <Gold.Chemscore.Rot>
1.2336

> <Gold.Chemscore.Internal.Correction>
   9.000000E+99

> <Gold.Chemscore.Hbonds>
donor molecule, donor type, donor heavy atom, donor atom, acceptor molecule, acceptor atom, score
      L1  H     7    29       P1  8028  0.89
      L1  H    10    30       P1  8028  0.99

> <Gold.Chemscore.Hbond.Weighted>
-6.5243

> <Gold.Chemscore.Metal.Weighted>
-0.0000

> <Gold.Chemscore.Lipo.Weighted>
-13.1729

> <Gold.Chemscore.Internal_Hbond.Weighted>
0.0000

> <Gold.Chemscore.DEClash.Weighted>
0.0577

> <Gold.Chemscore.DEInternal.Weighted>
1.2019

> <Gold.Chemscore.Rot.Weighted>
3.1581

> <Gold.Chemscore.Internal.Correction.Weighted>
   9.000000E+99

> <Gold.Protein.RotatedTorsions>
[ 6907 6896 6895 6894 ] final  150.76 input  -60.11 | X-H torsion
[ 7974 7965 7964 7962 ] final  152.97 input  175.53 | X-H torsion
[ 8008 7997 7996 7995 ] final   83.69 input   59.86 | X-H torsion
[ 10167 10162 10161 10158 ] final -102.56 input  -65.29 | X-H torsion
[ 10718 10713 10712 10709 ] final -178.26 input   66.30 | X-H torsion
[ 10763 10752 10751 10750 ] final  143.56 input  -60.55 | X-H torsion
[ 11005 11000 10999 10996 ] final -123.33 input  -57.11 | X-H torsion

> <Gold.Protein.ActiveResidues>
 VAL166  LYS551  ARG553  GLY616  TRP617  ASP618  TYR619  PRO620  LYS621  CYS622 
 ASP623  PHE694  ASN695  SER759  ASP760  ASP761  ALA762  ILE779  LEU786  VAL792 
 PHE793  MET794  SER795  GLU796  ALA797  LYS798  CYS799  TRP800  GLU811  SER814 

> <Gold.Protein.RotatedAtoms>
  152.1100  133.4295  159.4626 H   0  0  0  0  0  0  0  0  0  0  0  0  # atno 6907 bound_to 6896
  150.6867  134.2659  159.4577 H   0  0  0  0  0  0  0  0  0  0  0  0  # atno 6908 bound_to 6896
  152.0527  134.9643  160.0625 H   0  0  0  0  0  0  0  0  0  0  0  0  # atno 6909 bound_to 6896
  144.8186  139.6739  143.6110 H   0  0  0  0  0  0  0  0  0  0  0  0  # atno 7974 bound_to 7965
  155.9273  140.3417  155.6220 H   0  0  0  0  0  0  0  0  0  0  0  0  # atno 8008 bound_to 7997
  155.7201  140.0782  157.2353 H   0  0  0  0  0  0  0  0  0  0  0  0  # atno 8009 bound_to 7997
  154.4079  140.1607  156.2379 H   0  0  0  0  0  0  0  0  0  0  0  0  # atno 8010 bound_to 7997
  140.2294  143.3618  152.0900 H   0  0  0  0  0  0  0  0  0  0  0  0  # atno 10167 bound_to 10162
  156.8416  130.9688  151.3099 H   0  0  0  0  0  0  0  0  0  0  0  0  # atno 10718 bound_to 10713
  153.9743  135.2947  155.3425 H   0  0  0  0  0  0  0  0  0  0  0  0  # atno 10763 bound_to 10752
  154.7305  135.5070  153.8959 H   0  0  0  0  0  0  0  0  0  0  0  0  # atno 10764 bound_to 10752
  153.0885  135.6700  154.0014 H   0  0  0  0  0  0  0  0  0  0  0  0  # atno 10765 bound_to 10752
  140.9927  134.0516  157.3635 H   0  0  0  0  0  0  0  0  0  0  0  0  # atno 11005 bound_to 11000
  146.2490  139.6160  142.9440 LP  0  0  0  0  0  0  0  0  0  0  0  0  # atno 17320 bound_to 7965
  145.5157  141.0434  143.2463 LP  0  0  0  0  0  0  0  0  0  0  0  0  # atno 17321 bound_to 7965
  139.5115  144.6902  151.5779 LP  0  0  0  0  0  0  0  0  0  0  0  0  # atno 17342 bound_to 10162
  140.6197  143.9282  150.6516 LP  0  0  0  0  0  0  0  0  0  0  0  0  # atno 17343 bound_to 10162
  157.6352  130.8761  149.9346 LP  0  0  0  0  0  0  0  0  0  0  0  0  # atno 17370 bound_to 10713
  156.0877  130.3666  150.0455 LP  0  0  0  0  0  0  0  0  0  0  0  0  # atno 17371 bound_to 10713
  139.9000  135.0160  156.7221 LP  0  0  0  0  0  0  0  0  0  0  0  0  # atno 17394 bound_to 11000
  140.7014  133.9303  155.8027 LP  0  0  0  0  0  0  0  0  0  0  0  0  # atno 17395 bound_to 11000

$$$$
