AV-unprocessed.smi:1213|AV-procd|sdf|5086|dock9
  -GOLD-   22720 4133D 1   1.00000     0.00000
 Structure written by MMmdl.
 37 38  0  0  0  0  0  0  0  0  2 V2000
  142.5268  140.2774  154.8958 N   0  0  0  0  0  0  0  0  0  0  0  0
  143.0705  141.0209  155.8621 C   0  0  0  0  0  0  0  0  0  0  0  0
  142.8383  140.8197  157.0529 O   0  0  0  0  0  0  0  0  0  0  0  0
  143.9917  142.1630  155.4191 C   0  0  0  0  0  0  0  0  0  0  0  0
  145.2106  141.6897  154.7132 N   0  3  2  0  0  0  0  0  0  0  0  0
  146.1077  140.9027  155.5973 C   0  0  0  0  0  0  0  0  0  0  0  0
  147.2849  140.3016  154.8072 C   0  0  0  0  0  0  0  0  0  0  0  0
  148.0765  141.3742  154.0388 C   0  0  2  0  0  0  0  0  0  0  0  0
  148.8548  142.1987  154.9633 N   0  0  0  0  0  0  0  0  0  0  0  0
  149.7398  141.7327  155.8571 C   0  0  0  0  0  0  0  0  0  0  0  0
  149.9985  140.5368  155.9931 O   0  0  0  0  0  0  0  0  0  0  0  0
  150.2933  142.7340  156.5634 N   0  0  0  0  0  0  0  0  0  0  0  0
  151.2808  142.6480  157.5800 C   0  0  0  0  0  0  0  0  0  0  0  0
  151.7169  141.5007  158.1130 N   0  0  0  0  0  0  0  0  0  0  0  0
  152.6913  141.7140  159.0912 C   0  0  0  0  0  0  0  0  0  0  0  0
  152.9884  143.0393  159.2904 C   0  0  0  0  0  0  0  0  0  0  0  0
  152.0490  144.0784  158.2527 S   0  0  0  0  0  0  0  0  0  0  0  0
  147.1105  142.2216  153.1864 C   0  0  0  0  0  0  0  0  0  0  0  0
  145.9463  142.7818  154.0216 C   0  0  0  0  0  0  0  0  0  0  0  0
  141.9079  139.5161  155.1382 H   0  0  0  0  0  0  0  0  0  0  0  0
  142.7273  140.4765  153.9263 H   0  0  0  0  0  0  0  0  0  0  0  0
  143.4479  142.8728  154.7935 H   0  0  0  0  0  0  0  0  0  0  0  0
  144.2778  142.6993  156.3249 H   0  0  0  0  0  0  0  0  0  0  0  0
  146.4746  141.5386  156.4043 H   0  0  0  0  0  0  0  0  0  0  0  0
  145.5453  140.0933  156.0643 H   0  0  0  0  0  0  0  0  0  0  0  0
  147.9455  139.7504  155.4779 H   0  0  0  0  0  0  0  0  0  0  0  0
  146.8969  139.5694  154.0975 H   0  0  0  0  0  0  0  0  0  0  0  0
  148.7770  140.8647  153.3744 H   0  0  0  0  0  0  0  0  0  0  0  0
  148.7001  143.1956  154.9276 H   0  0  0  0  0  0  0  0  0  0  0  0
  149.9786  143.6676  156.3453 H   0  0  0  0  0  0  0  0  0  0  0  0
  153.1223  140.8628  159.5971 H   0  0  0  0  0  0  0  0  0  0  0  0
  153.7000  143.4650  159.9821 H   0  0  0  0  0  0  0  0  0  0  0  0
  147.6426  143.0357  152.6932 H   0  0  0  0  0  0  0  0  0  0  0  0
  146.7053  141.6019  152.3853 H   0  0  0  0  0  0  0  0  0  0  0  0
  145.2723  143.3327  153.3651 H   0  0  0  0  0  0  0  0  0  0  0  0
  146.3184  143.4967  154.7572 H   0  0  0  0  0  0  0  0  0  0  0  0
  144.8881  141.0536  153.9974 H   0  0  0  0  0  0  0  0  0  0  0  0
  1  2  1  0  0  0  0
  1 20  1  0  0  0  0
  1 21  1  0  0  0  0
  2  3  2  0  0  0  0
  2  4  1  0  0  0  0
  4  5  1  0  0  0  0
  4 22  1  0  0  0  0
  4 23  1  0  0  0  0
  5 19  1  0  0  0  0
  5  6  1  0  0  0  0
  5 37  1  0  0  0  0
  6  7  1  0  0  0  0
  6 24  1  0  0  0  0
  6 25  1  0  0  0  0
  7  8  1  0  0  0  0
  7 26  1  0  0  0  0
  7 27  1  0  0  0  0
  8  9  1  0  0  0  0
  8 18  1  0  0  0  0
  8 28  1  0  0  0  0
  9 10  1  0  0  0  0
  9 29  1  0  0  0  0
 10 11  2  0  0  0  0
 10 12  1  0  0  0  0
 12 13  1  0  0  0  0
 12 30  1  0  0  0  0
 13 17  1  0  0  0  0
 13 14  2  0  0  0  0
 14 15  1  0  0  0  0
 15 16  2  0  0  0  0
 15 31  1  0  0  0  0
 16 17  1  0  0  0  0
 16 32  1  0  0  0  0
 18 19  1  0  0  0  0
 18 33  1  0  0  0  0
 18 34  1  0  0  0  0
 19 35  1  0  0  0  0
 19 36  1  0  0  0  0
M  CHG  1   5   1
M  END
> <s_m_source_file>
AV-unprocessed.smi

> <i_m_source_file_index>
1213

> <i_lp_mmshare_version>
43012

> <i_f3d_flags>
0

> <s_epik_input>
W05IMl1DKD1PKVtDSDJdTjFbQ0gyXVtDSDJdW0NIXShbQ0gyXVtDSDJdMSlbTkhdQyg9TylbTkhdYzJuW2NIXVtjSF1zMg==

> <s_epik_cmdline>
J2VwaWtfcHl0aG9uJywgJy1waCcsICc3LjAnLCAnLXRuJywgJzgnLCAnLW1hJywgJzIwMCcsICctbWV0YWxfYmluZGluZycsICctaW1hZScsICc8aW5maWxlLm1hZT4nLCAnLW9tYWUnLCAnPG91dGZpbGUubWFlPic=

> <r_lp_tautomer_probability>
0.999

> <r_epik_Ionization_Penalty>
0.86253

> <r_epik_Ionization_Penalty_Charging>
0.862349

> <r_epik_Ionization_Penalty_Neutral>
0.000180085

> <r_epik_State_Penalty>
0.898939

> <r_epik_Charging_Adjusted_Penalty>
1.76129

> <i_epik_Tot_Q>
1

> <i_epik_Tot_abs_Q>
1

> <r_epik_Metal_State_Penalty>
0.948529

> <b_epik_Metal_Only>
0

> <s_lp_Force_Field>
OPLS_2005

> <r_lp_Energy>
11.1317

> <b_lp_Chiralities_Consistent>
1

> <s_lp_Variant>
AV-unprocessed.smi:1213-3

> <Gold.Version>
5.8.1

> <Gold.Id.Protein>
6NUR|6NUR_protein|mol2

> <Gold.PLP.Fitness>
45.2140

> <Gold.PLP.PLP>
-30.3685

> <Gold.PLP.part.hbond>
-4.0000

> <Gold.PLP.part.metal>
0.0000

> <Gold.PLP.part.buried>
-5.3702

> <Gold.PLP.part.nonpolar>
-21.8619

> <Gold.PLP.part.repulsive>
0.3299

> <Gold.PLP.ligand.clash>
0.0000

> <Gold.PLP.ligand.torsion>
0.0895

> <Gold.PLP.Chemscore.Hbond>
5.0000

> <Gold.PLP.Chemscore.CHOScore>
0.0000

> <Gold.PLP.Chemscore.Metal>
0.0000

> <Gold.Chemscore.Hbonds>
donor molecule, donor type, donor heavy atom, donor atom, acceptor molecule, acceptor atom, score
      L1  H     1    21       P1 10175  1.00
      L1  H     5    37       P1 10175  2.00
      L1  H     9    29       P1  8028  1.00
      L1  H    12    30       P1  8028  1.00

> <Gold.PLP.Chemscore.Internal.Correction>
0.0244

> <Gold.Rescore>
     Score         DG    S(hbond)    S(metal)    S(lipo)     H(rot)  DE(clash)    DE(int)     intcor
     16.64     -20.57       3.80        0.00      65.80       2.06       1.62       2.31       ----

> <Gold.Chemscore.Fitness>
16.6436

> <Gold.Chemscore.DG>
-20.5749

> <Gold.Chemscore.ZeroCoef>
-5.4800

> <Gold.Chemscore.Hbond>
3.7958

> <Gold.Chemscore.Metal>
0.0000

> <Gold.Chemscore.Lipo>
65.8001

> <Gold.Chemscore.Internal_Hbond>
0.0000

> <Gold.Chemscore.DEClash>
1.6221

> <Gold.Chemscore.DEInternal>
2.3093

> <Gold.Chemscore.Rot>
2.0631

> <Gold.Chemscore.Internal.Correction>
   9.000000E+99

> <Gold.Chemscore.Hbonds>
donor molecule, donor type, donor heavy atom, donor atom, acceptor molecule, acceptor atom, score
      L1  H     1    21       P1 10175  0.81
      L1  H     5    37       P1 10175  0.76
      L1  H     9    29       P1  8028  0.94
      L1  H    12    30       P1  8028  0.97

> <Gold.Chemscore.Hbond.Weighted>
-12.6779

> <Gold.Chemscore.Metal.Weighted>
-0.0000

> <Gold.Chemscore.Lipo.Weighted>
-7.6986

> <Gold.Chemscore.Internal_Hbond.Weighted>
0.0000

> <Gold.Chemscore.DEClash.Weighted>
1.6221

> <Gold.Chemscore.DEInternal.Weighted>
2.3093

> <Gold.Chemscore.Rot.Weighted>
5.2816

> <Gold.Chemscore.Internal.Correction.Weighted>
   9.000000E+99

> <Gold.Protein.RotatedTorsions>
[ 6907 6896 6895 6894 ] final  -21.84 input  -60.11 | X-H torsion
[ 7974 7965 7964 7962 ] final  -15.36 input  175.53 | X-H torsion
[ 8008 7997 7996 7995 ] final  106.18 input   59.86 | X-H torsion
[ 10167 10162 10161 10158 ] final  -66.04 input  -65.29 | X-H torsion
[ 10718 10713 10712 10709 ] final  149.07 input   66.30 | X-H torsion
[ 10763 10752 10751 10750 ] final  -73.06 input  -60.55 | X-H torsion
[ 11005 11000 10999 10996 ] final  -35.52 input  -57.11 | X-H torsion

> <Gold.Protein.ActiveResidues>
 VAL166  LYS551  ARG553  GLY616  TRP617  ASP618  TYR619  PRO620  LYS621  CYS622 
 ASP623  PHE694  ASN695  SER759  ASP760  ASP761  ALA762  ILE779  LEU786  VAL792 
 PHE793  MET794  SER795  GLU796  ALA797  LYS798  CYS799  TRP800  GLU811  SER814 

> <Gold.Protein.RotatedAtoms>
  151.2274  135.0541  159.8973 H   0  0  0  0  0  0  0  0  0  0  0  0  # atno 6907 bound_to 6896
  152.5409  134.0574  159.8147 H   0  0  0  0  0  0  0  0  0  0  0  0  # atno 6908 bound_to 6896
  151.0749  133.5388  159.2656 H   0  0  0  0  0  0  0  0  0  0  0  0  # atno 6909 bound_to 6896
  146.2035  140.3482  142.8415 H   0  0  0  0  0  0  0  0  0  0  0  0  # atno 7974 bound_to 7965
  156.1722  140.3117  155.8993 H   0  0  0  0  0  0  0  0  0  0  0  0  # atno 8008 bound_to 7997
  155.3564  140.0474  157.3063 H   0  0  0  0  0  0  0  0  0  0  0  0  # atno 8009 bound_to 7997
  154.5252  140.2212  155.8913 H   0  0  0  0  0  0  0  0  0  0  0  0  # atno 8010 bound_to 7997
  140.5686  143.2316  151.6585 H   0  0  0  0  0  0  0  0  0  0  0  0  # atno 10167 bound_to 10162
  157.3007  131.0870  151.1392 H   0  0  0  0  0  0  0  0  0  0  0  0  # atno 10718 bound_to 10713
  154.4543  135.5909  153.6213 H   0  0  0  0  0  0  0  0  0  0  0  0  # atno 10763 bound_to 10752
  152.9816  135.6028  154.3565 H   0  0  0  0  0  0  0  0  0  0  0  0  # atno 10764 bound_to 10752
  154.3430  135.2841  155.2391 H   0  0  0  0  0  0  0  0  0  0  0  0  # atno 10765 bound_to 10752
  140.9803  133.7060  156.1672 H   0  0  0  0  0  0  0  0  0  0  0  0  # atno 11005 bound_to 11000
  144.8738  140.7308  143.6030 LP  0  0  0  0  0  0  0  0  0  0  0  0  # atno 17320 bound_to 7965
  145.3401  139.1734  143.4490 LP  0  0  0  0  0  0  0  0  0  0  0  0  # atno 17321 bound_to 7965
  139.5105  144.3539  152.0626 LP  0  0  0  0  0  0  0  0  0  0  0  0  # atno 17342 bound_to 10162
  140.2674  144.4001  150.6163 LP  0  0  0  0  0  0  0  0  0  0  0  0  # atno 17343 bound_to 10162
  157.2752  130.6723  149.6039 LP  0  0  0  0  0  0  0  0  0  0  0  0  # atno 17370 bound_to 10713
  155.9671  130.4467  150.5550 LP  0  0  0  0  0  0  0  0  0  0  0  0  # atno 17371 bound_to 10713
  140.7197  134.4372  157.5576 LP  0  0  0  0  0  0  0  0  0  0  0  0  # atno 17394 bound_to 11000
  139.8947  134.8700  156.2164 LP  0  0  0  0  0  0  0  0  0  0  0  0  # atno 17395 bound_to 11000

$$$$
