AV-unprocessed.smi:3124|AV-procd|sdf|11902|dock3
  -GOLD-   2272017283D 1   1.00000     0.00000
 Structure written by MMmdl.
 24 24  0  0  0  0  0  0  0  0  2 V2000
  151.0842  142.8836  157.3519 C   0  0  0  0  0  0  0  0  0  0  0  0
  150.5527  141.9245  156.3415 C   0  0  0  0  0  0  0  0  0  0  0  0
  150.9238  140.6489  156.0213 C   0  0  0  0  0  0  0  0  0  0  0  0
  150.0286  140.2727  154.9768 C   0  0  0  0  0  0  0  0  0  0  0  0
  149.9677  138.9644  154.2351 C   0  0  0  0  0  0  0  0  0  0  0  0
  150.9066  137.8953  154.8272 C   0  0  2  0  0  0  0  0  0  0  0  0
  152.3795  138.3149  154.7272 C   0  0  0  0  0  0  0  0  0  0  0  0
  150.7047  136.5901  154.1709 N   0  3  0  0  0  0  0  0  0  0  0  0
  149.1729  141.2377  154.6731 N   0  0  0  0  0  0  0  0  0  0  0  0
  149.5025  142.2389  155.5104 N   0  0  0  0  0  0  0  0  0  0  0  0
  149.0056  143.1188  155.5071 H   0  0  0  0  0  0  0  0  0  0  0  0
  151.8090  142.3986  158.0064 H   0  0  0  0  0  0  0  0  0  0  0  0
  150.2807  143.2777  157.9744 H   0  0  0  0  0  0  0  0  0  0  0  0
  151.5792  143.7240  156.8652 H   0  0  0  0  0  0  0  0  0  0  0  0
  151.7162  140.0679  156.4697 H   0  0  0  0  0  0  0  0  0  0  0  0
  150.2240  139.1311  153.1878 H   0  0  0  0  0  0  0  0  0  0  0  0
  148.9427  138.5910  154.2321 H   0  0  0  0  0  0  0  0  0  0  0  0
  150.6660  137.7649  155.8830 H   0  0  0  0  0  0  0  0  0  0  0  0
  152.5551  139.2575  155.2469 H   0  0  0  0  0  0  0  0  0  0  0  0
  152.6868  138.4469  153.6891 H   0  0  0  0  0  0  0  0  0  0  0  0
  153.0338  137.5671  155.1767 H   0  0  0  0  0  0  0  0  0  0  0  0
  149.8217  136.5902  153.6810 H   0  0  0  0  0  0  0  0  0  0  0  0
  150.7013  135.8609  154.8702 H   0  0  0  0  0  0  0  0  0  0  0  0
  151.4541  136.4227  153.5148 H   0  0  0  0  0  0  0  0  0  0  0  0
  1 12  1  0  0  0  0
  1 13  1  0  0  0  0
  1 14  1  0  0  0  0
  1  2  1  0  0  0  0
  2 10  1  0  0  0  0
  2  3  2  0  0  0  0
  3  4  1  0  0  0  0
  3 15  1  0  0  0  0
  4  5  1  0  0  0  0
  4  9  2  0  0  0  0
  5  6  1  0  0  0  0
  5 16  1  0  0  0  0
  5 17  1  0  0  0  0
  6  7  1  0  0  0  0
  6  8  1  0  0  0  0
  6 18  1  0  0  0  0
  7 19  1  0  0  0  0
  7 20  1  0  0  0  0
  7 21  1  0  0  0  0
  8 22  1  0  0  0  0
  8 23  1  0  0  0  0
  8 24  1  0  0  0  0
  9 10  1  0  0  0  0
 10 11  1  0  0  0  0
M  CHG  1   8   1
M  END
> <s_m_source_file>
AV-unprocessed.smi

> <i_m_source_file_index>
3124

> <i_lp_mmshare_version>
43012

> <i_f3d_flags>
0

> <s_epik_input>
W0NIM11jMVtjSF1jKFtuSF1uMSlbQ0gyXVtDQEhdKFtDSDNdKVtOSDJd

> <s_epik_cmdline>
J2VwaWtfcHl0aG9uJywgJy1waCcsICc3LjAnLCAnLXRuJywgJzgnLCAnLW1hJywgJzIwMCcsICctbWV0YWxfYmluZGluZycsICctaW1hZScsICc8aW5maWxlLm1hZT4nLCAnLW9tYWUnLCAnPG91dGZpbGUubWFlPic=

> <r_lp_tautomer_probability>
0.5

> <r_epik_Ionization_Penalty>
0.00151643

> <r_epik_Ionization_Penalty_Charging>
0.00146569

> <r_epik_Ionization_Penalty_Neutral>
5.07401e-05

> <r_epik_State_Penalty>
0.379573

> <r_epik_Charging_Adjusted_Penalty>
0.381038

> <i_epik_Tot_Q>
1

> <i_epik_Tot_abs_Q>
1

> <r_epik_Metal_State_Penalty>
0.378341

> <b_epik_Metal_Only>
0

> <s_lp_Force_Field>
OPLS_2005

> <r_lp_Energy>
2.04404

> <b_lp_Chiralities_Consistent>
1

> <s_lp_Variant>
AV-unprocessed.smi:3124-1

> <Gold.Version>
5.8.1

> <Gold.Id.Protein>
6NUR|6NUR_protein|mol2

> <Gold.PLP.Fitness>
33.7350

> <Gold.PLP.PLP>
-22.9187

> <Gold.PLP.part.hbond>
-3.0000

> <Gold.PLP.part.metal>
0.0000

> <Gold.PLP.part.buried>
-2.1077

> <Gold.PLP.part.nonpolar>
-19.0921

> <Gold.PLP.part.repulsive>
0.3929

> <Gold.PLP.ligand.clash>
0.0000

> <Gold.PLP.ligand.torsion>
0.0652

> <Gold.PLP.Chemscore.Hbond>
3.6479

> <Gold.PLP.Chemscore.CHOScore>
0.0000

> <Gold.PLP.Chemscore.Metal>
0.0000

> <Gold.Chemscore.Hbonds>
donor molecule, donor type, donor heavy atom, donor atom, acceptor molecule, acceptor atom, score
      L1  H     8    22       P1  7948  1.66
      L1  H     8    24       P1  7949  0.85
      L1  H    10    11       P1  8028  1.00

> <Gold.PLP.Chemscore.Internal.Correction>
0.0030

> <Gold.Rescore>
     Score         DG    S(hbond)    S(metal)    S(lipo)     H(rot)  DE(clash)    DE(int)     intcor
     14.06     -14.16       1.80        0.00      51.34       1.30       0.05       0.05       ----

> <Gold.Chemscore.Fitness>
14.0628

> <Gold.Chemscore.DG>
-14.1601

> <Gold.Chemscore.ZeroCoef>
-5.4800

> <Gold.Chemscore.Hbond>
1.7959

> <Gold.Chemscore.Metal>
0.0000

> <Gold.Chemscore.Lipo>
51.3352

> <Gold.Chemscore.Internal_Hbond>
0.0000

> <Gold.Chemscore.DEClash>
0.0477

> <Gold.Chemscore.DEInternal>
0.0496

> <Gold.Chemscore.Rot>
1.2987

> <Gold.Chemscore.Internal.Correction>
   9.000000E+99

> <Gold.Chemscore.Hbonds>
donor molecule, donor type, donor heavy atom, donor atom, acceptor molecule, acceptor atom, score
      L1  H     8    22       P1  7948  0.31
      L1  H     8    24       P1  7949  0.33
      L1  H    10    11       P1  8028  0.97

> <Gold.Chemscore.Hbond.Weighted>
-5.9985

> <Gold.Chemscore.Metal.Weighted>
-0.0000

> <Gold.Chemscore.Lipo.Weighted>
-6.0062

> <Gold.Chemscore.Internal_Hbond.Weighted>
0.0000

> <Gold.Chemscore.DEClash.Weighted>
0.0477

> <Gold.Chemscore.DEInternal.Weighted>
0.0496

> <Gold.Chemscore.Rot.Weighted>
3.3246

> <Gold.Chemscore.Internal.Correction.Weighted>
   9.000000E+99

> <Gold.Protein.RotatedTorsions>
[ 6907 6896 6895 6894 ] final -127.99 input  -60.11 | X-H torsion
[ 7974 7965 7964 7962 ] final  -62.40 input  175.53 | X-H torsion
[ 8008 7997 7996 7995 ] final  -91.08 input   59.86 | X-H torsion
[ 10167 10162 10161 10158 ] final  161.48 input  -65.29 | X-H torsion
[ 10718 10713 10712 10709 ] final  -99.01 input   66.30 | X-H torsion
[ 10763 10752 10751 10750 ] final   -2.51 input  -60.55 | X-H torsion
[ 11005 11000 10999 10996 ] final  117.06 input  -57.11 | X-H torsion

> <Gold.Protein.ActiveResidues>
 VAL166  LYS551  ARG553  GLY616  TRP617  ASP618  TYR619  PRO620  LYS621  CYS622 
 ASP623  PHE694  ASN695  SER759  ASP760  ASP761  ALA762  ILE779  LEU786  VAL792 
 PHE793  MET794  SER795  GLU796  ALA797  LYS798  CYS799  TRP800  GLU811  SER814 

> <Gold.Protein.RotatedAtoms>
  150.9131  133.6973  159.2849 H   0  0  0  0  0  0  0  0  0  0  0  0  # atno 6907 bound_to 6896
  151.4452  135.1023  159.9691 H   0  0  0  0  0  0  0  0  0  0  0  0  # atno 6908 bound_to 6896
  152.4940  133.8530  159.7266 H   0  0  0  0  0  0  0  0  0  0  0  0  # atno 6909 bound_to 6896
  145.7917  140.8706  143.0277 H   0  0  0  0  0  0  0  0  0  0  0  0  # atno 7974 bound_to 7965
  154.7064  140.0523  157.0508 H   0  0  0  0  0  0  0  0  0  0  0  0  # atno 8008 bound_to 7997
  155.0614  140.3190  155.4640 H   0  0  0  0  0  0  0  0  0  0  0  0  # atno 8009 bound_to 7997
  156.2776  140.2098  156.5741 H   0  0  0  0  0  0  0  0  0  0  0  0  # atno 8010 bound_to 7997
  139.4850  144.4532  151.8803 H   0  0  0  0  0  0  0  0  0  0  0  0  # atno 10167 bound_to 10162
  156.0122  130.5263  150.6608 H   0  0  0  0  0  0  0  0  0  0  0  0  # atno 10718 bound_to 10713
  153.3589  135.6989  153.6728 H   0  0  0  0  0  0  0  0  0  0  0  0  # atno 10763 bound_to 10752
  153.5424  135.3570  155.2725 H   0  0  0  0  0  0  0  0  0  0  0  0  # atno 10764 bound_to 10752
  154.8665  135.4207  154.2842 H   0  0  0  0  0  0  0  0  0  0  0  0  # atno 10765 bound_to 10752
  139.9062  134.9606  156.7294 H   0  0  0  0  0  0  0  0  0  0  0  0  # atno 11005 bound_to 11000
  144.6781  140.0133  143.7484 LP  0  0  0  0  0  0  0  0  0  0  0  0  # atno 17320 bound_to 7965
  145.9970  139.3060  143.0951 LP  0  0  0  0  0  0  0  0  0  0  0  0  # atno 17321 bound_to 7965
  140.3990  144.2518  150.5894 LP  0  0  0  0  0  0  0  0  0  0  0  0  # atno 17342 bound_to 10162
  140.5075  143.2300  151.8585 LP  0  0  0  0  0  0  0  0  0  0  0  0  # atno 17343 bound_to 10162
  157.4350  131.0854  151.1000 LP  0  0  0  0  0  0  0  0  0  0  0  0  # atno 17370 bound_to 10713
  157.1562  130.6205  149.5597 LP  0  0  0  0  0  0  0  0  0  0  0  0  # atno 17371 bound_to 10713
  140.6937  133.9367  155.7982 LP  0  0  0  0  0  0  0  0  0  0  0  0  # atno 17394 bound_to 11000
  141.0422  134.0604  157.3887 LP  0  0  0  0  0  0  0  0  0  0  0  0  # atno 17395 bound_to 11000

$$$$
