AV-unprocessed.smi:283|AV-procd|sdf|2149|dock5
  -GOLD-   2262021483D 1   1.00000     0.00000
 Structure written by MMmdl.
 48 51  0  0  0  0  0  0  0  0  1 V2000
  151.0948  141.0308  155.6645 C   0  0  0  0  0  0  0  0  0  0  0  0
  150.3990  141.3247  157.0001 C   0  0  2  0  0  0  0  0  0  0  0  0
  149.0381  141.8020  156.7605 N   0  0  0  0  0  0  0  0  0  0  0  0
  147.9796  140.9793  156.9355 C   0  0  0  0  0  0  0  0  0  0  0  0
  147.1667  141.1026  158.0170 N   0  0  0  0  0  0  0  0  0  0  0  0
  146.1275  140.2770  158.1681 C   0  0  0  0  0  0  0  0  0  0  0  0
  145.7332  139.2800  157.3741 N   0  0  0  0  0  0  0  0  0  0  0  0
  146.5491  139.1460  156.2878 C   0  0  0  0  0  0  0  0  0  0  0  0
  147.6852  139.9537  156.0005 C   0  0  0  0  0  0  0  0  0  0  0  0
  148.2719  139.5391  154.8125 N   0  0  0  0  0  0  0  0  0  0  0  0
  147.5247  138.5409  154.4249 C   0  0  0  0  0  0  0  0  0  0  0  0
  146.4685  138.2326  155.2538 N   0  0  0  0  0  0  0  0  0  0  0  0
  145.4638  137.1355  155.0687 C   0  0  2  0  0  0  0  0  0  0  0  0
  145.8515  136.3544  153.9806 O   0  0  0  0  0  0  0  0  0  0  0  0
  144.7108  136.0153  153.1996 C   0  0  2  0  0  0  0  0  0  0  0  0
  145.1146  135.6449  151.7614 C   0  0  0  0  0  0  0  0  0  0  0  0
  145.6834  136.7618  151.1114 O   0  0  0  0  0  0  0  0  0  0  0  0
  143.7970  137.2421  153.3386 C   0  0  2  0  0  0  0  0  0  0  0  0
  144.1342  138.2539  152.4045 O   0  0  0  0  0  0  0  0  0  0  0  0
  144.0428  137.6664  154.7837 C   0  0  2  0  0  0  0  0  0  0  0  0
  143.8420  139.0518  155.0136 O   0  0  0  0  0  0  0  0  0  0  0  0
  151.2486  142.2710  157.8512 C   0  0  0  0  0  0  0  0  0  0  0  0
  150.9467  143.6525  157.8698 C   0  0  0  0  0  0  0  0  0  0  0  0
  151.7109  144.5445  158.6450 C   0  0  0  0  0  0  0  0  0  0  0  0
  152.7905  144.0643  159.4078 C   0  0  0  0  0  0  0  0  0  0  0  0
  153.1065  142.6933  159.3891 C   0  0  0  0  0  0  0  0  0  0  0  0
  152.3452  141.7954  158.6138 C   0  0  0  0  0  0  0  0  0  0  0  0
  152.7884  140.1241  158.6210 Cl  0  0  0  0  0  0  0  0  0  0  0  0
  145.5212  136.5584  155.9923 H   0  0  0  0  0  0  0  0  0  0  0  0
  144.2113  135.1702  153.6777 H   0  0  0  0  0  0  0  0  0  0  0  0
  142.7519  136.9779  153.1740 H   0  0  0  0  0  0  0  0  0  0  0  0
  143.3620  137.1120  155.4312 H   0  0  0  0  0  0  0  0  0  0  0  0
  152.0837  140.6008  155.8258 H   0  0  0  0  0  0  0  0  0  0  0  0
  151.2180  141.9376  155.0713 H   0  0  0  0  0  0  0  0  0  0  0  0
  150.5205  140.3192  155.0706 H   0  0  0  0  0  0  0  0  0  0  0  0
  150.2964  140.3729  157.5197 H   0  0  0  0  0  0  0  0  0  0  0  0
  148.9378  142.8021  156.6652 H   0  0  0  0  0  0  0  0  0  0  0  0
  145.5275  140.4370  159.0515 H   0  0  0  0  0  0  0  0  0  0  0  0
  147.7291  137.9906  153.5181 H   0  0  0  0  0  0  0  0  0  0  0  0
  145.8700  134.8584  151.7735 H   0  0  0  0  0  0  0  0  0  0  0  0
  144.2626  135.2707  151.1929 H   0  0  0  0  0  0  0  0  0  0  0  0
  146.6145  136.7633  151.2724 H   0  0  0  0  0  0  0  0  0  0  0  0
  143.5877  139.0082  152.5632 H   0  0  0  0  0  0  0  0  0  0  0  0
  143.7887  139.4897  154.1783 H   0  0  0  0  0  0  0  0  0  0  0  0
  150.1220  144.0367  157.2874 H   0  0  0  0  0  0  0  0  0  0  0  0
  151.4684  145.5969  158.6535 H   0  0  0  0  0  0  0  0  0  0  0  0
  153.3777  144.7469  160.0042 H   0  0  0  0  0  0  0  0  0  0  0  0
  153.9392  142.3291  159.9726 H   0  0  0  0  0  0  0  0  0  0  0  0
  1  2  1  0  0  0  0
  1 33  1  0  0  0  0
  1 34  1  0  0  0  0
  1 35  1  0  0  0  0
  2  3  1  0  0  0  0
  2 22  1  0  0  0  0
  2 36  1  0  0  0  0
  3  4  1  0  0  0  0
  3 37  1  0  0  0  0
  4  9  1  0  0  0  0
  4  5  2  0  0  0  0
  5  6  1  0  0  0  0
  6  7  2  0  0  0  0
  6 38  1  0  0  0  0
  7  8  1  0  0  0  0
  8 12  1  0  0  0  0
  8  9  2  0  0  0  0
  9 10  1  0  0  0  0
 10 11  2  0  0  0  0
 11 12  1  0  0  0  0
 11 39  1  0  0  0  0
 12 13  1  0  0  0  0
 13 29  1  0  0  0  0
 13 20  1  0  0  0  0
 13 14  1  0  0  0  0
 14 15  1  0  0  0  0
 15 30  1  0  0  0  0
 15 16  1  0  0  0  0
 15 18  1  0  0  0  0
 16 17  1  0  0  0  0
 16 40  1  0  0  0  0
 16 41  1  0  0  0  0
 17 42  1  0  0  0  0
 18 31  1  0  0  0  0
 18 19  1  0  0  0  0
 18 20  1  0  0  0  0
 19 43  1  0  0  0  0
 20 32  1  0  0  0  0
 20 21  1  0  0  0  0
 21 44  1  0  0  0  0
 22 27  1  0  0  0  0
 22 23  2  0  0  0  0
 23 24  1  0  0  0  0
 23 45  1  0  0  0  0
 24 25  2  0  0  0  0
 24 46  1  0  0  0  0
 25 26  1  0  0  0  0
 25 47  1  0  0  0  0
 26 27  2  0  0  0  0
 26 48  1  0  0  0  0
 27 28  1  0  0  0  0
M  END
> <s_m_source_file>
AV-unprocessed.smi

> <i_m_source_file_index>
283

> <i_lp_mmshare_version>
43012

> <i_f3d_flags>
0

> <s_epik_input>
Q2xjMVtjSF1bY0hdW2NIXVtjSF1jMVtDQEhdKFtDSDNdKVtOSF1jKG5bY0hdbjIpYyhjMjMpbltjSF1uM1tDQEBIXTRPW0NASF0oW0NIMl1bT0hdKVtDQEBIXShbT0hdKVtDQEhdNFtPSF0=

> <s_epik_cmdline>
J2VwaWtfcHl0aG9uJywgJy1waCcsICc3LjAnLCAnLXRuJywgJzgnLCAnLW1hJywgJzIwMCcsICctbWV0YWxfYmluZGluZycsICctaW1hZScsICc8aW5maWxlLm1hZT4nLCAnLW9tYWUnLCAnPG91dGZpbGUubWFlPic=

> <r_lp_tautomer_probability>
1

> <r_epik_Ionization_Penalty>
0.000266407

> <r_epik_Ionization_Penalty_Charging>
0

> <r_epik_Ionization_Penalty_Neutral>
0.000266407

> <r_epik_State_Penalty>
-0

> <r_epik_Charging_Adjusted_Penalty>
0

> <i_epik_Tot_Q>
0

> <i_epik_Tot_abs_Q>
0

> <r_epik_Metal_State_Penalty>
-0

> <b_epik_Metal_Only>
0

> <s_epik_Chemistry_Notes>
This compound contains an acetal/aminal-like group ( X-CH(R)-Y where X, Y are N, S, or O) that may be acid/base labile, releasing an aldehyde.

> <s_lp_Force_Field>
OPLS_2005

> <r_lp_Energy>
56.6736

> <b_lp_Chiralities_Consistent>
1

> <s_lp_Variant>
AV-unprocessed.smi:283-25

> <Gold.Version>
5.8.1

> <Gold.Id.Protein>
6NUR|6NUR_protein|mol2

> <Gold.PLP.Fitness>
49.0686

> <Gold.PLP.PLP>
-37.5692

> <Gold.PLP.part.hbond>
-4.0342

> <Gold.PLP.part.metal>
0.0000

> <Gold.PLP.part.buried>
-4.5777

> <Gold.PLP.part.nonpolar>
-28.8805

> <Gold.PLP.part.repulsive>
0.2234

> <Gold.PLP.ligand.clash>
0.2179

> <Gold.PLP.ligand.torsion>
1.6526

> <Gold.PLP.Chemscore.Hbond>
3.9913

> <Gold.PLP.Chemscore.CHOScore>
0.9933

> <Gold.PLP.Chemscore.Metal>
0.0000

> <Gold.Chemscore.Hbonds>
donor molecule, donor type, donor heavy atom, donor atom, acceptor molecule, acceptor atom, score
      L1  H     3    37       P1  8028  0.67
      L1  H    19    43       P1 10175  0.60
      L1  H    21    44       P1 10175  1.00
      L1  C    11    39       P1  7948  0.57

> <Gold.PLP.Chemscore.Internal.Correction>
0.0688

> <Gold.Rescore>
     Score         DG    S(hbond)    S(metal)    S(lipo)     H(rot)  DE(clash)    DE(int)     intcor
     17.55     -20.14       3.97        0.00     101.54       4.10       0.14       2.45       ----

> <Gold.Chemscore.Fitness>
17.5511

> <Gold.Chemscore.DG>
-20.1443

> <Gold.Chemscore.ZeroCoef>
-5.4800

> <Gold.Chemscore.Hbond>
3.9737

> <Gold.Chemscore.Metal>
0.0000

> <Gold.Chemscore.Lipo>
101.5389

> <Gold.Chemscore.Internal_Hbond>
0.0000

> <Gold.Chemscore.DEClash>
0.1416

> <Gold.Chemscore.DEInternal>
2.4516

> <Gold.Chemscore.Rot>
4.0968

> <Gold.Chemscore.Internal.Correction>
   9.000000E+99

> <Gold.Chemscore.Hbonds>
donor molecule, donor type, donor heavy atom, donor atom, acceptor molecule, acceptor atom, score
      L1  H     3    37       P1  8028  0.65
      L1  H    17    42       P1  7948  0.06
      L1  H    19    43       P1 10175  0.59
      L1  H    21    44       P1 10175  0.99

> <Gold.Chemscore.Hbond.Weighted>
-13.2721

> <Gold.Chemscore.Metal.Weighted>
-0.0000

> <Gold.Chemscore.Lipo.Weighted>
-11.8800

> <Gold.Chemscore.Internal_Hbond.Weighted>
0.0000

> <Gold.Chemscore.DEClash.Weighted>
0.1416

> <Gold.Chemscore.DEInternal.Weighted>
2.4516

> <Gold.Chemscore.Rot.Weighted>
10.4879

> <Gold.Chemscore.Internal.Correction.Weighted>
   9.000000E+99

> <Gold.Protein.RotatedTorsions>
[ 6907 6896 6895 6894 ] final  -97.10 input  -60.11 | X-H torsion
[ 7974 7965 7964 7962 ] final  -79.21 input  175.53 | X-H torsion
[ 8008 7997 7996 7995 ] final  -94.46 input   59.86 | X-H torsion
[ 10167 10162 10161 10158 ] final  164.61 input  -65.29 | X-H torsion
[ 10718 10713 10712 10709 ] final -146.45 input   66.30 | X-H torsion
[ 10763 10752 10751 10750 ] final -120.00 input  -60.55 | X-H torsion
[ 11005 11000 10999 10996 ] final   45.27 input  -57.11 | X-H torsion

> <Gold.Protein.ActiveResidues>
 VAL166  LYS551  ARG553  GLY616  TRP617  ASP618  TYR619  PRO620  LYS621  CYS622 
 ASP623  PHE694  ASN695  SER759  ASP760  ASP761  ALA762  ILE779  LEU786  VAL792 
 PHE793  MET794  SER795  GLU796  ALA797  LYS798  CYS799  TRP800  GLU811  SER814 

> <Gold.Protein.RotatedAtoms>
  150.7006  134.1401  159.4101 H   0  0  0  0  0  0  0  0  0  0  0  0  # atno 6907 bound_to 6896
  151.9386  135.0221  160.0543 H   0  0  0  0  0  0  0  0  0  0  0  0  # atno 6908 bound_to 6896
  152.2113  133.4878  159.5148 H   0  0  0  0  0  0  0  0  0  0  0  0  # atno 6909 bound_to 6896
  145.5763  140.9457  143.1368 H   0  0  0  0  0  0  0  0  0  0  0  0  # atno 7974 bound_to 7965
  154.7487  140.0489  157.0874 H   0  0  0  0  0  0  0  0  0  0  0  0  # atno 8008 bound_to 7997
  155.0085  140.3133  155.4819 H   0  0  0  0  0  0  0  0  0  0  0  0  # atno 8009 bound_to 7997
  156.2880  140.2188  156.5199 H   0  0  0  0  0  0  0  0  0  0  0  0  # atno 8010 bound_to 7997
  139.4892  144.4218  151.9178 H   0  0  0  0  0  0  0  0  0  0  0  0  # atno 10167 bound_to 10162
  156.3950  130.7905  151.2111 H   0  0  0  0  0  0  0  0  0  0  0  0  # atno 10718 bound_to 10713
  154.8633  135.4218  154.2390 H   0  0  0  0  0  0  0  0  0  0  0  0  # atno 10763 bound_to 10752
  153.3359  135.6991  153.6914 H   0  0  0  0  0  0  0  0  0  0  0  0  # atno 10764 bound_to 10752
  153.5912  135.3554  155.2884 H   0  0  0  0  0  0  0  0  0  0  0  0  # atno 10765 bound_to 10752
  140.1475  134.4504  155.8405 H   0  0  0  0  0  0  0  0  0  0  0  0  # atno 11005 bound_to 11000
  144.7414  139.7438  143.7309 LP  0  0  0  0  0  0  0  0  0  0  0  0  # atno 17320 bound_to 7965
  146.1748  139.4914  142.9904 LP  0  0  0  0  0  0  0  0  0  0  0  0  # atno 17321 bound_to 7965
  140.3662  144.2912  150.5926 LP  0  0  0  0  0  0  0  0  0  0  0  0  # atno 17342 bound_to 10162
  140.5359  143.2233  151.8163 LP  0  0  0  0  0  0  0  0  0  0  0  0  # atno 17343 bound_to 10162
  157.7501  131.0304  150.4135 LP  0  0  0  0  0  0  0  0  0  0  0  0  # atno 17370 bound_to 10713
  156.4404  130.3990  149.6701 LP  0  0  0  0  0  0  0  0  0  0  0  0  # atno 17371 bound_to 10713
  141.2194  133.6858  156.7360 LP  0  0  0  0  0  0  0  0  0  0  0  0  # atno 17394 bound_to 11000
  140.2646  134.8440  157.3790 LP  0  0  0  0  0  0  0  0  0  0  0  0  # atno 17395 bound_to 11000

$$$$
