AV-unprocessed.smi:3224|AV-procd|sdf|12309|dock1
  -GOLD-   2272018153D 1   1.00000     0.00000
 Structure written by MMmdl.
 31 32  0  0  0  0  0  0  0  0  1 V2000
  150.8111  140.1426  155.0411 C   0  0  0  0  0  0  0  0  0  0  0  0
  149.5040  140.9164  155.3187 C   0  0  0  0  0  0  0  0  0  0  0  0
  149.8023  142.1628  156.0409 N   0  0  0  0  0  0  0  0  0  0  0  0
  150.5286  142.3292  157.1593 C   0  0  0  0  0  0  0  0  0  0  0  0
  151.0770  141.4106  157.7683 O   0  0  0  0  0  0  0  0  0  0  0  0
  150.5727  143.6257  157.5132 N   0  0  0  0  0  0  0  0  0  0  0  0
  151.2089  144.2072  158.6412 C   0  0  0  0  0  0  0  0  0  0  0  0
  151.2503  145.5214  158.8906 N   0  0  0  0  0  0  0  0  0  0  0  0
  151.9474  145.8104  160.0664 C   0  0  0  0  0  0  0  0  0  0  0  0
  152.4331  144.6962  160.7045 C   0  0  0  0  0  0  0  0  0  0  0  0
  152.0312  143.2310  159.8493 S   0  0  0  0  0  0  0  0  0  0  0  0
  148.7365  141.1854  154.0013 C   0  0  0  0  0  0  0  0  0  0  0  0
  147.3287  141.7512  154.2597 C   0  0  0  0  0  0  0  0  0  0  0  0
  146.5919  140.8564  155.0848 O   0  0  0  0  0  0  0  0  0  0  0  0
  147.1817  140.6712  156.3659 C   0  0  0  0  0  0  0  0  0  0  0  0
  148.5873  140.0581  156.2173 C   0  0  0  0  0  0  0  0  0  0  0  0
  150.6057  139.1729  154.5867 H   0  0  0  0  0  0  0  0  0  0  0  0
  151.3679  139.9607  155.9608 H   0  0  0  0  0  0  0  0  0  0  0  0
  151.4679  140.6796  154.3569 H   0  0  0  0  0  0  0  0  0  0  0  0
  149.4060  142.9979  155.6353 H   0  0  0  0  0  0  0  0  0  0  0  0
  150.0839  144.2717  156.9113 H   0  0  0  0  0  0  0  0  0  0  0  0
  152.0511  146.8399  160.3758 H   0  0  0  0  0  0  0  0  0  0  0  0
  153.0012  144.6494  161.6216 H   0  0  0  0  0  0  0  0  0  0  0  0
  149.2918  141.8551  153.3452 H   0  0  0  0  0  0  0  0  0  0  0  0
  148.6340  140.2509  153.4478 H   0  0  0  0  0  0  0  0  0  0  0  0
  147.3779  142.7375  154.7233 H   0  0  0  0  0  0  0  0  0  0  0  0
  146.7970  141.8728  153.3160 H   0  0  0  0  0  0  0  0  0  0  0  0
  147.2182  141.6207  156.9019 H   0  0  0  0  0  0  0  0  0  0  0  0
  146.5452  140.0060  156.9495 H   0  0  0  0  0  0  0  0  0  0  0  0
  148.4832  139.0605  155.7877 H   0  0  0  0  0  0  0  0  0  0  0  0
  149.0379  139.9179  157.2010 H   0  0  0  0  0  0  0  0  0  0  0  0
  1  2  1  0  0  0  0
  1 17  1  0  0  0  0
  1 18  1  0  0  0  0
  1 19  1  0  0  0  0
  2 16  1  0  0  0  0
  2  3  1  0  0  0  0
  2 12  1  0  0  0  0
  3  4  1  0  0  0  0
  3 20  1  0  0  0  0
  4  5  2  0  0  0  0
  4  6  1  0  0  0  0
  6  7  1  0  0  0  0
  6 21  1  0  0  0  0
  7 11  1  0  0  0  0
  7  8  2  0  0  0  0
  8  9  1  0  0  0  0
  9 10  2  0  0  0  0
  9 22  1  0  0  0  0
 10 11  1  0  0  0  0
 10 23  1  0  0  0  0
 12 13  1  0  0  0  0
 12 24  1  0  0  0  0
 12 25  1  0  0  0  0
 13 14  1  0  0  0  0
 13 26  1  0  0  0  0
 13 27  1  0  0  0  0
 14 15  1  0  0  0  0
 15 16  1  0  0  0  0
 15 28  1  0  0  0  0
 15 29  1  0  0  0  0
 16 30  1  0  0  0  0
 16 31  1  0  0  0  0
M  END
> <s_m_source_file>
AV-unprocessed.smi

> <i_m_source_file_index>
3224

> <i_lp_mmshare_version>
43012

> <i_f3d_flags>
0

> <s_epik_input>
W0NIMl0xW0NIMl1PW0NIMl1bQ0gyXUMxKFtDSDNdKVtOSF1DKD1PKVtOSF1jMm5bY0hdW2NIXXMy

> <s_epik_cmdline>
J2VwaWtfcHl0aG9uJywgJy1waCcsICc3LjAnLCAnLXRuJywgJzgnLCAnLW1hJywgJzIwMCcsICctbWV0YWxfYmluZGluZycsICctaW1hZScsICc8aW5maWxlLm1hZT4nLCAnLW9tYWUnLCAnPG91dGZpbGUubWFlPic=

> <r_lp_tautomer_probability>
1

> <r_epik_Ionization_Penalty>
0.000150899

> <r_epik_Ionization_Penalty_Charging>
0

> <r_epik_Ionization_Penalty_Neutral>
0.000150899

> <r_epik_State_Penalty>
-0

> <r_epik_Charging_Adjusted_Penalty>
0

> <i_epik_Tot_Q>
0

> <i_epik_Tot_abs_Q>
0

> <r_epik_Metal_State_Penalty>
0.0306338

> <b_epik_Metal_Only>
0

> <s_lp_Force_Field>
OPLS_2005

> <r_lp_Energy>
7.54186

> <b_lp_Chiralities_Consistent>
1

> <s_lp_Variant>
AV-unprocessed.smi:3224-1

> <Gold.Version>
5.8.1

> <Gold.Id.Protein>
6NUR|6NUR_protein|mol2

> <Gold.PLP.Fitness>
36.5538

> <Gold.PLP.PLP>
-30.6993

> <Gold.PLP.part.hbond>
-2.9839

> <Gold.PLP.part.metal>
0.0000

> <Gold.PLP.part.buried>
-3.1251

> <Gold.PLP.part.nonpolar>
-24.3949

> <Gold.PLP.part.repulsive>
0.3629

> <Gold.PLP.ligand.clash>
0.0000

> <Gold.PLP.ligand.torsion>
0.0761

> <Gold.PLP.Chemscore.Hbond>
2.0000

> <Gold.PLP.Chemscore.CHOScore>
0.0000

> <Gold.PLP.Chemscore.Metal>
0.0000

> <Gold.Chemscore.Hbonds>
donor molecule, donor type, donor heavy atom, donor atom, acceptor molecule, acceptor atom, score
      L1  H     3    20       P1  8028  1.00
      L1  H     6    21       P1  8028  1.00

> <Gold.PLP.Chemscore.Internal.Correction>
0.0067

> <Gold.Rescore>
     Score         DG    S(hbond)    S(metal)    S(lipo)     H(rot)  DE(clash)    DE(int)     intcor
     15.79     -17.04       1.92        0.00      65.86       1.00       0.02       1.22       ----

> <Gold.Chemscore.Fitness>
15.7946

> <Gold.Chemscore.DG>
-17.0353

> <Gold.Chemscore.ZeroCoef>
-5.4800

> <Gold.Chemscore.Hbond>
1.9190

> <Gold.Chemscore.Metal>
0.0000

> <Gold.Chemscore.Lipo>
65.8632

> <Gold.Chemscore.Internal_Hbond>
0.0000

> <Gold.Chemscore.DEClash>
0.0186

> <Gold.Chemscore.DEInternal>
1.2221

> <Gold.Chemscore.Rot>
1.0000

> <Gold.Chemscore.Internal.Correction>
   9.000000E+99

> <Gold.Chemscore.Hbonds>
donor molecule, donor type, donor heavy atom, donor atom, acceptor molecule, acceptor atom, score
      L1  H     3    20       P1  8028  0.98
      L1  H     6    21       P1  8028  0.87

> <Gold.Chemscore.Hbond.Weighted>
-6.4094

> <Gold.Chemscore.Metal.Weighted>
-0.0000

> <Gold.Chemscore.Lipo.Weighted>
-7.7060

> <Gold.Chemscore.Internal_Hbond.Weighted>
0.0000

> <Gold.Chemscore.DEClash.Weighted>
0.0186

> <Gold.Chemscore.DEInternal.Weighted>
1.2221

> <Gold.Chemscore.Rot.Weighted>
2.5600

> <Gold.Chemscore.Internal.Correction.Weighted>
   9.000000E+99

> <Gold.Protein.RotatedTorsions>
[ 6907 6896 6895 6894 ] final   93.36 input  -60.11 | X-H torsion
[ 7974 7965 7964 7962 ] final -175.62 input  175.53 | X-H torsion
[ 8008 7997 7996 7995 ] final -140.43 input   59.86 | X-H torsion
[ 10167 10162 10161 10158 ] final  -92.96 input  -65.29 | X-H torsion
[ 10718 10713 10712 10709 ] final  -66.42 input   66.30 | X-H torsion
[ 10763 10752 10751 10750 ] final  -74.40 input  -60.55 | X-H torsion
[ 11005 11000 10999 10996 ] final  171.42 input  -57.11 | X-H torsion

> <Gold.Protein.ActiveResidues>
 VAL166  LYS551  ARG553  GLY616  TRP617  ASP618  TYR619  PRO620  LYS621  CYS622 
 ASP623  PHE694  ASN695  SER759  ASP760  ASP761  ALA762  ILE779  LEU786  VAL792 
 PHE793  MET794  SER795  GLU796  ALA797  LYS798  CYS799  TRP800  GLU811  SER814 

> <Gold.Protein.RotatedAtoms>
  152.5452  134.1360  159.8458 H   0  0  0  0  0  0  0  0  0  0  0  0  # atno 6907 bound_to 6896
  151.1400  133.4970  159.2604 H   0  0  0  0  0  0  0  0  0  0  0  0  # atno 6908 bound_to 6896
  151.1583  135.0271  159.8753 H   0  0  0  0  0  0  0  0  0  0  0  0  # atno 6909 bound_to 6896
  144.7128  140.1293  143.6400 H   0  0  0  0  0  0  0  0  0  0  0  0  # atno 7974 bound_to 7965
  155.4613  140.0546  157.2990 H   0  0  0  0  0  0  0  0  0  0  0  0  # atno 8008 bound_to 7997
  154.4736  140.2051  155.9888 H   0  0  0  0  0  0  0  0  0  0  0  0  # atno 8009 bound_to 7997
  156.1096  140.3206  155.8059 H   0  0  0  0  0  0  0  0  0  0  0  0  # atno 8010 bound_to 7997
  140.3295  143.3003  151.9957 H   0  0  0  0  0  0  0  0  0  0  0  0  # atno 10167 bound_to 10162
  156.0613  130.4262  150.1706 H   0  0  0  0  0  0  0  0  0  0  0  0  # atno 10718 bound_to 10713
  154.4726  135.5865  153.6332 H   0  0  0  0  0  0  0  0  0  0  0  0  # atno 10763 bound_to 10752
  152.9836  135.6070  154.3348 H   0  0  0  0  0  0  0  0  0  0  0  0  # atno 10764 bound_to 10752
  154.3231  135.2843  155.2489 H   0  0  0  0  0  0  0  0  0  0  0  0  # atno 10765 bound_to 10752
  140.3188  134.7454  157.4048 H   0  0  0  0  0  0  0  0  0  0  0  0  # atno 11005 bound_to 11000
  145.9301  139.2601  143.1330 LP  0  0  0  0  0  0  0  0  0  0  0  0  # atno 17320 bound_to 7965
  145.9531  140.8893  143.0249 LP  0  0  0  0  0  0  0  0  0  0  0  0  # atno 17321 bound_to 7965
  139.4859  144.6246  151.7189 LP  0  0  0  0  0  0  0  0  0  0  0  0  # atno 17342 bound_to 10162
  140.5410  144.0579  150.6088 LP  0  0  0  0  0  0  0  0  0  0  0  0  # atno 17343 bound_to 10162
  156.9774  130.9853  151.3445 LP  0  0  0  0  0  0  0  0  0  0  0  0  # atno 17370 bound_to 10713
  157.5624  130.8255  149.8283 LP  0  0  0  0  0  0  0  0  0  0  0  0  # atno 17371 bound_to 10713
  140.0960  134.5537  155.8398 LP  0  0  0  0  0  0  0  0  0  0  0  0  # atno 17394 bound_to 11000
  141.2091  133.6680  156.6418 LP  0  0  0  0  0  0  0  0  0  0  0  0  # atno 17395 bound_to 11000

$$$$
