AV-unprocessed.smi:1697|AV-procd|sdf|6804|dock7
  -GOLD-   22720 7573D 1   1.00000     0.00000
 Structure written by MMmdl.
 54 56  0  0  0  0  0  0  0  0  2 V2000
  142.2329  145.1910  154.8853 C   0  0  0  0  0  0  0  0  0  0  0  0
  143.1546  145.8579  155.9159 C   0  0  0  0  0  0  0  0  0  0  0  0
  143.9899  144.9164  156.5786 O   0  0  0  0  0  0  0  0  0  0  0  0
  144.5063  143.8761  155.7577 C   0  0  2  0  0  0  0  0  0  0  0  0
  145.5866  143.1240  156.5474 C   0  0  0  0  0  0  0  0  0  0  0  0
  146.2833  142.0733  155.6662 C   0  0  0  0  0  0  0  0  0  0  0  0
  146.8666  142.6952  154.4491 N   0  3  1  0  0  0  0  0  0  0  0  0
  147.6633  141.7321  153.6462 C   0  0  0  0  0  0  0  0  0  0  0  0
  148.5652  140.8436  154.5246 C   0  0  1  0  0  0  0  0  0  0  0  0
  148.7647  139.6053  153.8694 O   0  0  0  0  0  0  0  0  0  0  0  0
  149.9318  141.4994  154.7996 C   0  0  0  0  0  0  0  0  0  0  0  0
  150.5822  140.9420  155.9715 N   0  0  0  0  0  0  0  0  0  0  0  0
  150.7834  139.6405  156.2545 C   0  0  0  0  0  0  0  0  0  0  0  0
  151.4005  139.3548  157.3974 N   0  0  0  0  0  0  0  0  0  0  0  0
  151.6287  140.6183  157.9155 C   0  0  0  0  0  0  0  0  0  0  0  0
  152.2488  141.0188  159.1191 C   0  0  0  0  0  0  0  0  0  0  0  0
  152.3727  142.3872  159.4502 C   0  0  0  0  0  0  0  0  0  0  0  0
  153.0441  142.7730  160.7565 C   0  0  0  0  0  0  0  0  0  0  0  0
  151.8730  143.3799  158.5692 C   0  0  0  0  0  0  0  0  0  0  0  0
  151.9945  144.8559  158.9042 C   0  0  0  0  0  0  0  0  0  0  0  0
  151.2513  142.9972  157.3624 C   0  0  0  0  0  0  0  0  0  0  0  0
  151.1319  141.6325  157.0459 C   0  0  0  0  0  0  0  0  0  0  0  0
  145.8337  143.4114  153.6526 C   0  0  0  0  0  0  0  0  0  0  0  0
  145.1338  144.4888  154.4961 C   0  0  0  0  0  0  0  0  0  0  0  0
  141.6701  145.9413  154.3298 H   0  0  0  0  0  0  0  0  0  0  0  0
  141.5106  144.5271  155.3596 H   0  0  0  0  0  0  0  0  0  0  0  0
  142.8077  144.6069  154.1663 H   0  0  0  0  0  0  0  0  0  0  0  0
  143.8046  146.5664  155.4021 H   0  0  0  0  0  0  0  0  0  0  0  0
  142.5792  146.4363  156.6401 H   0  0  0  0  0  0  0  0  0  0  0  0
  143.7280  143.1659  155.4709 H   0  0  0  0  0  0  0  0  0  0  0  0
  146.3269  143.8304  156.9259 H   0  0  0  0  0  0  0  0  0  0  0  0
  145.1427  142.6439  157.4202 H   0  0  0  0  0  0  0  0  0  0  0  0
  147.0701  141.5889  156.2456 H   0  0  0  0  0  0  0  0  0  0  0  0
  145.5761  141.2945  155.3757 H   0  0  0  0  0  0  0  0  0  0  0  0
  146.9999  141.0870  153.0674 H   0  0  0  0  0  0  0  0  0  0  0  0
  148.2592  142.2832  152.9171 H   0  0  0  0  0  0  0  0  0  0  0  0
  148.0807  140.6435  155.4796 H   0  0  0  0  0  0  0  0  0  0  0  0
  149.3530  139.7376  153.1414 H   0  0  0  0  0  0  0  0  0  0  0  0
  150.5945  141.3877  153.9401 H   0  0  0  0  0  0  0  0  0  0  0  0
  149.8088  142.5709  154.9621 H   0  0  0  0  0  0  0  0  0  0  0  0
  150.4537  138.8578  155.5868 H   0  0  0  0  0  0  0  0  0  0  0  0
  152.6291  140.2627  159.7902 H   0  0  0  0  0  0  0  0  0  0  0  0
  152.3477  143.3135  161.3979 H   0  0  0  0  0  0  0  0  0  0  0  0
  153.9091  143.4094  160.5693 H   0  0  0  0  0  0  0  0  0  0  0  0
  153.3887  141.8944  161.3023 H   0  0  0  0  0  0  0  0  0  0  0  0
  151.5548  145.4783  158.1245 H   0  0  0  0  0  0  0  0  0  0  0  0
  153.0420  145.1396  159.0073 H   0  0  0  0  0  0  0  0  0  0  0  0
  151.4812  145.0791  159.8396 H   0  0  0  0  0  0  0  0  0  0  0  0
  150.8665  143.7425  156.6823 H   0  0  0  0  0  0  0  0  0  0  0  0
  146.2831  143.8855  152.7810 H   0  0  0  0  0  0  0  0  0  0  0  0
  145.1002  142.6961  153.2772 H   0  0  0  0  0  0  0  0  0  0  0  0
  144.3720  144.9889  153.8984 H   0  0  0  0  0  0  0  0  0  0  0  0
  145.8560  145.2562  154.7782 H   0  0  0  0  0  0  0  0  0  0  0  0
  147.5204  143.3921  154.7782 H   0  0  0  0  0  0  0  0  0  0  0  0
  1  2  1  0  0  0  0
  1 25  1  0  0  0  0
  1 26  1  0  0  0  0
  1 27  1  0  0  0  0
  2  3  1  0  0  0  0
  2 28  1  0  0  0  0
  2 29  1  0  0  0  0
  3  4  1  0  0  0  0
  4 24  1  0  0  0  0
  4  5  1  0  0  0  0
  4 30  1  0  0  0  0
  5  6  1  0  0  0  0
  5 31  1  0  0  0  0
  5 32  1  0  0  0  0
  6  7  1  0  0  0  0
  6 33  1  0  0  0  0
  6 34  1  0  0  0  0
  7  8  1  0  0  0  0
  7 23  1  0  0  0  0
  7 54  1  0  0  0  0
  8  9  1  0  0  0  0
  8 35  1  0  0  0  0
  8 36  1  0  0  0  0
  9 10  1  0  0  0  0
  9 11  1  0  0  0  0
  9 37  1  0  0  0  0
 10 38  1  0  0  0  0
 11 12  1  0  0  0  0
 11 39  1  0  0  0  0
 11 40  1  0  0  0  0
 12 22  1  0  0  0  0
 12 13  1  0  0  0  0
 13 14  2  0  0  0  0
 13 41  1  0  0  0  0
 14 15  1  0  0  0  0
 15 22  2  0  0  0  0
 15 16  1  0  0  0  0
 16 17  2  0  0  0  0
 16 42  1  0  0  0  0
 17 18  1  0  0  0  0
 17 19  1  0  0  0  0
 18 43  1  0  0  0  0
 18 44  1  0  0  0  0
 18 45  1  0  0  0  0
 19 20  1  0  0  0  0
 19 21  2  0  0  0  0
 20 46  1  0  0  0  0
 20 47  1  0  0  0  0
 20 48  1  0  0  0  0
 21 22  1  0  0  0  0
 21 49  1  0  0  0  0
 23 24  1  0  0  0  0
 23 50  1  0  0  0  0
 23 51  1  0  0  0  0
 24 52  1  0  0  0  0
 24 53  1  0  0  0  0
M  CHG  1   7   1
M  END
> <s_m_source_file>
AV-unprocessed.smi

> <i_m_source_file_index>
1697

> <i_lp_mmshare_version>
43012

> <i_f3d_flags>
0

> <s_epik_input>
W0NIM11bQ0gyXU9bQ0hdMVtDSDJdW0NIMl1OKFtDSDJdW0NIMl0xKVtDSDJdW0NASF0oW09IXSlbQ0gyXW4oW2NIXW4yKWMoYzIzKVtjSF1jKFtDSDNdKWMoW2NIXTMpW0NIM10=

> <s_epik_cmdline>
J2VwaWtfcHl0aG9uJywgJy1waCcsICc3LjAnLCAnLXRuJywgJzgnLCAnLW1hJywgJzIwMCcsICctbWV0YWxfYmluZGluZycsICctaW1hZScsICc8aW5maWxlLm1hZT4nLCAnLW9tYWUnLCAnPG91dGZpbGUubWFlPic=

> <r_epik_Ionization_Penalty>
0.112476

> <r_epik_Ionization_Penalty_Charging>
0.0244612

> <r_epik_Ionization_Penalty_Neutral>
0.0880147

> <r_epik_State_Penalty>
0.0961447

> <r_epik_Charging_Adjusted_Penalty>
0.120606

> <i_epik_Tot_Q>
1

> <i_epik_Tot_abs_Q>
1

> <r_epik_Metal_State_Penalty>
0.0206204

> <b_epik_Metal_Only>
0

> <s_lp_Force_Field>
OPLS_2005

> <r_lp_Energy>
24.3812

> <b_lp_Chiralities_Consistent>
1

> <s_lp_Variant>
AV-unprocessed.smi:1697-2

> <Gold.Version>
5.8.1

> <Gold.Id.Protein>
6NUR|6NUR_protein|mol2

> <Gold.PLP.Fitness>
54.7630

> <Gold.PLP.PLP>
-47.3423

> <Gold.PLP.part.hbond>
-1.9748

> <Gold.PLP.part.metal>
0.0000

> <Gold.PLP.part.buried>
-6.1134

> <Gold.PLP.part.nonpolar>
-38.8932

> <Gold.PLP.part.repulsive>
0.1852

> <Gold.PLP.ligand.clash>
0.0000

> <Gold.PLP.ligand.torsion>
0.8665

> <Gold.PLP.Chemscore.Hbond>
2.9920

> <Gold.PLP.Chemscore.CHOScore>
0.0000

> <Gold.PLP.Chemscore.Metal>
0.0000

> <Gold.Chemscore.Hbonds>
donor molecule, donor type, donor heavy atom, donor atom, acceptor molecule, acceptor atom, score
      L1  H     7    54       P1  8028  1.92
      L1  H    10    38       P1  7957  0.98

> <Gold.PLP.Chemscore.Internal.Correction>
0.1778

> <Gold.Rescore>
     Score         DG    S(hbond)    S(metal)    S(lipo)     H(rot)  DE(clash)    DE(int)     intcor
     16.50     -17.76       0.84        0.00     130.62       2.27       0.51       0.75       ----

> <Gold.Chemscore.Fitness>
16.5023

> <Gold.Chemscore.DG>
-17.7593

> <Gold.Chemscore.ZeroCoef>
-5.4800

> <Gold.Chemscore.Hbond>
0.8414

> <Gold.Chemscore.Metal>
0.0000

> <Gold.Chemscore.Lipo>
130.6229

> <Gold.Chemscore.Internal_Hbond>
0.0000

> <Gold.Chemscore.DEClash>
0.5111

> <Gold.Chemscore.DEInternal>
0.7460

> <Gold.Chemscore.Rot>
2.2710

> <Gold.Chemscore.Internal.Correction>
   9.000000E+99

> <Gold.Chemscore.Hbonds>
donor molecule, donor type, donor heavy atom, donor atom, acceptor molecule, acceptor atom, score
      L1  H     7    54       P1  8028  0.23
      L1  H    10    38       P1  7957  0.88

> <Gold.Chemscore.Hbond.Weighted>
-2.8101

> <Gold.Chemscore.Metal.Weighted>
-0.0000

> <Gold.Chemscore.Lipo.Weighted>
-15.2829

> <Gold.Chemscore.Internal_Hbond.Weighted>
0.0000

> <Gold.Chemscore.DEClash.Weighted>
0.5111

> <Gold.Chemscore.DEInternal.Weighted>
0.7460

> <Gold.Chemscore.Rot.Weighted>
5.8137

> <Gold.Chemscore.Internal.Correction.Weighted>
   9.000000E+99

> <Gold.Protein.RotatedTorsions>
[ 6907 6896 6895 6894 ] final  118.86 input  -60.11 | X-H torsion
[ 7974 7965 7964 7962 ] final -145.20 input  175.53 | X-H torsion
[ 8008 7997 7996 7995 ] final   19.68 input   59.86 | X-H torsion
[ 10167 10162 10161 10158 ] final  172.32 input  -65.29 | X-H torsion
[ 10718 10713 10712 10709 ] final -156.10 input   66.30 | X-H torsion
[ 10763 10752 10751 10750 ] final  -43.72 input  -60.55 | X-H torsion
[ 11005 11000 10999 10996 ] final  -73.01 input  -57.11 | X-H torsion

> <Gold.Protein.ActiveResidues>
 VAL166  LYS551  ARG553  GLY616  TRP617  ASP618  TYR619  PRO620  LYS621  CYS622 
 ASP623  PHE694  ASN695  SER759  ASP760  ASP761  ALA762  ILE779  LEU786  VAL792 
 PHE793  MET794  SER795  GLU796  ALA797  LYS798  CYS799  TRP800  GLU811  SER814 

> <Gold.Protein.RotatedAtoms>
  152.4513  133.7635  159.6759 H   0  0  0  0  0  0  0  0  0  0  0  0  # atno 6907 bound_to 6896
  150.8426  133.7902  159.3061 H   0  0  0  0  0  0  0  0  0  0  0  0  # atno 6908 bound_to 6896
  151.5522  135.1070  160.0004 H   0  0  0  0  0  0  0  0  0  0  0  0  # atno 6909 bound_to 6896
  144.8244  140.5613  143.5557 H   0  0  0  0  0  0  0  0  0  0  0  0  # atno 7974 bound_to 7965
  154.9243  140.3031  155.5200 H   0  0  0  0  0  0  0  0  0  0  0  0  # atno 8008 bound_to 7997
  156.3008  140.2365  156.4232 H   0  0  0  0  0  0  0  0  0  0  0  0  # atno 8009 bound_to 7997
  154.8300  140.0419  157.1459 H   0  0  0  0  0  0  0  0  0  0  0  0  # atno 8010 bound_to 7997
  139.5073  144.3387  152.0040 H   0  0  0  0  0  0  0  0  0  0  0  0  # atno 10167 bound_to 10162
  156.5219  130.8482  151.2685 H   0  0  0  0  0  0  0  0  0  0  0  0  # atno 10718 bound_to 10713
  154.0002  135.6694  153.4759 H   0  0  0  0  0  0  0  0  0  0  0  0  # atno 10763 bound_to 10752
  153.0665  135.4998  154.8208 H   0  0  0  0  0  0  0  0  0  0  0  0  # atno 10764 bound_to 10752
  154.7057  135.3087  154.9237 H   0  0  0  0  0  0  0  0  0  0  0  0  # atno 10765 bound_to 10752
  141.1617  133.6864  156.7146 H   0  0  0  0  0  0  0  0  0  0  0  0  # atno 11005 bound_to 11000
  145.5033  139.1482  143.3645 LP  0  0  0  0  0  0  0  0  0  0  0  0  # atno 17320 bound_to 7965
  146.2549  140.5173  142.8878 LP  0  0  0  0  0  0  0  0  0  0  0  0  # atno 17321 bound_to 7965
  140.2825  144.3844  150.6114 LP  0  0  0  0  0  0  0  0  0  0  0  0  # atno 17342 bound_to 10162
  140.6007  143.2167  151.7077 LP  0  0  0  0  0  0  0  0  0  0  0  0  # atno 17343 bound_to 10162
  157.7435  130.9914  150.2601 LP  0  0  0  0  0  0  0  0  0  0  0  0  # atno 17370 bound_to 10713
  156.3141  130.3776  149.7634 LP  0  0  0  0  0  0  0  0  0  0  0  0  # atno 17371 bound_to 10713
  140.2861  134.8278  157.3976 LP  0  0  0  0  0  0  0  0  0  0  0  0  # atno 17394 bound_to 11000
  140.1389  134.4998  155.8047 LP  0  0  0  0  0  0  0  0  0  0  0  0  # atno 17395 bound_to 11000

$$$$
