AV-unprocessed.smi:1531|AV-procd|sdf|6157|dock10
  -GOLD-   22720 6303D 1   1.00000     0.00000
 Structure written by MMmdl.
 44 45  0  0  0  0  0  0  0  0  1 V2000
  150.5544  133.6667  155.7575 C   0  0  0  0  0  0  0  0  0  0  0  0
  149.3842  134.6466  155.9216 C   0  0  0  0  0  0  0  0  0  0  0  0
  149.7734  136.1322  155.7449 C   0  0  1  0  0  0  0  0  0  0  0  0
  150.9648  136.2755  154.7724 C   0  0  0  0  0  0  0  0  0  0  0  0
  151.4081  137.7391  154.6195 C   0  0  0  0  0  0  0  0  0  0  0  0
  150.2421  138.6311  154.1710 C   0  0  0  0  0  0  0  0  0  0  0  0
  149.0495  138.5075  155.1331 C   0  0  0  0  0  0  0  0  0  0  0  0
  148.5942  137.0449  155.3145 C   0  0  1  0  0  0  0  0  0  0  0  0
  147.9629  136.5520  154.0893 N   0  0  0  0  0  0  0  0  0  0  0  0
  146.8237  135.8494  154.0179 C   0  0  0  0  0  0  0  0  0  0  0  0
  146.1499  135.5337  154.9987 O   0  0  0  0  0  0  0  0  0  0  0  0
  146.5238  135.5437  152.7452 N   0  0  0  0  0  0  0  0  0  0  0  0
  145.4226  134.7826  152.2791 C   0  0  0  0  0  0  0  0  0  0  0  0
  144.0760  134.9766  152.6822 C   0  0  0  0  0  0  0  0  0  0  0  0
  143.2663  134.1233  152.0741 N   0  0  0  0  0  0  0  0  0  0  0  0
  144.0732  133.3777  151.2779 N   0  0  0  0  0  0  0  0  0  0  0  0
  143.4995  132.3330  150.4484 C   0  0  0  0  0  0  0  0  0  0  0  0
  143.7375  132.6129  148.9631 C   0  0  0  0  0  0  0  0  0  0  0  0
  142.7748  133.2618  148.3019 N   0  0  0  0  0  0  0  0  0  0  0  0
  144.7779  132.2496  148.4189 O   0  0  0  0  0  0  0  0  0  0  0  0
  145.3985  133.7538  151.3809 C   0  0  0  0  0  0  0  0  0  0  0  0
  150.2013  132.6360  155.7957 H   0  0  0  0  0  0  0  0  0  0  0  0
  151.2930  133.7860  156.5503 H   0  0  0  0  0  0  0  0  0  0  0  0
  151.0584  133.8093  154.8014 H   0  0  0  0  0  0  0  0  0  0  0  0
  148.6253  134.3928  155.1808 H   0  0  0  0  0  0  0  0  0  0  0  0
  148.9129  134.4893  156.8923 H   0  0  0  0  0  0  0  0  0  0  0  0
  150.1162  136.4885  156.7178 H   0  0  0  0  0  0  0  0  0  0  0  0
  151.8076  135.6808  155.1265 H   0  0  0  0  0  0  0  0  0  0  0  0
  150.6978  135.8722  153.7947 H   0  0  0  0  0  0  0  0  0  0  0  0
  151.8024  138.1027  155.5693 H   0  0  0  0  0  0  0  0  0  0  0  0
  152.2248  137.8069  153.9001 H   0  0  0  0  0  0  0  0  0  0  0  0
  150.5689  139.6698  154.1180 H   0  0  0  0  0  0  0  0  0  0  0  0
  149.9338  138.3538  153.1622 H   0  0  0  0  0  0  0  0  0  0  0  0
  149.3342  138.9145  156.1043 H   0  0  0  0  0  0  0  0  0  0  0  0
  148.2199  139.1219  154.7806 H   0  0  0  0  0  0  0  0  0  0  0  0
  147.8591  137.0395  156.1206 H   0  0  0  0  0  0  0  0  0  0  0  0
  148.4410  136.7619  153.2253 H   0  0  0  0  0  0  0  0  0  0  0  0
  147.1570  135.8808  152.0349 H   0  0  0  0  0  0  0  0  0  0  0  0
  143.6671  135.6929  153.3795 H   0  0  0  0  0  0  0  0  0  0  0  0
  143.9435  131.3767  150.7284 H   0  0  0  0  0  0  0  0  0  0  0  0
  142.4289  132.2584  150.6464 H   0  0  0  0  0  0  0  0  0  0  0  0
  142.8878  133.4722  147.3209 H   0  0  0  0  0  0  0  0  0  0  0  0
  141.9362  133.5430  148.7893 H   0  0  0  0  0  0  0  0  0  0  0  0
  146.1782  133.2668  150.8140 H   0  0  0  0  0  0  0  0  0  0  0  0
  1  2  1  0  0  0  0
  1 22  1  0  0  0  0
  1 23  1  0  0  0  0
  1 24  1  0  0  0  0
  2  3  1  0  0  0  0
  2 25  1  0  0  0  0
  2 26  1  0  0  0  0
  3  8  1  0  0  0  0
  3  4  1  0  0  0  0
  3 27  1  0  0  0  0
  4  5  1  0  0  0  0
  4 28  1  0  0  0  0
  4 29  1  0  0  0  0
  5  6  1  0  0  0  0
  5 30  1  0  0  0  0
  5 31  1  0  0  0  0
  6  7  1  0  0  0  0
  6 32  1  0  0  0  0
  6 33  1  0  0  0  0
  7  8  1  0  0  0  0
  7 34  1  0  0  0  0
  7 35  1  0  0  0  0
  8  9  1  0  0  0  0
  8 36  1  0  0  0  0
  9 10  1  0  0  0  0
  9 37  1  0  0  0  0
 10 11  2  0  0  0  0
 10 12  1  0  0  0  0
 12 13  1  0  0  0  0
 12 38  1  0  0  0  0
 13 21  2  0  0  0  0
 13 14  1  0  0  0  0
 14 15  2  0  0  0  0
 14 39  1  0  0  0  0
 15 16  1  0  0  0  0
 16 17  1  0  0  0  0
 16 21  1  0  0  0  0
 17 18  1  0  0  0  0
 17 40  1  0  0  0  0
 17 41  1  0  0  0  0
 18 19  1  0  0  0  0
 18 20  2  0  0  0  0
 19 42  1  0  0  0  0
 19 43  1  0  0  0  0
 21 44  1  0  0  0  0
M  END
> <s_m_source_file>
AV-unprocessed.smi

> <i_m_source_file_index>
1531

> <i_lp_mmshare_version>
43012

> <i_f3d_flags>
0

> <s_epik_input>
W0NIM11bQ0gyXVtDQEBIXTFbQ0gyXVtDSDJdW0NIMl1bQ0gyXVtDQEhdMVtOSF1DKD1PKVtOSF1jMltjSF1ubihbY0hdMilbQ0gyXUMoPU8pW05IMl0=

> <s_epik_cmdline>
J2VwaWtfcHl0aG9uJywgJy1waCcsICc3LjAnLCAnLXRuJywgJzgnLCAnLW1hJywgJzIwMCcsICctbWV0YWxfYmluZGluZycsICctaW1hZScsICc8aW5maWxlLm1hZT4nLCAnLW9tYWUnLCAnPG91dGZpbGUubWFlPic=

> <r_lp_tautomer_probability>
1

> <r_epik_Ionization_Penalty>
4.83437e-05

> <r_epik_Ionization_Penalty_Charging>
0

> <r_epik_Ionization_Penalty_Neutral>
4.83437e-05

> <r_epik_State_Penalty>
-0

> <r_epik_Charging_Adjusted_Penalty>
0

> <i_epik_Tot_Q>
0

> <i_epik_Tot_abs_Q>
0

> <r_epik_Metal_State_Penalty>
-0

> <b_epik_Metal_Only>
0

> <s_lp_Force_Field>
OPLS_2005

> <r_lp_Energy>
14.4879

> <b_lp_Chiralities_Consistent>
1

> <s_lp_Variant>
AV-unprocessed.smi:1531-2

> <Gold.Version>
5.8.1

> <Gold.Id.Protein>
6NUR|6NUR_protein|mol2

> <Gold.PLP.Fitness>
41.3208

> <Gold.PLP.PLP>
-33.6882

> <Gold.PLP.part.hbond>
-5.6785

> <Gold.PLP.part.metal>
0.0000

> <Gold.PLP.part.buried>
-4.1687

> <Gold.PLP.part.nonpolar>
-25.1900

> <Gold.PLP.part.repulsive>
0.9515

> <Gold.PLP.ligand.clash>
0.0000

> <Gold.PLP.ligand.torsion>
1.3298

> <Gold.PLP.Chemscore.Hbond>
3.4156

> <Gold.PLP.Chemscore.CHOScore>
0.0000

> <Gold.PLP.Chemscore.Metal>
0.0000

> <Gold.Chemscore.Hbonds>
donor molecule, donor type, donor heavy atom, donor atom, acceptor molecule, acceptor atom, score
      L1  H     9    37       P1  7948  0.94
      L1  H    12    38       P1  7948  0.78
      L1  H    19    42       P1 10195  0.61
      L1  H    19    43       P1 10186  0.84

> <Gold.PLP.Chemscore.Internal.Correction>
0.0454

> <Gold.Rescore>
     Score         DG    S(hbond)    S(metal)    S(lipo)     H(rot)  DE(clash)    DE(int)     intcor
     16.57     -17.89       3.22        0.00      60.73       2.13       0.03       1.28       ----

> <Gold.Chemscore.Fitness>
16.5712

> <Gold.Chemscore.DG>
-17.8887

> <Gold.Chemscore.ZeroCoef>
-5.4800

> <Gold.Chemscore.Hbond>
3.2231

> <Gold.Chemscore.Metal>
0.0000

> <Gold.Chemscore.Lipo>
60.7291

> <Gold.Chemscore.Internal_Hbond>
0.0000

> <Gold.Chemscore.DEClash>
0.0348

> <Gold.Chemscore.DEInternal>
1.2827

> <Gold.Chemscore.Rot>
2.1335

> <Gold.Chemscore.Internal.Correction>
   9.000000E+99

> <Gold.Chemscore.Hbonds>
donor molecule, donor type, donor heavy atom, donor atom, acceptor molecule, acceptor atom, score
      L1  H     9    37       P1  7948  0.86
      L1  H    12    38       P1  7948  0.78
      L1  H    19    42       P1 10195  0.59
      L1  H    19    43       P1 10186  0.82

> <Gold.Chemscore.Hbond.Weighted>
-10.7652

> <Gold.Chemscore.Metal.Weighted>
-0.0000

> <Gold.Chemscore.Lipo.Weighted>
-7.1053

> <Gold.Chemscore.Internal_Hbond.Weighted>
0.0000

> <Gold.Chemscore.DEClash.Weighted>
0.0348

> <Gold.Chemscore.DEInternal.Weighted>
1.2827

> <Gold.Chemscore.Rot.Weighted>
5.4618

> <Gold.Chemscore.Internal.Correction.Weighted>
   9.000000E+99

> <Gold.Protein.RotatedTorsions>
[ 6907 6896 6895 6894 ] final  -35.77 input  -60.11 | X-H torsion
[ 7974 7965 7964 7962 ] final -146.99 input  175.53 | X-H torsion
[ 8008 7997 7996 7995 ] final   62.79 input   59.86 | X-H torsion
[ 10167 10162 10161 10158 ] final  -57.00 input  -65.29 | X-H torsion
[ 10718 10713 10712 10709 ] final  -69.05 input   66.30 | X-H torsion
[ 10763 10752 10751 10750 ] final  -55.13 input  -60.55 | X-H torsion
[ 11005 11000 10999 10996 ] final   -1.24 input  -57.11 | X-H torsion

> <Gold.Protein.ActiveResidues>
 VAL166  LYS551  ARG553  GLY616  TRP617  ASP618  TYR619  PRO620  LYS621  CYS622 
 ASP623  PHE694  ASN695  SER759  ASP760  ASP761  ALA762  ILE779  LEU786  VAL792 
 PHE793  MET794  SER795  GLU796  ALA797  LYS798  CYS799  TRP800  GLU811  SER814 

> <Gold.Protein.RotatedAtoms>
  151.0356  134.9570  159.8133 H   0  0  0  0  0  0  0  0  0  0  0  0  # atno 6907 bound_to 6896
  152.5354  134.2724  159.8986 H   0  0  0  0  0  0  0  0  0  0  0  0  # atno 6908 bound_to 6896
  151.2735  133.4201  159.2656 H   0  0  0  0  0  0  0  0  0  0  0  0  # atno 6909 bound_to 6896
  144.8123  140.5385  143.5634 H   0  0  0  0  0  0  0  0  0  0  0  0  # atno 7974 bound_to 7965
  155.6199  140.3495  155.4648 H   0  0  0  0  0  0  0  0  0  0  0  0  # atno 8008 bound_to 7997
  156.0088  140.1229  157.0499 H   0  0  0  0  0  0  0  0  0  0  0  0  # atno 8009 bound_to 7997
  154.4273  140.1086  156.5786 H   0  0  0  0  0  0  0  0  0  0  0  0  # atno 8010 bound_to 7997
  140.6284  143.2448  151.5304 H   0  0  0  0  0  0  0  0  0  0  0  0  # atno 10167 bound_to 10162
  156.0475  130.4305  150.2090 H   0  0  0  0  0  0  0  0  0  0  0  0  # atno 10718 bound_to 10713
  154.1860  135.6435  153.5047 H   0  0  0  0  0  0  0  0  0  0  0  0  # atno 10763 bound_to 10752
  153.0047  135.5417  154.6465 H   0  0  0  0  0  0  0  0  0  0  0  0  # atno 10764 bound_to 10752
  154.5841  135.2928  155.0675 H   0  0  0  0  0  0  0  0  0  0  0  0  # atno 10765 bound_to 10752
  140.6451  133.9454  155.8348 H   0  0  0  0  0  0  0  0  0  0  0  0  # atno 11005 bound_to 11000
  145.5295  139.1475  143.3507 LP  0  0  0  0  0  0  0  0  0  0  0  0  # atno 17320 bound_to 7965
  146.2423  140.5436  142.8929 LP  0  0  0  0  0  0  0  0  0  0  0  0  # atno 17321 bound_to 7965
  139.5501  144.2417  152.1515 LP  0  0  0  0  0  0  0  0  0  0  0  0  # atno 17342 bound_to 10162
  140.1655  144.4985  150.6608 LP  0  0  0  0  0  0  0  0  0  0  0  0  # atno 17343 bound_to 10162
  157.0178  130.9970  151.3348 LP  0  0  0  0  0  0  0  0  0  0  0  0  # atno 17370 bound_to 10713
  157.5365  130.8092  149.7978 LP  0  0  0  0  0  0  0  0  0  0  0  0  # atno 17371 bound_to 10713
  141.0578  134.0391  157.3699 LP  0  0  0  0  0  0  0  0  0  0  0  0  # atno 17394 bound_to 11000
  139.9066  135.0181  156.7511 LP  0  0  0  0  0  0  0  0  0  0  0  0  # atno 17395 bound_to 11000

$$$$
