AV-unprocessed.smi:2526|AV-procd|sdf|9935|dock7
  -GOLD-   2272013583D 1   1.00000     0.00000
 Structure written by MMmdl.
 29 30  0  0  0  0  0  0  0  0  2 V2000
  150.0227  132.5329  155.1713 C   0  0  0  0  0  0  0  0  0  0  0  0
  148.9604  133.0023  154.3076 N   0  0  0  0  0  0  0  0  0  0  0  0
  148.7676  132.7523  152.9666 C   0  0  0  0  0  0  0  0  0  0  0  0
  147.6250  133.4016  152.5831 C   0  0  0  0  0  0  0  0  0  0  0  0
  146.9508  133.4537  151.2266 C   0  0  1  0  0  0  0  0  0  0  0  0
  146.3908  132.1464  150.8730 N   0  0  0  0  0  0  0  0  0  0  0  0
  145.1104  131.7562  151.0175 C   0  0  0  0  0  0  0  0  0  0  0  0
  144.7669  130.5973  150.7997 O   0  0  0  0  0  0  0  0  0  0  0  0
  144.0474  132.7951  151.4132 C   0  0  0  0  0  0  0  0  0  0  0  0
  144.6203  134.1223  151.9431 C   0  0  0  0  0  0  0  0  0  0  0  0
  145.8595  134.5487  151.1445 C   0  0  1  0  0  0  0  0  0  0  0  0
  146.3526  135.8736  151.5649 N   0  3  0  0  0  0  0  0  0  0  0  0
  147.2002  134.0407  153.7843 C   0  0  0  0  0  0  0  0  0  0  0  0
  147.9939  133.7945  154.8124 N   0  0  0  0  0  0  0  0  0  0  0  0
  150.7020  131.8883  154.6129 H   0  0  0  0  0  0  0  0  0  0  0  0
  149.6008  131.9669  156.0024 H   0  0  0  0  0  0  0  0  0  0  0  0
  150.5827  133.3827  155.5630 H   0  0  0  0  0  0  0  0  0  0  0  0
  149.4497  132.1331  152.4020 H   0  0  0  0  0  0  0  0  0  0  0  0
  147.6999  133.6750  150.4653 H   0  0  0  0  0  0  0  0  0  0  0  0
  147.0511  131.4462  150.5660 H   0  0  0  0  0  0  0  0  0  0  0  0
  143.4501  132.9945  150.5230 H   0  0  0  0  0  0  0  0  0  0  0  0
  143.3686  132.3614  152.1481 H   0  0  0  0  0  0  0  0  0  0  0  0
  143.8525  134.8944  151.8835 H   0  0  0  0  0  0  0  0  0  0  0  0
  144.8668  134.0209  153.0009 H   0  0  0  0  0  0  0  0  0  0  0  0
  145.5610  134.6550  150.1003 H   0  0  0  0  0  0  0  0  0  0  0  0
  147.3536  135.9147  151.4358 H   0  0  0  0  0  0  0  0  0  0  0  0
  146.1327  136.0222  152.5396 H   0  0  0  0  0  0  0  0  0  0  0  0
  146.3357  134.6694  153.9390 H   0  0  0  0  0  0  0  0  0  0  0  0
  145.9118  136.5914  151.0075 H   0  0  0  0  0  0  0  0  0  0  0  0
  1  2  1  0  0  0  0
  1 15  1  0  0  0  0
  1 16  1  0  0  0  0
  1 17  1  0  0  0  0
  2 14  1  0  0  0  0
  2  3  1  0  0  0  0
  3  4  2  0  0  0  0
  3 18  1  0  0  0  0
  4  5  1  0  0  0  0
  4 13  1  0  0  0  0
  5 11  1  0  0  0  0
  5  6  1  0  0  0  0
  5 19  1  0  0  0  0
  6  7  1  0  0  0  0
  6 20  1  0  0  0  0
  7  8  2  0  0  0  0
  7  9  1  0  0  0  0
  9 10  1  0  0  0  0
  9 21  1  0  0  0  0
  9 22  1  0  0  0  0
 10 11  1  0  0  0  0
 10 23  1  0  0  0  0
 10 24  1  0  0  0  0
 11 12  1  0  0  0  0
 11 25  1  0  0  0  0
 12 26  1  0  0  0  0
 12 27  1  0  0  0  0
 12 29  1  0  0  0  0
 13 14  2  0  0  0  0
 13 28  1  0  0  0  0
M  CHG  1  12   1
M  END
> <s_m_source_file>
AV-unprocessed.smi

> <i_m_source_file_index>
2526

> <i_lp_mmshare_version>
43012

> <i_f3d_flags>
0

> <s_epik_input>
W0NIM11uMVtjSF1jKFtjSF1uMSlbQ0BASF0yW05IXUMoPU8pW0NIMl1bQ0gyXVtDQEhdMltOSDJd

> <s_epik_cmdline>
J2VwaWtfcHl0aG9uJywgJy1waCcsICc3LjAnLCAnLXRuJywgJzgnLCAnLW1hJywgJzIwMCcsICctbWV0YWxfYmluZGluZycsICctaW1hZScsICc8aW5maWxlLm1hZT4nLCAnLW9tYWUnLCAnPG91dGZpbGUubWFlPic=

> <r_lp_tautomer_probability>
1

> <r_epik_Ionization_Penalty>
0.00878543

> <r_epik_Ionization_Penalty_Charging>
0.00874185

> <r_epik_Ionization_Penalty_Neutral>
4.35793e-05

> <r_epik_State_Penalty>
0.00660351

> <r_epik_Charging_Adjusted_Penalty>
0.0153454

> <i_epik_Tot_Q>
1

> <i_epik_Tot_abs_Q>
1

> <r_epik_Metal_State_Penalty>
0.00660727

> <b_epik_Metal_Only>
0

> <s_lp_Force_Field>
OPLS_2005

> <r_lp_Energy>
11.1602

> <b_lp_Chiralities_Consistent>
1

> <s_lp_Variant>
AV-unprocessed.smi:2526-2

> <Gold.Version>
5.8.1

> <Gold.Id.Protein>
6NUR|6NUR_protein|mol2

> <Gold.PLP.Fitness>
34.7714

> <Gold.PLP.PLP>
-23.2338

> <Gold.PLP.part.hbond>
-2.9304

> <Gold.PLP.part.metal>
0.0000

> <Gold.PLP.part.buried>
-1.4148

> <Gold.PLP.part.nonpolar>
-19.2560

> <Gold.PLP.part.repulsive>
0.3194

> <Gold.PLP.ligand.clash>
0.0000

> <Gold.PLP.ligand.torsion>
0.2125

> <Gold.PLP.Chemscore.Hbond>
3.0000

> <Gold.PLP.Chemscore.CHOScore>
0.9813

> <Gold.PLP.Chemscore.Metal>
0.0000

> <Gold.Chemscore.Hbonds>
donor molecule, donor type, donor heavy atom, donor atom, acceptor molecule, acceptor atom, score
      L1  H     6    20       P1 10747  1.00
      L1  H    12    26       P1  7948  2.00
      L1  C     3    18       P1 10747  0.98

> <Gold.PLP.Chemscore.Internal.Correction>
0.0187

> <Gold.Rescore>
     Score         DG    S(hbond)    S(metal)    S(lipo)     H(rot)  DE(clash)    DE(int)     intcor
     13.10     -14.37       1.98        0.00      41.28       1.00       0.02       1.26       ----

> <Gold.Chemscore.Fitness>
13.0972

> <Gold.Chemscore.DG>
-14.3750

> <Gold.Chemscore.ZeroCoef>
-5.4800

> <Gold.Chemscore.Hbond>
1.9835

> <Gold.Chemscore.Metal>
0.0000

> <Gold.Chemscore.Lipo>
41.2836

> <Gold.Chemscore.Internal_Hbond>
0.0000

> <Gold.Chemscore.DEClash>
0.0202

> <Gold.Chemscore.DEInternal>
1.2575

> <Gold.Chemscore.Rot>
1.0000

> <Gold.Chemscore.Internal.Correction>
   9.000000E+99

> <Gold.Chemscore.Hbonds>
donor molecule, donor type, donor heavy atom, donor atom, acceptor molecule, acceptor atom, score
      L1  H     6    20       P1 10747  0.88
      L1  H    12    26       P1  7948  0.99

> <Gold.Chemscore.Hbond.Weighted>
-6.6248

> <Gold.Chemscore.Metal.Weighted>
-0.0000

> <Gold.Chemscore.Lipo.Weighted>
-4.8302

> <Gold.Chemscore.Internal_Hbond.Weighted>
0.0000

> <Gold.Chemscore.DEClash.Weighted>
0.0202

> <Gold.Chemscore.DEInternal.Weighted>
1.2575

> <Gold.Chemscore.Rot.Weighted>
2.5600

> <Gold.Chemscore.Internal.Correction.Weighted>
   9.000000E+99

> <Gold.Protein.RotatedTorsions>
[ 6907 6896 6895 6894 ] final  -26.09 input  -60.11 | X-H torsion
[ 7974 7965 7964 7962 ] final    9.59 input  175.53 | X-H torsion
[ 8008 7997 7996 7995 ] final   72.53 input   59.86 | X-H torsion
[ 10167 10162 10161 10158 ] final -125.85 input  -65.29 | X-H torsion
[ 10718 10713 10712 10709 ] final  165.23 input   66.30 | X-H torsion
[ 10763 10752 10751 10750 ] final    5.52 input  -60.55 | X-H torsion
[ 11005 11000 10999 10996 ] final -170.24 input  -57.11 | X-H torsion

> <Gold.Protein.ActiveResidues>
 VAL166  LYS551  ARG553  GLY616  TRP617  ASP618  TYR619  PRO620  LYS621  CYS622 
 ASP623  PHE694  ASN695  SER759  ASP760  ASP761  ALA762  ILE779  LEU786  VAL792 
 PHE793  MET794  SER795  GLU796  ALA797  LYS798  CYS799  TRP800  GLU811  SER814 

> <Gold.Protein.RotatedAtoms>
  151.1659  135.0295  159.8730 H   0  0  0  0  0  0  0  0  0  0  0  0  # atno 6907 bound_to 6896
  152.5450  134.1226  159.8415 H   0  0  0  0  0  0  0  0  0  0  0  0  # atno 6908 bound_to 6896
  151.1326  133.4980  159.2631 H   0  0  0  0  0  0  0  0  0  0  0  0  # atno 6909 bound_to 6896
  146.2401  139.9761  142.8441 H   0  0  0  0  0  0  0  0  0  0  0  0  # atno 7974 bound_to 7965
  155.7702  140.3484  155.5243 H   0  0  0  0  0  0  0  0  0  0  0  0  # atno 8008 bound_to 7997
  155.8829  140.1005  157.1493 H   0  0  0  0  0  0  0  0  0  0  0  0  # atno 8009 bound_to 7997
  154.4026  140.1319  156.4206 H   0  0  0  0  0  0  0  0  0  0  0  0  # atno 8010 bound_to 7997
  139.9778  143.5776  152.2389 H   0  0  0  0  0  0  0  0  0  0  0  0  # atno 10167 bound_to 10162
  157.0831  131.0397  151.2567 H   0  0  0  0  0  0  0  0  0  0  0  0  # atno 10718 bound_to 10713
  153.2584  135.6921  153.7604 H   0  0  0  0  0  0  0  0  0  0  0  0  # atno 10763 bound_to 10752
  153.6672  135.3350  155.3144 H   0  0  0  0  0  0  0  0  0  0  0  0  # atno 10764 bound_to 10752
  154.8421  135.4491  154.1566 H   0  0  0  0  0  0  0  0  0  0  0  0  # atno 10765 bound_to 10752
  140.5217  134.5703  157.5050 H   0  0  0  0  0  0  0  0  0  0  0  0  # atno 11005 bound_to 11000
  145.1635  140.9685  143.4363 LP  0  0  0  0  0  0  0  0  0  0  0  0  # atno 17320 bound_to 7965
  145.0094  139.3524  143.6128 LP  0  0  0  0  0  0  0  0  0  0  0  0  # atno 17321 bound_to 7965
  139.6433  144.7656  151.2295 LP  0  0  0  0  0  0  0  0  0  0  0  0  # atno 17342 bound_to 10162
  140.7500  143.6281  150.8449 LP  0  0  0  0  0  0  0  0  0  0  0  0  # atno 17343 bound_to 10162
  157.4784  130.7750  149.7390 LP  0  0  0  0  0  0  0  0  0  0  0  0  # atno 17370 bound_to 10713
  155.9918  130.3935  150.2969 LP  0  0  0  0  0  0  0  0  0  0  0  0  # atno 17371 bound_to 10713
  139.9602  134.7465  156.0253 LP  0  0  0  0  0  0  0  0  0  0  0  0  # atno 17394 bound_to 11000
  141.1330  133.6582  156.3517 LP  0  0  0  0  0  0  0  0  0  0  0  0  # atno 17395 bound_to 11000

$$$$
