AV-unprocessed.smi:2999|AV-procd|sdf|11424|dock9
  -GOLD-   2272016343D 1   1.00000     0.00000
 Structure written by MMmdl.
 36 38  0  0  0  0  0  0  0  0  2 V2000
  149.5536  136.1352  158.9478 O   0  0  0  0  0  0  0  0  0  0  0  0
  148.8727  137.1576  159.0583 C   0  0  0  0  0  0  0  0  0  0  0  0
  149.1932  138.2502  158.3528 N   0  0  0  0  0  0  0  0  0  0  0  0
  150.3152  138.3499  157.4284 C   0  0  0  0  0  0  0  0  0  0  0  0
  151.4527  139.1833  158.0350 C   0  0  1  0  0  0  0  0  0  0  0  0
  151.0343  140.6512  158.2508 C   0  0  0  0  0  0  0  0  0  0  0  0
  152.0912  141.4322  158.8820 N   0  0  0  0  0  0  0  0  0  0  0  0
  151.6681  142.8088  159.0914 C   0  0  0  0  0  0  0  0  0  0  0  0
  152.4126  143.9252  158.4056 C   0  0  0  0  0  0  0  0  0  0  0  0
  152.5349  143.7337  159.9063 C   0  0  0  0  0  0  0  0  0  0  0  0
  152.4527  140.7972  160.1432 C   0  0  0  0  0  0  0  0  0  0  0  0
  152.8671  139.3297  159.9429 C   0  0  0  0  0  0  0  0  0  0  0  0
  151.8122  138.6235  159.2973 O   0  0  0  0  0  0  0  0  0  0  0  0
  147.7863  137.3158  159.8485 N   0  5  0  0  0  0  0  0  0  0  0  0
  147.2591  136.2560  160.4831 C   0  0  0  0  0  0  0  0  0  0  0  0
  147.3954  134.9995  160.0434 N   0  0  0  0  0  0  0  0  0  0  0  0
  146.7646  134.0556  160.8558 C   0  0  0  0  0  0  0  0  0  0  0  0
  146.1235  134.6072  161.9335 C   0  0  0  0  0  0  0  0  0  0  0  0
  146.2957  136.3392  161.9608 S   0  0  0  0  0  0  0  0  0  0  0  0
  148.6129  139.0689  158.4634 H   0  0  0  0  0  0  0  0  0  0  0  0
  150.6776  137.3462  157.2004 H   0  0  0  0  0  0  0  0  0  0  0  0
  149.9770  138.7920  156.4901 H   0  0  0  0  0  0  0  0  0  0  0  0
  152.3165  139.1491  157.3680 H   0  0  0  0  0  0  0  0  0  0  0  0
  150.7741  141.0976  157.2905 H   0  0  0  0  0  0  0  0  0  0  0  0
  150.1320  140.6849  158.8640 H   0  0  0  0  0  0  0  0  0  0  0  0
  150.5874  142.9006  159.1886 H   0  0  0  0  0  0  0  0  0  0  0  0
  153.2741  143.6629  157.7945 H   0  0  0  0  0  0  0  0  0  0  0  0
  151.8298  144.7736  158.0526 H   0  0  0  0  0  0  0  0  0  0  0  0
  152.0343  144.4559  160.5478 H   0  0  0  0  0  0  0  0  0  0  0  0
  153.4781  143.3453  160.2863 H   0  0  0  0  0  0  0  0  0  0  0  0
  153.2708  141.3454  160.6118 H   0  0  0  0  0  0  0  0  0  0  0  0
  151.6109  140.8412  160.8363 H   0  0  0  0  0  0  0  0  0  0  0  0
  153.7780  139.2620  159.3464 H   0  0  0  0  0  0  0  0  0  0  0  0
  153.0765  138.8592  160.9035 H   0  0  0  0  0  0  0  0  0  0  0  0
  146.8223  133.0105  160.5901 H   0  0  0  0  0  0  0  0  0  0  0  0
  145.5639  134.1048  162.7080 H   0  0  0  0  0  0  0  0  0  0  0  0
  1  2  2  0  0  0  0
  2  3  1  0  0  0  0
  2 14  1  0  0  0  0
  3  4  1  0  0  0  0
  3 20  1  0  0  0  0
  4  5  1  0  0  0  0
  4 21  1  0  0  0  0
  4 22  1  0  0  0  0
  5 13  1  0  0  0  0
  5  6  1  0  0  0  0
  5 23  1  0  0  0  0
  6  7  1  0  0  0  0
  6 24  1  0  0  0  0
  6 25  1  0  0  0  0
  7  8  1  0  0  0  0
  7 11  1  0  0  0  0
  8 10  1  0  0  0  0
  8  9  1  0  0  0  0
  8 26  1  0  0  0  0
  9 10  1  0  0  0  0
  9 27  1  0  0  0  0
  9 28  1  0  0  0  0
 10 29  1  0  0  0  0
 10 30  1  0  0  0  0
 11 12  1  0  0  0  0
 11 31  1  0  0  0  0
 11 32  1  0  0  0  0
 12 13  1  0  0  0  0
 12 33  1  0  0  0  0
 12 34  1  0  0  0  0
 14 15  1  0  0  0  0
 15 19  1  0  0  0  0
 15 16  2  0  0  0  0
 16 17  1  0  0  0  0
 17 18  2  0  0  0  0
 17 35  1  0  0  0  0
 18 19  1  0  0  0  0
 18 36  1  0  0  0  0
M  CHG  1  14  -1
M  END
> <s_m_source_file>
AV-unprocessed.smi

> <i_m_source_file_index>
2999

> <i_lp_mmshare_version>
43012

> <i_f3d_flags>
0

> <s_epik_input>
czFbY0hdW2NIXW5jMVtOSF1DKD1PKVtOSF1bQ0gyXVtDQEBIXTJbQ0gyXU4oW0NIMl1bQ0gyXU8yKVtDSF0zW0NIMl1bQ0gyXTM=

> <s_epik_cmdline>
J2VwaWtfcHl0aG9uJywgJy1waCcsICc3LjAnLCAnLXRuJywgJzgnLCAnLW1hJywgJzIwMCcsICctbWV0YWxfYmluZGluZycsICctaW1hZScsICc8aW5maWxlLm1hZT4nLCAnLW9tYWUnLCAnPG91dGZpbGUubWFlPic=

> <r_lp_tautomer_probability>
0.999

> <r_epik_Ionization_Penalty>
6.67591

> <r_epik_Ionization_Penalty_Charging>
5.6519

> <r_epik_Ionization_Penalty_Neutral>
1.024

> <r_epik_State_Penalty>
5.68985

> <r_epik_Charging_Adjusted_Penalty>
11.3418

> <i_epik_Tot_Q>
-1

> <i_epik_Tot_abs_Q>
1

> <r_epik_Metal_State_Penalty>
1.67789

> <b_epik_Metal_Only>
1

> <s_lp_Force_Field>
OPLS_2005

> <r_lp_Energy>
26.9989

> <b_lp_Chiralities_Consistent>
1

> <s_lp_Variant>
AV-unprocessed.smi:2999-8

> <Gold.Version>
5.8.1

> <Gold.Id.Protein>
6NUR|6NUR_protein|mol2

> <Gold.PLP.Fitness>
47.7293

> <Gold.PLP.PLP>
-38.2900

> <Gold.PLP.part.hbond>
-3.0000

> <Gold.PLP.part.metal>
0.0000

> <Gold.PLP.part.buried>
-5.0798

> <Gold.PLP.part.nonpolar>
-31.4202

> <Gold.PLP.part.repulsive>
0.2070

> <Gold.PLP.ligand.clash>
0.0000

> <Gold.PLP.ligand.torsion>
1.0427

> <Gold.PLP.Chemscore.Hbond>
3.4688

> <Gold.PLP.Chemscore.CHOScore>
0.0000

> <Gold.PLP.Chemscore.Metal>
0.0000

> <Gold.Chemscore.Hbonds>
donor molecule, donor type, donor heavy atom, donor atom, acceptor molecule, acceptor atom, score
      P1  H  6896  6909       L1     1  1.00
      P1  H  6934  6947       L1    14  1.27

> <Gold.PLP.Chemscore.Internal.Correction>
1.1182

> <Gold.Rescore>
     Score         DG    S(hbond)    S(metal)    S(lipo)     H(rot)  DE(clash)    DE(int)     intcor
     16.00     -18.32       1.97        0.00      86.62       1.52       0.01       2.32       ----

> <Gold.Chemscore.Fitness>
15.9951

> <Gold.Chemscore.DG>
-18.3161

> <Gold.Chemscore.ZeroCoef>
-5.4800

> <Gold.Chemscore.Hbond>
1.9714

> <Gold.Chemscore.Metal>
0.0000

> <Gold.Chemscore.Lipo>
86.6185

> <Gold.Chemscore.Internal_Hbond>
0.0000

> <Gold.Chemscore.DEClash>
0.0058

> <Gold.Chemscore.DEInternal>
2.3151

> <Gold.Chemscore.Rot>
1.5167

> <Gold.Chemscore.Internal.Correction>
   9.000000E+99

> <Gold.Chemscore.Hbonds>
donor molecule, donor type, donor heavy atom, donor atom, acceptor molecule, acceptor atom, score
      P1  H  6896  6909       L1     1  0.95
      P1  H  6934  6947       L1    14  0.38

> <Gold.Chemscore.Hbond.Weighted>
-6.5844

> <Gold.Chemscore.Metal.Weighted>
-0.0000

> <Gold.Chemscore.Lipo.Weighted>
-10.1344

> <Gold.Chemscore.Internal_Hbond.Weighted>
0.0000

> <Gold.Chemscore.DEClash.Weighted>
0.0058

> <Gold.Chemscore.DEInternal.Weighted>
2.3151

> <Gold.Chemscore.Rot.Weighted>
3.8827

> <Gold.Chemscore.Internal.Correction.Weighted>
   9.000000E+99

> <Gold.Protein.RotatedTorsions>
[ 6907 6896 6895 6894 ] final   50.23 input  -60.11 | X-H torsion
[ 7974 7965 7964 7962 ] final -179.22 input  175.53 | X-H torsion
[ 8008 7997 7996 7995 ] final -102.45 input   59.86 | X-H torsion
[ 10167 10162 10161 10158 ] final  161.23 input  -65.29 | X-H torsion
[ 10718 10713 10712 10709 ] final -153.33 input   66.30 | X-H torsion
[ 10763 10752 10751 10750 ] final   21.79 input  -60.55 | X-H torsion
[ 11005 11000 10999 10996 ] final   43.17 input  -57.11 | X-H torsion

> <Gold.Protein.ActiveResidues>
 VAL166  LYS551  ARG553  GLY616  TRP617  ASP618  TYR619  PRO620  LYS621  CYS622 
 ASP623  PHE694  ASN695  SER759  ASP760  ASP761  ALA762  ILE779  LEU786  VAL792 
 PHE793  MET794  SER795  GLU796  ALA797  LYS798  CYS799  TRP800  GLU811  SER814 

> <Gold.Protein.RotatedAtoms>
  152.2995  134.7627  160.0360 H   0  0  0  0  0  0  0  0  0  0  0  0  # atno 6907 bound_to 6896
  151.8145  133.3381  159.3573 H   0  0  0  0  0  0  0  0  0  0  0  0  # atno 6908 bound_to 6896
  150.7267  134.5561  159.5863 H   0  0  0  0  0  0  0  0  0  0  0  0  # atno 6909 bound_to 6896
  144.7135  140.0751  143.6428 H   0  0  0  0  0  0  0  0  0  0  0  0  # atno 7974 bound_to 7965
  154.8568  140.0428  157.1640 H   0  0  0  0  0  0  0  0  0  0  0  0  # atno 8008 bound_to 7997
  154.8883  140.2982  155.5365 H   0  0  0  0  0  0  0  0  0  0  0  0  # atno 8009 bound_to 7997
  156.2997  140.2398  156.3895 H   0  0  0  0  0  0  0  0  0  0  0  0  # atno 8010 bound_to 7997
  139.4847  144.4556  151.8772 H   0  0  0  0  0  0  0  0  0  0  0  0  # atno 10167 bound_to 10162
  156.4843  130.8318  151.2543 H   0  0  0  0  0  0  0  0  0  0  0  0  # atno 10718 bound_to 10713
  153.0967  135.6661  153.9750 H   0  0  0  0  0  0  0  0  0  0  0  0  # atno 10763 bound_to 10752
  153.9332  135.3002  155.3446 H   0  0  0  0  0  0  0  0  0  0  0  0  # atno 10764 bound_to 10752
  154.7386  135.5090  153.9158 H   0  0  0  0  0  0  0  0  0  0  0  0  # atno 10765 bound_to 10752
  140.1670  134.4269  155.8281 H   0  0  0  0  0  0  0  0  0  0  0  0  # atno 11005 bound_to 11000
  145.9750  139.2898  143.1076 LP  0  0  0  0  0  0  0  0  0  0  0  0  # atno 17320 bound_to 7965
  145.9074  140.9202  143.0471 LP  0  0  0  0  0  0  0  0  0  0  0  0  # atno 17321 bound_to 7965
  140.4016  144.2486  150.5893 LP  0  0  0  0  0  0  0  0  0  0  0  0  # atno 17342 bound_to 10162
  140.5052  143.2306  151.8619 LP  0  0  0  0  0  0  0  0  0  0  0  0  # atno 17343 bound_to 10162
  157.7480  131.0034  150.3038 LP  0  0  0  0  0  0  0  0  0  0  0  0  # atno 17370 bound_to 10713
  156.3490  130.3828  149.7345 LP  0  0  0  0  0  0  0  0  0  0  0  0  # atno 17371 bound_to 10713
  141.2214  133.6939  156.7696 LP  0  0  0  0  0  0  0  0  0  0  0  0  # atno 17394 bound_to 11000
  140.2422  134.8605  157.3584 LP  0  0  0  0  0  0  0  0  0  0  0  0  # atno 17395 bound_to 11000

$$$$
