AV-unprocessed.smi:34|AV-procd|sdf|243|dock7
  -GOLD-   2262015593D 1   1.00000     0.00000
 Structure written by MMmdl.
 54 58  0  0  0  0  0  0  0  0  2 V2000
  147.9161  131.2188  153.7243 O   0  0  0  0  0  0  0  0  0  0  0  0
  148.7299  130.2944  153.7832 C   0  0  0  0  0  0  0  0  0  0  0  0
  149.8701  130.2326  154.5166 N   0  5  0  0  0  0  0  0  0  0  0  0
  150.0993  131.1424  155.4757 C   0  0  0  0  0  0  0  0  0  0  0  0
  150.6135  130.7632  156.6734 N   0  0  0  0  0  0  0  0  0  0  0  0
  150.8494  131.6731  157.6256 C   0  0  0  0  0  0  0  0  0  0  0  0
  150.6554  132.9948  157.5911 N   0  0  0  0  0  0  0  0  0  0  0  0
  150.1440  133.3911  156.3896 C   0  0  0  0  0  0  0  0  0  0  0  0
  149.8473  132.5295  155.2928 C   0  0  0  0  0  0  0  0  0  0  0  0
  149.3487  133.2518  154.2187 N   0  0  0  0  0  0  0  0  0  0  0  0
  149.3616  134.4918  154.7007 C   0  0  0  0  0  0  0  0  0  0  0  0
  149.8062  134.6659  155.9613 N   0  0  0  0  0  0  0  0  0  0  0  0
  149.9058  135.9578  156.7107 C   0  0  2  0  0  0  0  0  0  0  0  0
  148.9858  136.8588  156.1717 O   0  0  0  0  0  0  0  0  0  0  0  0
  149.5586  138.1632  156.1236 C   0  0  1  0  0  0  0  0  0  0  0  0
  149.3304  138.8727  157.4687 C   0  0  0  0  0  0  0  0  0  0  0  0
  150.0584  140.0897  157.4799 O   0  0  0  0  0  0  0  0  0  0  0  0
  149.7758  141.0392  158.3932 C   0  0  0  0  0  0  0  0  0  0  0  0
  148.6667  141.1779  158.9131 O   0  0  0  0  0  0  0  0  0  0  0  0
  150.9465  141.9085  158.7066 C   0  0  0  0  0  0  0  0  0  0  0  0
  150.7801  143.3130  158.7318 C   0  0  0  0  0  0  0  0  0  0  0  0
  151.8673  144.1591  159.0248 C   0  0  0  0  0  0  0  0  0  0  0  0
  153.1339  143.6107  159.2980 C   0  0  0  0  0  0  0  0  0  0  0  0
  153.3124  142.2152  159.2765 C   0  0  0  0  0  0  0  0  0  0  0  0
  152.2266  141.3676  158.9823 C   0  0  0  0  0  0  0  0  0  0  0  0
  151.0346  137.8840  155.8354 C   0  0  2  0  0  0  0  0  0  0  0  0
  151.1681  137.6846  154.5228 F   0  0  0  0  0  0  0  0  0  0  0  0
  151.3020  136.6077  156.6226 C   0  0  2  0  0  0  0  0  0  0  0  0
  152.3227  135.8145  156.0429 O   0  0  0  0  0  0  0  0  0  0  0  0
  148.4469  129.0295  153.0181 C   0  0  0  0  0  0  0  0  0  0  0  0
  147.2991  128.9491  152.1968 C   0  0  0  0  0  0  0  0  0  0  0  0
  147.0305  127.7833  151.4532 C   0  0  0  0  0  0  0  0  0  0  0  0
  147.9126  126.6884  151.5154 C   0  0  0  0  0  0  0  0  0  0  0  0
  149.0664  126.7621  152.3181 C   0  0  0  0  0  0  0  0  0  0  0  0
  149.3354  127.9272  153.0625 C   0  0  0  0  0  0  0  0  0  0  0  0
  151.2539  131.2859  158.5489 H   0  0  0  0  0  0  0  0  0  0  0  0
  149.0233  135.3243  154.1016 H   0  0  0  0  0  0  0  0  0  0  0  0
  149.6264  135.7020  157.7337 H   0  0  0  0  0  0  0  0  0  0  0  0
  149.1099  138.7488  155.3199 H   0  0  0  0  0  0  0  0  0  0  0  0
  148.2675  139.0531  157.6355 H   0  0  0  0  0  0  0  0  0  0  0  0
  149.6884  138.2474  158.2874 H   0  0  0  0  0  0  0  0  0  0  0  0
  149.8169  143.7571  158.5252 H   0  0  0  0  0  0  0  0  0  0  0  0
  151.7285  145.2300  159.0400 H   0  0  0  0  0  0  0  0  0  0  0  0
  153.9674  144.2594  159.5236 H   0  0  0  0  0  0  0  0  0  0  0  0
  154.2840  141.7928  159.4868 H   0  0  0  0  0  0  0  0  0  0  0  0
  152.3982  140.3011  158.9749 H   0  0  0  0  0  0  0  0  0  0  0  0
  151.6973  138.7067  156.1055 H   0  0  0  0  0  0  0  0  0  0  0  0
  151.6022  136.8673  157.6386 H   0  0  0  0  0  0  0  0  0  0  0  0
  152.8430  135.4371  156.7356 H   0  0  0  0  0  0  0  0  0  0  0  0
  146.6131  129.7818  152.1366 H   0  0  0  0  0  0  0  0  0  0  0  0
  146.1476  127.7307  150.8338 H   0  0  0  0  0  0  0  0  0  0  0  0
  147.7069  125.7951  150.9448 H   0  0  0  0  0  0  0  0  0  0  0  0
  149.7484  125.9257  152.3615 H   0  0  0  0  0  0  0  0  0  0  0  0
  150.2320  127.9672  153.6641 H   0  0  0  0  0  0  0  0  0  0  0  0
  1  2  2  0  0  0  0
  2  3  1  0  0  0  0
  2 30  1  0  0  0  0
  3  4  1  0  0  0  0
  4  9  1  0  0  0  0
  4  5  2  0  0  0  0
  5  6  1  0  0  0  0
  6  7  2  0  0  0  0
  6 36  1  0  0  0  0
  7  8  1  0  0  0  0
  8 12  1  0  0  0  0
  8  9  2  0  0  0  0
  9 10  1  0  0  0  0
 10 11  2  0  0  0  0
 11 12  1  0  0  0  0
 11 37  1  0  0  0  0
 12 13  1  0  0  0  0
 13 28  1  0  0  0  0
 13 14  1  0  0  0  0
 13 38  1  0  0  0  0
 14 15  1  0  0  0  0
 15 16  1  0  0  0  0
 15 26  1  0  0  0  0
 15 39  1  0  0  0  0
 16 17  1  0  0  0  0
 16 40  1  0  0  0  0
 16 41  1  0  0  0  0
 17 18  1  0  0  0  0
 18 19  2  0  0  0  0
 18 20  1  0  0  0  0
 20 25  1  0  0  0  0
 20 21  2  0  0  0  0
 21 22  1  0  0  0  0
 21 42  1  0  0  0  0
 22 23  2  0  0  0  0
 22 43  1  0  0  0  0
 23 24  1  0  0  0  0
 23 44  1  0  0  0  0
 24 25  2  0  0  0  0
 24 45  1  0  0  0  0
 25 46  1  0  0  0  0
 26 27  1  0  0  0  0
 26 28  1  0  0  0  0
 26 47  1  0  0  0  0
 28 29  1  0  0  0  0
 28 48  1  0  0  0  0
 29 49  1  0  0  0  0
 30 35  1  0  0  0  0
 30 31  2  0  0  0  0
 31 32  1  0  0  0  0
 31 50  1  0  0  0  0
 32 33  2  0  0  0  0
 32 51  1  0  0  0  0
 33 34  1  0  0  0  0
 33 52  1  0  0  0  0
 34 35  2  0  0  0  0
 34 53  1  0  0  0  0
 35 54  1  0  0  0  0
M  CHG  1   3  -1
M  END
> <s_m_source_file>
AV-unprocessed.smi

> <i_m_source_file_index>
34

> <i_lp_mmshare_version>
43012

> <i_f3d_flags>
0

> <s_epik_input>
W2NIXTFbY0hdW2NIXVtjSF1bY0hdYzFDKD1PKVtOSF1jKG5bY0hdbjIpYyhjMjMpbltjSF1uM1tDQEBIXTRPW0NASF0oW0NAQEhdKEYpW0NASF00W09IXSlbQ0gyXU9DKD1PKWM1W2NIXVtjSF1bY0hdW2NIXVtjSF01

> <s_epik_cmdline>
J2VwaWtfcHl0aG9uJywgJy1waCcsICc3LjAnLCAnLXRuJywgJzgnLCAnLW1hJywgJzIwMCcsICctbWV0YWxfYmluZGluZycsICctaW1hZScsICc8aW5maWxlLm1hZT4nLCAnLW9tYWUnLCAnPG91dGZpbGUubWFlPic=

> <r_lp_tautomer_probability>
1

> <r_epik_Ionization_Penalty>
4.33227

> <r_epik_Ionization_Penalty_Charging>
3.41027

> <r_epik_Ionization_Penalty_Neutral>
0.922001

> <r_epik_State_Penalty>
3.41358

> <r_epik_Charging_Adjusted_Penalty>
6.82385

> <i_epik_Tot_Q>
-1

> <i_epik_Tot_abs_Q>
1

> <r_epik_Metal_State_Penalty>
0.496292

> <b_epik_Metal_Only>
1

> <s_epik_Chemistry_Notes>
This compound has an ester and may undergo hydrolysis at high or low pH. This compound contains an acetal/aminal-like group ( X-CH(R)-Y where X, Y are N, S, or O) that may be acid/base labile, releasing an aldehyde.

> <s_lp_Force_Field>
OPLS_2005

> <r_lp_Energy>
51.1701

> <b_lp_Chiralities_Consistent>
1

> <s_lp_Variant>
AV-unprocessed.smi:34-29

> <Gold.Version>
5.8.1

> <Gold.Id.Protein>
6NUR|6NUR_protein|mol2

> <Gold.PLP.Fitness>
57.1109

> <Gold.PLP.PLP>
-52.1627

> <Gold.PLP.part.hbond>
-2.3457

> <Gold.PLP.part.metal>
0.0000

> <Gold.PLP.part.buried>
-3.6971

> <Gold.PLP.part.nonpolar>
-46.3332

> <Gold.PLP.part.repulsive>
0.3913

> <Gold.PLP.ligand.clash>
0.0000

> <Gold.PLP.ligand.torsion>
2.3410

> <Gold.PLP.Chemscore.Hbond>
2.0000

> <Gold.PLP.Chemscore.CHOScore>
1.0000

> <Gold.PLP.Chemscore.Metal>
0.0000

> <Gold.Chemscore.Hbonds>
donor molecule, donor type, donor heavy atom, donor atom, acceptor molecule, acceptor atom, score
      P1  H  6896  6909       L1     7  0.83
      P1  H 10752 10764       L1    29  0.34
      L1  C    11    37       P1  7948  1.00

> <Gold.PLP.Chemscore.Internal.Correction>
0.6303

> <Gold.Rescore>
     Score         DG    S(hbond)    S(metal)    S(lipo)     H(rot)  DE(clash)    DE(int)     intcor
     13.38     -18.41       1.69        0.00     121.19       2.69       0.22       4.81       ----

> <Gold.Chemscore.Fitness>
13.3795

> <Gold.Chemscore.DG>
-18.4145

> <Gold.Chemscore.ZeroCoef>
-5.4800

> <Gold.Chemscore.Hbond>
1.6926

> <Gold.Chemscore.Metal>
0.0000

> <Gold.Chemscore.Lipo>
121.1853

> <Gold.Chemscore.Internal_Hbond>
0.0000

> <Gold.Chemscore.DEClash>
0.2215

> <Gold.Chemscore.DEInternal>
4.8135

> <Gold.Chemscore.Rot>
2.6944

> <Gold.Chemscore.Internal.Correction>
   9.000000E+99

> <Gold.Chemscore.Hbonds>
donor molecule, donor type, donor heavy atom, donor atom, acceptor molecule, acceptor atom, score
      P1  H  6896  6909       L1     7  0.68
      P1  H 10752 10764       L1    29  0.03

> <Gold.Chemscore.Hbond.Weighted>
-5.6534

> <Gold.Chemscore.Metal.Weighted>
-0.0000

> <Gold.Chemscore.Lipo.Weighted>
-14.1787

> <Gold.Chemscore.Internal_Hbond.Weighted>
0.0000

> <Gold.Chemscore.DEClash.Weighted>
0.2215

> <Gold.Chemscore.DEInternal.Weighted>
4.8135

> <Gold.Chemscore.Rot.Weighted>
6.8975

> <Gold.Chemscore.Internal.Correction.Weighted>
   9.000000E+99

> <Gold.Protein.RotatedTorsions>
[ 6907 6896 6895 6894 ] final   -1.00 input  -60.11 | X-H torsion
[ 7974 7965 7964 7962 ] final  175.06 input  175.53 | X-H torsion
[ 8008 7997 7996 7995 ] final   68.93 input   59.86 | X-H torsion
[ 10167 10162 10161 10158 ] final -122.09 input  -65.29 | X-H torsion
[ 10718 10713 10712 10709 ] final  -87.32 input   66.30 | X-H torsion
[ 10763 10752 10751 10750 ] final  -26.97 input  -60.55 | X-H torsion
[ 11005 11000 10999 10996 ] final   11.39 input  -57.11 | X-H torsion

> <Gold.Protein.ActiveResidues>
 VAL166  LYS551  ARG553  GLY616  TRP617  ASP618  TYR619  PRO620  LYS621  CYS622 
 ASP623  PHE694  ASN695  SER759  ASP760  ASP761  ALA762  ILE779  LEU786  VAL792 
 PHE793  MET794  SER795  GLU796  ALA797  LYS798  CYS799  TRP800  GLU811  SER814 

> <Gold.Protein.RotatedAtoms>
  151.5532  135.1067  159.9954 H   0  0  0  0  0  0  0  0  0  0  0  0  # atno 6907 bound_to 6896
  152.4482  133.7572  159.6737 H   0  0  0  0  0  0  0  0  0  0  0  0  # atno 6908 bound_to 6896
  150.8402  133.7880  159.3088 H   0  0  0  0  0  0  0  0  0  0  0  0  # atno 6909 bound_to 6896
  144.7209  139.9890  143.6439 H   0  0  0  0  0  0  0  0  0  0  0  0  # atno 7974 bound_to 7965
  155.7159  140.3494  155.4994 H   0  0  0  0  0  0  0  0  0  0  0  0  # atno 8008 bound_to 7997
  155.9313  140.1085  157.1151 H   0  0  0  0  0  0  0  0  0  0  0  0  # atno 8009 bound_to 7997
  154.4086  140.1230  156.4793 H   0  0  0  0  0  0  0  0  0  0  0  0  # atno 8010 bound_to 7997
  140.0180  143.5373  152.2233 H   0  0  0  0  0  0  0  0  0  0  0  0  # atno 10167 bound_to 10162
  155.9986  130.4796  150.4849 H   0  0  0  0  0  0  0  0  0  0  0  0  # atno 10718 bound_to 10713
  153.7245  135.6943  153.5004 H   0  0  0  0  0  0  0  0  0  0  0  0  # atno 10763 bound_to 10752
  153.2180  135.4380  155.0455 H   0  0  0  0  0  0  0  0  0  0  0  0  # atno 10764 bound_to 10752
  154.8273  135.3453  154.6778 H   0  0  0  0  0  0  0  0  0  0  0  0  # atno 10765 bound_to 10752
  140.5038  134.0720  155.7800 H   0  0  0  0  0  0  0  0  0  0  0  0  # atno 11005 bound_to 11000
  146.0427  139.3436  143.0688 LP  0  0  0  0  0  0  0  0  0  0  0  0  # atno 17320 bound_to 7965
  145.8315  140.9628  143.0846 LP  0  0  0  0  0  0  0  0  0  0  0  0  # atno 17321 bound_to 7965
  139.6159  144.7619  151.2847 LP  0  0  0  0  0  0  0  0  0  0  0  0  # atno 17342 bound_to 10162
  140.7354  143.6737  150.8059 LP  0  0  0  0  0  0  0  0  0  0  0  0  # atno 17343 bound_to 10162
  157.2850  131.0615  151.2172 LP  0  0  0  0  0  0  0  0  0  0  0  0  # atno 17370 bound_to 10713
  157.3205  130.6934  149.6266 LP  0  0  0  0  0  0  0  0  0  0  0  0  # atno 17371 bound_to 10713
  141.1422  133.9119  157.2300 LP  0  0  0  0  0  0  0  0  0  0  0  0  # atno 17394 bound_to 11000
  139.9698  135.0131  156.9482 LP  0  0  0  0  0  0  0  0  0  0  0  0  # atno 17395 bound_to 11000

$$$$
