AV-unprocessed.smi:2273|AV-procd|sdf|9166|dock6
  -GOLD-   2272012383D 1   1.00000     0.00000
 Structure written by MMmdl.
 53 54  0  0  0  0  0  0  0  0  1 V2000
  154.7712  133.6213  164.8634 C   0  0  0  0  0  0  0  0  0  0  0  0
  155.1928  134.4110  163.6169 C   0  0  0  0  0  0  0  0  0  0  0  0
  154.7783  133.8076  162.2466 C   0  0  0  0  0  0  0  0  0  0  0  0
  155.5220  132.4658  162.0094 C   0  0  0  0  0  0  0  0  0  0  0  0
  155.0120  131.6379  160.8195 C   0  0  0  0  0  0  0  0  0  0  0  0
  155.0020  134.8107  161.0738 C   0  0  2  0  0  0  0  0  0  0  0  0
  154.2773  136.1604  161.2836 C   0  0  0  0  0  0  0  0  0  0  0  0
  154.5758  137.1278  160.1239 C   0  0  2  0  0  0  0  0  0  0  0  0
  153.8367  138.3836  160.2715 N   0  0  0  0  0  0  0  0  0  0  0  0
  153.5046  139.2682  159.3135 C   0  0  0  0  0  0  0  0  0  0  0  0
  153.8292  139.0960  158.1396 O   0  0  0  0  0  0  0  0  0  0  0  0
  152.8175  140.3383  159.7623 N   0  0  0  0  0  0  0  0  0  0  0  0
  152.3508  141.4197  159.0002 C   0  0  0  0  0  0  0  0  0  0  0  0
  152.6734  142.6808  159.3904 C   0  0  0  0  0  0  0  0  0  0  0  0
  153.5542  142.9428  160.6020 C   0  0  0  0  0  0  0  0  0  0  0  0
  152.1804  143.8039  158.6205 C   0  0  0  0  0  0  0  0  0  0  0  0
  151.4074  143.5798  157.5497 C   0  0  0  0  0  0  0  0  0  0  0  0
  151.0460  142.2821  157.1605 N   0  0  0  0  0  0  0  0  0  0  0  0
  150.1801  142.1420  155.9867 C   0  0  0  0  0  0  0  0  0  0  0  0
  151.4436  141.1757  157.8523 C   0  0  0  0  0  0  0  0  0  0  0  0
  151.0406  140.0546  157.5338 O   0  0  0  0  0  0  0  0  0  0  0  0
  154.1949  136.4490  158.8022 C   0  0  0  0  0  0  0  0  0  0  0  0
  154.8550  135.0657  158.7004 C   0  0  0  0  0  0  0  0  0  0  0  0
  154.5149  134.2810  159.8394 O   0  0  0  0  0  0  0  0  0  0  0  0
  155.2280  134.0471  165.7573 H   0  0  0  0  0  0  0  0  0  0  0  0
  155.0858  132.5795  164.7993 H   0  0  0  0  0  0  0  0  0  0  0  0
  153.6922  133.6522  165.0131 H   0  0  0  0  0  0  0  0  0  0  0  0
  154.8110  135.4295  163.6986 H   0  0  0  0  0  0  0  0  0  0  0  0
  156.2775  134.4957  163.6607 H   0  0  0  0  0  0  0  0  0  0  0  0
  153.7145  133.5693  162.2868 H   0  0  0  0  0  0  0  0  0  0  0  0
  156.5755  132.6628  161.8099 H   0  0  0  0  0  0  0  0  0  0  0  0
  155.4930  131.8585  162.9151 H   0  0  0  0  0  0  0  0  0  0  0  0
  155.6787  130.7971  160.6272 H   0  0  0  0  0  0  0  0  0  0  0  0
  154.9674  132.2378  159.9100 H   0  0  0  0  0  0  0  0  0  0  0  0
  154.0218  131.2223  161.0040 H   0  0  0  0  0  0  0  0  0  0  0  0
  156.0754  134.9761  160.9635 H   0  0  0  0  0  0  0  0  0  0  0  0
  153.2020  135.9865  161.3473 H   0  0  0  0  0  0  0  0  0  0  0  0
  154.5587  136.6178  162.2279 H   0  0  0  0  0  0  0  0  0  0  0  0
  155.6464  137.3407  160.0973 H   0  0  0  0  0  0  0  0  0  0  0  0
  153.5366  138.6065  161.2098 H   0  0  0  0  0  0  0  0  0  0  0  0
  152.7157  140.4309  160.7621 H   0  0  0  0  0  0  0  0  0  0  0  0
  153.7343  144.0096  160.7366 H   0  0  0  0  0  0  0  0  0  0  0  0
  154.5211  142.4516  160.4870 H   0  0  0  0  0  0  0  0  0  0  0  0
  153.0790  142.5653  161.5080 H   0  0  0  0  0  0  0  0  0  0  0  0
  152.4379  144.8157  158.8977 H   0  0  0  0  0  0  0  0  0  0  0  0
  151.0129  144.3761  156.9354 H   0  0  0  0  0  0  0  0  0  0  0  0
  150.6341  141.4771  155.2503 H   0  0  0  0  0  0  0  0  0  0  0  0
  149.9900  143.0927  155.4876 H   0  0  0  0  0  0  0  0  0  0  0  0
  149.2143  141.7237  156.2728 H   0  0  0  0  0  0  0  0  0  0  0  0
  153.1115  136.3335  158.7434 H   0  0  0  0  0  0  0  0  0  0  0  0
  154.4902  137.0690  157.9550 H   0  0  0  0  0  0  0  0  0  0  0  0
  154.5088  134.5520  157.8036 H   0  0  0  0  0  0  0  0  0  0  0  0
  155.9391  135.1553  158.6165 H   0  0  0  0  0  0  0  0  0  0  0  0
  1  2  1  0  0  0  0
  1 25  1  0  0  0  0
  1 26  1  0  0  0  0
  1 27  1  0  0  0  0
  2  3  1  0  0  0  0
  2 28  1  0  0  0  0
  2 29  1  0  0  0  0
  3  4  1  0  0  0  0
  3  6  1  0  0  0  0
  3 30  1  0  0  0  0
  4  5  1  0  0  0  0
  4 31  1  0  0  0  0
  4 32  1  0  0  0  0
  5 33  1  0  0  0  0
  5 34  1  0  0  0  0
  5 35  1  0  0  0  0
  6 24  1  0  0  0  0
  6  7  1  0  0  0  0
  6 36  1  0  0  0  0
  7  8  1  0  0  0  0
  7 37  1  0  0  0  0
  7 38  1  0  0  0  0
  8  9  1  0  0  0  0
  8 22  1  0  0  0  0
  8 39  1  0  0  0  0
  9 10  1  0  0  0  0
  9 40  1  0  0  0  0
 10 11  2  0  0  0  0
 10 12  1  0  0  0  0
 12 13  1  0  0  0  0
 12 41  1  0  0  0  0
 13 20  1  0  0  0  0
 13 14  2  0  0  0  0
 14 15  1  0  0  0  0
 14 16  1  0  0  0  0
 15 42  1  0  0  0  0
 15 43  1  0  0  0  0
 15 44  1  0  0  0  0
 16 17  2  0  0  0  0
 16 45  1  0  0  0  0
 17 18  1  0  0  0  0
 17 46  1  0  0  0  0
 18 19  1  0  0  0  0
 18 20  1  0  0  0  0
 19 47  1  0  0  0  0
 19 48  1  0  0  0  0
 19 49  1  0  0  0  0
 20 21  2  0  0  0  0
 22 23  1  0  0  0  0
 22 50  1  0  0  0  0
 22 51  1  0  0  0  0
 23 24  1  0  0  0  0
 23 52  1  0  0  0  0
 23 53  1  0  0  0  0
M  END
> <s_m_source_file>
AV-unprocessed.smi

> <i_m_source_file_index>
2273

> <i_lp_mmshare_version>
43012

> <i_f3d_flags>
0

> <s_epik_input>
W0NIM11bQ0gyXVtDSF0oW0NIMl1bQ0gzXSlbQ0BASF0xW0NIMl1bQ0BIXShbQ0gyXVtDSDJdTzEpW05IXUMoPU8pW05IXWMyYyhbQ0gzXSlbY0hdW2NIXW4oW0NIM10pYzI9Tw==

> <s_epik_cmdline>
J2VwaWtfcHl0aG9uJywgJy1waCcsICc3LjAnLCAnLXRuJywgJzgnLCAnLW1hJywgJzIwMCcsICctbWV0YWxfYmluZGluZycsICctaW1hZScsICc8aW5maWxlLm1hZT4nLCAnLW9tYWUnLCAnPG91dGZpbGUubWFlPic=

> <r_lp_tautomer_probability>
1

> <r_epik_Ionization_Penalty>
2.66245e-05

> <r_epik_Ionization_Penalty_Charging>
6.91055e-06

> <r_epik_Ionization_Penalty_Neutral>
1.97139e-05

> <r_epik_State_Penalty>
-0

> <r_epik_Charging_Adjusted_Penalty>
6.91055e-06

> <i_epik_Tot_Q>
0

> <i_epik_Tot_abs_Q>
0

> <r_epik_Metal_State_Penalty>
-0

> <b_epik_Metal_Only>
0

> <s_lp_Force_Field>
OPLS_2005

> <r_lp_Energy>
42.9176

> <b_lp_Chiralities_Consistent>
1

> <s_lp_Variant>
AV-unprocessed.smi:2273-3

> <Gold.Version>
5.8.1

> <Gold.Id.Protein>
6NUR|6NUR_protein|mol2

> <Gold.PLP.Fitness>
46.3056

> <Gold.PLP.PLP>
-38.6344

> <Gold.PLP.part.hbond>
-2.0000

> <Gold.PLP.part.metal>
0.0000

> <Gold.PLP.part.buried>
-3.5655

> <Gold.PLP.part.nonpolar>
-33.3617

> <Gold.PLP.part.repulsive>
0.1769

> <Gold.PLP.ligand.clash>
0.0000

> <Gold.PLP.ligand.torsion>
0.9186

> <Gold.PLP.Chemscore.Hbond>
1.9913

> <Gold.PLP.Chemscore.CHOScore>
1.0000

> <Gold.PLP.Chemscore.Metal>
0.0000

> <Gold.Chemscore.Hbonds>
donor molecule, donor type, donor heavy atom, donor atom, acceptor molecule, acceptor atom, score
      P1  H  6896  6907       L1    24  1.00
      P1  H  7997  8009       L1    11  1.00
      L1  C    17    46       P1  8028  1.00

> <Gold.PLP.Chemscore.Internal.Correction>
0.5346

> <Gold.Rescore>
     Score         DG    S(hbond)    S(metal)    S(lipo)     H(rot)  DE(clash)    DE(int)     intcor
     15.79     -18.39       1.05        0.00     111.47       1.42       0.04       2.57       ----

> <Gold.Chemscore.Fitness>
15.7894

> <Gold.Chemscore.DG>
-18.3940

> <Gold.Chemscore.ZeroCoef>
-5.4800

> <Gold.Chemscore.Hbond>
1.0530

> <Gold.Chemscore.Metal>
0.0000

> <Gold.Chemscore.Lipo>
111.4652

> <Gold.Chemscore.Internal_Hbond>
0.0000

> <Gold.Chemscore.DEClash>
0.0385

> <Gold.Chemscore.DEInternal>
2.5661

> <Gold.Chemscore.Rot>
1.4236

> <Gold.Chemscore.Internal.Correction>
   9.000000E+99

> <Gold.Chemscore.Hbonds>
donor molecule, donor type, donor heavy atom, donor atom, acceptor molecule, acceptor atom, score
      P1  H  6896  6907       L1    24  0.30
      P1  H  7997  8009       L1    11  1.00

> <Gold.Chemscore.Hbond.Weighted>
-3.5171

> <Gold.Chemscore.Metal.Weighted>
-0.0000

> <Gold.Chemscore.Lipo.Weighted>
-13.0414

> <Gold.Chemscore.Internal_Hbond.Weighted>
0.0000

> <Gold.Chemscore.DEClash.Weighted>
0.0385

> <Gold.Chemscore.DEInternal.Weighted>
2.5661

> <Gold.Chemscore.Rot.Weighted>
3.6445

> <Gold.Chemscore.Internal.Correction.Weighted>
   9.000000E+99

> <Gold.Protein.RotatedTorsions>
[ 6907 6896 6895 6894 ] final   78.83 input  -60.11 | X-H torsion
[ 7974 7965 7964 7962 ] final  170.95 input  175.53 | X-H torsion
[ 8008 7997 7996 7995 ] final  154.25 input   59.86 | X-H torsion
[ 10167 10162 10161 10158 ] final  -28.20 input  -65.29 | X-H torsion
[ 10718 10713 10712 10709 ] final  -29.89 input   66.30 | X-H torsion
[ 10763 10752 10751 10750 ] final -166.92 input  -60.55 | X-H torsion
[ 11005 11000 10999 10996 ] final -114.75 input  -57.11 | X-H torsion

> <Gold.Protein.ActiveResidues>
 VAL166  LYS551  ARG553  GLY616  TRP617  ASP618  TYR619  PRO620  LYS621  CYS622 
 ASP623  PHE694  ASN695  SER759  ASP760  ASP761  ALA762  ILE779  LEU786  VAL792 
 PHE793  MET794  SER795  GLU796  ALA797  LYS798  CYS799  TRP800  GLU811  SER814 

> <Gold.Protein.RotatedAtoms>
  152.5175  134.3604  159.9282 H   0  0  0  0  0  0  0  0  0  0  0  0  # atno 6907 bound_to 6896
  151.3556  133.3902  159.2692 H   0  0  0  0  0  0  0  0  0  0  0  0  # atno 6908 bound_to 6896
  150.9692  134.9087  159.7836 H   0  0  0  0  0  0  0  0  0  0  0  0  # atno 6909 bound_to 6896
  144.7308  139.9278  143.6423 H   0  0  0  0  0  0  0  0  0  0  0  0  # atno 7974 bound_to 7965
  156.2541  140.1971  156.6617 H   0  0  0  0  0  0  0  0  0  0  0  0  # atno 8008 bound_to 7997
  154.6459  140.0578  156.9926 H   0  0  0  0  0  0  0  0  0  0  0  0  # atno 8009 bound_to 7997
  155.1491  140.3249  155.4438 H   0  0  0  0  0  0  0  0  0  0  0  0  # atno 8010 bound_to 7997
  140.7272  143.4030  151.1233 H   0  0  0  0  0  0  0  0  0  0  0  0  # atno 10167 bound_to 10162
  156.4068  130.4400  149.7282 H   0  0  0  0  0  0  0  0  0  0  0  0  # atno 10718 bound_to 10713
  154.6785  135.2950  154.9646 H   0  0  0  0  0  0  0  0  0  0  0  0  # atno 10763 bound_to 10752
  154.0649  135.6626  153.4820 H   0  0  0  0  0  0  0  0  0  0  0  0  # atno 10764 bound_to 10752
  153.0531  135.5161  154.7815 H   0  0  0  0  0  0  0  0  0  0  0  0  # atno 10765 bound_to 10752
  141.0532  133.9654  157.2800 H   0  0  0  0  0  0  0  0  0  0  0  0  # atno 11005 bound_to 11000
  146.0880  139.3869  143.0423 LP  0  0  0  0  0  0  0  0  0  0  0  0  # atno 17320 bound_to 7965
  145.7750  140.9881  143.1129 LP  0  0  0  0  0  0  0  0  0  0  0  0  # atno 17321 bound_to 7965
  139.7653  143.8575  152.3109 LP  0  0  0  0  0  0  0  0  0  0  0  0  # atno 17342 bound_to 10162
  139.8475  144.7180  150.9255 LP  0  0  0  0  0  0  0  0  0  0  0  0  # atno 17343 bound_to 10162
  156.4276  130.7799  151.2818 LP  0  0  0  0  0  0  0  0  0  0  0  0  # atno 17370 bound_to 10713
  157.7506  131.0164  150.3542 LP  0  0  0  0  0  0  0  0  0  0  0  0  # atno 17371 bound_to 10713
  139.9368  135.0195  156.8580 LP  0  0  0  0  0  0  0  0  0  0  0  0  # atno 17394 bound_to 11000
  140.6015  134.0167  155.7539 LP  0  0  0  0  0  0  0  0  0  0  0  0  # atno 17395 bound_to 11000

$$$$
