AV-unprocessed.smi:1292|AV-procd|sdf|5398|dock3
  -GOLD-   22720 4553D 1   1.00000     0.00000
 Structure written by MMmdl.
 39 40  0  0  0  0  0  0  0  0  2 V2000
  153.6789  142.2954  160.7341 C   0  0  0  0  0  0  0  0  0  0  0  0
  152.4765  142.2700  159.7800 C   0  0  1  0  0  0  0  0  0  0  0  0
  152.1488  143.6739  159.2539 C   0  0  0  0  0  0  0  0  0  0  0  0
  150.9414  143.5993  158.3165 C   0  0  0  0  0  0  0  0  0  0  0  0
  151.1928  142.6134  157.1660 C   0  0  0  0  0  0  0  0  0  0  0  0
  151.5653  141.2736  157.6733 N   0  0  0  0  0  0  0  0  0  0  0  0
  151.4726  139.9366  156.5646 S   0  0  0  0  0  0  0  0  0  0  0  0
  150.9517  140.4915  155.3048 O   0  0  0  0  0  0  0  0  0  0  0  0
  152.8104  139.3222  156.5377 O   0  0  0  0  0  0  0  0  0  0  0  0
  150.3831  139.0579  157.3864 N   0  5  0  0  0  0  0  0  0  0  0  0
  148.9640  139.2613  157.1395 C   0  0  0  0  0  0  0  0  0  0  0  0
  148.5813  140.7580  157.2454 C   0  0  0  0  0  0  0  0  0  0  0  0
  147.8257  141.3371  156.0519 C   0  0  0  0  0  0  0  0  0  0  0  0
  146.6324  142.0725  156.2385 C   0  0  0  0  0  0  0  0  0  0  0  0
  145.9783  142.5953  155.1066 C   0  0  0  0  0  0  0  0  0  0  0  0
  146.5313  142.3598  153.8335 C   0  0  0  0  0  0  0  0  0  0  0  0
  147.7184  141.6058  153.7486 C   0  0  0  0  0  0  0  0  0  0  0  0
  148.3515  141.0965  154.8262 N   0  0  0  0  0  0  0  0  0  0  0  0
  152.7085  141.2930  158.6097 C   0  0  0  0  0  0  0  0  0  0  0  0
  154.5793  142.6441  160.2272 H   0  0  0  0  0  0  0  0  0  0  0  0
  153.8846  141.3014  161.1323 H   0  0  0  0  0  0  0  0  0  0  0  0
  153.4944  142.9576  161.5804 H   0  0  0  0  0  0  0  0  0  0  0  0
  151.6156  141.9125  160.3474 H   0  0  0  0  0  0  0  0  0  0  0  0
  151.9345  144.3503  160.0819 H   0  0  0  0  0  0  0  0  0  0  0  0
  153.0068  144.0872  158.7221 H   0  0  0  0  0  0  0  0  0  0  0  0
  150.0583  143.2879  158.8763 H   0  0  0  0  0  0  0  0  0  0  0  0
  150.7199  144.5884  157.9150 H   0  0  0  0  0  0  0  0  0  0  0  0
  150.2983  142.5520  156.5473 H   0  0  0  0  0  0  0  0  0  0  0  0
  151.9920  142.9802  156.5210 H   0  0  0  0  0  0  0  0  0  0  0  0
  148.7017  138.9162  156.1391 H   0  0  0  0  0  0  0  0  0  0  0  0
  148.3352  138.6802  157.8152 H   0  0  0  0  0  0  0  0  0  0  0  0
  147.9958  140.9226  158.1514 H   0  0  0  0  0  0  0  0  0  0  0  0
  149.4917  141.3435  157.3773 H   0  0  0  0  0  0  0  0  0  0  0  0
  146.2358  142.2426  157.2284 H   0  0  0  0  0  0  0  0  0  0  0  0
  145.0697  143.1691  155.2134 H   0  0  0  0  0  0  0  0  0  0  0  0
  146.0585  142.7478  152.9436 H   0  0  0  0  0  0  0  0  0  0  0  0
  148.1698  141.4036  152.7886 H   0  0  0  0  0  0  0  0  0  0  0  0
  153.6109  141.5587  158.0575 H   0  0  0  0  0  0  0  0  0  0  0  0
  152.8686  140.2935  159.0131 H   0  0  0  0  0  0  0  0  0  0  0  0
  1  2  1  0  0  0  0
  1 20  1  0  0  0  0
  1 21  1  0  0  0  0
  1 22  1  0  0  0  0
  2 19  1  0  0  0  0
  2  3  1  0  0  0  0
  2 23  1  0  0  0  0
  3  4  1  0  0  0  0
  3 24  1  0  0  0  0
  3 25  1  0  0  0  0
  4  5  1  0  0  0  0
  4 26  1  0  0  0  0
  4 27  1  0  0  0  0
  5  6  1  0  0  0  0
  5 28  1  0  0  0  0
  5 29  1  0  0  0  0
  6  7  1  0  0  0  0
  6 19  1  0  0  0  0
  7  8  2  0  0  0  0
  7  9  2  0  0  0  0
  7 10  1  0  0  0  0
 10 11  1  0  0  0  0
 11 12  1  0  0  0  0
 11 30  1  0  0  0  0
 11 31  1  0  0  0  0
 12 13  1  0  0  0  0
 12 32  1  0  0  0  0
 12 33  1  0  0  0  0
 13 18  1  0  0  0  0
 13 14  2  0  0  0  0
 14 15  1  0  0  0  0
 14 34  1  0  0  0  0
 15 16  2  0  0  0  0
 15 35  1  0  0  0  0
 16 17  1  0  0  0  0
 16 36  1  0  0  0  0
 17 18  2  0  0  0  0
 17 37  1  0  0  0  0
 19 38  1  0  0  0  0
 19 39  1  0  0  0  0
M  CHG  1  10  -1
M  END
> <s_m_source_file>
AV-unprocessed.smi

> <i_m_source_file_index>
1292

> <i_lp_mmshare_version>
43012

> <i_f3d_flags>
0

> <s_epik_input>
W0NIM11bQ0BASF0xW0NIMl1bQ0gyXVtDSDJdTihbQ0gyXTEpUyg9TykoPU8pW05IXVtDSDJdW0NIMl1jMltjSF1bY0hdW2NIXVtjSF1uMg==

> <s_epik_cmdline>
J2VwaWtfcHl0aG9uJywgJy1waCcsICc3LjAnLCAnLXRuJywgJzgnLCAnLW1hJywgJzIwMCcsICctbWV0YWxfYmluZGluZycsICctaW1hZScsICc8aW5maWxlLm1hZT4nLCAnLW9tYWUnLCAnPG91dGZpbGUubWFlPic=

> <r_epik_Ionization_Penalty>
2.02944

> <r_epik_Ionization_Penalty_Charging>
1.95606

> <r_epik_Ionization_Penalty_Neutral>
0.0733799

> <r_epik_State_Penalty>
2.47711

> <r_epik_Charging_Adjusted_Penalty>
4.43317

> <i_epik_Tot_Q>
-1

> <i_epik_Tot_abs_Q>
1

> <r_epik_Metal_State_Penalty>
0.729901

> <b_epik_Metal_Only>
0

> <s_lp_Force_Field>
OPLS_2005

> <r_lp_Energy>
9.691

> <b_lp_Chiralities_Consistent>
1

> <s_lp_Variant>
AV-unprocessed.smi:1292-4

> <Gold.Version>
5.8.1

> <Gold.Id.Protein>
6NUR|6NUR_protein|mol2

> <Gold.PLP.Fitness>
42.9602

> <Gold.PLP.PLP>
-35.2270

> <Gold.PLP.part.hbond>
-2.0000

> <Gold.PLP.part.metal>
0.0000

> <Gold.PLP.part.buried>
-6.6237

> <Gold.PLP.part.nonpolar>
-25.1225

> <Gold.PLP.part.repulsive>
0.1691

> <Gold.PLP.ligand.clash>
0.0000

> <Gold.PLP.ligand.torsion>
1.3988

> <Gold.PLP.Chemscore.Hbond>
1.9760

> <Gold.PLP.Chemscore.CHOScore>
1.0000

> <Gold.PLP.Chemscore.Metal>
0.0000

> <Gold.Chemscore.Hbonds>
donor molecule, donor type, donor heavy atom, donor atom, acceptor molecule, acceptor atom, score
      P1  H  7989  7998       L1     8  0.98
      P1  H  7997  8009       L1     9  1.00
      L1  C    17    37       P1  7957  0.96

> <Gold.PLP.Chemscore.Internal.Correction>
1.6028

> <Gold.Rescore>
     Score         DG    S(hbond)    S(metal)    S(lipo)     H(rot)  DE(clash)    DE(int)     intcor
     16.14     -18.59       1.92        0.00      88.33       1.42       0.01       2.44       ----

> <Gold.Chemscore.Fitness>
16.1374

> <Gold.Chemscore.DG>
-18.5903

> <Gold.Chemscore.ZeroCoef>
-5.4800

> <Gold.Chemscore.Hbond>
1.9205

> <Gold.Chemscore.Metal>
0.0000

> <Gold.Chemscore.Lipo>
88.3343

> <Gold.Chemscore.Internal_Hbond>
0.0000

> <Gold.Chemscore.DEClash>
0.0149

> <Gold.Chemscore.DEInternal>
2.4380

> <Gold.Chemscore.Rot>
1.4216

> <Gold.Chemscore.Internal.Correction>
   9.000000E+99

> <Gold.Chemscore.Hbonds>
donor molecule, donor type, donor heavy atom, donor atom, acceptor molecule, acceptor atom, score
      P1  H  7989  7998       L1     8  0.92
      P1  H  7997  8009       L1     9  1.00

> <Gold.Chemscore.Hbond.Weighted>
-6.4144

> <Gold.Chemscore.Metal.Weighted>
-0.0000

> <Gold.Chemscore.Lipo.Weighted>
-10.3351

> <Gold.Chemscore.Internal_Hbond.Weighted>
0.0000

> <Gold.Chemscore.DEClash.Weighted>
0.0149

> <Gold.Chemscore.DEInternal.Weighted>
2.4380

> <Gold.Chemscore.Rot.Weighted>
3.6392

> <Gold.Chemscore.Internal.Correction.Weighted>
   9.000000E+99

> <Gold.Protein.RotatedTorsions>
[ 6907 6896 6895 6894 ] final -152.30 input  -60.11 | X-H torsion
[ 7974 7965 7964 7962 ] final   62.28 input  175.53 | X-H torsion
[ 8008 7997 7996 7995 ] final -166.00 input   59.86 | X-H torsion
[ 10167 10162 10161 10158 ] final  -62.21 input  -65.29 | X-H torsion
[ 10718 10713 10712 10709 ] final   86.05 input   66.30 | X-H torsion
[ 10763 10752 10751 10750 ] final  152.29 input  -60.55 | X-H torsion
[ 11005 11000 10999 10996 ] final  -22.73 input  -57.11 | X-H torsion

> <Gold.Protein.ActiveResidues>
 VAL166  LYS551  ARG553  GLY616  TRP617  ASP618  TYR619  PRO620  LYS621  CYS622 
 ASP623  PHE694  ASN695  SER759  ASP760  ASP761  ALA762  ILE779  LEU786  VAL792 
 PHE793  MET794  SER795  GLU796  ALA797  LYS798  CYS799  TRP800  GLU811  SER814 

> <Gold.Protein.RotatedAtoms>
  151.2258  133.4477  159.2601 H   0  0  0  0  0  0  0  0  0  0  0  0  # atno 6907 bound_to 6896
  151.0842  134.9877  159.8381 H   0  0  0  0  0  0  0  0  0  0  0  0  # atno 6908 bound_to 6896
  152.5427  134.2195  159.8835 H   0  0  0  0  0  0  0  0  0  0  0  0  # atno 6909 bound_to 6896
  145.8752  139.3405  143.0739 H   0  0  0  0  0  0  0  0  0  0  0  0  # atno 7974 bound_to 7965
  155.8577  140.0973  157.1634 H   0  0  0  0  0  0  0  0  0  0  0  0  # atno 8008 bound_to 7997
  154.3988  140.1371  156.3984 H   0  0  0  0  0  0  0  0  0  0  0  0  # atno 8009 bound_to 7997
  155.7892  140.3456  155.5342 H   0  0  0  0  0  0  0  0  0  0  0  0  # atno 8010 bound_to 7997
  140.5954  143.2350  151.6046 H   0  0  0  0  0  0  0  0  0  0  0  0  # atno 10167 bound_to 10162
  157.6923  131.0200  150.2915 H   0  0  0  0  0  0  0  0  0  0  0  0  # atno 10718 bound_to 10713
  154.1176  135.2835  155.3216 H   0  0  0  0  0  0  0  0  0  0  0  0  # atno 10763 bound_to 10752
  154.6446  135.5390  153.7833 H   0  0  0  0  0  0  0  0  0  0  0  0  # atno 10764 bound_to 10752
  153.0324  135.6495  154.1331 H   0  0  0  0  0  0  0  0  0  0  0  0  # atno 10765 bound_to 10752
  140.8685  133.7737  156.0158 H   0  0  0  0  0  0  0  0  0  0  0  0  # atno 11005 bound_to 11000
  145.9090  140.9193  143.0464 LP  0  0  0  0  0  0  0  0  0  0  0  0  # atno 17320 bound_to 7965
  144.6726  140.1134  143.7454 LP  0  0  0  0  0  0  0  0  0  0  0  0  # atno 17321 bound_to 7965
  139.5255  144.3073  152.1023 LP  0  0  0  0  0  0  0  0  0  0  0  0  # atno 17342 bound_to 10162
  140.2244  144.4433  150.6327 LP  0  0  0  0  0  0  0  0  0  0  0  0  # atno 17343 bound_to 10162
  156.3445  130.3821  149.7380 LP  0  0  0  0  0  0  0  0  0  0  0  0  # atno 17370 bound_to 10713
  156.4878  130.8071  151.3082 LP  0  0  0  0  0  0  0  0  0  0  0  0  # atno 17371 bound_to 10713
  140.8601  134.2851  157.5238 LP  0  0  0  0  0  0  0  0  0  0  0  0  # atno 17394 bound_to 11000
  139.8710  134.9513  156.4082 LP  0  0  0  0  0  0  0  0  0  0  0  0  # atno 17395 bound_to 11000

$$$$
