AV-unprocessed.smi:113|AV-procd|sdf|1095|dock9
  -GOLD-   2262018203D 1   1.00000     0.00000
 Structure written by MMmdl.
 52 55  0  0  0  0  0  0  0  0  1 V2000
  155.4124  138.9139  162.3489 C   0  0  0  0  0  0  0  0  0  0  0  0
  154.5540  139.6712  161.3573 C   0  0  0  0  0  0  0  0  0  0  0  0
  153.9260  139.0010  160.2926 C   0  0  0  0  0  0  0  0  0  0  0  0
  153.1382  139.7436  159.3836 C   0  0  0  0  0  0  0  0  0  0  0  0
  152.4320  139.0621  158.2061 C   0  0  0  0  0  0  0  0  0  0  0  0
  151.0009  138.8297  158.3429 N   0  0  0  0  0  0  0  0  0  0  0  0
  150.1201  139.7115  157.6702 C   0  0  0  0  0  0  0  0  0  0  0  0
  150.5406  140.6575  157.0006 O   0  0  0  0  0  0  0  0  0  0  0  0
  148.6964  139.3980  157.8140 C   0  0  0  0  0  0  0  0  0  0  0  0
  147.6905  140.2944  157.1089 C   0  0  0  0  0  0  0  0  0  0  0  0
  148.3143  138.3279  158.5520 C   0  0  0  0  0  0  0  0  0  0  0  0
  149.1958  137.4871  159.2088 N   0  0  0  0  0  0  0  0  0  0  0  0
  148.6636  136.2834  159.9561 C   0  0  2  0  0  0  0  0  0  0  0  0
  147.1960  135.9577  159.6308 C   0  0  0  0  0  0  0  0  0  0  0  0
  146.5071  136.0764  160.9824 C   0  0  1  0  0  0  0  0  0  0  0  0
  145.5256  135.0712  161.1336 O   0  0  0  0  0  0  0  0  0  0  0  0
  147.6594  135.9157  161.9806 C   0  0  2  0  0  0  0  0  0  0  0  0
  147.4327  136.5978  163.3385 C   0  0  0  0  0  0  0  0  0  0  0  0
  146.9757  137.9215  163.1579 O   0  0  0  0  0  0  0  0  0  0  0  0
  148.7545  136.5373  161.3231 O   0  0  0  0  0  0  0  0  0  0  0  0
  150.5861  137.7044  159.0900 C   0  0  0  0  0  0  0  0  0  0  0  0
  151.3998  136.9327  159.6019 O   0  0  0  0  0  0  0  0  0  0  0  0
  153.0204  141.1442  159.5956 C   0  0  0  0  0  0  0  0  0  0  0  0
  152.2495  141.9606  158.7330 C   0  0  0  0  0  0  0  0  0  0  0  0
  152.1450  143.3445  158.9609 C   0  0  0  0  0  0  0  0  0  0  0  0
  152.8101  143.9270  160.0524 C   0  0  0  0  0  0  0  0  0  0  0  0
  153.5787  143.1235  160.9134 C   0  0  0  0  0  0  0  0  0  0  0  0
  153.6972  141.7325  160.7048 C   0  0  0  0  0  0  0  0  0  0  0  0
  154.4451  140.9989  161.5581 N   0  0  0  0  0  0  0  0  0  0  0  0
  155.1446  137.8572  162.3700 H   0  0  0  0  0  0  0  0  0  0  0  0
  155.2879  139.3133  163.3561 H   0  0  0  0  0  0  0  0  0  0  0  0
  156.4643  138.9957  162.0737 H   0  0  0  0  0  0  0  0  0  0  0  0
  154.0573  137.9344  160.1882 H   0  0  0  0  0  0  0  0  0  0  0  0
  152.5801  139.6406  157.2929 H   0  0  0  0  0  0  0  0  0  0  0  0
  152.8991  138.0993  157.9933 H   0  0  0  0  0  0  0  0  0  0  0  0
  146.6640  139.9746  157.2899 H   0  0  0  0  0  0  0  0  0  0  0  0
  147.8588  140.2812  156.0314 H   0  0  0  0  0  0  0  0  0  0  0  0
  147.7853  141.3232  157.4581 H   0  0  0  0  0  0  0  0  0  0  0  0
  147.2563  138.1220  158.6300 H   0  0  0  0  0  0  0  0  0  0  0  0
  149.3229  135.4516  159.7057 H   0  0  0  0  0  0  0  0  0  0  0  0
  146.7759  136.6249  158.8773 H   0  0  0  0  0  0  0  0  0  0  0  0
  147.1556  134.9382  159.2445 H   0  0  0  0  0  0  0  0  0  0  0  0
  146.0446  137.0587  161.0823 H   0  0  0  0  0  0  0  0  0  0  0  0
  144.7003  135.4116  160.8224 H   0  0  0  0  0  0  0  0  0  0  0  0
  147.9091  134.8609  162.1129 H   0  0  0  0  0  0  0  0  0  0  0  0
  146.6814  136.0519  163.9098 H   0  0  0  0  0  0  0  0  0  0  0  0
  148.3480  136.6022  163.9316 H   0  0  0  0  0  0  0  0  0  0  0  0
  146.7445  138.2773  164.0024 H   0  0  0  0  0  0  0  0  0  0  0  0
  151.7262  141.5451  157.8854 H   0  0  0  0  0  0  0  0  0  0  0  0
  151.5540  143.9589  158.2976 H   0  0  0  0  0  0  0  0  0  0  0  0
  152.7316  144.9895  160.2303 H   0  0  0  0  0  0  0  0  0  0  0  0
  154.0856  143.5831  161.7493 H   0  0  0  0  0  0  0  0  0  0  0  0
  1  2  1  0  0  0  0
  1 30  1  0  0  0  0
  1 31  1  0  0  0  0
  1 32  1  0  0  0  0
  2 29  1  0  0  0  0
  2  3  2  0  0  0  0
  3  4  1  0  0  0  0
  3 33  1  0  0  0  0
  4  5  1  0  0  0  0
  4 23  2  0  0  0  0
  5  6  1  0  0  0  0
  5 34  1  0  0  0  0
  5 35  1  0  0  0  0
  6 21  1  0  0  0  0
  6  7  1  0  0  0  0
  7  8  2  0  0  0  0
  7  9  1  0  0  0  0
  9 10  1  0  0  0  0
  9 11  2  0  0  0  0
 10 36  1  0  0  0  0
 10 37  1  0  0  0  0
 10 38  1  0  0  0  0
 11 12  1  0  0  0  0
 11 39  1  0  0  0  0
 12 13  1  0  0  0  0
 12 21  1  0  0  0  0
 13 20  1  0  0  0  0
 13 14  1  0  0  0  0
 13 40  1  0  0  0  0
 14 15  1  0  0  0  0
 14 41  1  0  0  0  0
 14 42  1  0  0  0  0
 15 16  1  0  0  0  0
 15 17  1  0  0  0  0
 15 43  1  0  0  0  0
 16 44  1  0  0  0  0
 17 18  1  0  0  0  0
 17 20  1  0  0  0  0
 17 45  1  0  0  0  0
 18 19  1  0  0  0  0
 18 46  1  0  0  0  0
 18 47  1  0  0  0  0
 19 48  1  0  0  0  0
 21 22  2  0  0  0  0
 23 28  1  0  0  0  0
 23 24  1  0  0  0  0
 24 25  2  0  0  0  0
 24 49  1  0  0  0  0
 25 26  1  0  0  0  0
 25 50  1  0  0  0  0
 26 27  2  0  0  0  0
 26 51  1  0  0  0  0
 27 28  1  0  0  0  0
 27 52  1  0  0  0  0
 28 29  2  0  0  0  0
M  END
> <s_m_source_file>
AV-unprocessed.smi

> <i_m_source_file_index>
113

> <i_lp_mmshare_version>
43012

> <i_f3d_flags>
0

> <s_epik_input>
W2NIXTFbY0hdW2NIXVtjSF1jKGMxMiluYyhbQ0gzXSlbY0hdYzJbQ0gyXW4zYyg9TyljKFtDSDNdKVtjSF1uKGMzPU8pW0NAQEhdNFtDSDJdW0NAQEhdKFtPSF0pW0NASF0oTzQpW0NIMl1bT0hd

> <s_epik_cmdline>
J2VwaWtfcHl0aG9uJywgJy1waCcsICc3LjAnLCAnLXRuJywgJzgnLCAnLW1hJywgJzIwMCcsICctbWV0YWxfYmluZGluZycsICctaW1hZScsICc8aW5maWxlLm1hZT4nLCAnLW9tYWUnLCAnPG91dGZpbGUubWFlPic=

> <r_lp_tautomer_probability>
1

> <r_epik_Ionization_Penalty>
0.214728

> <r_epik_Ionization_Penalty_Charging>
3.04883e-08

> <r_epik_Ionization_Penalty_Neutral>
0.214728

> <r_epik_State_Penalty>
0.204913

> <r_epik_Charging_Adjusted_Penalty>
0.204913

> <i_epik_Tot_Q>
0

> <i_epik_Tot_abs_Q>
0

> <r_epik_Metal_State_Penalty>
0.000244761

> <b_epik_Metal_Only>
0

> <s_epik_Chemistry_Notes>
This compound contains an acetal/aminal-like group ( X-CH(R)-Y where X, Y are N, S, or O) that may be acid/base labile, releasing an aldehyde.

> <s_lp_Force_Field>
OPLS_2005

> <r_lp_Energy>
32.9041

> <b_lp_Chiralities_Consistent>
1

> <s_lp_Variant>
AV-unprocessed.smi:113-5

> <Gold.Version>
5.8.1

> <Gold.Id.Protein>
6NUR|6NUR_protein|mol2

> <Gold.PLP.Fitness>
55.9076

> <Gold.PLP.PLP>
-51.0574

> <Gold.PLP.part.hbond>
-3.9613

> <Gold.PLP.part.metal>
0.0000

> <Gold.PLP.part.buried>
-6.8858

> <Gold.PLP.part.nonpolar>
-41.3240

> <Gold.PLP.part.repulsive>
0.0095

> <Gold.PLP.ligand.clash>
0.0000

> <Gold.PLP.ligand.torsion>
0.9399

> <Gold.PLP.Chemscore.Hbond>
2.2303

> <Gold.PLP.Chemscore.CHOScore>
0.0000

> <Gold.PLP.Chemscore.Metal>
0.0000

> <Gold.Chemscore.Hbonds>
donor molecule, donor type, donor heavy atom, donor atom, acceptor molecule, acceptor atom, score
      P1  H  6896  6908       L1    22  1.00
      P1  H  6931  6943       L1    20  1.00

> <Gold.PLP.Chemscore.Internal.Correction>
0.0391

> <Gold.Rescore>
     Score         DG    S(hbond)    S(metal)    S(lipo)     H(rot)  DE(clash)    DE(int)     intcor
     17.42     -20.47       2.41        0.00     123.70       2.95       0.01       3.03       ----

> <Gold.Chemscore.Fitness>
17.4178

> <Gold.Chemscore.DG>
-20.4657

> <Gold.Chemscore.ZeroCoef>
-5.4800

> <Gold.Chemscore.Hbond>
2.4121

> <Gold.Chemscore.Metal>
0.0000

> <Gold.Chemscore.Lipo>
123.7035

> <Gold.Chemscore.Internal_Hbond>
0.0000

> <Gold.Chemscore.DEClash>
0.0135

> <Gold.Chemscore.DEInternal>
3.0345

> <Gold.Chemscore.Rot>
2.9469

> <Gold.Chemscore.Internal.Correction>
   9.000000E+99

> <Gold.Chemscore.Hbonds>
donor molecule, donor type, donor heavy atom, donor atom, acceptor molecule, acceptor atom, score
      P1  H  6896  6908       L1    22  1.00
      P1  H  6931  6943       L1    20  0.83
      P1  H  6934  6947       L1    19  0.01

> <Gold.Chemscore.Hbond.Weighted>
-8.0564

> <Gold.Chemscore.Metal.Weighted>
-0.0000

> <Gold.Chemscore.Lipo.Weighted>
-14.4733

> <Gold.Chemscore.Internal_Hbond.Weighted>
0.0000

> <Gold.Chemscore.DEClash.Weighted>
0.0135

> <Gold.Chemscore.DEInternal.Weighted>
3.0345

> <Gold.Chemscore.Rot.Weighted>
7.5439

> <Gold.Chemscore.Internal.Correction.Weighted>
   9.000000E+99

> <Gold.Protein.RotatedTorsions>
[ 6907 6896 6895 6894 ] final -137.90 input  -60.11 | X-H torsion
[ 7974 7965 7964 7962 ] final  153.17 input  175.53 | X-H torsion
[ 8008 7997 7996 7995 ] final -169.82 input   59.86 | X-H torsion
[ 10167 10162 10161 10158 ] final   46.27 input  -65.29 | X-H torsion
[ 10718 10713 10712 10709 ] final   71.12 input   66.30 | X-H torsion
[ 10763 10752 10751 10750 ] final -106.26 input  -60.55 | X-H torsion
[ 11005 11000 10999 10996 ] final   48.20 input  -57.11 | X-H torsion

> <Gold.Protein.ActiveResidues>
 VAL166  LYS551  ARG553  GLY616  TRP617  ASP618  TYR619  PRO620  LYS621  CYS622 
 ASP623  PHE694  ASN695  SER759  ASP760  ASP761  ALA762  ILE779  LEU786  VAL792 
 PHE793  MET794  SER795  GLU796  ALA797  LYS798  CYS799  TRP800  GLU811  SER814 

> <Gold.Protein.RotatedAtoms>
  151.0283  133.5813  159.2663 H   0  0  0  0  0  0  0  0  0  0  0  0  # atno 6907 bound_to 6896
  151.2904  135.0739  159.9212 H   0  0  0  0  0  0  0  0  0  0  0  0  # atno 6908 bound_to 6896
  152.5339  133.9982  159.7936 H   0  0  0  0  0  0  0  0  0  0  0  0  # atno 6909 bound_to 6896
  144.8172  139.6765  143.6116 H   0  0  0  0  0  0  0  0  0  0  0  0  # atno 7974 bound_to 7965
  155.9102  140.1056  157.1285 H   0  0  0  0  0  0  0  0  0  0  0  0  # atno 8008 bound_to 7997
  154.4038  140.1276  156.4611 H   0  0  0  0  0  0  0  0  0  0  0  0  # atno 8009 bound_to 7997
  155.7320  140.3468  155.5066 H   0  0  0  0  0  0  0  0  0  0  0  0  # atno 8010 bound_to 7997
  140.3156  144.2767  150.6191 H   0  0  0  0  0  0  0  0  0  0  0  0  # atno 10167 bound_to 10162
  157.6435  130.9512  150.0746 H   0  0  0  0  0  0  0  0  0  0  0  0  # atno 10718 bound_to 10713
  154.8001  135.4718  154.0254 H   0  0  0  0  0  0  0  0  0  0  0  0  # atno 10763 bound_to 10752
  153.1767  135.6834  153.8541 H   0  0  0  0  0  0  0  0  0  0  0  0  # atno 10764 bound_to 10752
  153.8105  135.3217  155.3378 H   0  0  0  0  0  0  0  0  0  0  0  0  # atno 10765 bound_to 10752
  140.1212  134.4827  155.8596 H   0  0  0  0  0  0  0  0  0  0  0  0  # atno 11005 bound_to 11000
  146.2476  139.6131  142.9449 LP  0  0  0  0  0  0  0  0  0  0  0  0  # atno 17320 bound_to 7965
  145.5186  141.0433  143.2448 LP  0  0  0  0  0  0  0  0  0  0  0  0  # atno 17321 bound_to 7965
  140.5529  143.2203  151.7896 LP  0  0  0  0  0  0  0  0  0  0  0  0  # atno 17342 bound_to 10162
  139.4884  144.4452  151.9718 LP  0  0  0  0  0  0  0  0  0  0  0  0  # atno 17343 bound_to 10162
  156.1740  130.3647  149.9126 LP  0  0  0  0  0  0  0  0  0  0  0  0  # atno 17370 bound_to 10713
  156.7095  130.8964  151.3608 LP  0  0  0  0  0  0  0  0  0  0  0  0  # atno 17371 bound_to 10713
  141.2152  133.6761  156.6891 LP  0  0  0  0  0  0  0  0  0  0  0  0  # atno 17394 bound_to 11000
  140.2963  134.8200  157.4060 LP  0  0  0  0  0  0  0  0  0  0  0  0  # atno 17395 bound_to 11000

$$$$
