AV-unprocessed.smi:35|AV-procd|sdf|259|dock5
  -GOLD-   2262016 23D 1   1.00000     0.00000
 Structure written by MMmdl.
 29 30  0  0  0  0  0  0  0  0  1 V2000
  146.1717  131.3112  148.5814 O   0  0  0  0  0  0  0  0  0  0  0  0
  145.8807  132.0872  149.4890 C   0  0  0  0  0  0  0  0  0  0  0  0
  146.7656  132.2946  150.5507 N   0  0  0  0  0  0  0  0  0  0  0  0
  146.5461  133.1484  151.6335 C   0  0  0  0  0  0  0  0  0  0  0  0
  147.4012  133.2653  152.5104 O   0  0  0  0  0  0  0  0  0  0  0  0
  145.3259  133.8599  151.6608 N   0  0  0  0  0  0  0  0  0  0  0  0
  145.0635  134.7943  152.8274 C   0  0  2  0  0  0  0  0  0  0  0  0
  143.7031  135.1155  152.8761 O   0  0  0  0  0  0  0  0  0  0  0  0
  143.5027  136.4710  152.4841 C   0  0  1  0  0  0  0  0  0  0  0  0
  142.1907  136.9963  153.0852 C   0  0  0  0  0  0  0  0  0  0  0  0
  142.0341  138.3648  152.7770 O   0  0  0  0  0  0  0  0  0  0  0  0
  144.7531  137.1422  153.0503 C   0  0  2  0  0  0  0  0  0  0  0  0
  144.9938  138.4256  152.5032 O   0  0  0  0  0  0  0  0  0  0  0  0
  145.8456  136.1268  152.7303 C   0  0  2  0  0  0  0  0  0  0  0  0
  146.4273  136.3541  151.4547 O   0  0  0  0  0  0  0  0  0  0  0  0
  144.4159  133.6882  150.6241 C   0  0  0  0  0  0  0  0  0  0  0  0
  144.6449  132.8570  149.5801 C   0  0  0  0  0  0  0  0  0  0  0  0
  143.2241  132.7513  148.2040 Br  0  0  0  0  0  0  0  0  0  0  0  0
  147.6376  131.7861  150.5307 H   0  0  0  0  0  0  0  0  0  0  0  0
  145.2931  134.2212  153.7279 H   0  0  0  0  0  0  0  0  0  0  0  0
  143.5016  136.5554  151.3958 H   0  0  0  0  0  0  0  0  0  0  0  0
  141.3327  136.4251  152.7297 H   0  0  0  0  0  0  0  0  0  0  0  0
  142.2126  136.9065  154.1716 H   0  0  0  0  0  0  0  0  0  0  0  0
  142.8617  138.8003  152.9133 H   0  0  0  0  0  0  0  0  0  0  0  0
  144.6578  137.2330  154.1337 H   0  0  0  0  0  0  0  0  0  0  0  0
  144.6246  138.4557  151.6338 H   0  0  0  0  0  0  0  0  0  0  0  0
  146.6385  136.1412  153.4786 H   0  0  0  0  0  0  0  0  0  0  0  0
  147.3673  136.3263  151.5473 H   0  0  0  0  0  0  0  0  0  0  0  0
  143.4826  134.2293  150.6291 H   0  0  0  0  0  0  0  0  0  0  0  0
  1  2  2  0  0  0  0
  2 17  1  0  0  0  0
  2  3  1  0  0  0  0
  3 19  1  0  0  0  0
  3  4  1  0  0  0  0
  4  5  2  0  0  0  0
  4  6  1  0  0  0  0
  6  7  1  0  0  0  0
  6 16  1  0  0  0  0
  7 14  1  0  0  0  0
  7  8  1  0  0  0  0
  7 20  1  0  0  0  0
  8  9  1  0  0  0  0
  9 10  1  0  0  0  0
  9 12  1  0  0  0  0
  9 21  1  0  0  0  0
 10 11  1  0  0  0  0
 10 22  1  0  0  0  0
 10 23  1  0  0  0  0
 11 24  1  0  0  0  0
 12 13  1  0  0  0  0
 12 14  1  0  0  0  0
 12 25  1  0  0  0  0
 13 26  1  0  0  0  0
 14 15  1  0  0  0  0
 14 27  1  0  0  0  0
 15 28  1  0  0  0  0
 16 17  2  0  0  0  0
 16 29  1  0  0  0  0
 17 18  1  0  0  0  0
M  END
> <s_m_source_file>
AV-unprocessed.smi

> <i_m_source_file_index>
35

> <i_lp_mmshare_version>
43012

> <i_f3d_flags>
0

> <s_epik_input>
Tz1jMVtuSF1jKD1PKW4oW2NIXWMxQnIpW0NAQEhdMk9bQ0BASF0oW0NIMl1bT0hdKVtDQEBIXShbT0hdKVtDQEhdMltPSF0=

> <s_epik_cmdline>
J2VwaWtfcHl0aG9uJywgJy1waCcsICc3LjAnLCAnLXRuJywgJzgnLCAnLW1hJywgJzIwMCcsICctbWV0YWxfYmluZGluZycsICctaW1hZScsICc8aW5maWxlLm1hZT4nLCAnLW9tYWUnLCAnPG91dGZpbGUubWFlPic=

> <r_lp_tautomer_probability>
0.999537

> <r_epik_Ionization_Penalty>
0.10812

> <r_epik_Ionization_Penalty_Charging>
0.108119

> <r_epik_Ionization_Penalty_Neutral>
4.93006e-07

> <r_epik_State_Penalty>
0.0979238

> <r_epik_Charging_Adjusted_Penalty>
0.206043

> <i_epik_Tot_Q>
0

> <i_epik_Tot_abs_Q>
0

> <r_epik_Metal_State_Penalty>
3.07911

> <b_epik_Metal_Only>
0

> <s_epik_Chemistry_Notes>
This compound contains an acetal/aminal-like group ( X-CH(R)-Y where X, Y are N, S, or O) that may be acid/base labile, releasing an aldehyde.

> <s_lp_Force_Field>
OPLS_2005

> <r_lp_Energy>
37.6264

> <b_lp_Chiralities_Consistent>
1

> <s_lp_Variant>
AV-unprocessed.smi:35-13

> <Gold.Version>
5.8.1

> <Gold.Id.Protein>
6NUR|6NUR_protein|mol2

> <Gold.PLP.Fitness>
40.8277

> <Gold.PLP.PLP>
-28.8709

> <Gold.PLP.part.hbond>
-5.6081

> <Gold.PLP.part.metal>
0.0000

> <Gold.PLP.part.buried>
-2.1058

> <Gold.PLP.part.nonpolar>
-21.4325

> <Gold.PLP.part.repulsive>
0.6122

> <Gold.PLP.ligand.clash>
0.0000

> <Gold.PLP.ligand.torsion>
0.4375

> <Gold.PLP.Chemscore.Hbond>
3.7520

> <Gold.PLP.Chemscore.CHOScore>
0.4958

> <Gold.PLP.Chemscore.Metal>
0.0000

> <Gold.Chemscore.Hbonds>
donor molecule, donor type, donor heavy atom, donor atom, acceptor molecule, acceptor atom, score
      L1  H     3    19       P1 10747  1.00
      L1  H    11    24       P1 10175  0.72
      L1  H    13    26       P1 10171  1.00
      L1  H    15    28       P1  7948  1.00
      L1  C    16    29       P1 10186  0.57

> <Gold.PLP.Chemscore.Internal.Correction>
0.0886

> <Gold.Rescore>
     Score         DG    S(hbond)    S(metal)    S(lipo)     H(rot)  DE(clash)    DE(int)     intcor
     12.70     -15.05       3.93        0.00      49.93       3.67       1.95       0.39       ----

> <Gold.Chemscore.Fitness>
12.7028

> <Gold.Chemscore.DG>
-15.0469

> <Gold.Chemscore.ZeroCoef>
-5.4800

> <Gold.Chemscore.Hbond>
3.9282

> <Gold.Chemscore.Metal>
0.0000

> <Gold.Chemscore.Lipo>
49.9341

> <Gold.Chemscore.Internal_Hbond>
0.0000

> <Gold.Chemscore.DEClash>
1.9493

> <Gold.Chemscore.DEInternal>
0.3948

> <Gold.Chemscore.Rot>
3.6701

> <Gold.Chemscore.Internal.Correction>
   9.000000E+99

> <Gold.Chemscore.Hbonds>
donor molecule, donor type, donor heavy atom, donor atom, acceptor molecule, acceptor atom, score
      L1  H     3    19       P1 10747  1.00
      L1  H    11    24       P1 10175  0.72
      L1  H    13    26       P1 10171  0.98
      L1  H    15    28       P1  7948  0.98

> <Gold.Chemscore.Hbond.Weighted>
-13.1201

> <Gold.Chemscore.Metal.Weighted>
-0.0000

> <Gold.Chemscore.Lipo.Weighted>
-5.8423

> <Gold.Chemscore.Internal_Hbond.Weighted>
0.0000

> <Gold.Chemscore.DEClash.Weighted>
1.9493

> <Gold.Chemscore.DEInternal.Weighted>
0.3948

> <Gold.Chemscore.Rot.Weighted>
9.3955

> <Gold.Chemscore.Internal.Correction.Weighted>
   9.000000E+99

> <Gold.Protein.RotatedTorsions>
[ 6907 6896 6895 6894 ] final  -27.58 input  -60.11 | X-H torsion
[ 7974 7965 7964 7962 ] final -125.41 input  175.53 | X-H torsion
[ 8008 7997 7996 7995 ] final -134.79 input   59.86 | X-H torsion
[ 10167 10162 10161 10158 ] final -139.58 input  -65.29 | X-H torsion
[ 10718 10713 10712 10709 ] final  -38.76 input   66.30 | X-H torsion
[ 10763 10752 10751 10750 ] final   86.79 input  -60.55 | X-H torsion
[ 11005 11000 10999 10996 ] final   21.00 input  -57.11 | X-H torsion

> <Gold.Protein.ActiveResidues>
 VAL166  LYS551  ARG553  GLY616  TRP617  ASP618  TYR619  PRO620  LYS621  CYS622 
 ASP623  PHE694  ASN695  SER759  ASP760  ASP761  ALA762  ILE779  LEU786  VAL792 
 PHE793  MET794  SER795  GLU796  ALA797  LYS798  CYS799  TRP800  GLU811  SER814 

> <Gold.Protein.RotatedAtoms>
  151.1448  135.0198  159.8641 H   0  0  0  0  0  0  0  0  0  0  0  0  # atno 6907 bound_to 6896
  152.5453  134.1456  159.8507 H   0  0  0  0  0  0  0  0  0  0  0  0  # atno 6908 bound_to 6896
  151.1536  133.4846  159.2627 H   0  0  0  0  0  0  0  0  0  0  0  0  # atno 6909 bound_to 6896
  144.9979  140.7793  143.4514 H   0  0  0  0  0  0  0  0  0  0  0  0  # atno 7974 bound_to 7965
  155.3679  140.0486  157.3046 H   0  0  0  0  0  0  0  0  0  0  0  0  # atno 8008 bound_to 7997
  154.5145  140.2203  155.9056 H   0  0  0  0  0  0  0  0  0  0  0  0  # atno 8009 bound_to 7997
  156.1620  140.3114  155.8829 H   0  0  0  0  0  0  0  0  0  0  0  0  # atno 8010 bound_to 7997
  139.8365  143.7378  152.2664 H   0  0  0  0  0  0  0  0  0  0  0  0  # atno 10167 bound_to 10162
  156.3001  130.4239  149.8152 H   0  0  0  0  0  0  0  0  0  0  0  0  # atno 10718 bound_to 10713
  153.1605  135.4567  154.9764 H   0  0  0  0  0  0  0  0  0  0  0  0  # atno 10763 bound_to 10752
  154.7893  135.3215  154.7816 H   0  0  0  0  0  0  0  0  0  0  0  0  # atno 10764 bound_to 10752
  153.8306  135.6939  153.4869 H   0  0  0  0  0  0  0  0  0  0  0  0  # atno 10765 bound_to 10752
  140.3964  134.1765  155.7663 H   0  0  0  0  0  0  0  0  0  0  0  0  # atno 11005 bound_to 11000
  145.2194  139.2166  143.5101 LP  0  0  0  0  0  0  0  0  0  0  0  0  # atno 17320 bound_to 7965
  146.3446  140.2049  142.8589 LP  0  0  0  0  0  0  0  0  0  0  0  0  # atno 17321 bound_to 7965
  139.7601  144.7509  151.0376 LP  0  0  0  0  0  0  0  0  0  0  0  0  # atno 17342 bound_to 10162
  140.7802  143.4760  151.0082 LP  0  0  0  0  0  0  0  0  0  0  0  0  # atno 17343 bound_to 10162
  156.5533  130.8351  151.3306 LP  0  0  0  0  0  0  0  0  0  0  0  0  # atno 17370 bound_to 10713
  157.7365  130.9781  150.2143 LP  0  0  0  0  0  0  0  0  0  0  0  0  # atno 17371 bound_to 10713
  141.1872  133.8285  157.1039 LP  0  0  0  0  0  0  0  0  0  0  0  0  # atno 17394 bound_to 11000
  140.0368  134.9874  157.0887 LP  0  0  0  0  0  0  0  0  0  0  0  0  # atno 17395 bound_to 11000

$$$$
