AV-unprocessed.smi:1433|AV-procd|sdf|5842|dock4
  -GOLD-   22720 5503D 1   1.00000     0.00000
 Structure written by MMmdl.
 45 46  0  0  0  0  0  0  0  0  2 V2000
  146.8359  131.1410  154.1188 C   0  0  0  0  0  0  0  0  0  0  0  0
  146.2723  132.3191  153.3173 C   0  0  1  0  0  0  0  0  0  0  0  0
  147.3406  133.4018  153.0540 C   0  0  0  0  0  0  0  0  0  0  0  0
  146.7971  134.5059  152.2159 N   0  3  2  0  0  0  0  0  0  0  0  0
  145.8523  135.4485  152.9100 C   0  0  2  0  0  0  0  0  0  0  0  0
  145.2485  136.4797  151.9258 C   0  0  0  0  0  0  0  0  0  0  0  0
  146.5306  136.1834  154.1015 C   0  0  0  0  0  0  0  0  0  0  0  0
  147.5031  137.1887  153.6819 N   0  0  0  0  0  0  0  0  0  0  0  0
  147.8980  138.2338  154.4264 C   0  0  0  0  0  0  0  0  0  0  0  0
  147.4703  138.4554  155.5592 O   0  0  0  0  0  0  0  0  0  0  0  0
  148.9187  139.1810  153.7930 C   0  0  0  0  0  0  0  0  0  0  0  0
  150.2507  138.9622  154.3281 N   0  0  0  0  0  0  0  0  0  0  0  0
  151.0182  137.8168  154.2782 C   0  0  0  0  0  0  0  0  0  0  0  0
  152.1952  138.0876  154.9150 C   0  0  0  0  0  0  0  0  0  0  0  0
  152.0532  139.4425  155.3261 C   0  0  0  0  0  0  0  0  0  0  0  0
  150.8884  139.9627  154.9745 N   0  0  0  0  0  0  0  0  0  0  0  0
  146.2892  133.9054  150.9514 C   0  0  0  0  0  0  0  0  0  0  0  0
  145.2297  132.8188  151.2353 C   0  0  1  0  0  0  0  0  0  0  0  0
  144.7421  132.1422  149.9496 C   0  0  0  0  0  0  0  0  0  0  0  0
  145.8071  131.8172  152.0677 O   0  0  0  0  0  0  0  0  0  0  0  0
  147.1977  131.4678  155.0940 H   0  0  0  0  0  0  0  0  0  0  0  0
  147.6665  130.6672  153.5946 H   0  0  0  0  0  0  0  0  0  0  0  0
  146.0715  130.3819  154.2861 H   0  0  0  0  0  0  0  0  0  0  0  0
  145.4331  132.7382  153.8736 H   0  0  0  0  0  0  0  0  0  0  0  0
  147.7842  133.7548  153.9814 H   0  0  0  0  0  0  0  0  0  0  0  0
  148.1715  132.9495  152.5103 H   0  0  0  0  0  0  0  0  0  0  0  0
  145.0228  134.8668  153.3101 H   0  0  0  0  0  0  0  0  0  0  0  0
  144.6353  137.2238  152.4333 H   0  0  0  0  0  0  0  0  0  0  0  0
  144.5838  136.0157  151.1985 H   0  0  0  0  0  0  0  0  0  0  0  0
  146.0286  137.0146  151.3834 H   0  0  0  0  0  0  0  0  0  0  0  0
  145.8075  136.7008  154.7297 H   0  0  0  0  0  0  0  0  0  0  0  0
  147.0414  135.4637  154.7421 H   0  0  0  0  0  0  0  0  0  0  0  0
  147.9089  137.0798  152.7635 H   0  0  0  0  0  0  0  0  0  0  0  0
  148.9418  139.0312  152.7128 H   0  0  0  0  0  0  0  0  0  0  0  0
  148.6278  140.2184  153.9653 H   0  0  0  0  0  0  0  0  0  0  0  0
  150.6676  136.9146  153.7986 H   0  0  0  0  0  0  0  0  0  0  0  0
  153.0312  137.4205  155.0642 H   0  0  0  0  0  0  0  0  0  0  0  0
  152.7568  140.0592  155.8657 H   0  0  0  0  0  0  0  0  0  0  0  0
  145.9162  134.6524  150.2540 H   0  0  0  0  0  0  0  0  0  0  0  0
  147.1344  133.4471  150.4354 H   0  0  0  0  0  0  0  0  0  0  0  0
  144.3654  133.2523  151.7398 H   0  0  0  0  0  0  0  0  0  0  0  0
  144.2741  132.8640  149.2797 H   0  0  0  0  0  0  0  0  0  0  0  0
  144.0055  131.3696  150.1712 H   0  0  0  0  0  0  0  0  0  0  0  0
  145.5666  131.6718  149.4128 H   0  0  0  0  0  0  0  0  0  0  0  0
  147.5897  135.0748  151.9546 H   0  0  0  0  0  0  0  0  0  0  0  0
  1  2  1  0  0  0  0
  1 21  1  0  0  0  0
  1 22  1  0  0  0  0
  1 23  1  0  0  0  0
  2 20  1  0  0  0  0
  2  3  1  0  0  0  0
  2 24  1  0  0  0  0
  3  4  1  0  0  0  0
  3 25  1  0  0  0  0
  3 26  1  0  0  0  0
  4  5  1  0  0  0  0
  4 17  1  0  0  0  0
  4 45  1  0  0  0  0
  5  6  1  0  0  0  0
  5  7  1  0  0  0  0
  5 27  1  0  0  0  0
  6 28  1  0  0  0  0
  6 29  1  0  0  0  0
  6 30  1  0  0  0  0
  7  8  1  0  0  0  0
  7 31  1  0  0  0  0
  7 32  1  0  0  0  0
  8  9  1  0  0  0  0
  8 33  1  0  0  0  0
  9 10  2  0  0  0  0
  9 11  1  0  0  0  0
 11 12  1  0  0  0  0
 11 34  1  0  0  0  0
 11 35  1  0  0  0  0
 12 16  1  0  0  0  0
 12 13  1  0  0  0  0
 13 14  2  0  0  0  0
 13 36  1  0  0  0  0
 14 15  1  0  0  0  0
 14 37  1  0  0  0  0
 15 16  2  0  0  0  0
 15 38  1  0  0  0  0
 17 18  1  0  0  0  0
 17 39  1  0  0  0  0
 17 40  1  0  0  0  0
 18 19  1  0  0  0  0
 18 20  1  0  0  0  0
 18 41  1  0  0  0  0
 19 42  1  0  0  0  0
 19 43  1  0  0  0  0
 19 44  1  0  0  0  0
M  CHG  1   4   1
M  END
> <s_m_source_file>
AV-unprocessed.smi

> <i_m_source_file_index>
1433

> <i_lp_mmshare_version>
43012

> <i_f3d_flags>
0

> <s_epik_input>
W0NIM11bQ0BASF0xW0NIMl1OKFtDSDJdW0NASF0oTzEpW0NIM10pW0NASF0oW0NIM10pW0NIMl1bTkhdQyg9TylbQ0gyXW4yW2NIXVtjSF1bY0hdbjI=

> <s_epik_cmdline>
J2VwaWtfcHl0aG9uJywgJy1waCcsICc3LjAnLCAnLXRuJywgJzgnLCAnLW1hJywgJzIwMCcsICctbWV0YWxfYmluZGluZycsICctaW1hZScsICc8aW5maWxlLm1hZT4nLCAnLW9tYWUnLCAnPG91dGZpbGUubWFlPic=

> <r_lp_tautomer_probability>
1

> <r_epik_Ionization_Penalty>
0.748405

> <r_epik_Ionization_Penalty_Charging>
0.748396

> <r_epik_Ionization_Penalty_Neutral>
8.54426e-06

> <r_epik_State_Penalty>
0.775162

> <r_epik_Charging_Adjusted_Penalty>
1.52356

> <i_epik_Tot_Q>
1

> <i_epik_Tot_abs_Q>
1

> <r_epik_Metal_State_Penalty>
0.775167

> <b_epik_Metal_Only>
0

> <s_lp_Force_Field>
OPLS_2005

> <r_lp_Energy>
22.2422

> <b_lp_Chiralities_Consistent>
1

> <s_lp_Variant>
AV-unprocessed.smi:1433-8

> <Gold.Version>
5.8.1

> <Gold.Id.Protein>
6NUR|6NUR_protein|mol2

> <Gold.PLP.Fitness>
45.6235

> <Gold.PLP.PLP>
-32.4544

> <Gold.PLP.part.hbond>
-2.9226

> <Gold.PLP.part.metal>
0.0000

> <Gold.PLP.part.buried>
-3.2417

> <Gold.PLP.part.nonpolar>
-27.5335

> <Gold.PLP.part.repulsive>
0.2417

> <Gold.PLP.ligand.clash>
0.0000

> <Gold.PLP.ligand.torsion>
0.4947

> <Gold.PLP.Chemscore.Hbond>
3.6280

> <Gold.PLP.Chemscore.CHOScore>
1.0678

> <Gold.PLP.Chemscore.Metal>
0.0000

> <Gold.Chemscore.Hbonds>
donor molecule, donor type, donor heavy atom, donor atom, acceptor molecule, acceptor atom, score
      L1  H     4    45       P1  7948  2.00
      L1  H     8    33       P1  7948  0.93
      P1  H  7989  7998       L1    16  0.65
      L1  C    13    36       P1  7948  0.38
      L1  C    13    36       P1  7949  0.68

> <Gold.PLP.Chemscore.Internal.Correction>
0.0711

> <Gold.Rescore>
     Score         DG    S(hbond)    S(metal)    S(lipo)     H(rot)  DE(clash)    DE(int)     intcor
     15.21     -15.77       1.89        0.00      74.91       1.87       0.00       0.56       ----

> <Gold.Chemscore.Fitness>
15.2133

> <Gold.Chemscore.DG>
-15.7716

> <Gold.Chemscore.ZeroCoef>
-5.4800

> <Gold.Chemscore.Hbond>
1.8871

> <Gold.Chemscore.Metal>
0.0000

> <Gold.Chemscore.Lipo>
74.9140

> <Gold.Chemscore.Internal_Hbond>
0.0000

> <Gold.Chemscore.DEClash>
0.0029

> <Gold.Chemscore.DEInternal>
0.5554

> <Gold.Chemscore.Rot>
1.8657

> <Gold.Chemscore.Internal.Correction>
   9.000000E+99

> <Gold.Chemscore.Hbonds>
donor molecule, donor type, donor heavy atom, donor atom, acceptor molecule, acceptor atom, score
      L1  H     4    45       P1  7948  0.88
      L1  H     8    33       P1  7948  0.89
      P1  H  7989  7998       L1    16  0.01

> <Gold.Chemscore.Hbond.Weighted>
-6.3028

> <Gold.Chemscore.Metal.Weighted>
-0.0000

> <Gold.Chemscore.Lipo.Weighted>
-8.7649

> <Gold.Chemscore.Internal_Hbond.Weighted>
0.0000

> <Gold.Chemscore.DEClash.Weighted>
0.0029

> <Gold.Chemscore.DEInternal.Weighted>
0.5554

> <Gold.Chemscore.Rot.Weighted>
4.7761

> <Gold.Chemscore.Internal.Correction.Weighted>
   9.000000E+99

> <Gold.Protein.RotatedTorsions>
[ 6907 6896 6895 6894 ] final -169.54 input  -60.11 | X-H torsion
[ 7974 7965 7964 7962 ] final   75.39 input  175.53 | X-H torsion
[ 8008 7997 7996 7995 ] final   25.68 input   59.86 | X-H torsion
[ 10167 10162 10161 10158 ] final  144.10 input  -65.29 | X-H torsion
[ 10718 10713 10712 10709 ] final   70.63 input   66.30 | X-H torsion
[ 10763 10752 10751 10750 ] final  -39.75 input  -60.55 | X-H torsion
[ 11005 11000 10999 10996 ] final -125.60 input  -57.11 | X-H torsion

> <Gold.Protein.ActiveResidues>
 VAL166  LYS551  ARG553  GLY616  TRP617  ASP618  TYR619  PRO620  LYS621  CYS622 
 ASP623  PHE694  ASN695  SER759  ASP760  ASP761  ALA762  ILE779  LEU786  VAL792 
 PHE793  MET794  SER795  GLU796  ALA797  LYS798  CYS799  TRP800  GLU811  SER814 

> <Gold.Protein.RotatedAtoms>
  151.4933  133.3520  159.2856 H   0  0  0  0  0  0  0  0  0  0  0  0  # atno 6907 bound_to 6896
  150.8821  134.8215  159.7243 H   0  0  0  0  0  0  0  0  0  0  0  0  # atno 6908 bound_to 6896
  152.4769  134.4831  159.9724 H   0  0  0  0  0  0  0  0  0  0  0  0  # atno 6909 bound_to 6896
  145.7162  139.2632  143.1622 H   0  0  0  0  0  0  0  0  0  0  0  0  # atno 7974 bound_to 7965
  155.0155  140.3141  155.4813 H   0  0  0  0  0  0  0  0  0  0  0  0  # atno 8008 bound_to 7997
  156.2901  140.2207  156.5213 H   0  0  0  0  0  0  0  0  0  0  0  0  # atno 8009 bound_to 7997
  154.7497  140.0467  157.0871 H   0  0  0  0  0  0  0  0  0  0  0  0  # atno 8010 bound_to 7997
  139.4954  144.5995  151.6511 H   0  0  0  0  0  0  0  0  0  0  0  0  # atno 10167 bound_to 10162
  157.6410  130.9487  150.0678 H   0  0  0  0  0  0  0  0  0  0  0  0  # atno 10718 bound_to 10713
  153.9346  135.6768  153.4745 H   0  0  0  0  0  0  0  0  0  0  0  0  # atno 10763 bound_to 10752
  153.0962  135.4850  154.8780 H   0  0  0  0  0  0  0  0  0  0  0  0  # atno 10764 bound_to 10752
  154.7410  135.3160  154.8686 H   0  0  0  0  0  0  0  0  0  0  0  0  # atno 10765 bound_to 10752
  140.9749  134.0755  157.3830 H   0  0  0  0  0  0  0  0  0  0  0  0  # atno 11005 bound_to 11000
  146.0668  140.7912  142.9708 LP  0  0  0  0  0  0  0  0  0  0  0  0  # atno 17320 bound_to 7965
  144.6929  140.3280  143.7221 LP  0  0  0  0  0  0  0  0  0  0  0  0  # atno 17321 bound_to 7965
  140.5641  144.0219  150.6184 LP  0  0  0  0  0  0  0  0  0  0  0  0  # atno 17342 bound_to 10162
  140.3315  143.3075  152.0682 LP  0  0  0  0  0  0  0  0  0  0  0  0  # atno 17343 bound_to 10162
  156.1691  130.3646  149.9190 LP  0  0  0  0  0  0  0  0  0  0  0  0  # atno 17370 bound_to 10713
  156.7170  130.8992  151.3615 LP  0  0  0  0  0  0  0  0  0  0  0  0  # atno 17371 bound_to 10713
  139.8926  135.0126  156.6856 LP  0  0  0  0  0  0  0  0  0  0  0  0  # atno 17394 bound_to 11000
  140.7274  133.9088  155.8188 LP  0  0  0  0  0  0  0  0  0  0  0  0  # atno 17395 bound_to 11000

$$$$
