AV-unprocessed.smi:1734|AV-procd|sdf|6986|dock7
  -GOLD-   22720 8203D 1   1.00000     0.00000
 Structure written by MMmdl.
 51 53  0  0  0  0  0  0  0  0  2 V2000
  148.1443  133.2628  152.3161 C   0  0  0  0  0  0  0  0  0  0  0  0
  146.7404  133.2718  151.7335 C   0  0  0  0  0  0  0  0  0  0  0  0
  146.2000  132.0738  151.2196 C   0  0  0  0  0  0  0  0  0  0  0  0
  144.9018  132.0817  150.6823 C   0  0  0  0  0  0  0  0  0  0  0  0
  144.1940  133.2956  150.6806 C   0  0  0  0  0  0  0  0  0  0  0  0
  144.7031  134.4453  151.1683 N   0  0  0  0  0  0  0  0  0  0  0  0
  145.9556  134.4554  151.6902 C   0  0  0  0  0  0  0  0  0  0  0  0
  146.5550  135.6312  152.2249 N   0  0  0  0  0  0  0  0  0  0  0  0
  146.1511  136.3726  153.2717 C   0  0  0  0  0  0  0  0  0  0  0  0
  145.1417  136.1653  153.9453 O   0  0  0  0  0  0  0  0  0  0  0  0
  146.9985  137.3864  153.5022 N   0  0  0  0  0  0  0  0  0  0  0  0
  146.8609  138.3766  154.5660 C   0  0  0  0  0  0  0  0  0  0  0  0
  147.0351  139.8336  154.0588 C   0  0  2  0  0  0  0  0  0  0  0  0
  148.4900  140.3747  154.1724 C   0  0  1  0  0  0  0  0  0  0  0  0
  149.0333  140.5548  155.5817 C   0  0  0  0  0  0  0  0  0  0  0  0
  150.5443  140.5732  155.3678 C   0  0  0  0  0  0  0  0  0  0  0  0
  150.7853  139.8200  154.1850 O   0  0  0  0  0  0  0  0  0  0  0  0
  149.5495  139.4214  153.6078 C   0  0  0  0  0  0  0  0  0  0  0  0
  146.0957  140.7737  154.7430 N   0  3  0  0  0  0  0  0  0  0  0  0
  145.9773  140.5580  156.2058 C   0  0  0  0  0  0  0  0  0  0  0  0
  144.8477  141.4316  156.7778 C   0  0  0  0  0  0  0  0  0  0  0  0
  145.0930  142.7981  156.4665 O   0  0  0  0  0  0  0  0  0  0  0  0
  145.1296  143.0303  155.0632 C   0  0  0  0  0  0  0  0  0  0  0  0
  146.2744  142.2164  154.4379 C   0  0  0  0  0  0  0  0  0  0  0  0
  148.5889  132.2683  152.2645 H   0  0  0  0  0  0  0  0  0  0  0  0
  148.1253  133.5675  153.3628 H   0  0  0  0  0  0  0  0  0  0  0  0
  148.7901  133.9473  151.7656 H   0  0  0  0  0  0  0  0  0  0  0  0
  146.7715  131.1574  151.2360 H   0  0  0  0  0  0  0  0  0  0  0  0
  144.4606  131.1809  150.2821 H   0  0  0  0  0  0  0  0  0  0  0  0
  143.1932  133.3457  150.2780 H   0  0  0  0  0  0  0  0  0  0  0  0
  147.3946  135.9369  151.7562 H   0  0  0  0  0  0  0  0  0  0  0  0
  147.7988  137.4809  152.8938 H   0  0  0  0  0  0  0  0  0  0  0  0
  145.8714  138.2360  155.0001 H   0  0  0  0  0  0  0  0  0  0  0  0
  147.5787  138.1784  155.3630 H   0  0  0  0  0  0  0  0  0  0  0  0
  146.7759  139.8503  152.9988 H   0  0  0  0  0  0  0  0  0  0  0  0
  148.5728  141.3315  153.6547 H   0  0  0  0  0  0  0  0  0  0  0  0
  148.6896  141.4675  156.0674 H   0  0  0  0  0  0  0  0  0  0  0  0
  148.7560  139.7065  156.2092 H   0  0  0  0  0  0  0  0  0  0  0  0
  150.8960  141.5927  155.2060 H   0  0  0  0  0  0  0  0  0  0  0  0
  151.0856  140.1603  156.2193 H   0  0  0  0  0  0  0  0  0  0  0  0
  149.3440  138.3932  153.9098 H   0  0  0  0  0  0  0  0  0  0  0  0
  149.6033  139.4483  152.5191 H   0  0  0  0  0  0  0  0  0  0  0  0
  145.7666  139.5086  156.4145 H   0  0  0  0  0  0  0  0  0  0  0  0
  146.9176  140.8019  156.7010 H   0  0  0  0  0  0  0  0  0  0  0  0
  143.8787  141.1247  156.3801 H   0  0  0  0  0  0  0  0  0  0  0  0
  144.7970  141.3193  157.8610 H   0  0  0  0  0  0  0  0  0  0  0  0
  144.1717  142.7668  154.6118 H   0  0  0  0  0  0  0  0  0  0  0  0
  145.2840  144.0946  154.8850 H   0  0  0  0  0  0  0  0  0  0  0  0
  147.2253  142.5740  154.8348 H   0  0  0  0  0  0  0  0  0  0  0  0
  146.2906  142.3810  153.3611 H   0  0  0  0  0  0  0  0  0  0  0  0
  145.1861  140.5330  154.3760 H   0  0  0  0  0  0  0  0  0  0  0  0
  1  2  1  0  0  0  0
  1 25  1  0  0  0  0
  1 26  1  0  0  0  0
  1 27  1  0  0  0  0
  2  7  1  0  0  0  0
  2  3  2  0  0  0  0
  3  4  1  0  0  0  0
  3 28  1  0  0  0  0
  4  5  2  0  0  0  0
  4 29  1  0  0  0  0
  5  6  1  0  0  0  0
  5 30  1  0  0  0  0
  6  7  2  0  0  0  0
  7  8  1  0  0  0  0
  8  9  1  0  0  0  0
  8 31  1  0  0  0  0
  9 10  2  0  0  0  0
  9 11  1  0  0  0  0
 11 12  1  0  0  0  0
 11 32  1  0  0  0  0
 12 13  1  0  0  0  0
 12 33  1  0  0  0  0
 12 34  1  0  0  0  0
 13 14  1  0  0  0  0
 13 19  1  0  0  0  0
 13 35  1  0  0  0  0
 14 18  1  0  0  0  0
 14 15  1  0  0  0  0
 14 36  1  0  0  0  0
 15 16  1  0  0  0  0
 15 37  1  0  0  0  0
 15 38  1  0  0  0  0
 16 17  1  0  0  0  0
 16 39  1  0  0  0  0
 16 40  1  0  0  0  0
 17 18  1  0  0  0  0
 18 41  1  0  0  0  0
 18 42  1  0  0  0  0
 19 24  1  0  0  0  0
 19 20  1  0  0  0  0
 19 51  1  0  0  0  0
 20 21  1  0  0  0  0
 20 43  1  0  0  0  0
 20 44  1  0  0  0  0
 21 22  1  0  0  0  0
 21 45  1  0  0  0  0
 21 46  1  0  0  0  0
 22 23  1  0  0  0  0
 23 24  1  0  0  0  0
 23 47  1  0  0  0  0
 23 48  1  0  0  0  0
 24 49  1  0  0  0  0
 24 50  1  0  0  0  0
M  CHG  1  19   1
M  END
> <s_m_source_file>
AV-unprocessed.smi

> <i_m_source_file_index>
1734

> <i_lp_mmshare_version>
43012

> <i_f3d_flags>
0

> <s_epik_input>
W0NIM11jMVtjSF1bY0hdW2NIXW5jMVtOSF1DKD1PKVtOSF1bQ0gyXVtDQEhdKFtDQEBIXTJbQ0gyXVtDSDJdT1tDSDJdMilOM1tDSDJdW0NIMl1PW0NIMl1bQ0gyXTM=

> <s_epik_cmdline>
J2VwaWtfcHl0aG9uJywgJy1waCcsICc3LjAnLCAnLXRuJywgJzgnLCAnLW1hJywgJzIwMCcsICctbWV0YWxfYmluZGluZycsICctaW1hZScsICc8aW5maWxlLm1hZT4nLCAnLW9tYWUnLCAnPG91dGZpbGUubWFlPic=

> <r_epik_Ionization_Penalty>
0.983302

> <r_epik_Ionization_Penalty_Charging>
0.98326

> <r_epik_Ionization_Penalty_Neutral>
4.21967e-05

> <r_epik_State_Penalty>
1.0303

> <r_epik_Charging_Adjusted_Penalty>
2.01356

> <i_epik_Tot_Q>
1

> <i_epik_Tot_abs_Q>
1

> <r_epik_Metal_State_Penalty>
1.03031

> <b_epik_Metal_Only>
0

> <s_lp_Force_Field>
OPLS_2005

> <r_lp_Energy>
41.1253

> <b_lp_Chiralities_Consistent>
1

> <s_lp_Variant>
AV-unprocessed.smi:1734-7

> <Gold.Version>
5.8.1

> <Gold.Id.Protein>
6NUR|6NUR_protein|mol2

> <Gold.PLP.Fitness>
52.9315

> <Gold.PLP.PLP>
-37.9933

> <Gold.PLP.part.hbond>
-3.9042

> <Gold.PLP.part.metal>
0.0000

> <Gold.PLP.part.buried>
-3.3070

> <Gold.PLP.part.nonpolar>
-31.3663

> <Gold.PLP.part.repulsive>
0.6801

> <Gold.PLP.ligand.clash>
0.0000

> <Gold.PLP.ligand.torsion>
1.4337

> <Gold.PLP.Chemscore.Hbond>
4.8000

> <Gold.PLP.Chemscore.CHOScore>
1.0000

> <Gold.PLP.Chemscore.Metal>
0.0000

> <Gold.Chemscore.Hbonds>
donor molecule, donor type, donor heavy atom, donor atom, acceptor molecule, acceptor atom, score
      L1  H     8    31       P1  7948  0.98
      L1  H    11    32       P1  7948  0.72
      L1  H    19    51       P1 10175  0.06
      P1  H  7989  7998       L1    17  0.80
      L1  C     5    30       P1 10186  0.97

> <Gold.PLP.Chemscore.Internal.Correction>
0.4056

> <Gold.Rescore>
     Score         DG    S(hbond)    S(metal)    S(lipo)     H(rot)  DE(clash)    DE(int)     intcor
     19.09     -22.03       3.17        0.00      88.22       1.70       1.60       1.33       ----

> <Gold.Chemscore.Fitness>
19.0936

> <Gold.Chemscore.DG>
-22.0253

> <Gold.Chemscore.ZeroCoef>
-5.4800

> <Gold.Chemscore.Hbond>
3.1651

> <Gold.Chemscore.Metal>
0.0000

> <Gold.Chemscore.Lipo>
88.2239

> <Gold.Chemscore.Internal_Hbond>
0.0000

> <Gold.Chemscore.DEClash>
1.6050

> <Gold.Chemscore.DEInternal>
1.3267

> <Gold.Chemscore.Rot>
1.6986

> <Gold.Chemscore.Internal.Correction>
   9.000000E+99

> <Gold.Chemscore.Hbonds>
donor molecule, donor type, donor heavy atom, donor atom, acceptor molecule, acceptor atom, score
      L1  H     8    31       P1  7948  0.90
      L1  H    11    32       P1  7948  0.70
      L1  H    19    51       P1 10175  0.08
      P1  H  7989  7998       L1    17  0.13

> <Gold.Chemscore.Hbond.Weighted>
-10.5716

> <Gold.Chemscore.Metal.Weighted>
-0.0000

> <Gold.Chemscore.Lipo.Weighted>
-10.3222

> <Gold.Chemscore.Internal_Hbond.Weighted>
0.0000

> <Gold.Chemscore.DEClash.Weighted>
1.6050

> <Gold.Chemscore.DEInternal.Weighted>
1.3267

> <Gold.Chemscore.Rot.Weighted>
4.3485

> <Gold.Chemscore.Internal.Correction.Weighted>
   9.000000E+99

> <Gold.Protein.RotatedTorsions>
[ 6907 6896 6895 6894 ] final   63.96 input  -60.11 | X-H torsion
[ 7974 7965 7964 7962 ] final   -8.11 input  175.53 | X-H torsion
[ 8008 7997 7996 7995 ] final   -9.41 input   59.86 | X-H torsion
[ 10167 10162 10161 10158 ] final  -79.64 input  -65.29 | X-H torsion
[ 10718 10713 10712 10709 ] final    4.29 input   66.30 | X-H torsion
[ 10763 10752 10751 10750 ] final   54.81 input  -60.55 | X-H torsion
[ 11005 11000 10999 10996 ] final   28.75 input  -57.11 | X-H torsion

> <Gold.Protein.ActiveResidues>
 VAL166  LYS551  ARG553  GLY616  TRP617  ASP618  TYR619  PRO620  LYS621  CYS622 
 ASP623  PHE694  ASN695  SER759  ASP760  ASP761  ALA762  ILE779  LEU786  VAL792 
 PHE793  MET794  SER795  GLU796  ALA797  LYS798  CYS799  TRP800  GLU811  SER814 

> <Gold.Protein.RotatedAtoms>
  152.4294  134.5806  159.9946 H   0  0  0  0  0  0  0  0  0  0  0  0  # atno 6907 bound_to 6896
  151.5934  133.3358  159.3040 H   0  0  0  0  0  0  0  0  0  0  0  0  # atno 6908 bound_to 6896
  150.8186  134.7417  159.6817 H   0  0  0  0  0  0  0  0  0  0  0  0  # atno 6909 bound_to 6896
  146.2289  140.2419  142.8344 H   0  0  0  0  0  0  0  0  0  0  0  0  # atno 7974 bound_to 7965
  154.5649  140.2356  155.8278 H   0  0  0  0  0  0  0  0  0  0  0  0  # atno 8008 bound_to 7997
  156.2060  140.3039  155.9587 H   0  0  0  0  0  0  0  0  0  0  0  0  # atno 8009 bound_to 7997
  155.2819  140.0423  157.3006 H   0  0  0  0  0  0  0  0  0  0  0  0  # atno 8010 bound_to 7997
  140.4575  143.2464  151.8398 H   0  0  0  0  0  0  0  0  0  0  0  0  # atno 10167 bound_to 10162
  156.8904  130.5685  149.5650 H   0  0  0  0  0  0  0  0  0  0  0  0  # atno 10718 bound_to 10713
  152.9809  135.5732  154.4965 H   0  0  0  0  0  0  0  0  0  0  0  0  # atno 10763 bound_to 10752
  154.4491  135.2778  155.1796 H   0  0  0  0  0  0  0  0  0  0  0  0  # atno 10764 bound_to 10752
  154.3431  135.6225  153.5659 H   0  0  0  0  0  0  0  0  0  0  0  0  # atno 10765 bound_to 10752
  140.3122  134.2636  155.7732 H   0  0  0  0  0  0  0  0  0  0  0  0  # atno 11005 bound_to 11000
  144.9478  140.8146  143.5591 LP  0  0  0  0  0  0  0  0  0  0  0  0  # atno 17320 bound_to 7965
  145.2377  139.2086  143.5009 LP  0  0  0  0  0  0  0  0  0  0  0  0  # atno 17321 bound_to 7965
  139.4802  144.5047  151.9013 LP  0  0  0  0  0  0  0  0  0  0  0  0  # atno 17342 bound_to 10162
  140.4133  144.2340  150.5888 LP  0  0  0  0  0  0  0  0  0  0  0  0  # atno 17343 bound_to 10162
  156.0632  130.5680  150.9235 LP  0  0  0  0  0  0  0  0  0  0  0  0  # atno 17370 bound_to 10713
  157.6087  131.0937  150.8833 LP  0  0  0  0  0  0  0  0  0  0  0  0  # atno 17371 bound_to 10713
  141.2105  133.7716  156.9924 LP  0  0  0  0  0  0  0  0  0  0  0  0  # atno 17394 bound_to 11000
  140.1014  134.9533  157.1929 LP  0  0  0  0  0  0  0  0  0  0  0  0  # atno 17395 bound_to 11000

$$$$
