AV-unprocessed.smi:861|AV-procd|sdf|3975|dock2
  -GOLD-   22720 1453D 1   1.00000     0.00000
 Structure written by MMmdl.
 45 46  0  0  0  0  0  0  0  0  3 V2000
  152.8453  144.5929  158.0097 C   0  0  0  0  0  0  0  0  0  0  0  0
  151.3321  144.3186  158.0343 C   0  0  0  0  0  0  0  0  0  0  0  0
  150.6944  144.9530  159.2798 C   0  0  0  0  0  0  0  0  0  0  0  0
  151.0056  142.8128  157.9617 C   0  0  0  0  0  0  0  0  0  0  0  0
  150.8621  142.2744  156.5248 C   0  0  0  0  0  0  0  0  0  0  0  0
  149.4470  142.0266  156.1502 N   0  3  2  0  0  0  0  0  0  0  0  0
  148.6187  141.5192  157.2717 C   0  0  0  0  0  0  0  0  0  0  0  0
  147.1666  141.3096  156.8141 C   0  0  0  0  0  0  0  0  0  0  0  0
  147.1425  140.4217  155.7039 O   0  0  0  0  0  0  0  0  0  0  0  0
  147.8453  140.9409  154.5796 C   0  0  2  0  0  0  0  0  0  0  0  0
  147.6912  139.9437  153.4212 C   0  0  0  0  0  0  0  0  0  0  0  0
  146.3024  139.5538  153.2283 N   0  0  0  0  0  0  0  0  0  0  0  0
  145.8628  138.2759  153.5987 C   0  0  0  0  0  0  0  0  0  0  0  0
  146.6940  137.2870  154.1743 C   0  0  0  0  0  0  0  0  0  0  0  0
  146.1229  136.0461  154.5039 C   0  0  0  0  0  0  0  0  0  0  0  0
  144.7535  135.8680  154.2383 C   0  0  0  0  0  0  0  0  0  0  0  0
  143.9759  136.8258  153.6859 N   0  0  0  0  0  0  0  0  0  0  0  0
  144.5519  138.0022  153.3813 N   0  3  0  0  0  0  0  0  0  0  0  0
  149.3241  141.1331  154.9729 C   0  0  0  0  0  0  0  0  0  0  0  0
  153.3509  144.1037  158.8431 H   0  0  0  0  0  0  0  0  0  0  0  0
  153.0501  145.6616  158.0810 H   0  0  0  0  0  0  0  0  0  0  0  0
  153.3050  144.2414  157.0866 H   0  0  0  0  0  0  0  0  0  0  0  0
  150.8897  144.8048  157.1639 H   0  0  0  0  0  0  0  0  0  0  0  0
  151.0908  144.5136  160.1958 H   0  0  0  0  0  0  0  0  0  0  0  0
  149.6130  144.8137  159.2843 H   0  0  0  0  0  0  0  0  0  0  0  0
  150.8847  146.0261  159.3161 H   0  0  0  0  0  0  0  0  0  0  0  0
  151.7705  142.2580  158.5051 H   0  0  0  0  0  0  0  0  0  0  0  0
  150.0682  142.6312  158.4894 H   0  0  0  0  0  0  0  0  0  0  0  0
  151.2823  143.0148  155.8425 H   0  0  0  0  0  0  0  0  0  0  0  0
  151.4399  141.3603  156.3844 H   0  0  0  0  0  0  0  0  0  0  0  0
  149.0325  140.5776  157.6362 H   0  0  0  0  0  0  0  0  0  0  0  0
  148.6332  142.2192  158.1063 H   0  0  0  0  0  0  0  0  0  0  0  0
  146.5764  140.8785  157.6228 H   0  0  0  0  0  0  0  0  0  0  0  0
  146.6984  142.2590  156.5491 H   0  0  0  0  0  0  0  0  0  0  0  0
  147.4186  141.9027  154.2873 H   0  0  0  0  0  0  0  0  0  0  0  0
  148.0497  140.3983  152.4969 H   0  0  0  0  0  0  0  0  0  0  0  0
  148.3039  139.0604  153.6065 H   0  0  0  0  0  0  0  0  0  0  0  0
  145.6269  140.2637  152.9823 H   0  0  0  0  0  0  0  0  0  0  0  0
  147.7429  137.4605  154.3632 H   0  0  0  0  0  0  0  0  0  0  0  0
  146.7128  135.2567  154.9458 H   0  0  0  0  0  0  0  0  0  0  0  0
  144.2672  134.9328  154.4739 H   0  0  0  0  0  0  0  0  0  0  0  0
  149.8733  141.5598  154.1324 H   0  0  0  0  0  0  0  0  0  0  0  0
  149.7836  140.1694  155.1998 H   0  0  0  0  0  0  0  0  0  0  0  0
  149.0600  142.9178  155.8736 H   0  0  0  0  0  0  0  0  0  0  0  0
  143.9704  138.7292  152.9641 H   0  0  0  0  0  0  0  0  0  0  0  0
  1  2  1  0  0  0  0
  1 20  1  0  0  0  0
  1 21  1  0  0  0  0
  1 22  1  0  0  0  0
  2  3  1  0  0  0  0
  2  4  1  0  0  0  0
  2 23  1  0  0  0  0
  3 24  1  0  0  0  0
  3 25  1  0  0  0  0
  3 26  1  0  0  0  0
  4  5  1  0  0  0  0
  4 27  1  0  0  0  0
  4 28  1  0  0  0  0
  5  6  1  0  0  0  0
  5 29  1  0  0  0  0
  5 30  1  0  0  0  0
  6 19  1  0  0  0  0
  6  7  1  0  0  0  0
  6 44  1  0  0  0  0
  7  8  1  0  0  0  0
  7 31  1  0  0  0  0
  7 32  1  0  0  0  0
  8  9  1  0  0  0  0
  8 33  1  0  0  0  0
  8 34  1  0  0  0  0
  9 10  1  0  0  0  0
 10 11  1  0  0  0  0
 10 19  1  0  0  0  0
 10 35  1  0  0  0  0
 11 12  1  0  0  0  0
 11 36  1  0  0  0  0
 11 37  1  0  0  0  0
 12 13  1  0  0  0  0
 12 38  1  0  0  0  0
 13 18  1  0  0  0  0
 13 14  2  0  0  0  0
 14 15  1  0  0  0  0
 14 39  1  0  0  0  0
 15 16  2  0  0  0  0
 15 40  1  0  0  0  0
 16 17  1  0  0  0  0
 16 41  1  0  0  0  0
 17 18  2  0  0  0  0
 18 45  1  0  0  0  0
 19 42  1  0  0  0  0
 19 43  1  0  0  0  0
M  CHG  1   6   1
M  CHG  1  18   1
M  END
> <s_m_source_file>
AV-unprocessed.smi

> <i_m_source_file_index>
861

> <i_lp_mmshare_version>
43012

> <i_f3d_flags>
0

> <s_epik_input>
W0NIM11bQ0hdKFtDSDNdKVtDSDJdW0NIMl1OMVtDSDJdW0NIMl1PW0NASF0oW0NIMl0xKVtDSDJdW05IXWMyW2NIXVtjSF1bY0hdbm4y

> <s_epik_cmdline>
J2VwaWtfcHl0aG9uJywgJy1waCcsICc3LjAnLCAnLXRuJywgJzgnLCAnLW1hJywgJzIwMCcsICctbWV0YWxfYmluZGluZycsICctaW1hZScsICc8aW5maWxlLm1hZT4nLCAnLW9tYWUnLCAnPG91dGZpbGUubWFlPic=

> <r_lp_tautomer_probability>
0.966961

> <r_epik_Ionization_Penalty>
2.478

> <r_epik_Ionization_Penalty_Charging>
2.47799

> <r_epik_Ionization_Penalty_Neutral>
3.15286e-06

> <r_epik_State_Penalty>
2.10794

> <r_epik_Charging_Adjusted_Penalty>
4.58594

> <i_epik_Tot_Q>
2

> <i_epik_Tot_abs_Q>
2

> <r_epik_Metal_State_Penalty>
2.11378

> <b_epik_Metal_Only>
0

> <s_lp_Force_Field>
OPLS_2005

> <r_lp_Energy>
32.9485

> <b_lp_Chiralities_Consistent>
1

> <s_lp_Variant>
AV-unprocessed.smi:861-10

> <Gold.Version>
5.8.1

> <Gold.Id.Protein>
6NUR|6NUR_protein|mol2

> <Gold.PLP.Fitness>
44.9411

> <Gold.PLP.PLP>
-29.5138

> <Gold.PLP.part.hbond>
-3.0000

> <Gold.PLP.part.metal>
0.0000

> <Gold.PLP.part.buried>
-2.9828

> <Gold.PLP.part.nonpolar>
-24.3230

> <Gold.PLP.part.repulsive>
0.1916

> <Gold.PLP.ligand.clash>
0.0000

> <Gold.PLP.ligand.torsion>
1.0557

> <Gold.PLP.Chemscore.Hbond>
5.8240

> <Gold.PLP.Chemscore.CHOScore>
0.0000

> <Gold.PLP.Chemscore.Metal>
0.0000

> <Gold.Chemscore.Hbonds>
donor molecule, donor type, donor heavy atom, donor atom, acceptor molecule, acceptor atom, score
      L1  H     6    44       P1  8028  2.00
      L1  H    12    38       P1 10175  1.66
      L1  H    18    45       P1 10175  2.00

> <Gold.PLP.Chemscore.Internal.Correction>
0.0667

> <Gold.Rescore>
     Score         DG    S(hbond)    S(metal)    S(lipo)     H(rot)  DE(clash)    DE(int)     intcor
     18.94     -19.95       2.73        0.00      84.57       1.78       0.16       0.85       ----

> <Gold.Chemscore.Fitness>
18.9395

> <Gold.Chemscore.DG>
-19.9495

> <Gold.Chemscore.ZeroCoef>
-5.4800

> <Gold.Chemscore.Hbond>
2.7310

> <Gold.Chemscore.Metal>
0.0000

> <Gold.Chemscore.Lipo>
84.5664

> <Gold.Chemscore.Internal_Hbond>
0.0000

> <Gold.Chemscore.DEClash>
0.1552

> <Gold.Chemscore.DEInternal>
0.8548

> <Gold.Chemscore.Rot>
1.7759

> <Gold.Chemscore.Internal.Correction>
   9.000000E+99

> <Gold.Chemscore.Hbonds>
donor molecule, donor type, donor heavy atom, donor atom, acceptor molecule, acceptor atom, score
      L1  H     6    44       P1  8028  1.00
      L1  H    12    38       P1 10175  0.75
      L1  H    18    45       P1 10175  0.97

> <Gold.Chemscore.Hbond.Weighted>
-9.1214

> <Gold.Chemscore.Metal.Weighted>
-0.0000

> <Gold.Chemscore.Lipo.Weighted>
-9.8943

> <Gold.Chemscore.Internal_Hbond.Weighted>
0.0000

> <Gold.Chemscore.DEClash.Weighted>
0.1552

> <Gold.Chemscore.DEInternal.Weighted>
0.8548

> <Gold.Chemscore.Rot.Weighted>
4.5462

> <Gold.Chemscore.Internal.Correction.Weighted>
   9.000000E+99

> <Gold.Protein.RotatedTorsions>
[ 6907 6896 6895 6894 ] final   84.65 input  -60.11 | X-H torsion
[ 7974 7965 7964 7962 ] final  103.21 input  175.53 | X-H torsion
[ 8008 7997 7996 7995 ] final  168.11 input   59.86 | X-H torsion
[ 10167 10162 10161 10158 ] final -155.32 input  -65.29 | X-H torsion
[ 10718 10713 10712 10709 ] final  156.61 input   66.30 | X-H torsion
[ 10763 10752 10751 10750 ] final  153.47 input  -60.55 | X-H torsion
[ 11005 11000 10999 10996 ] final   48.32 input  -57.11 | X-H torsion

> <Gold.Protein.ActiveResidues>
 VAL166  LYS551  ARG553  GLY616  TRP617  ASP618  TYR619  PRO620  LYS621  CYS622 
 ASP623  PHE694  ASN695  SER759  ASP760  ASP761  ALA762  ILE779  LEU786  VAL792 
 PHE793  MET794  SER795  GLU796  ALA797  LYS798  CYS799  TRP800  GLU811  SER814 

> <Gold.Protein.RotatedAtoms>
  152.5357  134.2708  159.8970 H   0  0  0  0  0  0  0  0  0  0  0  0  # atno 6907 bound_to 6896
  151.2665  133.4269  159.2626 H   0  0  0  0  0  0  0  0  0  0  0  0  # atno 6908 bound_to 6896
  151.0406  134.9619  159.8216 H   0  0  0  0  0  0  0  0  0  0  0  0  # atno 6909 bound_to 6896
  145.3489  139.2444  143.3569 H   0  0  0  0  0  0  0  0  0  0  0  0  # atno 7974 bound_to 7965
  156.1575  140.1599  156.8668 H   0  0  0  0  0  0  0  0  0  0  0  0  # atno 8008 bound_to 7997
  154.5129  140.0796  156.8060 H   0  0  0  0  0  0  0  0  0  0  0  0  # atno 8009 bound_to 7997
  155.3774  140.3403  155.4247 H   0  0  0  0  0  0  0  0  0  0  0  0  # atno 8010 bound_to 7997
  139.6941  143.9372  152.2399 H   0  0  0  0  0  0  0  0  0  0  0  0  # atno 10167 bound_to 10162
  157.2026  131.0679  151.2016 H   0  0  0  0  0  0  0  0  0  0  0  0  # atno 10718 bound_to 10713
  154.1367  135.2823  155.3171 H   0  0  0  0  0  0  0  0  0  0  0  0  # atno 10763 bound_to 10752
  154.6316  135.5433  153.7690 H   0  0  0  0  0  0  0  0  0  0  0  0  # atno 10764 bound_to 10752
  153.0263  135.6464  154.1516 H   0  0  0  0  0  0  0  0  0  0  0  0  # atno 10765 bound_to 10752
  140.1201  134.4840  155.8604 H   0  0  0  0  0  0  0  0  0  0  0  0  # atno 11005 bound_to 11000
  146.2976  140.4101  142.8716 LP  0  0  0  0  0  0  0  0  0  0  0  0  # atno 17320 bound_to 7965
  144.8733  140.7302  143.6033 LP  0  0  0  0  0  0  0  0  0  0  0  0  # atno 17321 bound_to 7965
  139.9196  144.6808  150.8475 LP  0  0  0  0  0  0  0  0  0  0  0  0  # atno 17342 bound_to 10162
  140.7691  143.3384  151.2259 LP  0  0  0  0  0  0  0  0  0  0  0  0  # atno 17343 bound_to 10162
  157.3752  130.7202  149.6592 LP  0  0  0  0  0  0  0  0  0  0  0  0  # atno 17370 bound_to 10713
  155.9699  130.4188  150.4343 LP  0  0  0  0  0  0  0  0  0  0  0  0  # atno 17371 bound_to 10713
  141.2150  133.6757  156.6873 LP  0  0  0  0  0  0  0  0  0  0  0  0  # atno 17394 bound_to 11000
  140.2976  134.8190  157.4070 LP  0  0  0  0  0  0  0  0  0  0  0  0  # atno 17395 bound_to 11000

$$$$
