AV-unprocessed.smi:824|AV-procd|sdf|3850|dock4
  -GOLD-   22720 1293D 1   1.00000     0.00000
 Structure written by MMmdl.
 51 52  0  0  0  0  0  0  0  0  2 V2000
  149.8812  141.3894  155.8178 C   0  0  0  0  0  0  0  0  0  0  0  0
  151.0202  140.5840  156.4174 C   0  0  0  0  0  0  0  0  0  0  0  0
  151.5115  141.0574  157.6425 N   0  0  0  0  0  0  0  0  0  0  0  0
  152.4944  140.4473  158.2321 C   0  0  0  0  0  0  0  0  0  0  0  0
  153.0379  140.9081  159.4323 N   0  0  0  0  0  0  0  0  0  0  0  0
  154.3502  140.4372  159.8798 C   0  0  0  0  0  0  0  0  0  0  0  0
  154.5246  140.6260  161.3955 C   0  0  0  0  0  0  0  0  0  0  0  0
  154.3067  141.9882  161.7383 O   0  0  0  0  0  0  0  0  0  0  0  0
  152.9866  142.3992  161.4096 C   0  0  0  0  0  0  0  0  0  0  0  0
  152.7660  142.2691  159.8936 C   0  0  0  0  0  0  0  0  0  0  0  0
  153.0746  139.3000  157.7167 N   0  5  0  0  0  0  0  0  0  0  0  0
  152.6403  138.7766  156.5362 C   0  0  0  0  0  0  0  0  0  0  0  0
  153.1233  137.7481  156.0642 O   0  0  0  0  0  0  0  0  0  0  0  0
  151.5595  139.4806  155.8231 C   0  0  0  0  0  0  0  0  0  0  0  0
  151.0940  138.9268  154.4718 C   0  0  0  0  0  0  0  0  0  0  0  0
  149.8252  138.0455  154.5504 C   0  0  0  0  0  0  0  0  0  0  0  0
  150.1170  136.6205  155.0573 C   0  0  0  0  0  0  0  0  0  0  0  0
  151.2975  136.2776  155.1352 O   0  0  0  0  0  0  0  0  0  0  0  0
  149.1026  135.7963  155.4220 N   0  0  0  0  0  0  0  0  0  0  0  0
  147.6866  136.1135  155.2133 C   0  0  0  0  0  0  0  0  0  0  0  0
  149.3761  134.4930  156.0498 C   0  0  0  0  0  0  0  0  0  0  0  0
  150.0379  133.4899  155.0753 C   0  0  0  0  0  0  0  0  0  0  0  0
  149.1269  133.2217  153.8687 C   0  0  0  0  0  0  0  0  0  0  0  0
  150.4261  132.1688  155.7613 C   0  0  0  0  0  0  0  0  0  0  0  0
  150.1641  141.8003  154.8502 H   0  0  0  0  0  0  0  0  0  0  0  0
  149.6063  142.2242  156.4636 H   0  0  0  0  0  0  0  0  0  0  0  0
  148.9973  140.7650  155.6883 H   0  0  0  0  0  0  0  0  0  0  0  0
  154.5021  139.3858  159.6344 H   0  0  0  0  0  0  0  0  0  0  0  0
  155.1199  140.9955  159.3454 H   0  0  0  0  0  0  0  0  0  0  0  0
  153.8372  139.9836  161.9483 H   0  0  0  0  0  0  0  0  0  0  0  0
  155.5339  140.3431  161.6944 H   0  0  0  0  0  0  0  0  0  0  0  0
  152.2581  141.8023  161.9608 H   0  0  0  0  0  0  0  0  0  0  0  0
  152.8497  143.4349  161.7205 H   0  0  0  0  0  0  0  0  0  0  0  0
  153.4191  142.9609  159.3600 H   0  0  0  0  0  0  0  0  0  0  0  0
  151.7392  142.5510  159.6561 H   0  0  0  0  0  0  0  0  0  0  0  0
  150.9102  139.7646  153.7983 H   0  0  0  0  0  0  0  0  0  0  0  0
  151.8918  138.3581  153.9962 H   0  0  0  0  0  0  0  0  0  0  0  0
  149.0579  138.5531  155.1305 H   0  0  0  0  0  0  0  0  0  0  0  0
  149.4022  137.9547  153.5496 H   0  0  0  0  0  0  0  0  0  0  0  0
  147.4784  136.2689  154.1541 H   0  0  0  0  0  0  0  0  0  0  0  0
  147.4061  137.0139  155.7584 H   0  0  0  0  0  0  0  0  0  0  0  0
  147.0209  135.3235  155.5601 H   0  0  0  0  0  0  0  0  0  0  0  0
  150.0022  134.6104  156.9350 H   0  0  0  0  0  0  0  0  0  0  0  0
  148.4429  134.0736  156.4306 H   0  0  0  0  0  0  0  0  0  0  0  0
  150.9541  133.9387  154.6900 H   0  0  0  0  0  0  0  0  0  0  0  0
  148.1914  132.7528  154.1746 H   0  0  0  0  0  0  0  0  0  0  0  0
  149.6115  132.5605  153.1498 H   0  0  0  0  0  0  0  0  0  0  0  0
  148.8811  134.1478  153.3483 H   0  0  0  0  0  0  0  0  0  0  0  0
  149.5522  131.6629  156.1727 H   0  0  0  0  0  0  0  0  0  0  0  0
  151.1279  132.3329  156.5780 H   0  0  0  0  0  0  0  0  0  0  0  0
  150.9070  131.4871  155.0591 H   0  0  0  0  0  0  0  0  0  0  0  0
  1  2  1  0  0  0  0
  1 25  1  0  0  0  0
  1 26  1  0  0  0  0
  1 27  1  0  0  0  0
  2 14  2  0  0  0  0
  2  3  1  0  0  0  0
  3  4  2  0  0  0  0
  4  5  1  0  0  0  0
  4 11  1  0  0  0  0
  5 10  1  0  0  0  0
  5  6  1  0  0  0  0
  6  7  1  0  0  0  0
  6 28  1  0  0  0  0
  6 29  1  0  0  0  0
  7  8  1  0  0  0  0
  7 30  1  0  0  0  0
  7 31  1  0  0  0  0
  8  9  1  0  0  0  0
  9 10  1  0  0  0  0
  9 32  1  0  0  0  0
  9 33  1  0  0  0  0
 10 34  1  0  0  0  0
 10 35  1  0  0  0  0
 11 12  1  0  0  0  0
 12 13  2  0  0  0  0
 12 14  1  0  0  0  0
 14 15  1  0  0  0  0
 15 16  1  0  0  0  0
 15 36  1  0  0  0  0
 15 37  1  0  0  0  0
 16 17  1  0  0  0  0
 16 38  1  0  0  0  0
 16 39  1  0  0  0  0
 17 18  2  0  0  0  0
 17 19  1  0  0  0  0
 19 20  1  0  0  0  0
 19 21  1  0  0  0  0
 20 40  1  0  0  0  0
 20 41  1  0  0  0  0
 20 42  1  0  0  0  0
 21 22  1  0  0  0  0
 21 43  1  0  0  0  0
 21 44  1  0  0  0  0
 22 23  1  0  0  0  0
 22 24  1  0  0  0  0
 22 45  1  0  0  0  0
 23 46  1  0  0  0  0
 23 47  1  0  0  0  0
 23 48  1  0  0  0  0
 24 49  1  0  0  0  0
 24 50  1  0  0  0  0
 24 51  1  0  0  0  0
M  CHG  1  11  -1
M  END
> <s_m_source_file>
AV-unprocessed.smi

> <i_m_source_file_index>
824

> <i_lp_mmshare_version>
43012

> <i_f3d_flags>
0

> <s_epik_input>
W0NIMl0xW0NIMl1PW0NIMl1bQ0gyXU4xYyhuYzJbQ0gzXSlbbkhdYyg9TyljMltDSDJdW0NIMl1DKD1PKU4oW0NIM10pW0NIMl1bQ0hdKFtDSDNdKVtDSDNd

> <s_epik_cmdline>
J2VwaWtfcHl0aG9uJywgJy1waCcsICc3LjAnLCAnLXRuJywgJzgnLCAnLW1hJywgJzIwMCcsICctbWV0YWxfYmluZGluZycsICctaW1hZScsICc8aW5maWxlLm1hZT4nLCAnLW9tYWUnLCAnPG91dGZpbGUubWFlPic=

> <r_lp_tautomer_probability>
1

> <r_epik_Ionization_Penalty>
5.09891

> <r_epik_Ionization_Penalty_Charging>
4.43024e-08

> <r_epik_Ionization_Penalty_Neutral>
5.09891

> <r_epik_State_Penalty>
2.55975

> <r_epik_Charging_Adjusted_Penalty>
2.55975

> <i_epik_Tot_Q>
-1

> <i_epik_Tot_abs_Q>
1

> <r_epik_Metal_State_Penalty>
0.115808

> <b_epik_Metal_Only>
0

> <s_lp_Force_Field>
OPLS_2005

> <r_lp_Energy>
31.6324

> <b_lp_Chiralities_Consistent>
1

> <s_lp_Variant>
AV-unprocessed.smi:824-3

> <Gold.Version>
5.8.1

> <Gold.Id.Protein>
6NUR|6NUR_protein|mol2

> <Gold.PLP.Fitness>
52.4977

> <Gold.PLP.PLP>
-44.6237

> <Gold.PLP.part.hbond>
-3.6990

> <Gold.PLP.part.metal>
0.0000

> <Gold.PLP.part.buried>
-1.1801

> <Gold.PLP.part.nonpolar>
-38.3213

> <Gold.PLP.part.repulsive>
0.1354

> <Gold.PLP.ligand.clash>
0.0000

> <Gold.PLP.ligand.torsion>
0.7341

> <Gold.PLP.Chemscore.Hbond>
2.9840

> <Gold.PLP.Chemscore.CHOScore>
0.0000

> <Gold.PLP.Chemscore.Metal>
0.0000

> <Gold.Chemscore.Hbonds>
donor molecule, donor type, donor heavy atom, donor atom, acceptor molecule, acceptor atom, score
      P1  H  7997  8008       L1    11  1.81
      P1  H 10752 10765       L1    18  0.98

> <Gold.PLP.Chemscore.Internal.Correction>
0.3903

> <Gold.Rescore>
     Score         DG    S(hbond)    S(metal)    S(lipo)     H(rot)  DE(clash)    DE(int)     intcor
     13.83     -16.34       1.05        0.00      99.28       1.66       0.12       2.39       ----

> <Gold.Chemscore.Fitness>
13.8253

> <Gold.Chemscore.DG>
-16.3372

> <Gold.Chemscore.ZeroCoef>
-5.4800

> <Gold.Chemscore.Hbond>
1.0478

> <Gold.Chemscore.Metal>
0.0000

> <Gold.Chemscore.Lipo>
99.2822

> <Gold.Chemscore.Internal_Hbond>
0.0000

> <Gold.Chemscore.DEClash>
0.1189

> <Gold.Chemscore.DEInternal>
2.3930

> <Gold.Chemscore.Rot>
1.6635

> <Gold.Chemscore.Internal.Correction>
   9.000000E+99

> <Gold.Chemscore.Hbonds>
donor molecule, donor type, donor heavy atom, donor atom, acceptor molecule, acceptor atom, score
      P1  H  7997  8008       L1    11  0.04
      P1  H 10752 10765       L1    18  0.92

> <Gold.Chemscore.Hbond.Weighted>
-3.4996

> <Gold.Chemscore.Metal.Weighted>
-0.0000

> <Gold.Chemscore.Lipo.Weighted>
-11.6160

> <Gold.Chemscore.Internal_Hbond.Weighted>
0.0000

> <Gold.Chemscore.DEClash.Weighted>
0.1189

> <Gold.Chemscore.DEInternal.Weighted>
2.3930

> <Gold.Chemscore.Rot.Weighted>
4.2585

> <Gold.Chemscore.Internal.Correction.Weighted>
   9.000000E+99

> <Gold.Protein.RotatedTorsions>
[ 6907 6896 6895 6894 ] final  -56.84 input  -60.11 | X-H torsion
[ 7974 7965 7964 7962 ] final  -41.01 input  175.53 | X-H torsion
[ 8008 7997 7996 7995 ] final  -96.54 input   59.86 | X-H torsion
[ 10167 10162 10161 10158 ] final -114.12 input  -65.29 | X-H torsion
[ 10718 10713 10712 10709 ] final -154.45 input   66.30 | X-H torsion
[ 10763 10752 10751 10750 ] final  160.41 input  -60.55 | X-H torsion
[ 11005 11000 10999 10996 ] final  -46.68 input  -57.11 | X-H torsion

> <Gold.Protein.ActiveResidues>
 VAL166  LYS551  ARG553  GLY616  TRP617  ASP618  TYR619  PRO620  LYS621  CYS622 
 ASP623  PHE694  ASN695  SER759  ASP760  ASP761  ALA762  ILE779  LEU786  VAL792 
 PHE793  MET794  SER795  GLU796  ALA797  LYS798  CYS799  TRP800  GLU811  SER814 

> <Gold.Protein.RotatedAtoms>
  150.8134  134.7302  159.6708 H   0  0  0  0  0  0  0  0  0  0  0  0  # atno 6907 bound_to 6896
  152.4253  134.5876  159.9975 H   0  0  0  0  0  0  0  0  0  0  0  0  # atno 6908 bound_to 6896
  151.6079  133.3313  159.3097 H   0  0  0  0  0  0  0  0  0  0  0  0  # atno 6909 bound_to 6896
  146.0251  140.6802  142.9159 H   0  0  0  0  0  0  0  0  0  0  0  0  # atno 7974 bound_to 7965
  154.7758  140.0470  157.1088 H   0  0  0  0  0  0  0  0  0  0  0  0  # atno 8008 bound_to 7997
  154.9765  140.3096  155.4945 H   0  0  0  0  0  0  0  0  0  0  0  0  # atno 8009 bound_to 7997
  156.2928  140.2244  156.4861 H   0  0  0  0  0  0  0  0  0  0  0  0  # atno 8010 bound_to 7997
  140.1044  143.4583  152.1792 H   0  0  0  0  0  0  0  0  0  0  0  0  # atno 10167 bound_to 10162
  156.4994  130.8384  151.2603 H   0  0  0  0  0  0  0  0  0  0  0  0  # atno 10718 bound_to 10713
  154.2470  135.2773  155.2831 H   0  0  0  0  0  0  0  0  0  0  0  0  # atno 10763 bound_to 10752
  154.5497  135.5679  153.6914 H   0  0  0  0  0  0  0  0  0  0  0  0  # atno 10764 bound_to 10752
  152.9988  135.6271  154.2616 H   0  0  0  0  0  0  0  0  0  0  0  0  # atno 10765 bound_to 10752
  141.0594  133.6714  156.3190 H   0  0  0  0  0  0  0  0  0  0  0  0  # atno 11005 bound_to 11000
  144.7006  140.3635  143.7159 LP  0  0  0  0  0  0  0  0  0  0  0  0  # atno 17320 bound_to 7965
  145.7131  139.1690  143.2527 LP  0  0  0  0  0  0  0  0  0  0  0  0  # atno 17321 bound_to 7965
  139.5653  144.7431  151.4040 LP  0  0  0  0  0  0  0  0  0  0  0  0  # atno 17342 bound_to 10162
  140.6960  143.7748  150.7327 LP  0  0  0  0  0  0  0  0  0  0  0  0  # atno 17343 bound_to 10162
  157.7464  130.9987  150.2861 LP  0  0  0  0  0  0  0  0  0  0  0  0  # atno 17370 bound_to 10713
  156.3347  130.3806  149.7460 LP  0  0  0  0  0  0  0  0  0  0  0  0  # atno 17371 bound_to 10713
  140.5899  134.5661  157.5497 LP  0  0  0  0  0  0  0  0  0  0  0  0  # atno 17394 bound_to 11000
  139.9419  134.7771  156.0657 LP  0  0  0  0  0  0  0  0  0  0  0  0  # atno 17395 bound_to 11000

$$$$
