AV-unprocessed.smi:198|AV-procd|sdf|1552|dock7
  -GOLD-   2262019423D 1   1.00000     0.00000
 Structure written by MMmdl.
 59 63  0  0  0  0  0  0  0  0  2 V2000
  151.5997  145.1498  158.9960 C   0  0  0  0  0  0  0  0  0  0  0  0
  151.6227  143.6714  158.9885 N   0  3  1  0  0  0  0  0  0  0  0  0
  151.3533  143.1081  157.6432 C   0  0  0  0  0  0  0  0  0  0  0  0
  151.2727  141.5736  157.6900 C   0  0  0  0  0  0  0  0  0  0  0  0
  152.5687  140.9644  158.2762 C   0  0  1  0  0  0  0  0  0  0  0  0
  152.7973  141.5857  159.6758 C   0  0  1  0  0  0  0  0  0  0  0  0
  154.0511  140.9938  160.3398 C   0  0  0  0  0  0  0  0  0  0  0  0
  153.9297  139.4669  160.4119 C   0  0  0  0  0  0  0  0  0  0  0  0
  153.6859  138.8776  159.0154 C   0  0  0  0  0  0  0  0  0  0  0  0
  152.5293  139.4959  158.3663 N   0  0  0  0  0  0  0  0  0  0  0  0
  152.2149  138.8153  157.2381 C   0  0  0  0  0  0  0  0  0  0  0  0
  152.8652  139.0792  156.0736 N   0  0  0  0  0  0  0  0  0  0  0  0
  152.5555  138.3965  154.9672 C   0  0  0  0  0  0  0  0  0  0  0  0
  151.6525  137.4262  154.8110 N   0  0  0  0  0  0  0  0  0  0  0  0
  151.0085  137.1486  155.9818 C   0  0  0  0  0  0  0  0  0  0  0  0
  151.2322  137.7906  157.2318 C   0  0  0  0  0  0  0  0  0  0  0  0
  150.3995  137.2523  158.2032 N   0  0  0  0  0  0  0  0  0  0  0  0
  149.7172  136.3422  157.5632 C   0  0  0  0  0  0  0  0  0  0  0  0
  150.0165  136.2113  156.2245 N   0  0  0  0  0  0  0  0  0  0  0  0
  149.4049  135.2957  155.3020 C   0  0  0  0  0  0  0  0  0  0  0  0
  148.5572  134.1155  155.7820 C   0  0  0  0  0  0  0  0  0  0  0  0
  149.0347  133.2902  154.5640 C   0  0  0  0  0  0  0  0  0  0  0  0
  149.3624  131.8208  154.8817 C   0  0  0  0  0  0  0  0  0  0  0  0
  150.0004  131.6783  156.1342 O   0  0  0  0  0  0  0  0  0  0  0  0
  148.0720  133.3503  153.3588 C   0  0  0  0  0  0  0  0  0  0  0  0
  148.5312  132.5825  152.2653 O   0  0  0  0  0  0  0  0  0  0  0  0
  150.2355  134.2650  154.5375 C   0  0  0  0  0  0  0  0  0  0  0  0
  152.8654  143.1214  159.5831 C   0  0  0  0  0  0  0  0  0  0  0  0
  152.3946  145.5572  158.3701 H   0  0  0  0  0  0  0  0  0  0  0  0
  151.7313  145.5323  160.0087 H   0  0  0  0  0  0  0  0  0  0  0  0
  150.6449  145.5217  158.6229 H   0  0  0  0  0  0  0  0  0  0  0  0
  150.4138  143.5098  157.2616 H   0  0  0  0  0  0  0  0  0  0  0  0
  152.1369  143.4213  156.9512 H   0  0  0  0  0  0  0  0  0  0  0  0
  150.4146  141.2692  158.2912 H   0  0  0  0  0  0  0  0  0  0  0  0
  151.0834  141.2080  156.6811 H   0  0  0  0  0  0  0  0  0  0  0  0
  153.4083  141.2390  157.6351 H   0  0  0  0  0  0  0  0  0  0  0  0
  151.9437  141.3296  160.3063 H   0  0  0  0  0  0  0  0  0  0  0  0
  154.9414  141.2679  159.7722 H   0  0  0  0  0  0  0  0  0  0  0  0
  154.1789  141.4029  161.3425 H   0  0  0  0  0  0  0  0  0  0  0  0
  154.8332  139.0380  160.8459 H   0  0  0  0  0  0  0  0  0  0  0  0
  153.1066  139.1932  161.0733 H   0  0  0  0  0  0  0  0  0  0  0  0
  154.5690  139.0283  158.3924 H   0  0  0  0  0  0  0  0  0  0  0  0
  153.5395  137.7997  159.1004 H   0  0  0  0  0  0  0  0  0  0  0  0
  153.1098  138.6658  154.0801 H   0  0  0  0  0  0  0  0  0  0  0  0
  148.9689  135.7384  158.0560 H   0  0  0  0  0  0  0  0  0  0  0  0
  148.8316  135.9023  154.5986 H   0  0  0  0  0  0  0  0  0  0  0  0
  148.8956  133.7079  156.7356 H   0  0  0  0  0  0  0  0  0  0  0  0
  147.4856  134.3155  155.8092 H   0  0  0  0  0  0  0  0  0  0  0  0
  148.4524  131.2207  154.9134 H   0  0  0  0  0  0  0  0  0  0  0  0
  149.9932  131.3793  154.1097 H   0  0  0  0  0  0  0  0  0  0  0  0
  150.8809  132.0140  156.0642 H   0  0  0  0  0  0  0  0  0  0  0  0
  147.0754  133.0038  153.6344 H   0  0  0  0  0  0  0  0  0  0  0  0
  147.9470  134.3745  153.0067 H   0  0  0  0  0  0  0  0  0  0  0  0
  148.9591  131.8089  152.5986 H   0  0  0  0  0  0  0  0  0  0  0  0
  150.5476  134.5874  153.5440 H   0  0  0  0  0  0  0  0  0  0  0  0
  151.0890  133.8974  155.1093 H   0  0  0  0  0  0  0  0  0  0  0  0
  153.7264  143.4297  158.9875 H   0  0  0  0  0  0  0  0  0  0  0  0
  153.0016  143.5422  160.5803 H   0  0  0  0  0  0  0  0  0  0  0  0
  150.8633  143.3700  159.5826 H   0  0  0  0  0  0  0  0  0  0  0  0
  1  2  1  0  0  0  0
  1 29  1  0  0  0  0
  1 30  1  0  0  0  0
  1 31  1  0  0  0  0
  2 28  1  0  0  0  0
  2  3  1  0  0  0  0
  2 59  1  0  0  0  0
  3  4  1  0  0  0  0
  3 32  1  0  0  0  0
  3 33  1  0  0  0  0
  4  5  1  0  0  0  0
  4 34  1  0  0  0  0
  4 35  1  0  0  0  0
  5 10  1  0  0  0  0
  5  6  1  0  0  0  0
  5 36  1  0  0  0  0
  6  7  1  0  0  0  0
  6 28  1  0  0  0  0
  6 37  1  0  0  0  0
  7  8  1  0  0  0  0
  7 38  1  0  0  0  0
  7 39  1  0  0  0  0
  8  9  1  0  0  0  0
  8 40  1  0  0  0  0
  8 41  1  0  0  0  0
  9 10  1  0  0  0  0
  9 42  1  0  0  0  0
  9 43  1  0  0  0  0
 10 11  1  0  0  0  0
 11 16  1  0  0  0  0
 11 12  2  0  0  0  0
 12 13  1  0  0  0  0
 13 14  2  0  0  0  0
 13 44  1  0  0  0  0
 14 15  1  0  0  0  0
 15 19  1  0  0  0  0
 15 16  2  0  0  0  0
 16 17  1  0  0  0  0
 17 18  2  0  0  0  0
 18 19  1  0  0  0  0
 18 45  1  0  0  0  0
 19 20  1  0  0  0  0
 20 27  1  0  0  0  0
 20 21  1  0  0  0  0
 20 46  1  0  0  0  0
 21 22  1  0  0  0  0
 21 47  1  0  0  0  0
 21 48  1  0  0  0  0
 22 23  1  0  0  0  0
 22 25  1  0  0  0  0
 22 27  1  0  0  0  0
 23 24  1  0  0  0  0
 23 49  1  0  0  0  0
 23 50  1  0  0  0  0
 24 51  1  0  0  0  0
 25 26  1  0  0  0  0
 25 52  1  0  0  0  0
 25 53  1  0  0  0  0
 26 54  1  0  0  0  0
 27 55  1  0  0  0  0
 27 56  1  0  0  0  0
 28 57  1  0  0  0  0
 28 58  1  0  0  0  0
M  CHG  1   2   1
M  END
> <s_m_source_file>
AV-unprocessed.smi

> <i_m_source_file_index>
198

> <i_lp_mmshare_version>
43012

> <i_f3d_flags>
0

> <s_epik_input>
W0NIMl0xW0NIMl1OKFtDSDNdKVtDSDJdW0NAQEhdKFtDQEhdMTIpW0NIMl1bQ0gyXVtDSDJdTjJjKG5bY0hdbjMpYyhjMzQpbltjSF1uNFtDSF0oW0NIMl01KVtDSDJdQzUoW0NIMl1bT0hdKVtDSDJdW09IXQ==

> <s_epik_cmdline>
J2VwaWtfcHl0aG9uJywgJy1waCcsICc3LjAnLCAnLXRuJywgJzgnLCAnLW1hJywgJzIwMCcsICctbWV0YWxfYmluZGluZycsICctaW1hZScsICc8aW5maWxlLm1hZT4nLCAnLW9tYWUnLCAnPG91dGZpbGUubWFlPic=

> <r_lp_tautomer_probability>
1

> <r_epik_Ionization_Penalty>
0.00239938

> <r_epik_Ionization_Penalty_Charging>
0.00138697

> <r_epik_Ionization_Penalty_Neutral>
0.00101241

> <r_epik_State_Penalty>
-0

> <r_epik_Charging_Adjusted_Penalty>
0.00138697

> <i_epik_Tot_Q>
1

> <i_epik_Tot_abs_Q>
1

> <r_epik_Metal_State_Penalty>
-0

> <b_epik_Metal_Only>
0

> <s_lp_Force_Field>
OPLS_2005

> <r_lp_Energy>
56.2866

> <b_lp_Chiralities_Consistent>
1

> <s_lp_Variant>
AV-unprocessed.smi:198-1

> <Gold.Version>
5.8.1

> <Gold.Id.Protein>
6NUR|6NUR_protein|mol2

> <Gold.PLP.Fitness>
48.2115

> <Gold.PLP.PLP>
-44.7387

> <Gold.PLP.part.hbond>
-2.6775

> <Gold.PLP.part.metal>
0.0000

> <Gold.PLP.part.buried>
-7.8946

> <Gold.PLP.part.nonpolar>
-34.1957

> <Gold.PLP.part.repulsive>
0.1553

> <Gold.PLP.ligand.clash>
0.0000

> <Gold.PLP.ligand.torsion>
0.9160

> <Gold.PLP.Chemscore.Hbond>
1.5525

> <Gold.PLP.Chemscore.CHOScore>
0.0000

> <Gold.PLP.Chemscore.Metal>
0.0000

> <Gold.Chemscore.Hbonds>
donor molecule, donor type, donor heavy atom, donor atom, acceptor molecule, acceptor atom, score
      P1  H  7997  8008       L1    12  1.00
      P1  H 10752 10763       L1    14  0.48

> <Gold.PLP.Chemscore.Internal.Correction>
0.6473

> <Gold.Rescore>
     Score         DG    S(hbond)    S(metal)    S(lipo)     H(rot)  DE(clash)    DE(int)     intcor
     14.15     -15.04       1.13        0.00     116.73       3.08       0.03       0.86       ----

> <Gold.Chemscore.Fitness>
14.1484

> <Gold.Chemscore.DG>
-15.0386

> <Gold.Chemscore.ZeroCoef>
-5.4800

> <Gold.Chemscore.Hbond>
1.1320

> <Gold.Chemscore.Metal>
0.0000

> <Gold.Chemscore.Lipo>
116.7336

> <Gold.Chemscore.Internal_Hbond>
0.0000

> <Gold.Chemscore.DEClash>
0.0323

> <Gold.Chemscore.DEInternal>
0.8579

> <Gold.Chemscore.Rot>
3.0781

> <Gold.Chemscore.Internal.Correction>
   9.000000E+99

> <Gold.Chemscore.Hbonds>
donor molecule, donor type, donor heavy atom, donor atom, acceptor molecule, acceptor atom, score
      P1  H  7997  8008       L1    12  0.90
      P1  H 10752 10763       L1    14  0.06

> <Gold.Chemscore.Hbond.Weighted>
-3.7808

> <Gold.Chemscore.Metal.Weighted>
-0.0000

> <Gold.Chemscore.Lipo.Weighted>
-13.6578

> <Gold.Chemscore.Internal_Hbond.Weighted>
0.0000

> <Gold.Chemscore.DEClash.Weighted>
0.0323

> <Gold.Chemscore.DEInternal.Weighted>
0.8579

> <Gold.Chemscore.Rot.Weighted>
7.8800

> <Gold.Chemscore.Internal.Correction.Weighted>
   9.000000E+99

> <Gold.Protein.RotatedTorsions>
[ 6907 6896 6895 6894 ] final  -91.18 input  -60.11 | X-H torsion
[ 7974 7965 7964 7962 ] final  125.84 input  175.53 | X-H torsion
[ 8008 7997 7996 7995 ] final  -36.55 input   59.86 | X-H torsion
[ 10167 10162 10161 10158 ] final    6.79 input  -65.29 | X-H torsion
[ 10718 10713 10712 10709 ] final  -22.52 input   66.30 | X-H torsion
[ 10763 10752 10751 10750 ] final   56.37 input  -60.55 | X-H torsion
[ 11005 11000 10999 10996 ] final  -38.45 input  -57.11 | X-H torsion

> <Gold.Protein.ActiveResidues>
 VAL166  LYS551  ARG553  GLY616  TRP617  ASP618  TYR619  PRO620  LYS621  CYS622 
 ASP623  PHE694  ASN695  SER759  ASP760  ASP761  ALA762  ILE779  LEU786  VAL792 
 PHE793  MET794  SER795  GLU796  ALA797  LYS798  CYS799  TRP800  GLU811  SER814 

> <Gold.Protein.RotatedAtoms>
  150.6889  134.2316  159.4436 H   0  0  0  0  0  0  0  0  0  0  0  0  # atno 6907 bound_to 6896
  152.0266  134.9789  160.0581 H   0  0  0  0  0  0  0  0  0  0  0  0  # atno 6908 bound_to 6896
  152.1345  133.4392  159.4774 H   0  0  0  0  0  0  0  0  0  0  0  0  # atno 6909 bound_to 6896
  145.0684  139.3749  143.4970 H   0  0  0  0  0  0  0  0  0  0  0  0  # atno 7974 bound_to 7965
  154.4071  140.1627  156.2392 H   0  0  0  0  0  0  0  0  0  0  0  0  # atno 8008 bound_to 7997
  155.9215  140.3421  155.6154 H   0  0  0  0  0  0  0  0  0  0  0  0  # atno 8009 bound_to 7997
  155.7216  140.0769  157.2319 H   0  0  0  0  0  0  0  0  0  0  0  0  # atno 8010 bound_to 7997
  140.6408  143.7779  150.7425 H   0  0  0  0  0  0  0  0  0  0  0  0  # atno 10167 bound_to 10162
  156.5035  130.4593  149.6688 H   0  0  0  0  0  0  0  0  0  0  0  0  # atno 10718 bound_to 10713
  152.9831  135.5678  154.5218 H   0  0  0  0  0  0  0  0  0  0  0  0  # atno 10763 bound_to 10752
  154.4705  135.2784  155.1648 H   0  0  0  0  0  0  0  0  0  0  0  0  # atno 10764 bound_to 10752
  154.3199  135.6271  153.5556 H   0  0  0  0  0  0  0  0  0  0  0  0  # atno 10765 bound_to 10752
  141.0029  133.6946  156.2055 H   0  0  0  0  0  0  0  0  0  0  0  0  # atno 11005 bound_to 11000
  146.3527  140.0417  142.8642 LP  0  0  0  0  0  0  0  0  0  0  0  0  # atno 17320 bound_to 7965
  145.1322  140.9524  143.4538 LP  0  0  0  0  0  0  0  0  0  0  0  0  # atno 17321 bound_to 7965
  140.1410  143.4441  152.2194 LP  0  0  0  0  0  0  0  0  0  0  0  0  # atno 17342 bound_to 10162
  139.5617  144.7410  151.4136 LP  0  0  0  0  0  0  0  0  0  0  0  0  # atno 17343 bound_to 10162
  156.3310  130.7331  151.2261 LP  0  0  0  0  0  0  0  0  0  0  0  0  # atno 17370 bound_to 10713
  157.7460  131.0430  150.4721 LP  0  0  0  0  0  0  0  0  0  0  0  0  # atno 17371 bound_to 10713
  140.6860  134.4716  157.5589 LP  0  0  0  0  0  0  0  0  0  0  0  0  # atno 17394 bound_to 11000
  139.9048  134.8474  156.1750 LP  0  0  0  0  0  0  0  0  0  0  0  0  # atno 17395 bound_to 11000

$$$$
