AV-unprocessed.smi:790|AV-procd|sdf|3741|dock8
  -GOLD-   22720 1173D 1   1.00000     0.00000
 Structure written by MMmdl.
 38 40  0  0  0  0  0  0  0  0  1 V2000
  145.6229  137.6758  154.2832 O   0  0  0  0  0  0  0  0  0  0  0  0
  146.5600  137.1992  153.6431 C   0  0  0  0  0  0  0  0  0  0  0  0
  147.7372  137.8068  153.4179 N   0  0  0  0  0  0  0  0  0  0  0  0
  148.1776  139.0779  153.8761 C   0  0  0  0  0  0  0  0  0  0  0  0
  147.3179  140.1723  154.1378 C   0  0  0  0  0  0  0  0  0  0  0  0
  147.8755  141.3769  154.6081 C   0  0  0  0  0  0  0  0  0  0  0  0
  149.2681  141.4419  154.8063 C   0  0  0  0  0  0  0  0  0  0  0  0
  150.0976  140.4026  154.5744 N   0  0  0  0  0  0  0  0  0  0  0  0
  149.5560  139.2506  154.1244 C   0  0  0  0  0  0  0  0  0  0  0  0
  146.5215  135.9900  153.0654 N   0  0  0  0  0  0  0  0  0  0  0  0
  145.3777  135.0771  153.0880 C   0  0  1  0  0  0  0  0  0  0  0  0
  144.1291  135.7723  152.5029 C   0  0  2  0  0  0  0  0  0  0  0  0
  142.8765  134.9652  152.8898 C   0  0  0  0  0  0  0  0  0  0  0  0
  143.0043  133.7081  152.0085 C   0  0  0  0  0  0  0  0  0  0  0  0
  144.3122  133.9634  151.2327 C   0  0  1  0  0  0  0  0  0  0  0  0
  144.2445  135.4694  151.0139 C   0  0  0  0  0  0  0  0  0  0  0  0
  145.5183  133.8084  152.1917 C   0  0  1  0  0  0  0  0  0  0  0  0
  146.8663  133.6353  151.4549 C   0  0  0  0  0  0  0  0  0  0  0  0
  146.7912  132.5662  150.5352 O   0  0  0  0  0  0  0  0  0  0  0  0
  148.3757  137.3244  152.8023 H   0  0  0  0  0  0  0  0  0  0  0  0
  146.2495  140.1094  154.0028 H   0  0  0  0  0  0  0  0  0  0  0  0
  147.2479  142.2310  154.8169 H   0  0  0  0  0  0  0  0  0  0  0  0
  149.7272  142.3507  155.1663 H   0  0  0  0  0  0  0  0  0  0  0  0
  150.2490  138.4400  153.9519 H   0  0  0  0  0  0  0  0  0  0  0  0
  147.3370  135.6798  152.5577 H   0  0  0  0  0  0  0  0  0  0  0  0
  145.1811  134.7890  154.1226 H   0  0  0  0  0  0  0  0  0  0  0  0
  144.0504  136.8309  152.7538 H   0  0  0  0  0  0  0  0  0  0  0  0
  142.8431  134.7283  153.9538 H   0  0  0  0  0  0  0  0  0  0  0  0
  141.9680  135.5157  152.6422 H   0  0  0  0  0  0  0  0  0  0  0  0
  143.0399  132.7894  152.5950 H   0  0  0  0  0  0  0  0  0  0  0  0
  142.1573  133.6331  151.3253 H   0  0  0  0  0  0  0  0  0  0  0  0
  144.3875  133.3721  150.3197 H   0  0  0  0  0  0  0  0  0  0  0  0
  143.3713  135.7840  150.4395 H   0  0  0  0  0  0  0  0  0  0  0  0
  145.1411  135.8861  150.5530 H   0  0  0  0  0  0  0  0  0  0  0  0
  145.3768  132.9238  152.8149 H   0  0  0  0  0  0  0  0  0  0  0  0
  147.1551  134.5431  150.9251 H   0  0  0  0  0  0  0  0  0  0  0  0
  147.6620  133.4022  152.1623 H   0  0  0  0  0  0  0  0  0  0  0  0
  147.5308  131.9952  150.6766 H   0  0  0  0  0  0  0  0  0  0  0  0
  1  2  2  0  0  0  0
  2  3  1  0  0  0  0
  2 10  1  0  0  0  0
  3  4  1  0  0  0  0
  3 20  1  0  0  0  0
  4  9  1  0  0  0  0
  4  5  2  0  0  0  0
  5  6  1  0  0  0  0
  5 21  1  0  0  0  0
  6  7  2  0  0  0  0
  6 22  1  0  0  0  0
  7  8  1  0  0  0  0
  7 23  1  0  0  0  0
  8  9  2  0  0  0  0
  9 24  1  0  0  0  0
 10 11  1  0  0  0  0
 10 25  1  0  0  0  0
 11 17  1  0  0  0  0
 11 12  1  0  0  0  0
 11 26  1  0  0  0  0
 12 16  1  0  0  0  0
 12 13  1  0  0  0  0
 12 27  1  0  0  0  0
 13 14  1  0  0  0  0
 13 28  1  0  0  0  0
 13 29  1  0  0  0  0
 14 15  1  0  0  0  0
 14 30  1  0  0  0  0
 14 31  1  0  0  0  0
 15 16  1  0  0  0  0
 15 17  1  0  0  0  0
 15 32  1  0  0  0  0
 16 33  1  0  0  0  0
 16 34  1  0  0  0  0
 17 18  1  0  0  0  0
 17 35  1  0  0  0  0
 18 19  1  0  0  0  0
 18 36  1  0  0  0  0
 18 37  1  0  0  0  0
 19 38  1  0  0  0  0
M  END
> <s_m_source_file>
AV-unprocessed.smi

> <i_m_source_file_index>
790

> <i_lp_mmshare_version>
43012

> <i_f3d_flags>
0

> <s_epik_input>
W0NIMl0xW0NIMl1bQ0BASF0oW0NIMl0yKVtDQEBIXShbQ0gyXVtPSF0pW0NAQEhdKFtDQEhdMTIpW05IXUMoPU8pW05IXWMzW2NIXVtjSF1bY0hdbltjSF0z

> <s_epik_cmdline>
J2VwaWtfcHl0aG9uJywgJy1waCcsICc3LjAnLCAnLXRuJywgJzgnLCAnLW1hJywgJzIwMCcsICctbWV0YWxfYmluZGluZycsICctaW1hZScsICc8aW5maWxlLm1hZT4nLCAnLW9tYWUnLCAnPG91dGZpbGUubWFlPic=

> <r_epik_Ionization_Penalty>
0.00497582

> <r_epik_Ionization_Penalty_Charging>
0

> <r_epik_Ionization_Penalty_Neutral>
0.00497582

> <r_epik_State_Penalty>
0.00358602

> <r_epik_Charging_Adjusted_Penalty>
0.00358602

> <i_epik_Tot_Q>
0

> <i_epik_Tot_abs_Q>
0

> <r_epik_Metal_State_Penalty>
-0

> <b_epik_Metal_Only>
0

> <s_lp_Force_Field>
OPLS_2005

> <r_lp_Energy>
53.2312

> <b_lp_Chiralities_Consistent>
1

> <s_lp_Variant>
AV-unprocessed.smi:790-2

> <Gold.Version>
5.8.1

> <Gold.Id.Protein>
6NUR|6NUR_protein|mol2

> <Gold.PLP.Fitness>
45.1271

> <Gold.PLP.PLP>
-31.1948

> <Gold.PLP.part.hbond>
-4.0000

> <Gold.PLP.part.metal>
0.0000

> <Gold.PLP.part.buried>
-3.1253

> <Gold.PLP.part.nonpolar>
-24.6049

> <Gold.PLP.part.repulsive>
0.2392

> <Gold.PLP.ligand.clash>
0.0000

> <Gold.PLP.ligand.torsion>
0.2519

> <Gold.PLP.Chemscore.Hbond>
3.8080

> <Gold.PLP.Chemscore.CHOScore>
1.0000

> <Gold.PLP.Chemscore.Metal>
0.0000

> <Gold.Chemscore.Hbonds>
donor molecule, donor type, donor heavy atom, donor atom, acceptor molecule, acceptor atom, score
      L1  H     3    20       P1  7948  1.00
      L1  H    10    25       P1  7948  0.90
      L1  H    19    38       P1 10747  1.00
      P1  H  7989  7998       L1     8  0.94
      L1  C     7    23       P1  8028  0.94

> <Gold.PLP.Chemscore.Internal.Correction>
0.0122

> <Gold.Rescore>
     Score         DG    S(hbond)    S(metal)    S(lipo)     H(rot)  DE(clash)    DE(int)     intcor
     19.45     -20.76       3.55        0.00      68.06       1.78       0.05       1.25       ----

> <Gold.Chemscore.Fitness>
19.4546

> <Gold.Chemscore.DG>
-20.7571

> <Gold.Chemscore.ZeroCoef>
-5.4800

> <Gold.Chemscore.Hbond>
3.5529

> <Gold.Chemscore.Metal>
0.0000

> <Gold.Chemscore.Lipo>
68.0586

> <Gold.Chemscore.Internal_Hbond>
0.0000

> <Gold.Chemscore.DEClash>
0.0525

> <Gold.Chemscore.DEInternal>
1.2500

> <Gold.Chemscore.Rot>
1.7783

> <Gold.Chemscore.Internal.Correction>
   9.000000E+99

> <Gold.Chemscore.Hbonds>
donor molecule, donor type, donor heavy atom, donor atom, acceptor molecule, acceptor atom, score
      L1  H     3    20       P1  7948  0.94
      L1  H    10    25       P1  7948  0.88
      L1  H    19    38       P1 10747  0.99
      P1  H  7989  7998       L1     8  0.58

> <Gold.Chemscore.Hbond.Weighted>
-11.8668

> <Gold.Chemscore.Metal.Weighted>
-0.0000

> <Gold.Chemscore.Lipo.Weighted>
-7.9629

> <Gold.Chemscore.Internal_Hbond.Weighted>
0.0000

> <Gold.Chemscore.DEClash.Weighted>
0.0525

> <Gold.Chemscore.DEInternal.Weighted>
1.2500

> <Gold.Chemscore.Rot.Weighted>
4.5525

> <Gold.Chemscore.Internal.Correction.Weighted>
   9.000000E+99

> <Gold.Protein.RotatedTorsions>
[ 6907 6896 6895 6894 ] final -111.32 input  -60.11 | X-H torsion
[ 7974 7965 7964 7962 ] final  131.70 input  175.53 | X-H torsion
[ 8008 7997 7996 7995 ] final   28.39 input   59.86 | X-H torsion
[ 10167 10162 10161 10158 ] final   37.43 input  -65.29 | X-H torsion
[ 10718 10713 10712 10709 ] final   65.13 input   66.30 | X-H torsion
[ 10763 10752 10751 10750 ] final  105.02 input  -60.55 | X-H torsion
[ 11005 11000 10999 10996 ] final -116.63 input  -57.11 | X-H torsion

> <Gold.Protein.ActiveResidues>
 VAL166  LYS551  ARG553  GLY616  TRP617  ASP618  TYR619  PRO620  LYS621  CYS622 
 ASP623  PHE694  ASN695  SER759  ASP760  ASP761  ALA762  ILE779  LEU786  VAL792 
 PHE793  MET794  SER795  GLU796  ALA797  LYS798  CYS799  TRP800  GLU811  SER814 

> <Gold.Protein.RotatedAtoms>
  150.7682  133.9253  159.3410 H   0  0  0  0  0  0  0  0  0  0  0  0  # atno 6907 bound_to 6896
  151.7146  135.0904  160.0283 H   0  0  0  0  0  0  0  0  0  0  0  0  # atno 6908 bound_to 6896
  152.3688  133.6354  159.6107 H   0  0  0  0  0  0  0  0  0  0  0  0  # atno 6909 bound_to 6896
  145.0046  139.4279  143.5275 H   0  0  0  0  0  0  0  0  0  0  0  0  # atno 7974 bound_to 7965
  155.0579  140.3187  155.4670 H   0  0  0  0  0  0  0  0  0  0  0  0  # atno 8008 bound_to 7997
  156.2820  140.2134  156.5650 H   0  0  0  0  0  0  0  0  0  0  0  0  # atno 8009 bound_to 7997
  154.7156  140.0494  157.0579 H   0  0  0  0  0  0  0  0  0  0  0  0  # atno 8010 bound_to 7997
  140.4033  144.1694  150.6135 H   0  0  0  0  0  0  0  0  0  0  0  0  # atno 10167 bound_to 10162
  157.6086  130.9198  149.9937 H   0  0  0  0  0  0  0  0  0  0  0  0  # atno 10718 bound_to 10713
  153.3737  135.3924  155.1807 H   0  0  0  0  0  0  0  0  0  0  0  0  # atno 10763 bound_to 10752
  154.8698  135.3708  154.4945 H   0  0  0  0  0  0  0  0  0  0  0  0  # atno 10764 bound_to 10752
  153.5415  135.7084  153.5695 H   0  0  0  0  0  0  0  0  0  0  0  0  # atno 10765 bound_to 10752
  141.0409  133.9837  157.2996 H   0  0  0  0  0  0  0  0  0  0  0  0  # atno 11005 bound_to 11000
  146.3458  139.9454  142.8735 LP  0  0  0  0  0  0  0  0  0  0  0  0  # atno 17320 bound_to 7965
  145.2107  140.9894  143.4102 LP  0  0  0  0  0  0  0  0  0  0  0  0  # atno 17321 bound_to 7965
  140.4716  143.2411  151.9080 LP  0  0  0  0  0  0  0  0  0  0  0  0  # atno 17342 bound_to 10162
  139.4784  144.5363  151.8593 LP  0  0  0  0  0  0  0  0  0  0  0  0  # atno 17343 bound_to 10162
  156.1180  130.3647  149.9935 LP  0  0  0  0  0  0  0  0  0  0  0  0  # atno 17370 bound_to 10713
  156.8021  130.9294  151.3646 LP  0  0  0  0  0  0  0  0  0  0  0  0  # atno 17371 bound_to 10713
  139.9275  135.0201  156.8285 LP  0  0  0  0  0  0  0  0  0  0  0  0  # atno 17394 bound_to 11000
  140.6236  133.9970  155.7630 LP  0  0  0  0  0  0  0  0  0  0  0  0  # atno 17395 bound_to 11000

$$$$
