AV-unprocessed.smi:2451|AV-procd|sdf|9669|dock6
  -GOLD-   2272013303D 1   1.00000     0.00000
 Structure written by MMmdl.
 38 39  0  0  0  0  0  0  0  0  1 V2000
  151.4935  145.7510  160.7295 C   0  0  0  0  0  0  0  0  0  0  0  0
  151.7183  144.2344  160.5939 C   0  0  2  0  0  0  0  0  0  0  0  0
  152.4080  143.6906  161.8615 C   0  0  0  0  0  0  0  0  0  0  0  0
  152.6201  142.1725  161.7937 C   0  0  0  0  0  0  0  0  0  0  0  0
  153.4275  141.7746  160.5495 C   0  0  0  0  0  0  0  0  0  0  0  0
  152.8045  142.3291  159.2559 C   0  0  1  0  0  0  0  0  0  0  0  0
  151.5869  141.5781  158.9241 N   0  0  0  0  0  0  0  0  0  0  0  0
  151.6837  140.3012  157.7694 S   0  0  0  0  0  0  0  0  0  0  0  0
  152.9892  139.6464  157.9434 O   0  0  0  0  0  0  0  0  0  0  0  0
  150.4467  139.5116  157.8730 O   0  0  0  0  0  0  0  0  0  0  0  0
  151.6694  141.2084  156.1661 C   0  0  0  0  0  0  0  0  0  0  0  0
  151.2173  140.2862  155.0698 C   0  0  0  0  0  0  0  0  0  0  0  0
  151.5636  138.9224  154.8610 C   0  0  0  0  0  0  0  0  0  0  0  0
  150.8754  138.5879  153.7306 C   0  0  0  0  0  0  0  0  0  0  0  0
  150.1595  139.6483  153.2792 O   0  0  0  0  0  0  0  0  0  0  0  0
  150.3831  140.7276  154.1415 N   0  0  0  0  0  0  0  0  0  0  0  0
  152.5288  143.8527  159.3255 C   0  0  1  0  0  0  0  0  0  0  0  0
  151.9160  144.3772  158.0117 C   0  0  0  0  0  0  0  0  0  0  0  0
  152.4388  146.2943  160.7352 H   0  0  0  0  0  0  0  0  0  0  0  0
  150.9707  145.9873  161.6568 H   0  0  0  0  0  0  0  0  0  0  0  0
  150.8844  146.1435  159.9155 H   0  0  0  0  0  0  0  0  0  0  0  0
  150.7351  143.7669  160.5236 H   0  0  0  0  0  0  0  0  0  0  0  0
  153.3704  144.1854  161.9995 H   0  0  0  0  0  0  0  0  0  0  0  0
  151.8112  143.9299  162.7423 H   0  0  0  0  0  0  0  0  0  0  0  0
  153.1326  141.8283  162.6925 H   0  0  0  0  0  0  0  0  0  0  0  0
  151.6528  141.6689  161.7807 H   0  0  0  0  0  0  0  0  0  0  0  0
  154.4417  142.1633  160.6494 H   0  0  0  0  0  0  0  0  0  0  0  0
  153.5237  140.6896  160.4926 H   0  0  0  0  0  0  0  0  0  0  0  0
  153.5243  142.1621  158.4530 H   0  0  0  0  0  0  0  0  0  0  0  0
  150.8144  142.2096  158.7134 H   0  0  0  0  0  0  0  0  0  0  0  0
  151.0021  142.0651  156.2597 H   0  0  0  0  0  0  0  0  0  0  0  0
  152.6742  141.5877  155.9780 H   0  0  0  0  0  0  0  0  0  0  0  0
  152.2179  138.2923  155.4450 H   0  0  0  0  0  0  0  0  0  0  0  0
  150.7948  137.6798  153.1517 H   0  0  0  0  0  0  0  0  0  0  0  0
  153.5036  144.3346  159.4189 H   0  0  0  0  0  0  0  0  0  0  0  0
  150.8843  144.0464  157.8888 H   0  0  0  0  0  0  0  0  0  0  0  0
  152.4823  144.0245  157.1492 H   0  0  0  0  0  0  0  0  0  0  0  0
  151.9232  145.4659  157.9702 H   0  0  0  0  0  0  0  0  0  0  0  0
  1  2  1  0  0  0  0
  1 19  1  0  0  0  0
  1 20  1  0  0  0  0
  1 21  1  0  0  0  0
  2 17  1  0  0  0  0
  2  3  1  0  0  0  0
  2 22  1  0  0  0  0
  3  4  1  0  0  0  0
  3 23  1  0  0  0  0
  3 24  1  0  0  0  0
  4  5  1  0  0  0  0
  4 25  1  0  0  0  0
  4 26  1  0  0  0  0
  5  6  1  0  0  0  0
  5 27  1  0  0  0  0
  5 28  1  0  0  0  0
  6  7  1  0  0  0  0
  6 17  1  0  0  0  0
  6 29  1  0  0  0  0
  7  8  1  0  0  0  0
  7 30  1  0  0  0  0
  8  9  2  0  0  0  0
  8 10  2  0  0  0  0
  8 11  1  0  0  0  0
 11 12  1  0  0  0  0
 11 31  1  0  0  0  0
 11 32  1  0  0  0  0
 12 16  2  0  0  0  0
 12 13  1  0  0  0  0
 13 14  2  0  0  0  0
 13 33  1  0  0  0  0
 14 15  1  0  0  0  0
 14 34  1  0  0  0  0
 15 16  1  0  0  0  0
 17 18  1  0  0  0  0
 17 35  1  0  0  0  0
 18 36  1  0  0  0  0
 18 37  1  0  0  0  0
 18 38  1  0  0  0  0
M  END
> <s_m_source_file>
AV-unprocessed.smi

> <i_m_source_file_index>
2451

> <i_lp_mmshare_version>
43012

> <i_f3d_flags>
0

> <s_epik_input>
W0NIM11bQ0BASF0xW0NIMl1bQ0gyXVtDSDJdW0NASF0oW0NASF0xW0NIM10pW05IXVMoPU8pKD1PKVtDSDJdYzJbY0hdW2NIXW9uMg==

> <s_epik_cmdline>
J2VwaWtfcHl0aG9uJywgJy1waCcsICc3LjAnLCAnLXRuJywgJzgnLCAnLW1hJywgJzIwMCcsICctbWV0YWxfYmluZGluZycsICctaW1hZScsICc8aW5maWxlLm1hZT4nLCAnLW9tYWUnLCAnPG91dGZpbGUubWFlPic=

> <r_lp_tautomer_probability>
1

> <r_epik_Ionization_Penalty>
8.73668e-05

> <r_epik_Ionization_Penalty_Charging>
0

> <r_epik_Ionization_Penalty_Neutral>
8.73668e-05

> <r_epik_State_Penalty>
-0

> <r_epik_Charging_Adjusted_Penalty>
0

> <i_epik_Tot_Q>
0

> <i_epik_Tot_abs_Q>
0

> <r_epik_Metal_State_Penalty>
0.0716439

> <b_epik_Metal_Only>
0

> <s_lp_Force_Field>
OPLS_2005

> <r_lp_Energy>
9.22722

> <b_lp_Chiralities_Consistent>
1

> <s_lp_Variant>
AV-unprocessed.smi:2451-1

> <Gold.Version>
5.8.1

> <Gold.Id.Protein>
6NUR|6NUR_protein|mol2

> <Gold.PLP.Fitness>
50.7908

> <Gold.PLP.PLP>
-45.0526

> <Gold.PLP.part.hbond>
-2.0000

> <Gold.PLP.part.metal>
0.0000

> <Gold.PLP.part.buried>
-5.1063

> <Gold.PLP.part.nonpolar>
-38.6231

> <Gold.PLP.part.repulsive>
0.3769

> <Gold.PLP.ligand.clash>
0.0000

> <Gold.PLP.ligand.torsion>
1.6597

> <Gold.PLP.Chemscore.Hbond>
2.0000

> <Gold.PLP.Chemscore.CHOScore>
0.9711

> <Gold.PLP.Chemscore.Metal>
0.0000

> <Gold.Chemscore.Hbonds>
donor molecule, donor type, donor heavy atom, donor atom, acceptor molecule, acceptor atom, score
      P1  H  7997  8010       L1     9  1.00
      L1  C    14    34       P1  7948  0.26
      L1  C    14    34       P1  7949  0.82

> <Gold.PLP.Chemscore.Internal.Correction>
0.1443

> <Gold.Rescore>
     Score         DG    S(hbond)    S(metal)    S(lipo)     H(rot)  DE(clash)    DE(int)     intcor
     17.03     -18.36       0.98        0.00     118.32       1.66       0.09       1.25       ----

> <Gold.Chemscore.Fitness>
17.0279

> <Gold.Chemscore.DG>
-18.3649

> <Gold.Chemscore.ZeroCoef>
-5.4800

> <Gold.Chemscore.Hbond>
0.9846

> <Gold.Chemscore.Metal>
0.0000

> <Gold.Chemscore.Lipo>
118.3151

> <Gold.Chemscore.Internal_Hbond>
0.0000

> <Gold.Chemscore.DEClash>
0.0884

> <Gold.Chemscore.DEInternal>
1.2486

> <Gold.Chemscore.Rot>
1.6588

> <Gold.Chemscore.Internal.Correction>
   9.000000E+99

> <Gold.Chemscore.Hbonds>
donor molecule, donor type, donor heavy atom, donor atom, acceptor molecule, acceptor atom, score
      P1  H  7997  8010       L1     9  1.00

> <Gold.Chemscore.Hbond.Weighted>
-3.2886

> <Gold.Chemscore.Metal.Weighted>
-0.0000

> <Gold.Chemscore.Lipo.Weighted>
-13.8429

> <Gold.Chemscore.Internal_Hbond.Weighted>
0.0000

> <Gold.Chemscore.DEClash.Weighted>
0.0884

> <Gold.Chemscore.DEInternal.Weighted>
1.2486

> <Gold.Chemscore.Rot.Weighted>
4.2466

> <Gold.Chemscore.Internal.Correction.Weighted>
   9.000000E+99

> <Gold.Protein.RotatedTorsions>
[ 6907 6896 6895 6894 ] final -160.03 input  -60.11 | X-H torsion
[ 7974 7965 7964 7962 ] final   38.73 input  175.53 | X-H torsion
[ 8008 7997 7996 7995 ] final   37.54 input   59.86 | X-H torsion
[ 10167 10162 10161 10158 ] final  -62.13 input  -65.29 | X-H torsion
[ 10718 10713 10712 10709 ] final   73.10 input   66.30 | X-H torsion
[ 10763 10752 10751 10750 ] final  155.34 input  -60.55 | X-H torsion
[ 11005 11000 10999 10996 ] final  110.37 input  -57.11 | X-H torsion

> <Gold.Protein.ActiveResidues>
 VAL166  LYS551  ARG553  GLY616  TRP617  ASP618  TYR619  PRO620  LYS621  CYS622 
 ASP623  PHE694  ASN695  SER759  ASP760  ASP761  ALA762  ILE779  LEU786  VAL792 
 PHE793  MET794  SER795  GLU796  ALA797  LYS798  CYS799  TRP800  GLU811  SER814 

> <Gold.Protein.RotatedAtoms>
  151.3428  133.3956  159.2672 H   0  0  0  0  0  0  0  0  0  0  0  0  # atno 6907 bound_to 6896
  150.9864  134.9209  159.7884 H   0  0  0  0  0  0  0  0  0  0  0  0  # atno 6908 bound_to 6896
  152.5233  134.3392  159.9263 H   0  0  0  0  0  0  0  0  0  0  0  0  # atno 6909 bound_to 6896
  146.1040  139.5737  142.9396 H   0  0  0  0  0  0  0  0  0  0  0  0  # atno 7974 bound_to 7965
  155.2055  140.3319  155.4336 H   0  0  0  0  0  0  0  0  0  0  0  0  # atno 8008 bound_to 7997
  156.2390  140.1886  156.7089 H   0  0  0  0  0  0  0  0  0  0  0  0  # atno 8009 bound_to 7997
  154.6113  140.0608  156.9482 H   0  0  0  0  0  0  0  0  0  0  0  0  # atno 8010 bound_to 7997
  140.5960  143.2351  151.6035 H   0  0  0  0  0  0  0  0  0  0  0  0  # atno 10167 bound_to 10162
  157.6532  130.9612  150.1022 H   0  0  0  0  0  0  0  0  0  0  0  0  # atno 10718 bound_to 10713
  154.1668  135.2806  155.3093 H   0  0  0  0  0  0  0  0  0  0  0  0  # atno 10763 bound_to 10752
  154.6105  135.5500  153.7472 H   0  0  0  0  0  0  0  0  0  0  0  0  # atno 10764 bound_to 10752
  153.0176  135.6414  154.1809 H   0  0  0  0  0  0  0  0  0  0  0  0  # atno 10765 bound_to 10752
  139.8880  134.9482  156.6269 H   0  0  0  0  0  0  0  0  0  0  0  0  # atno 11005 bound_to 11000
  145.5799  141.0384  143.2128 LP  0  0  0  0  0  0  0  0  0  0  0  0  # atno 17320 bound_to 7965
  144.7455  139.7331  143.7294 LP  0  0  0  0  0  0  0  0  0  0  0  0  # atno 17321 bound_to 7965
  139.5258  144.3063  152.1031 LP  0  0  0  0  0  0  0  0  0  0  0  0  # atno 17342 bound_to 10162
  140.2235  144.4442  150.6331 LP  0  0  0  0  0  0  0  0  0  0  0  0  # atno 17343 bound_to 10162
  156.1942  130.3656  149.8871 LP  0  0  0  0  0  0  0  0  0  0  0  0  # atno 17370 bound_to 10713
  156.6791  130.8851  151.3573 LP  0  0  0  0  0  0  0  0  0  0  0  0  # atno 17371 bound_to 10713
  140.7696  133.8749  155.8482 LP  0  0  0  0  0  0  0  0  0  0  0  0  # atno 17394 bound_to 11000
  140.9853  134.1351  157.4458 LP  0  0  0  0  0  0  0  0  0  0  0  0  # atno 17395 bound_to 11000

$$$$
