AV-unprocessed.smi:2577|AV-procd|sdf|10120|dock1
  -GOLD-   2272014143D 1   1.00000     0.00000
 Structure written by MMmdl.
 27 28  0  0  0  0  0  0  0  0  1 V2000
  151.1591  139.6187  155.7588 C   0  0  0  0  0  0  0  0  0  0  0  0
  150.3641  140.1642  156.9530 C   0  0  0  0  0  0  0  0  0  0  0  0
  150.0009  141.6537  156.8184 C   0  0  2  0  0  0  0  0  0  0  0  0
  149.3758  141.8690  155.5672 O   0  0  0  0  0  0  0  0  0  0  0  0
  151.2415  142.5607  156.9358 C   0  0  0  0  0  0  0  0  0  0  0  0
  151.2632  143.3193  158.1744 N   0  0  0  0  0  0  0  0  0  0  0  0
  150.4882  144.4347  158.2885 N   0  0  0  0  0  0  0  0  0  0  0  0
  150.6695  144.9485  159.4684 N   0  0  0  0  0  0  0  0  0  0  0  0
  151.5830  144.1573  160.1449 C   0  0  0  0  0  0  0  0  0  0  0  0
  152.1343  144.2535  161.4420 C   0  0  0  0  0  0  0  0  0  0  0  0
  153.0681  143.2951  161.8936 C   0  0  0  0  0  0  0  0  0  0  0  0
  153.7197  143.4465  163.4868 Cl  0  0  0  0  0  0  0  0  0  0  0  0
  153.4618  142.2281  161.0502 C   0  0  0  0  0  0  0  0  0  0  0  0
  154.6033  141.0474  161.5869 Cl  0  0  0  0  0  0  0  0  0  0  0  0
  152.9200  142.1201  159.7539 C   0  0  0  0  0  0  0  0  0  0  0  0
  151.9912  143.0831  159.3246 C   0  0  0  0  0  0  0  0  0  0  0  0
  151.3584  138.5541  155.8815 H   0  0  0  0  0  0  0  0  0  0  0  0
  152.1193  140.1245  155.6551 H   0  0  0  0  0  0  0  0  0  0  0  0
  150.6087  139.7488  154.8266 H   0  0  0  0  0  0  0  0  0  0  0  0
  149.4475  139.5807  157.0477 H   0  0  0  0  0  0  0  0  0  0  0  0
  150.9251  139.9978  157.8737 H   0  0  0  0  0  0  0  0  0  0  0  0
  149.2903  141.9197  157.6022 H   0  0  0  0  0  0  0  0  0  0  0  0
  149.1399  142.7819  155.5019 H   0  0  0  0  0  0  0  0  0  0  0  0
  152.1527  141.9630  156.8827 H   0  0  0  0  0  0  0  0  0  0  0  0
  151.2825  143.2602  156.0997 H   0  0  0  0  0  0  0  0  0  0  0  0
  151.8390  145.0659  162.0897 H   0  0  0  0  0  0  0  0  0  0  0  0
  153.2136  141.3122  159.0997 H   0  0  0  0  0  0  0  0  0  0  0  0
  1  2  1  0  0  0  0
  1 17  1  0  0  0  0
  1 18  1  0  0  0  0
  1 19  1  0  0  0  0
  2  3  1  0  0  0  0
  2 20  1  0  0  0  0
  2 21  1  0  0  0  0
  3  4  1  0  0  0  0
  3  5  1  0  0  0  0
  3 22  1  0  0  0  0
  4 23  1  0  0  0  0
  5  6  1  0  0  0  0
  5 24  1  0  0  0  0
  5 25  1  0  0  0  0
  6 16  1  0  0  0  0
  6  7  1  0  0  0  0
  7  8  2  0  0  0  0
  8  9  1  0  0  0  0
  9 16  2  0  0  0  0
  9 10  1  0  0  0  0
 10 11  2  0  0  0  0
 10 26  1  0  0  0  0
 11 12  1  0  0  0  0
 11 13  1  0  0  0  0
 13 14  1  0  0  0  0
 13 15  2  0  0  0  0
 15 16  1  0  0  0  0
 15 27  1  0  0  0  0
M  END
> <s_m_source_file>
AV-unprocessed.smi

> <i_m_source_file_index>
2577

> <i_lp_mmshare_version>
43012

> <i_f3d_flags>
0

> <s_epik_input>
W0NIM11bQ0gyXVtDQEhdKFtPSF0pW0NIMl1uKG5uMSljKGMxMilbY0hdYyhDbCljKENsKVtjSF0y

> <s_epik_cmdline>
J2VwaWtfcHl0aG9uJywgJy1waCcsICc3LjAnLCAnLXRuJywgJzgnLCAnLW1hJywgJzIwMCcsICctbWV0YWxfYmluZGluZycsICctaW1hZScsICc8aW5maWxlLm1hZT4nLCAnLW9tYWUnLCAnPG91dGZpbGUubWFlPic=

> <r_lp_tautomer_probability>
1

> <r_epik_Ionization_Penalty>
1.50913e-07

> <r_epik_Ionization_Penalty_Charging>
0

> <r_epik_Ionization_Penalty_Neutral>
1.50913e-07

> <r_epik_State_Penalty>
-0

> <r_epik_Charging_Adjusted_Penalty>
0

> <i_epik_Tot_Q>
0

> <i_epik_Tot_abs_Q>
0

> <r_epik_Metal_State_Penalty>
-0

> <b_epik_Metal_Only>
0

> <s_lp_Force_Field>
OPLS_2005

> <r_lp_Energy>
7.05244

> <b_lp_Chiralities_Consistent>
1

> <s_lp_Variant>
AV-unprocessed.smi:2577-1

> <Gold.Version>
5.8.1

> <Gold.Id.Protein>
6NUR|6NUR_protein|mol2

> <Gold.PLP.Fitness>
42.8398

> <Gold.PLP.PLP>
-41.8228

> <Gold.PLP.part.hbond>
-0.9471

> <Gold.PLP.part.metal>
0.0000

> <Gold.PLP.part.buried>
-5.3232

> <Gold.PLP.part.nonpolar>
-35.4407

> <Gold.PLP.part.repulsive>
0.3168

> <Gold.PLP.ligand.clash>
0.0000

> <Gold.PLP.ligand.torsion>
0.9937

> <Gold.PLP.Chemscore.Hbond>
1.0000

> <Gold.PLP.Chemscore.CHOScore>
0.0000

> <Gold.PLP.Chemscore.Metal>
0.0000

> <Gold.Chemscore.Hbonds>
donor molecule, donor type, donor heavy atom, donor atom, acceptor molecule, acceptor atom, score
      L1  H     4    23       P1  8028  1.00

> <Gold.PLP.Chemscore.Internal.Correction>
0.0043

> <Gold.Rescore>
     Score         DG    S(hbond)    S(metal)    S(lipo)     H(rot)  DE(clash)    DE(int)     intcor
     16.84     -17.97       0.98        0.00     118.00       1.79       0.51       0.62       ----

> <Gold.Chemscore.Fitness>
16.8368

> <Gold.Chemscore.DG>
-17.9727

> <Gold.Chemscore.ZeroCoef>
-5.4800

> <Gold.Chemscore.Hbond>
0.9807

> <Gold.Chemscore.Metal>
0.0000

> <Gold.Chemscore.Lipo>
117.9973

> <Gold.Chemscore.Internal_Hbond>
0.0000

> <Gold.Chemscore.DEClash>
0.5142

> <Gold.Chemscore.DEInternal>
0.6217

> <Gold.Chemscore.Rot>
1.7924

> <Gold.Chemscore.Internal.Correction>
   9.000000E+99

> <Gold.Chemscore.Hbonds>
donor molecule, donor type, donor heavy atom, donor atom, acceptor molecule, acceptor atom, score
      L1  H     4    23       P1  8028  0.99

> <Gold.Chemscore.Hbond.Weighted>
-3.2755

> <Gold.Chemscore.Metal.Weighted>
-0.0000

> <Gold.Chemscore.Lipo.Weighted>
-13.8057

> <Gold.Chemscore.Internal_Hbond.Weighted>
0.0000

> <Gold.Chemscore.DEClash.Weighted>
0.5142

> <Gold.Chemscore.DEInternal.Weighted>
0.6217

> <Gold.Chemscore.Rot.Weighted>
4.5884

> <Gold.Chemscore.Internal.Correction.Weighted>
   9.000000E+99

> <Gold.Protein.RotatedTorsions>
[ 6907 6896 6895 6894 ] final -166.61 input  -60.11 | X-H torsion
[ 7974 7965 7964 7962 ] final -137.78 input  175.53 | X-H torsion
[ 8008 7997 7996 7995 ] final  -91.38 input   59.86 | X-H torsion
[ 10167 10162 10161 10158 ] final  -89.25 input  -65.29 | X-H torsion
[ 10718 10713 10712 10709 ] final  122.87 input   66.30 | X-H torsion
[ 10763 10752 10751 10750 ] final   94.57 input  -60.55 | X-H torsion
[ 11005 11000 10999 10996 ] final  108.43 input  -57.11 | X-H torsion

> <Gold.Protein.ActiveResidues>
 VAL166  LYS551  ARG553  GLY616  TRP617  ASP618  TYR619  PRO620  LYS621  CYS622 
 ASP623  PHE694  ASN695  SER759  ASP760  ASP761  ALA762  ILE779  LEU786  VAL792 
 PHE793  MET794  SER795  GLU796  ALA797  LYS798  CYS799  TRP800  GLU811  SER814 

> <Gold.Protein.RotatedAtoms>
  151.4464  133.3629  159.2788 H   0  0  0  0  0  0  0  0  0  0  0  0  # atno 6907 bound_to 6896
  150.9121  134.8540  159.7443 H   0  0  0  0  0  0  0  0  0  0  0  0  # atno 6908 bound_to 6896
  152.4938  134.4395  159.9590 H   0  0  0  0  0  0  0  0  0  0  0  0  # atno 6909 bound_to 6896
  144.8813  140.6511  143.5204 H   0  0  0  0  0  0  0  0  0  0  0  0  # atno 7974 bound_to 7965
  154.7100  140.0520  157.0541 H   0  0  0  0  0  0  0  0  0  0  0  0  # atno 8008 bound_to 7997
  155.0567  140.3185  155.4655 H   0  0  0  0  0  0  0  0  0  0  0  0  # atno 8009 bound_to 7997
  156.2786  140.2106  156.5694 H   0  0  0  0  0  0  0  0  0  0  0  0  # atno 8010 bound_to 7997
  140.3667  143.2815  151.9550 H   0  0  0  0  0  0  0  0  0  0  0  0  # atno 10167 bound_to 10162
  157.5709  131.1083  150.8368 H   0  0  0  0  0  0  0  0  0  0  0  0  # atno 10718 bound_to 10713
  153.2432  135.4285  155.0720 H   0  0  0  0  0  0  0  0  0  0  0  0  # atno 10763 bound_to 10752
  154.8349  135.3407  154.6619 H   0  0  0  0  0  0  0  0  0  0  0  0  # atno 10764 bound_to 10752
  153.7043  135.7026  153.5111 H   0  0  0  0  0  0  0  0  0  0  0  0  # atno 10765 bound_to 10752
  139.8844  134.9430  156.5972 H   0  0  0  0  0  0  0  0  0  0  0  0  # atno 11005 bound_to 11000
  145.3950  139.1609  143.4208 LP  0  0  0  0  0  0  0  0  0  0  0  0  # atno 17320 bound_to 7965
  146.2996  140.4042  142.8709 LP  0  0  0  0  0  0  0  0  0  0  0  0  # atno 17321 bound_to 7965
  139.4808  144.5944  151.7715 LP  0  0  0  0  0  0  0  0  0  0  0  0  # atno 17342 bound_to 10162
  140.5074  144.1077  150.5986 LP  0  0  0  0  0  0  0  0  0  0  0  0  # atno 17343 bound_to 10162
  156.8840  130.5189  149.5289 LP  0  0  0  0  0  0  0  0  0  0  0  0  # atno 17370 bound_to 10713
  156.0755  130.5778  150.9465 LP  0  0  0  0  0  0  0  0  0  0  0  0  # atno 17371 bound_to 10713
  140.7911  133.8581  155.8647 LP  0  0  0  0  0  0  0  0  0  0  0  0  # atno 17394 bound_to 11000
  140.9676  134.1573  157.4603 LP  0  0  0  0  0  0  0  0  0  0  0  0  # atno 17395 bound_to 11000

$$$$
