AV-unprocessed.smi:402|AV-procd|sdf|2495|dock8
  -GOLD-   2262022443D 1   1.00000     0.00000
 Structure written by MMmdl.
 38 39  0  0  0  0  0  0  0  0  1 V2000
  151.2243  141.2664  156.2250 O   0  0  0  0  0  0  0  0  0  0  0  0
  150.2878  141.8111  156.8082 C   0  0  0  0  0  0  0  0  0  0  0  0
  148.9241  141.0994  156.8620 C   0  0  0  0  0  0  0  0  0  0  0  0
  148.2875  140.8714  155.5514 N   0  0  0  0  0  0  0  0  0  0  0  0
  147.7213  141.9929  154.9130 C   0  0  0  0  0  0  0  0  0  0  0  0
  147.1213  141.9011  153.7158 C   0  0  0  0  0  0  0  0  0  0  0  0
  147.0633  140.6067  153.0790 C   0  0  0  0  0  0  0  0  0  0  0  0
  147.6046  139.5279  153.6788 C   0  0  0  0  0  0  0  0  0  0  0  0
  148.2648  139.6244  154.9859 C   0  0  0  0  0  0  0  0  0  0  0  0
  148.7739  138.6471  155.5345 O   0  0  0  0  0  0  0  0  0  0  0  0
  150.4017  143.0100  157.4014 N   0  0  0  0  0  0  0  0  0  0  0  0
  151.6012  143.8358  157.4028 C   0  0  0  0  0  0  0  0  0  0  0  0
  152.2802  143.8279  158.7857 C   0  0  0  0  0  0  0  0  0  0  0  0
  152.6392  142.4001  159.2577 C   0  0  0  0  0  0  0  0  0  0  0  0
  153.2964  142.4078  160.6473 C   0  0  0  0  0  0  0  0  0  0  0  0
  152.4076  143.1148  161.6814 C   0  0  0  0  0  0  0  0  0  0  0  0
  152.0552  144.5381  161.2245 C   0  0  0  0  0  0  0  0  0  0  0  0
  151.3952  144.5291  159.8360 C   0  0  0  0  0  0  0  0  0  0  0  0
  149.0516  140.1513  157.3874 H   0  0  0  0  0  0  0  0  0  0  0  0
  148.2641  141.6862  157.5024 H   0  0  0  0  0  0  0  0  0  0  0  0
  147.8121  142.9242  155.4532 H   0  0  0  0  0  0  0  0  0  0  0  0
  146.6954  142.7724  153.2407 H   0  0  0  0  0  0  0  0  0  0  0  0
  146.5838  140.5029  152.1166 H   0  0  0  0  0  0  0  0  0  0  0  0
  147.5524  138.5678  153.1868 H   0  0  0  0  0  0  0  0  0  0  0  0
  149.5879  143.3895  157.8630 H   0  0  0  0  0  0  0  0  0  0  0  0
  152.2856  143.4543  156.6437 H   0  0  0  0  0  0  0  0  0  0  0  0
  151.3494  144.8595  157.1199 H   0  0  0  0  0  0  0  0  0  0  0  0
  153.2081  144.3966  158.7030 H   0  0  0  0  0  0  0  0  0  0  0  0
  151.7381  141.7858  159.2857 H   0  0  0  0  0  0  0  0  0  0  0  0
  153.3154  141.9200  158.5494 H   0  0  0  0  0  0  0  0  0  0  0  0
  153.4979  141.3853  160.9682 H   0  0  0  0  0  0  0  0  0  0  0  0
  154.2629  142.9101  160.5911 H   0  0  0  0  0  0  0  0  0  0  0  0
  151.4919  142.5411  161.8302 H   0  0  0  0  0  0  0  0  0  0  0  0
  152.9131  143.1476  162.6469 H   0  0  0  0  0  0  0  0  0  0  0  0
  151.3891  145.0065  161.9496 H   0  0  0  0  0  0  0  0  0  0  0  0
  152.9591  145.1478  161.1964 H   0  0  0  0  0  0  0  0  0  0  0  0
  151.1892  145.5542  159.5256 H   0  0  0  0  0  0  0  0  0  0  0  0
  150.4287  144.0269  159.8979 H   0  0  0  0  0  0  0  0  0  0  0  0
  1  2  2  0  0  0  0
  2  3  1  0  0  0  0
  2 11  1  0  0  0  0
  3  4  1  0  0  0  0
  3 19  1  0  0  0  0
  3 20  1  0  0  0  0
  4  9  1  0  0  0  0
  4  5  1  0  0  0  0
  5  6  2  0  0  0  0
  5 21  1  0  0  0  0
  6  7  1  0  0  0  0
  6 22  1  0  0  0  0
  7  8  2  0  0  0  0
  7 23  1  0  0  0  0
  8  9  1  0  0  0  0
  8 24  1  0  0  0  0
  9 10  2  0  0  0  0
 11 12  1  0  0  0  0
 11 25  1  0  0  0  0
 12 13  1  0  0  0  0
 12 26  1  0  0  0  0
 12 27  1  0  0  0  0
 13 18  1  0  0  0  0
 13 14  1  0  0  0  0
 13 28  1  0  0  0  0
 14 15  1  0  0  0  0
 14 29  1  0  0  0  0
 14 30  1  0  0  0  0
 15 16  1  0  0  0  0
 15 31  1  0  0  0  0
 15 32  1  0  0  0  0
 16 17  1  0  0  0  0
 16 33  1  0  0  0  0
 16 34  1  0  0  0  0
 17 18  1  0  0  0  0
 17 35  1  0  0  0  0
 17 36  1  0  0  0  0
 18 37  1  0  0  0  0
 18 38  1  0  0  0  0
M  END
> <s_m_source_file>
AV-unprocessed.smi

> <i_m_source_file_index>
402

> <i_lp_mmshare_version>
43012

> <i_f3d_flags>
0

> <s_epik_input>
W0NIMl0xW0NIMl1bQ0gyXVtDSDJdW0NIMl1bQ0hdMVtDSDJdW05IXUMoPU8pW0NIMl1uMltjSF1bY0hdW2NIXVtjSF1jMj1P

> <s_epik_cmdline>
J2VwaWtfcHl0aG9uJywgJy1waCcsICc3LjAnLCAnLXRuJywgJzgnLCAnLW1hJywgJzIwMCcsICctbWV0YWxfYmluZGluZycsICctaW1hZScsICc8aW5maWxlLm1hZT4nLCAnLW9tYWUnLCAnPG91dGZpbGUubWFlPic=

> <r_lp_tautomer_probability>
1

> <r_epik_Ionization_Penalty>
3.79717e-07

> <r_epik_Ionization_Penalty_Charging>
3.5992e-07

> <r_epik_Ionization_Penalty_Neutral>
1.97978e-08

> <r_epik_State_Penalty>
-0

> <r_epik_Charging_Adjusted_Penalty>
3.5992e-07

> <i_epik_Tot_Q>
0

> <i_epik_Tot_abs_Q>
0

> <r_epik_Metal_State_Penalty>
-0

> <b_epik_Metal_Only>
0

> <s_lp_Force_Field>
OPLS_2005

> <r_lp_Energy>
19.8269

> <b_lp_Chiralities_Consistent>
1

> <s_lp_Variant>
AV-unprocessed.smi:402-1

> <Gold.Version>
5.8.1

> <Gold.Id.Protein>
6NUR|6NUR_protein|mol2

> <Gold.PLP.Fitness>
43.9220

> <Gold.PLP.PLP>
-41.4589

> <Gold.PLP.part.hbond>
-1.0000

> <Gold.PLP.part.metal>
0.0000

> <Gold.PLP.part.buried>
-3.2831

> <Gold.PLP.part.nonpolar>
-36.8919

> <Gold.PLP.part.repulsive>
0.1084

> <Gold.PLP.ligand.clash>
0.0000

> <Gold.PLP.ligand.torsion>
0.2754

> <Gold.PLP.Chemscore.Hbond>
0.0000

> <Gold.PLP.Chemscore.CHOScore>
1.0000

> <Gold.PLP.Chemscore.Metal>
0.0000

> <Gold.Chemscore.Hbonds>
donor molecule, donor type, donor heavy atom, donor atom, acceptor molecule, acceptor atom, score
      L1  C     5    21       P1  8028  1.00

> <Gold.PLP.Chemscore.Internal.Correction>
0.0138

> <Gold.Rescore>
     Score         DG    S(hbond)    S(metal)    S(lipo)     H(rot)  DE(clash)    DE(int)     intcor
     14.54     -15.29       0.01        0.00     117.83       1.57       0.56       0.18       ----

> <Gold.Chemscore.Fitness>
14.5443

> <Gold.Chemscore.DG>
-15.2886

> <Gold.Chemscore.ZeroCoef>
-5.4800

> <Gold.Chemscore.Hbond>
0.0135

> <Gold.Chemscore.Metal>
0.0000

> <Gold.Chemscore.Lipo>
117.8334

> <Gold.Chemscore.Internal_Hbond>
0.0000

> <Gold.Chemscore.DEClash>
0.5597

> <Gold.Chemscore.DEInternal>
0.1847

> <Gold.Chemscore.Rot>
1.5715

> <Gold.Chemscore.Internal.Correction>
   9.000000E+99

> <Gold.Chemscore.Hbond.Weighted>
-0.0452

> <Gold.Chemscore.Metal.Weighted>
-0.0000

> <Gold.Chemscore.Lipo.Weighted>
-13.7865

> <Gold.Chemscore.Internal_Hbond.Weighted>
0.0000

> <Gold.Chemscore.DEClash.Weighted>
0.5597

> <Gold.Chemscore.DEInternal.Weighted>
0.1847

> <Gold.Chemscore.Rot.Weighted>
4.0231

> <Gold.Chemscore.Internal.Correction.Weighted>
   9.000000E+99

> <Gold.Protein.RotatedTorsions>
[ 6907 6896 6895 6894 ] final  100.25 input  -60.11 | X-H torsion
[ 7974 7965 7964 7962 ] final   42.39 input  175.53 | X-H torsion
[ 8008 7997 7996 7995 ] final -176.04 input   59.86 | X-H torsion
[ 10167 10162 10161 10158 ] final  -72.48 input  -65.29 | X-H torsion
[ 10718 10713 10712 10709 ] final   88.01 input   66.30 | X-H torsion
[ 10763 10752 10751 10750 ] final   20.88 input  -60.55 | X-H torsion
[ 11005 11000 10999 10996 ] final -168.83 input  -57.11 | X-H torsion

> <Gold.Protein.ActiveResidues>
 VAL166  LYS551  ARG553  GLY616  TRP617  ASP618  TYR619  PRO620  LYS621  CYS622 
 ASP623  PHE694  ASN695  SER759  ASP760  ASP761  ALA762  ILE779  LEU786  VAL792 
 PHE793  MET794  SER795  GLU796  ALA797  LYS798  CYS799  TRP800  GLU811  SER814 

> <Gold.Protein.RotatedAtoms>
  152.5376  134.0305  159.8022 H   0  0  0  0  0  0  0  0  0  0  0  0  # atno 6907 bound_to 6896
  151.0477  133.5643  159.2652 H   0  0  0  0  0  0  0  0  0  0  0  0  # atno 6908 bound_to 6896
  151.2589  135.0655  159.9144 H   0  0  0  0  0  0  0  0  0  0  0  0  # atno 6909 bound_to 6896
  146.0744  139.5306  142.9577 H   0  0  0  0  0  0  0  0  0  0  0  0  # atno 7974 bound_to 7965
  155.9900  140.1199  157.0647 H   0  0  0  0  0  0  0  0  0  0  0  0  # atno 8008 bound_to 7997
  154.4208  140.1127  156.5621 H   0  0  0  0  0  0  0  0  0  0  0  0  # atno 8009 bound_to 7997
  155.6355  140.3473  155.4699 H   0  0  0  0  0  0  0  0  0  0  0  0  # atno 8010 bound_to 7997
  140.5189  143.2334  151.7465 H   0  0  0  0  0  0  0  0  0  0  0  0  # atno 10167 bound_to 10162
  157.6945  131.0278  150.3210 H   0  0  0  0  0  0  0  0  0  0  0  0  # atno 10718 bound_to 10713
  153.1041  135.6680  153.9619 H   0  0  0  0  0  0  0  0  0  0  0  0  # atno 10763 bound_to 10752
  153.9181  135.3017  155.3449 H   0  0  0  0  0  0  0  0  0  0  0  0  # atno 10764 bound_to 10752
  154.7462  135.5056  153.9284 H   0  0  0  0  0  0  0  0  0  0  0  0  # atno 10765 bound_to 10752
  140.5376  134.5555  157.5091 H   0  0  0  0  0  0  0  0  0  0  0  0  # atno 11005 bound_to 11000
  145.6333  141.0299  143.1851 LP  0  0  0  0  0  0  0  0  0  0  0  0  # atno 17320 bound_to 7965
  144.7252  139.7899  143.7367 LP  0  0  0  0  0  0  0  0  0  0  0  0  # atno 17321 bound_to 7965
  139.4917  144.4284  151.9900 LP  0  0  0  0  0  0  0  0  0  0  0  0  # atno 17342 bound_to 10162
  140.3379  144.3238  150.5973 LP  0  0  0  0  0  0  0  0  0  0  0  0  # atno 17343 bound_to 10162
  156.3698  130.3861  149.7185 LP  0  0  0  0  0  0  0  0  0  0  0  0  # atno 17370 bound_to 10713
  156.4603  130.7949  151.2969 LP  0  0  0  0  0  0  0  0  0  0  0  0  # atno 17371 bound_to 10713
  139.9521  134.7599  156.0425 LP  0  0  0  0  0  0  0  0  0  0  0  0  # atno 17394 bound_to 11000
  141.1246  133.6603  156.3302 LP  0  0  0  0  0  0  0  0  0  0  0  0  # atno 17395 bound_to 11000

$$$$
