AV-unprocessed.smi:1360|AV-procd|sdf|5551|dock8
  -GOLD-   22720 5143D 1   1.00000     0.00000
 Structure written by MMmdl.
 36 37  0  0  0  0  0  0  0  0  1 V2000
  152.2800  139.2884  155.3691 C   0  0  0  0  0  0  0  0  0  0  0  0
  151.2235  139.1294  156.4732 C   0  0  2  0  0  0  0  0  0  0  0  0
  149.8391  138.7931  155.8862 C   0  0  0  0  0  0  0  0  0  0  0  0
  149.2101  139.9447  155.2631 N   0  0  0  0  0  0  0  0  0  0  0  0
  148.8967  140.1319  153.9334 C   0  0  0  0  0  0  0  0  0  0  0  0
  148.3108  141.3603  153.8233 C   0  0  0  0  0  0  0  0  0  0  0  0
  148.3104  141.8553  155.1574 C   0  0  0  0  0  0  0  0  0  0  0  0
  148.8503  141.0063  156.0170 N   0  0  0  0  0  0  0  0  0  0  0  0
  151.1475  140.3534  157.2674 N   0  0  0  0  0  0  0  0  0  0  0  0
  152.0703  140.7723  158.1468 C   0  0  0  0  0  0  0  0  0  0  0  0
  153.1170  140.1631  158.3700 O   0  0  0  0  0  0  0  0  0  0  0  0
  151.7610  142.0782  158.8901 C   0  0  2  0  0  0  0  0  0  0  0  0
  151.6251  143.2631  157.9058 C   0  0  0  0  0  0  0  0  0  0  0  0
  151.5803  144.6016  158.6218 C   0  0  0  0  0  0  0  0  0  0  0  0
  151.9502  144.7674  159.9033 C   0  0  0  0  0  0  0  0  0  0  0  0
  152.4603  143.6364  160.7791 C   0  0  0  0  0  0  0  0  0  0  0  0
  152.8282  142.3846  159.9600 C   0  0  0  0  0  0  0  0  0  0  0  0
  152.3686  138.3766  154.7780 H   0  0  0  0  0  0  0  0  0  0  0  0
  153.2630  139.5016  155.7902 H   0  0  0  0  0  0  0  0  0  0  0  0
  152.0243  140.1021  154.6896 H   0  0  0  0  0  0  0  0  0  0  0  0
  151.5267  138.2997  157.1149 H   0  0  0  0  0  0  0  0  0  0  0  0
  149.9134  137.9847  155.1567 H   0  0  0  0  0  0  0  0  0  0  0  0
  149.1748  138.4385  156.6752 H   0  0  0  0  0  0  0  0  0  0  0  0
  149.1123  139.3825  153.1862 H   0  0  0  0  0  0  0  0  0  0  0  0
  147.9380  141.8328  152.9268 H   0  0  0  0  0  0  0  0  0  0  0  0
  147.9365  142.8001  155.5238 H   0  0  0  0  0  0  0  0  0  0  0  0
  150.3155  140.9149  157.1554 H   0  0  0  0  0  0  0  0  0  0  0  0
  150.8060  141.9571  159.4054 H   0  0  0  0  0  0  0  0  0  0  0  0
  152.4538  143.2897  157.1967 H   0  0  0  0  0  0  0  0  0  0  0  0
  150.7112  143.1519  157.3210 H   0  0  0  0  0  0  0  0  0  0  0  0
  151.2416  145.4508  158.0464 H   0  0  0  0  0  0  0  0  0  0  0  0
  151.8818  145.7440  160.3596 H   0  0  0  0  0  0  0  0  0  0  0  0
  153.3285  143.9800  161.3420 H   0  0  0  0  0  0  0  0  0  0  0  0
  151.6843  143.3964  161.5064 H   0  0  0  0  0  0  0  0  0  0  0  0
  152.9605  141.5342  160.6305 H   0  0  0  0  0  0  0  0  0  0  0  0
  153.7927  142.5474  159.4761 H   0  0  0  0  0  0  0  0  0  0  0  0
  1  2  1  0  0  0  0
  1 18  1  0  0  0  0
  1 19  1  0  0  0  0
  1 20  1  0  0  0  0
  2  3  1  0  0  0  0
  2  9  1  0  0  0  0
  2 21  1  0  0  0  0
  3  4  1  0  0  0  0
  3 22  1  0  0  0  0
  3 23  1  0  0  0  0
  4  8  1  0  0  0  0
  4  5  1  0  0  0  0
  5  6  2  0  0  0  0
  5 24  1  0  0  0  0
  6  7  1  0  0  0  0
  6 25  1  0  0  0  0
  7  8  2  0  0  0  0
  7 26  1  0  0  0  0
  9 10  1  0  0  0  0
  9 27  1  0  0  0  0
 10 11  2  0  0  0  0
 10 12  1  0  0  0  0
 12 17  1  0  0  0  0
 12 13  1  0  0  0  0
 12 28  1  0  0  0  0
 13 14  1  0  0  0  0
 13 29  1  0  0  0  0
 13 30  1  0  0  0  0
 14 15  2  0  0  0  0
 14 31  1  0  0  0  0
 15 16  1  0  0  0  0
 15 32  1  0  0  0  0
 16 17  1  0  0  0  0
 16 33  1  0  0  0  0
 16 34  1  0  0  0  0
 17 35  1  0  0  0  0
 17 36  1  0  0  0  0
M  END
> <s_m_source_file>
AV-unprocessed.smi

> <i_m_source_file_index>
1360

> <i_lp_mmshare_version>
43012

> <i_f3d_flags>
0

> <s_epik_input>
bjFbY0hdW2NIXVtjSF1uMVtDSDJdW0NAQEhdKFtDSDNdKVtOSF1DKD1PKVtDQEBIXTJbQ0gyXVtDSF09W0NIXVtDSDJdW0NIMl0y

> <s_epik_cmdline>
J2VwaWtfcHl0aG9uJywgJy1waCcsICc3LjAnLCAnLXRuJywgJzgnLCAnLW1hJywgJzIwMCcsICctbWV0YWxfYmluZGluZycsICctaW1hZScsICc8aW5maWxlLm1hZT4nLCAnLW9tYWUnLCAnPG91dGZpbGUubWFlPic=

> <r_lp_tautomer_probability>
1

> <r_epik_Ionization_Penalty>
0.000315076

> <r_epik_Ionization_Penalty_Charging>
0

> <r_epik_Ionization_Penalty_Neutral>
0.000315076

> <r_epik_State_Penalty>
-0

> <r_epik_Charging_Adjusted_Penalty>
0

> <i_epik_Tot_Q>
0

> <i_epik_Tot_abs_Q>
0

> <r_epik_Metal_State_Penalty>
-0

> <b_epik_Metal_Only>
0

> <s_lp_Force_Field>
OPLS_2005

> <r_lp_Energy>
8.39031

> <b_lp_Chiralities_Consistent>
1

> <s_lp_Variant>
AV-unprocessed.smi:1360-1

> <Gold.Version>
5.8.1

> <Gold.Id.Protein>
6NUR|6NUR_protein|mol2

> <Gold.PLP.Fitness>
43.2197

> <Gold.PLP.PLP>
-35.3904

> <Gold.PLP.part.hbond>
-1.0000

> <Gold.PLP.part.metal>
0.0000

> <Gold.PLP.part.buried>
1.7364

> <Gold.PLP.part.nonpolar>
-34.9383

> <Gold.PLP.part.repulsive>
0.1255

> <Gold.PLP.ligand.clash>
0.0000

> <Gold.PLP.ligand.torsion>
0.3109

> <Gold.PLP.Chemscore.Hbond>
0.9920

> <Gold.PLP.Chemscore.CHOScore>
1.8178

> <Gold.PLP.Chemscore.Metal>
0.0000

> <Gold.Chemscore.Hbonds>
donor molecule, donor type, donor heavy atom, donor atom, acceptor molecule, acceptor atom, score
      P1  H  7997  8009       L1    11  0.99
      L1  C     5    24       P1  7957  0.78
      L1  C     7    26       P1  8028  1.00

> <Gold.PLP.Chemscore.Internal.Correction>
0.0218

> <Gold.Rescore>
     Score         DG    S(hbond)    S(metal)    S(lipo)     H(rot)  DE(clash)    DE(int)     intcor
     16.72     -17.09       0.94        0.00     105.19       1.51       0.15       0.21       ----

> <Gold.Chemscore.Fitness>
16.7243

> <Gold.Chemscore.DG>
-17.0856

> <Gold.Chemscore.ZeroCoef>
-5.4800

> <Gold.Chemscore.Hbond>
0.9441

> <Gold.Chemscore.Metal>
0.0000

> <Gold.Chemscore.Lipo>
105.1871

> <Gold.Chemscore.Internal_Hbond>
0.0000

> <Gold.Chemscore.DEClash>
0.1503

> <Gold.Chemscore.DEInternal>
0.2110

> <Gold.Chemscore.Rot>
1.5057

> <Gold.Chemscore.Internal.Correction>
   9.000000E+99

> <Gold.Chemscore.Hbonds>
donor molecule, donor type, donor heavy atom, donor atom, acceptor molecule, acceptor atom, score
      P1  H  7997  8009       L1    11  0.89

> <Gold.Chemscore.Hbond.Weighted>
-3.1533

> <Gold.Chemscore.Metal.Weighted>
-0.0000

> <Gold.Chemscore.Lipo.Weighted>
-12.3069

> <Gold.Chemscore.Internal_Hbond.Weighted>
0.0000

> <Gold.Chemscore.DEClash.Weighted>
0.1503

> <Gold.Chemscore.DEInternal.Weighted>
0.2110

> <Gold.Chemscore.Rot.Weighted>
3.8546

> <Gold.Chemscore.Internal.Correction.Weighted>
   9.000000E+99

> <Gold.Protein.RotatedTorsions>
[ 6907 6896 6895 6894 ] final    2.19 input  -60.11 | X-H torsion
[ 7974 7965 7964 7962 ] final -137.14 input  175.53 | X-H torsion
[ 8008 7997 7996 7995 ] final  157.14 input   59.86 | X-H torsion
[ 10167 10162 10161 10158 ] final   69.83 input  -65.29 | X-H torsion
[ 10718 10713 10712 10709 ] final  -46.04 input   66.30 | X-H torsion
[ 10763 10752 10751 10750 ] final  179.30 input  -60.55 | X-H torsion
[ 11005 11000 10999 10996 ] final  108.98 input  -57.11 | X-H torsion

> <Gold.Protein.ActiveResidues>
 VAL166  LYS551  ARG553  GLY616  TRP617  ASP618  TYR619  PRO620  LYS621  CYS622 
 ASP623  PHE694  ASN695  SER759  ASP760  ASP761  ALA762  ILE779  LEU786  VAL792 
 PHE793  MET794  SER795  GLU796  ALA797  LYS798  CYS799  TRP800  GLU811  SER814 

> <Gold.Protein.RotatedAtoms>
  151.6048  135.1044  160.0067 H   0  0  0  0  0  0  0  0  0  0  0  0  # atno 6907 bound_to 6896
  152.4239  133.7158  159.6515 H   0  0  0  0  0  0  0  0  0  0  0  0  # atno 6908 bound_to 6896
  150.8127  133.8320  159.3197 H   0  0  0  0  0  0  0  0  0  0  0  0  # atno 6909 bound_to 6896
  144.8867  140.6585  143.5171 H   0  0  0  0  0  0  0  0  0  0  0  0  # atno 7974 bound_to 7965
  156.2381  140.1893  156.7064 H   0  0  0  0  0  0  0  0  0  0  0  0  # atno 8008 bound_to 7997
  154.6145  140.0617  156.9563 H   0  0  0  0  0  0  0  0  0  0  0  0  # atno 8009 bound_to 7997
  155.1962  140.3288  155.4353 H   0  0  0  0  0  0  0  0  0  0  0  0  # atno 8010 bound_to 7997
  140.0635  144.5213  150.7277 H   0  0  0  0  0  0  0  0  0  0  0  0  # atno 10167 bound_to 10162
  156.2222  130.4167  149.8978 H   0  0  0  0  0  0  0  0  0  0  0  0  # atno 10718 bound_to 10713
  154.5189  135.2793  155.1279 H   0  0  0  0  0  0  0  0  0  0  0  0  # atno 10763 bound_to 10752
  154.2845  135.6279  153.5364 H   0  0  0  0  0  0  0  0  0  0  0  0  # atno 10764 bound_to 10752
  152.9933  135.5659  154.5673 H   0  0  0  0  0  0  0  0  0  0  0  0  # atno 10765 bound_to 10752
  139.8853  134.9446  156.6056 H   0  0  0  0  0  0  0  0  0  0  0  0  # atno 11005 bound_to 11000
  145.3856  139.1627  143.4257 LP  0  0  0  0  0  0  0  0  0  0  0  0  # atno 17320 bound_to 7965
  146.3029  140.3940  142.8697 LP  0  0  0  0  0  0  0  0  0  0  0  0  # atno 17321 bound_to 7965
  140.7160  143.2545  151.4432 LP  0  0  0  0  0  0  0  0  0  0  0  0  # atno 17342 bound_to 10162
  139.5879  144.1563  152.2052 LP  0  0  0  0  0  0  0  0  0  0  0  0  # atno 17343 bound_to 10162
  156.6620  130.8786  151.3549 LP  0  0  0  0  0  0  0  0  0  0  0  0  # atno 17370 bound_to 10713
  157.7093  130.9422  150.1036 LP  0  0  0  0  0  0  0  0  0  0  0  0  # atno 17371 bound_to 10713
  140.7851  133.8628  155.8599 LP  0  0  0  0  0  0  0  0  0  0  0  0  # atno 17394 bound_to 11000
  140.9727  134.1510  157.4563 LP  0  0  0  0  0  0  0  0  0  0  0  0  # atno 17395 bound_to 11000

$$$$
