AV-unprocessed.smi:3002|AV-procd|sdf|11435|dock9
  -GOLD-   2272016363D 1   1.00000     0.00000
 Structure written by MMmdl.
 34 35  0  0  0  0  0  0  0  0  1 V2000
  148.3308  139.0044  154.0680 C   0  0  0  0  0  0  0  0  0  0  0  0
  149.3624  139.3655  155.1565 C   0  0  2  0  0  0  0  0  0  0  0  0
  149.6126  140.8775  155.2663 C   0  0  0  0  0  0  0  0  0  0  0  0
  149.7972  141.5610  154.2586 O   0  0  0  0  0  0  0  0  0  0  0  0
  149.6465  141.3804  156.5110 N   0  0  0  0  0  0  0  0  0  0  0  0
  149.9982  142.7522  156.8618 C   0  0  0  0  0  0  0  0  0  0  0  0
  151.2649  142.8061  157.7386 C   0  0  1  0  0  0  0  0  0  0  0  0
  151.6522  144.2284  158.1997 C   0  0  0  0  0  0  0  0  0  0  0  0
  152.7322  144.1193  159.2800 C   0  0  0  0  0  0  0  0  0  0  0  0
  152.3624  142.5785  160.1972 S   0  0  0  0  0  0  0  0  0  0  0  0
  153.5583  141.7223  160.1953 O   0  0  0  0  0  0  0  0  0  0  0  0
  151.6680  142.9068  161.4512 O   0  0  0  0  0  0  0  0  0  0  0  0
  151.1421  141.9282  158.9936 C   0  0  0  0  0  0  0  0  0  0  0  0
  150.6295  138.6687  154.9666 N   0  0  0  0  0  0  0  0  0  0  0  0
  150.8699  137.3817  154.7057 C   0  0  0  0  0  0  0  0  0  0  0  0
  152.1580  137.0729  154.6562 N   0  0  0  0  0  0  0  0  0  0  0  0
  152.6968  138.2996  154.9224 C   0  0  0  0  0  0  0  0  0  0  0  0
  151.8261  139.2876  155.1274 N   0  0  0  0  0  0  0  0  0  0  0  0
  147.3731  139.4903  154.2572 H   0  0  0  0  0  0  0  0  0  0  0  0
  148.1509  137.9292  154.0457 H   0  0  0  0  0  0  0  0  0  0  0  0
  148.6620  139.3035  153.0727 H   0  0  0  0  0  0  0  0  0  0  0  0
  148.9535  139.0342  156.1127 H   0  0  0  0  0  0  0  0  0  0  0  0
  149.4740  140.7480  157.2791 H   0  0  0  0  0  0  0  0  0  0  0  0
  150.1236  143.3674  155.9690 H   0  0  0  0  0  0  0  0  0  0  0  0
  149.1575  143.1797  157.4088 H   0  0  0  0  0  0  0  0  0  0  0  0
  152.1022  142.4190  157.1554 H   0  0  0  0  0  0  0  0  0  0  0  0
  151.9937  144.8496  157.3711 H   0  0  0  0  0  0  0  0  0  0  0  0
  150.7746  144.7183  158.6242 H   0  0  0  0  0  0  0  0  0  0  0  0
  153.7198  144.0157  158.8299 H   0  0  0  0  0  0  0  0  0  0  0  0
  152.7449  144.9717  159.9597 H   0  0  0  0  0  0  0  0  0  0  0  0
  150.1530  142.0216  159.4428 H   0  0  0  0  0  0  0  0  0  0  0  0
  151.3346  140.8736  158.7962 H   0  0  0  0  0  0  0  0  0  0  0  0
  150.0862  136.6533  154.5578 H   0  0  0  0  0  0  0  0  0  0  0  0
  153.7624  138.4678  154.9744 H   0  0  0  0  0  0  0  0  0  0  0  0
  1  2  1  0  0  0  0
  1 19  1  0  0  0  0
  1 20  1  0  0  0  0
  1 21  1  0  0  0  0
  2  3  1  0  0  0  0
  2 14  1  0  0  0  0
  2 22  1  0  0  0  0
  3  4  2  0  0  0  0
  3  5  1  0  0  0  0
  5  6  1  0  0  0  0
  5 23  1  0  0  0  0
  6  7  1  0  0  0  0
  6 24  1  0  0  0  0
  6 25  1  0  0  0  0
  7 13  1  0  0  0  0
  7  8  1  0  0  0  0
  7 26  1  0  0  0  0
  8  9  1  0  0  0  0
  8 27  1  0  0  0  0
  8 28  1  0  0  0  0
  9 10  1  0  0  0  0
  9 29  1  0  0  0  0
  9 30  1  0  0  0  0
 10 11  2  0  0  0  0
 10 12  2  0  0  0  0
 10 13  1  0  0  0  0
 13 31  1  0  0  0  0
 13 32  1  0  0  0  0
 14 18  1  0  0  0  0
 14 15  1  0  0  0  0
 15 16  2  0  0  0  0
 15 33  1  0  0  0  0
 16 17  1  0  0  0  0
 17 18  2  0  0  0  0
 17 34  1  0  0  0  0
M  END
> <s_m_source_file>
AV-unprocessed.smi

> <i_m_source_file_index>
3002

> <i_lp_mmshare_version>
43012

> <i_f3d_flags>
0

> <s_epik_input>
bjFbY0hdbltjSF1uMVtDQEhdKFtDSDNdKUMoPU8pW05IXVtDSDJdW0NAQEhdKFtDSDJdMilbQ0gyXVtDSDJdUzIoPU8pPU8=

> <s_epik_cmdline>
J2VwaWtfcHl0aG9uJywgJy1waCcsICc3LjAnLCAnLXRuJywgJzgnLCAnLW1hJywgJzIwMCcsICctbWV0YWxfYmluZGluZycsICctaW1hZScsICc8aW5maWxlLm1hZT4nLCAnLW9tYWUnLCAnPG91dGZpbGUubWFlPic=

> <r_lp_tautomer_probability>
1

> <r_epik_Ionization_Penalty>
1.1748e-05

> <r_epik_Ionization_Penalty_Charging>
0

> <r_epik_Ionization_Penalty_Neutral>
1.1748e-05

> <r_epik_State_Penalty>
-0

> <r_epik_Charging_Adjusted_Penalty>
0

> <i_epik_Tot_Q>
0

> <i_epik_Tot_abs_Q>
0

> <r_epik_Metal_State_Penalty>
-0

> <b_epik_Metal_Only>
0

> <s_lp_Force_Field>
OPLS_2005

> <r_lp_Energy>
9.21474

> <b_lp_Chiralities_Consistent>
1

> <s_lp_Variant>
AV-unprocessed.smi:3002-3

> <Gold.Version>
5.8.1

> <Gold.Id.Protein>
6NUR|6NUR_protein|mol2

> <Gold.PLP.Fitness>
43.2575

> <Gold.PLP.PLP>
-34.3042

> <Gold.PLP.part.hbond>
-5.0000

> <Gold.PLP.part.metal>
0.0000

> <Gold.PLP.part.buried>
0.2441

> <Gold.PLP.part.nonpolar>
-31.1657

> <Gold.PLP.part.repulsive>
0.5425

> <Gold.PLP.ligand.clash>
0.0000

> <Gold.PLP.ligand.torsion>
0.7534

> <Gold.PLP.Chemscore.Hbond>
2.7824

> <Gold.PLP.Chemscore.CHOScore>
0.6671

> <Gold.PLP.Chemscore.Metal>
0.0000

> <Gold.Chemscore.Hbonds>
donor molecule, donor type, donor heavy atom, donor atom, acceptor molecule, acceptor atom, score
      P1  H  6933  6945       L1    12  0.41
      P1  H  7989  7998       L1    18  0.41
      P1  H  8011  8017       L1     4  0.45
      P1  H 10752 10765       L1    16  0.90
      L1  C    15    33       P1  7948  0.02

> <Gold.PLP.Chemscore.Internal.Correction>
0.1116

> <Gold.Rescore>
     Score         DG    S(hbond)    S(metal)    S(lipo)     H(rot)  DE(clash)    DE(int)     intcor
     12.80     -15.39       2.78        0.00      57.60       2.39       1.89       0.70       ----

> <Gold.Chemscore.Fitness>
12.8005

> <Gold.Chemscore.DG>
-15.3894

> <Gold.Chemscore.ZeroCoef>
-5.4800

> <Gold.Chemscore.Hbond>
2.7847

> <Gold.Chemscore.Metal>
0.0000

> <Gold.Chemscore.Lipo>
57.5964

> <Gold.Chemscore.Internal_Hbond>
0.0000

> <Gold.Chemscore.DEClash>
1.8878

> <Gold.Chemscore.DEInternal>
0.7011

> <Gold.Chemscore.Rot>
2.3946

> <Gold.Chemscore.Internal.Correction>
   9.000000E+99

> <Gold.Chemscore.Hbonds>
donor molecule, donor type, donor heavy atom, donor atom, acceptor molecule, acceptor atom, score
      P1  H  6933  6945       L1    12  0.40
      P1  H  7989  7998       L1     4  0.13
      P1  H  8011  8017       L1     4  0.43
      P1  H 10752 10765       L1    16  0.88

> <Gold.Chemscore.Hbond.Weighted>
-9.3007

> <Gold.Chemscore.Metal.Weighted>
-0.0000

> <Gold.Chemscore.Lipo.Weighted>
-6.7388

> <Gold.Chemscore.Internal_Hbond.Weighted>
0.0000

> <Gold.Chemscore.DEClash.Weighted>
1.8878

> <Gold.Chemscore.DEInternal.Weighted>
0.7011

> <Gold.Chemscore.Rot.Weighted>
6.1301

> <Gold.Chemscore.Internal.Correction.Weighted>
   9.000000E+99

> <Gold.Protein.RotatedTorsions>
[ 6907 6896 6895 6894 ] final -104.24 input  -60.11 | X-H torsion
[ 7974 7965 7964 7962 ] final   80.67 input  175.53 | X-H torsion
[ 8008 7997 7996 7995 ] final   81.55 input   59.86 | X-H torsion
[ 10167 10162 10161 10158 ] final  -17.93 input  -65.29 | X-H torsion
[ 10718 10713 10712 10709 ] final  102.92 input   66.30 | X-H torsion
[ 10763 10752 10751 10750 ] final  166.32 input  -60.55 | X-H torsion
[ 11005 11000 10999 10996 ] final  -82.73 input  -57.11 | X-H torsion

> <Gold.Protein.ActiveResidues>
 VAL166  LYS551  ARG553  GLY616  TRP617  ASP618  TYR619  PRO620  LYS621  CYS622 
 ASP623  PHE694  ASN695  SER759  ASP760  ASP761  ALA762  ILE779  LEU786  VAL792 
 PHE793  MET794  SER795  GLU796  ALA797  LYS798  CYS799  TRP800  GLU811  SER814 

> <Gold.Protein.RotatedAtoms>
  150.7277  134.0308  159.3732 H   0  0  0  0  0  0  0  0  0  0  0  0  # atno 6907 bound_to 6896
  151.8277  135.0629  160.0442 H   0  0  0  0  0  0  0  0  0  0  0  0  # atno 6908 bound_to 6896
  152.2956  133.5568  159.5622 H   0  0  0  0  0  0  0  0  0  0  0  0  # atno 6909 bound_to 6896
  145.6482  139.2441  143.1992 H   0  0  0  0  0  0  0  0  0  0  0  0  # atno 7974 bound_to 7965
  155.8986  140.3434  155.6009 H   0  0  0  0  0  0  0  0  0  0  0  0  # atno 8008 bound_to 7997
  155.7527  140.0822  157.2212 H   0  0  0  0  0  0  0  0  0  0  0  0  # atno 8009 bound_to 7997
  154.4041  140.1550  156.2729 H   0  0  0  0  0  0  0  0  0  0  0  0  # atno 8010 bound_to 7997
  140.7253  143.4967  150.9922 H   0  0  0  0  0  0  0  0  0  0  0  0  # atno 10167 bound_to 10162
  157.6788  131.0765  150.5476 H   0  0  0  0  0  0  0  0  0  0  0  0  # atno 10718 bound_to 10713
  154.3372  135.2754  155.2441 H   0  0  0  0  0  0  0  0  0  0  0  0  # atno 10763 bound_to 10752
  154.4728  135.5878  153.6337 H   0  0  0  0  0  0  0  0  0  0  0  0  # atno 10764 bound_to 10752
  152.9861  135.6092  154.3569 H   0  0  0  0  0  0  0  0  0  0  0  0  # atno 10765 bound_to 10752
  141.1661  133.7259  156.8615 H   0  0  0  0  0  0  0  0  0  0  0  0  # atno 11005 bound_to 11000
  146.1225  140.7290  142.9450 LP  0  0  0  0  0  0  0  0  0  0  0  0  # atno 17320 bound_to 7965
  144.7132  140.4116  143.7064 LP  0  0  0  0  0  0  0  0  0  0  0  0  # atno 17321 bound_to 7965
  139.8674  143.7236  152.3169 LP  0  0  0  0  0  0  0  0  0  0  0  0  # atno 17342 bound_to 10162
  139.7473  144.7544  151.0560 LP  0  0  0  0  0  0  0  0  0  0  0  0  # atno 17343 bound_to 10162
  156.5782  130.4297  149.5989 LP  0  0  0  0  0  0  0  0  0  0  0  0  # atno 17370 bound_to 10713
  156.2684  130.7002  151.1792 LP  0  0  0  0  0  0  0  0  0  0  0  0  # atno 17371 bound_to 10713
  140.1845  134.9009  157.2988 LP  0  0  0  0  0  0  0  0  0  0  0  0  # atno 17394 bound_to 11000
  140.2358  134.3854  155.7502 LP  0  0  0  0  0  0  0  0  0  0  0  0  # atno 17395 bound_to 11000

$$$$
