AV-unprocessed.smi:235|AV-procd|sdf|1808|dock7
  -GOLD-   2262020393D 1   1.00000     0.00000
 Structure written by MMmdl.
 54 58  0  0  0  0  0  0  0  0  1 V2000
  145.1231  128.9000  152.2358 O   0  0  0  0  0  0  0  0  0  0  0  0
  146.0187  129.4839  151.6241 C   0  0  0  0  0  0  0  0  0  0  0  0
  147.1414  128.8825  151.2053 N   0  0  0  0  0  0  0  0  0  0  0  0
  147.4675  127.5072  151.4005 C   0  0  0  0  0  0  0  0  0  0  0  0
  148.7376  127.1850  152.1572 C   0  0  0  0  0  0  0  0  0  0  0  0
  148.6771  126.9648  150.6709 C   0  0  0  0  0  0  0  0  0  0  0  0
  145.8867  130.9783  151.2877 C   0  0  1  0  0  0  0  0  0  0  0  0
  144.5263  131.2890  150.6423 C   0  0  0  0  0  0  0  0  0  0  0  0
  144.2685  132.7438  151.0199 C   0  0  0  0  0  0  0  0  0  0  0  0
  144.8739  132.8564  152.4179 C   0  0  0  0  0  0  0  0  0  0  0  0
  145.9048  131.8280  152.4821 N   0  0  0  0  0  0  0  0  0  0  0  0
  147.0326  132.0475  153.2107 C   0  0  0  0  0  0  0  0  0  0  0  0
  147.9322  131.0396  153.3674 N   0  0  0  0  0  0  0  0  0  0  0  0
  149.0465  131.2273  154.0798 C   0  0  0  0  0  0  0  0  0  0  0  0
  149.4537  132.3259  154.7169 N   0  0  0  0  0  0  0  0  0  0  0  0
  148.5538  133.3399  154.5729 C   0  0  0  0  0  0  0  0  0  0  0  0
  147.3313  133.2897  153.8433 C   0  0  0  0  0  0  0  0  0  0  0  0
  146.6812  134.5161  153.9360 N   0  0  0  0  0  0  0  0  0  0  0  0
  147.4742  135.2473  154.6705 C   0  0  0  0  0  0  0  0  0  0  0  0
  148.6208  134.6178  155.0968 N   0  0  0  0  0  0  0  0  0  0  0  0
  149.6705  135.1841  155.9246 C   0  0  0  0  0  0  0  0  0  0  0  0
  149.4569  136.6852  156.1988 C   0  0  1  0  0  0  0  0  0  0  0  0
  149.6897  136.9825  157.5628 O   0  0  0  0  0  0  0  0  0  0  0  0
  150.3278  137.5854  155.2994 C   0  0  1  0  0  0  0  0  0  0  0  0
  150.0892  139.1007  155.4185 C   0  0  0  0  0  0  0  0  0  0  0  0
  151.4811  139.6735  155.6329 C   0  0  0  0  0  0  0  0  0  0  0  0
  152.3976  138.5560  155.1492 C   0  0  0  0  0  0  0  0  0  0  0  0
  151.7129  137.3848  155.5597 O   0  0  0  0  0  0  0  0  0  0  0  0
  147.8198  129.4439  150.7117 H   0  0  0  0  0  0  0  0  0  0  0  0
  146.6406  126.8110  151.5349 H   0  0  0  0  0  0  0  0  0  0  0  0
  149.3393  128.0172  152.5186 H   0  0  0  0  0  0  0  0  0  0  0  0
  148.7305  126.3044  152.7962 H   0  0  0  0  0  0  0  0  0  0  0  0
  148.6288  125.9371  150.3165 H   0  0  0  0  0  0  0  0  0  0  0  0
  149.2414  127.6488  150.0395 H   0  0  0  0  0  0  0  0  0  0  0  0
  146.6844  131.2921  150.6113 H   0  0  0  0  0  0  0  0  0  0  0  0
  144.5309  131.1355  149.5628 H   0  0  0  0  0  0  0  0  0  0  0  0
  143.7372  130.6630  151.0636 H   0  0  0  0  0  0  0  0  0  0  0  0
  144.8032  133.4002  150.3320 H   0  0  0  0  0  0  0  0  0  0  0  0
  143.2123  133.0125  150.9913 H   0  0  0  0  0  0  0  0  0  0  0  0
  145.2658  133.8598  152.5911 H   0  0  0  0  0  0  0  0  0  0  0  0
  144.1222  132.6463  153.1798 H   0  0  0  0  0  0  0  0  0  0  0  0
  149.7049  130.3740  154.1500 H   0  0  0  0  0  0  0  0  0  0  0  0
  147.2429  136.2718  154.9235 H   0  0  0  0  0  0  0  0  0  0  0  0
  149.7156  134.6235  156.8591 H   0  0  0  0  0  0  0  0  0  0  0  0
  150.6245  135.0258  155.4201 H   0  0  0  0  0  0  0  0  0  0  0  0
  148.4115  136.9267  156.0015 H   0  0  0  0  0  0  0  0  0  0  0  0
  149.3824  137.8601  157.7316 H   0  0  0  0  0  0  0  0  0  0  0  0
  150.1625  137.2988  154.2593 H   0  0  0  0  0  0  0  0  0  0  0  0
  149.6507  139.4837  154.4963 H   0  0  0  0  0  0  0  0  0  0  0  0
  149.4207  139.3741  156.2354 H   0  0  0  0  0  0  0  0  0  0  0  0
  151.6431  140.6136  155.1050 H   0  0  0  0  0  0  0  0  0  0  0  0
  151.6470  139.8492  156.6967 H   0  0  0  0  0  0  0  0  0  0  0  0
  152.4875  138.5660  154.0617 H   0  0  0  0  0  0  0  0  0  0  0  0
  153.3974  138.6122  155.5803 H   0  0  0  0  0  0  0  0  0  0  0  0
  1  2  2  0  0  0  0
  2  3  1  0  0  0  0
  2  7  1  0  0  0  0
  3  4  1  0  0  0  0
  3 29  1  0  0  0  0
  4  6  1  0  0  0  0
  4  5  1  0  0  0  0
  4 30  1  0  0  0  0
  5  6  1  0  0  0  0
  5 31  1  0  0  0  0
  5 32  1  0  0  0  0
  6 33  1  0  0  0  0
  6 34  1  0  0  0  0
  7 11  1  0  0  0  0
  7  8  1  0  0  0  0
  7 35  1  0  0  0  0
  8  9  1  0  0  0  0
  8 36  1  0  0  0  0
  8 37  1  0  0  0  0
  9 10  1  0  0  0  0
  9 38  1  0  0  0  0
  9 39  1  0  0  0  0
 10 11  1  0  0  0  0
 10 40  1  0  0  0  0
 10 41  1  0  0  0  0
 11 12  1  0  0  0  0
 12 17  1  0  0  0  0
 12 13  2  0  0  0  0
 13 14  1  0  0  0  0
 14 15  2  0  0  0  0
 14 42  1  0  0  0  0
 15 16  1  0  0  0  0
 16 20  1  0  0  0  0
 16 17  2  0  0  0  0
 17 18  1  0  0  0  0
 18 19  2  0  0  0  0
 19 20  1  0  0  0  0
 19 43  1  0  0  0  0
 20 21  1  0  0  0  0
 21 22  1  0  0  0  0
 21 44  1  0  0  0  0
 21 45  1  0  0  0  0
 22 23  1  0  0  0  0
 22 24  1  0  0  0  0
 22 46  1  0  0  0  0
 23 47  1  0  0  0  0
 24 28  1  0  0  0  0
 24 25  1  0  0  0  0
 24 48  1  0  0  0  0
 25 26  1  0  0  0  0
 25 49  1  0  0  0  0
 25 50  1  0  0  0  0
 26 27  1  0  0  0  0
 26 51  1  0  0  0  0
 26 52  1  0  0  0  0
 27 28  1  0  0  0  0
 27 53  1  0  0  0  0
 27 54  1  0  0  0  0
M  END
> <s_m_source_file>
AV-unprocessed.smi

> <i_m_source_file_index>
235

> <i_lp_mmshare_version>
43012

> <i_f3d_flags>
0

> <s_epik_input>
W0NIMl0xW0NIMl1bQ0hdMVtOSF1DKD1PKVtDQEBIXTJbQ0gyXVtDSDJdW0NIMl1OMmMobltjSF1uMyljKGMzNCluW2NIXW40W0NIMl1bQ0BIXShbT0hdKVtDQEBIXTVbQ0gyXVtDSDJdW0NIMl1PNQ==

> <s_epik_cmdline>
J2VwaWtfcHl0aG9uJywgJy1waCcsICc3LjAnLCAnLXRuJywgJzgnLCAnLW1hJywgJzIwMCcsICctbWV0YWxfYmluZGluZycsICctaW1hZScsICc8aW5maWxlLm1hZT4nLCAnLW9tYWUnLCAnPG91dGZpbGUubWFlPic=

> <r_lp_tautomer_probability>
1

> <r_epik_Ionization_Penalty>
0.000526714

> <r_epik_Ionization_Penalty_Charging>
0

> <r_epik_Ionization_Penalty_Neutral>
0.000526714

> <r_epik_State_Penalty>
0.000272704

> <r_epik_Charging_Adjusted_Penalty>
0.000272704

> <i_epik_Tot_Q>
0

> <i_epik_Tot_abs_Q>
0

> <r_epik_Metal_State_Penalty>
-0

> <b_epik_Metal_Only>
0

> <s_lp_Force_Field>
OPLS_2005

> <r_lp_Energy>
60.2581

> <b_lp_Chiralities_Consistent>
1

> <s_lp_Variant>
AV-unprocessed.smi:235-8

> <Gold.Version>
5.8.1

> <Gold.Id.Protein>
6NUR|6NUR_protein|mol2

> <Gold.PLP.Fitness>
53.8223

> <Gold.PLP.PLP>
-50.3604

> <Gold.PLP.part.hbond>
-2.0000

> <Gold.PLP.part.metal>
0.0000

> <Gold.PLP.part.buried>
-5.4572

> <Gold.PLP.part.nonpolar>
-43.9236

> <Gold.PLP.part.repulsive>
1.0794

> <Gold.PLP.ligand.clash>
0.0000

> <Gold.PLP.ligand.torsion>
1.0979

> <Gold.PLP.Chemscore.Hbond>
1.7520

> <Gold.PLP.Chemscore.CHOScore>
0.0000

> <Gold.PLP.Chemscore.Metal>
0.0000

> <Gold.Chemscore.Hbonds>
donor molecule, donor type, donor heavy atom, donor atom, acceptor molecule, acceptor atom, score
      L1  H     3    29       P1 10747  1.00
      P1  H 10752 10765       L1    28  0.19

> <Gold.PLP.Chemscore.Internal.Correction>
0.4017

> <Gold.Rescore>
     Score         DG    S(hbond)    S(metal)    S(lipo)     H(rot)  DE(clash)    DE(int)     intcor
      9.82     -15.61       1.60        0.00      99.51       2.68       2.64       3.15       ----

> <Gold.Chemscore.Fitness>
9.8246

> <Gold.Chemscore.DG>
-15.6069

> <Gold.Chemscore.ZeroCoef>
-5.4800

> <Gold.Chemscore.Hbond>
1.5973

> <Gold.Chemscore.Metal>
0.0000

> <Gold.Chemscore.Lipo>
99.5094

> <Gold.Chemscore.Internal_Hbond>
0.0000

> <Gold.Chemscore.DEClash>
2.6368

> <Gold.Chemscore.DEInternal>
3.1455

> <Gold.Chemscore.Rot>
2.6760

> <Gold.Chemscore.Internal.Correction>
   9.000000E+99

> <Gold.Chemscore.Hbonds>
donor molecule, donor type, donor heavy atom, donor atom, acceptor molecule, acceptor atom, score
      L1  H     3    29       P1 10747  0.78
      P1  H 10752 10765       L1    28  0.09

> <Gold.Chemscore.Hbond.Weighted>
-5.3350

> <Gold.Chemscore.Metal.Weighted>
-0.0000

> <Gold.Chemscore.Lipo.Weighted>
-11.6426

> <Gold.Chemscore.Internal_Hbond.Weighted>
0.0000

> <Gold.Chemscore.DEClash.Weighted>
2.6368

> <Gold.Chemscore.DEInternal.Weighted>
3.1455

> <Gold.Chemscore.Rot.Weighted>
6.8506

> <Gold.Chemscore.Internal.Correction.Weighted>
   9.000000E+99

> <Gold.Protein.RotatedTorsions>
[ 6907 6896 6895 6894 ] final -108.48 input  -60.11 | X-H torsion
[ 7974 7965 7964 7962 ] final  157.30 input  175.53 | X-H torsion
[ 8008 7997 7996 7995 ] final -139.65 input   59.86 | X-H torsion
[ 10167 10162 10161 10158 ] final   74.06 input  -65.29 | X-H torsion
[ 10718 10713 10712 10709 ] final   21.67 input   66.30 | X-H torsion
[ 10763 10752 10751 10750 ] final -174.76 input  -60.55 | X-H torsion
[ 11005 11000 10999 10996 ] final   78.93 input  -57.11 | X-H torsion

> <Gold.Protein.ActiveResidues>
 VAL166  LYS551  ARG553  GLY616  TRP617  ASP618  TYR619  PRO620  LYS621  CYS622 
 ASP623  PHE694  ASN695  SER759  ASP760  ASP761  ALA762  ILE779  LEU786  VAL792 
 PHE793  MET794  SER795  GLU796  ALA797  LYS798  CYS799  TRP800  GLU811  SER814 

> <Gold.Protein.RotatedAtoms>
  150.7504  133.9671  159.3533 H   0  0  0  0  0  0  0  0  0  0  0  0  # atno 6907 bound_to 6896
  151.7602  135.0810  160.0354 H   0  0  0  0  0  0  0  0  0  0  0  0  # atno 6908 bound_to 6896
  152.3408  133.6028  159.5911 H   0  0  0  0  0  0  0  0  0  0  0  0  # atno 6909 bound_to 6896
  144.7911  139.7322  143.6221 H   0  0  0  0  0  0  0  0  0  0  0  0  # atno 7974 bound_to 7965
  155.4484  140.0537  157.3003 H   0  0  0  0  0  0  0  0  0  0  0  0  # atno 8008 bound_to 7997
  154.4788  140.2072  155.9770 H   0  0  0  0  0  0  0  0  0  0  0  0  # atno 8009 bound_to 7997
  156.1173  140.3194  155.8162 H   0  0  0  0  0  0  0  0  0  0  0  0  # atno 8010 bound_to 7997
  140.0178  144.5564  150.7606 H   0  0  0  0  0  0  0  0  0  0  0  0  # atno 10167 bound_to 10162
  157.1416  130.6635  149.5983 H   0  0  0  0  0  0  0  0  0  0  0  0  # atno 10718 bound_to 10713
  154.5924  135.2846  155.0621 H   0  0  0  0  0  0  0  0  0  0  0  0  # atno 10763 bound_to 10752
  154.1916  135.6439  153.5065 H   0  0  0  0  0  0  0  0  0  0  0  0  # atno 10764 bound_to 10752
  153.0126  135.5448  154.6615 H   0  0  0  0  0  0  0  0  0  0  0  0  # atno 10765 bound_to 10752
  139.9193  134.7802  156.1712 H   0  0  0  0  0  0  0  0  0  0  0  0  # atno 11005 bound_to 11000
  146.2164  139.5556  142.9647 LP  0  0  0  0  0  0  0  0  0  0  0  0  # atno 17320 bound_to 7965
  145.5791  141.0385  143.2132 LP  0  0  0  0  0  0  0  0  0  0  0  0  # atno 17321 bound_to 7965
  140.7355  143.2741  151.3795 LP  0  0  0  0  0  0  0  0  0  0  0  0  # atno 17342 bound_to 10162
  139.6160  144.1001  152.2346 LP  0  0  0  0  0  0  0  0  0  0  0  0  # atno 17343 bound_to 10162
  155.9787  130.4775  150.6673 LP  0  0  0  0  0  0  0  0  0  0  0  0  # atno 17370 bound_to 10713
  157.4302  131.0848  151.1046 LP  0  0  0  0  0  0  0  0  0  0  0  0  # atno 17371 bound_to 10713
  141.0699  133.6802  156.2119 LP  0  0  0  0  0  0  0  0  0  0  0  0  # atno 17394 bound_to 11000
  140.6524  134.5053  157.5578 LP  0  0  0  0  0  0  0  0  0  0  0  0  # atno 17395 bound_to 11000

$$$$
