AV-unprocessed.smi:240|AV-procd|sdf|1824|dock8
  -GOLD-   2262020423D 1   1.00000     0.00000
 Structure written by MMmdl.
 55 59  0  0  0  0  0  0  0  0  1 V2000
  145.2471  139.0302  154.5584 O   0  0  0  0  0  0  0  0  0  0  0  0
  146.5839  139.4320  154.7763 C   0  0  2  0  0  0  0  0  0  0  0  0
  147.2235  139.9694  153.4946 C   0  0  0  0  0  0  0  0  0  0  0  0
  148.7337  139.7812  153.6917 C   0  0  0  0  0  0  0  0  0  0  0  0
  148.9027  138.7622  154.8306 C   0  0  0  0  0  0  0  0  0  0  0  0
  147.4884  138.2538  155.1588 C   0  0  1  0  0  0  0  0  0  0  0  0
  147.2825  137.6661  156.5889 C   0  0  2  0  0  0  0  0  0  0  0  0
  147.3977  138.7188  157.7209 C   0  0  0  0  0  0  0  0  0  0  0  0
  147.1738  138.1085  158.9868 O   0  0  0  0  0  0  0  0  0  0  0  0
  148.1407  137.1066  159.2708 C   0  0  0  0  0  0  0  0  0  0  0  0
  148.0287  135.9946  158.2199 C   0  0  0  0  0  0  0  0  0  0  0  0
  148.1885  136.5453  156.8792 N   0  0  0  0  0  0  0  0  0  0  0  0
  148.2542  135.5549  155.9608 C   0  0  0  0  0  0  0  0  0  0  0  0
  149.4642  135.3188  155.3971 N   0  0  0  0  0  0  0  0  0  0  0  0
  149.5940  134.3670  154.4682 C   0  0  0  0  0  0  0  0  0  0  0  0
  148.6606  133.5520  153.9716 N   0  0  0  0  0  0  0  0  0  0  0  0
  147.4446  133.7802  154.5458 C   0  0  0  0  0  0  0  0  0  0  0  0
  147.1550  134.7501  155.5461 C   0  0  0  0  0  0  0  0  0  0  0  0
  145.8116  134.6839  155.8951 N   0  0  0  0  0  0  0  0  0  0  0  0
  145.3324  133.7355  155.1378 C   0  0  0  0  0  0  0  0  0  0  0  0
  146.2418  133.1454  154.2893 N   0  0  0  0  0  0  0  0  0  0  0  0
  145.9773  132.0780  153.3370 C   0  0  0  0  0  0  0  0  0  0  0  0
  146.2233  132.4948  151.8682 C   0  0  1  0  0  0  0  0  0  0  0  0
  147.6094  132.7247  151.6811 O   0  0  0  0  0  0  0  0  0  0  0  0
  145.7598  131.4662  150.8404 C   0  0  0  0  0  0  0  0  0  0  0  0
  145.3472  132.3306  149.6574 C   0  0  0  0  0  0  0  0  0  0  0  0
  144.7191  133.4341  150.2874 O   0  0  0  0  0  0  0  0  0  0  0  0
  145.4597  133.7696  151.4569 C   0  0  0  0  0  0  0  0  0  0  0  0
  144.8671  139.5920  153.9002 H   0  0  0  0  0  0  0  0  0  0  0  0
  146.6089  140.2142  155.5344 H   0  0  0  0  0  0  0  0  0  0  0  0
  146.9000  139.3761  152.6377 H   0  0  0  0  0  0  0  0  0  0  0  0
  146.9528  141.0070  153.2960 H   0  0  0  0  0  0  0  0  0  0  0  0
  149.2048  139.4348  152.7711 H   0  0  0  0  0  0  0  0  0  0  0  0
  149.2064  140.7256  153.9635 H   0  0  0  0  0  0  0  0  0  0  0  0
  149.5675  137.9454  154.5479 H   0  0  0  0  0  0  0  0  0  0  0  0
  149.3554  139.2602  155.6867 H   0  0  0  0  0  0  0  0  0  0  0  0
  147.2684  137.4708  154.4314 H   0  0  0  0  0  0  0  0  0  0  0  0
  146.2646  137.2789  156.6359 H   0  0  0  0  0  0  0  0  0  0  0  0
  148.3717  139.2077  157.7266 H   0  0  0  0  0  0  0  0  0  0  0  0
  146.6489  139.5007  157.6036 H   0  0  0  0  0  0  0  0  0  0  0  0
  149.1431  137.5378  159.2810 H   0  0  0  0  0  0  0  0  0  0  0  0
  147.9548  136.7038  160.2663 H   0  0  0  0  0  0  0  0  0  0  0  0
  148.7893  135.2347  158.4062 H   0  0  0  0  0  0  0  0  0  0  0  0
  147.0571  135.5049  158.3012 H   0  0  0  0  0  0  0  0  0  0  0  0
  150.5872  134.2429  154.0623 H   0  0  0  0  0  0  0  0  0  0  0  0
  144.2929  133.4427  155.1717 H   0  0  0  0  0  0  0  0  0  0  0  0
  146.6084  131.2266  153.5952 H   0  0  0  0  0  0  0  0  0  0  0  0
  144.9470  131.7455  153.4699 H   0  0  0  0  0  0  0  0  0  0  0  0
  147.9007  132.2115  150.9428 H   0  0  0  0  0  0  0  0  0  0  0  0
  146.5151  130.7201  150.5889 H   0  0  0  0  0  0  0  0  0  0  0  0
  144.8796  130.9369  151.2070 H   0  0  0  0  0  0  0  0  0  0  0  0
  146.2177  132.6714  149.0947 H   0  0  0  0  0  0  0  0  0  0  0  0
  144.6703  131.8170  148.9743 H   0  0  0  0  0  0  0  0  0  0  0  0
  144.7690  134.1082  152.2299 H   0  0  0  0  0  0  0  0  0  0  0  0
  146.1332  134.5996  151.2369 H   0  0  0  0  0  0  0  0  0  0  0  0
  1  2  1  0  0  0  0
  1 29  1  0  0  0  0
  2  6  1  0  0  0  0
  2  3  1  0  0  0  0
  2 30  1  0  0  0  0
  3  4  1  0  0  0  0
  3 31  1  0  0  0  0
  3 32  1  0  0  0  0
  4  5  1  0  0  0  0
  4 33  1  0  0  0  0
  4 34  1  0  0  0  0
  5  6  1  0  0  0  0
  5 35  1  0  0  0  0
  5 36  1  0  0  0  0
  6  7  1  0  0  0  0
  6 37  1  0  0  0  0
  7 12  1  0  0  0  0
  7  8  1  0  0  0  0
  7 38  1  0  0  0  0
  8  9  1  0  0  0  0
  8 39  1  0  0  0  0
  8 40  1  0  0  0  0
  9 10  1  0  0  0  0
 10 11  1  0  0  0  0
 10 41  1  0  0  0  0
 10 42  1  0  0  0  0
 11 12  1  0  0  0  0
 11 43  1  0  0  0  0
 11 44  1  0  0  0  0
 12 13  1  0  0  0  0
 13 18  1  0  0  0  0
 13 14  2  0  0  0  0
 14 15  1  0  0  0  0
 15 16  2  0  0  0  0
 15 45  1  0  0  0  0
 16 17  1  0  0  0  0
 17 21  1  0  0  0  0
 17 18  2  0  0  0  0
 18 19  1  0  0  0  0
 19 20  2  0  0  0  0
 20 21  1  0  0  0  0
 20 46  1  0  0  0  0
 21 22  1  0  0  0  0
 22 23  1  0  0  0  0
 22 47  1  0  0  0  0
 22 48  1  0  0  0  0
 23 28  1  0  0  0  0
 23 24  1  0  0  0  0
 23 25  1  0  0  0  0
 24 49  1  0  0  0  0
 25 26  1  0  0  0  0
 25 50  1  0  0  0  0
 25 51  1  0  0  0  0
 26 27  1  0  0  0  0
 26 52  1  0  0  0  0
 26 53  1  0  0  0  0
 27 28  1  0  0  0  0
 28 54  1  0  0  0  0
 28 55  1  0  0  0  0
M  END
> <s_m_source_file>
AV-unprocessed.smi

> <i_m_source_file_index>
240

> <i_lp_mmshare_version>
43012

> <i_f3d_flags>
0

> <s_epik_input>
W09IXVtDQEBIXTFbQ0gyXVtDSDJdW0NIMl1bQ0BIXTFbQ0BASF0yW0NIMl1PW0NIMl1bQ0gyXU4yYyhuW2NIXW4zKWMoYzM0KW5bY0hdbjRbQ0gyXVtDQEBdNShbT0hdKVtDSDJdW0NIMl1PW0NIMl01

> <s_epik_cmdline>
J2VwaWtfcHl0aG9uJywgJy1waCcsICc3LjAnLCAnLXRuJywgJzgnLCAnLW1hJywgJzIwMCcsICctbWV0YWxfYmluZGluZycsICctaW1hZScsICc8aW5maWxlLm1hZT4nLCAnLW9tYWUnLCAnPG91dGZpbGUubWFlPic=

> <r_lp_tautomer_probability>
1

> <r_epik_Ionization_Penalty>
0.000130618

> <r_epik_Ionization_Penalty_Charging>
0

> <r_epik_Ionization_Penalty_Neutral>
0.000130618

> <r_epik_State_Penalty>
-0

> <r_epik_Charging_Adjusted_Penalty>
0

> <i_epik_Tot_Q>
0

> <i_epik_Tot_abs_Q>
0

> <r_epik_Metal_State_Penalty>
-0

> <b_epik_Metal_Only>
0

> <s_lp_Force_Field>
OPLS_2005

> <r_lp_Energy>
60.7436

> <b_lp_Chiralities_Consistent>
1

> <s_lp_Variant>
AV-unprocessed.smi:240-1

> <Gold.Version>
5.8.1

> <Gold.Id.Protein>
6NUR|6NUR_protein|mol2

> <Gold.PLP.Fitness>
35.1806

> <Gold.PLP.PLP>
-25.5836

> <Gold.PLP.part.hbond>
-3.0000

> <Gold.PLP.part.metal>
0.0000

> <Gold.PLP.part.buried>
-1.9060

> <Gold.PLP.part.nonpolar>
-21.5845

> <Gold.PLP.part.repulsive>
0.4265

> <Gold.PLP.ligand.clash>
0.0000

> <Gold.PLP.ligand.torsion>
0.2072

> <Gold.PLP.Chemscore.Hbond>
2.2775

> <Gold.PLP.Chemscore.CHOScore>
1.0000

> <Gold.PLP.Chemscore.Metal>
0.0000

> <Gold.Chemscore.Hbonds>
donor molecule, donor type, donor heavy atom, donor atom, acceptor molecule, acceptor atom, score
      L1  H     1    29       P1 10175  0.94
      L1  H    24    49       P1 10747  0.98
      P1  H  6934  6947       L1     9  0.33
      L1  C    20    46       P1 10957  1.00

> <Gold.PLP.Chemscore.Internal.Correction>
0.1789

> <Gold.Rescore>
     Score         DG    S(hbond)    S(metal)    S(lipo)     H(rot)  DE(clash)    DE(int)     intcor
     10.54     -12.38       2.00        0.00      67.72       3.00       1.54       0.30       ----

> <Gold.Chemscore.Fitness>
10.5370

> <Gold.Chemscore.DG>
-12.3789

> <Gold.Chemscore.ZeroCoef>
-5.4800

> <Gold.Chemscore.Hbond>
1.9958

> <Gold.Chemscore.Metal>
0.0000

> <Gold.Chemscore.Lipo>
67.7163

> <Gold.Chemscore.Internal_Hbond>
0.0000

> <Gold.Chemscore.DEClash>
1.5427

> <Gold.Chemscore.DEInternal>
0.2992

> <Gold.Chemscore.Rot>
3.0039

> <Gold.Chemscore.Internal.Correction>
   9.000000E+99

> <Gold.Chemscore.Hbonds>
donor molecule, donor type, donor heavy atom, donor atom, acceptor molecule, acceptor atom, score
      L1  H     1    29       P1 10175  0.90
      L1  H    24    49       P1 10747  0.93
      P1  H  6934  6947       L1     9  0.06

> <Gold.Chemscore.Hbond.Weighted>
-6.6660

> <Gold.Chemscore.Metal.Weighted>
-0.0000

> <Gold.Chemscore.Lipo.Weighted>
-7.9228

> <Gold.Chemscore.Internal_Hbond.Weighted>
0.0000

> <Gold.Chemscore.DEClash.Weighted>
1.5427

> <Gold.Chemscore.DEInternal.Weighted>
0.2992

> <Gold.Chemscore.Rot.Weighted>
7.6899

> <Gold.Chemscore.Internal.Correction.Weighted>
   9.000000E+99

> <Gold.Protein.RotatedTorsions>
[ 6907 6896 6895 6894 ] final  161.88 input  -60.11 | X-H torsion
[ 7974 7965 7964 7962 ] final  113.95 input  175.53 | X-H torsion
[ 8008 7997 7996 7995 ] final  175.23 input   59.86 | X-H torsion
[ 10167 10162 10161 10158 ] final -177.50 input  -65.29 | X-H torsion
[ 10718 10713 10712 10709 ] final -120.75 input   66.30 | X-H torsion
[ 10763 10752 10751 10750 ] final  123.57 input  -60.55 | X-H torsion
[ 11005 11000 10999 10996 ] final -114.40 input  -57.11 | X-H torsion

> <Gold.Protein.ActiveResidues>
 VAL166  LYS551  ARG553  GLY616  TRP617  ASP618  TYR619  PRO620  LYS621  CYS622 
 ASP623  PHE694  ASN695  SER759  ASP760  ASP761  ALA762  ILE779  LEU786  VAL792 
 PHE793  MET794  SER795  GLU796  ALA797  LYS798  CYS799  TRP800  GLU811  SER814 

> <Gold.Protein.RotatedAtoms>
  151.9488  133.3660  159.3992 H   0  0  0  0  0  0  0  0  0  0  0  0  # atno 6907 bound_to 6896
  150.6984  134.4362  159.5280 H   0  0  0  0  0  0  0  0  0  0  0  0  # atno 6908 bound_to 6896
  152.2031  134.8569  160.0556 H   0  0  0  0  0  0  0  0  0  0  0  0  # atno 6909 bound_to 6896
  145.2105  139.2908  143.4271 H   0  0  0  0  0  0  0  0  0  0  0  0  # atno 7974 bound_to 7965
  156.0892  140.1414  156.9614 H   0  0  0  0  0  0  0  0  0  0  0  0  # atno 8008 bound_to 7997
  154.4631  140.0936  156.6995 H   0  0  0  0  0  0  0  0  0  0  0  0  # atno 8009 bound_to 7997
  155.4948  140.3449  155.4363 H   0  0  0  0  0  0  0  0  0  0  0  0  # atno 8010 bound_to 7997
  139.5477  144.2191  152.1019 H   0  0  0  0  0  0  0  0  0  0  0  0  # atno 10167 bound_to 10162
  156.1283  130.6376  150.9579 H   0  0  0  0  0  0  0  0  0  0  0  0  # atno 10718 bound_to 10713
  153.6477  135.3368  155.3090 H   0  0  0  0  0  0  0  0  0  0  0  0  # atno 10763 bound_to 10752
  154.8545  135.4333  154.1937 H   0  0  0  0  0  0  0  0  0  0  0  0  # atno 10764 bound_to 10752
  153.2872  135.7014  153.7402 H   0  0  0  0  0  0  0  0  0  0  0  0  # atno 10765 bound_to 10752
  141.0554  133.9621  157.2763 H   0  0  0  0  0  0  0  0  0  0  0  0  # atno 11005 bound_to 11000
  146.3398  140.2379  142.8595 LP  0  0  0  0  0  0  0  0  0  0  0  0  # atno 17320 bound_to 7965
  144.9860  140.8504  143.5368 LP  0  0  0  0  0  0  0  0  0  0  0  0  # atno 17321 bound_to 7965
  140.1681  144.4962  150.6595 LP  0  0  0  0  0  0  0  0  0  0  0  0  # atno 17342 bound_to 10162
  140.6731  143.2293  151.5576 LP  0  0  0  0  0  0  0  0  0  0  0  0  # atno 17343 bound_to 10162
  157.6463  131.0903  150.8146 LP  0  0  0  0  0  0  0  0  0  0  0  0  # atno 17370 bound_to 10713
  156.8234  130.4992  149.5340 LP  0  0  0  0  0  0  0  0  0  0  0  0  # atno 17371 bound_to 10713
  139.9386  135.0194  156.8635 LP  0  0  0  0  0  0  0  0  0  0  0  0  # atno 17394 bound_to 11000
  140.5974  134.0204  155.7523 LP  0  0  0  0  0  0  0  0  0  0  0  0  # atno 17395 bound_to 11000

$$$$
