AV-unprocessed.smi:1964|AV-procd|sdf|7931|dock7
  -GOLD-   2272010103D 1   1.00000     0.00000
 Structure written by MMmdl.
 46 48  0  0  0  0  0  0  0  0  1 V2000
  151.5038  133.5471  156.3701 C   0  0  0  0  0  0  0  0  0  0  0  0
  150.5202  134.1173  155.3316 C   0  0  1  0  0  0  0  0  0  0  0  0
  149.5372  133.0281  154.8568 C   0  0  0  0  0  0  0  0  0  0  0  0
  148.5539  133.5634  153.8047 C   0  0  0  0  0  0  0  0  0  0  0  0
  147.7895  134.7845  154.3340 C   0  0  0  0  0  0  0  0  0  0  0  0
  148.7583  135.8819  154.7974 C   0  0  0  0  0  0  0  0  0  0  0  0
  149.7477  135.3529  155.8571 C   0  0  2  0  0  0  0  0  0  0  0  0
  150.6841  136.4054  156.2379 N   0  0  0  0  0  0  0  0  0  0  0  0
  150.8137  136.9427  157.4626 C   0  0  0  0  0  0  0  0  0  0  0  0
  150.1085  136.6116  158.4147 O   0  0  0  0  0  0  0  0  0  0  0  0
  151.9033  138.0094  157.6723 C   0  0  0  0  0  0  0  0  0  0  0  0
  151.4695  139.3998  157.3989 N   0  0  0  0  0  0  0  0  0  0  0  0
  150.9269  139.7008  156.1232 C   0  0  0  0  0  0  0  0  0  0  0  0
  150.8067  138.8278  155.2624 O   0  0  0  0  0  0  0  0  0  0  0  0
  150.5266  141.0913  155.9217 C   0  0  0  0  0  0  0  0  0  0  0  0
  150.0220  141.4438  154.6359 C   0  0  0  0  0  0  0  0  0  0  0  0
  149.5949  141.7128  153.5946 N   0  0  0  0  0  0  0  0  0  0  0  0
  150.6350  141.9964  156.9159 C   0  0  0  0  0  0  0  0  0  0  0  0
  151.1074  141.6681  158.1678 N   0  0  0  0  0  0  0  0  0  0  0  0
  151.3330  142.6696  159.1712 C   0  0  0  0  0  0  0  0  0  0  0  0
  152.1314  143.9148  158.8369 C   0  0  0  0  0  0  0  0  0  0  0  0
  152.7292  142.8523  159.7257 C   0  0  0  0  0  0  0  0  0  0  0  0
  151.5865  140.3660  158.4278 C   0  0  0  0  0  0  0  0  0  0  0  0
  152.0850  140.0747  159.5177 O   0  0  0  0  0  0  0  0  0  0  0  0
  150.9854  133.2440  157.2801 H   0  0  0  0  0  0  0  0  0  0  0  0
  152.2665  134.2748  156.6481 H   0  0  0  0  0  0  0  0  0  0  0  0
  152.0226  132.6724  155.9771 H   0  0  0  0  0  0  0  0  0  0  0  0
  151.1076  134.4296  154.4664 H   0  0  0  0  0  0  0  0  0  0  0  0
  150.0880  132.1843  154.4402 H   0  0  0  0  0  0  0  0  0  0  0  0
  148.9789  132.6399  155.7099 H   0  0  0  0  0  0  0  0  0  0  0  0
  149.0975  133.8354  152.8992 H   0  0  0  0  0  0  0  0  0  0  0  0
  147.8510  132.7799  153.5201 H   0  0  0  0  0  0  0  0  0  0  0  0
  147.1281  135.1746  153.5600 H   0  0  0  0  0  0  0  0  0  0  0  0
  147.1509  134.4853  155.1662 H   0  0  0  0  0  0  0  0  0  0  0  0
  149.3090  136.2656  153.9371 H   0  0  0  0  0  0  0  0  0  0  0  0
  148.1884  136.7216  155.1969 H   0  0  0  0  0  0  0  0  0  0  0  0
  149.1841  135.0502  156.7420 H   0  0  0  0  0  0  0  0  0  0  0  0
  151.3007  136.7418  155.5129 H   0  0  0  0  0  0  0  0  0  0  0  0
  152.2796  137.9101  158.6914 H   0  0  0  0  0  0  0  0  0  0  0  0
  152.7620  137.7434  157.0538 H   0  0  0  0  0  0  0  0  0  0  0  0
  150.3306  143.0163  156.7293 H   0  0  0  0  0  0  0  0  0  0  0  0
  150.5200  142.8051  159.8824 H   0  0  0  0  0  0  0  0  0  0  0  0
  152.5411  144.0098  157.8328 H   0  0  0  0  0  0  0  0  0  0  0  0
  151.8224  144.8478  159.3035 H   0  0  0  0  0  0  0  0  0  0  0  0
  152.8221  143.0781  160.7861 H   0  0  0  0  0  0  0  0  0  0  0  0
  153.5317  142.2478  159.3070 H   0  0  0  0  0  0  0  0  0  0  0  0
  1  2  1  0  0  0  0
  1 25  1  0  0  0  0
  1 26  1  0  0  0  0
  1 27  1  0  0  0  0
  2  7  1  0  0  0  0
  2  3  1  0  0  0  0
  2 28  1  0  0  0  0
  3  4  1  0  0  0  0
  3 29  1  0  0  0  0
  3 30  1  0  0  0  0
  4  5  1  0  0  0  0
  4 31  1  0  0  0  0
  4 32  1  0  0  0  0
  5  6  1  0  0  0  0
  5 33  1  0  0  0  0
  5 34  1  0  0  0  0
  6  7  1  0  0  0  0
  6 35  1  0  0  0  0
  6 36  1  0  0  0  0
  7  8  1  0  0  0  0
  7 37  1  0  0  0  0
  8  9  1  0  0  0  0
  8 38  1  0  0  0  0
  9 10  2  0  0  0  0
  9 11  1  0  0  0  0
 11 12  1  0  0  0  0
 11 39  1  0  0  0  0
 11 40  1  0  0  0  0
 12 23  1  0  0  0  0
 12 13  1  0  0  0  0
 13 14  2  0  0  0  0
 13 15  1  0  0  0  0
 15 16  1  0  0  0  0
 15 18  2  0  0  0  0
 16 17  3  0  0  0  0
 18 19  1  0  0  0  0
 18 41  1  0  0  0  0
 19 20  1  0  0  0  0
 19 23  1  0  0  0  0
 20 22  1  0  0  0  0
 20 21  1  0  0  0  0
 20 42  1  0  0  0  0
 21 22  1  0  0  0  0
 21 43  1  0  0  0  0
 21 44  1  0  0  0  0
 22 45  1  0  0  0  0
 22 46  1  0  0  0  0
 23 24  2  0  0  0  0
M  END
> <s_m_source_file>
AV-unprocessed.smi

> <i_m_source_file_index>
1964

> <i_lp_mmshare_version>
43012

> <i_f3d_flags>
0

> <s_epik_input>
W0NIM11bQ0BASF0xW0NIMl1bQ0gyXVtDSDJdW0NIMl1bQ0BIXTFbTkhdQyg9TylbQ0gyXW4yYyg9TyljKEMjTilbY0hdbihjMj1PKVtDSF0zW0NIMl1bQ0gyXTM=

> <s_epik_cmdline>
J2VwaWtfcHl0aG9uJywgJy1waCcsICc3LjAnLCAnLXRuJywgJzgnLCAnLW1hJywgJzIwMCcsICctbWV0YWxfYmluZGluZycsICctaW1hZScsICc8aW5maWxlLm1hZT4nLCAnLW9tYWUnLCAnPG91dGZpbGUubWFlPic=

> <r_lp_tautomer_probability>
1

> <r_epik_Ionization_Penalty>
1.91372e-08

> <r_epik_Ionization_Penalty_Charging>
9.0283e-11

> <r_epik_Ionization_Penalty_Neutral>
1.90469e-08

> <r_epik_State_Penalty>
-0

> <r_epik_Charging_Adjusted_Penalty>
9.0283e-11

> <i_epik_Tot_Q>
0

> <i_epik_Tot_abs_Q>
0

> <r_epik_Metal_State_Penalty>
-0

> <b_epik_Metal_Only>
0

> <s_lp_Force_Field>
OPLS_2005

> <r_lp_Energy>
35.2183

> <b_lp_Chiralities_Consistent>
1

> <s_lp_Variant>
AV-unprocessed.smi:1964-4

> <Gold.Version>
5.8.1

> <Gold.Id.Protein>
6NUR|6NUR_protein|mol2

> <Gold.PLP.Fitness>
45.2792

> <Gold.PLP.PLP>
-38.0295

> <Gold.PLP.part.hbond>
-3.0000

> <Gold.PLP.part.metal>
0.0000

> <Gold.PLP.part.buried>
-4.2080

> <Gold.PLP.part.nonpolar>
-30.2470

> <Gold.PLP.part.repulsive>
0.3469

> <Gold.PLP.ligand.clash>
0.0000

> <Gold.PLP.ligand.torsion>
0.4797

> <Gold.PLP.Chemscore.Hbond>
1.6720

> <Gold.PLP.Chemscore.CHOScore>
1.0000

> <Gold.PLP.Chemscore.Metal>
0.0000

> <Gold.Chemscore.Hbonds>
donor molecule, donor type, donor heavy atom, donor atom, acceptor molecule, acceptor atom, score
      P1  H  6896  6909       L1    10  0.36
      P1  H  8011  8017       L1    17  0.56
      L1  C    18    41       P1  8028  1.00

> <Gold.PLP.Chemscore.Internal.Correction>
0.1930

> <Gold.Rescore>
     Score         DG    S(hbond)    S(metal)    S(lipo)     H(rot)  DE(clash)    DE(int)     intcor
     12.55     -15.93       1.66        0.00      79.22       1.70       0.04       3.34       ----

> <Gold.Chemscore.Fitness>
12.5539

> <Gold.Chemscore.DG>
-15.9310

> <Gold.Chemscore.ZeroCoef>
-5.4800

> <Gold.Chemscore.Hbond>
1.6600

> <Gold.Chemscore.Metal>
0.0000

> <Gold.Chemscore.Lipo>
79.2155

> <Gold.Chemscore.Internal_Hbond>
0.0000

> <Gold.Chemscore.DEClash>
0.0361

> <Gold.Chemscore.DEInternal>
3.3411

> <Gold.Chemscore.Rot>
1.7038

> <Gold.Chemscore.Internal.Correction>
   9.000000E+99

> <Gold.Chemscore.Hbonds>
donor molecule, donor type, donor heavy atom, donor atom, acceptor molecule, acceptor atom, score
      P1  H  6896  6909       L1    10  0.31
      P1  H  8011  8017       L1    17  0.55

> <Gold.Chemscore.Hbond.Weighted>
-5.5445

> <Gold.Chemscore.Metal.Weighted>
-0.0000

> <Gold.Chemscore.Lipo.Weighted>
-9.2682

> <Gold.Chemscore.Internal_Hbond.Weighted>
0.0000

> <Gold.Chemscore.DEClash.Weighted>
0.0361

> <Gold.Chemscore.DEInternal.Weighted>
3.3411

> <Gold.Chemscore.Rot.Weighted>
4.3618

> <Gold.Chemscore.Internal.Correction.Weighted>
   9.000000E+99

> <Gold.Protein.RotatedTorsions>
[ 6907 6896 6895 6894 ] final   84.05 input  -60.11 | X-H torsion
[ 7974 7965 7964 7962 ] final  170.99 input  175.53 | X-H torsion
[ 8008 7997 7996 7995 ] final  148.64 input   59.86 | X-H torsion
[ 10167 10162 10161 10158 ] final  -90.86 input  -65.29 | X-H torsion
[ 10718 10713 10712 10709 ] final  111.53 input   66.30 | X-H torsion
[ 10763 10752 10751 10750 ] final  -54.86 input  -60.55 | X-H torsion
[ 11005 11000 10999 10996 ] final  132.67 input  -57.11 | X-H torsion

> <Gold.Protein.ActiveResidues>
 VAL166  LYS551  ARG553  GLY616  TRP617  ASP618  TYR619  PRO620  LYS621  CYS622 
 ASP623  PHE694  ASN695  SER759  ASP760  ASP761  ALA762  ILE779  LEU786  VAL792 
 PHE793  MET794  SER795  GLU796  ALA797  LYS798  CYS799  TRP800  GLU811  SER814 

> <Gold.Protein.RotatedAtoms>
  152.5343  134.2800  159.9003 H   0  0  0  0  0  0  0  0  0  0  0  0  # atno 6907 bound_to 6896
  151.2755  133.4228  159.2631 H   0  0  0  0  0  0  0  0  0  0  0  0  # atno 6908 bound_to 6896
  151.0330  134.9568  159.8178 H   0  0  0  0  0  0  0  0  0  0  0  0  # atno 6909 bound_to 6896
  144.7307  139.9284  143.6423 H   0  0  0  0  0  0  0  0  0  0  0  0  # atno 7974 bound_to 7965
  156.2784  140.2123  156.5731 H   0  0  0  0  0  0  0  0  0  0  0  0  # atno 8008 bound_to 7997
  154.7119  140.0511  157.0581 H   0  0  0  0  0  0  0  0  0  0  0  0  # atno 8009 bound_to 7997
  155.0594  140.3165  155.4669 H   0  0  0  0  0  0  0  0  0  0  0  0  # atno 8010 bound_to 7997
  140.3507  143.2893  151.9730 H   0  0  0  0  0  0  0  0  0  0  0  0  # atno 10167 bound_to 10162
  157.6440  131.0952  150.6762 H   0  0  0  0  0  0  0  0  0  0  0  0  # atno 10718 bound_to 10713
  154.1816  135.6442  153.5036 H   0  0  0  0  0  0  0  0  0  0  0  0  # atno 10763 bound_to 10752
  153.0057  135.5407  154.6508 H   0  0  0  0  0  0  0  0  0  0  0  0  # atno 10764 bound_to 10752
  154.5874  135.2931  155.0644 H   0  0  0  0  0  0  0  0  0  0  0  0  # atno 10765 bound_to 10752
  139.9804  134.9550  156.9615 H   0  0  0  0  0  0  0  0  0  0  0  0  # atno 11005 bound_to 11000
  146.0876  139.3865  143.0426 LP  0  0  0  0  0  0  0  0  0  0  0  0  # atno 17320 bound_to 7965
  145.7755  140.9878  143.1127 LP  0  0  0  0  0  0  0  0  0  0  0  0  # atno 17321 bound_to 7965
  139.4827  144.6078  151.7488 LP  0  0  0  0  0  0  0  0  0  0  0  0  # atno 17342 bound_to 10162
  140.5222  144.0861  150.6026 LP  0  0  0  0  0  0  0  0  0  0  0  0  # atno 17343 bound_to 10162
  156.7081  130.4643  149.5554 LP  0  0  0  0  0  0  0  0  0  0  0  0  # atno 17370 bound_to 10713
  156.1748  130.6461  151.0881 LP  0  0  0  0  0  0  0  0  0  0  0  0  # atno 17371 bound_to 10713
  140.5108  134.1004  155.7270 LP  0  0  0  0  0  0  0  0  0  0  0  0  # atno 17394 bound_to 11000
  141.1477  133.9026  157.2175 LP  0  0  0  0  0  0  0  0  0  0  0  0  # atno 17395 bound_to 11000

$$$$
