AV-unprocessed.smi:72|AV-procd|sdf|701|dock7
  -GOLD-   2262017 23D 1   1.00000     0.00000
 Structure written by MMmdl.
 30 31  0  0  0  0  0  0  0  0  2 V2000
  145.7832  138.4228  152.3812 N   0  0  0  0  0  0  0  0  0  0  0  0
  145.2657  137.1537  152.2264 C   0  0  0  0  0  0  0  0  0  0  0  0
  146.1040  136.1748  151.7255 N   0  3  0  0  0  0  0  0  0  0  0  0
  145.7548  134.9011  151.5000 C   0  0  0  0  0  0  0  0  0  0  0  0
  144.5123  134.5247  151.7369 N   0  0  0  0  0  0  0  0  0  0  0  0
  144.0496  133.1027  151.5106 C   0  0  2  0  0  0  0  0  0  0  0  0
  144.8223  132.2537  152.2971 O   0  0  0  0  0  0  0  0  0  0  0  0
  145.9651  131.8482  151.5556 C   0  0  1  0  0  0  0  0  0  0  0  0
  146.5961  130.6067  152.2020 C   0  0  0  0  0  0  0  0  0  0  0  0
  147.8626  130.9369  152.7308 O   0  0  0  0  0  0  0  0  0  0  0  0
  145.3662  131.5902  150.1712 C   0  0  2  0  0  0  0  0  0  0  0  0
  146.3519  131.7697  149.1745 O   0  0  0  0  0  0  0  0  0  0  0  0
  144.2787  132.6574  150.0481 C   0  0  1  0  0  0  0  0  0  0  0  0
  143.1068  132.1048  149.4851 O   0  0  0  0  0  0  0  0  0  0  0  0
  143.5989  135.4450  152.3149 C   0  0  0  0  0  0  0  0  0  0  0  0
  142.4617  135.0850  152.6175 O   0  0  0  0  0  0  0  0  0  0  0  0
  144.0569  136.7556  152.5113 N   0  0  0  0  0  0  0  0  0  0  0  0
  143.0084  133.0913  151.8381 H   0  0  0  0  0  0  0  0  0  0  0  0
  146.6847  132.6678  151.4983 H   0  0  0  0  0  0  0  0  0  0  0  0
  144.9444  130.5847  150.1199 H   0  0  0  0  0  0  0  0  0  0  0  0
  144.6128  133.4988  149.4390 H   0  0  0  0  0  0  0  0  0  0  0  0
  145.2476  139.1973  152.7470 H   0  0  0  0  0  0  0  0  0  0  0  0
  146.7310  138.6792  152.1446 H   0  0  0  0  0  0  0  0  0  0  0  0
  146.5092  134.2136  151.1408 H   0  0  0  0  0  0  0  0  0  0  0  0
  145.9537  130.1911  152.9791 H   0  0  0  0  0  0  0  0  0  0  0  0
  146.7455  129.8284  151.4530 H   0  0  0  0  0  0  0  0  0  0  0  0
  148.5049  130.8593  152.0416 H   0  0  0  0  0  0  0  0  0  0  0  0
  147.1743  131.4403  149.5049 H   0  0  0  0  0  0  0  0  0  0  0  0
  142.4764  132.7984  149.3585 H   0  0  0  0  0  0  0  0  0  0  0  0
  147.0555  136.4434  151.5183 H   0  0  0  0  0  0  0  0  0  0  0  0
  1  2  1  0  0  0  0
  1 22  1  0  0  0  0
  1 23  1  0  0  0  0
  2 17  2  0  0  0  0
  2  3  1  0  0  0  0
  3  4  2  0  0  0  0
  3 30  1  0  0  0  0
  4  5  1  0  0  0  0
  4 24  1  0  0  0  0
  5  6  1  0  0  0  0
  5 15  1  0  0  0  0
  6 18  1  0  0  0  0
  6 13  1  0  0  0  0
  6  7  1  0  0  0  0
  7  8  1  0  0  0  0
  8 19  1  0  0  0  0
  8  9  1  0  0  0  0
  8 11  1  0  0  0  0
  9 10  1  0  0  0  0
  9 25  1  0  0  0  0
  9 26  1  0  0  0  0
 10 27  1  0  0  0  0
 11 20  1  0  0  0  0
 11 12  1  0  0  0  0
 11 13  1  0  0  0  0
 12 28  1  0  0  0  0
 13 21  1  0  0  0  0
 13 14  1  0  0  0  0
 14 29  1  0  0  0  0
 15 16  2  0  0  0  0
 15 17  1  0  0  0  0
M  CHG  1   3   1
M  END
> <s_m_source_file>
AV-unprocessed.smi

> <i_m_source_file_index>
72

> <i_lp_mmshare_version>
43012

> <i_f3d_flags>
0

> <s_epik_input>
W05IMl1jMW5bY0hdbihjKD1PKW4xKVtDQEBIXTJPW0NASF0oW0NIMl1bT0hdKVtDQEBIXShbT0hdKVtDQEhdMltPSF0=

> <s_epik_cmdline>
J2VwaWtfcHl0aG9uJywgJy1waCcsICc3LjAnLCAnLXRuJywgJzgnLCAnLW1hJywgJzIwMCcsICctbWV0YWxfYmluZGluZycsICctaW1hZScsICc8aW5maWxlLm1hZT4nLCAnLW9tYWUnLCAnPG91dGZpbGUubWFlPic=

> <r_lp_tautomer_probability>
4.77166e-05

> <r_epik_Ionization_Penalty>
0.104979

> <r_epik_Ionization_Penalty_Charging>
0.0999619

> <r_epik_Ionization_Penalty_Neutral>
0.00501745

> <r_epik_State_Penalty>
2.51541

> <r_epik_Charging_Adjusted_Penalty>
2.61537

> <i_epik_Tot_Q>
1

> <i_epik_Tot_abs_Q>
1

> <r_epik_Metal_State_Penalty>
3.53763

> <b_epik_Metal_Only>
0

> <s_epik_Chemistry_Notes>
This compound contains an acetal/aminal-like group ( X-CH(R)-Y where X, Y are N, S, or O) that may be acid/base labile, releasing an aldehyde.

> <s_lp_Force_Field>
OPLS_2005

> <r_lp_Energy>
25.3585

> <b_lp_Chiralities_Consistent>
1

> <s_lp_Variant>
AV-unprocessed.smi:72-39

> <Gold.Version>
5.8.1

> <Gold.Id.Protein>
6NUR|6NUR_protein|mol2

> <Gold.PLP.Fitness>
46.2430

> <Gold.PLP.PLP>
-28.5303

> <Gold.PLP.part.hbond>
-7.0840

> <Gold.PLP.part.metal>
0.0000

> <Gold.PLP.part.buried>
-5.0626

> <Gold.PLP.part.nonpolar>
-17.5136

> <Gold.PLP.part.repulsive>
0.6242

> <Gold.PLP.ligand.clash>
0.0000

> <Gold.PLP.ligand.torsion>
0.7279

> <Gold.PLP.Chemscore.Hbond>
6.3743

> <Gold.PLP.Chemscore.CHOScore>
0.0000

> <Gold.PLP.Chemscore.Metal>
0.0000

> <Gold.Chemscore.Hbonds>
donor molecule, donor type, donor heavy atom, donor atom, acceptor molecule, acceptor atom, score
      L1  H     1    22       P1 10175  0.92
      L1  H     3    30       P1  7948  1.98
      L1  H    10    27       P1 10747  1.00
      L1  H    12    28       P1 10747  1.00
      L1  H    14    29       P1 10186  0.60
      P1  H 10785 10796       L1    14  0.83

> <Gold.PLP.Chemscore.Internal.Correction>
0.0458

> <Gold.Rescore>
     Score         DG    S(hbond)    S(metal)    S(lipo)     H(rot)  DE(clash)    DE(int)     intcor
     14.31     -16.50       5.11        0.00      37.49       4.08       0.54       1.64       ----

> <Gold.Chemscore.Fitness>
14.3125

> <Gold.Chemscore.DG>
-16.4958

> <Gold.Chemscore.ZeroCoef>
-5.4800

> <Gold.Chemscore.Hbond>
5.1106

> <Gold.Chemscore.Metal>
0.0000

> <Gold.Chemscore.Lipo>
37.4948

> <Gold.Chemscore.Internal_Hbond>
0.0000

> <Gold.Chemscore.DEClash>
0.5391

> <Gold.Chemscore.DEInternal>
1.6441

> <Gold.Chemscore.Rot>
4.0783

> <Gold.Chemscore.Internal.Correction>
   9.000000E+99

> <Gold.Chemscore.Hbonds>
donor molecule, donor type, donor heavy atom, donor atom, acceptor molecule, acceptor atom, score
      L1  H     1    22       P1 10175  0.83
      L1  H     3    30       P1  7948  0.94
      L1  H    10    27       P1 10747  0.91
      L1  H    12    28       P1 10747  0.94
      L1  H    14    29       P1 10186  0.60
      P1  H 10785 10796       L1    14  0.77

> <Gold.Chemscore.Hbond.Weighted>
-17.0693

> <Gold.Chemscore.Metal.Weighted>
-0.0000

> <Gold.Chemscore.Lipo.Weighted>
-4.3869

> <Gold.Chemscore.Internal_Hbond.Weighted>
0.0000

> <Gold.Chemscore.DEClash.Weighted>
0.5391

> <Gold.Chemscore.DEInternal.Weighted>
1.6441

> <Gold.Chemscore.Rot.Weighted>
10.4404

> <Gold.Chemscore.Internal.Correction.Weighted>
   9.000000E+99

> <Gold.Protein.RotatedTorsions>
[ 6907 6896 6895 6894 ] final   17.80 input  -60.11 | X-H torsion
[ 7974 7965 7964 7962 ] final   84.74 input  175.53 | X-H torsion
[ 8008 7997 7996 7995 ] final  141.58 input   59.86 | X-H torsion
[ 10167 10162 10161 10158 ] final  -86.47 input  -65.29 | X-H torsion
[ 10718 10713 10712 10709 ] final -179.53 input   66.30 | X-H torsion
[ 10763 10752 10751 10750 ] final  113.51 input  -60.55 | X-H torsion
[ 11005 11000 10999 10996 ] final -106.50 input  -57.11 | X-H torsion

> <Gold.Protein.ActiveResidues>
 VAL166  LYS551  ARG553  GLY616  TRP617  ASP618  TYR619  PRO620  LYS621  CYS622 
 ASP623  PHE694  ASN695  SER759  ASP760  ASP761  ALA762  ILE779  LEU786  VAL792 
 PHE793  MET794  SER795  GLU796  ALA797  LYS798  CYS799  TRP800  GLU811  SER814 

> <Gold.Protein.RotatedAtoms>
  151.8553  135.0543  160.0463 H   0  0  0  0  0  0  0  0  0  0  0  0  # atno 6907 bound_to 6896
  152.2705  133.5373  159.5444 H   0  0  0  0  0  0  0  0  0  0  0  0  # atno 6908 bound_to 6896
  150.7150  134.0621  159.3877 H   0  0  0  0  0  0  0  0  0  0  0  0  # atno 6909 bound_to 6896
  145.5947  139.2343  143.2279 H   0  0  0  0  0  0  0  0  0  0  0  0  # atno 7974 bound_to 7965
  156.2963  140.2311  156.4588 H   0  0  0  0  0  0  0  0  0  0  0  0  # atno 8008 bound_to 7997
  154.8037  140.0447  157.1312 H   0  0  0  0  0  0  0  0  0  0  0  0  # atno 8009 bound_to 7997
  154.9504  140.3041  155.5081 H   0  0  0  0  0  0  0  0  0  0  0  0  # atno 8010 bound_to 7997
  140.3938  143.2693  151.9231 H   0  0  0  0  0  0  0  0  0  0  0  0  # atno 10167 bound_to 10162
  156.8604  130.9749  151.3084 H   0  0  0  0  0  0  0  0  0  0  0  0  # atno 10718 bound_to 10713
  153.4935  135.3653  155.2504 H   0  0  0  0  0  0  0  0  0  0  0  0  # atno 10763 bound_to 10752
  154.8751  135.3983  154.3561 H   0  0  0  0  0  0  0  0  0  0  0  0  # atno 10764 bound_to 10752
  153.4184  135.7079  153.6376 H   0  0  0  0  0  0  0  0  0  0  0  0  # atno 10765 bound_to 10752
  141.1001  133.8899  157.1863 H   0  0  0  0  0  0  0  0  0  0  0  0  # atno 11005 bound_to 11000
  146.1621  140.6773  142.9273 LP  0  0  0  0  0  0  0  0  0  0  0  0  # atno 17320 bound_to 7965
  144.7336  140.4743  143.6920 LP  0  0  0  0  0  0  0  0  0  0  0  0  # atno 17321 bound_to 7965
  139.4787  144.5701  151.8101 LP  0  0  0  0  0  0  0  0  0  0  0  0  # atno 17342 bound_to 10162
  140.4812  144.1447  150.5933 LP  0  0  0  0  0  0  0  0  0  0  0  0  # atno 17343 bound_to 10162
  157.6253  130.8687  149.9179 LP  0  0  0  0  0  0  0  0  0  0  0  0  # atno 17370 bound_to 10713
  156.0780  130.3676  150.0639 LP  0  0  0  0  0  0  0  0  0  0  0  0  # atno 17371 bound_to 10713
  139.9850  135.0085  156.9841 LP  0  0  0  0  0  0  0  0  0  0  0  0  # atno 17394 bound_to 11000
  140.5042  134.1066  155.7257 LP  0  0  0  0  0  0  0  0  0  0  0  0  # atno 17395 bound_to 11000

$$$$
