AV-unprocessed.smi:1028|AV-procd|sdf|4473|dock2
  -GOLD-   22720 2453D 1   1.00000     0.00000
 Structure written by MMmdl.
 43 44  0  0  0  0  0  0  0  0  1 V2000
  152.7008  144.6465  157.9687 C   0  0  0  0  0  0  0  0  0  0  0  0
  151.7198  144.0941  159.0216 C   0  0  0  0  0  0  0  0  0  0  0  0
  151.0294  145.2596  159.7565 C   0  0  0  0  0  0  0  0  0  0  0  0
  150.6323  143.2863  158.2816 C   0  0  0  0  0  0  0  0  0  0  0  0
  152.4659  143.2264  160.0161 C   0  0  0  0  0  0  0  0  0  0  0  0
  152.5570  143.3834  161.3805 C   0  0  0  0  0  0  0  0  0  0  0  0
  153.5132  142.1341  162.1290 S   0  0  0  0  0  0  0  0  0  0  0  0
  153.7818  141.4335  160.5408 C   0  0  0  0  0  0  0  0  0  0  0  0
  154.5632  140.1827  160.3181 C   0  0  0  0  0  0  0  0  0  0  0  0
  153.6935  138.9217  160.4389 C   0  0  0  0  0  0  0  0  0  0  0  0
  152.5892  138.9379  159.4868 N   0  0  0  0  0  0  0  0  0  0  0  0
  152.7146  138.8009  158.1578 C   0  0  0  0  0  0  0  0  0  0  0  0
  153.7997  138.6452  157.5964 O   0  0  0  0  0  0  0  0  0  0  0  0
  151.4143  138.8534  157.3391 C   0  0  0  0  0  0  0  0  0  0  0  0
  151.6775  138.6920  155.8234 C   0  0  0  0  0  0  0  0  0  0  0  0
  151.1310  139.9509  155.1390 C   0  0  0  0  0  0  0  0  0  0  0  0
  151.0713  141.0086  156.2366 C   0  0  0  0  0  0  0  0  0  0  0  0
  150.7023  140.2126  157.4871 C   0  0  0  0  0  0  0  0  0  0  0  0
  153.1693  142.1026  159.5617 N   0  0  0  0  0  0  0  0  0  0  0  0
  152.1860  145.2608  157.2292 H   0  0  0  0  0  0  0  0  0  0  0  0
  153.2035  143.8399  157.4338 H   0  0  0  0  0  0  0  0  0  0  0  0
  153.4721  145.2681  158.4248 H   0  0  0  0  0  0  0  0  0  0  0  0
  151.7517  145.8983  160.2657 H   0  0  0  0  0  0  0  0  0  0  0  0
  150.3284  144.8942  160.5079 H   0  0  0  0  0  0  0  0  0  0  0  0
  150.4713  145.8914  159.0648 H   0  0  0  0  0  0  0  0  0  0  0  0
  150.0961  143.9083  157.5640 H   0  0  0  0  0  0  0  0  0  0  0  0
  149.8927  142.8814  158.9734 H   0  0  0  0  0  0  0  0  0  0  0  0
  151.0613  142.4507  157.7272 H   0  0  0  0  0  0  0  0  0  0  0  0
  152.1173  144.1536  161.9966 H   0  0  0  0  0  0  0  0  0  0  0  0
  155.0244  140.2287  159.3308 H   0  0  0  0  0  0  0  0  0  0  0  0
  155.3782  140.1530  161.0421 H   0  0  0  0  0  0  0  0  0  0  0  0
  154.2985  138.0244  160.2982 H   0  0  0  0  0  0  0  0  0  0  0  0
  153.2721  138.8573  161.4425 H   0  0  0  0  0  0  0  0  0  0  0  0
  151.6617  139.0618  159.8658 H   0  0  0  0  0  0  0  0  0  0  0  0
  150.7458  138.0630  157.6852 H   0  0  0  0  0  0  0  0  0  0  0  0
  152.7422  138.5908  155.6050 H   0  0  0  0  0  0  0  0  0  0  0  0
  151.1941  137.7974  155.4294 H   0  0  0  0  0  0  0  0  0  0  0  0
  151.7392  140.2633  154.2897 H   0  0  0  0  0  0  0  0  0  0  0  0
  150.1236  139.7557  154.7689 H   0  0  0  0  0  0  0  0  0  0  0  0
  152.0526  141.4678  156.3635 H   0  0  0  0  0  0  0  0  0  0  0  0
  150.3561  141.8020  156.0176 H   0  0  0  0  0  0  0  0  0  0  0  0
  149.6233  140.0548  157.5138 H   0  0  0  0  0  0  0  0  0  0  0  0
  150.9681  140.7478  158.4004 H   0  0  0  0  0  0  0  0  0  0  0  0
  1  2  1  0  0  0  0
  1 20  1  0  0  0  0
  1 21  1  0  0  0  0
  1 22  1  0  0  0  0
  2  3  1  0  0  0  0
  2  4  1  0  0  0  0
  2  5  1  0  0  0  0
  3 23  1  0  0  0  0
  3 24  1  0  0  0  0
  3 25  1  0  0  0  0
  4 26  1  0  0  0  0
  4 27  1  0  0  0  0
  4 28  1  0  0  0  0
  5 19  1  0  0  0  0
  5  6  2  0  0  0  0
  6  7  1  0  0  0  0
  6 29  1  0  0  0  0
  7  8  1  0  0  0  0
  8  9  1  0  0  0  0
  8 19  2  0  0  0  0
  9 10  1  0  0  0  0
  9 30  1  0  0  0  0
  9 31  1  0  0  0  0
 10 11  1  0  0  0  0
 10 32  1  0  0  0  0
 10 33  1  0  0  0  0
 11 12  1  0  0  0  0
 11 34  1  0  0  0  0
 12 13  2  0  0  0  0
 12 14  1  0  0  0  0
 14 18  1  0  0  0  0
 14 15  1  0  0  0  0
 14 35  1  0  0  0  0
 15 16  1  0  0  0  0
 15 36  1  0  0  0  0
 15 37  1  0  0  0  0
 16 17  1  0  0  0  0
 16 38  1  0  0  0  0
 16 39  1  0  0  0  0
 17 18  1  0  0  0  0
 17 40  1  0  0  0  0
 17 41  1  0  0  0  0
 18 42  1  0  0  0  0
 18 43  1  0  0  0  0
M  END
> <s_m_source_file>
AV-unprocessed.smi

> <i_m_source_file_index>
1028

> <i_lp_mmshare_version>
43012

> <i_f3d_flags>
0

> <s_epik_input>
W0NIM11DKFtDSDNdKShbQ0gzXSljMVtjSF1zYyhuMSlbQ0gyXVtDSDJdW05IXUMoPU8pW0NIXTJbQ0gyXVtDSDJdW0NIMl1bQ0gyXTI=

> <s_epik_cmdline>
J2VwaWtfcHl0aG9uJywgJy1waCcsICc3LjAnLCAnLXRuJywgJzgnLCAnLW1hJywgJzIwMCcsICctbWV0YWxfYmluZGluZycsICctaW1hZScsICc8aW5maWxlLm1hZT4nLCAnLW9tYWUnLCAnPG91dGZpbGUubWFlPic=

> <r_epik_Ionization_Penalty>
0.000842107

> <r_epik_Ionization_Penalty_Charging>
0

> <r_epik_Ionization_Penalty_Neutral>
0.000842107

> <r_epik_State_Penalty>
0.000542609

> <r_epik_Charging_Adjusted_Penalty>
0.000542609

> <i_epik_Tot_Q>
0

> <i_epik_Tot_abs_Q>
0

> <r_epik_Metal_State_Penalty>
-0

> <b_epik_Metal_Only>
0

> <s_lp_Force_Field>
OPLS_2005

> <r_lp_Energy>
10.9616

> <b_lp_Chiralities_Consistent>
1

> <s_lp_Variant>
AV-unprocessed.smi:1028-1

> <Gold.Version>
5.8.1

> <Gold.Id.Protein>
6NUR|6NUR_protein|mol2

> <Gold.PLP.Fitness>
49.2121

> <Gold.PLP.PLP>
-47.0039

> <Gold.PLP.part.hbond>
-0.9658

> <Gold.PLP.part.metal>
0.0000

> <Gold.PLP.part.buried>
-3.6309

> <Gold.PLP.part.nonpolar>
-41.8465

> <Gold.PLP.part.repulsive>
0.0894

> <Gold.PLP.ligand.clash>
0.0000

> <Gold.PLP.ligand.torsion>
0.4250

> <Gold.PLP.Chemscore.Hbond>
1.0000

> <Gold.PLP.Chemscore.CHOScore>
0.0000

> <Gold.PLP.Chemscore.Metal>
0.0000

> <Gold.Chemscore.Hbonds>
donor molecule, donor type, donor heavy atom, donor atom, acceptor molecule, acceptor atom, score
      P1  H  7997  8008       L1    13  1.00

> <Gold.PLP.Chemscore.Internal.Correction>
0.0581

> <Gold.Rescore>
     Score         DG    S(hbond)    S(metal)    S(lipo)     H(rot)  DE(clash)    DE(int)     intcor
     19.97     -21.74       0.97        0.00     142.41       1.42       1.29       0.48       ----

> <Gold.Chemscore.Fitness>
19.9700

> <Gold.Chemscore.DG>
-21.7380

> <Gold.Chemscore.ZeroCoef>
-5.4800

> <Gold.Chemscore.Hbond>
0.9693

> <Gold.Chemscore.Metal>
0.0000

> <Gold.Chemscore.Lipo>
142.4137

> <Gold.Chemscore.Internal_Hbond>
0.0000

> <Gold.Chemscore.DEClash>
1.2854

> <Gold.Chemscore.DEInternal>
0.4826

> <Gold.Chemscore.Rot>
1.4226

> <Gold.Chemscore.Internal.Correction>
   9.000000E+99

> <Gold.Chemscore.Hbonds>
donor molecule, donor type, donor heavy atom, donor atom, acceptor molecule, acceptor atom, score
      P1  H  7997  8008       L1    13  0.94

> <Gold.Chemscore.Hbond.Weighted>
-3.2375

> <Gold.Chemscore.Metal.Weighted>
-0.0000

> <Gold.Chemscore.Lipo.Weighted>
-16.6624

> <Gold.Chemscore.Internal_Hbond.Weighted>
0.0000

> <Gold.Chemscore.DEClash.Weighted>
1.2854

> <Gold.Chemscore.DEInternal.Weighted>
0.4826

> <Gold.Chemscore.Rot.Weighted>
3.6419

> <Gold.Chemscore.Internal.Correction.Weighted>
   9.000000E+99

> <Gold.Protein.RotatedTorsions>
[ 6907 6896 6895 6894 ] final  118.74 input  -60.11 | X-H torsion
[ 7974 7965 7964 7962 ] final -171.42 input  175.53 | X-H torsion
[ 8008 7997 7996 7995 ] final  -92.96 input   59.86 | X-H torsion
[ 10167 10162 10161 10158 ] final  129.39 input  -65.29 | X-H torsion
[ 10718 10713 10712 10709 ] final  -90.32 input   66.30 | X-H torsion
[ 10763 10752 10751 10750 ] final  131.17 input  -60.55 | X-H torsion
[ 11005 11000 10999 10996 ] final -132.79 input  -57.11 | X-H torsion

> <Gold.Protein.ActiveResidues>
 VAL166  LYS551  ARG553  GLY616  TRP617  ASP618  TYR619  PRO620  LYS621  CYS622 
 ASP623  PHE694  ASN695  SER759  ASP760  ASP761  ALA762  ILE779  LEU786  VAL792 
 PHE793  MET794  SER795  GLU796  ALA797  LYS798  CYS799  TRP800  GLU811  SER814 

> <Gold.Protein.RotatedAtoms>
  152.4522  133.7651  159.6767 H   0  0  0  0  0  0  0  0  0  0  0  0  # atno 6907 bound_to 6896
  150.8437  133.7886  159.3057 H   0  0  0  0  0  0  0  0  0  0  0  0  # atno 6908 bound_to 6896
  151.5503  135.1070  160.0000 H   0  0  0  0  0  0  0  0  0  0  0  0  # atno 6909 bound_to 6896
  144.7157  140.1925  143.6347 H   0  0  0  0  0  0  0  0  0  0  0  0  # atno 7974 bound_to 7965
  154.7297  140.0503  157.0715 H   0  0  0  0  0  0  0  0  0  0  0  0  # atno 8008 bound_to 7997
  155.0318  140.3159  155.4736 H   0  0  0  0  0  0  0  0  0  0  0  0  # atno 8009 bound_to 7997
  156.2838  140.2148  156.5440 H   0  0  0  0  0  0  0  0  0  0  0  0  # atno 8010 bound_to 7997
  139.5480  144.6790  151.4412 H   0  0  0  0  0  0  0  0  0  0  0  0  # atno 10167 bound_to 10162
  155.9987  130.4905  150.5304 H   0  0  0  0  0  0  0  0  0  0  0  0  # atno 10718 bound_to 10713
  153.7700  135.3183  155.3350 H   0  0  0  0  0  0  0  0  0  0  0  0  # atno 10763 bound_to 10752
  154.8199  135.4610  154.0753 H   0  0  0  0  0  0  0  0  0  0  0  0  # atno 10764 bound_to 10752
  153.2010  135.6922  153.8316 H   0  0  0  0  0  0  0  0  0  0  0  0  # atno 10765 bound_to 10752
  140.9139  134.1532  157.4368 H   0  0  0  0  0  0  0  0  0  0  0  0  # atno 11005 bound_to 11000
  145.8755  139.2294  143.1636 LP  0  0  0  0  0  0  0  0  0  0  0  0  # atno 17320 bound_to 7965
  146.0045  140.8491  143.0002 LP  0  0  0  0  0  0  0  0  0  0  0  0  # atno 17321 bound_to 7965
  140.6734  143.8243  150.7028 LP  0  0  0  0  0  0  0  0  0  0  0  0  # atno 17342 bound_to 10162
  140.1674  143.4224  152.2025 LP  0  0  0  0  0  0  0  0  0  0  0  0  # atno 17343 bound_to 10162
  157.3254  131.0689  151.1900 LP  0  0  0  0  0  0  0  0  0  0  0  0  # atno 17370 bound_to 10713
  157.2799  130.6745  149.6061 LP  0  0  0  0  0  0  0  0  0  0  0  0  # atno 17371 bound_to 10713
  139.8762  134.9946  156.5702 LP  0  0  0  0  0  0  0  0  0  0  0  0  # atno 17394 bound_to 11000
  140.8075  133.8455  155.8781 LP  0  0  0  0  0  0  0  0  0  0  0  0  # atno 17395 bound_to 11000

$$$$
