AV-unprocessed.smi:2923|AV-procd|sdf|11216|dock4
  -GOLD-   2272016103D 1   1.00000     0.00000
 Structure written by MMmdl.
 46 48  0  0  0  0  0  0  0  0  1 V2000
  151.9463  145.9385  160.0044 C   0  0  0  0  0  0  0  0  0  0  0  0
  151.7221  144.6273  159.4087 N   0  0  0  0  0  0  0  0  0  0  0  0
  150.8117  144.4885  158.2766 C   0  0  0  0  0  0  0  0  0  0  0  0
  152.3580  143.4840  159.9448 C   0  0  0  0  0  0  0  0  0  0  0  0
  153.0105  143.5214  161.2020 C   0  0  0  0  0  0  0  0  0  0  0  0
  153.6264  142.3556  161.6964 C   0  0  0  0  0  0  0  0  0  0  0  0
  153.5848  141.1750  160.9197 C   0  0  0  0  0  0  0  0  0  0  0  0
  154.1440  139.9301  161.3170 N   0  0  0  0  0  0  0  0  0  0  0  0
  155.1494  139.6968  162.1777 C   0  0  0  0  0  0  0  0  0  0  0  0
  155.8289  140.5600  162.7328 O   0  0  0  0  0  0  0  0  0  0  0  0
  155.3407  138.3830  162.3535 N   0  0  0  0  0  0  0  0  0  0  0  0
  156.3396  137.8093  163.2475 C   0  0  2  0  0  0  0  0  0  0  0  0
  156.3211  136.2807  163.2418 C   0  0  1  0  0  0  0  0  0  0  0  0
  157.2702  135.2256  162.7977 C   0  0  0  0  0  0  0  0  0  0  0  0
  157.1836  134.3196  164.0552 C   0  0  0  0  0  0  0  0  0  0  0  0
  156.4686  135.0901  165.0518 O   0  0  0  0  0  0  0  0  0  0  0  0
  156.7337  136.4306  164.6930 C   0  0  2  0  0  0  0  0  0  0  0  0
  155.8573  137.6977  164.7434 C   0  0  0  0  0  0  0  0  0  0  0  0
  156.3594  138.8002  165.6763 C   0  0  0  0  0  0  0  0  0  0  0  0
  154.3564  137.5204  165.0523 C   0  0  0  0  0  0  0  0  0  0  0  0
  152.9051  141.2310  159.6876 C   0  0  0  0  0  0  0  0  0  0  0  0
  152.3140  142.3458  159.2102 N   0  0  0  0  0  0  0  0  0  0  0  0
  151.6376  145.9421  161.0500 H   0  0  0  0  0  0  0  0  0  0  0  0
  151.3779  146.7124  159.4881 H   0  0  0  0  0  0  0  0  0  0  0  0
  153.0012  146.2091  159.9499 H   0  0  0  0  0  0  0  0  0  0  0  0
  149.9779  143.8345  158.5337 H   0  0  0  0  0  0  0  0  0  0  0  0
  151.3325  144.0662  157.4166 H   0  0  0  0  0  0  0  0  0  0  0  0
  150.3991  145.4516  157.9760 H   0  0  0  0  0  0  0  0  0  0  0  0
  153.0473  144.4182  161.8013 H   0  0  0  0  0  0  0  0  0  0  0  0
  154.1010  142.3913  162.6642 H   0  0  0  0  0  0  0  0  0  0  0  0
  153.7426  139.1166  160.8740 H   0  0  0  0  0  0  0  0  0  0  0  0
  154.7461  137.7380  161.8541 H   0  0  0  0  0  0  0  0  0  0  0  0
  157.3436  138.2267  163.1270 H   0  0  0  0  0  0  0  0  0  0  0  0
  155.2988  135.9144  163.1225 H   0  0  0  0  0  0  0  0  0  0  0  0
  156.9447  134.7158  161.8908 H   0  0  0  0  0  0  0  0  0  0  0  0
  158.2763  135.6190  162.6451 H   0  0  0  0  0  0  0  0  0  0  0  0
  156.6435  133.3942  163.8540 H   0  0  0  0  0  0  0  0  0  0  0  0
  158.1795  134.0594  164.4160 H   0  0  0  0  0  0  0  0  0  0  0  0
  157.7960  136.6633  164.8298 H   0  0  0  0  0  0  0  0  0  0  0  0
  156.2520  138.5171  166.7237 H   0  0  0  0  0  0  0  0  0  0  0  0
  155.8131  139.7321  165.5275 H   0  0  0  0  0  0  0  0  0  0  0  0
  157.4143  139.0183  165.5075 H   0  0  0  0  0  0  0  0  0  0  0  0
  154.2033  137.2152  166.0878 H   0  0  0  0  0  0  0  0  0  0  0  0
  153.8659  136.7721  164.4330 H   0  0  0  0  0  0  0  0  0  0  0  0
  153.8093  138.4525  164.9071 H   0  0  0  0  0  0  0  0  0  0  0  0
  152.8321  140.3542  159.0610 H   0  0  0  0  0  0  0  0  0  0  0  0
  1  2  1  0  0  0  0
  1 23  1  0  0  0  0
  1 24  1  0  0  0  0
  1 25  1  0  0  0  0
  2  3  1  0  0  0  0
  2  4  1  0  0  0  0
  3 26  1  0  0  0  0
  3 27  1  0  0  0  0
  3 28  1  0  0  0  0
  4 22  1  0  0  0  0
  4  5  2  0  0  0  0
  5  6  1  0  0  0  0
  5 29  1  0  0  0  0
  6  7  2  0  0  0  0
  6 30  1  0  0  0  0
  7  8  1  0  0  0  0
  7 21  1  0  0  0  0
  8  9  1  0  0  0  0
  8 31  1  0  0  0  0
  9 10  2  0  0  0  0
  9 11  1  0  0  0  0
 11 12  1  0  0  0  0
 11 32  1  0  0  0  0
 12 18  1  0  0  0  0
 12 13  1  0  0  0  0
 12 33  1  0  0  0  0
 13 17  1  0  0  0  0
 13 14  1  0  0  0  0
 13 34  1  0  0  0  0
 14 15  1  0  0  0  0
 14 35  1  0  0  0  0
 14 36  1  0  0  0  0
 15 16  1  0  0  0  0
 15 37  1  0  0  0  0
 15 38  1  0  0  0  0
 16 17  1  0  0  0  0
 17 18  1  0  0  0  0
 17 39  1  0  0  0  0
 18 19  1  0  0  0  0
 18 20  1  0  0  0  0
 19 40  1  0  0  0  0
 19 41  1  0  0  0  0
 19 42  1  0  0  0  0
 20 43  1  0  0  0  0
 20 44  1  0  0  0  0
 20 45  1  0  0  0  0
 21 22  2  0  0  0  0
 21 46  1  0  0  0  0
M  END
> <s_m_source_file>
AV-unprocessed.smi

> <i_m_source_file_index>
2923

> <i_lp_mmshare_version>
43012

> <i_f3d_flags>
0

> <s_epik_input>
W0NIM11OKFtDSDNdKWMxW2NIXVtjSF1jKFtjSF1uMSlbTkhdQyg9TylbTkhdW0NASF0yQyhbQ0gzXSkoW0NIM10pW0NAQEhdKFtDQEhdMjMpT1tDSDJdW0NIMl0z

> <s_epik_cmdline>
J2VwaWtfcHl0aG9uJywgJy1waCcsICc3LjAnLCAnLXRuJywgJzgnLCAnLW1hJywgJzIwMCcsICctbWV0YWxfYmluZGluZycsICctaW1hZScsICc8aW5maWxlLm1hZT4nLCAnLW9tYWUnLCAnPG91dGZpbGUubWFlPic=

> <r_lp_tautomer_probability>
1

> <r_epik_Ionization_Penalty>
0.628785

> <r_epik_Ionization_Penalty_Charging>
0

> <r_epik_Ionization_Penalty_Neutral>
0.628785

> <r_epik_State_Penalty>
0.644286

> <r_epik_Charging_Adjusted_Penalty>
0.644286

> <i_epik_Tot_Q>
0

> <i_epik_Tot_abs_Q>
0

> <r_epik_Metal_State_Penalty>
0.308404

> <b_epik_Metal_Only>
0

> <s_lp_Force_Field>
OPLS_2005

> <r_lp_Energy>
62.6556

> <b_lp_Chiralities_Consistent>
1

> <s_lp_Variant>
AV-unprocessed.smi:2923-15

> <Gold.Version>
5.8.1

> <Gold.Id.Protein>
6NUR|6NUR_protein|mol2

> <Gold.PLP.Fitness>
43.3737

> <Gold.PLP.PLP>
-43.8426

> <Gold.PLP.part.hbond>
-1.0000

> <Gold.PLP.part.metal>
0.0000

> <Gold.PLP.part.buried>
-5.6040

> <Gold.PLP.part.nonpolar>
-36.2915

> <Gold.PLP.part.repulsive>
0.0776

> <Gold.PLP.ligand.clash>
0.0000

> <Gold.PLP.ligand.torsion>
0.3695

> <Gold.PLP.Chemscore.Hbond>
0.0000

> <Gold.PLP.Chemscore.CHOScore>
0.0000

> <Gold.PLP.Chemscore.Metal>
0.0000

> <Gold.PLP.Chemscore.Internal.Correction>
0.2701

> <Gold.Rescore>
     Score         DG    S(hbond)    S(metal)    S(lipo)     H(rot)  DE(clash)    DE(int)     intcor
     13.24     -14.66       0.00        0.00     100.37       1.00       0.08       1.34       ----

> <Gold.Chemscore.Fitness>
13.2447

> <Gold.Chemscore.DG>
-14.6636

> <Gold.Chemscore.ZeroCoef>
-5.4800

> <Gold.Chemscore.Hbond>
0.0000

> <Gold.Chemscore.Metal>
0.0000

> <Gold.Chemscore.Lipo>
100.3727

> <Gold.Chemscore.Internal_Hbond>
0.0000

> <Gold.Chemscore.DEClash>
0.0831

> <Gold.Chemscore.DEInternal>
1.3359

> <Gold.Chemscore.Rot>
1.0000

> <Gold.Chemscore.Internal.Correction>
   9.000000E+99

> <Gold.Chemscore.Hbond.Weighted>
-0.0000

> <Gold.Chemscore.Metal.Weighted>
-0.0000

> <Gold.Chemscore.Lipo.Weighted>
-11.7436

> <Gold.Chemscore.Internal_Hbond.Weighted>
0.0000

> <Gold.Chemscore.DEClash.Weighted>
0.0831

> <Gold.Chemscore.DEInternal.Weighted>
1.3359

> <Gold.Chemscore.Rot.Weighted>
2.5600

> <Gold.Chemscore.Internal.Correction.Weighted>
   9.000000E+99

> <Gold.Protein.RotatedTorsions>
[ 6907 6896 6895 6894 ] final  142.05 input  -60.11 | X-H torsion
[ 7974 7965 7964 7962 ] final  -29.96 input  175.53 | X-H torsion
[ 8008 7997 7996 7995 ] final -105.25 input   59.86 | X-H torsion
[ 10167 10162 10161 10158 ] final   89.45 input  -65.29 | X-H torsion
[ 10718 10713 10712 10709 ] final  -59.42 input   66.30 | X-H torsion
[ 10763 10752 10751 10750 ] final  116.96 input  -60.55 | X-H torsion
[ 11005 11000 10999 10996 ] final   55.84 input  -57.11 | X-H torsion

> <Gold.Protein.ActiveResidues>
 VAL166  LYS551  ARG553  GLY616  TRP617  ASP618  TYR619  PRO620  LYS621  CYS622 
 ASP623  PHE694  ASN695  SER759  ASP760  ASP761  ALA762  ILE779  LEU786  VAL792 
 PHE793  MET794  SER795  GLU796  ALA797  LYS798  CYS799  TRP800  GLU811  SER814 

> <Gold.Protein.RotatedAtoms>
  152.2235  133.5002  159.5175 H   0  0  0  0  0  0  0  0  0  0  0  0  # atno 6907 bound_to 6896
  150.7019  134.1311  159.4079 H   0  0  0  0  0  0  0  0  0  0  0  0  # atno 6908 bound_to 6896
  151.9231  135.0289  160.0574 H   0  0  0  0  0  0  0  0  0  0  0  0  # atno 6909 bound_to 6896
  146.1178  140.5479  142.8749 H   0  0  0  0  0  0  0  0  0  0  0  0  # atno 7974 bound_to 7965
  154.8971  140.0414  157.1872 H   0  0  0  0  0  0  0  0  0  0  0  0  # atno 8008 bound_to 7997
  154.8481  140.2925  155.5595 H   0  0  0  0  0  0  0  0  0  0  0  0  # atno 8009 bound_to 7997
  156.2995  140.2470  156.3435 H   0  0  0  0  0  0  0  0  0  0  0  0  # atno 8010 bound_to 7997
  139.8572  144.6563  150.9101 H   0  0  0  0  0  0  0  0  0  0  0  0  # atno 10167 bound_to 10162
  156.1063  130.4180  150.0713 H   0  0  0  0  0  0  0  0  0  0  0  0  # atno 10718 bound_to 10713
  153.5451  135.3551  155.2735 H   0  0  0  0  0  0  0  0  0  0  0  0  # atno 10763 bound_to 10752
  154.8713  135.4100  154.3000 H   0  0  0  0  0  0  0  0  0  0  0  0  # atno 10764 bound_to 10752
  153.3715  135.7064  153.6703 H   0  0  0  0  0  0  0  0  0  0  0  0  # atno 10765 bound_to 10752
  140.0575  134.5649  155.9190 H   0  0  0  0  0  0  0  0  0  0  0  0  # atno 11005 bound_to 11000
  144.7569  140.5329  143.6762 LP  0  0  0  0  0  0  0  0  0  0  0  0  # atno 17320 bound_to 7965
  145.5529  139.1477  143.3384 LP  0  0  0  0  0  0  0  0  0  0  0  0  # atno 17321 bound_to 7965
  140.7780  143.3776  151.1535 LP  0  0  0  0  0  0  0  0  0  0  0  0  # atno 17342 bound_to 10162
  139.7409  143.8927  152.3049 LP  0  0  0  0  0  0  0  0  0  0  0  0  # atno 17343 bound_to 10162
  156.8687  130.9517  151.3611 LP  0  0  0  0  0  0  0  0  0  0  0  0  # atno 17370 bound_to 10713
  157.6240  130.8677  149.9157 LP  0  0  0  0  0  0  0  0  0  0  0  0  # atno 17371 bound_to 10713
  141.1958  133.6589  156.5663 LP  0  0  0  0  0  0  0  0  0  0  0  0  # atno 17394 bound_to 11000
  140.3821  134.7514  157.4668 LP  0  0  0  0  0  0  0  0  0  0  0  0  # atno 17395 bound_to 11000

$$$$
