AV-unprocessed.smi:1867|AV-procd|sdf|7575|dock1
  -GOLD-   22720 9283D 1   1.00000     0.00000
 Structure written by MMmdl.
 53 56  0  0  0  0  0  0  0  0  3 V2000
  146.5499  139.7249  153.6913 O   0  0  0  0  0  0  0  0  0  0  0  0
  147.4418  139.0156  153.2339 C   0  0  0  0  0  0  0  0  0  0  0  0
  148.7394  139.0744  153.5960 N   0  0  0  0  0  0  0  0  0  0  0  0
  149.3814  139.9480  154.5173 C   0  0  0  0  0  0  0  0  0  0  0  0
  150.6063  139.5181  155.0728 C   0  0  0  0  0  0  0  0  0  0  0  0
  151.2899  140.3414  155.9907 C   0  0  0  0  0  0  0  0  0  0  0  0
  150.7352  141.5924  156.3460 C   0  0  0  0  0  0  0  0  0  0  0  0
  151.3346  142.4871  157.2437 N   0  0  0  0  0  0  0  0  0  0  0  0
  150.5396  142.8066  158.4179 C   0  0  0  0  0  0  0  0  0  0  0  0
  151.1721  144.0682  159.0106 C   0  0  0  0  0  0  0  0  0  0  0  0
  151.9497  144.7015  157.8506 C   0  0  0  0  0  0  0  0  0  0  0  0
  151.7215  143.7619  156.6634 C   0  0  0  0  0  0  0  0  0  0  0  0
  149.5570  141.9650  155.8017 N   0  3  0  0  0  0  0  0  0  0  0  0
  148.8699  141.2070  154.9197 C   0  0  0  0  0  0  0  0  0  0  0  0
  147.1721  138.0862  152.3002 N   0  0  0  0  0  0  0  0  0  0  0  0
  145.8816  137.7622  151.6915 C   0  0  1  0  0  0  0  0  0  0  0  0
  145.9853  136.8776  150.4336 C   0  0  0  0  0  0  0  0  0  0  0  0
  144.8011  135.8938  150.5263 C   0  0  0  0  0  0  0  0  0  0  0  0
  144.0405  136.3097  151.7201 N   0  3  1  0  0  0  0  0  0  0  0  0
  143.2031  135.2846  152.3807 C   0  0  0  0  0  0  0  0  0  0  0  0
  142.4351  135.9330  153.5506 C   0  0  0  0  0  0  0  0  0  0  0  0
  143.3811  136.6746  154.5179 C   0  0  0  0  0  0  0  0  0  0  0  0
  144.2931  137.6587  153.7602 C   0  0  0  0  0  0  0  0  0  0  0  0
  145.0238  136.9151  152.6305 C   0  0  2  0  0  0  0  0  0  0  0  0
  149.3532  138.4310  153.1186 H   0  0  0  0  0  0  0  0  0  0  0  0
  151.0265  138.5618  154.7965 H   0  0  0  0  0  0  0  0  0  0  0  0
  152.2278  140.0116  156.4135 H   0  0  0  0  0  0  0  0  0  0  0  0
  149.5028  143.0027  158.1417 H   0  0  0  0  0  0  0  0  0  0  0  0
  150.5464  141.9824  159.1319 H   0  0  0  0  0  0  0  0  0  0  0  0
  150.4178  144.7403  159.4213 H   0  0  0  0  0  0  0  0  0  0  0  0
  151.8577  143.8060  159.8172 H   0  0  0  0  0  0  0  0  0  0  0  0
  151.6140  145.7152  157.6297 H   0  0  0  0  0  0  0  0  0  0  0  0
  153.0108  144.7496  158.0985 H   0  0  0  0  0  0  0  0  0  0  0  0
  152.6210  143.6593  156.0557 H   0  0  0  0  0  0  0  0  0  0  0  0
  150.9264  144.1494  156.0250 H   0  0  0  0  0  0  0  0  0  0  0  0
  147.9439  141.6468  154.5840 H   0  0  0  0  0  0  0  0  0  0  0  0
  147.9537  137.5236  151.9950 H   0  0  0  0  0  0  0  0  0  0  0  0
  145.3317  138.6744  151.4504 H   0  0  0  0  0  0  0  0  0  0  0  0
  145.9423  137.4797  149.5253 H   0  0  0  0  0  0  0  0  0  0  0  0
  146.9245  136.3223  150.4135 H   0  0  0  0  0  0  0  0  0  0  0  0
  144.1691  135.9166  149.6380 H   0  0  0  0  0  0  0  0  0  0  0  0
  145.1707  134.8750  150.6538 H   0  0  0  0  0  0  0  0  0  0  0  0
  142.5033  134.8621  151.6588 H   0  0  0  0  0  0  0  0  0  0  0  0
  143.8296  134.4671  152.7409 H   0  0  0  0  0  0  0  0  0  0  0  0
  141.7039  136.6387  153.1536 H   0  0  0  0  0  0  0  0  0  0  0  0
  141.8678  135.1747  154.0911 H   0  0  0  0  0  0  0  0  0  0  0  0
  142.8034  137.2051  155.2754 H   0  0  0  0  0  0  0  0  0  0  0  0
  143.9955  135.9478  155.0511 H   0  0  0  0  0  0  0  0  0  0  0  0
  143.6974  138.4757  153.3505 H   0  0  0  0  0  0  0  0  0  0  0  0
  145.0127  138.1077  154.4457 H   0  0  0  0  0  0  0  0  0  0  0  0
  145.6374  136.1177  153.0569 H   0  0  0  0  0  0  0  0  0  0  0  0
  143.4266  137.0552  151.4248 H   0  0  0  0  0  0  0  0  0  0  0  0
  149.1645  142.8677  156.0700 H   0  0  0  0  0  0  0  0  0  0  0  0
  1  2  2  0  0  0  0
  2  3  1  0  0  0  0
  2 15  1  0  0  0  0
  3  4  1  0  0  0  0
  3 25  1  0  0  0  0
  4 14  1  0  0  0  0
  4  5  2  0  0  0  0
  5  6  1  0  0  0  0
  5 26  1  0  0  0  0
  6  7  2  0  0  0  0
  6 27  1  0  0  0  0
  7  8  1  0  0  0  0
  7 13  1  0  0  0  0
  8 12  1  0  0  0  0
  8  9  1  0  0  0  0
  9 10  1  0  0  0  0
  9 28  1  0  0  0  0
  9 29  1  0  0  0  0
 10 11  1  0  0  0  0
 10 30  1  0  0  0  0
 10 31  1  0  0  0  0
 11 12  1  0  0  0  0
 11 32  1  0  0  0  0
 11 33  1  0  0  0  0
 12 34  1  0  0  0  0
 12 35  1  0  0  0  0
 13 14  2  0  0  0  0
 13 53  1  0  0  0  0
 14 36  1  0  0  0  0
 15 16  1  0  0  0  0
 15 37  1  0  0  0  0
 16 24  1  0  0  0  0
 16 17  1  0  0  0  0
 16 38  1  0  0  0  0
 17 18  1  0  0  0  0
 17 39  1  0  0  0  0
 17 40  1  0  0  0  0
 18 19  1  0  0  0  0
 18 41  1  0  0  0  0
 18 42  1  0  0  0  0
 19 24  1  0  0  0  0
 19 20  1  0  0  0  0
 19 52  1  0  0  0  0
 20 21  1  0  0  0  0
 20 43  1  0  0  0  0
 20 44  1  0  0  0  0
 21 22  1  0  0  0  0
 21 45  1  0  0  0  0
 21 46  1  0  0  0  0
 22 23  1  0  0  0  0
 22 47  1  0  0  0  0
 22 48  1  0  0  0  0
 23 24  1  0  0  0  0
 23 49  1  0  0  0  0
 23 50  1  0  0  0  0
 24 51  1  0  0  0  0
M  CHG  1  13   1
M  CHG  1  19   1
M  END
> <s_m_source_file>
AV-unprocessed.smi

> <i_m_source_file_index>
1867

> <i_lp_mmshare_version>
43012

> <i_f3d_flags>
0

> <s_epik_input>
W0NIMl0xW0NIMl1bQ0gyXVtDSDJdW0NASF0oTjEyKVtDQEBIXShbQ0gyXVtDSDJdMilbTkhdQyg9TylbTkhdYzNbY0hdW2NIXWMobltjSF0zKU40W0NIMl1bQ0gyXVtDSDJdW0NIMl00

> <s_epik_cmdline>
J2VwaWtfcHl0aG9uJywgJy1waCcsICc3LjAnLCAnLXRuJywgJzgnLCAnLW1hJywgJzIwMCcsICctbWV0YWxfYmluZGluZycsICctaW1hZScsICc8aW5maWxlLm1hZT4nLCAnLW9tYWUnLCAnPG91dGZpbGUubWFlPic=

> <r_lp_tautomer_probability>
0.999994

> <r_epik_Ionization_Penalty>
1.27347

> <r_epik_Ionization_Penalty_Charging>
1.27345

> <r_epik_Ionization_Penalty_Neutral>
1.96458e-05

> <r_epik_State_Penalty>
1.34393

> <r_epik_Charging_Adjusted_Penalty>
2.61738

> <i_epik_Tot_Q>
2

> <i_epik_Tot_abs_Q>
2

> <r_epik_Metal_State_Penalty>
1.41094

> <b_epik_Metal_Only>
0

> <s_lp_Force_Field>
OPLS_2005

> <r_lp_Energy>
83.8069

> <b_lp_Chiralities_Consistent>
1

> <s_lp_Variant>
AV-unprocessed.smi:1867-16

> <Gold.Version>
5.8.1

> <Gold.Id.Protein>
6NUR|6NUR_protein|mol2

> <Gold.PLP.Fitness>
48.2652

> <Gold.PLP.PLP>
-39.0775

> <Gold.PLP.part.hbond>
-4.3094

> <Gold.PLP.part.metal>
0.0000

> <Gold.PLP.part.buried>
3.2009

> <Gold.PLP.part.nonpolar>
-38.3036

> <Gold.PLP.part.repulsive>
0.5645

> <Gold.PLP.ligand.clash>
0.0000

> <Gold.PLP.ligand.torsion>
0.3174

> <Gold.PLP.Chemscore.Hbond>
3.2661

> <Gold.PLP.Chemscore.CHOScore>
0.0000

> <Gold.PLP.Chemscore.Metal>
0.0000

> <Gold.Chemscore.Hbonds>
donor molecule, donor type, donor heavy atom, donor atom, acceptor molecule, acceptor atom, score
      L1  H    13    53       P1  8028  1.95
      L1  H    15    37       P1  7948  1.00
      L1  H    19    52       P1 10171  0.24

> <Gold.PLP.Chemscore.Internal.Correction>
0.0242

> <Gold.Rescore>
     Score         DG    S(hbond)    S(metal)    S(lipo)     H(rot)  DE(clash)    DE(int)     intcor
     17.78     -23.30       2.29        0.00     113.14       1.20       4.30       1.22       ----

> <Gold.Chemscore.Fitness>
17.7835

> <Gold.Chemscore.DG>
-23.3007

> <Gold.Chemscore.ZeroCoef>
-5.4800

> <Gold.Chemscore.Hbond>
2.2883

> <Gold.Chemscore.Metal>
0.0000

> <Gold.Chemscore.Lipo>
113.1383

> <Gold.Chemscore.Internal_Hbond>
0.0000

> <Gold.Chemscore.DEClash>
4.2954

> <Gold.Chemscore.DEInternal>
1.2217

> <Gold.Chemscore.Rot>
1.1950

> <Gold.Chemscore.Internal.Correction>
   9.000000E+99

> <Gold.Chemscore.Hbonds>
donor molecule, donor type, donor heavy atom, donor atom, acceptor molecule, acceptor atom, score
      L1  H    13    53       P1  8028  0.93
      L1  H    15    37       P1  7948  0.99
      L1  H    19    52       P1 10171  0.23

> <Gold.Chemscore.Hbond.Weighted>
-7.6428

> <Gold.Chemscore.Metal.Weighted>
-0.0000

> <Gold.Chemscore.Lipo.Weighted>
-13.2372

> <Gold.Chemscore.Internal_Hbond.Weighted>
0.0000

> <Gold.Chemscore.DEClash.Weighted>
4.2954

> <Gold.Chemscore.DEInternal.Weighted>
1.2217

> <Gold.Chemscore.Rot.Weighted>
3.0593

> <Gold.Chemscore.Internal.Correction.Weighted>
   9.000000E+99

> <Gold.Protein.RotatedTorsions>
[ 6907 6896 6895 6894 ] final -135.34 input  -60.11 | X-H torsion
[ 7974 7965 7964 7962 ] final -148.61 input  175.53 | X-H torsion
[ 8008 7997 7996 7995 ] final -166.36 input   59.86 | X-H torsion
[ 10167 10162 10161 10158 ] final  170.79 input  -65.29 | X-H torsion
[ 10718 10713 10712 10709 ] final -163.51 input   66.30 | X-H torsion
[ 10763 10752 10751 10750 ] final  -88.69 input  -60.55 | X-H torsion
[ 11005 11000 10999 10996 ] final    2.01 input  -57.11 | X-H torsion

> <Gold.Protein.ActiveResidues>
 VAL166  LYS551  ARG553  GLY616  TRP617  ASP618  TYR619  PRO620  LYS621  CYS622 
 ASP623  PHE694  ASN695  SER759  ASP760  ASP761  ALA762  ILE779  LEU786  VAL792 
 PHE793  MET794  SER795  GLU796  ALA797  LYS798  CYS799  TRP800  GLU811  SER814 

> <Gold.Protein.RotatedAtoms>
  150.9967  133.6096  159.2700 H   0  0  0  0  0  0  0  0  0  0  0  0  # atno 6907 bound_to 6896
  151.3297  135.0837  159.9344 H   0  0  0  0  0  0  0  0  0  0  0  0  # atno 6908 bound_to 6896
  152.5262  133.9599  159.7766 H   0  0  0  0  0  0  0  0  0  0  0  0  # atno 6909 bound_to 6896
  144.8019  140.5174  143.5701 H   0  0  0  0  0  0  0  0  0  0  0  0  # atno 7974 bound_to 7965
  155.8627  140.0980  157.1602 H   0  0  0  0  0  0  0  0  0  0  0  0  # atno 8008 bound_to 7997
  154.3991  140.1362  156.4043 H   0  0  0  0  0  0  0  0  0  0  0  0  # atno 8009 bound_to 7997
  155.7838  140.3457  155.5314 H   0  0  0  0  0  0  0  0  0  0  0  0  # atno 8010 bound_to 7997
  139.5028  144.3557  151.9877 H   0  0  0  0  0  0  0  0  0  0  0  0  # atno 10167 bound_to 10162
  156.6257  130.8908  151.2967 H   0  0  0  0  0  0  0  0  0  0  0  0  # atno 10718 bound_to 10713
  154.6473  135.5368  153.7860 H   0  0  0  0  0  0  0  0  0  0  0  0  # atno 10763 bound_to 10752
  153.0366  135.6474  154.1070 H   0  0  0  0  0  0  0  0  0  0  0  0  # atno 10764 bound_to 10752
  154.0989  135.2934  155.3235 H   0  0  0  0  0  0  0  0  0  0  0  0  # atno 10765 bound_to 10752
  140.6090  133.9765  155.8168 H   0  0  0  0  0  0  0  0  0  0  0  0  # atno 11005 bound_to 11000
  145.5533  139.1477  143.3382 LP  0  0  0  0  0  0  0  0  0  0  0  0  # atno 17320 bound_to 7965
  146.2302  140.5670  142.8979 LP  0  0  0  0  0  0  0  0  0  0  0  0  # atno 17321 bound_to 7965
  140.2994  144.3664  150.6065 LP  0  0  0  0  0  0  0  0  0  0  0  0  # atno 17342 bound_to 10162
  140.5885  143.2169  151.7297 LP  0  0  0  0  0  0  0  0  0  0  0  0  # atno 17343 bound_to 10162
  157.7215  130.9564  150.1457 LP  0  0  0  0  0  0  0  0  0  0  0  0  # atno 17370 bound_to 10713
  156.2276  130.3679  149.8483 LP  0  0  0  0  0  0  0  0  0  0  0  0  # atno 17371 bound_to 10713
  141.0821  134.0047  157.3370 LP  0  0  0  0  0  0  0  0  0  0  0  0  # atno 17394 bound_to 11000
  139.9200  135.0200  156.8028 LP  0  0  0  0  0  0  0  0  0  0  0  0  # atno 17395 bound_to 11000

$$$$
