AV-unprocessed.smi:2279|AV-procd|sdf|9186|dock4
  -GOLD-   2272012403D 1   1.00000     0.00000
 Structure written by MMmdl.
 58 60  0  0  0  0  0  0  0  0  3 V2000
  153.7082  141.3524  160.1976 C   0  0  0  0  0  0  0  0  0  0  0  0
  152.8445  142.4582  159.6279 C   0  0  0  0  0  0  0  0  0  0  0  0
  152.9321  143.7725  160.1253 C   0  0  0  0  0  0  0  0  0  0  0  0
  152.1024  144.7566  159.5529 C   0  0  0  0  0  0  0  0  0  0  0  0
  152.1398  146.1888  160.0432 C   0  0  0  0  0  0  0  0  0  0  0  0
  151.2365  144.4975  158.5500 N   0  0  0  0  0  0  0  0  0  0  0  0
  151.1447  143.2358  158.0614 C   0  0  0  0  0  0  0  0  0  0  0  0
  150.2597  142.8604  157.0154 N   0  0  0  0  0  0  0  0  0  0  0  0
  150.3562  141.8032  156.1898 C   0  0  0  0  0  0  0  0  0  0  0  0
  151.2301  140.9370  156.2415 O   0  0  0  0  0  0  0  0  0  0  0  0
  149.3593  141.7904  155.2920 N   0  0  0  0  0  0  0  0  0  0  0  0
  149.1671  140.7626  154.2723 C   0  0  2  0  0  0  0  0  0  0  0  0
  147.7351  140.8251  153.7148 C   0  0  0  0  0  0  0  0  0  0  0  0
  147.4953  139.6798  152.7133 C   0  0  0  0  0  0  0  0  0  0  0  0
  147.7159  138.3433  153.3375 N   0  3  2  0  0  0  0  0  0  0  0  0
  146.6721  137.8960  154.3250 C   0  0  2  0  0  0  0  0  0  0  0  0
  146.8167  136.4037  154.7105 C   0  0  0  0  0  0  0  0  0  0  0  0
  146.4686  135.4687  153.5368 C   0  0  0  0  0  0  0  0  0  0  0  0
  145.0912  135.7176  153.0425 N   0  3  2  0  0  0  0  0  0  0  0  0
  144.7028  134.7832  151.9640 C   0  0  0  0  0  0  0  0  0  0  0  0
  144.8746  137.1368  152.6657 C   0  0  0  0  0  0  0  0  0  0  0  0
  145.2134  138.0776  153.8372 C   0  0  0  0  0  0  0  0  0  0  0  0
  149.1219  138.2559  153.8305 C   0  0  0  0  0  0  0  0  0  0  0  0
  149.4542  139.3639  154.8504 C   0  0  0  0  0  0  0  0  0  0  0  0
  151.9361  142.1883  158.5842 C   0  0  0  0  0  0  0  0  0  0  0  0
  154.2446  141.6868  161.0862 H   0  0  0  0  0  0  0  0  0  0  0  0
  154.4403  141.0270  159.4582 H   0  0  0  0  0  0  0  0  0  0  0  0
  153.0938  140.4951  160.4739 H   0  0  0  0  0  0  0  0  0  0  0  0
  153.6158  144.0196  160.9243 H   0  0  0  0  0  0  0  0  0  0  0  0
  152.7317  146.2791  160.9544 H   0  0  0  0  0  0  0  0  0  0  0  0
  151.1318  146.5451  160.2581 H   0  0  0  0  0  0  0  0  0  0  0  0
  152.5794  146.8363  159.2840 H   0  0  0  0  0  0  0  0  0  0  0  0
  149.4641  143.4668  156.8818 H   0  0  0  0  0  0  0  0  0  0  0  0
  148.6836  142.5403  155.3220 H   0  0  0  0  0  0  0  0  0  0  0  0
  149.8527  140.9440  153.4421 H   0  0  0  0  0  0  0  0  0  0  0  0
  147.0073  140.7729  154.5255 H   0  0  0  0  0  0  0  0  0  0  0  0
  147.5740  141.7835  153.2194 H   0  0  0  0  0  0  0  0  0  0  0  0
  146.5168  139.7618  152.2447 H   0  0  0  0  0  0  0  0  0  0  0  0
  148.1990  139.7843  151.8858 H   0  0  0  0  0  0  0  0  0  0  0  0
  146.7859  138.4943  155.2286 H   0  0  0  0  0  0  0  0  0  0  0  0
  147.8045  136.1681  155.1010 H   0  0  0  0  0  0  0  0  0  0  0  0
  146.1373  136.1878  155.5366 H   0  0  0  0  0  0  0  0  0  0  0  0
  147.1827  135.6003  152.7224 H   0  0  0  0  0  0  0  0  0  0  0  0
  146.5511  134.4312  153.8635 H   0  0  0  0  0  0  0  0  0  0  0  0
  145.3305  134.9194  151.0821 H   0  0  0  0  0  0  0  0  0  0  0  0
  143.6641  134.9416  151.6721 H   0  0  0  0  0  0  0  0  0  0  0  0
  144.7998  133.7493  152.2964 H   0  0  0  0  0  0  0  0  0  0  0  0
  145.4798  137.3823  151.7918 H   0  0  0  0  0  0  0  0  0  0  0  0
  143.8323  137.2775  152.3768 H   0  0  0  0  0  0  0  0  0  0  0  0
  144.5394  137.8490  154.6642 H   0  0  0  0  0  0  0  0  0  0  0  0
  144.9860  139.1126  153.5870 H   0  0  0  0  0  0  0  0  0  0  0  0
  149.3533  137.2774  154.2448 H   0  0  0  0  0  0  0  0  0  0  0  0
  149.7864  138.3599  152.9715 H   0  0  0  0  0  0  0  0  0  0  0  0
  150.5047  139.2908  155.1352 H   0  0  0  0  0  0  0  0  0  0  0  0
  148.8851  139.2125  155.7680 H   0  0  0  0  0  0  0  0  0  0  0  0
  151.8529  141.1865  158.1874 H   0  0  0  0  0  0  0  0  0  0  0  0
  147.6533  137.6836  152.5753 H   0  0  0  0  0  0  0  0  0  0  0  0
  144.4703  135.5293  153.8171 H   0  0  0  0  0  0  0  0  0  0  0  0
  1  2  1  0  0  0  0
  1 26  1  0  0  0  0
  1 27  1  0  0  0  0
  1 28  1  0  0  0  0
  2 25  1  0  0  0  0
  2  3  2  0  0  0  0
  3  4  1  0  0  0  0
  3 29  1  0  0  0  0
  4  5  1  0  0  0  0
  4  6  2  0  0  0  0
  5 30  1  0  0  0  0
  5 31  1  0  0  0  0
  5 32  1  0  0  0  0
  6  7  1  0  0  0  0
  7  8  1  0  0  0  0
  7 25  2  0  0  0  0
  8  9  1  0  0  0  0
  8 33  1  0  0  0  0
  9 10  2  0  0  0  0
  9 11  1  0  0  0  0
 11 12  1  0  0  0  0
 11 34  1  0  0  0  0
 12 24  1  0  0  0  0
 12 13  1  0  0  0  0
 12 35  1  0  0  0  0
 13 14  1  0  0  0  0
 13 36  1  0  0  0  0
 13 37  1  0  0  0  0
 14 15  1  0  0  0  0
 14 38  1  0  0  0  0
 14 39  1  0  0  0  0
 15 16  1  0  0  0  0
 15 23  1  0  0  0  0
 15 57  1  0  0  0  0
 16 22  1  0  0  0  0
 16 17  1  0  0  0  0
 16 40  1  0  0  0  0
 17 18  1  0  0  0  0
 17 41  1  0  0  0  0
 17 42  1  0  0  0  0
 18 19  1  0  0  0  0
 18 43  1  0  0  0  0
 18 44  1  0  0  0  0
 19 20  1  0  0  0  0
 19 21  1  0  0  0  0
 19 58  1  0  0  0  0
 20 45  1  0  0  0  0
 20 46  1  0  0  0  0
 20 47  1  0  0  0  0
 21 22  1  0  0  0  0
 21 48  1  0  0  0  0
 21 49  1  0  0  0  0
 22 50  1  0  0  0  0
 22 51  1  0  0  0  0
 23 24  1  0  0  0  0
 23 52  1  0  0  0  0
 23 53  1  0  0  0  0
 24 54  1  0  0  0  0
 24 55  1  0  0  0  0
 25 56  1  0  0  0  0
M  CHG  1  15   1
M  CHG  1  19   1
M  END
> <s_m_source_file>
AV-unprocessed.smi

> <i_m_source_file_index>
2279

> <i_lp_mmshare_version>
43012

> <i_f3d_flags>
0

> <s_epik_input>
W0NIM11jMVtjSF1jKFtDSDNdKW5jKFtjSF0xKVtOSF1DKD1PKVtOSF1bQ0hdMltDSDJdW0NIMl1OKFtDSDJdW0NIMl0yKVtDSF0zW0NIMl1bQ0gyXU4oW0NIM10pW0NIMl1bQ0gyXTM=

> <s_epik_cmdline>
J2VwaWtfcHl0aG9uJywgJy1waCcsICc3LjAnLCAnLXRuJywgJzgnLCAnLW1hJywgJzIwMCcsICctbWV0YWxfYmluZGluZycsICctaW1hZScsICc8aW5maWxlLm1hZT4nLCAnLW9tYWUnLCAnPG91dGZpbGUubWFlPic=

> <r_epik_Ionization_Penalty>
0.180973

> <r_epik_Ionization_Penalty_Charging>
0.180787

> <r_epik_Ionization_Penalty_Neutral>
0.000186186

> <r_epik_State_Penalty>
0.153592

> <r_epik_Charging_Adjusted_Penalty>
0.334379

> <i_epik_Tot_Q>
2

> <i_epik_Tot_abs_Q>
2

> <r_epik_Metal_State_Penalty>
0.153604

> <b_epik_Metal_Only>
0

> <s_lp_Force_Field>
OPLS_2005

> <r_lp_Energy>
49.6144

> <b_lp_Chiralities_Consistent>
1

> <s_lp_Variant>
AV-unprocessed.smi:2279-4

> <Gold.Version>
5.8.1

> <Gold.Id.Protein>
6NUR|6NUR_protein|mol2

> <Gold.PLP.Fitness>
45.4463

> <Gold.PLP.PLP>
-39.1871

> <Gold.PLP.part.hbond>
-2.9220

> <Gold.PLP.part.metal>
0.0000

> <Gold.PLP.part.buried>
2.1893

> <Gold.PLP.part.nonpolar>
-39.1257

> <Gold.PLP.part.repulsive>
0.3411

> <Gold.PLP.ligand.clash>
0.0674

> <Gold.PLP.ligand.torsion>
0.4359

> <Gold.PLP.Chemscore.Hbond>
2.3838

> <Gold.PLP.Chemscore.CHOScore>
0.0000

> <Gold.PLP.Chemscore.Metal>
0.0000

> <Gold.Chemscore.Hbonds>
donor molecule, donor type, donor heavy atom, donor atom, acceptor molecule, acceptor atom, score
      L1  H     8    33       P1  8028  0.77
      L1  H    11    34       P1  8028  0.37
      L1  H    15    57       P1  7948  1.22

> <Gold.PLP.Chemscore.Internal.Correction>
0.0469

> <Gold.Rescore>
     Score         DG    S(hbond)    S(metal)    S(lipo)     H(rot)  DE(clash)    DE(int)     intcor
     18.25     -24.82       2.41        0.00     122.86       1.21       3.14       3.43       ----

> <Gold.Chemscore.Fitness>
18.2490

> <Gold.Chemscore.DG>
-24.8173

> <Gold.Chemscore.ZeroCoef>
-5.4800

> <Gold.Chemscore.Hbond>
2.4129

> <Gold.Chemscore.Metal>
0.0000

> <Gold.Chemscore.Lipo>
122.8580

> <Gold.Chemscore.Internal_Hbond>
0.0000

> <Gold.Chemscore.DEClash>
3.1398

> <Gold.Chemscore.DEInternal>
3.4285

> <Gold.Chemscore.Rot>
1.2095

> <Gold.Chemscore.Internal.Correction>
   9.000000E+99

> <Gold.Chemscore.Hbonds>
donor molecule, donor type, donor heavy atom, donor atom, acceptor molecule, acceptor atom, score
      L1  H     8    33       P1  8028  0.75
      L1  H    11    34       P1  8028  0.37
      L1  H    15    57       P1  7948  0.58

> <Gold.Chemscore.Hbond.Weighted>
-8.0592

> <Gold.Chemscore.Metal.Weighted>
-0.0000

> <Gold.Chemscore.Lipo.Weighted>
-14.3744

> <Gold.Chemscore.Internal_Hbond.Weighted>
0.0000

> <Gold.Chemscore.DEClash.Weighted>
3.1398

> <Gold.Chemscore.DEInternal.Weighted>
3.4285

> <Gold.Chemscore.Rot.Weighted>
3.0963

> <Gold.Chemscore.Internal.Correction.Weighted>
   9.000000E+99

> <Gold.Protein.RotatedTorsions>
[ 6907 6896 6895 6894 ] final -164.23 input  -60.11 | X-H torsion
[ 7974 7965 7964 7962 ] final  153.12 input  175.53 | X-H torsion
[ 8008 7997 7996 7995 ] final -136.29 input   59.86 | X-H torsion
[ 10167 10162 10161 10158 ] final  -48.93 input  -65.29 | X-H torsion
[ 10718 10713 10712 10709 ] final   19.65 input   66.30 | X-H torsion
[ 10763 10752 10751 10750 ] final -165.73 input  -60.55 | X-H torsion
[ 11005 11000 10999 10996 ] final  151.50 input  -57.11 | X-H torsion

> <Gold.Protein.ActiveResidues>
 VAL166  LYS551  ARG553  GLY616  TRP617  ASP618  TYR619  PRO620  LYS621  CYS622 
 ASP623  PHE694  ASN695  SER759  ASP760  ASP761  ALA762  ILE779  LEU786  VAL792 
 PHE793  MET794  SER795  GLU796  ALA797  LYS798  CYS799  TRP800  GLU811  SER814 

> <Gold.Protein.RotatedAtoms>
  151.4086  133.3734  159.2740 H   0  0  0  0  0  0  0  0  0  0  0  0  # atno 6907 bound_to 6896
  150.9380  134.8792  159.7604 H   0  0  0  0  0  0  0  0  0  0  0  0  # atno 6908 bound_to 6896
  152.5058  134.4035  159.9476 H   0  0  0  0  0  0  0  0  0  0  0  0  # atno 6909 bound_to 6896
  144.8176  139.6759  143.6114 H   0  0  0  0  0  0  0  0  0  0  0  0  # atno 7974 bound_to 7965
  155.3927  140.0501  157.3040 H   0  0  0  0  0  0  0  0  0  0  0  0  # atno 8008 bound_to 7997
  154.5028  140.2163  155.9272 H   0  0  0  0  0  0  0  0  0  0  0  0  # atno 8009 bound_to 7997
  156.1489  140.3140  155.8620 H   0  0  0  0  0  0  0  0  0  0  0  0  # atno 8010 bound_to 7997
  140.6708  143.2719  151.4142 H   0  0  0  0  0  0  0  0  0  0  0  0  # atno 10167 bound_to 10162
  157.1134  130.6518  149.5903 H   0  0  0  0  0  0  0  0  0  0  0  0  # atno 10718 bound_to 10713
  154.6903  135.2969  154.9488 H   0  0  0  0  0  0  0  0  0  0  0  0  # atno 10763 bound_to 10752
  154.0453  135.6652  153.4798 H   0  0  0  0  0  0  0  0  0  0  0  0  # atno 10764 bound_to 10752
  153.0608  135.5117  154.7993 H   0  0  0  0  0  0  0  0  0  0  0  0  # atno 10765 bound_to 10752
  140.1225  134.8854  157.2091 H   0  0  0  0  0  0  0  0  0  0  0  0  # atno 11005 bound_to 11000
  146.2480  139.6138  142.9447 LP  0  0  0  0  0  0  0  0  0  0  0  0  # atno 17320 bound_to 7965
  145.5179  141.0433  143.2451 LP  0  0  0  0  0  0  0  0  0  0  0  0  # atno 17321 bound_to 7965
  139.5976  144.1363  152.2162 LP  0  0  0  0  0  0  0  0  0  0  0  0  # atno 17342 bound_to 10162
  140.0738  144.5757  150.7172 LP  0  0  0  0  0  0  0  0  0  0  0  0  # atno 17343 bound_to 10162
  155.9845  130.4870  150.6986 LP  0  0  0  0  0  0  0  0  0  0  0  0  # atno 17370 bound_to 10713
  157.4540  131.0875  151.0816 LP  0  0  0  0  0  0  0  0  0  0  0  0  # atno 17371 bound_to 10713
  140.2947  134.3200  155.7305 LP  0  0  0  0  0  0  0  0  0  0  0  0  # atno 17394 bound_to 11000
  141.2154  133.7555  156.9554 LP  0  0  0  0  0  0  0  0  0  0  0  0  # atno 17395 bound_to 11000

$$$$
