AV-unprocessed.smi:2607|AV-procd|sdf|10201|dock4
  -GOLD-   2272014213D 1   1.00000     0.00000
 Structure written by MMmdl.
 21 22  0  0  0  0  0  0  0  0  2 V2000
  149.9611  139.6283  157.9720 C   0  0  0  0  0  0  0  0  0  0  0  0
  150.6153  140.6818  157.0554 C   0  0  2  0  0  0  0  0  0  0  0  0
  151.3462  141.7684  157.8641 C   0  0  0  0  0  0  0  0  0  0  0  0
  151.0087  143.1435  157.7741 C   0  0  0  0  0  0  0  0  0  0  0  0
  151.6574  144.0918  158.4862 N   0  0  0  0  0  0  0  0  0  0  0  0
  152.6519  143.6678  159.2953 C   0  0  0  0  0  0  0  0  0  0  0  0
  152.9944  142.3040  159.3952 C   0  0  0  0  0  0  0  0  0  0  0  0
  152.3447  141.3562  158.6859 N   0  0  0  0  0  0  0  0  0  0  0  0
  149.6047  141.2212  156.1652 N   0  0  0  0  0  0  0  0  0  0  0  0
  149.9004  140.9963  154.8869 C   0  0  0  0  0  0  0  0  0  0  0  0
  149.1791  141.3980  153.9767 O   0  0  0  0  0  0  0  0  0  0  0  0
  151.0467  140.2969  154.7928 N   0  5  0  0  0  0  0  0  0  0  0  0
  151.5498  140.0331  156.0188 C   0  0  0  0  0  0  0  0  0  0  0  0
  152.5480  139.3864  156.3356 O   0  0  0  0  0  0  0  0  0  0  0  0
  150.6963  139.1435  158.6151 H   0  0  0  0  0  0  0  0  0  0  0  0
  149.4675  138.8448  157.3952 H   0  0  0  0  0  0  0  0  0  0  0  0
  149.2097  140.0839  158.6176 H   0  0  0  0  0  0  0  0  0  0  0  0
  150.2177  143.5009  157.1322 H   0  0  0  0  0  0  0  0  0  0  0  0
  153.1770  144.4190  159.8663 H   0  0  0  0  0  0  0  0  0  0  0  0
  153.7901  141.9732  160.0462 H   0  0  0  0  0  0  0  0  0  0  0  0
  148.7926  141.7255  156.4883 H   0  0  0  0  0  0  0  0  0  0  0  0
  1  2  1  0  0  0  0
  1 15  1  0  0  0  0
  1 16  1  0  0  0  0
  1 17  1  0  0  0  0
  2 13  1  0  0  0  0
  2  3  1  0  0  0  0
  2  9  1  0  0  0  0
  3  8  1  0  0  0  0
  3  4  2  0  0  0  0
  4  5  1  0  0  0  0
  4 18  1  0  0  0  0
  5  6  2  0  0  0  0
  6  7  1  0  0  0  0
  6 19  1  0  0  0  0
  7  8  2  0  0  0  0
  7 20  1  0  0  0  0
  9 10  1  0  0  0  0
  9 21  1  0  0  0  0
 10 11  2  0  0  0  0
 10 12  1  0  0  0  0
 12 13  1  0  0  0  0
 13 14  2  0  0  0  0
M  CHG  1  12  -1
M  END
> <s_m_source_file>
AV-unprocessed.smi

> <i_m_source_file_index>
2607

> <i_lp_mmshare_version>
43012

> <i_f3d_flags>
0

> <s_epik_input>
Tz1DMVtOSF1DKD1PKVtOSF1bQ0BAXTEoW0NIM10pYzJbY0hdbltjSF1bY0hdbjI=

> <s_epik_cmdline>
J2VwaWtfcHl0aG9uJywgJy1waCcsICc3LjAnLCAnLXRuJywgJzgnLCAnLW1hJywgJzIwMCcsICctbWV0YWxfYmluZGluZycsICctaW1hZScsICc8aW5maWxlLm1hZT4nLCAnLW9tYWUnLCAnPG91dGZpbGUubWFlPic=

> <r_lp_tautomer_probability>
1

> <r_epik_Ionization_Penalty>
1.72482

> <r_epik_Ionization_Penalty_Charging>
1.72482

> <r_epik_Ionization_Penalty_Neutral>
2.42073e-06

> <r_epik_State_Penalty>
1.83265

> <r_epik_Charging_Adjusted_Penalty>
3.55747

> <i_epik_Tot_Q>
-1

> <i_epik_Tot_abs_Q>
1

> <r_epik_Metal_State_Penalty>
0.535818

> <b_epik_Metal_Only>
0

> <s_lp_Force_Field>
OPLS_2005

> <r_lp_Energy>
15.5794

> <b_lp_Chiralities_Consistent>
1

> <s_lp_Variant>
AV-unprocessed.smi:2607-4

> <Gold.Version>
5.8.1

> <Gold.Id.Protein>
6NUR|6NUR_protein|mol2

> <Gold.PLP.Fitness>
36.7530

> <Gold.PLP.PLP>
-25.5112

> <Gold.PLP.part.hbond>
-3.8813

> <Gold.PLP.part.metal>
0.0000

> <Gold.PLP.part.buried>
-3.5850

> <Gold.PLP.part.nonpolar>
-19.0550

> <Gold.PLP.part.repulsive>
0.4015

> <Gold.PLP.ligand.clash>
0.0000

> <Gold.PLP.ligand.torsion>
0.0484

> <Gold.PLP.Chemscore.Hbond>
2.7520

> <Gold.PLP.Chemscore.CHOScore>
1.0000

> <Gold.PLP.Chemscore.Metal>
0.0000

> <Gold.Chemscore.Hbonds>
donor molecule, donor type, donor heavy atom, donor atom, acceptor molecule, acceptor atom, score
      P1  H  7989  7998       L1    12  1.00
      P1  H  7997  8008       L1    14  1.00
      P1  H  8011  8017       L1    11  0.74
      L1  C     4    18       P1  8028  1.00

> <Gold.PLP.Chemscore.Internal.Correction>
0.0826

> <Gold.Rescore>
     Score         DG    S(hbond)    S(metal)    S(lipo)     H(rot)  DE(clash)    DE(int)     intcor
     14.40     -15.17       1.94        0.00      49.45       1.00       0.00       0.77       ----

> <Gold.Chemscore.Fitness>
14.3955

> <Gold.Chemscore.DG>
-15.1710

> <Gold.Chemscore.ZeroCoef>
-5.4800

> <Gold.Chemscore.Hbond>
1.9357

> <Gold.Chemscore.Metal>
0.0000

> <Gold.Chemscore.Lipo>
49.4504

> <Gold.Chemscore.Internal_Hbond>
0.0000

> <Gold.Chemscore.DEClash>
0.0015

> <Gold.Chemscore.DEInternal>
0.7740

> <Gold.Chemscore.Rot>
1.0000

> <Gold.Chemscore.Internal.Correction>
   9.000000E+99

> <Gold.Chemscore.Hbonds>
donor molecule, donor type, donor heavy atom, donor atom, acceptor molecule, acceptor atom, score
      P1  H  7989  7998       L1    12  0.28
      P1  H  7997  8008       L1    14  0.99
      P1  H  8011  8017       L1    11  0.69

> <Gold.Chemscore.Hbond.Weighted>
-6.4653

> <Gold.Chemscore.Metal.Weighted>
-0.0000

> <Gold.Chemscore.Lipo.Weighted>
-5.7857

> <Gold.Chemscore.Internal_Hbond.Weighted>
0.0000

> <Gold.Chemscore.DEClash.Weighted>
0.0015

> <Gold.Chemscore.DEInternal.Weighted>
0.7740

> <Gold.Chemscore.Rot.Weighted>
2.5600

> <Gold.Chemscore.Internal.Correction.Weighted>
   9.000000E+99

> <Gold.Protein.RotatedTorsions>
[ 6907 6896 6895 6894 ] final   63.66 input  -60.11 | X-H torsion
[ 7974 7965 7964 7962 ] final   62.92 input  175.53 | X-H torsion
[ 8008 7997 7996 7995 ] final  -43.46 input   59.86 | X-H torsion
[ 10167 10162 10161 10158 ] final    2.25 input  -65.29 | X-H torsion
[ 10718 10713 10712 10709 ] final   94.14 input   66.30 | X-H torsion
[ 10763 10752 10751 10750 ] final   87.71 input  -60.55 | X-H torsion
[ 11005 11000 10999 10996 ] final -107.07 input  -57.11 | X-H torsion

> <Gold.Protein.ActiveResidues>
 VAL166  LYS551  ARG553  GLY616  TRP617  ASP618  TYR619  PRO620  LYS621  CYS622 
 ASP623  PHE694  ASN695  SER759  ASP760  ASP761  ALA762  ILE779  LEU786  VAL792 
 PHE793  MET794  SER795  GLU796  ALA797  LYS798  CYS799  TRP800  GLU811  SER814 

> <Gold.Protein.RotatedAtoms>
  152.4271  134.5848  159.9957 H   0  0  0  0  0  0  0  0  0  0  0  0  # atno 6907 bound_to 6896
  151.5982  133.3353  159.3050 H   0  0  0  0  0  0  0  0  0  0  0  0  # atno 6908 bound_to 6896
  150.8161  134.7380  159.6796 H   0  0  0  0  0  0  0  0  0  0  0  0  # atno 6909 bound_to 6896
  145.8678  139.3357  143.0781 H   0  0  0  0  0  0  0  0  0  0  0  0  # atno 7974 bound_to 7965
  154.3997  140.1447  156.3523 H   0  0  0  0  0  0  0  0  0  0  0  0  # atno 8008 bound_to 7997
  155.8258  140.3467  155.5521 H   0  0  0  0  0  0  0  0  0  0  0  0  # atno 8009 bound_to 7997
  155.8240  140.0902  157.1822 H   0  0  0  0  0  0  0  0  0  0  0  0  # atno 8010 bound_to 7997
  140.6644  143.7218  150.7799 H   0  0  0  0  0  0  0  0  0  0  0  0  # atno 10167 bound_to 10162
  157.6950  131.0502  150.4141 H   0  0  0  0  0  0  0  0  0  0  0  0  # atno 10718 bound_to 10713
  153.1695  135.4533  154.9883 H   0  0  0  0  0  0  0  0  0  0  0  0  # atno 10763 bound_to 10752
  154.7956  135.3236  154.7677 H   0  0  0  0  0  0  0  0  0  0  0  0  # atno 10764 bound_to 10752
  153.8156  135.6951  153.4889 H   0  0  0  0  0  0  0  0  0  0  0  0  # atno 10765 bound_to 10752
  141.0972  133.8949  157.1932 H   0  0  0  0  0  0  0  0  0  0  0  0  # atno 11005 bound_to 11000
  145.9173  140.9139  143.0423 LP  0  0  0  0  0  0  0  0  0  0  0  0  # atno 17320 bound_to 7965
  144.6726  140.1241  143.7448 LP  0  0  0  0  0  0  0  0  0  0  0  0  # atno 17321 bound_to 7965
  140.0893  143.4893  152.2487 LP  0  0  0  0  0  0  0  0  0  0  0  0  # atno 17342 bound_to 10162
  139.5888  144.7542  151.3452 LP  0  0  0  0  0  0  0  0  0  0  0  0  # atno 17343 bound_to 10162
  156.4522  130.4014  149.6628 LP  0  0  0  0  0  0  0  0  0  0  0  0  # atno 17370 bound_to 10713
  156.3774  130.7561  151.2551 LP  0  0  0  0  0  0  0  0  0  0  0  0  # atno 17371 bound_to 10713
  139.9813  135.0097  156.9756 LP  0  0  0  0  0  0  0  0  0  0  0  0  # atno 17394 bound_to 11000
  140.5110  134.1002  155.7270 LP  0  0  0  0  0  0  0  0  0  0  0  0  # atno 17395 bound_to 11000

$$$$
