AV-unprocessed.smi:2739|AV-procd|sdf|10550|dock9
  -GOLD-   2272015 03D 1   1.00000     0.00000
 Structure written by MMmdl.
 35 35  0  0  0  0  0  0  0  0  1 V2000
  152.4870  143.5973  160.8031 C   0  0  0  0  0  0  0  0  0  0  0  0
  152.0124  142.9739  159.4827 C   0  0  0  0  0  0  0  0  0  0  0  0
  151.8643  143.9913  158.3360 C   0  0  2  0  0  0  0  0  0  0  0  0
  151.3371  145.3425  158.8438 C   0  0  0  0  0  0  0  0  0  0  0  0
  150.9690  143.4684  157.3070 N   0  0  0  0  0  0  0  0  0  0  0  0
  150.9446  142.2016  156.8642 C   0  0  0  0  0  0  0  0  0  0  0  0
  151.6696  141.3104  157.3059 O   0  0  0  0  0  0  0  0  0  0  0  0
  149.9611  141.8960  155.7348 C   0  0  0  0  0  0  0  0  0  0  0  0
  150.1010  140.5212  155.2908 N   0  0  0  0  0  0  0  0  0  0  0  0
  149.1109  139.6372  154.9195 C   0  0  0  0  0  0  0  0  0  0  0  0
  149.7201  138.4585  154.5988 C   0  0  0  0  0  0  0  0  0  0  0  0
  151.1061  138.7154  154.8105 C   0  0  0  0  0  0  0  0  0  0  0  0
  152.2733  137.7823  154.6207 C   0  0  2  0  0  0  0  0  0  0  0  0
  153.6093  138.5356  154.6711 C   0  0  0  0  0  0  0  0  0  0  0  0
  152.2026  137.0850  153.3942 O   0  0  0  0  0  0  0  0  0  0  0  0
  151.3263  139.9568  155.2204 N   0  0  0  0  0  0  0  0  0  0  0  0
  152.5268  142.8462  161.5923 H   0  0  0  0  0  0  0  0  0  0  0  0
  151.8093  144.3863  161.1307 H   0  0  0  0  0  0  0  0  0  0  0  0
  153.4839  144.0284  160.7086 H   0  0  0  0  0  0  0  0  0  0  0  0
  152.7029  142.1821  159.1888 H   0  0  0  0  0  0  0  0  0  0  0  0
  151.0512  142.4880  159.6554 H   0  0  0  0  0  0  0  0  0  0  0  0
  152.8542  144.1526  157.9051 H   0  0  0  0  0  0  0  0  0  0  0  0
  151.9961  145.7598  159.6055 H   0  0  0  0  0  0  0  0  0  0  0  0
  150.3435  145.2411  159.2820 H   0  0  0  0  0  0  0  0  0  0  0  0
  151.2710  146.0701  158.0341 H   0  0  0  0  0  0  0  0  0  0  0  0
  150.3362  144.1283  156.8784 H   0  0  0  0  0  0  0  0  0  0  0  0
  148.9383  142.0516  156.0808 H   0  0  0  0  0  0  0  0  0  0  0  0
  150.1222  142.5719  154.8930 H   0  0  0  0  0  0  0  0  0  0  0  0
  148.0676  139.9168  154.9183 H   0  0  0  0  0  0  0  0  0  0  0  0
  149.2469  137.5469  154.2654 H   0  0  0  0  0  0  0  0  0  0  0  0
  152.2686  137.0306  155.4111 H   0  0  0  0  0  0  0  0  0  0  0  0
  153.7365  139.0455  155.6263 H   0  0  0  0  0  0  0  0  0  0  0  0
  153.6705  139.2866  153.8826 H   0  0  0  0  0  0  0  0  0  0  0  0
  154.4509  137.8533  154.5481 H   0  0  0  0  0  0  0  0  0  0  0  0
  151.3895  137.3118  152.9695 H   0  0  0  0  0  0  0  0  0  0  0  0
  1  2  1  0  0  0  0
  1 17  1  0  0  0  0
  1 18  1  0  0  0  0
  1 19  1  0  0  0  0
  2  3  1  0  0  0  0
  2 20  1  0  0  0  0
  2 21  1  0  0  0  0
  3  4  1  0  0  0  0
  3  5  1  0  0  0  0
  3 22  1  0  0  0  0
  4 23  1  0  0  0  0
  4 24  1  0  0  0  0
  4 25  1  0  0  0  0
  5  6  1  0  0  0  0
  5 26  1  0  0  0  0
  6  7  2  0  0  0  0
  6  8  1  0  0  0  0
  8  9  1  0  0  0  0
  8 27  1  0  0  0  0
  8 28  1  0  0  0  0
  9 16  1  0  0  0  0
  9 10  1  0  0  0  0
 10 11  2  0  0  0  0
 10 29  1  0  0  0  0
 11 12  1  0  0  0  0
 11 30  1  0  0  0  0
 12 13  1  0  0  0  0
 12 16  2  0  0  0  0
 13 14  1  0  0  0  0
 13 15  1  0  0  0  0
 13 31  1  0  0  0  0
 14 32  1  0  0  0  0
 14 33  1  0  0  0  0
 14 34  1  0  0  0  0
 15 35  1  0  0  0  0
M  END
> <s_m_source_file>
AV-unprocessed.smi

> <i_m_source_file_index>
2739

> <i_lp_mmshare_version>
43012

> <i_f3d_flags>
0

> <s_epik_input>
W0NIM11bQ0gyXVtDQEhdKFtDSDNdKVtOSF1DKD1PKVtDSDJdbjFbY0hdW2NIXWMobjEpW0NASF0oW0NIM10pW09IXQ==

> <s_epik_cmdline>
J2VwaWtfcHl0aG9uJywgJy1waCcsICc3LjAnLCAnLXRuJywgJzgnLCAnLW1hJywgJzIwMCcsICctbWV0YWxfYmluZGluZycsICctaW1hZScsICc8aW5maWxlLm1hZT4nLCAnLW9tYWUnLCAnPG91dGZpbGUubWFlPic=

> <r_lp_tautomer_probability>
1

> <r_epik_Ionization_Penalty>
5.22246e-06

> <r_epik_Ionization_Penalty_Charging>
0

> <r_epik_Ionization_Penalty_Neutral>
5.22246e-06

> <r_epik_State_Penalty>
-0

> <r_epik_Charging_Adjusted_Penalty>
0

> <i_epik_Tot_Q>
0

> <i_epik_Tot_abs_Q>
0

> <r_epik_Metal_State_Penalty>
-0

> <b_epik_Metal_Only>
0

> <s_lp_Force_Field>
OPLS_2005

> <r_lp_Energy>
0.862384

> <b_lp_Chiralities_Consistent>
1

> <s_lp_Variant>
AV-unprocessed.smi:2739-1

> <Gold.Version>
5.8.1

> <Gold.Id.Protein>
6NUR|6NUR_protein|mol2

> <Gold.PLP.Fitness>
40.7066

> <Gold.PLP.PLP>
-34.7313

> <Gold.PLP.part.hbond>
-3.6189

> <Gold.PLP.part.metal>
0.0000

> <Gold.PLP.part.buried>
0.1557

> <Gold.PLP.part.nonpolar>
-32.4264

> <Gold.PLP.part.repulsive>
0.0405

> <Gold.PLP.ligand.clash>
0.0000

> <Gold.PLP.ligand.torsion>
1.0699

> <Gold.PLP.Chemscore.Hbond>
2.6960

> <Gold.PLP.Chemscore.CHOScore>
0.0000

> <Gold.PLP.Chemscore.Metal>
0.0000

> <Gold.Chemscore.Hbonds>
donor molecule, donor type, donor heavy atom, donor atom, acceptor molecule, acceptor atom, score
      L1  H     5    26       P1  8028  1.00
      L1  H    15    35       P1  7949  0.11
      P1  H  7989  7998       L1    16  0.50
      P1  H 10752 10764       L1    15  1.00

> <Gold.PLP.Chemscore.Internal.Correction>
0.0271

> <Gold.Rescore>
     Score         DG    S(hbond)    S(metal)    S(lipo)     H(rot)  DE(clash)    DE(int)     intcor
     11.35     -16.41       1.90        0.00      90.64       2.34       0.82       4.25       ----

> <Gold.Chemscore.Fitness>
11.3466

> <Gold.Chemscore.DG>
-16.4135

> <Gold.Chemscore.ZeroCoef>
-5.4800

> <Gold.Chemscore.Hbond>
1.8957

> <Gold.Chemscore.Metal>
0.0000

> <Gold.Chemscore.Lipo>
90.6386

> <Gold.Chemscore.Internal_Hbond>
0.0000

> <Gold.Chemscore.DEClash>
0.8181

> <Gold.Chemscore.DEInternal>
4.2488

> <Gold.Chemscore.Rot>
2.3448

> <Gold.Chemscore.Internal.Correction>
   9.000000E+99

> <Gold.Chemscore.Hbonds>
donor molecule, donor type, donor heavy atom, donor atom, acceptor molecule, acceptor atom, score
      L1  H     5    26       P1  8028  0.95
      L1  H    15    35       P1  7949  0.10
      P1  H  7989  7998       L1    16  0.01
      P1  H 10752 10764       L1    15  0.25

> <Gold.Chemscore.Hbond.Weighted>
-6.3316

> <Gold.Chemscore.Metal.Weighted>
-0.0000

> <Gold.Chemscore.Lipo.Weighted>
-10.6047

> <Gold.Chemscore.Internal_Hbond.Weighted>
0.0000

> <Gold.Chemscore.DEClash.Weighted>
0.8181

> <Gold.Chemscore.DEInternal.Weighted>
4.2488

> <Gold.Chemscore.Rot.Weighted>
6.0027

> <Gold.Chemscore.Internal.Correction.Weighted>
   9.000000E+99

> <Gold.Protein.RotatedTorsions>
[ 6907 6896 6895 6894 ] final   57.87 input  -60.11 | X-H torsion
[ 7974 7965 7964 7962 ] final  159.85 input  175.53 | X-H torsion
[ 8008 7997 7996 7995 ] final  -69.77 input   59.86 | X-H torsion
[ 10167 10162 10161 10158 ] final   59.86 input  -65.29 | X-H torsion
[ 10718 10713 10712 10709 ] final  106.19 input   66.30 | X-H torsion
[ 10763 10752 10751 10750 ] final -114.56 input  -60.55 | X-H torsion
[ 11005 11000 10999 10996 ] final  -89.56 input  -57.11 | X-H torsion

> <Gold.Protein.ActiveResidues>
 VAL166  LYS551  ARG553  GLY616  TRP617  ASP618  TYR619  PRO620  LYS621  CYS622 
 ASP623  PHE694  ASN695  SER759  ASP760  ASP761  ALA762  ILE779  LEU786  VAL792 
 PHE793  MET794  SER795  GLU796  ALA797  LYS798  CYS799  TRP800  GLU811  SER814 

> <Gold.Protein.RotatedAtoms>
  152.3772  134.6646  160.0155 H   0  0  0  0  0  0  0  0  0  0  0  0  # atno 6907 bound_to 6896
  151.6920  133.3305  159.3253 H   0  0  0  0  0  0  0  0  0  0  0  0  # atno 6908 bound_to 6896
  150.7719  134.6626  159.6392 H   0  0  0  0  0  0  0  0  0  0  0  0  # atno 6909 bound_to 6896
  144.7768  139.7674  143.6275 H   0  0  0  0  0  0  0  0  0  0  0  0  # atno 7974 bound_to 7965
  154.4963  140.0847  156.7703 H   0  0  0  0  0  0  0  0  0  0  0  0  # atno 8008 bound_to 7997
  155.4110  140.3441  155.4245 H   0  0  0  0  0  0  0  0  0  0  0  0  # atno 8009 bound_to 7997
  156.1397  140.1526  156.8927 H   0  0  0  0  0  0  0  0  0  0  0  0  # atno 8010 bound_to 7997
  140.1719  144.4268  150.6657 H   0  0  0  0  0  0  0  0  0  0  0  0  # atno 10167 bound_to 10162
  157.6677  131.0845  150.5970 H   0  0  0  0  0  0  0  0  0  0  0  0  # atno 10718 bound_to 10713
  154.8445  135.4413  154.1525 H   0  0  0  0  0  0  0  0  0  0  0  0  # atno 10763 bound_to 10752
  153.2682  135.6942  153.7514 H   0  0  0  0  0  0  0  0  0  0  0  0  # atno 10764 bound_to 10752
  153.6765  135.3410  155.3142 H   0  0  0  0  0  0  0  0  0  0  0  0  # atno 10765 bound_to 10752
  141.1582  133.7638  156.9613 H   0  0  0  0  0  0  0  0  0  0  0  0  # atno 11005 bound_to 11000
  146.1953  139.5215  142.9779 LP  0  0  0  0  0  0  0  0  0  0  0  0  # atno 17320 bound_to 7965
  145.6163  141.0331  143.1939 LP  0  0  0  0  0  0  0  0  0  0  0  0  # atno 17321 bound_to 7965
  140.6576  143.2242  151.5931 LP  0  0  0  0  0  0  0  0  0  0  0  0  # atno 17342 bound_to 10162
  139.5334  144.2850  152.1198 LP  0  0  0  0  0  0  0  0  0  0  0  0  # atno 17343 bound_to 10162
  156.6270  130.4421  149.5800 LP  0  0  0  0  0  0  0  0  0  0  0  0  # atno 17370 bound_to 10713
  156.2311  130.6795  151.1464 LP  0  0  0  0  0  0  0  0  0  0  0  0  # atno 17371 bound_to 10713
  140.1191  134.9428  157.2177 LP  0  0  0  0  0  0  0  0  0  0  0  0  # atno 17394 bound_to 11000
  140.3095  134.3040  155.7270 LP  0  0  0  0  0  0  0  0  0  0  0  0  # atno 17395 bound_to 11000

$$$$
