AV-unprocessed.smi:2424|AV-procd|sdf|9570|dock3
  -GOLD-   2272013203D 1   1.00000     0.00000
 Structure written by MMmdl.
 49 50  0  0  0  0  0  0  0  0  2 V2000
  143.0063  135.1792  154.0556 C   0  0  0  0  0  0  0  0  0  0  0  0
  143.6777  134.4452  152.8809 C   0  0  0  0  0  0  0  0  0  0  0  0
  145.1432  134.8595  152.5583 C   0  0  0  0  0  0  0  0  0  0  0  0
  145.1198  136.2960  151.9845 C   0  0  0  0  0  0  0  0  0  0  0  0
  144.7499  137.4051  152.9803 C   0  0  0  0  0  0  0  0  0  0  0  0
  146.2105  134.5142  153.6436 C   0  0  2  0  0  0  0  0  0  0  0  0
  147.3991  135.3714  153.5801 N   0  0  0  0  0  0  0  0  0  0  0  0
  148.0244  135.9106  154.6348 C   0  0  0  0  0  0  0  0  0  0  0  0
  147.6775  135.7163  155.7993 O   0  0  0  0  0  0  0  0  0  0  0  0
  149.0419  136.6935  154.2339 N   0  0  0  0  0  0  0  0  0  0  0  0
  149.9509  137.4206  155.0139 C   0  0  0  0  0  0  0  0  0  0  0  0
  149.7901  137.8390  156.3276 C   0  0  0  0  0  0  0  0  0  0  0  0
  150.6607  138.5256  157.1005 N   0  5  0  0  0  0  0  0  0  0  0  0
  151.8658  138.8754  156.5667 C   0  0  0  0  0  0  0  0  0  0  0  0
  152.7034  139.5041  157.2127 O   0  0  0  0  0  0  0  0  0  0  0  0
  152.1668  138.4854  155.1752 C   0  0  0  0  0  0  0  0  0  0  0  0
  153.5088  138.8747  154.5795 C   0  0  0  0  0  0  0  0  0  0  0  0
  151.2436  137.7954  154.4615 C   0  0  0  0  0  0  0  0  0  0  0  0
  146.4400  133.1619  152.9425 C   0  0  2  0  0  0  0  0  0  0  0  0
  147.8191  132.5075  152.9609 C   0  0  0  0  0  0  0  0  0  0  0  0
  145.9235  133.8518  151.6702 C   0  0  1  0  0  0  0  0  0  0  0  0
  145.0876  133.0657  150.8330 O   0  0  0  0  0  0  0  0  0  0  0  0
  145.8086  132.2296  149.9456 C   0  0  0  0  0  0  0  0  0  0  0  0
  141.9370  134.9682  154.0738 H   0  0  0  0  0  0  0  0  0  0  0  0
  143.1270  136.2595  154.0029 H   0  0  0  0  0  0  0  0  0  0  0  0
  143.4080  134.8471  155.0126 H   0  0  0  0  0  0  0  0  0  0  0  0
  143.6169  133.3820  153.1115 H   0  0  0  0  0  0  0  0  0  0  0  0
  143.0490  134.5652  151.9977 H   0  0  0  0  0  0  0  0  0  0  0  0
  146.0963  136.5437  151.5677 H   0  0  0  0  0  0  0  0  0  0  0  0
  144.4432  136.3489  151.1310 H   0  0  0  0  0  0  0  0  0  0  0  0
  144.9276  138.3867  152.5410 H   0  0  0  0  0  0  0  0  0  0  0  0
  145.3415  137.3414  153.8933 H   0  0  0  0  0  0  0  0  0  0  0  0
  143.6956  137.3648  153.2508 H   0  0  0  0  0  0  0  0  0  0  0  0
  145.8165  134.3901  154.6512 H   0  0  0  0  0  0  0  0  0  0  0  0
  147.7518  135.5910  152.6603 H   0  0  0  0  0  0  0  0  0  0  0  0
  149.1679  136.7907  153.2372 H   0  0  0  0  0  0  0  0  0  0  0  0
  148.8539  137.5725  156.8570 H   0  0  0  0  0  0  0  0  0  0  0  0
  153.6061  138.5194  153.5534 H   0  0  0  0  0  0  0  0  0  0  0  0
  154.3238  138.4464  155.1636 H   0  0  0  0  0  0  0  0  0  0  0  0
  153.6215  139.9594  154.5727 H   0  0  0  0  0  0  0  0  0  0  0  0
  151.4709  137.5151  153.4435 H   0  0  0  0  0  0  0  0  0  0  0  0
  145.6880  132.4583  153.3048 H   0  0  0  0  0  0  0  0  0  0  0  0
  148.5553  133.0995  152.4167 H   0  0  0  0  0  0  0  0  0  0  0  0
  147.7949  131.5172  152.5071 H   0  0  0  0  0  0  0  0  0  0  0  0
  148.1817  132.3882  153.9820 H   0  0  0  0  0  0  0  0  0  0  0  0
  146.7255  134.3360  151.1078 H   0  0  0  0  0  0  0  0  0  0  0  0
  145.1098  131.6945  149.3026 H   0  0  0  0  0  0  0  0  0  0  0  0
  146.3968  131.4889  150.4865 H   0  0  0  0  0  0  0  0  0  0  0  0
  146.4751  132.8109  149.3071 H   0  0  0  0  0  0  0  0  0  0  0  0
  1  2  1  0  0  0  0
  1 24  1  0  0  0  0
  1 25  1  0  0  0  0
  1 26  1  0  0  0  0
  2  3  1  0  0  0  0
  2 27  1  0  0  0  0
  2 28  1  0  0  0  0
  3 21  1  0  0  0  0
  3  4  1  0  0  0  0
  3  6  1  0  0  0  0
  4  5  1  0  0  0  0
  4 29  1  0  0  0  0
  4 30  1  0  0  0  0
  5 31  1  0  0  0  0
  5 32  1  0  0  0  0
  5 33  1  0  0  0  0
  6  7  1  0  0  0  0
  6 19  1  0  0  0  0
  6 34  1  0  0  0  0
  7  8  1  0  0  0  0
  7 35  1  0  0  0  0
  8  9  2  0  0  0  0
  8 10  1  0  0  0  0
 10 11  1  0  0  0  0
 10 36  1  0  0  0  0
 11 18  1  0  0  0  0
 11 12  2  0  0  0  0
 12 13  1  0  0  0  0
 12 37  1  0  0  0  0
 13 14  1  0  0  0  0
 14 15  2  0  0  0  0
 14 16  1  0  0  0  0
 16 17  1  0  0  0  0
 16 18  2  0  0  0  0
 17 38  1  0  0  0  0
 17 39  1  0  0  0  0
 17 40  1  0  0  0  0
 18 41  1  0  0  0  0
 19 20  1  0  0  0  0
 19 21  1  0  0  0  0
 19 42  1  0  0  0  0
 20 43  1  0  0  0  0
 20 44  1  0  0  0  0
 20 45  1  0  0  0  0
 21 22  1  0  0  0  0
 21 46  1  0  0  0  0
 22 23  1  0  0  0  0
 23 47  1  0  0  0  0
 23 48  1  0  0  0  0
 23 49  1  0  0  0  0
M  CHG  1  13  -1
M  END
> <s_m_source_file>
AV-unprocessed.smi

> <i_m_source_file_index>
2424

> <i_lp_mmshare_version>
43012

> <i_f3d_flags>
0

> <s_epik_input>
W0NIM11PW0NAQEhdMVtDQEhdKFtDSDNdKVtDQEBIXShDMShbQ0gyXVtDSDNdKVtDSDJdW0NIM10pW05IXUMoPU8pW05IXWMyW2NIXVtuSF1jKD1PKWMoW0NIM10pW2NIXTI=

> <s_epik_cmdline>
J2VwaWtfcHl0aG9uJywgJy1waCcsICc3LjAnLCAnLXRuJywgJzgnLCAnLW1hJywgJzIwMCcsICctbWV0YWxfYmluZGluZycsICctaW1hZScsICc8aW5maWxlLm1hZT4nLCAnLW9tYWUnLCAnPG91dGZpbGUubWFlPic=

> <r_lp_tautomer_probability>
1

> <r_epik_Ionization_Penalty>
7.6122

> <r_epik_Ionization_Penalty_Charging>
1.53843

> <r_epik_Ionization_Penalty_Neutral>
6.07377

> <r_epik_State_Penalty>
6.07371

> <r_epik_Charging_Adjusted_Penalty>
7.61214

> <i_epik_Tot_Q>
-1

> <i_epik_Tot_abs_Q>
1

> <r_epik_Metal_State_Penalty>
2.02136

> <b_epik_Metal_Only>
1

> <s_lp_Force_Field>
OPLS_2005

> <r_lp_Energy>
41.3797

> <b_lp_Chiralities_Consistent>
1

> <s_lp_Variant>
AV-unprocessed.smi:2424-12

> <Gold.Version>
5.8.1

> <Gold.Id.Protein>
6NUR|6NUR_protein|mol2

> <Gold.PLP.Fitness>
37.6953

> <Gold.PLP.PLP>
-29.3485

> <Gold.PLP.part.hbond>
-2.7088

> <Gold.PLP.part.metal>
0.0000

> <Gold.PLP.part.buried>
-1.2059

> <Gold.PLP.part.nonpolar>
-26.5771

> <Gold.PLP.part.repulsive>
0.1559

> <Gold.PLP.ligand.clash>
0.0000

> <Gold.PLP.ligand.torsion>
0.5661

> <Gold.PLP.Chemscore.Hbond>
2.9600

> <Gold.PLP.Chemscore.CHOScore>
0.0000

> <Gold.PLP.Chemscore.Metal>
0.0000

> <Gold.Chemscore.Hbonds>
donor molecule, donor type, donor heavy atom, donor atom, acceptor molecule, acceptor atom, score
      L1  H     7    35       P1  7948  0.91
      L1  H    10    36       P1  7948  0.87
      P1  H  7997  8010       L1    15  1.00

> <Gold.PLP.Chemscore.Internal.Correction>
0.5991

> <Gold.Rescore>
     Score         DG    S(hbond)    S(metal)    S(lipo)     H(rot)  DE(clash)    DE(int)     intcor
     18.35     -20.35       2.84        0.00      79.36       1.52       0.38       1.62       ----

> <Gold.Chemscore.Fitness>
18.3544

> <Gold.Chemscore.DG>
-20.3528

> <Gold.Chemscore.ZeroCoef>
-5.4800

> <Gold.Chemscore.Hbond>
2.8382

> <Gold.Chemscore.Metal>
0.0000

> <Gold.Chemscore.Lipo>
79.3640

> <Gold.Chemscore.Internal_Hbond>
0.0000

> <Gold.Chemscore.DEClash>
0.3825

> <Gold.Chemscore.DEInternal>
1.6159

> <Gold.Chemscore.Rot>
1.5204

> <Gold.Chemscore.Internal.Correction>
   9.000000E+99

> <Gold.Chemscore.Hbonds>
donor molecule, donor type, donor heavy atom, donor atom, acceptor molecule, acceptor atom, score
      L1  H     7    35       P1  7948  0.86
      L1  H    10    36       P1  7948  0.79
      P1  H  7997  8010       L1    15  1.00

> <Gold.Chemscore.Hbond.Weighted>
-9.4794

> <Gold.Chemscore.Metal.Weighted>
-0.0000

> <Gold.Chemscore.Lipo.Weighted>
-9.2856

> <Gold.Chemscore.Internal_Hbond.Weighted>
0.0000

> <Gold.Chemscore.DEClash.Weighted>
0.3825

> <Gold.Chemscore.DEInternal.Weighted>
1.6159

> <Gold.Chemscore.Rot.Weighted>
3.8922

> <Gold.Chemscore.Internal.Correction.Weighted>
   9.000000E+99

> <Gold.Protein.RotatedTorsions>
[ 6907 6896 6895 6894 ] final  -37.89 input  -60.11 | X-H torsion
[ 7974 7965 7964 7962 ] final   74.93 input  175.53 | X-H torsion
[ 8008 7997 7996 7995 ] final   64.77 input   59.86 | X-H torsion
[ 10167 10162 10161 10158 ] final   48.93 input  -65.29 | X-H torsion
[ 10718 10713 10712 10709 ] final  141.11 input   66.30 | X-H torsion
[ 10763 10752 10751 10750 ] final  -35.59 input  -60.55 | X-H torsion
[ 11005 11000 10999 10996 ] final  -63.22 input  -57.11 | X-H torsion

> <Gold.Protein.ActiveResidues>
 VAL166  LYS551  ARG553  GLY616  TRP617  ASP618  TYR619  PRO620  LYS621  CYS622 
 ASP623  PHE694  ASN695  SER759  ASP760  ASP761  ALA762  ILE779  LEU786  VAL792 
 PHE793  MET794  SER795  GLU796  ALA797  LYS798  CYS799  TRP800  GLU811  SER814 

> <Gold.Protein.RotatedAtoms>
  151.0092  134.9383  159.7997 H   0  0  0  0  0  0  0  0  0  0  0  0  # atno 6907 bound_to 6896
  152.5298  134.3051  159.9103 H   0  0  0  0  0  0  0  0  0  0  0  0  # atno 6908 bound_to 6896
  151.3057  133.4061  159.2677 H   0  0  0  0  0  0  0  0  0  0  0  0  # atno 6909 bound_to 6896
  145.7221  139.2652  143.1590 H   0  0  0  0  0  0  0  0  0  0  0  0  # atno 7974 bound_to 7965
  155.6512  140.3497  155.4749 H   0  0  0  0  0  0  0  0  0  0  0  0  # atno 8008 bound_to 7997
  155.9846  140.1181  157.0718 H   0  0  0  0  0  0  0  0  0  0  0  0  # atno 8009 bound_to 7997
  154.4201  140.1131  156.5468 H   0  0  0  0  0  0  0  0  0  0  0  0  # atno 8010 bound_to 7997
  140.2882  144.3077  150.6247 H   0  0  0  0  0  0  0  0  0  0  0  0  # atno 10167 bound_to 10162
  157.3957  131.1010  151.0602 H   0  0  0  0  0  0  0  0  0  0  0  0  # atno 10718 bound_to 10713
  153.8657  135.6836  153.4779 H   0  0  0  0  0  0  0  0  0  0  0  0  # atno 10763 bound_to 10752
  153.1316  135.4695  154.9355 H   0  0  0  0  0  0  0  0  0  0  0  0  # atno 10764 bound_to 10752
  154.7738  135.3247  154.8085 H   0  0  0  0  0  0  0  0  0  0  0  0  # atno 10765 bound_to 10752
  141.1386  133.6649  156.5647 H   0  0  0  0  0  0  0  0  0  0  0  0  # atno 11005 bound_to 11000
  146.0616  140.7964  142.9732 LP  0  0  0  0  0  0  0  0  0  0  0  0  # atno 17320 bound_to 7965
  144.6914  140.3206  143.7233 LP  0  0  0  0  0  0  0  0  0  0  0  0  # atno 17321 bound_to 7965
  140.5754  143.2177  151.7524 LP  0  0  0  0  0  0  0  0  0  0  0  0  # atno 17342 bound_to 10162
  139.4945  144.4156  152.0033 LP  0  0  0  0  0  0  0  0  0  0  0  0  # atno 17343 bound_to 10162
  157.1620  130.6229  149.5613 LP  0  0  0  0  0  0  0  0  0  0  0  0  # atno 17370 bound_to 10713
  155.9810  130.4814  150.6802 LP  0  0  0  0  0  0  0  0  0  0  0  0  # atno 17371 bound_to 10713
  140.3960  134.7398  157.4751 LP  0  0  0  0  0  0  0  0  0  0  0  0  # atno 17394 bound_to 11000
  140.0531  134.6102  155.8838 LP  0  0  0  0  0  0  0  0  0  0  0  0  # atno 17395 bound_to 11000

$$$$
