AV-unprocessed.smi:2845|AV-procd|sdf|10948|dock10
  -GOLD-   2272015403D 1   1.00000     0.00000
 Structure written by MMmdl.
 43 45  0  0  0  0  0  0  0  0  2 V2000
  152.3559  143.4024  160.7399 C   0  0  0  0  0  0  0  0  0  0  0  0
  152.1135  142.5031  159.5397 C   0  0  0  0  0  0  0  0  0  0  0  0
  151.2595  142.9645  158.5119 C   0  0  0  0  0  0  0  0  0  0  0  0
  151.0593  142.1197  157.4264 C   0  0  0  0  0  0  0  0  0  0  0  0
  150.2901  142.2774  156.2708 N   0  3  0  0  0  0  0  0  0  0  0  0
  150.4120  141.1691  155.4880 C   0  0  0  0  0  0  0  0  0  0  0  0
  151.2450  140.3056  156.1295 N   0  0  0  0  0  0  0  0  0  0  0  0
  151.7202  138.9739  155.7358 C   0  0  0  0  0  0  0  0  0  0  0  0
  151.2244  138.5599  154.3333 C   0  0  1  0  0  0  0  0  0  0  0  0
  151.7811  137.3074  153.9899 O   0  0  0  0  0  0  0  0  0  0  0  0
  149.6882  138.4699  154.2232 C   0  0  0  0  0  0  0  0  0  0  0  0
  149.0938  137.6171  155.2390 N   0  0  0  0  0  0  0  0  0  0  0  0
  148.3303  136.5264  155.1196 C   0  0  0  0  0  0  0  0  0  0  0  0
  147.9563  135.9993  156.2788 N   0  0  0  0  0  0  0  0  0  0  0  0
  148.5569  136.8894  157.1206 C   0  0  0  0  0  0  0  0  0  0  0  0
  148.4713  136.7043  158.9290 S   0  0  1  0  0  0  0  0  0  0  0  0
  147.8302  134.9648  158.8919 C   0  0  0  0  0  0  0  0  0  0  0  0
  149.9209  136.6300  159.4141 O   0  0  0  0  0  0  0  0  0  0  0  0
  149.2321  137.8888  156.5589 N   0  0  0  0  0  0  0  0  0  0  0  0
  151.6745  140.8562  157.3415 C   0  0  0  0  0  0  0  0  0  0  0  0
  152.5174  140.3855  158.3454 C   0  0  0  0  0  0  0  0  0  0  0  0
  152.7335  141.2293  159.4576 C   0  0  0  0  0  0  0  0  0  0  0  0
  153.6474  140.7416  160.5689 C   0  0  0  0  0  0  0  0  0  0  0  0
  151.8010  144.3376  160.6571 H   0  0  0  0  0  0  0  0  0  0  0  0
  153.4144  143.6496  160.8248 H   0  0  0  0  0  0  0  0  0  0  0  0
  152.0404  142.9086  161.6594 H   0  0  0  0  0  0  0  0  0  0  0  0
  150.7840  143.9328  158.5683 H   0  0  0  0  0  0  0  0  0  0  0  0
  149.9343  141.0050  154.5326 H   0  0  0  0  0  0  0  0  0  0  0  0
  152.8107  138.9851  155.7668 H   0  0  0  0  0  0  0  0  0  0  0  0
  151.4003  138.2676  156.5025 H   0  0  0  0  0  0  0  0  0  0  0  0
  151.5835  139.2790  153.5960 H   0  0  0  0  0  0  0  0  0  0  0  0
  151.3329  136.9803  153.2252 H   0  0  0  0  0  0  0  0  0  0  0  0
  149.2426  139.4616  154.3117 H   0  0  0  0  0  0  0  0  0  0  0  0
  149.4045  138.0828  153.2433 H   0  0  0  0  0  0  0  0  0  0  0  0
  148.0506  136.1035  154.1658 H   0  0  0  0  0  0  0  0  0  0  0  0
  146.9808  134.8824  158.2136 H   0  0  0  0  0  0  0  0  0  0  0  0
  147.5069  134.6633  159.8879 H   0  0  0  0  0  0  0  0  0  0  0  0
  148.6091  134.2795  158.5579 H   0  0  0  0  0  0  0  0  0  0  0  0
  152.9879  139.4156  158.2843 H   0  0  0  0  0  0  0  0  0  0  0  0
  154.0408  139.7482  160.3542 H   0  0  0  0  0  0  0  0  0  0  0  0
  153.1064  140.6863  161.5137 H   0  0  0  0  0  0  0  0  0  0  0  0
  154.4953  141.4155  160.6921 H   0  0  0  0  0  0  0  0  0  0  0  0
  149.7246  143.0818  156.0308 H   0  0  0  0  0  0  0  0  0  0  0  0
  1  2  1  0  0  0  0
  1 24  1  0  0  0  0
  1 25  1  0  0  0  0
  1 26  1  0  0  0  0
  2 22  1  0  0  0  0
  2  3  2  0  0  0  0
  3  4  1  0  0  0  0
  3 27  1  0  0  0  0
  4 20  2  0  0  0  0
  4  5  1  0  0  0  0
  5  6  2  0  0  0  0
  5 43  1  0  0  0  0
  6  7  1  0  0  0  0
  6 28  1  0  0  0  0
  7  8  1  0  0  0  0
  7 20  1  0  0  0  0
  8  9  1  0  0  0  0
  8 29  1  0  0  0  0
  8 30  1  0  0  0  0
  9 10  1  0  0  0  0
  9 11  1  0  0  0  0
  9 31  1  0  0  0  0
 10 32  1  0  0  0  0
 11 12  1  0  0  0  0
 11 33  1  0  0  0  0
 11 34  1  0  0  0  0
 12 19  1  0  0  0  0
 12 13  1  0  0  0  0
 13 14  2  0  0  0  0
 13 35  1  0  0  0  0
 14 15  1  0  0  0  0
 15 16  1  0  0  0  0
 15 19  2  0  0  0  0
 16 17  1  0  0  0  0
 16 18  2  0  0  0  0
 17 36  1  0  0  0  0
 17 37  1  0  0  0  0
 17 38  1  0  0  0  0
 20 21  1  0  0  0  0
 21 22  2  0  0  0  0
 21 39  1  0  0  0  0
 22 23  1  0  0  0  0
 23 40  1  0  0  0  0
 23 41  1  0  0  0  0
 23 42  1  0  0  0  0
M  CHG  1   5   1
M  END
> <s_m_source_file>
AV-unprocessed.smi

> <i_m_source_file_index>
2845

> <i_lp_mmshare_version>
43012

> <i_f3d_flags>
0

> <s_epik_input>
W0NIM11jKFtjSF0xKWMoW0NIM10pW2NIXWMoYzEyKW4oW2NIXW4yKVtDSDJdW0NASF0oW09IXSlbQ0gyXW4zW2NIXW5jKG4zKVtTQF0oPU8pW0NIM10=

> <s_epik_cmdline>
J2VwaWtfcHl0aG9uJywgJy1waCcsICc3LjAnLCAnLXRuJywgJzgnLCAnLW1hJywgJzIwMCcsICctbWV0YWxfYmluZGluZycsICctaW1hZScsICc8aW5maWxlLm1hZT4nLCAnLW9tYWUnLCAnPG91dGZpbGUubWFlPic=

> <r_lp_tautomer_probability>
1

> <r_epik_Ionization_Penalty>
1.12076

> <r_epik_Ionization_Penalty_Charging>
1.12075

> <r_epik_Ionization_Penalty_Neutral>
1.54566e-06

> <r_epik_State_Penalty>
1.17957

> <r_epik_Charging_Adjusted_Penalty>
2.30033

> <i_epik_Tot_Q>
1

> <i_epik_Tot_abs_Q>
1

> <r_epik_Metal_State_Penalty>
1.26402

> <b_epik_Metal_Only>
0

> <s_lp_Force_Field>
OPLS_2005

> <r_lp_Energy>
13.65

> <b_lp_Chiralities_Consistent>
1

> <s_lp_Variant>
AV-unprocessed.smi:2845-6

> <Gold.Version>
5.8.1

> <Gold.Id.Protein>
6NUR|6NUR_protein|mol2

> <Gold.PLP.Fitness>
58.4594

> <Gold.PLP.PLP>
-41.2957

> <Gold.PLP.part.hbond>
-4.0000

> <Gold.PLP.part.metal>
0.0000

> <Gold.PLP.part.buried>
-5.2277

> <Gold.PLP.part.nonpolar>
-32.2796

> <Gold.PLP.part.repulsive>
0.1113

> <Gold.PLP.ligand.clash>
0.0000

> <Gold.PLP.ligand.torsion>
0.6206

> <Gold.PLP.Chemscore.Hbond>
4.7930

> <Gold.PLP.Chemscore.CHOScore>
1.0000

> <Gold.PLP.Chemscore.Metal>
0.0000

> <Gold.Chemscore.Hbonds>
donor molecule, donor type, donor heavy atom, donor atom, acceptor molecule, acceptor atom, score
      L1  H     5    43       P1  8028  2.00
      L1  H    10    32       P1  7949  1.00
      P1  H  6896  6909       L1    18  0.99
      P1  H 10752 10763       L1    10  0.75
      L1  C    13    35       P1  7948  1.00

> <Gold.PLP.Chemscore.Internal.Correction>
1.0258

> <Gold.Rescore>
     Score         DG    S(hbond)    S(metal)    S(lipo)     H(rot)  DE(clash)    DE(int)     intcor
     16.80     -18.92       2.90        0.00      92.75       2.77       0.20       1.92       ----

> <Gold.Chemscore.Fitness>
16.8017

> <Gold.Chemscore.DG>
-18.9245

> <Gold.Chemscore.ZeroCoef>
-5.4800

> <Gold.Chemscore.Hbond>
2.8978

> <Gold.Chemscore.Metal>
0.0000

> <Gold.Chemscore.Lipo>
92.7538

> <Gold.Chemscore.Internal_Hbond>
0.0000

> <Gold.Chemscore.DEClash>
0.2023

> <Gold.Chemscore.DEInternal>
1.9205

> <Gold.Chemscore.Rot>
2.7681

> <Gold.Chemscore.Internal.Correction>
   9.000000E+99

> <Gold.Chemscore.Hbonds>
donor molecule, donor type, donor heavy atom, donor atom, acceptor molecule, acceptor atom, score
      L1  H     5    43       P1  8028  1.00
      L1  H    10    32       P1  7949  0.70
      P1  H  6896  6909       L1    18  0.90
      P1  H 10752 10763       L1    10  0.08

> <Gold.Chemscore.Hbond.Weighted>
-9.6785

> <Gold.Chemscore.Metal.Weighted>
-0.0000

> <Gold.Chemscore.Lipo.Weighted>
-10.8522

> <Gold.Chemscore.Internal_Hbond.Weighted>
0.0000

> <Gold.Chemscore.DEClash.Weighted>
0.2023

> <Gold.Chemscore.DEInternal.Weighted>
1.9205

> <Gold.Chemscore.Rot.Weighted>
7.0863

> <Gold.Chemscore.Internal.Correction.Weighted>
   9.000000E+99

> <Gold.Protein.RotatedTorsions>
[ 6907 6896 6895 6894 ] final   65.11 input  -60.11 | X-H torsion
[ 7974 7965 7964 7962 ] final   14.24 input  175.53 | X-H torsion
[ 8008 7997 7996 7995 ] final -113.02 input   59.86 | X-H torsion
[ 10167 10162 10161 10158 ] final   24.60 input  -65.29 | X-H torsion
[ 10718 10713 10712 10709 ] final  105.64 input   66.30 | X-H torsion
[ 10763 10752 10751 10750 ] final   38.87 input  -60.55 | X-H torsion
[ 11005 11000 10999 10996 ] final   -7.03 input  -57.11 | X-H torsion

> <Gold.Protein.ActiveResidues>
 VAL166  LYS551  ARG553  GLY616  TRP617  ASP618  TYR619  PRO620  LYS621  CYS622 
 ASP623  PHE694  ASN695  SER759  ASP760  ASP761  ALA762  ILE779  LEU786  VAL792 
 PHE793  MET794  SER795  GLU796  ALA797  LYS798  CYS799  TRP800  GLU811  SER814 

> <Gold.Protein.RotatedAtoms>
  152.4383  134.5642  159.9902 H   0  0  0  0  0  0  0  0  0  0  0  0  # atno 6907 bound_to 6896
  151.5747  133.3379  159.3004 H   0  0  0  0  0  0  0  0  0  0  0  0  # atno 6908 bound_to 6896
  150.8285  134.7561  159.6897 H   0  0  0  0  0  0  0  0  0  0  0  0  # atno 6909 bound_to 6896
  146.2310  139.9071  142.8530 H   0  0  0  0  0  0  0  0  0  0  0  0  # atno 7974 bound_to 7965
  155.0142  140.0393  157.2411 H   0  0  0  0  0  0  0  0  0  0  0  0  # atno 8008 bound_to 7997
  154.7434  140.2753  155.6330 H   0  0  0  0  0  0  0  0  0  0  0  0  # atno 8009 bound_to 7997
  156.2869  140.2661  156.2168 H   0  0  0  0  0  0  0  0  0  0  0  0  # atno 8010 bound_to 7997
  140.5175  144.0058  150.6401 H   0  0  0  0  0  0  0  0  0  0  0  0  # atno 10167 bound_to 10162
  157.6698  131.0832  150.5887 H   0  0  0  0  0  0  0  0  0  0  0  0  # atno 10718 bound_to 10713
  152.9986  135.6237  154.2374 H   0  0  0  0  0  0  0  0  0  0  0  0  # atno 10763 bound_to 10752
  154.2115  135.2799  155.2958 H   0  0  0  0  0  0  0  0  0  0  0  0  # atno 10764 bound_to 10752
  154.5603  135.5707  153.7059 H   0  0  0  0  0  0  0  0  0  0  0  0  # atno 10765 bound_to 10752
  140.7084  133.8930  155.8733 H   0  0  0  0  0  0  0  0  0  0  0  0  # atno 11005 bound_to 11000
  145.2266  140.9956  143.4015 LP  0  0  0  0  0  0  0  0  0  0  0  0  # atno 17320 bound_to 7965
  144.9565  139.4026  143.6377 LP  0  0  0  0  0  0  0  0  0  0  0  0  # atno 17321 bound_to 7965
  140.3398  143.3027  152.0600 LP  0  0  0  0  0  0  0  0  0  0  0  0  # atno 17342 bound_to 10162
  139.4913  144.6451  151.6796 LP  0  0  0  0  0  0  0  0  0  0  0  0  # atno 17343 bound_to 10162
  156.6187  130.4400  149.5830 LP  0  0  0  0  0  0  0  0  0  0  0  0  # atno 17370 bound_to 10713
  156.2373  130.6830  151.1521 LP  0  0  0  0  0  0  0  0  0  0  0  0  # atno 17371 bound_to 10713
  141.0105  134.1027  157.4226 LP  0  0  0  0  0  0  0  0  0  0  0  0  # atno 17394 bound_to 11000
  139.8878  135.0092  156.6582 LP  0  0  0  0  0  0  0  0  0  0  0  0  # atno 17395 bound_to 11000

$$$$
