AV-unprocessed.smi:1207|AV-procd|sdf|5059|dock5
  -GOLD-   22720 4 93D 1   1.00000     0.00000
 Structure written by MMmdl.
 53 55  0  0  0  0  0  0  0  0  3 V2000
  152.5369  142.8410  160.6269 C   0  0  0  0  0  0  0  0  0  0  0  0
  152.0852  142.1176  159.3696 C   0  0  0  0  0  0  0  0  0  0  0  0
  151.2098  142.7868  158.4847 C   0  0  0  0  0  0  0  0  0  0  0  0
  150.8145  142.0996  157.3433 C   0  0  0  0  0  0  0  0  0  0  0  0
  149.9783  142.4778  156.2905 N   0  3  0  0  0  0  0  0  0  0  0  0
  149.8915  141.4597  155.3903 C   0  0  0  0  0  0  0  0  0  0  0  0
  150.6499  140.4313  155.8599 N   0  0  0  0  0  0  0  0  0  0  0  0
  150.9086  139.1064  155.2820 C   0  0  0  0  0  0  0  0  0  0  0  0
  149.6230  138.3304  154.9287 C   0  0  2  0  0  0  0  0  0  0  0  0
  150.0083  137.0963  154.3591 O   0  0  0  0  0  0  0  0  0  0  0  0
  148.6964  139.0695  153.9382 C   0  0  0  0  0  0  0  0  0  0  0  0
  147.6304  138.1793  153.4126 N   0  3  2  0  0  0  0  0  0  0  0  0
  146.6762  138.9009  152.5388 C   0  0  0  0  0  0  0  0  0  0  0  0
  146.9517  137.3915  154.4741 C   0  0  0  0  0  0  0  0  0  0  0  0
  146.1641  136.2518  153.8833 C   0  0  0  0  0  0  0  0  0  0  0  0
  146.4791  134.8612  153.8671 C   0  0  0  0  0  0  0  0  0  0  0  0
  147.6775  134.1537  154.4321 C   0  0  0  0  0  0  0  0  0  0  0  0
  145.5464  134.1530  153.2540 N   0  0  0  0  0  0  0  0  0  0  0  0
  144.5778  135.0703  152.8363 O   0  0  0  0  0  0  0  0  0  0  0  0
  144.9695  136.3110  153.2201 C   0  0  0  0  0  0  0  0  0  0  0  0
  144.0655  137.4424  152.8624 C   0  0  0  0  0  0  0  0  0  0  0  0
  151.2570  140.7913  157.0681 C   0  0  0  0  0  0  0  0  0  0  0  0
  152.1251  140.1199  157.9256 C   0  0  0  0  0  0  0  0  0  0  0  0
  152.5377  140.8015  159.0929 C   0  0  0  0  0  0  0  0  0  0  0  0
  153.4805  140.0928  160.0505 C   0  0  0  0  0  0  0  0  0  0  0  0
  152.1059  143.8407  160.6891 H   0  0  0  0  0  0  0  0  0  0  0  0
  153.6221  142.9458  160.6389 H   0  0  0  0  0  0  0  0  0  0  0  0
  152.2315  142.2905  161.5172 H   0  0  0  0  0  0  0  0  0  0  0  0
  150.8649  143.7904  158.6871 H   0  0  0  0  0  0  0  0  0  0  0  0
  149.3223  141.4676  154.4716 H   0  0  0  0  0  0  0  0  0  0  0  0
  151.5164  139.2567  154.3885 H   0  0  0  0  0  0  0  0  0  0  0  0
  151.5240  138.5444  155.9865 H   0  0  0  0  0  0  0  0  0  0  0  0
  149.0842  138.1063  155.8481 H   0  0  0  0  0  0  0  0  0  0  0  0
  149.5560  136.9849  153.5363 H   0  0  0  0  0  0  0  0  0  0  0  0
  148.2273  139.9374  154.4034 H   0  0  0  0  0  0  0  0  0  0  0  0
  149.3044  139.4586  153.1198 H   0  0  0  0  0  0  0  0  0  0  0  0
  146.1184  139.6496  153.1029 H   0  0  0  0  0  0  0  0  0  0  0  0
  145.9632  138.2137  152.0837 H   0  0  0  0  0  0  0  0  0  0  0  0
  147.2006  139.4050  151.7265 H   0  0  0  0  0  0  0  0  0  0  0  0
  147.6895  136.9937  155.1705 H   0  0  0  0  0  0  0  0  0  0  0  0
  146.3248  138.0524  155.0741 H   0  0  0  0  0  0  0  0  0  0  0  0
  148.2651  134.8076  155.0757 H   0  0  0  0  0  0  0  0  0  0  0  0
  148.3320  133.7985  153.6358 H   0  0  0  0  0  0  0  0  0  0  0  0
  147.3800  133.2903  155.0279 H   0  0  0  0  0  0  0  0  0  0  0  0
  143.8636  138.0663  153.7331 H   0  0  0  0  0  0  0  0  0  0  0  0
  143.1108  137.0789  152.4812 H   0  0  0  0  0  0  0  0  0  0  0  0
  144.5186  138.0696  152.0948 H   0  0  0  0  0  0  0  0  0  0  0  0
  152.4745  139.1204  157.7130 H   0  0  0  0  0  0  0  0  0  0  0  0
  153.7480  139.1003  159.6865 H   0  0  0  0  0  0  0  0  0  0  0  0
  153.0139  139.9743  161.0288 H   0  0  0  0  0  0  0  0  0  0  0  0
  154.4026  140.6613  160.1725 H   0  0  0  0  0  0  0  0  0  0  0  0
  148.1057  137.5150  152.8178 H   0  0  0  0  0  0  0  0  0  0  0  0
  149.5083  143.3683  156.1869 H   0  0  0  0  0  0  0  0  0  0  0  0
  1  2  1  0  0  0  0
  1 26  1  0  0  0  0
  1 27  1  0  0  0  0
  1 28  1  0  0  0  0
  2 24  1  0  0  0  0
  2  3  2  0  0  0  0
  3  4  1  0  0  0  0
  3 29  1  0  0  0  0
  4 22  2  0  0  0  0
  4  5  1  0  0  0  0
  5  6  2  0  0  0  0
  5 53  1  0  0  0  0
  6  7  1  0  0  0  0
  6 30  1  0  0  0  0
  7  8  1  0  0  0  0
  7 22  1  0  0  0  0
  8  9  1  0  0  0  0
  8 31  1  0  0  0  0
  8 32  1  0  0  0  0
  9 10  1  0  0  0  0
  9 11  1  0  0  0  0
  9 33  1  0  0  0  0
 10 34  1  0  0  0  0
 11 12  1  0  0  0  0
 11 35  1  0  0  0  0
 11 36  1  0  0  0  0
 12 13  1  0  0  0  0
 12 14  1  0  0  0  0
 12 52  1  0  0  0  0
 13 37  1  0  0  0  0
 13 38  1  0  0  0  0
 13 39  1  0  0  0  0
 14 15  1  0  0  0  0
 14 40  1  0  0  0  0
 14 41  1  0  0  0  0
 15 20  2  0  0  0  0
 15 16  1  0  0  0  0
 16 17  1  0  0  0  0
 16 18  2  0  0  0  0
 17 42  1  0  0  0  0
 17 43  1  0  0  0  0
 17 44  1  0  0  0  0
 18 19  1  0  0  0  0
 19 20  1  0  0  0  0
 20 21  1  0  0  0  0
 21 45  1  0  0  0  0
 21 46  1  0  0  0  0
 21 47  1  0  0  0  0
 22 23  1  0  0  0  0
 23 24  2  0  0  0  0
 23 48  1  0  0  0  0
 24 25  1  0  0  0  0
 25 49  1  0  0  0  0
 25 50  1  0  0  0  0
 25 51  1  0  0  0  0
M  CHG  1   5   1
M  CHG  1  12   1
M  END
> <s_m_source_file>
AV-unprocessed.smi

> <i_m_source_file_index>
1207

> <i_lp_mmshare_version>
43012

> <i_f3d_flags>
0

> <s_epik_input>
W0NIM11jKFtjSF0xKWMoW0NIM10pW2NIXWMoYzEyKW4oW2NIXW4yKVtDSDJdW0NASF0oW09IXSlbQ0gyXU4oW0NIM10pW0NIMl1jM2MoW0NIM10pbm9jM1tDSDNd

> <s_epik_cmdline>
J2VwaWtfcHl0aG9uJywgJy1waCcsICc3LjAnLCAnLXRuJywgJzgnLCAnLW1hJywgJzIwMCcsICctbWV0YWxfYmluZGluZycsICctaW1hZScsICc8aW5maWxlLm1hZT4nLCAnLW9tYWUnLCAnPG91dGZpbGUubWFlPic=

> <r_epik_Ionization_Penalty>
1.77463

> <r_epik_Ionization_Penalty_Charging>
1.77463

> <r_epik_Ionization_Penalty_Neutral>
3.70885e-06

> <r_epik_State_Penalty>
1.85225

> <r_epik_Charging_Adjusted_Penalty>
3.62688

> <i_epik_Tot_Q>
2

> <i_epik_Tot_abs_Q>
2

> <r_epik_Metal_State_Penalty>
1.92674

> <b_epik_Metal_Only>
0

> <s_lp_Force_Field>
OPLS_2005

> <r_lp_Energy>
20.2471

> <b_lp_Chiralities_Consistent>
1

> <s_lp_Variant>
AV-unprocessed.smi:1207-11

> <Gold.Version>
5.8.1

> <Gold.Id.Protein>
6NUR|6NUR_protein|mol2

> <Gold.PLP.Fitness>
55.8073

> <Gold.PLP.PLP>
-41.5602

> <Gold.PLP.part.hbond>
-3.6304

> <Gold.PLP.part.metal>
0.0000

> <Gold.PLP.part.buried>
-2.3438

> <Gold.PLP.part.nonpolar>
-36.2733

> <Gold.PLP.part.repulsive>
0.2957

> <Gold.PLP.ligand.clash>
0.0000

> <Gold.PLP.ligand.torsion>
0.4380

> <Gold.PLP.Chemscore.Hbond>
5.0000

> <Gold.PLP.Chemscore.CHOScore>
0.0000

> <Gold.PLP.Chemscore.Metal>
0.0000

> <Gold.Chemscore.Hbonds>
donor molecule, donor type, donor heavy atom, donor atom, acceptor molecule, acceptor atom, score
      L1  H     5    53       P1  8028  2.00
      L1  H    10    34       P1  7948  1.00
      L1  H    12    52       P1  7948  2.00

> <Gold.PLP.Chemscore.Internal.Correction>
0.1231

> <Gold.Rescore>
     Score         DG    S(hbond)    S(metal)    S(lipo)     H(rot)  DE(clash)    DE(int)     intcor
     19.68     -20.28       2.86        0.00     100.33       2.54       0.09       0.50       ----

> <Gold.Chemscore.Fitness>
19.6813

> <Gold.Chemscore.DG>
-20.2786

> <Gold.Chemscore.ZeroCoef>
-5.4800

> <Gold.Chemscore.Hbond>
2.8591

> <Gold.Chemscore.Metal>
0.0000

> <Gold.Chemscore.Lipo>
100.3343

> <Gold.Chemscore.Internal_Hbond>
0.0000

> <Gold.Chemscore.DEClash>
0.0937

> <Gold.Chemscore.DEInternal>
0.5036

> <Gold.Chemscore.Rot>
2.5351

> <Gold.Chemscore.Internal.Correction>
   9.000000E+99

> <Gold.Chemscore.Hbonds>
donor molecule, donor type, donor heavy atom, donor atom, acceptor molecule, acceptor atom, score
      L1  H     5    53       P1  8028  0.97
      L1  H    10    34       P1  7948  0.82
      L1  H    12    52       P1  7948  1.00

> <Gold.Chemscore.Hbond.Weighted>
-9.5495

> <Gold.Chemscore.Metal.Weighted>
-0.0000

> <Gold.Chemscore.Lipo.Weighted>
-11.7391

> <Gold.Chemscore.Internal_Hbond.Weighted>
0.0000

> <Gold.Chemscore.DEClash.Weighted>
0.0937

> <Gold.Chemscore.DEInternal.Weighted>
0.5036

> <Gold.Chemscore.Rot.Weighted>
6.4900

> <Gold.Chemscore.Internal.Correction.Weighted>
   9.000000E+99

> <Gold.Protein.RotatedTorsions>
[ 6907 6896 6895 6894 ] final -109.37 input  -60.11 | X-H torsion
[ 7974 7965 7964 7962 ] final  -69.33 input  175.53 | X-H torsion
[ 8008 7997 7996 7995 ] final  -30.56 input   59.86 | X-H torsion
[ 10167 10162 10161 10158 ] final   96.61 input  -65.29 | X-H torsion
[ 10718 10713 10712 10709 ] final  157.72 input   66.30 | X-H torsion
[ 10763 10752 10751 10750 ] final  -20.28 input  -60.55 | X-H torsion
[ 11005 11000 10999 10996 ] final  178.07 input  -57.11 | X-H torsion

> <Gold.Protein.ActiveResidues>
 VAL166  LYS551  ARG553  GLY616  TRP617  ASP618  TYR619  PRO620  LYS621  CYS622 
 ASP623  PHE694  ASN695  SER759  ASP760  ASP761  ALA762  ILE779  LEU786  VAL792 
 PHE793  MET794  SER795  GLU796  ALA797  LYS798  CYS799  TRP800  GLU811  SER814 

> <Gold.Protein.RotatedAtoms>
  150.7558  133.9539  159.3494 H   0  0  0  0  0  0  0  0  0  0  0  0  # atno 6907 bound_to 6896
  151.7459  135.0842  160.0332 H   0  0  0  0  0  0  0  0  0  0  0  0  # atno 6908 bound_to 6896
  152.3498  133.6128  159.5972 H   0  0  0  0  0  0  0  0  0  0  0  0  # atno 6909 bound_to 6896
  145.7051  140.9101  143.0710 H   0  0  0  0  0  0  0  0  0  0  0  0  # atno 7974 bound_to 7965
  154.4246  140.1788  156.1426 H   0  0  0  0  0  0  0  0  0  0  0  0  # atno 8008 bound_to 7997
  155.9980  140.3363  155.6792 H   0  0  0  0  0  0  0  0  0  0  0  0  # atno 8009 bound_to 7997
  155.6282  140.0667  157.2648 H   0  0  0  0  0  0  0  0  0  0  0  0  # atno 8010 bound_to 7997
  139.7878  144.6864  150.9934 H   0  0  0  0  0  0  0  0  0  0  0  0  # atno 10167 bound_to 10162
  157.1876  131.0647  151.2097 H   0  0  0  0  0  0  0  0  0  0  0  0  # atno 10718 bound_to 10713
  153.6180  135.6994  153.5321 H   0  0  0  0  0  0  0  0  0  0  0  0  # atno 10763 bound_to 10752
  153.2961  135.4142  155.1211 H   0  0  0  0  0  0  0  0  0  0  0  0  # atno 10764 bound_to 10752
  154.8549  135.3637  154.5720 H   0  0  0  0  0  0  0  0  0  0  0  0  # atno 10765 bound_to 10752
  140.3910  134.6862  157.4507 H   0  0  0  0  0  0  0  0  0  0  0  0  # atno 11005 bound_to 11000
  144.6957  139.9000  143.7458 LP  0  0  0  0  0  0  0  0  0  0  0  0  # atno 17320 bound_to 7965
  146.0763  139.3750  143.0492 LP  0  0  0  0  0  0  0  0  0  0  0  0  # atno 17321 bound_to 7965
  140.7820  143.4413  151.0547 LP  0  0  0  0  0  0  0  0  0  0  0  0  # atno 17342 bound_to 10162
  139.8091  143.7976  152.3170 LP  0  0  0  0  0  0  0  0  0  0  0  0  # atno 17343 bound_to 10162
  157.3892  130.7273  149.6685 LP  0  0  0  0  0  0  0  0  0  0  0  0  # atno 17370 bound_to 10713
  155.9716  130.4151  150.4165 LP  0  0  0  0  0  0  0  0  0  0  0  0  # atno 17371 bound_to 10713
  140.0406  134.6272  155.8985 LP  0  0  0  0  0  0  0  0  0  0  0  0  # atno 17394 bound_to 11000
  141.1890  133.6564  156.5351 LP  0  0  0  0  0  0  0  0  0  0  0  0  # atno 17395 bound_to 11000

$$$$
