AV-unprocessed.smi:766|AV-procd|sdf|3655|dock8
  -GOLD-   22720 1 63D 1   1.00000     0.00000
 Structure written by MMmdl.
 46 48  0  0  0  0  0  0  0  0  1 V2000
  153.0670  142.8795  161.3419 C   0  0  0  0  0  0  0  0  0  0  0  0
  152.3540  142.4437  160.0740 C   0  0  0  0  0  0  0  0  0  0  0  0
  152.7817  141.2694  159.4143 C   0  0  0  0  0  0  0  0  0  0  0  0
  152.1451  140.8294  158.2331 C   0  0  0  0  0  0  0  0  0  0  0  0
  152.3949  139.7263  157.4348 N   0  0  0  0  0  0  0  0  0  0  0  0
  151.4700  139.8655  156.4893 C   0  0  0  0  0  0  0  0  0  0  0  0
  150.6487  140.9293  156.5810 N   0  0  0  0  0  0  0  0  0  0  0  0
  149.5759  141.2917  155.6714 C   0  0  0  0  0  0  0  0  0  0  0  0
  149.4431  140.3128  154.4884 C   0  0  2  0  0  0  0  0  0  0  0  0
  149.7362  140.9989  153.2864 O   0  0  0  0  0  0  0  0  0  0  0  0
  148.0220  139.7335  154.3864 C   0  0  0  0  0  0  0  0  0  0  0  0
  147.9235  138.7649  153.3000 N   0  0  0  0  0  0  0  0  0  0  0  0
  146.6033  138.1502  153.1890 C   0  0  0  0  0  0  0  0  0  0  0  0
  146.2967  137.7215  151.7448 C   0  0  0  0  0  0  0  0  0  0  0  0
  145.3791  136.5978  151.6850 N   0  0  0  0  0  0  0  0  0  0  0  0
  145.1219  135.7567  150.6231 C   0  0  0  0  0  0  0  0  0  0  0  0
  144.1891  134.8503  151.0391 C   0  0  0  0  0  0  0  0  0  0  0  0
  143.9321  135.2252  152.3874 C   0  0  0  0  0  0  0  0  0  0  0  0
  144.6433  136.2733  152.7704 N   0  0  0  0  0  0  0  0  0  0  0  0
  151.0609  141.6033  157.7253 C   0  0  0  0  0  0  0  0  0  0  0  0
  150.6273  142.7743  158.3715 C   0  0  0  0  0  0  0  0  0  0  0  0
  151.2724  143.1981  159.5522 C   0  0  0  0  0  0  0  0  0  0  0  0
  150.7925  144.4608  160.2459 C   0  0  0  0  0  0  0  0  0  0  0  0
  153.9010  142.2176  161.5772 H   0  0  0  0  0  0  0  0  0  0  0  0
  152.3804  142.8677  162.1887 H   0  0  0  0  0  0  0  0  0  0  0  0
  153.4637  143.8889  161.2312 H   0  0  0  0  0  0  0  0  0  0  0  0
  153.6045  140.6937  159.8119 H   0  0  0  0  0  0  0  0  0  0  0  0
  151.3840  139.1513  155.6834 H   0  0  0  0  0  0  0  0  0  0  0  0
  148.6469  141.3187  156.2421 H   0  0  0  0  0  0  0  0  0  0  0  0
  149.7496  142.3065  155.3101 H   0  0  0  0  0  0  0  0  0  0  0  0
  150.1658  139.5054  154.6157 H   0  0  0  0  0  0  0  0  0  0  0  0
  149.9504  140.3624  152.6217 H   0  0  0  0  0  0  0  0  0  0  0  0
  147.7709  139.2322  155.3220 H   0  0  0  0  0  0  0  0  0  0  0  0
  147.2915  140.5343  154.2628 H   0  0  0  0  0  0  0  0  0  0  0  0
  148.1712  139.2112  152.4223 H   0  0  0  0  0  0  0  0  0  0  0  0
  146.5299  137.2890  153.8543 H   0  0  0  0  0  0  0  0  0  0  0  0
  145.8423  138.8594  153.5164 H   0  0  0  0  0  0  0  0  0  0  0  0
  145.8516  138.5539  151.1980 H   0  0  0  0  0  0  0  0  0  0  0  0
  147.2148  137.4586  151.2177 H   0  0  0  0  0  0  0  0  0  0  0  0
  145.6203  135.8703  149.6720 H   0  0  0  0  0  0  0  0  0  0  0  0
  143.7566  134.0426  150.4678 H   0  0  0  0  0  0  0  0  0  0  0  0
  143.2540  134.7698  153.0940 H   0  0  0  0  0  0  0  0  0  0  0  0
  149.8024  143.3390  157.9625 H   0  0  0  0  0  0  0  0  0  0  0  0
  149.9349  144.8957  159.7318 H   0  0  0  0  0  0  0  0  0  0  0  0
  151.5852  145.2089  160.2670 H   0  0  0  0  0  0  0  0  0  0  0  0
  150.4925  144.2439  161.2713 H   0  0  0  0  0  0  0  0  0  0  0  0
  1  2  1  0  0  0  0
  1 24  1  0  0  0  0
  1 25  1  0  0  0  0
  1 26  1  0  0  0  0
  2 22  1  0  0  0  0
  2  3  2  0  0  0  0
  3  4  1  0  0  0  0
  3 27  1  0  0  0  0
  4 20  2  0  0  0  0
  4  5  1  0  0  0  0
  5  6  2  0  0  0  0
  6  7  1  0  0  0  0
  6 28  1  0  0  0  0
  7  8  1  0  0  0  0
  7 20  1  0  0  0  0
  8  9  1  0  0  0  0
  8 29  1  0  0  0  0
  8 30  1  0  0  0  0
  9 10  1  0  0  0  0
  9 11  1  0  0  0  0
  9 31  1  0  0  0  0
 10 32  1  0  0  0  0
 11 12  1  0  0  0  0
 11 33  1  0  0  0  0
 11 34  1  0  0  0  0
 12 13  1  0  0  0  0
 12 35  1  0  0  0  0
 13 14  1  0  0  0  0
 13 36  1  0  0  0  0
 13 37  1  0  0  0  0
 14 15  1  0  0  0  0
 14 38  1  0  0  0  0
 14 39  1  0  0  0  0
 15 19  1  0  0  0  0
 15 16  1  0  0  0  0
 16 17  2  0  0  0  0
 16 40  1  0  0  0  0
 17 18  1  0  0  0  0
 17 41  1  0  0  0  0
 18 19  2  0  0  0  0
 18 42  1  0  0  0  0
 20 21  1  0  0  0  0
 21 22  2  0  0  0  0
 21 43  1  0  0  0  0
 22 23  1  0  0  0  0
 23 44  1  0  0  0  0
 23 45  1  0  0  0  0
 23 46  1  0  0  0  0
M  END
> <s_m_source_file>
AV-unprocessed.smi

> <i_m_source_file_index>
766

> <i_lp_mmshare_version>
43012

> <i_f3d_flags>
0

> <s_epik_input>
W0NIM11jKFtjSF0xKWMoW0NIM10pW2NIXWMoYzEyKW4oW2NIXW4yKVtDSDJdW0NASF0oW09IXSlbQ0gyXVtOSF1bQ0gyXVtDSDJdbjNbY0hdW2NIXVtjSF1uMw==

> <s_epik_cmdline>
J2VwaWtfcHl0aG9uJywgJy1waCcsICc3LjAnLCAnLXRuJywgJzgnLCAnLW1hJywgJzIwMCcsICctbWV0YWxfYmluZGluZycsICctaW1hZScsICc8aW5maWxlLm1hZT4nLCAnLW9tYWUnLCAnPG91dGZpbGUubWFlPic=

> <r_lp_tautomer_probability>
1

> <r_epik_Ionization_Penalty>
1.68727

> <r_epik_Ionization_Penalty_Charging>
0

> <r_epik_Ionization_Penalty_Neutral>
1.68727

> <r_epik_State_Penalty>
1.78741

> <r_epik_Charging_Adjusted_Penalty>
1.78741

> <i_epik_Tot_Q>
0

> <i_epik_Tot_abs_Q>
0

> <r_epik_Metal_State_Penalty>
1.73664

> <b_epik_Metal_Only>
0

> <s_lp_Force_Field>
OPLS_2005

> <r_lp_Energy>
17.6974

> <b_lp_Chiralities_Consistent>
1

> <s_lp_Variant>
AV-unprocessed.smi:766-5

> <Gold.Version>
5.8.1

> <Gold.Id.Protein>
6NUR|6NUR_protein|mol2

> <Gold.PLP.Fitness>
56.8845

> <Gold.PLP.PLP>
-45.2737

> <Gold.PLP.part.hbond>
-4.5744

> <Gold.PLP.part.metal>
0.0000

> <Gold.PLP.part.buried>
1.2359

> <Gold.PLP.part.nonpolar>
-40.7084

> <Gold.PLP.part.repulsive>
0.1262

> <Gold.PLP.ligand.clash>
0.0000

> <Gold.PLP.ligand.torsion>
1.3007

> <Gold.PLP.Chemscore.Hbond>
3.6926

> <Gold.PLP.Chemscore.CHOScore>
1.0000

> <Gold.PLP.Chemscore.Metal>
0.0000

> <Gold.Chemscore.Hbonds>
donor molecule, donor type, donor heavy atom, donor atom, acceptor molecule, acceptor atom, score
      L1  H    10    32       P1  7957  0.79
      L1  H    12    35       P1  7957  0.91
      P1  H  7997  8008       L1     5  0.68
      P1  H  8011  8017       L1    10  0.90
      L1  C    16    40       P1  7921  1.00

> <Gold.PLP.Chemscore.Internal.Correction>
0.1346

> <Gold.Rescore>
     Score         DG    S(hbond)    S(metal)    S(lipo)     H(rot)  DE(clash)    DE(int)     intcor
     18.01     -21.68       2.74        0.00     122.24       2.83       2.43       1.24       ----

> <Gold.Chemscore.Fitness>
18.0130

> <Gold.Chemscore.DG>
-21.6772

> <Gold.Chemscore.ZeroCoef>
-5.4800

> <Gold.Chemscore.Hbond>
2.7402

> <Gold.Chemscore.Metal>
0.0000

> <Gold.Chemscore.Lipo>
122.2387

> <Gold.Chemscore.Internal_Hbond>
0.0000

> <Gold.Chemscore.DEClash>
2.4257

> <Gold.Chemscore.DEInternal>
1.2384

> <Gold.Chemscore.Rot>
2.8348

> <Gold.Chemscore.Internal.Correction>
   9.000000E+99

> <Gold.Chemscore.Hbonds>
donor molecule, donor type, donor heavy atom, donor atom, acceptor molecule, acceptor atom, score
      L1  H    10    32       P1  7957  0.73
      L1  H    12    35       P1  7957  0.83
      P1  H  7997  8008       L1     5  0.23
      P1  H  8011  8017       L1    10  0.18

> <Gold.Chemscore.Hbond.Weighted>
-9.1524

> <Gold.Chemscore.Metal.Weighted>
-0.0000

> <Gold.Chemscore.Lipo.Weighted>
-14.3019

> <Gold.Chemscore.Internal_Hbond.Weighted>
0.0000

> <Gold.Chemscore.DEClash.Weighted>
2.4257

> <Gold.Chemscore.DEInternal.Weighted>
1.2384

> <Gold.Chemscore.Rot.Weighted>
7.2572

> <Gold.Chemscore.Internal.Correction.Weighted>
   9.000000E+99

> <Gold.Protein.RotatedTorsions>
[ 6907 6896 6895 6894 ] final  -98.74 input  -60.11 | X-H torsion
[ 7974 7965 7964 7962 ] final    1.21 input  175.53 | X-H torsion
[ 8008 7997 7996 7995 ] final  -67.26 input   59.86 | X-H torsion
[ 10167 10162 10161 10158 ] final  141.98 input  -65.29 | X-H torsion
[ 10718 10713 10712 10709 ] final  -40.83 input   66.30 | X-H torsion
[ 10763 10752 10751 10750 ] final -116.85 input  -60.55 | X-H torsion
[ 11005 11000 10999 10996 ] final  159.38 input  -57.11 | X-H torsion

> <Gold.Protein.ActiveResidues>
 VAL166  LYS551  ARG553  GLY616  TRP617  ASP618  TYR619  PRO620  LYS621  CYS622 
 ASP623  PHE694  ASN695  SER759  ASP760  ASP761  ALA762  ILE779  LEU786  VAL792 
 PHE793  MET794  SER795  GLU796  ALA797  LYS798  CYS799  TRP800  GLU811  SER814 

> <Gold.Protein.RotatedAtoms>
  150.7056  134.1148  159.4013 H   0  0  0  0  0  0  0  0  0  0  0  0  # atno 6907 bound_to 6896
  151.9135  135.0326  160.0525 H   0  0  0  0  0  0  0  0  0  0  0  0  # atno 6908 bound_to 6896
  152.2316  133.5027  159.5256 H   0  0  0  0  0  0  0  0  0  0  0  0  # atno 6909 bound_to 6896
  146.2439  140.1021  142.8347 H   0  0  0  0  0  0  0  0  0  0  0  0  # atno 7974 bound_to 7965
  154.4788  140.0896  156.7327 H   0  0  0  0  0  0  0  0  0  0  0  0  # atno 8008 bound_to 7997
  155.4525  140.3458  155.4284 H   0  0  0  0  0  0  0  0  0  0  0  0  # atno 8009 bound_to 7997
  156.1159  140.1460  156.9262 H   0  0  0  0  0  0  0  0  0  0  0  0  # atno 8010 bound_to 7997
  139.5006  144.6137  151.6214 H   0  0  0  0  0  0  0  0  0  0  0  0  # atno 10167 bound_to 10162
  156.2770  130.4213  149.8377 H   0  0  0  0  0  0  0  0  0  0  0  0  # atno 10718 bound_to 10713
  154.8534  135.4331  154.1886 H   0  0  0  0  0  0  0  0  0  0  0  0  # atno 10763 bound_to 10752
  153.2959  135.6965  153.7254 H   0  0  0  0  0  0  0  0  0  0  0  0  # atno 10764 bound_to 10752
  153.6403  135.3469  155.3044 H   0  0  0  0  0  0  0  0  0  0  0  0  # atno 10765 bound_to 10752
  140.1956  134.8375  157.2961 H   0  0  0  0  0  0  0  0  0  0  0  0  # atno 11005 bound_to 11000
  145.0560  140.9052  143.4967 LP  0  0  0  0  0  0  0  0  0  0  0  0  # atno 17320 bound_to 7965
  145.1127  139.2746  143.5629 LP  0  0  0  0  0  0  0  0  0  0  0  0  # atno 17321 bound_to 7965
  140.5818  143.9932  150.6273 LP  0  0  0  0  0  0  0  0  0  0  0  0  # atno 17342 bound_to 10162
  140.3084  143.3214  152.0903 LP  0  0  0  0  0  0  0  0  0  0  0  0  # atno 17343 bound_to 10162
  156.5837  130.8477  151.3390 LP  0  0  0  0  0  0  0  0  0  0  0  0  # atno 17370 bound_to 10713
  157.7302  130.9683  150.1824 LP  0  0  0  0  0  0  0  0  0  0  0  0  # atno 17371 bound_to 10713
  140.2111  134.4137  155.7612 LP  0  0  0  0  0  0  0  0  0  0  0  0  # atno 17394 bound_to 11000
  141.2227  133.7119  156.8339 LP  0  0  0  0  0  0  0  0  0  0  0  0  # atno 17395 bound_to 11000

$$$$
