AV-unprocessed.smi:1684|AV-procd|sdf|6755|dock3
  -GOLD-   22720 7513D 1   1.00000     0.00000
 Structure written by MMmdl.
 43 44  0  0  0  0  0  0  0  0  2 V2000
  145.6346  135.4201  151.0112 C   0  0  0  0  0  0  0  0  0  0  0  0
  145.3008  133.9382  150.9541 C   0  0  0  0  0  0  0  0  0  0  0  0
  144.0757  133.5284  150.3859 C   0  0  0  0  0  0  0  0  0  0  0  0
  143.7691  132.1580  150.3324 C   0  0  0  0  0  0  0  0  0  0  0  0
  144.7066  131.2495  150.8524 C   0  0  0  0  0  0  0  0  0  0  0  0
  145.8799  131.6322  151.3964 N   0  0  0  0  0  0  0  0  0  0  0  0
  146.1898  132.9518  151.4588 C   0  0  0  0  0  0  0  0  0  0  0  0
  147.4108  133.4278  152.0155 N   0  0  0  0  0  0  0  0  0  0  0  0
  147.7085  133.6472  153.3079 C   0  0  0  0  0  0  0  0  0  0  0  0
  146.9265  133.5231  154.2507 O   0  0  0  0  0  0  0  0  0  0  0  0
  148.9910  134.0129  153.4572 N   0  0  0  0  0  0  0  0  0  0  0  0
  149.6519  134.3349  154.7233 C   0  0  2  0  0  0  0  0  0  0  0  0
  149.4168  133.1872  155.7147 C   0  0  0  0  0  0  0  0  0  0  0  0
  149.1524  135.6817  155.2975 C   0  0  0  0  0  0  0  0  0  0  0  0
  149.7126  136.8602  154.5889 N   0  3  0  0  0  0  0  0  0  0  0  0
  148.9755  138.1150  154.8639 C   0  0  0  0  0  0  0  0  0  0  0  0
  149.5568  139.2646  154.0228 C   0  0  0  0  0  0  0  0  0  0  0  0
  150.9458  139.4052  154.2964 O   0  0  0  0  0  0  0  0  0  0  0  0
  151.6771  138.2299  153.9669 C   0  0  0  0  0  0  0  0  0  0  0  0
  151.1653  137.0537  154.8143 C   0  0  0  0  0  0  0  0  0  0  0  0
  144.8468  136.0227  150.5579 H   0  0  0  0  0  0  0  0  0  0  0  0
  146.5621  135.6245  150.4753 H   0  0  0  0  0  0  0  0  0  0  0  0
  145.7520  135.7447  152.0455 H   0  0  0  0  0  0  0  0  0  0  0  0
  143.3769  134.2529  149.9942 H   0  0  0  0  0  0  0  0  0  0  0  0
  142.8398  131.8124  149.9042 H   0  0  0  0  0  0  0  0  0  0  0  0
  144.5112  130.1877  150.8305 H   0  0  0  0  0  0  0  0  0  0  0  0
  148.1488  133.6002  151.3491 H   0  0  0  0  0  0  0  0  0  0  0  0
  149.5568  134.0897  152.6242 H   0  0  0  0  0  0  0  0  0  0  0  0
  150.7286  134.3913  154.5575 H   0  0  0  0  0  0  0  0  0  0  0  0
  149.9348  133.3706  156.6564 H   0  0  0  0  0  0  0  0  0  0  0  0
  149.7866  132.2414  155.3168 H   0  0  0  0  0  0  0  0  0  0  0  0
  148.3565  133.0628  155.9375 H   0  0  0  0  0  0  0  0  0  0  0  0
  148.0644  135.7006  155.2168 H   0  0  0  0  0  0  0  0  0  0  0  0
  149.3771  135.7555  156.3627 H   0  0  0  0  0  0  0  0  0  0  0  0
  147.9192  137.9863  154.6249 H   0  0  0  0  0  0  0  0  0  0  0  0
  149.0399  138.3541  155.9267 H   0  0  0  0  0  0  0  0  0  0  0  0
  149.4011  139.0843  152.9578 H   0  0  0  0  0  0  0  0  0  0  0  0
  149.0526  140.2003  154.2645 H   0  0  0  0  0  0  0  0  0  0  0  0
  151.5825  138.0125  152.9014 H   0  0  0  0  0  0  0  0  0  0  0  0
  152.7348  138.4041  154.1645 H   0  0  0  0  0  0  0  0  0  0  0  0
  151.3527  137.2453  155.8720 H   0  0  0  0  0  0  0  0  0  0  0  0
  151.7162  136.1511  154.5515 H   0  0  0  0  0  0  0  0  0  0  0  0
  149.5945  136.6771  153.6023 H   0  0  0  0  0  0  0  0  0  0  0  0
  1  2  1  0  0  0  0
  1 21  1  0  0  0  0
  1 22  1  0  0  0  0
  1 23  1  0  0  0  0
  2  7  1  0  0  0  0
  2  3  2  0  0  0  0
  3  4  1  0  0  0  0
  3 24  1  0  0  0  0
  4  5  2  0  0  0  0
  4 25  1  0  0  0  0
  5  6  1  0  0  0  0
  5 26  1  0  0  0  0
  6  7  2  0  0  0  0
  7  8  1  0  0  0  0
  8  9  1  0  0  0  0
  8 27  1  0  0  0  0
  9 10  2  0  0  0  0
  9 11  1  0  0  0  0
 11 12  1  0  0  0  0
 11 28  1  0  0  0  0
 12 13  1  0  0  0  0
 12 14  1  0  0  0  0
 12 29  1  0  0  0  0
 13 30  1  0  0  0  0
 13 31  1  0  0  0  0
 13 32  1  0  0  0  0
 14 15  1  0  0  0  0
 14 33  1  0  0  0  0
 14 34  1  0  0  0  0
 15 20  1  0  0  0  0
 15 16  1  0  0  0  0
 15 43  1  0  0  0  0
 16 17  1  0  0  0  0
 16 35  1  0  0  0  0
 16 36  1  0  0  0  0
 17 18  1  0  0  0  0
 17 37  1  0  0  0  0
 17 38  1  0  0  0  0
 18 19  1  0  0  0  0
 19 20  1  0  0  0  0
 19 39  1  0  0  0  0
 19 40  1  0  0  0  0
 20 41  1  0  0  0  0
 20 42  1  0  0  0  0
M  CHG  1  15   1
M  END
> <s_m_source_file>
AV-unprocessed.smi

> <i_m_source_file_index>
1684

> <i_lp_mmshare_version>
43012

> <i_f3d_flags>
0

> <s_epik_input>
W0NIM11jMVtjSF1bY0hdW2NIXW5jMVtOSF1DKD1PKVtOSF1bQ0BIXShbQ0gzXSlbQ0gyXU4yW0NIMl1bQ0gyXU9bQ0gyXVtDSDJdMg==

> <s_epik_cmdline>
J2VwaWtfcHl0aG9uJywgJy1waCcsICc3LjAnLCAnLXRuJywgJzgnLCAnLW1hJywgJzIwMCcsICctbWV0YWxfYmluZGluZycsICctaW1hZScsICc8aW5maWxlLm1hZT4nLCAnLW9tYWUnLCAnPG91dGZpbGUubWFlPic=

> <r_epik_Ionization_Penalty>
0.602571

> <r_epik_Ionization_Penalty_Charging>
0.602531

> <r_epik_Ionization_Penalty_Neutral>
4.09763e-05

> <r_epik_State_Penalty>
0.617039

> <r_epik_Charging_Adjusted_Penalty>
1.21957

> <i_epik_Tot_Q>
1

> <i_epik_Tot_abs_Q>
1

> <r_epik_Metal_State_Penalty>
0.617043

> <b_epik_Metal_Only>
0

> <s_lp_Force_Field>
OPLS_2005

> <r_lp_Energy>
24.8117

> <b_lp_Chiralities_Consistent>
1

> <s_lp_Variant>
AV-unprocessed.smi:1684-3

> <Gold.Version>
5.8.1

> <Gold.Id.Protein>
6NUR|6NUR_protein|mol2

> <Gold.PLP.Fitness>
41.6227

> <Gold.PLP.PLP>
-34.6221

> <Gold.PLP.part.hbond>
-3.5311

> <Gold.PLP.part.metal>
0.0000

> <Gold.PLP.part.buried>
-4.2295

> <Gold.PLP.part.nonpolar>
-26.7428

> <Gold.PLP.part.repulsive>
0.3635

> <Gold.PLP.ligand.clash>
0.0000

> <Gold.PLP.ligand.torsion>
1.0383

> <Gold.PLP.Chemscore.Hbond>
3.0000

> <Gold.PLP.Chemscore.CHOScore>
0.0000

> <Gold.PLP.Chemscore.Metal>
0.0000

> <Gold.Chemscore.Hbonds>
donor molecule, donor type, donor heavy atom, donor atom, acceptor molecule, acceptor atom, score
      L1  H    15    43       P1  7948  2.00
      P1  H  7989  7998       L1    18  1.00

> <Gold.PLP.Chemscore.Internal.Correction>
0.0772

> <Gold.Rescore>
     Score         DG    S(hbond)    S(metal)    S(lipo)     H(rot)  DE(clash)    DE(int)     intcor
     13.83     -16.41       1.62        0.00      80.00       1.51       0.42       2.15       ----

> <Gold.Chemscore.Fitness>
13.8320

> <Gold.Chemscore.DG>
-16.4064

> <Gold.Chemscore.ZeroCoef>
-5.4800

> <Gold.Chemscore.Hbond>
1.6234

> <Gold.Chemscore.Metal>
0.0000

> <Gold.Chemscore.Lipo>
80.0007

> <Gold.Chemscore.Internal_Hbond>
0.0000

> <Gold.Chemscore.DEClash>
0.4223

> <Gold.Chemscore.DEInternal>
2.1522

> <Gold.Chemscore.Rot>
1.5061

> <Gold.Chemscore.Internal.Correction>
   9.000000E+99

> <Gold.Chemscore.Hbonds>
donor molecule, donor type, donor heavy atom, donor atom, acceptor molecule, acceptor atom, score
      L1  H    15    43       P1  7948  0.70
      P1  H  7989  7998       L1    18  0.64

> <Gold.Chemscore.Hbond.Weighted>
-5.4221

> <Gold.Chemscore.Metal.Weighted>
-0.0000

> <Gold.Chemscore.Lipo.Weighted>
-9.3601

> <Gold.Chemscore.Internal_Hbond.Weighted>
0.0000

> <Gold.Chemscore.DEClash.Weighted>
0.4223

> <Gold.Chemscore.DEInternal.Weighted>
2.1522

> <Gold.Chemscore.Rot.Weighted>
3.8557

> <Gold.Chemscore.Internal.Correction.Weighted>
   9.000000E+99

> <Gold.Protein.RotatedTorsions>
[ 6907 6896 6895 6894 ] final -116.03 input  -60.11 | X-H torsion
[ 7974 7965 7964 7962 ] final  105.01 input  175.53 | X-H torsion
[ 8008 7997 7996 7995 ] final -126.36 input   59.86 | X-H torsion
[ 10167 10162 10161 10158 ] final  -11.21 input  -65.29 | X-H torsion
[ 10718 10713 10712 10709 ] final   79.80 input   66.30 | X-H torsion
[ 10763 10752 10751 10750 ] final  154.84 input  -60.55 | X-H torsion
[ 11005 11000 10999 10996 ] final -138.41 input  -57.11 | X-H torsion

> <Gold.Protein.ActiveResidues>
 VAL166  LYS551  ARG553  GLY616  TRP617  ASP618  TYR619  PRO620  LYS621  CYS622 
 ASP623  PHE694  ASN695  SER759  ASP760  ASP761  ALA762  ILE779  LEU786  VAL792 
 PHE793  MET794  SER795  GLU796  ALA797  LYS798  CYS799  TRP800  GLU811  SER814 

> <Gold.Protein.RotatedAtoms>
  150.8024  133.8574  159.3222 H   0  0  0  0  0  0  0  0  0  0  0  0  # atno 6907 bound_to 6896
  151.6383  135.1014  160.0145 H   0  0  0  0  0  0  0  0  0  0  0  0  # atno 6908 bound_to 6896
  152.4112  133.6927  159.6434 H   0  0  0  0  0  0  0  0  0  0  0  0  # atno 6909 bound_to 6896
  145.3253  139.2501  143.3690 H   0  0  0  0  0  0  0  0  0  0  0  0  # atno 7974 bound_to 7965
  155.2284  140.0424  157.2958 H   0  0  0  0  0  0  0  0  0  0  0  0  # atno 8008 bound_to 7997
  154.5904  140.2425  155.7899 H   0  0  0  0  0  0  0  0  0  0  0  0  # atno 8009 bound_to 7997
  156.2255  140.2956  156.0065 H   0  0  0  0  0  0  0  0  0  0  0  0  # atno 8010 bound_to 7997
  140.7133  143.5664  150.9140 H   0  0  0  0  0  0  0  0  0  0  0  0  # atno 10167 bound_to 10162
  157.6787  130.9931  150.1986 H   0  0  0  0  0  0  0  0  0  0  0  0  # atno 10718 bound_to 10713
  154.1588  135.2811  155.3114 H   0  0  0  0  0  0  0  0  0  0  0  0  # atno 10763 bound_to 10752
  154.6162  135.5482  153.7529 H   0  0  0  0  0  0  0  0  0  0  0  0  # atno 10764 bound_to 10752
  153.0198  135.6427  154.1731 H   0  0  0  0  0  0  0  0  0  0  0  0  # atno 10765 bound_to 10752
  140.8619  134.2158  157.4702 H   0  0  0  0  0  0  0  0  0  0  0  0  # atno 11005 bound_to 11000
  146.3066  140.3820  142.8685 LP  0  0  0  0  0  0  0  0  0  0  0  0  # atno 17320 bound_to 7965
  144.8906  140.7519  143.5929 LP  0  0  0  0  0  0  0  0  0  0  0  0  # atno 17321 bound_to 7965
  139.9390  143.6404  152.3058 LP  0  0  0  0  0  0  0  0  0  0  0  0  # atno 17342 bound_to 10162
  139.6882  144.7649  151.1485 LP  0  0  0  0  0  0  0  0  0  0  0  0  # atno 17343 bound_to 10162
  156.2682  130.3718  149.8059 LP  0  0  0  0  0  0  0  0  0  0  0  0  # atno 17370 bound_to 10713
  156.5784  130.8455  151.3376 LP  0  0  0  0  0  0  0  0  0  0  0  0  # atno 17371 bound_to 10713
  139.8707  134.9733  156.4806 LP  0  0  0  0  0  0  0  0  0  0  0  0  # atno 17394 bound_to 11000
  140.8673  133.8014  155.9327 LP  0  0  0  0  0  0  0  0  0  0  0  0  # atno 17395 bound_to 11000

$$$$
