AV-unprocessed.smi:2247|AV-procd|sdf|9087|dock2
  -GOLD-   2272012293D 1   1.00000     0.00000
 Structure written by MMmdl.
 34 35  0  0  0  0  0  0  0  0  1 V2000
  152.8097  143.3063  161.8104 C   0  0  0  0  0  0  0  0  0  0  0  0
  152.6100  142.2480  160.7139 C   0  0  0  0  0  0  0  0  0  0  0  0
  153.8055  141.2833  160.6190 C   0  0  0  0  0  0  0  0  0  0  0  0
  152.3049  142.8945  159.4305 N   0  0  0  0  0  0  0  0  0  0  0  0
  152.2950  144.3395  159.2688 C   0  0  0  0  0  0  0  0  0  0  0  0
  151.5904  144.5708  157.9289 C   0  0  0  0  0  0  0  0  0  0  0  0
  151.7140  143.2483  157.1554 C   0  0  2  0  0  0  0  0  0  0  0  0
  150.4621  142.9524  156.4613 N   0  0  0  0  0  0  0  0  0  0  0  0
  150.2387  141.8712  155.6997 C   0  0  0  0  0  0  0  0  0  0  0  0
  151.0872  141.0064  155.4803 O   0  0  0  0  0  0  0  0  0  0  0  0
  148.9835  141.8638  155.2207 N   0  0  0  0  0  0  0  0  0  0  0  0
  148.3821  140.8852  154.3900 C   0  0  0  0  0  0  0  0  0  0  0  0
  148.6786  139.5853  154.3493 N   0  0  0  0  0  0  0  0  0  0  0  0
  147.8238  139.0618  153.3899 C   0  0  0  0  0  0  0  0  0  0  0  0
  147.0530  140.0845  152.8998 C   0  0  0  0  0  0  0  0  0  0  0  0
  147.3975  141.2516  153.5273 O   0  0  0  0  0  0  0  0  0  0  0  0
  151.9623  142.2633  158.2989 C   0  0  0  0  0  0  0  0  0  0  0  0
  151.8648  141.0437  158.1612 O   0  0  0  0  0  0  0  0  0  0  0  0
  152.9886  142.8381  162.7787 H   0  0  0  0  0  0  0  0  0  0  0  0
  151.9301  143.9429  161.9119 H   0  0  0  0  0  0  0  0  0  0  0  0
  153.6625  143.9491  161.5893 H   0  0  0  0  0  0  0  0  0  0  0  0
  151.7465  141.6422  160.9947 H   0  0  0  0  0  0  0  0  0  0  0  0
  153.9469  140.7492  161.5589 H   0  0  0  0  0  0  0  0  0  0  0  0
  154.7360  141.8082  160.4014 H   0  0  0  0  0  0  0  0  0  0  0  0
  153.6481  140.5365  159.8402 H   0  0  0  0  0  0  0  0  0  0  0  0
  151.7749  144.8387  160.0874 H   0  0  0  0  0  0  0  0  0  0  0  0
  153.3212  144.7080  159.2334 H   0  0  0  0  0  0  0  0  0  0  0  0
  150.5427  144.8132  158.1170 H   0  0  0  0  0  0  0  0  0  0  0  0
  152.0209  145.4091  157.3801 H   0  0  0  0  0  0  0  0  0  0  0  0
  152.5752  143.2616  156.4851 H   0  0  0  0  0  0  0  0  0  0  0  0
  149.7066  143.6093  156.5888 H   0  0  0  0  0  0  0  0  0  0  0  0
  148.3917  142.6382  155.4816 H   0  0  0  0  0  0  0  0  0  0  0  0
  147.8306  138.0127  153.1338 H   0  0  0  0  0  0  0  0  0  0  0  0
  146.2710  140.1447  152.1576 H   0  0  0  0  0  0  0  0  0  0  0  0
  1  2  1  0  0  0  0
  1 19  1  0  0  0  0
  1 20  1  0  0  0  0
  1 21  1  0  0  0  0
  2  3  1  0  0  0  0
  2  4  1  0  0  0  0
  2 22  1  0  0  0  0
  3 23  1  0  0  0  0
  3 24  1  0  0  0  0
  3 25  1  0  0  0  0
  4 17  1  0  0  0  0
  4  5  1  0  0  0  0
  5  6  1  0  0  0  0
  5 26  1  0  0  0  0
  5 27  1  0  0  0  0
  6  7  1  0  0  0  0
  6 28  1  0  0  0  0
  6 29  1  0  0  0  0
  7  8  1  0  0  0  0
  7 17  1  0  0  0  0
  7 30  1  0  0  0  0
  8  9  1  0  0  0  0
  8 31  1  0  0  0  0
  9 10  2  0  0  0  0
  9 11  1  0  0  0  0
 11 12  1  0  0  0  0
 11 32  1  0  0  0  0
 12 16  1  0  0  0  0
 12 13  2  0  0  0  0
 13 14  1  0  0  0  0
 14 15  2  0  0  0  0
 14 33  1  0  0  0  0
 15 16  1  0  0  0  0
 15 34  1  0  0  0  0
 17 18  2  0  0  0  0
M  END
> <s_m_source_file>
AV-unprocessed.smi

> <i_m_source_file_index>
2247

> <i_lp_mmshare_version>
43012

> <i_f3d_flags>
0

> <s_epik_input>
W0NIM11bQ0hdKFtDSDNdKU4xW0NIMl1bQ0gyXVtDQEhdKEMxPU8pW05IXUMoPU8pW05IXWMybltjSF1bY0hdbzI=

> <s_epik_cmdline>
J2VwaWtfcHl0aG9uJywgJy1waCcsICc3LjAnLCAnLXRuJywgJzgnLCAnLW1hJywgJzIwMCcsICctbWV0YWxfYmluZGluZycsICctaW1hZScsICc8aW5maWxlLm1hZT4nLCAnLW9tYWUnLCAnPG91dGZpbGUubWFlPic=

> <r_lp_tautomer_probability>
0.785861

> <r_epik_Ionization_Penalty>
5.15801e-05

> <r_epik_Ionization_Penalty_Charging>
0

> <r_epik_Ionization_Penalty_Neutral>
5.15801e-05

> <r_epik_State_Penalty>
0.0205761

> <r_epik_Charging_Adjusted_Penalty>
0.0205761

> <i_epik_Tot_Q>
0

> <i_epik_Tot_abs_Q>
0

> <r_epik_Metal_State_Penalty>
0.0168939

> <b_epik_Metal_Only>
0

> <s_lp_Force_Field>
OPLS_2005

> <r_lp_Energy>
20.4704

> <b_lp_Chiralities_Consistent>
1

> <s_lp_Variant>
AV-unprocessed.smi:2247-2

> <Gold.Version>
5.8.1

> <Gold.Id.Protein>
6NUR|6NUR_protein|mol2

> <Gold.PLP.Fitness>
49.3346

> <Gold.PLP.PLP>
-39.2288

> <Gold.PLP.part.hbond>
-2.8621

> <Gold.PLP.part.metal>
0.0000

> <Gold.PLP.part.buried>
-3.5509

> <Gold.PLP.part.nonpolar>
-31.9805

> <Gold.PLP.part.repulsive>
0.5659

> <Gold.PLP.ligand.clash>
0.0000

> <Gold.PLP.ligand.torsion>
0.2452

> <Gold.PLP.Chemscore.Hbond>
1.5227

> <Gold.PLP.Chemscore.CHOScore>
1.9818

> <Gold.PLP.Chemscore.Metal>
0.0000

> <Gold.Chemscore.Hbonds>
donor molecule, donor type, donor heavy atom, donor atom, acceptor molecule, acceptor atom, score
      L1  H     8    31       P1  8028  0.75
      L1  H    11    32       P1  8028  0.44
      P1  H  7989  7998       L1    10  0.64
      L1  C    14    33       P1  7948  1.00
      L1  C    15    34       P1 10175  0.79

> <Gold.PLP.Chemscore.Internal.Correction>
0.0825

> <Gold.Rescore>
     Score         DG    S(hbond)    S(metal)    S(lipo)     H(rot)  DE(clash)    DE(int)     intcor
     14.10     -17.06       1.52        0.00      84.74       1.33       0.70       2.26       ----

> <Gold.Chemscore.Fitness>
14.1009

> <Gold.Chemscore.DG>
-17.0595

> <Gold.Chemscore.ZeroCoef>
-5.4800

> <Gold.Chemscore.Hbond>
1.5209

> <Gold.Chemscore.Metal>
0.0000

> <Gold.Chemscore.Lipo>
84.7352

> <Gold.Chemscore.Internal_Hbond>
0.0000

> <Gold.Chemscore.DEClash>
0.6964

> <Gold.Chemscore.DEInternal>
2.2622

> <Gold.Chemscore.Rot>
1.3338

> <Gold.Chemscore.Internal.Correction>
   9.000000E+99

> <Gold.Chemscore.Hbonds>
donor molecule, donor type, donor heavy atom, donor atom, acceptor molecule, acceptor atom, score
      L1  H     8    31       P1  8028  0.76
      L1  H    11    32       P1  8028  0.44
      P1  H  7989  7998       L1    10  0.51

> <Gold.Chemscore.Hbond.Weighted>
-5.0800

> <Gold.Chemscore.Metal.Weighted>
-0.0000

> <Gold.Chemscore.Lipo.Weighted>
-9.9140

> <Gold.Chemscore.Internal_Hbond.Weighted>
0.0000

> <Gold.Chemscore.DEClash.Weighted>
0.6964

> <Gold.Chemscore.DEInternal.Weighted>
2.2622

> <Gold.Chemscore.Rot.Weighted>
3.4145

> <Gold.Chemscore.Internal.Correction.Weighted>
   9.000000E+99

> <Gold.Protein.RotatedTorsions>
[ 6907 6896 6895 6894 ] final -157.73 input  -60.11 | X-H torsion
[ 7974 7965 7964 7962 ] final -169.43 input  175.53 | X-H torsion
[ 8008 7997 7996 7995 ] final  165.73 input   59.86 | X-H torsion
[ 10167 10162 10161 10158 ] final  136.88 input  -65.29 | X-H torsion
[ 10718 10713 10712 10709 ] final  -67.16 input   66.30 | X-H torsion
[ 10763 10752 10751 10750 ] final  -36.23 input  -60.55 | X-H torsion
[ 11005 11000 10999 10996 ] final  112.17 input  -57.11 | X-H torsion

> <Gold.Protein.ActiveResidues>
 VAL166  LYS551  ARG553  GLY616  TRP617  ASP618  TYR619  PRO620  LYS621  CYS622 
 ASP623  PHE694  ASN695  SER759  ASP760  ASP761  ALA762  ILE779  LEU786  VAL792 
 PHE793  MET794  SER795  GLU796  ALA797  LYS798  CYS799  TRP800  GLU811  SER814 

> <Gold.Protein.RotatedAtoms>
  151.3073  133.4096  159.2643 H   0  0  0  0  0  0  0  0  0  0  0  0  # atno 6907 bound_to 6896
  151.0144  134.9422  159.8035 H   0  0  0  0  0  0  0  0  0  0  0  0  # atno 6908 bound_to 6896
  152.5309  134.3037  159.9140 H   0  0  0  0  0  0  0  0  0  0  0  0  # atno 6909 bound_to 6896
  144.7186  140.2223  143.6314 H   0  0  0  0  0  0  0  0  0  0  0  0  # atno 7974 bound_to 7965
  156.1776  140.1662  156.8333 H   0  0  0  0  0  0  0  0  0  0  0  0  # atno 8008 bound_to 7997
  154.5324  140.0754  156.8402 H   0  0  0  0  0  0  0  0  0  0  0  0  # atno 8009 bound_to 7997
  155.3379  140.3383  155.4241 H   0  0  0  0  0  0  0  0  0  0  0  0  # atno 8010 bound_to 7997
  139.5164  144.6440  151.5490 H   0  0  0  0  0  0  0  0  0  0  0  0  # atno 10167 bound_to 10162
  156.0572  130.4273  150.1815 H   0  0  0  0  0  0  0  0  0  0  0  0  # atno 10718 bound_to 10713
  153.8764  135.6826  153.4770 H   0  0  0  0  0  0  0  0  0  0  0  0  # atno 10763 bound_to 10752
  153.1258  135.4719  154.9268 H   0  0  0  0  0  0  0  0  0  0  0  0  # atno 10764 bound_to 10752
  154.7690  135.3233  154.8180 H   0  0  0  0  0  0  0  0  0  0  0  0  # atno 10765 bound_to 10752
  139.8921  134.9524  156.6545 H   0  0  0  0  0  0  0  0  0  0  0  0  # atno 11005 bound_to 11000
  145.8489  139.2166  143.1783 LP  0  0  0  0  0  0  0  0  0  0  0  0  # atno 17320 bound_to 7965
  146.0278  140.8287  142.9891 LP  0  0  0  0  0  0  0  0  0  0  0  0  # atno 17321 bound_to 7965
  140.6218  143.9243  150.6532 LP  0  0  0  0  0  0  0  0  0  0  0  0  # atno 17342 bound_to 10162
  140.2519  143.3587  152.1398 LP  0  0  0  0  0  0  0  0  0  0  0  0  # atno 17343 bound_to 10162
  156.9889  130.9887  151.3419 LP  0  0  0  0  0  0  0  0  0  0  0  0  # atno 17370 bound_to 10713
  157.5552  130.8209  149.8195 LP  0  0  0  0  0  0  0  0  0  0  0  0  # atno 17371 bound_to 10713
  140.7495  133.8910  155.8336 LP  0  0  0  0  0  0  0  0  0  0  0  0  # atno 17394 bound_to 11000
  141.0012  134.1147  157.4315 LP  0  0  0  0  0  0  0  0  0  0  0  0  # atno 17395 bound_to 11000

$$$$
