AV-unprocessed.smi:301|AV-procd|sdf|2270|dock9
  -GOLD-   2262022163D 1   1.00000     0.00000
 Structure written by MMmdl.
 32 33  0  0  0  0  0  0  0  0  1 V2000
  146.1509  142.5883  158.3216 C   0  0  0  0  0  0  0  0  0  0  0  0
  146.3523  142.4890  156.8482 C   0  0  0  0  0  0  0  0  0  0  0  0
  147.4712  142.0263  156.2853 N   0  0  0  0  0  0  0  0  0  0  0  0
  147.4192  142.0418  154.8871 C   0  0  0  0  0  0  0  0  0  0  0  0
  148.5944  141.5569  154.0878 C   0  0  0  0  0  0  0  0  0  0  0  0
  149.7695  141.2094  155.0065 C   0  0  0  0  0  0  0  0  0  0  0  0
  150.4518  140.2072  154.7901 O   0  0  0  0  0  0  0  0  0  0  0  0
  150.0014  142.0503  156.0264 N   0  0  0  0  0  0  0  0  0  0  0  0
  151.0785  141.9102  156.9998 C   0  0  0  0  0  0  0  0  0  0  0  0
  151.0730  143.0606  158.0203 C   0  0  2  0  0  0  0  0  0  0  0  0
  151.8747  144.2803  157.5786 C   0  0  0  0  0  0  0  0  0  0  0  0
  152.1145  144.9822  158.8981 C   0  0  0  0  0  0  0  0  0  0  0  0
  152.2355  143.8216  159.8884 C   0  0  0  0  0  0  0  0  0  0  0  0
  151.7168  142.6698  159.2264 O   0  0  0  0  0  0  0  0  0  0  0  0
  146.2271  142.5169  154.3973 C   0  0  0  0  0  0  0  0  0  0  0  0
  145.1347  142.9749  155.6750 S   0  0  0  0  0  0  0  0  0  0  0  0
  146.9438  142.0626  158.8546 H   0  0  0  0  0  0  0  0  0  0  0  0
  145.1932  142.1469  158.5981 H   0  0  0  0  0  0  0  0  0  0  0  0
  146.1571  143.6346  158.6276 H   0  0  0  0  0  0  0  0  0  0  0  0
  148.3326  140.6688  153.5114 H   0  0  0  0  0  0  0  0  0  0  0  0
  148.8957  142.3146  153.3628 H   0  0  0  0  0  0  0  0  0  0  0  0
  149.3985  142.8541  156.1270 H   0  0  0  0  0  0  0  0  0  0  0  0
  150.9600  140.9543  157.5107 H   0  0  0  0  0  0  0  0  0  0  0  0
  152.0387  141.8680  156.4831 H   0  0  0  0  0  0  0  0  0  0  0  0
  150.0516  143.3675  158.2533 H   0  0  0  0  0  0  0  0  0  0  0  0
  152.8255  143.9759  157.1383 H   0  0  0  0  0  0  0  0  0  0  0  0
  151.3437  144.9000  156.8555 H   0  0  0  0  0  0  0  0  0  0  0  0
  152.9959  145.6239  158.8847 H   0  0  0  0  0  0  0  0  0  0  0  0
  151.2507  145.5987  159.1512 H   0  0  0  0  0  0  0  0  0  0  0  0
  153.2758  143.6370  160.1575 H   0  0  0  0  0  0  0  0  0  0  0  0
  151.6796  144.0221  160.8049 H   0  0  0  0  0  0  0  0  0  0  0  0
  145.9287  142.6291  153.3656 H   0  0  0  0  0  0  0  0  0  0  0  0
  1  2  1  0  0  0  0
  1 17  1  0  0  0  0
  1 18  1  0  0  0  0
  1 19  1  0  0  0  0
  2 16  1  0  0  0  0
  2  3  2  0  0  0  0
  3  4  1  0  0  0  0
  4  5  1  0  0  0  0
  4 15  2  0  0  0  0
  5  6  1  0  0  0  0
  5 20  1  0  0  0  0
  5 21  1  0  0  0  0
  6  7  2  0  0  0  0
  6  8  1  0  0  0  0
  8  9  1  0  0  0  0
  8 22  1  0  0  0  0
  9 10  1  0  0  0  0
  9 23  1  0  0  0  0
  9 24  1  0  0  0  0
 10 14  1  0  0  0  0
 10 11  1  0  0  0  0
 10 25  1  0  0  0  0
 11 12  1  0  0  0  0
 11 26  1  0  0  0  0
 11 27  1  0  0  0  0
 12 13  1  0  0  0  0
 12 28  1  0  0  0  0
 12 29  1  0  0  0  0
 13 14  1  0  0  0  0
 13 30  1  0  0  0  0
 13 31  1  0  0  0  0
 15 16  1  0  0  0  0
 15 32  1  0  0  0  0
M  END
> <s_m_source_file>
AV-unprocessed.smi

> <i_m_source_file_index>
301

> <i_lp_mmshare_version>
43012

> <i_f3d_flags>
0

> <s_epik_input>
W0NIM11jMW5jKFtjSF1zMSlbQ0gyXUMoPU8pW05IXVtDSDJdW0NAQEhdMltDSDJdW0NIMl1bQ0gyXU8y

> <s_epik_cmdline>
J2VwaWtfcHl0aG9uJywgJy1waCcsICc3LjAnLCAnLXRuJywgJzgnLCAnLW1hJywgJzIwMCcsICctbWV0YWxfYmluZGluZycsICctaW1hZScsICc8aW5maWxlLm1hZT4nLCAnLW9tYWUnLCAnPG91dGZpbGUubWFlPic=

> <r_lp_tautomer_probability>
1

> <r_epik_Ionization_Penalty>
6.06873e-05

> <r_epik_Ionization_Penalty_Charging>
0

> <r_epik_Ionization_Penalty_Neutral>
6.06873e-05

> <r_epik_State_Penalty>
-0

> <r_epik_Charging_Adjusted_Penalty>
0

> <i_epik_Tot_Q>
0

> <i_epik_Tot_abs_Q>
0

> <r_epik_Metal_State_Penalty>
-0

> <b_epik_Metal_Only>
0

> <s_lp_Force_Field>
OPLS_2005

> <r_lp_Energy>
15.97

> <b_lp_Chiralities_Consistent>
1

> <s_lp_Variant>
AV-unprocessed.smi:301-1

> <Gold.Version>
5.8.1

> <Gold.Id.Protein>
6NUR|6NUR_protein|mol2

> <Gold.PLP.Fitness>
41.7063

> <Gold.PLP.PLP>
-36.8552

> <Gold.PLP.part.hbond>
-2.0000

> <Gold.PLP.part.metal>
0.0000

> <Gold.PLP.part.buried>
-3.4741

> <Gold.PLP.part.nonpolar>
-30.8919

> <Gold.PLP.part.repulsive>
0.5086

> <Gold.PLP.ligand.clash>
0.0000

> <Gold.PLP.ligand.torsion>
0.5807

> <Gold.PLP.Chemscore.Hbond>
2.0000

> <Gold.PLP.Chemscore.CHOScore>
0.0000

> <Gold.PLP.Chemscore.Metal>
0.0000

> <Gold.Chemscore.Hbonds>
donor molecule, donor type, donor heavy atom, donor atom, acceptor molecule, acceptor atom, score
      L1  H     8    22       P1  8028  1.00
      P1  H  7989  7998       L1     7  1.00

> <Gold.PLP.Chemscore.Internal.Correction>
0.0126

> <Gold.Rescore>
     Score         DG    S(hbond)    S(metal)    S(lipo)     H(rot)  DE(clash)    DE(int)     intcor
     16.17     -16.76       1.66        0.00      82.22       1.51       0.06       0.53       ----

> <Gold.Chemscore.Fitness>
16.1711

> <Gold.Chemscore.DG>
-16.7645

> <Gold.Chemscore.ZeroCoef>
-5.4800

> <Gold.Chemscore.Hbond>
1.6560

> <Gold.Chemscore.Metal>
0.0000

> <Gold.Chemscore.Lipo>
82.2249

> <Gold.Chemscore.Internal_Hbond>
0.0000

> <Gold.Chemscore.DEClash>
0.0638

> <Gold.Chemscore.DEInternal>
0.5296

> <Gold.Chemscore.Rot>
1.5106

> <Gold.Chemscore.Internal.Correction>
   9.000000E+99

> <Gold.Chemscore.Hbonds>
donor molecule, donor type, donor heavy atom, donor atom, acceptor molecule, acceptor atom, score
      L1  H     8    22       P1  8028  0.92
      P1  H  7989  7998       L1     7  0.25

> <Gold.Chemscore.Hbond.Weighted>
-5.5312

> <Gold.Chemscore.Metal.Weighted>
-0.0000

> <Gold.Chemscore.Lipo.Weighted>
-9.6203

> <Gold.Chemscore.Internal_Hbond.Weighted>
0.0000

> <Gold.Chemscore.DEClash.Weighted>
0.0638

> <Gold.Chemscore.DEInternal.Weighted>
0.5296

> <Gold.Chemscore.Rot.Weighted>
3.8670

> <Gold.Chemscore.Internal.Correction.Weighted>
   9.000000E+99

> <Gold.Protein.RotatedTorsions>
[ 6907 6896 6895 6894 ] final -179.11 input  -60.11 | X-H torsion
[ 7974 7965 7964 7962 ] final  -15.10 input  175.53 | X-H torsion
[ 8008 7997 7996 7995 ] final   37.35 input   59.86 | X-H torsion
[ 10167 10162 10161 10158 ] final   89.37 input  -65.29 | X-H torsion
[ 10718 10713 10712 10709 ] final  160.49 input   66.30 | X-H torsion
[ 10763 10752 10751 10750 ] final   20.97 input  -60.55 | X-H torsion
[ 11005 11000 10999 10996 ] final  -81.05 input  -57.11 | X-H torsion

> <Gold.Protein.ActiveResidues>
 VAL166  LYS551  ARG553  GLY616  TRP617  ASP618  TYR619  PRO620  LYS621  CYS622 
 ASP623  PHE694  ASN695  SER759  ASP760  ASP761  ALA762  ILE779  LEU786  VAL792 
 PHE793  MET794  SER795  GLU796  ALA797  LYS798  CYS799  TRP800  GLU811  SER814 

> <Gold.Protein.RotatedAtoms>
  151.6481  133.3322  159.3145 H   0  0  0  0  0  0  0  0  0  0  0  0  # atno 6907 bound_to 6896
  150.7974  134.7047  159.6579 H   0  0  0  0  0  0  0  0  0  0  0  0  # atno 6908 bound_to 6896
  152.4062  134.6206  160.0101 H   0  0  0  0  0  0  0  0  0  0  0  0  # atno 6909 bound_to 6896
  146.2046  140.3444  142.8411 H   0  0  0  0  0  0  0  0  0  0  0  0  # atno 7974 bound_to 7965
  155.2024  140.3317  155.4341 H   0  0  0  0  0  0  0  0  0  0  0  0  # atno 8008 bound_to 7997
  156.2402  140.1891  156.7059 H   0  0  0  0  0  0  0  0  0  0  0  0  # atno 8009 bound_to 7997
  154.6133  140.0606  156.9507 H   0  0  0  0  0  0  0  0  0  0  0  0  # atno 8010 bound_to 7997
  139.8579  144.6559  150.9093 H   0  0  0  0  0  0  0  0  0  0  0  0  # atno 10167 bound_to 10162
  157.1497  131.0561  151.2286 H   0  0  0  0  0  0  0  0  0  0  0  0  # atno 10718 bound_to 10713
  153.1033  135.6678  153.9632 H   0  0  0  0  0  0  0  0  0  0  0  0  # atno 10763 bound_to 10752
  153.9196  135.3016  155.3449 H   0  0  0  0  0  0  0  0  0  0  0  0  # atno 10764 bound_to 10752
  154.7454  135.5060  153.9271 H   0  0  0  0  0  0  0  0  0  0  0  0  # atno 10765 bound_to 10752
  141.1667  133.7178  156.8365 H   0  0  0  0  0  0  0  0  0  0  0  0  # atno 11005 bound_to 11000
  144.8763  140.7340  143.6015 LP  0  0  0  0  0  0  0  0  0  0  0  0  # atno 17320 bound_to 7965
  145.3364  139.1744  143.4509 LP  0  0  0  0  0  0  0  0  0  0  0  0  # atno 17321 bound_to 7965
  140.7779  143.3770  151.1546 LP  0  0  0  0  0  0  0  0  0  0  0  0  # atno 17342 bound_to 10162
  139.7402  143.8936  152.3047 LP  0  0  0  0  0  0  0  0  0  0  0  0  # atno 17343 bound_to 10162
  157.4232  130.7449  149.6930 LP  0  0  0  0  0  0  0  0  0  0  0  0  # atno 17370 bound_to 10713
  155.9773  130.4065  150.3723 LP  0  0  0  0  0  0  0  0  0  0  0  0  # atno 17371 bound_to 10713
  140.2014  134.8894  157.3173 LP  0  0  0  0  0  0  0  0  0  0  0  0  # atno 17394 bound_to 11000
  140.2184  134.4054  155.7578 LP  0  0  0  0  0  0  0  0  0  0  0  0  # atno 17395 bound_to 11000

$$$$
