AV-unprocessed.smi:3308|AV-procd|sdf|12713|dock10
  -GOLD-   2272019 53D 1   1.00000     0.00000
 Structure written by MMmdl.
 40 41  0  0  0  0  0  0  0  0  1 V2000
  147.5196  140.2617  156.3903 C   0  0  0  0  0  0  0  0  0  0  0  0
  148.6159  141.3127  156.1091 C   0  0  1  0  0  0  0  0  0  0  0  0
  149.6173  141.2375  157.1688 N   0  0  0  0  0  0  0  0  0  0  0  0
  150.7667  142.1157  156.9165 C   0  0  0  0  0  0  0  0  0  0  0  0
  151.7046  142.1667  158.1266 C   0  0  0  0  0  0  0  0  0  0  0  0
  152.4476  141.2084  158.3386 O   0  0  0  0  0  0  0  0  0  0  0  0
  151.6861  143.2568  158.9231 N   0  0  0  0  0  0  0  0  0  0  0  0
  152.5178  143.4694  160.1078 C   0  0  0  0  0  0  0  0  0  0  0  0
  152.3021  144.9285  160.5102 C   0  0  0  0  0  0  0  0  0  0  0  0
  150.9276  145.2699  159.9518 C   0  0  0  0  0  0  0  0  0  0  0  0
  150.8081  144.4035  158.6981 C   0  0  0  0  0  0  0  0  0  0  0  0
  149.3284  141.1000  154.7463 C   0  0  2  0  0  0  0  0  0  0  0  0
  148.3509  141.1119  153.5560 C   0  0  0  0  0  0  0  0  0  0  0  0
  150.1024  139.8647  154.7266 N   0  0  0  0  0  0  0  0  0  0  0  0
  149.6465  138.5617  154.6886 C   0  0  0  0  0  0  0  0  0  0  0  0
  150.7410  137.7456  154.6797 C   0  0  0  0  0  0  0  0  0  0  0  0
  151.8377  138.6515  154.7074 C   0  0  0  0  0  0  0  0  0  0  0  0
  151.4530  139.9171  154.7329 N   0  0  0  0  0  0  0  0  0  0  0  0
  146.7142  140.3140  155.6579 H   0  0  0  0  0  0  0  0  0  0  0  0
  147.0576  140.3992  157.3673 H   0  0  0  0  0  0  0  0  0  0  0  0
  147.9277  139.2508  156.3593 H   0  0  0  0  0  0  0  0  0  0  0  0
  148.1623  142.3057  156.1023 H   0  0  0  0  0  0  0  0  0  0  0  0
  149.9190  140.2782  157.2640 H   0  0  0  0  0  0  0  0  0  0  0  0
  151.3218  141.7408  156.0550 H   0  0  0  0  0  0  0  0  0  0  0  0
  150.4437  143.1235  156.6580 H   0  0  0  0  0  0  0  0  0  0  0  0
  152.1826  142.8025  160.9034 H   0  0  0  0  0  0  0  0  0  0  0  0
  153.5730  143.2698  159.9174 H   0  0  0  0  0  0  0  0  0  0  0  0
  152.3723  145.0852  161.5869 H   0  0  0  0  0  0  0  0  0  0  0  0
  153.0561  145.5552  160.0316 H   0  0  0  0  0  0  0  0  0  0  0  0
  150.1600  144.9806  160.6709 H   0  0  0  0  0  0  0  0  0  0  0  0
  150.8068  146.3335  159.7438 H   0  0  0  0  0  0  0  0  0  0  0  0
  151.1576  144.9494  157.8206 H   0  0  0  0  0  0  0  0  0  0  0  0
  149.7744  144.1024  158.5212 H   0  0  0  0  0  0  0  0  0  0  0  0
  150.0317  141.9233  154.6022 H   0  0  0  0  0  0  0  0  0  0  0  0
  147.8310  142.0662  153.4724 H   0  0  0  0  0  0  0  0  0  0  0  0
  147.5958  140.3311  153.6515 H   0  0  0  0  0  0  0  0  0  0  0  0
  148.8795  140.9492  152.6160 H   0  0  0  0  0  0  0  0  0  0  0  0
  148.5920  138.3271  154.6751 H   0  0  0  0  0  0  0  0  0  0  0  0
  150.7560  136.6661  154.6557 H   0  0  0  0  0  0  0  0  0  0  0  0
  152.8945  138.4289  154.7094 H   0  0  0  0  0  0  0  0  0  0  0  0
  1  2  1  0  0  0  0
  1 19  1  0  0  0  0
  1 20  1  0  0  0  0
  1 21  1  0  0  0  0
  2  3  1  0  0  0  0
  2 12  1  0  0  0  0
  2 22  1  0  0  0  0
  3  4  1  0  0  0  0
  3 23  1  0  0  0  0
  4  5  1  0  0  0  0
  4 24  1  0  0  0  0
  4 25  1  0  0  0  0
  5  6  2  0  0  0  0
  5  7  1  0  0  0  0
  7 11  1  0  0  0  0
  7  8  1  0  0  0  0
  8  9  1  0  0  0  0
  8 26  1  0  0  0  0
  8 27  1  0  0  0  0
  9 10  1  0  0  0  0
  9 28  1  0  0  0  0
  9 29  1  0  0  0  0
 10 11  1  0  0  0  0
 10 30  1  0  0  0  0
 10 31  1  0  0  0  0
 11 32  1  0  0  0  0
 11 33  1  0  0  0  0
 12 13  1  0  0  0  0
 12 14  1  0  0  0  0
 12 34  1  0  0  0  0
 13 35  1  0  0  0  0
 13 36  1  0  0  0  0
 13 37  1  0  0  0  0
 14 18  1  0  0  0  0
 14 15  1  0  0  0  0
 15 16  2  0  0  0  0
 15 38  1  0  0  0  0
 16 17  1  0  0  0  0
 16 39  1  0  0  0  0
 17 18  2  0  0  0  0
 17 40  1  0  0  0  0
M  END
> <s_m_source_file>
AV-unprocessed.smi

> <i_m_source_file_index>
3308

> <i_lp_mmshare_version>
43012

> <i_f3d_flags>
0

> <s_epik_input>
bjFbY0hdW2NIXVtjSF1uMVtDQEBIXShbQ0gzXSlbQ0BIXShbQ0gzXSlbTkhdW0NIMl1DKD1PKU4yW0NIMl1bQ0gyXVtDSDJdW0NIMl0y

> <s_epik_cmdline>
J2VwaWtfcHl0aG9uJywgJy1waCcsICc3LjAnLCAnLXRuJywgJzgnLCAnLW1hJywgJzIwMCcsICctbWV0YWxfYmluZGluZycsICctaW1hZScsICc8aW5maWxlLm1hZT4nLCAnLW9tYWUnLCAnPG91dGZpbGUubWFlPic=

> <r_lp_tautomer_probability>
1

> <r_epik_Ionization_Penalty>
0.918676

> <r_epik_Ionization_Penalty_Charging>
0

> <r_epik_Ionization_Penalty_Neutral>
0.918676

> <r_epik_State_Penalty>
0.958258

> <r_epik_Charging_Adjusted_Penalty>
0.958258

> <i_epik_Tot_Q>
0

> <i_epik_Tot_abs_Q>
0

> <r_epik_Metal_State_Penalty>
0.956879

> <b_epik_Metal_Only>
0

> <s_lp_Force_Field>
OPLS_2005

> <r_lp_Energy>
35.768

> <b_lp_Chiralities_Consistent>
1

> <s_lp_Variant>
AV-unprocessed.smi:3308-6

> <Gold.Version>
5.8.1

> <Gold.Id.Protein>
6NUR|6NUR_protein|mol2

> <Gold.PLP.Fitness>
41.3476

> <Gold.PLP.PLP>
-39.1116

> <Gold.PLP.part.hbond>
-0.9463

> <Gold.PLP.part.metal>
0.0000

> <Gold.PLP.part.buried>
-3.1066

> <Gold.PLP.part.nonpolar>
-34.3420

> <Gold.PLP.part.repulsive>
0.0735

> <Gold.PLP.ligand.clash>
0.0000

> <Gold.PLP.ligand.torsion>
0.4150

> <Gold.PLP.Chemscore.Hbond>
1.0000

> <Gold.PLP.Chemscore.CHOScore>
0.0000

> <Gold.PLP.Chemscore.Metal>
0.0000

> <Gold.Chemscore.Hbonds>
donor molecule, donor type, donor heavy atom, donor atom, acceptor molecule, acceptor atom, score
      P1  H  7989  7998       L1    18  0.95

> <Gold.PLP.Chemscore.Internal.Correction>
0.0659

> <Gold.Rescore>
     Score         DG    S(hbond)    S(metal)    S(lipo)     H(rot)  DE(clash)    DE(int)     intcor
     14.33     -14.75       0.95        0.00      89.64       1.72       0.03       0.39       ----

> <Gold.Chemscore.Fitness>
14.3293

> <Gold.Chemscore.DG>
-14.7502

> <Gold.Chemscore.ZeroCoef>
-5.4800

> <Gold.Chemscore.Hbond>
0.9536

> <Gold.Chemscore.Metal>
0.0000

> <Gold.Chemscore.Lipo>
89.6427

> <Gold.Chemscore.Internal_Hbond>
0.0000

> <Gold.Chemscore.DEClash>
0.0324

> <Gold.Chemscore.DEInternal>
0.3885

> <Gold.Chemscore.Rot>
1.7200

> <Gold.Chemscore.Internal.Correction>
   9.000000E+99

> <Gold.Chemscore.Hbonds>
donor molecule, donor type, donor heavy atom, donor atom, acceptor molecule, acceptor atom, score
      P1  H  7989  7998       L1    18  0.21

> <Gold.Chemscore.Hbond.Weighted>
-3.1851

> <Gold.Chemscore.Metal.Weighted>
-0.0000

> <Gold.Chemscore.Lipo.Weighted>
-10.4882

> <Gold.Chemscore.Internal_Hbond.Weighted>
0.0000

> <Gold.Chemscore.DEClash.Weighted>
0.0324

> <Gold.Chemscore.DEInternal.Weighted>
0.3885

> <Gold.Chemscore.Rot.Weighted>
4.4031

> <Gold.Chemscore.Internal.Correction.Weighted>
   9.000000E+99

> <Gold.Protein.RotatedTorsions>
[ 6907 6896 6895 6894 ] final   17.50 input  -60.11 | X-H torsion
[ 7974 7965 7964 7962 ] final -160.71 input  175.53 | X-H torsion
[ 8008 7997 7996 7995 ] final  157.20 input   59.86 | X-H torsion
[ 10167 10162 10161 10158 ] final  -12.34 input  -65.29 | X-H torsion
[ 10718 10713 10712 10709 ] final   63.12 input   66.30 | X-H torsion
[ 10763 10752 10751 10750 ] final   79.62 input  -60.55 | X-H torsion
[ 11005 11000 10999 10996 ] final   -0.51 input  -57.11 | X-H torsion

> <Gold.Protein.ActiveResidues>
 VAL166  LYS551  ARG553  GLY616  TRP617  ASP618  TYR619  PRO620  LYS621  CYS622 
 ASP623  PHE694  ASN695  SER759  ASP760  ASP761  ALA762  ILE779  LEU786  VAL792 
 PHE793  MET794  SER795  GLU796  ALA797  LYS798  CYS799  TRP800  GLU811  SER814 

> <Gold.Protein.RotatedAtoms>
  151.8506  135.0559  160.0458 H   0  0  0  0  0  0  0  0  0  0  0  0  # atno 6907 bound_to 6896
  152.2740  133.5404  159.5465 H   0  0  0  0  0  0  0  0  0  0  0  0  # atno 6908 bound_to 6896
  150.7162  134.0574  159.3862 H   0  0  0  0  0  0  0  0  0  0  0  0  # atno 6909 bound_to 6896
  144.7417  140.3502  143.6117 H   0  0  0  0  0  0  0  0  0  0  0  0  # atno 7974 bound_to 7965
  156.2378  140.1892  156.7072 H   0  0  0  0  0  0  0  0  0  0  0  0  # atno 8008 bound_to 7997
  154.6139  140.0618  156.9556 H   0  0  0  0  0  0  0  0  0  0  0  0  # atno 8009 bound_to 7997
  155.1971  140.3289  155.4351 H   0  0  0  0  0  0  0  0  0  0  0  0  # atno 8010 bound_to 7997
  140.7159  143.5542  150.9267 H   0  0  0  0  0  0  0  0  0  0  0  0  # atno 10167 bound_to 10162
  157.5949  130.9088  149.9675 H   0  0  0  0  0  0  0  0  0  0  0  0  # atno 10718 bound_to 10713
  153.0967  135.4833  154.8791 H   0  0  0  0  0  0  0  0  0  0  0  0  # atno 10763 bound_to 10752
  154.7332  135.3065  154.8858 H   0  0  0  0  0  0  0  0  0  0  0  0  # atno 10764 bound_to 10752
  153.9487  135.6826  153.4797 H   0  0  0  0  0  0  0  0  0  0  0  0  # atno 10765 bound_to 10752
  140.6371  133.9523  155.8305 H   0  0  0  0  0  0  0  0  0  0  0  0  # atno 11005 bound_to 11000
  145.7284  139.1729  143.2444 LP  0  0  0  0  0  0  0  0  0  0  0  0  # atno 17320 bound_to 7965
  146.1225  140.7291  142.9451 LP  0  0  0  0  0  0  0  0  0  0  0  0  # atno 17321 bound_to 7965
  139.9267  143.6542  152.3085 LP  0  0  0  0  0  0  0  0  0  0  0  0  # atno 17342 bound_to 10162
  139.6978  144.7639  151.1326 LP  0  0  0  0  0  0  0  0  0  0  0  0  # atno 17343 bound_to 10162
  156.1010  130.3656  150.0218 LP  0  0  0  0  0  0  0  0  0  0  0  0  # atno 17370 bound_to 10713
  156.8334  130.9400  151.3636 LP  0  0  0  0  0  0  0  0  0  0  0  0  # atno 17371 bound_to 10713
  141.0634  134.0313  157.3628 LP  0  0  0  0  0  0  0  0  0  0  0  0  # atno 17394 bound_to 11000
  139.9094  135.0187  156.7627 LP  0  0  0  0  0  0  0  0  0  0  0  0  # atno 17395 bound_to 11000

$$$$
