AV-unprocessed.smi:2802|AV-procd|sdf|10805|dock2
  -GOLD-   2272015243D 1   1.00000     0.00000
 Structure written by MMmdl.
 47 48  0  0  0  0  0  0  0  0  1 V2000
  142.0085  134.7867  153.0669 C   0  0  0  0  0  0  0  0  0  0  0  0
  143.2442  134.5515  152.1855 C   0  0  2  0  0  0  0  0  0  0  0  0
  143.4469  133.0529  151.9044 C   0  0  0  0  0  0  0  0  0  0  0  0
  144.6615  132.7567  150.9964 C   0  0  0  0  0  0  0  0  0  0  0  0
  144.9318  131.2372  151.0276 C   0  0  0  0  0  0  0  0  0  0  0  0
  144.3552  133.1204  149.5263 C   0  0  0  0  0  0  0  0  0  0  0  0
  145.9302  133.4821  151.5299 C   0  0  0  0  0  0  0  0  0  0  0  0
  145.7958  134.9711  151.9839 C   0  0  2  0  0  0  0  0  0  0  0  0
  145.8121  135.9649  150.7852 C   0  0  0  0  0  0  0  0  0  0  0  0
  146.3608  137.2207  151.1380 O   0  0  0  0  0  0  0  0  0  0  0  0
  146.9159  135.2740  152.8915 N   0  0  0  0  0  0  0  0  0  0  0  0
  147.1056  134.8564  154.1561 C   0  0  0  0  0  0  0  0  0  0  0  0
  146.3266  134.1136  154.7550 O   0  0  0  0  0  0  0  0  0  0  0  0
  148.3830  135.3617  154.8365 C   0  0  0  0  0  0  0  0  0  0  0  0
  149.2070  134.2203  155.4092 C   0  0  0  0  0  0  0  0  0  0  0  0
  149.6483  133.1625  154.5876 C   0  0  0  0  0  0  0  0  0  0  0  0
  150.3994  132.1217  155.1665 C   0  0  0  0  0  0  0  0  0  0  0  0
  150.6778  132.1831  156.5466 C   0  0  0  0  0  0  0  0  0  0  0  0
  150.2630  133.1919  157.3429 N   0  0  0  0  0  0  0  0  0  0  0  0
  149.5430  134.1860  156.7797 C   0  0  0  0  0  0  0  0  0  0  0  0
  144.5099  135.1391  152.8341 C   0  0  0  0  0  0  0  0  0  0  0  0
  142.1123  134.3001  154.0371 H   0  0  0  0  0  0  0  0  0  0  0  0
  141.1081  134.3951  152.5926 H   0  0  0  0  0  0  0  0  0  0  0  0
  141.8493  135.8509  153.2433 H   0  0  0  0  0  0  0  0  0  0  0  0
  143.0576  135.0685  151.2455 H   0  0  0  0  0  0  0  0  0  0  0  0
  143.5750  132.5388  152.8582 H   0  0  0  0  0  0  0  0  0  0  0  0
  142.5431  132.6337  151.4596 H   0  0  0  0  0  0  0  0  0  0  0  0
  145.7852  130.9726  150.4019 H   0  0  0  0  0  0  0  0  0  0  0  0
  144.0723  130.6704  150.6673 H   0  0  0  0  0  0  0  0  0  0  0  0
  145.1481  130.8861  152.0373 H   0  0  0  0  0  0  0  0  0  0  0  0
  145.2374  133.0014  148.8965 H   0  0  0  0  0  0  0  0  0  0  0  0
  143.9947  134.1366  149.3983 H   0  0  0  0  0  0  0  0  0  0  0  0
  143.5787  132.4728  149.1178 H   0  0  0  0  0  0  0  0  0  0  0  0
  146.2719  132.9167  152.3992 H   0  0  0  0  0  0  0  0  0  0  0  0
  146.7337  133.3812  150.7994 H   0  0  0  0  0  0  0  0  0  0  0  0
  146.3816  135.5633  149.9473 H   0  0  0  0  0  0  0  0  0  0  0  0
  144.8135  136.1598  150.4069 H   0  0  0  0  0  0  0  0  0  0  0  0
  147.2072  137.0777  151.5332 H   0  0  0  0  0  0  0  0  0  0  0  0
  147.6315  135.8723  152.5055 H   0  0  0  0  0  0  0  0  0  0  0  0
  148.9751  135.9200  154.1104 H   0  0  0  0  0  0  0  0  0  0  0  0
  148.1276  136.0555  155.6389 H   0  0  0  0  0  0  0  0  0  0  0  0
  149.4124  133.1453  153.5336 H   0  0  0  0  0  0  0  0  0  0  0  0
  150.7517  131.2951  154.5677 H   0  0  0  0  0  0  0  0  0  0  0  0
  151.2493  131.4004  157.0234 H   0  0  0  0  0  0  0  0  0  0  0  0
  149.2211  134.9752  157.4433 H   0  0  0  0  0  0  0  0  0  0  0  0
  144.3486  136.1919  153.0699 H   0  0  0  0  0  0  0  0  0  0  0  0
  144.6510  134.6447  153.7972 H   0  0  0  0  0  0  0  0  0  0  0  0
  1  2  1  0  0  0  0
  1 22  1  0  0  0  0
  1 23  1  0  0  0  0
  1 24  1  0  0  0  0
  2 21  1  0  0  0  0
  2  3  1  0  0  0  0
  2 25  1  0  0  0  0
  3  4  1  0  0  0  0
  3 26  1  0  0  0  0
  3 27  1  0  0  0  0
  4  5  1  0  0  0  0
  4  6  1  0  0  0  0
  4  7  1  0  0  0  0
  5 28  1  0  0  0  0
  5 29  1  0  0  0  0
  5 30  1  0  0  0  0
  6 31  1  0  0  0  0
  6 32  1  0  0  0  0
  6 33  1  0  0  0  0
  7  8  1  0  0  0  0
  7 34  1  0  0  0  0
  7 35  1  0  0  0  0
  8  9  1  0  0  0  0
  8 11  1  0  0  0  0
  8 21  1  0  0  0  0
  9 10  1  0  0  0  0
  9 36  1  0  0  0  0
  9 37  1  0  0  0  0
 10 38  1  0  0  0  0
 11 12  1  0  0  0  0
 11 39  1  0  0  0  0
 12 13  2  0  0  0  0
 12 14  1  0  0  0  0
 14 15  1  0  0  0  0
 14 40  1  0  0  0  0
 14 41  1  0  0  0  0
 15 20  1  0  0  0  0
 15 16  2  0  0  0  0
 16 17  1  0  0  0  0
 16 42  1  0  0  0  0
 17 18  2  0  0  0  0
 17 43  1  0  0  0  0
 18 19  1  0  0  0  0
 18 44  1  0  0  0  0
 19 20  2  0  0  0  0
 20 45  1  0  0  0  0
 21 46  1  0  0  0  0
 21 47  1  0  0  0  0
M  END
> <s_m_source_file>
AV-unprocessed.smi

> <i_m_source_file_index>
2802

> <i_lp_mmshare_version>
43012

> <i_f3d_flags>
0

> <s_epik_input>
W0NIM11DMShbQ0gzXSlbQ0gyXVtDQEBIXShbQ0gzXSlbQ0gyXVtDQF0oW0NIMl0xKShbQ0gyXVtPSF0pW05IXUMoPU8pW0NIMl1jMltjSF1bY0hdW2NIXW5bY0hdMg==

> <s_epik_cmdline>
J2VwaWtfcHl0aG9uJywgJy1waCcsICc3LjAnLCAnLXRuJywgJzgnLCAnLW1hJywgJzIwMCcsICctbWV0YWxfYmluZGluZycsICctaW1hZScsICc8aW5maWxlLm1hZT4nLCAnLW9tYWUnLCAnPG91dGZpbGUubWFlPic=

> <r_epik_Ionization_Penalty>
0.004793

> <r_epik_Ionization_Penalty_Charging>
0

> <r_epik_Ionization_Penalty_Neutral>
0.004793

> <r_epik_State_Penalty>
0.00347421

> <r_epik_Charging_Adjusted_Penalty>
0.00347421

> <i_epik_Tot_Q>
0

> <i_epik_Tot_abs_Q>
0

> <r_epik_Metal_State_Penalty>
-0

> <b_epik_Metal_Only>
0

> <s_lp_Force_Field>
OPLS_2005

> <r_lp_Energy>
22.6418

> <b_lp_Chiralities_Consistent>
1

> <s_lp_Variant>
AV-unprocessed.smi:2802-3

> <Gold.Version>
5.8.1

> <Gold.Id.Protein>
6NUR|6NUR_protein|mol2

> <Gold.PLP.Fitness>
42.7587

> <Gold.PLP.PLP>
-35.4424

> <Gold.PLP.part.hbond>
-3.8570

> <Gold.PLP.part.metal>
0.0000

> <Gold.PLP.part.buried>
-3.7494

> <Gold.PLP.part.nonpolar>
-28.4383

> <Gold.PLP.part.repulsive>
0.0606

> <Gold.PLP.ligand.clash>
0.0000

> <Gold.PLP.ligand.torsion>
0.8486

> <Gold.PLP.Chemscore.Hbond>
3.0000

> <Gold.PLP.Chemscore.CHOScore>
0.0000

> <Gold.PLP.Chemscore.Metal>
0.0000

> <Gold.Chemscore.Hbonds>
donor molecule, donor type, donor heavy atom, donor atom, acceptor molecule, acceptor atom, score
      L1  H    10    38       P1  7948  1.00
      L1  H    11    39       P1  7948  0.93
      P1  H  6896  6908       L1    19  0.94

> <Gold.PLP.Chemscore.Internal.Correction>
0.0135

> <Gold.Rescore>
     Score         DG    S(hbond)    S(metal)    S(lipo)     H(rot)  DE(clash)    DE(int)     intcor
     17.83     -20.42       2.80        0.00      91.53       2.00       0.28       2.31       ----

> <Gold.Chemscore.Fitness>
17.8310

> <Gold.Chemscore.DG>
-20.4182

> <Gold.Chemscore.ZeroCoef>
-5.4800

> <Gold.Chemscore.Hbond>
2.8010

> <Gold.Chemscore.Metal>
0.0000

> <Gold.Chemscore.Lipo>
91.5328

> <Gold.Chemscore.Internal_Hbond>
0.0000

> <Gold.Chemscore.DEClash>
0.2767

> <Gold.Chemscore.DEInternal>
2.3104

> <Gold.Chemscore.Rot>
2.0026

> <Gold.Chemscore.Internal.Correction>
   9.000000E+99

> <Gold.Chemscore.Hbonds>
donor molecule, donor type, donor heavy atom, donor atom, acceptor molecule, acceptor atom, score
      L1  H    10    38       P1  7948  0.98
      L1  H    11    39       P1  7948  0.87
      P1  H  6896  6908       L1    19  0.83

> <Gold.Chemscore.Hbond.Weighted>
-9.3555

> <Gold.Chemscore.Metal.Weighted>
-0.0000

> <Gold.Chemscore.Lipo.Weighted>
-10.7093

> <Gold.Chemscore.Internal_Hbond.Weighted>
0.0000

> <Gold.Chemscore.DEClash.Weighted>
0.2767

> <Gold.Chemscore.DEInternal.Weighted>
2.3104

> <Gold.Chemscore.Rot.Weighted>
5.1267

> <Gold.Chemscore.Internal.Correction.Weighted>
   9.000000E+99

> <Gold.Protein.RotatedTorsions>
[ 6907 6896 6895 6894 ] final   96.17 input  -60.11 | X-H torsion
[ 7974 7965 7964 7962 ] final  -54.09 input  175.53 | X-H torsion
[ 8008 7997 7996 7995 ] final  161.33 input   59.86 | X-H torsion
[ 10167 10162 10161 10158 ] final -165.43 input  -65.29 | X-H torsion
[ 10718 10713 10712 10709 ] final   66.36 input   66.30 | X-H torsion
[ 10763 10752 10751 10750 ] final  140.80 input  -60.55 | X-H torsion
[ 11005 11000 10999 10996 ] final  -37.17 input  -57.11 | X-H torsion

> <Gold.Protein.ActiveResidues>
 VAL166  LYS551  ARG553  GLY616  TRP617  ASP618  TYR619  PRO620  LYS621  CYS622 
 ASP623  PHE694  ASN695  SER759  ASP760  ASP761  ALA762  ILE779  LEU786  VAL792 
 PHE793  MET794  SER795  GLU796  ALA797  LYS798  CYS799  TRP800  GLU811  SER814 

> <Gold.Protein.RotatedAtoms>
  152.5437  134.0927  159.8283 H   0  0  0  0  0  0  0  0  0  0  0  0  # atno 6907 bound_to 6896
  151.1014  133.5233  159.2617 H   0  0  0  0  0  0  0  0  0  0  0  0  # atno 6908 bound_to 6896
  151.1987  135.0442  159.8917 H   0  0  0  0  0  0  0  0  0  0  0  0  # atno 6909 bound_to 6896
  145.8895  140.8082  142.9799 H   0  0  0  0  0  0  0  0  0  0  0  0  # atno 7974 bound_to 7965
  156.2110  140.1780  156.7694 H   0  0  0  0  0  0  0  0  0  0  0  0  # atno 8008 bound_to 7997
  154.5723  140.0680  156.9012 H   0  0  0  0  0  0  0  0  0  0  0  0  # atno 8009 bound_to 7997
  155.2651  140.3338  155.4272 H   0  0  0  0  0  0  0  0  0  0  0  0  # atno 8010 bound_to 7997
  139.6182  144.0677  152.1908 H   0  0  0  0  0  0  0  0  0  0  0  0  # atno 10167 bound_to 10162
  157.6164  130.9263  150.0099 H   0  0  0  0  0  0  0  0  0  0  0  0  # atno 10718 bound_to 10713
  153.9288  135.2992  155.3446 H   0  0  0  0  0  0  0  0  0  0  0  0  # atno 10763 bound_to 10752
  154.7538  135.4967  153.9340 H   0  0  0  0  0  0  0  0  0  0  0  0  # atno 10764 bound_to 10752
  153.1103  135.6757  153.9617 H   0  0  0  0  0  0  0  0  0  0  0  0  # atno 10765 bound_to 10752
  140.9931  133.6994  156.1886 H   0  0  0  0  0  0  0  0  0  0  0  0  # atno 11005 bound_to 11000
  144.6730  140.1507  143.7430 LP  0  0  0  0  0  0  0  0  0  0  0  0  # atno 17320 bound_to 7965
  145.8926  139.2384  143.1540 LP  0  0  0  0  0  0  0  0  0  0  0  0  # atno 17321 bound_to 7965
  140.0312  144.6079  150.7486 LP  0  0  0  0  0  0  0  0  0  0  0  0  # atno 17342 bound_to 10162
  140.7365  143.2754  151.3759 LP  0  0  0  0  0  0  0  0  0  0  0  0  # atno 17343 bound_to 10162
  156.1288  130.3644  149.9765 LP  0  0  0  0  0  0  0  0  0  0  0  0  # atno 17370 bound_to 10713
  156.7830  130.9228  151.3646 LP  0  0  0  0  0  0  0  0  0  0  0  0  # atno 17371 bound_to 10713
  140.7008  134.4566  157.5586 LP  0  0  0  0  0  0  0  0  0  0  0  0  # atno 17394 bound_to 11000
  139.9002  134.8575  156.1930 LP  0  0  0  0  0  0  0  0  0  0  0  0  # atno 17395 bound_to 11000

$$$$
