AV-unprocessed.smi:2482|AV-procd|sdf|9780|dock5
  -GOLD-   2272013423D 1   1.00000     0.00000
 Structure written by MMmdl.
 34 35  0  0  0  0  0  0  0  0  1 V2000
  151.5978  145.4594  160.0148 C   0  0  0  0  0  0  0  0  0  0  0  0
  152.1022  144.0577  160.3031 C   0  0  0  0  0  0  0  0  0  0  0  0
  152.5106  143.8325  161.5709 N   0  0  0  0  0  0  0  0  0  0  0  0
  152.9758  142.6048  161.8793 C   0  0  0  0  0  0  0  0  0  0  0  0
  153.0508  141.5490  160.9512 C   0  0  0  0  0  0  0  0  0  0  0  0
  152.6082  141.7764  159.6260 C   0  0  0  0  0  0  0  0  0  0  0  0
  152.6597  140.7889  158.6039 N   0  0  0  0  0  0  0  0  0  0  0  0
  153.0285  139.4972  158.6908 C   0  0  0  0  0  0  0  0  0  0  0  0
  153.4065  138.9505  159.7271 O   0  0  0  0  0  0  0  0  0  0  0  0
  152.9560  138.6979  157.3816 C   0  0  1  0  0  0  0  0  0  0  0  0
  151.9696  137.5095  157.4551 C   0  0  0  0  0  0  0  0  0  0  0  0
  151.8687  136.8090  156.1808 N   0  0  0  0  0  0  0  0  0  0  0  0
  150.9371  135.6939  156.2544 C   0  0  0  0  0  0  0  0  0  0  0  0
  151.4994  137.7495  155.1319 C   0  0  0  0  0  0  0  0  0  0  0  0
  152.4824  138.9296  155.0582 C   0  0  0  0  0  0  0  0  0  0  0  0
  152.5501  139.5724  156.3271 O   0  0  0  0  0  0  0  0  0  0  0  0
  152.1354  143.0676  159.2931 C   0  0  0  0  0  0  0  0  0  0  0  0
  151.6016  143.4282  157.6850 Cl  0  0  0  0  0  0  0  0  0  0  0  0
  150.5623  145.4273  159.6755 H   0  0  0  0  0  0  0  0  0  0  0  0
  152.2020  145.9281  159.2378 H   0  0  0  0  0  0  0  0  0  0  0  0
  151.6412  146.0919  160.9025 H   0  0  0  0  0  0  0  0  0  0  0  0
  153.3061  142.4606  162.8972 H   0  0  0  0  0  0  0  0  0  0  0  0
  153.4548  140.6004  161.2686 H   0  0  0  0  0  0  0  0  0  0  0  0
  152.2916  141.0765  157.7082 H   0  0  0  0  0  0  0  0  0  0  0  0
  153.9599  138.3273  157.1666 H   0  0  0  0  0  0  0  0  0  0  0  0
  152.2942  136.8101  158.2268 H   0  0  0  0  0  0  0  0  0  0  0  0
  150.9841  137.8699  157.7556 H   0  0  0  0  0  0  0  0  0  0  0  0
  150.8998  135.1585  155.3052 H   0  0  0  0  0  0  0  0  0  0  0  0
  149.9291  136.0370  156.4911 H   0  0  0  0  0  0  0  0  0  0  0  0
  151.2437  134.9846  157.0237 H   0  0  0  0  0  0  0  0  0  0  0  0
  151.4716  137.2385  154.1688 H   0  0  0  0  0  0  0  0  0  0  0  0
  150.4930  138.1298  155.3135 H   0  0  0  0  0  0  0  0  0  0  0  0
  153.4755  138.5886  154.7620 H   0  0  0  0  0  0  0  0  0  0  0  0
  152.1542  139.6511  154.3098 H   0  0  0  0  0  0  0  0  0  0  0  0
  1  2  1  0  0  0  0
  1 19  1  0  0  0  0
  1 20  1  0  0  0  0
  1 21  1  0  0  0  0
  2 17  1  0  0  0  0
  2  3  2  0  0  0  0
  3  4  1  0  0  0  0
  4  5  2  0  0  0  0
  4 22  1  0  0  0  0
  5  6  1  0  0  0  0
  5 23  1  0  0  0  0
  6  7  1  0  0  0  0
  6 17  2  0  0  0  0
  7  8  1  0  0  0  0
  7 24  1  0  0  0  0
  8  9  2  0  0  0  0
  8 10  1  0  0  0  0
 10 16  1  0  0  0  0
 10 11  1  0  0  0  0
 10 25  1  0  0  0  0
 11 12  1  0  0  0  0
 11 26  1  0  0  0  0
 11 27  1  0  0  0  0
 12 13  1  0  0  0  0
 12 14  1  0  0  0  0
 13 28  1  0  0  0  0
 13 29  1  0  0  0  0
 13 30  1  0  0  0  0
 14 15  1  0  0  0  0
 14 31  1  0  0  0  0
 14 32  1  0  0  0  0
 15 16  1  0  0  0  0
 15 33  1  0  0  0  0
 15 34  1  0  0  0  0
 17 18  1  0  0  0  0
M  END
> <s_m_source_file>
AV-unprocessed.smi

> <i_m_source_file_index>
2482

> <i_lp_mmshare_version>
43012

> <i_f3d_flags>
0

> <s_epik_input>
W0NIM11jMW5bY0hdW2NIXWMoYzFDbClbTkhdQyg9TylbQ0BASF0yW0NIMl1OKFtDSDNdKVtDSDJdW0NIMl1PMg==

> <s_epik_cmdline>
J2VwaWtfcHl0aG9uJywgJy1waCcsICc3LjAnLCAnLXRuJywgJzgnLCAnLW1hJywgJzIwMCcsICctbWV0YWxfYmluZGluZycsICctaW1hZScsICc8aW5maWxlLm1hZT4nLCAnLW9tYWUnLCAnPG91dGZpbGUubWFlPic=

> <r_epik_Ionization_Penalty>
0.52656

> <r_epik_Ionization_Penalty_Charging>
0

> <r_epik_Ionization_Penalty_Neutral>
0.52656

> <r_epik_State_Penalty>
0.534659

> <r_epik_Charging_Adjusted_Penalty>
0.534659

> <i_epik_Tot_Q>
0

> <i_epik_Tot_abs_Q>
0

> <r_epik_Metal_State_Penalty>
0.54077

> <b_epik_Metal_Only>
0

> <s_lp_Force_Field>
OPLS_2005

> <r_lp_Energy>
25.124

> <b_lp_Chiralities_Consistent>
1

> <s_lp_Variant>
AV-unprocessed.smi:2482-6

> <Gold.Version>
5.8.1

> <Gold.Id.Protein>
6NUR|6NUR_protein|mol2

> <Gold.PLP.Fitness>
38.0586

> <Gold.PLP.PLP>
-37.3636

> <Gold.PLP.part.hbond>
-1.7287

> <Gold.PLP.part.metal>
0.0000

> <Gold.PLP.part.buried>
-4.0930

> <Gold.PLP.part.nonpolar>
-31.9361

> <Gold.PLP.part.repulsive>
0.2405

> <Gold.PLP.ligand.clash>
0.0000

> <Gold.PLP.ligand.torsion>
0.0118

> <Gold.PLP.Chemscore.Hbond>
0.2389

> <Gold.PLP.Chemscore.CHOScore>
0.0000

> <Gold.PLP.Chemscore.Metal>
0.0000

> <Gold.Chemscore.Hbonds>
donor molecule, donor type, donor heavy atom, donor atom, acceptor molecule, acceptor atom, score
      P1  H 10752 10765       L1    12  0.23

> <Gold.PLP.Chemscore.Internal.Correction>
0.0020

> <Gold.Rescore>
     Score         DG    S(hbond)    S(metal)    S(lipo)     H(rot)  DE(clash)    DE(int)     intcor
     14.26     -15.58       0.01        0.00     107.93       1.00       0.04       1.28       ----

> <Gold.Chemscore.Fitness>
14.2579

> <Gold.Chemscore.DG>
-15.5796

> <Gold.Chemscore.ZeroCoef>
-5.4800

> <Gold.Chemscore.Hbond>
0.0096

> <Gold.Chemscore.Metal>
0.0000

> <Gold.Chemscore.Lipo>
107.9282

> <Gold.Chemscore.Internal_Hbond>
0.0000

> <Gold.Chemscore.DEClash>
0.0443

> <Gold.Chemscore.DEInternal>
1.2774

> <Gold.Chemscore.Rot>
1.0000

> <Gold.Chemscore.Internal.Correction>
   9.000000E+99

> <Gold.Chemscore.Hbond.Weighted>
-0.0320

> <Gold.Chemscore.Metal.Weighted>
-0.0000

> <Gold.Chemscore.Lipo.Weighted>
-12.6276

> <Gold.Chemscore.Internal_Hbond.Weighted>
0.0000

> <Gold.Chemscore.DEClash.Weighted>
0.0443

> <Gold.Chemscore.DEInternal.Weighted>
1.2774

> <Gold.Chemscore.Rot.Weighted>
2.5600

> <Gold.Chemscore.Internal.Correction.Weighted>
   9.000000E+99

> <Gold.Protein.RotatedTorsions>
[ 6907 6896 6895 6894 ] final  169.67 input  -60.11 | X-H torsion
[ 7974 7965 7964 7962 ] final  -71.72 input  175.53 | X-H torsion
[ 8008 7997 7996 7995 ] final   37.06 input   59.86 | X-H torsion
[ 10167 10162 10161 10158 ] final  160.52 input  -65.29 | X-H torsion
[ 10718 10713 10712 10709 ] final  140.29 input   66.30 | X-H torsion
[ 10763 10752 10751 10750 ] final -146.31 input  -60.55 | X-H torsion
[ 11005 11000 10999 10996 ] final   85.79 input  -57.11 | X-H torsion

> <Gold.Protein.ActiveResidues>
 VAL166  LYS551  ARG553  GLY616  TRP617  ASP618  TYR619  PRO620  LYS621  CYS622 
 ASP623  PHE694  ASN695  SER759  ASP760  ASP761  ALA762  ILE779  LEU786  VAL792 
 PHE793  MET794  SER795  GLU796  ALA797  LYS798  CYS799  TRP800  GLU811  SER814 

> <Gold.Protein.RotatedAtoms>
  151.8282  133.3404  159.3604 H   0  0  0  0  0  0  0  0  0  0  0  0  # atno 6907 bound_to 6896
  150.7272  134.5508  159.5803 H   0  0  0  0  0  0  0  0  0  0  0  0  # atno 6908 bound_to 6896
  152.2955  134.7672  160.0420 H   0  0  0  0  0  0  0  0  0  0  0  0  # atno 6909 bound_to 6896
  145.6745  140.9209  143.0865 H   0  0  0  0  0  0  0  0  0  0  0  0  # atno 7974 bound_to 7965
  155.1976  140.3313  155.4348 H   0  0  0  0  0  0  0  0  0  0  0  0  # atno 8008 bound_to 7997
  156.2419  140.1899  156.7015 H   0  0  0  0  0  0  0  0  0  0  0  0  # atno 8009 bound_to 7997
  154.6163  140.0601  156.9544 H   0  0  0  0  0  0  0  0  0  0  0  0  # atno 8010 bound_to 7997
  139.4841  144.4626  151.8685 H   0  0  0  0  0  0  0  0  0  0  0  0  # atno 10167 bound_to 10162
  157.4049  131.1021  151.0514 H   0  0  0  0  0  0  0  0  0  0  0  0  # atno 10718 bound_to 10713
  154.8342  135.3390  154.6642 H   0  0  0  0  0  0  0  0  0  0  0  0  # atno 10763 bound_to 10752
  153.7258  135.6955  153.5006 H   0  0  0  0  0  0  0  0  0  0  0  0  # atno 10764 bound_to 10752
  153.2348  135.4404  155.0587 H   0  0  0  0  0  0  0  0  0  0  0  0  # atno 10765 bound_to 10752
  139.8962  134.8311  156.2631 H   0  0  0  0  0  0  0  0  0  0  0  0  # atno 11005 bound_to 11000
  144.7046  139.8615  143.7434 LP  0  0  0  0  0  0  0  0  0  0  0  0  # atno 17320 bound_to 7965
  146.1017  139.4013  143.0342 LP  0  0  0  0  0  0  0  0  0  0  0  0  # atno 17321 bound_to 7965
  140.4089  144.2395  150.5889 LP  0  0  0  0  0  0  0  0  0  0  0  0  # atno 17342 bound_to 10162
  140.4985  143.2325  151.8713 LP  0  0  0  0  0  0  0  0  0  0  0  0  # atno 17343 bound_to 10162
  157.1500  130.6180  149.5579 LP  0  0  0  0  0  0  0  0  0  0  0  0  # atno 17370 bound_to 10713
  155.9833  130.4852  150.6928 LP  0  0  0  0  0  0  0  0  0  0  0  0  # atno 17371 bound_to 10713
  141.0150  133.7074  156.1173 LP  0  0  0  0  0  0  0  0  0  0  0  0  # atno 17394 bound_to 11000
  140.7315  134.4250  157.5565 LP  0  0  0  0  0  0  0  0  0  0  0  0  # atno 17395 bound_to 11000

$$$$
