AV-unprocessed.smi:1540|AV-procd|sdf|6198|dock4
  -GOLD-   22720 6363D 1   1.00000     0.00000
 Structure written by MMmdl.
 33 33  0  0  0  0  0  0  0  0  1 V2000
  152.5316  142.8103  161.7129 C   0  0  0  0  0  0  0  0  0  0  0  0
  153.3981  141.9035  161.2373 C   0  0  0  0  0  0  0  0  0  0  0  0
  153.0686  140.8757  160.1780 C   0  0  0  0  0  0  0  0  0  0  0  0
  151.7923  141.1470  159.6118 O   0  0  0  0  0  0  0  0  0  0  0  0
  151.8054  141.8815  158.3901 C   0  0  2  0  0  0  0  0  0  0  0  0
  152.3427  143.2859  158.7023 C   0  0  0  0  0  0  0  0  0  0  0  0
  150.3929  141.9453  157.7861 C   0  0  0  0  0  0  0  0  0  0  0  0
  149.4416  142.2541  158.5033 O   0  0  0  0  0  0  0  0  0  0  0  0
  150.3120  141.6511  156.4733 N   0  0  0  0  0  0  0  0  0  0  0  0
  149.1800  141.5789  155.6443 C   0  0  0  0  0  0  0  0  0  0  0  0
  147.9706  142.1273  155.9323 C   0  0  0  0  0  0  0  0  0  0  0  0
  146.8353  142.0076  155.0327 C   0  0  0  0  0  0  0  0  0  0  0  0
  145.4714  142.5762  155.3940 C   0  0  0  0  0  0  0  0  0  0  0  0
  144.5494  141.6155  155.4700 F   0  0  0  0  0  0  0  0  0  0  0  0
  145.5139  143.2090  156.5666 F   0  0  0  0  0  0  0  0  0  0  0  0
  145.0849  143.4504  154.4659 F   0  0  0  0  0  0  0  0  0  0  0  0
  147.0341  141.2981  153.9065 C   0  0  0  0  0  0  0  0  0  0  0  0
  148.2738  140.7305  153.6035 N   0  0  0  0  0  0  0  0  0  0  0  0
  149.3640  140.8165  154.3984 C   0  0  0  0  0  0  0  0  0  0  0  0
  150.4195  140.2785  154.0655 O   0  0  0  0  0  0  0  0  0  0  0  0
  148.3450  140.2197  152.7352 H   0  0  0  0  0  0  0  0  0  0  0  0
  151.5145  142.8581  161.3526 H   0  0  0  0  0  0  0  0  0  0  0  0
  152.8305  143.5183  162.4717 H   0  0  0  0  0  0  0  0  0  0  0  0
  154.4079  141.8847  161.6206 H   0  0  0  0  0  0  0  0  0  0  0  0
  153.8357  140.8889  159.4020 H   0  0  0  0  0  0  0  0  0  0  0  0
  153.0892  139.8909  160.6449 H   0  0  0  0  0  0  0  0  0  0  0  0
  152.4901  141.4014  157.6882 H   0  0  0  0  0  0  0  0  0  0  0  0
  152.3676  143.9087  157.8073 H   0  0  0  0  0  0  0  0  0  0  0  0
  153.3590  143.2316  159.0933 H   0  0  0  0  0  0  0  0  0  0  0  0
  151.7309  143.7945  159.4485 H   0  0  0  0  0  0  0  0  0  0  0  0
  151.1891  141.4905  155.9989 H   0  0  0  0  0  0  0  0  0  0  0  0
  147.8090  142.6622  156.8537 H   0  0  0  0  0  0  0  0  0  0  0  0
  146.2723  141.1068  153.1650 H   0  0  0  0  0  0  0  0  0  0  0  0
  1  2  2  0  0  0  0
  1 22  1  0  0  0  0
  1 23  1  0  0  0  0
  2  3  1  0  0  0  0
  2 24  1  0  0  0  0
  3  4  1  0  0  0  0
  3 25  1  0  0  0  0
  3 26  1  0  0  0  0
  4  5  1  0  0  0  0
  5  6  1  0  0  0  0
  5  7  1  0  0  0  0
  5 27  1  0  0  0  0
  6 28  1  0  0  0  0
  6 29  1  0  0  0  0
  6 30  1  0  0  0  0
  7  8  2  0  0  0  0
  7  9  1  0  0  0  0
  9 10  1  0  0  0  0
  9 31  1  0  0  0  0
 10 19  1  0  0  0  0
 10 11  2  0  0  0  0
 11 12  1  0  0  0  0
 11 32  1  0  0  0  0
 12 13  1  0  0  0  0
 12 17  2  0  0  0  0
 13 14  1  0  0  0  0
 13 15  1  0  0  0  0
 13 16  1  0  0  0  0
 17 18  1  0  0  0  0
 17 33  1  0  0  0  0
 18 21  1  0  0  0  0
 18 19  1  0  0  0  0
 19 20  2  0  0  0  0
M  END
> <s_m_source_file>
AV-unprocessed.smi

> <i_m_source_file_index>
1540

> <i_lp_mmshare_version>
43012

> <i_f3d_flags>
0

> <s_epik_input>
W0NIMl09W0NIXVtDSDJdT1tDQEhdKFtDSDNdKUMoPU8pW05IXWMxW2NIXWMoQyhGKShGKUYpW2NIXVtuSF1jMT1P

> <s_epik_cmdline>
J2VwaWtfcHl0aG9uJywgJy1waCcsICc3LjAnLCAnLXRuJywgJzgnLCAnLW1hJywgJzIwMCcsICctbWV0YWxfYmluZGluZycsICctaW1hZScsICc8aW5maWxlLm1hZT4nLCAnLW9tYWUnLCAnPG91dGZpbGUubWFlPic=

> <r_lp_tautomer_probability>
0.999

> <r_epik_Ionization_Penalty>
0.0086731

> <r_epik_Ionization_Penalty_Charging>
0.00867296

> <r_epik_Ionization_Penalty_Neutral>
1.3954e-07

> <r_epik_State_Penalty>
0.00654787

> <r_epik_Charging_Adjusted_Penalty>
0.0152208

> <i_epik_Tot_Q>
0

> <i_epik_Tot_abs_Q>
0

> <r_epik_Metal_State_Penalty>
0.320056

> <b_epik_Metal_Only>
0

> <s_lp_Force_Field>
OPLS_2005

> <r_lp_Energy>
17.7944

> <b_lp_Chiralities_Consistent>
1

> <s_lp_Variant>
AV-unprocessed.smi:1540-1

> <Gold.Version>
5.8.1

> <Gold.Id.Protein>
6NUR|6NUR_protein|mol2

> <Gold.PLP.Fitness>
42.4524

> <Gold.PLP.PLP>
-37.1623

> <Gold.PLP.part.hbond>
-1.7872

> <Gold.PLP.part.metal>
0.0000

> <Gold.PLP.part.buried>
-1.7341

> <Gold.PLP.part.nonpolar>
-34.2511

> <Gold.PLP.part.repulsive>
0.9664

> <Gold.PLP.ligand.clash>
0.0000

> <Gold.PLP.ligand.torsion>
0.6658

> <Gold.PLP.Chemscore.Hbond>
1.6635

> <Gold.PLP.Chemscore.CHOScore>
0.5276

> <Gold.PLP.Chemscore.Metal>
0.0000

> <Gold.Chemscore.Hbonds>
donor molecule, donor type, donor heavy atom, donor atom, acceptor molecule, acceptor atom, score
      L1  H    18    21       P1  7957  0.80
      P1  H  7989  7998       L1    20  0.81
      L1  C    17    33       P1 10175  0.47

> <Gold.PLP.Chemscore.Internal.Correction>
0.0484

> <Gold.Rescore>
     Score         DG    S(hbond)    S(metal)    S(lipo)     H(rot)  DE(clash)    DE(int)     intcor
     12.94     -15.09       1.51        0.00      78.57       1.81       0.48       1.67       ----

> <Gold.Chemscore.Fitness>
12.9404

> <Gold.Chemscore.DG>
-15.0865

> <Gold.Chemscore.ZeroCoef>
-5.4800

> <Gold.Chemscore.Hbond>
1.5099

> <Gold.Chemscore.Metal>
0.0000

> <Gold.Chemscore.Lipo>
78.5737

> <Gold.Chemscore.Internal_Hbond>
0.0000

> <Gold.Chemscore.DEClash>
0.4751

> <Gold.Chemscore.DEInternal>
1.6710

> <Gold.Chemscore.Rot>
1.8084

> <Gold.Chemscore.Internal.Correction>
   9.000000E+99

> <Gold.Chemscore.Hbonds>
donor molecule, donor type, donor heavy atom, donor atom, acceptor molecule, acceptor atom, score
      L1  H    18    21       P1  7957  0.75
      P1  H  7989  7998       L1    20  0.75

> <Gold.Chemscore.Hbond.Weighted>
-5.0430

> <Gold.Chemscore.Metal.Weighted>
-0.0000

> <Gold.Chemscore.Lipo.Weighted>
-9.1931

> <Gold.Chemscore.Internal_Hbond.Weighted>
0.0000

> <Gold.Chemscore.DEClash.Weighted>
0.4751

> <Gold.Chemscore.DEInternal.Weighted>
1.6710

> <Gold.Chemscore.Rot.Weighted>
4.6296

> <Gold.Chemscore.Internal.Correction.Weighted>
   9.000000E+99

> <Gold.Protein.RotatedTorsions>
[ 6907 6896 6895 6894 ] final -106.29 input  -60.11 | X-H torsion
[ 7974 7965 7964 7962 ] final   60.55 input  175.53 | X-H torsion
[ 8008 7997 7996 7995 ] final   94.54 input   59.86 | X-H torsion
[ 10167 10162 10161 10158 ] final    7.56 input  -65.29 | X-H torsion
[ 10718 10713 10712 10709 ] final   -9.88 input   66.30 | X-H torsion
[ 10763 10752 10751 10750 ] final  133.44 input  -60.55 | X-H torsion
[ 11005 11000 10999 10996 ] final  -94.95 input  -57.11 | X-H torsion

> <Gold.Protein.ActiveResidues>
 VAL166  LYS551  ARG553  GLY616  TRP617  ASP618  TYR619  PRO620  LYS621  CYS622 
 ASP623  PHE694  ASN695  SER759  ASP760  ASP761  ALA762  ILE779  LEU786  VAL792 
 PHE793  MET794  SER795  GLU796  ALA797  LYS798  CYS799  TRP800  GLU811  SER814 

> <Gold.Protein.RotatedAtoms>
  150.7381  133.9999  159.3634 H   0  0  0  0  0  0  0  0  0  0  0  0  # atno 6907 bound_to 6896
  151.7952  135.0722  160.0402 H   0  0  0  0  0  0  0  0  0  0  0  0  # atno 6908 bound_to 6896
  152.3179  133.5786  159.5761 H   0  0  0  0  0  0  0  0  0  0  0  0  # atno 6909 bound_to 6896
  145.8947  139.3537  143.0628 H   0  0  0  0  0  0  0  0  0  0  0  0  # atno 7974 bound_to 7965
  156.0590  140.3298  155.7439 H   0  0  0  0  0  0  0  0  0  0  0  0  # atno 8008 bound_to 7997
  155.5484  140.0608  157.2873 H   0  0  0  0  0  0  0  0  0  0  0  0  # atno 8009 bound_to 7997
  154.4472  140.1898  156.0650 H   0  0  0  0  0  0  0  0  0  0  0  0  # atno 8010 bound_to 7997
  140.6365  143.7875  150.7366 H   0  0  0  0  0  0  0  0  0  0  0  0  # atno 10167 bound_to 10162
  156.6817  130.5039  149.5969 H   0  0  0  0  0  0  0  0  0  0  0  0  # atno 10718 bound_to 10713
  153.8071  135.3134  155.3396 H   0  0  0  0  0  0  0  0  0  0  0  0  # atno 10763 bound_to 10752
  154.8066  135.4694  154.0411 H   0  0  0  0  0  0  0  0  0  0  0  0  # atno 10764 bound_to 10752
  153.1777  135.6888  153.8608 H   0  0  0  0  0  0  0  0  0  0  0  0  # atno 10765 bound_to 10752
  141.1456  133.7992  157.0369 H   0  0  0  0  0  0  0  0  0  0  0  0  # atno 11005 bound_to 11000
  145.8865  140.9330  143.0574 LP  0  0  0  0  0  0  0  0  0  0  0  0  # atno 17320 bound_to 7965
  144.6732  140.0849  143.7468 LP  0  0  0  0  0  0  0  0  0  0  0  0  # atno 17321 bound_to 7965
  140.1497  143.4368  152.2139 LP  0  0  0  0  0  0  0  0  0  0  0  0  # atno 17342 bound_to 10162
  139.5575  144.7383  151.4252 LP  0  0  0  0  0  0  0  0  0  0  0  0  # atno 17343 bound_to 10162
  156.1863  130.6531  151.1010 LP  0  0  0  0  0  0  0  0  0  0  0  0  # atno 17370 bound_to 10713
  157.7041  131.0764  150.6724 LP  0  0  0  0  0  0  0  0  0  0  0  0  # atno 17371 bound_to 10713
  140.0718  134.9698  157.1479 LP  0  0  0  0  0  0  0  0  0  0  0  0  # atno 17394 bound_to 11000
  140.3700  134.2400  155.7179 LP  0  0  0  0  0  0  0  0  0  0  0  0  # atno 17395 bound_to 11000

$$$$
