AV-unprocessed.smi:3244|AV-procd|sdf|12401|dock1
  -GOLD-   2272018273D 1   1.00000     0.00000
 Structure written by MMmdl.
 40 41  0  0  0  0  0  0  0  0  1 V2000
  152.7283  142.8947  162.1554 C   0  0  0  0  0  0  0  0  0  0  0  0
  153.2932  142.5774  160.7613 C   0  0  0  0  0  0  0  0  0  0  0  0
  152.2320  142.4100  159.7530 N   0  0  0  0  0  0  0  0  0  0  0  0
  152.0438  141.2065  159.1513 C   0  0  0  0  0  0  0  0  0  0  0  0
  152.6335  140.1892  159.5187 O   0  0  0  0  0  0  0  0  0  0  0  0
  151.0679  141.0708  157.9708 C   0  0  0  0  0  0  0  0  0  0  0  0
  151.5878  140.2137  156.8924 N   0  0  0  0  0  0  0  0  0  0  0  0
  150.8060  140.2654  155.6601 C   0  0  1  0  0  0  0  0  0  0  0  0
  151.3982  139.2299  154.6893 C   0  0  0  0  0  0  0  0  0  0  0  0
  149.2938  140.0530  155.9296 C   0  0  0  0  0  0  0  0  0  0  0  0
  148.4299  140.5232  154.8581 N   0  0  0  0  0  0  0  0  0  0  0  0
  148.3466  141.7896  154.3171 C   0  0  0  0  0  0  0  0  0  0  0  0
  147.3941  141.7532  153.3394 C   0  0  0  0  0  0  0  0  0  0  0  0
  146.9415  140.4045  153.3589 C   0  0  0  0  0  0  0  0  0  0  0  0
  147.5602  139.6737  154.2708 N   0  0  0  0  0  0  0  0  0  0  0  0
  151.5975  143.6318  159.3290 C   0  0  0  0  0  0  0  0  0  0  0  0
  152.4015  144.7128  158.6277 C   0  0  0  0  0  0  0  0  0  0  0  0
  151.9159  144.9379  160.0328 C   0  0  0  0  0  0  0  0  0  0  0  0
  153.5297  142.9506  162.8921 H   0  0  0  0  0  0  0  0  0  0  0  0
  152.0314  142.1223  162.4819 H   0  0  0  0  0  0  0  0  0  0  0  0
  152.2041  143.8501  162.1719 H   0  0  0  0  0  0  0  0  0  0  0  0
  153.9802  143.3665  160.4511 H   0  0  0  0  0  0  0  0  0  0  0  0
  153.9074  141.6815  160.8410 H   0  0  0  0  0  0  0  0  0  0  0  0
  150.1166  140.6900  158.3468 H   0  0  0  0  0  0  0  0  0  0  0  0
  150.8322  142.0524  157.5642 H   0  0  0  0  0  0  0  0  0  0  0  0
  152.5540  140.4274  156.6916 H   0  0  0  0  0  0  0  0  0  0  0  0
  150.9459  141.2480  155.2065 H   0  0  0  0  0  0  0  0  0  0  0  0
  150.8425  139.2128  153.7515 H   0  0  0  0  0  0  0  0  0  0  0  0
  151.3788  138.2222  155.1059 H   0  0  0  0  0  0  0  0  0  0  0  0
  152.4359  139.4650  154.4495 H   0  0  0  0  0  0  0  0  0  0  0  0
  149.0644  139.0062  156.1312 H   0  0  0  0  0  0  0  0  0  0  0  0
  149.0161  140.5936  156.8352 H   0  0  0  0  0  0  0  0  0  0  0  0
  148.9674  142.6010  154.6675 H   0  0  0  0  0  0  0  0  0  0  0  0
  147.0693  142.5664  152.7075 H   0  0  0  0  0  0  0  0  0  0  0  0
  146.1860  139.9381  152.7440 H   0  0  0  0  0  0  0  0  0  0  0  0
  150.5735  143.5175  158.9777 H   0  0  0  0  0  0  0  0  0  0  0  0
  153.4740  144.5780  158.5035 H   0  0  0  0  0  0  0  0  0  0  0  0
  151.9079  145.2658  157.8311 H   0  0  0  0  0  0  0  0  0  0  0  0
  151.0972  145.6397  160.1783 H   0  0  0  0  0  0  0  0  0  0  0  0
  152.6719  144.9354  160.8156 H   0  0  0  0  0  0  0  0  0  0  0  0
  1  2  1  0  0  0  0
  1 19  1  0  0  0  0
  1 20  1  0  0  0  0
  1 21  1  0  0  0  0
  2  3  1  0  0  0  0
  2 22  1  0  0  0  0
  2 23  1  0  0  0  0
  3  4  1  0  0  0  0
  3 16  1  0  0  0  0
  4  5  2  0  0  0  0
  4  6  1  0  0  0  0
  6  7  1  0  0  0  0
  6 24  1  0  0  0  0
  6 25  1  0  0  0  0
  7  8  1  0  0  0  0
  7 26  1  0  0  0  0
  8  9  1  0  0  0  0
  8 10  1  0  0  0  0
  8 27  1  0  0  0  0
  9 28  1  0  0  0  0
  9 29  1  0  0  0  0
  9 30  1  0  0  0  0
 10 11  1  0  0  0  0
 10 31  1  0  0  0  0
 10 32  1  0  0  0  0
 11 15  1  0  0  0  0
 11 12  1  0  0  0  0
 12 13  2  0  0  0  0
 12 33  1  0  0  0  0
 13 14  1  0  0  0  0
 13 34  1  0  0  0  0
 14 15  2  0  0  0  0
 14 35  1  0  0  0  0
 16 18  1  0  0  0  0
 16 17  1  0  0  0  0
 16 36  1  0  0  0  0
 17 18  1  0  0  0  0
 17 37  1  0  0  0  0
 17 38  1  0  0  0  0
 18 39  1  0  0  0  0
 18 40  1  0  0  0  0
M  END
> <s_m_source_file>
AV-unprocessed.smi

> <i_m_source_file_index>
3244

> <i_lp_mmshare_version>
43012

> <i_f3d_flags>
0

> <s_epik_input>
W0NIMl0xW0NIMl1bQ0hdMU4oW0NIMl1bQ0gzXSlDKD1PKVtDSDJdW05IXVtDQEhdKFtDSDNdKVtDSDJdbjJbY0hdW2NIXVtjSF1uMg==

> <s_epik_cmdline>
J2VwaWtfcHl0aG9uJywgJy1waCcsICc3LjAnLCAnLXRuJywgJzgnLCAnLW1hJywgJzIwMCcsICctbWV0YWxfYmluZGluZycsICctaW1hZScsICc8aW5maWxlLm1hZT4nLCAnLW9tYWUnLCAnPG91dGZpbGUubWFlPic=

> <r_lp_tautomer_probability>
1

> <r_epik_Ionization_Penalty>
1.02506

> <r_epik_Ionization_Penalty_Charging>
0

> <r_epik_Ionization_Penalty_Neutral>
1.02506

> <r_epik_State_Penalty>
1.07563

> <r_epik_Charging_Adjusted_Penalty>
1.07563

> <i_epik_Tot_Q>
0

> <i_epik_Tot_abs_Q>
0

> <r_epik_Metal_State_Penalty>
1.07558

> <b_epik_Metal_Only>
0

> <s_lp_Force_Field>
OPLS_2005

> <r_lp_Energy>
38.4793

> <b_lp_Chiralities_Consistent>
1

> <s_lp_Variant>
AV-unprocessed.smi:3244-4

> <Gold.Version>
5.8.1

> <Gold.Id.Protein>
6NUR|6NUR_protein|mol2

> <Gold.PLP.Fitness>
48.6064

> <Gold.PLP.PLP>
-43.4927

> <Gold.PLP.part.hbond>
0.0000

> <Gold.PLP.part.metal>
0.0000

> <Gold.PLP.part.buried>
-5.5581

> <Gold.PLP.part.nonpolar>
-38.7656

> <Gold.PLP.part.repulsive>
0.1177

> <Gold.PLP.ligand.clash>
0.0000

> <Gold.PLP.ligand.torsion>
0.6998

> <Gold.PLP.Chemscore.Hbond>
0.0000

> <Gold.PLP.Chemscore.CHOScore>
1.9929

> <Gold.PLP.Chemscore.Metal>
0.0000

> <Gold.Chemscore.Hbonds>
donor molecule, donor type, donor heavy atom, donor atom, acceptor molecule, acceptor atom, score
      L1  C    12    33       P1  8028  1.00
      L1  C    14    35       P1 10175  0.90

> <Gold.PLP.Chemscore.Internal.Correction>
0.5346

> <Gold.Rescore>
     Score         DG    S(hbond)    S(metal)    S(lipo)     H(rot)  DE(clash)    DE(int)     intcor
     12.40     -13.29       0.00        0.00     109.56       1.95       0.11       0.79       ----

> <Gold.Chemscore.Fitness>
12.3997

> <Gold.Chemscore.DG>
-13.2944

> <Gold.Chemscore.ZeroCoef>
-5.4800

> <Gold.Chemscore.Hbond>
0.0000

> <Gold.Chemscore.Metal>
0.0000

> <Gold.Chemscore.Lipo>
109.5649

> <Gold.Chemscore.Internal_Hbond>
0.0000

> <Gold.Chemscore.DEClash>
0.1071

> <Gold.Chemscore.DEInternal>
0.7876

> <Gold.Chemscore.Rot>
1.9550

> <Gold.Chemscore.Internal.Correction>
   9.000000E+99

> <Gold.Chemscore.Hbond.Weighted>
-0.0000

> <Gold.Chemscore.Metal.Weighted>
-0.0000

> <Gold.Chemscore.Lipo.Weighted>
-12.8191

> <Gold.Chemscore.Internal_Hbond.Weighted>
0.0000

> <Gold.Chemscore.DEClash.Weighted>
0.1071

> <Gold.Chemscore.DEInternal.Weighted>
0.7876

> <Gold.Chemscore.Rot.Weighted>
5.0047

> <Gold.Chemscore.Internal.Correction.Weighted>
   9.000000E+99

> <Gold.Protein.RotatedTorsions>
[ 6907 6896 6895 6894 ] final   81.88 input  -60.11 | X-H torsion
[ 7974 7965 7964 7962 ] final   43.55 input  175.53 | X-H torsion
[ 8008 7997 7996 7995 ] final    3.98 input   59.86 | X-H torsion
[ 10167 10162 10161 10158 ] final  101.28 input  -65.29 | X-H torsion
[ 10718 10713 10712 10709 ] final -152.03 input   66.30 | X-H torsion
[ 10763 10752 10751 10750 ] final  -79.25 input  -60.55 | X-H torsion
[ 11005 11000 10999 10996 ] final  153.92 input  -57.11 | X-H torsion

> <Gold.Protein.ActiveResidues>
 VAL166  LYS551  ARG553  GLY616  TRP617  ASP618  TYR619  PRO620  LYS621  CYS622 
 ASP623  PHE694  ASN695  SER759  ASP760  ASP761  ALA762  ILE779  LEU786  VAL792 
 PHE793  MET794  SER795  GLU796  ALA797  LYS798  CYS799  TRP800  GLU811  SER814 

> <Gold.Protein.RotatedAtoms>
  152.5282  134.3136  159.9122 H   0  0  0  0  0  0  0  0  0  0  0  0  # atno 6907 bound_to 6896
  151.3085  133.4084  159.2653 H   0  0  0  0  0  0  0  0  0  0  0  0  # atno 6908 bound_to 6896
  151.0058  134.9375  159.8037 H   0  0  0  0  0  0  0  0  0  0  0  0  # atno 6909 bound_to 6896
  146.0646  139.5174  142.9636 H   0  0  0  0  0  0  0  0  0  0  0  0  # atno 7974 bound_to 7965
  154.7102  140.2691  155.6636 H   0  0  0  0  0  0  0  0  0  0  0  0  # atno 8008 bound_to 7997
  156.2793  140.2755  156.1666 H   0  0  0  0  0  0  0  0  0  0  0  0  # atno 8009 bound_to 7997
  155.0645  140.0371  157.2578 H   0  0  0  0  0  0  0  0  0  0  0  0  # atno 8010 bound_to 7997
  139.7452  144.7000  151.0515 H   0  0  0  0  0  0  0  0  0  0  0  0  # atno 10167 bound_to 10162
  156.4671  130.8240  151.2471 H   0  0  0  0  0  0  0  0  0  0  0  0  # atno 10718 bound_to 10713
  154.5363  135.5702  153.6801 H   0  0  0  0  0  0  0  0  0  0  0  0  # atno 10763 bound_to 10752
  152.9952  135.6217  154.2562 H   0  0  0  0  0  0  0  0  0  0  0  0  # atno 10764 bound_to 10752
  154.2491  135.2860  155.2803 H   0  0  0  0  0  0  0  0  0  0  0  0  # atno 10765 bound_to 10752
  140.1441  134.8719  157.2370 H   0  0  0  0  0  0  0  0  0  0  0  0  # atno 11005 bound_to 11000
  145.6500  141.0265  143.1765 LP  0  0  0  0  0  0  0  0  0  0  0  0  # atno 17320 bound_to 7965
  144.7195  139.8080  143.7387 LP  0  0  0  0  0  0  0  0  0  0  0  0  # atno 17321 bound_to 7965
  140.7791  143.4876  150.9935 LP  0  0  0  0  0  0  0  0  0  0  0  0  # atno 17342 bound_to 10162
  139.8564  143.7371  152.3176 LP  0  0  0  0  0  0  0  0  0  0  0  0  # atno 17343 bound_to 10162
  157.7494  131.0088  150.3244 LP  0  0  0  0  0  0  0  0  0  0  0  0  # atno 17370 bound_to 10713
  156.3657  130.3854  149.7215 LP  0  0  0  0  0  0  0  0  0  0  0  0  # atno 17371 bound_to 10713
  140.2685  134.3488  155.7381 LP  0  0  0  0  0  0  0  0  0  0  0  0  # atno 17394 bound_to 11000
  141.2190  133.7410  156.9187 LP  0  0  0  0  0  0  0  0  0  0  0  0  # atno 17395 bound_to 11000

$$$$
