AV-unprocessed.smi:1405|AV-procd|sdf|5707|dock8
  -GOLD-   22720 5343D 1   1.00000     0.00000
 Structure written by MMmdl.
 49 52  0  0  0  0  0  0  0  0  1 V2000
  145.8303  138.7297  154.3374 O   0  0  0  0  0  0  0  0  0  0  0  0
  146.8008  138.2655  153.7399 C   0  0  0  0  0  0  0  0  0  0  0  0
  148.1219  139.0547  153.7342 C   0  0  0  0  0  0  0  0  0  0  0  0
  149.2335  138.4070  154.4508 N   0  0  0  0  0  0  0  0  0  0  0  0
  150.5061  138.3900  153.8973 C   0  0  0  0  0  0  0  0  0  0  0  0
  151.5745  137.8181  154.5016 C   0  0  0  0  0  0  0  0  0  0  0  0
  151.4302  137.1742  155.8028 C   0  0  0  0  0  0  0  0  0  0  0  0
  152.3366  136.6300  156.4293 O   0  0  0  0  0  0  0  0  0  0  0  0
  150.1356  137.2130  156.3273 N   0  0  0  0  0  0  0  0  0  0  0  0
  149.0303  137.8013  155.7105 C   0  0  0  0  0  0  0  0  0  0  0  0
  147.9322  137.7865  156.2651 O   0  0  0  0  0  0  0  0  0  0  0  0
  146.7569  137.0932  153.0841 N   0  0  0  0  0  0  0  0  0  0  0  0
  145.5841  136.2365  152.9657 C   0  0  0  0  0  0  0  0  0  0  0  0
  145.2512  135.9534  151.4859 C   0  0  0  0  0  0  0  0  0  0  0  0
  145.0903  134.4631  151.0905 C   0  0  0  0  0  0  0  0  0  0  0  0
  144.5936  134.3082  149.6272 C   0  0  0  0  0  0  0  0  0  0  0  0
  144.4962  132.8146  149.2465 C   0  0  2  0  0  0  0  0  0  0  0  0
  143.5039  132.1046  150.1917 C   0  0  0  0  0  0  0  0  0  0  0  0
  144.0074  132.2293  151.6455 C   0  0  1  0  0  0  0  0  0  0  0  0
  145.3959  131.5697  151.7707 C   0  0  0  0  0  0  0  0  0  0  0  0
  146.3810  132.2820  150.8215 C   0  0  1  0  0  0  0  0  0  0  0  0
  145.8859  132.1564  149.3662 C   0  0  0  0  0  0  0  0  0  0  0  0
  146.4770  133.7734  151.2050 C   0  0  0  0  0  0  0  0  0  0  0  0
  144.1036  133.7213  152.0327 C   0  0  0  0  0  0  0  0  0  0  0  0
  149.9875  136.7805  157.2276 H   0  0  0  0  0  0  0  0  0  0  0  0
  148.4048  139.2531  152.6986 H   0  0  0  0  0  0  0  0  0  0  0  0
  147.9262  140.0378  154.1649 H   0  0  0  0  0  0  0  0  0  0  0  0
  150.6605  138.8585  152.9354 H   0  0  0  0  0  0  0  0  0  0  0  0
  152.5415  137.8379  154.0200 H   0  0  0  0  0  0  0  0  0  0  0  0
  147.5972  136.7824  152.6184 H   0  0  0  0  0  0  0  0  0  0  0  0
  145.8074  135.3100  153.4932 H   0  0  0  0  0  0  0  0  0  0  0  0
  144.7426  136.6974  153.4833 H   0  0  0  0  0  0  0  0  0  0  0  0
  144.3329  136.4828  151.2269 H   0  0  0  0  0  0  0  0  0  0  0  0
  146.0307  136.4005  150.8669 H   0  0  0  0  0  0  0  0  0  0  0  0
  143.6142  134.7689  149.4997 H   0  0  0  0  0  0  0  0  0  0  0  0
  145.2666  134.8248  148.9414 H   0  0  0  0  0  0  0  0  0  0  0  0
  144.1420  132.7264  148.2190 H   0  0  0  0  0  0  0  0  0  0  0  0
  142.5102  132.5440  150.0964 H   0  0  0  0  0  0  0  0  0  0  0  0
  143.4039  131.0542  149.9149 H   0  0  0  0  0  0  0  0  0  0  0  0
  143.3080  131.7273  152.3148 H   0  0  0  0  0  0  0  0  0  0  0  0
  145.7513  131.6294  152.8002 H   0  0  0  0  0  0  0  0  0  0  0  0
  145.3349  130.5085  151.5260 H   0  0  0  0  0  0  0  0  0  0  0  0
  147.3655  131.8212  150.9099 H   0  0  0  0  0  0  0  0  0  0  0  0
  145.8348  131.1071  149.0727 H   0  0  0  0  0  0  0  0  0  0  0  0
  146.5905  132.6339  148.6841 H   0  0  0  0  0  0  0  0  0  0  0  0
  147.2023  134.2717  150.5600 H   0  0  0  0  0  0  0  0  0  0  0  0
  146.8625  133.8662  152.2215 H   0  0  0  0  0  0  0  0  0  0  0  0
  144.4261  133.8170  153.0703 H   0  0  0  0  0  0  0  0  0  0  0  0
  143.1091  134.1644  151.9782 H   0  0  0  0  0  0  0  0  0  0  0  0
  1  2  2  0  0  0  0
  2  3  1  0  0  0  0
  2 12  1  0  0  0  0
  3  4  1  0  0  0  0
  3 26  1  0  0  0  0
  3 27  1  0  0  0  0
  4 10  1  0  0  0  0
  4  5  1  0  0  0  0
  5  6  2  0  0  0  0
  5 28  1  0  0  0  0
  6  7  1  0  0  0  0
  6 29  1  0  0  0  0
  7  8  2  0  0  0  0
  7  9  1  0  0  0  0
  9 25  1  0  0  0  0
  9 10  1  0  0  0  0
 10 11  2  0  0  0  0
 12 13  1  0  0  0  0
 12 30  1  0  0  0  0
 13 14  1  0  0  0  0
 13 31  1  0  0  0  0
 13 32  1  0  0  0  0
 14 15  1  0  0  0  0
 14 33  1  0  0  0  0
 14 34  1  0  0  0  0
 15 23  1  0  0  0  0
 15 24  1  0  0  0  0
 15 16  1  0  0  0  0
 16 17  1  0  0  0  0
 16 35  1  0  0  0  0
 16 36  1  0  0  0  0
 17 22  1  0  0  0  0
 17 18  1  0  0  0  0
 17 37  1  0  0  0  0
 18 19  1  0  0  0  0
 18 38  1  0  0  0  0
 18 39  1  0  0  0  0
 19 20  1  0  0  0  0
 19 24  1  0  0  0  0
 19 40  1  0  0  0  0
 20 21  1  0  0  0  0
 20 41  1  0  0  0  0
 20 42  1  0  0  0  0
 21 22  1  0  0  0  0
 21 23  1  0  0  0  0
 21 43  1  0  0  0  0
 22 44  1  0  0  0  0
 22 45  1  0  0  0  0
 23 46  1  0  0  0  0
 23 47  1  0  0  0  0
 24 48  1  0  0  0  0
 24 49  1  0  0  0  0
M  END
> <s_m_source_file>
AV-unprocessed.smi

> <i_m_source_file_index>
1405

> <i_lp_mmshare_version>
43012

> <i_f3d_flags>
0

> <s_epik_input>
Tz1jMVtuSF1jKD1PKVtjSF1bY0hdbjFbQ0gyXUMoPU8pW05IXVtDSDJdW0NIMl1DMjNbQ0gyXVtDQEBIXTRbQ0gyXVtDQEhdKFtDSDJdMylbQ0gyXVtDQEBIXShbQ0gyXTQpW0NIMl0y

> <s_epik_cmdline>
J2VwaWtfcHl0aG9uJywgJy1waCcsICc3LjAnLCAnLXRuJywgJzgnLCAnLW1hJywgJzIwMCcsICctbWV0YWxfYmluZGluZycsICctaW1hZScsICc8aW5maWxlLm1hZT4nLCAnLW9tYWUnLCAnPG91dGZpbGUubWFlPic=

> <r_lp_tautomer_probability>
0.999537

> <r_epik_Ionization_Penalty>
0.00301971

> <r_epik_Ionization_Penalty_Charging>
0.00301969

> <r_epik_Ionization_Penalty_Neutral>
2.18059e-08

> <r_epik_State_Penalty>
0.00212114

> <r_epik_Charging_Adjusted_Penalty>
0.00514083

> <i_epik_Tot_Q>
0

> <i_epik_Tot_abs_Q>
0

> <r_epik_Metal_State_Penalty>
0.361473

> <b_epik_Metal_Only>
0

> <s_lp_Force_Field>
OPLS_2005

> <r_lp_Energy>
33.2851

> <b_lp_Chiralities_Consistent>
1

> <s_lp_Variant>
AV-unprocessed.smi:1405-1

> <Gold.Version>
5.8.1

> <Gold.Id.Protein>
6NUR|6NUR_protein|mol2

> <Gold.PLP.Fitness>
43.8891

> <Gold.PLP.PLP>
-36.2146

> <Gold.PLP.part.hbond>
-2.0000

> <Gold.PLP.part.metal>
0.0000

> <Gold.PLP.part.buried>
2.5703

> <Gold.PLP.part.nonpolar>
-36.6813

> <Gold.PLP.part.repulsive>
0.1487

> <Gold.PLP.ligand.clash>
0.0000

> <Gold.PLP.ligand.torsion>
0.6714

> <Gold.PLP.Chemscore.Hbond>
2.0000

> <Gold.PLP.Chemscore.CHOScore>
1.0000

> <Gold.PLP.Chemscore.Metal>
0.0000

> <Gold.Chemscore.Hbonds>
donor molecule, donor type, donor heavy atom, donor atom, acceptor molecule, acceptor atom, score
      L1  H    12    30       P1  7948  1.00
      P1  H 10752 10763       L1     8  1.00
      L1  C     5    28       P1  7957  1.00

> <Gold.PLP.Chemscore.Internal.Correction>
0.0174

> <Gold.Rescore>
     Score         DG    S(hbond)    S(metal)    S(lipo)     H(rot)  DE(clash)    DE(int)     intcor
     16.51     -19.81       1.97        0.00     113.81       2.18       1.50       1.81       ----

> <Gold.Chemscore.Fitness>
16.5057

> <Gold.Chemscore.DG>
-19.8122

> <Gold.Chemscore.ZeroCoef>
-5.4800

> <Gold.Chemscore.Hbond>
1.9749

> <Gold.Chemscore.Metal>
0.0000

> <Gold.Chemscore.Lipo>
113.8133

> <Gold.Chemscore.Internal_Hbond>
0.0000

> <Gold.Chemscore.DEClash>
1.4959

> <Gold.Chemscore.DEInternal>
1.8106

> <Gold.Chemscore.Rot>
2.1797

> <Gold.Chemscore.Internal.Correction>
   9.000000E+99

> <Gold.Chemscore.Hbonds>
donor molecule, donor type, donor heavy atom, donor atom, acceptor molecule, acceptor atom, score
      L1  H    12    30       P1  7948  1.00
      P1  H 10752 10763       L1     8  0.44

> <Gold.Chemscore.Hbond.Weighted>
-6.5960

> <Gold.Chemscore.Metal.Weighted>
-0.0000

> <Gold.Chemscore.Lipo.Weighted>
-13.3162

> <Gold.Chemscore.Internal_Hbond.Weighted>
0.0000

> <Gold.Chemscore.DEClash.Weighted>
1.4959

> <Gold.Chemscore.DEInternal.Weighted>
1.8106

> <Gold.Chemscore.Rot.Weighted>
5.5799

> <Gold.Chemscore.Internal.Correction.Weighted>
   9.000000E+99

> <Gold.Protein.RotatedTorsions>
[ 6907 6896 6895 6894 ] final   73.09 input  -60.11 | X-H torsion
[ 7974 7965 7964 7962 ] final -153.87 input  175.53 | X-H torsion
[ 8008 7997 7996 7995 ] final -165.40 input   59.86 | X-H torsion
[ 10167 10162 10161 10158 ] final  -70.21 input  -65.29 | X-H torsion
[ 10718 10713 10712 10709 ] final   57.09 input   66.30 | X-H torsion
[ 10763 10752 10751 10750 ] final   93.21 input  -60.55 | X-H torsion
[ 11005 11000 10999 10996 ] final  111.14 input  -57.11 | X-H torsion

> <Gold.Protein.ActiveResidues>
 VAL166  LYS551  ARG553  GLY616  TRP617  ASP618  TYR619  PRO620  LYS621  CYS622 
 ASP623  PHE694  ASN695  SER759  ASP760  ASP761  ALA762  ILE779  LEU786  VAL792 
 PHE793  MET794  SER795  GLU796  ALA797  LYS798  CYS799  TRP800  GLU811  SER814 

> <Gold.Protein.RotatedAtoms>
  152.4904  134.4473  159.9562 H   0  0  0  0  0  0  0  0  0  0  0  0  # atno 6907 bound_to 6896
  151.4461  133.3624  159.2796 H   0  0  0  0  0  0  0  0  0  0  0  0  # atno 6908 bound_to 6896
  150.9054  134.8492  159.7449 H   0  0  0  0  0  0  0  0  0  0  0  0  # atno 6909 bound_to 6896
  144.7718  140.4466  143.5902 H   0  0  0  0  0  0  0  0  0  0  0  0  # atno 7974 bound_to 7965
  155.8493  140.0960  157.1685 H   0  0  0  0  0  0  0  0  0  0  0  0  # atno 8008 bound_to 7997
  154.3985  140.1386  156.3886 H   0  0  0  0  0  0  0  0  0  0  0  0  # atno 8009 bound_to 7997
  155.7979  140.3454  155.5388 H   0  0  0  0  0  0  0  0  0  0  0  0  # atno 8010 bound_to 7997
  140.5370  143.2317  151.7158 H   0  0  0  0  0  0  0  0  0  0  0  0  # atno 10167 bound_to 10162
  157.5486  130.8749  149.8928 H   0  0  0  0  0  0  0  0  0  0  0  0  # atno 10718 bound_to 10713
  153.2278  135.4333  155.0561 H   0  0  0  0  0  0  0  0  0  0  0  0  # atno 10763 bound_to 10752
  154.8282  135.3372  154.6832 H   0  0  0  0  0  0  0  0  0  0  0  0  # atno 10764 bound_to 10752
  153.7261  135.7014  153.5057 H   0  0  0  0  0  0  0  0  0  0  0  0  # atno 10765 bound_to 10752
  139.8897  134.9501  156.6386 H   0  0  0  0  0  0  0  0  0  0  0  0  # atno 11005 bound_to 11000
  145.6302  139.1535  143.2973 LP  0  0  0  0  0  0  0  0  0  0  0  0  # atno 17320 bound_to 7965
  146.1870  140.6406  142.9163 LP  0  0  0  0  0  0  0  0  0  0  0  0  # atno 17321 bound_to 7965
  139.4974  144.4027  152.0164 LP  0  0  0  0  0  0  0  0  0  0  0  0  # atno 17342 bound_to 10162
  140.3133  144.3512  150.6028 LP  0  0  0  0  0  0  0  0  0  0  0  0  # atno 17343 bound_to 10162
  156.0557  130.3709  150.1097 LP  0  0  0  0  0  0  0  0  0  0  0  0  # atno 17370 bound_to 10713
  156.9272  130.9702  151.3539 LP  0  0  0  0  0  0  0  0  0  0  0  0  # atno 17371 bound_to 10713
  140.7611  133.8817  155.8419 LP  0  0  0  0  0  0  0  0  0  0  0  0  # atno 17394 bound_to 11000
  140.9921  134.1264  157.4398 LP  0  0  0  0  0  0  0  0  0  0  0  0  # atno 17395 bound_to 11000

$$$$
