AV-unprocessed.smi:37|AV-procd|sdf|309|dock2
  -GOLD-   2262016123D 1   1.00000     0.00000
 Structure written by MMmdl.
 44 45  0  0  0  0  0  0  0  0  1 V2000
  146.2084  134.0389  162.4495 C   0  0  0  0  0  0  0  0  0  0  0  0
  147.2998  135.0825  162.7216 C   0  0  0  0  0  0  0  0  0  0  0  0
  147.4947  136.0356  161.5447 C   0  0  0  0  0  0  0  0  0  0  0  0
  147.4231  137.2560  161.6906 O   0  0  0  0  0  0  0  0  0  0  0  0
  147.7298  135.3890  160.3898 O   0  0  0  0  0  0  0  0  0  0  0  0
  147.5031  136.0371  159.1474 C   0  0  0  0  0  0  0  0  0  0  0  0
  148.1895  135.2396  158.0308 C   0  0  2  0  0  0  0  0  0  0  0  0
  149.6001  135.3370  158.2208 O   0  0  0  0  0  0  0  0  0  0  0  0
  150.1985  135.8332  157.0659 C   0  0  2  0  0  0  0  0  0  0  0  0
  151.4433  136.6261  157.4064 N   0  0  0  0  0  0  0  0  0  0  0  0
  151.7926  136.7972  158.7384 C   0  0  0  0  0  0  0  0  0  0  0  0
  152.8764  137.5048  159.1354 C   0  0  0  0  0  0  0  0  0  0  0  0
  153.1524  137.6161  160.4458 F   0  0  0  0  0  0  0  0  0  0  0  0
  153.7460  138.1464  158.1546 C   0  0  0  0  0  0  0  0  0  0  0  0
  154.7505  138.8053  158.4150 O   0  0  0  0  0  0  0  0  0  0  0  0
  153.3507  137.9624  156.8270 N   0  0  0  0  0  0  0  0  0  0  0  0
  152.2355  137.2372  156.4036 C   0  0  0  0  0  0  0  0  0  0  0  0
  151.9842  137.1595  155.2021 O   0  0  0  0  0  0  0  0  0  0  0  0
  149.1301  136.5898  156.2636 C   0  0  2  0  0  0  0  0  0  0  0  0
  148.8450  138.4929  156.7961 Br  0  0  0  0  0  0  0  0  0  0  0  0
  147.8874  135.7914  156.6248 C   0  0  1  0  0  0  0  0  0  0  0  0
  147.7140  134.6940  155.7342 O   0  0  0  0  0  0  0  0  0  0  0  0
  147.3256  134.9042  154.4634 C   0  0  0  0  0  0  0  0  0  0  0  0
  146.8088  135.9363  154.0322 O   0  0  0  0  0  0  0  0  0  0  0  0
  147.6077  133.6934  153.5717 C   0  0  0  0  0  0  0  0  0  0  0  0
  149.0989  133.3404  153.4682 C   0  0  0  0  0  0  0  0  0  0  0  0
  153.9180  138.3952  156.1126 H   0  0  0  0  0  0  0  0  0  0  0  0
  146.1036  133.3643  163.2993 H   0  0  0  0  0  0  0  0  0  0  0  0
  146.4489  133.4330  161.5752 H   0  0  0  0  0  0  0  0  0  0  0  0
  145.2382  134.5074  162.2799 H   0  0  0  0  0  0  0  0  0  0  0  0
  147.0461  135.6658  163.6069 H   0  0  0  0  0  0  0  0  0  0  0  0
  148.2459  134.5832  162.9325 H   0  0  0  0  0  0  0  0  0  0  0  0
  146.4393  136.1363  158.9297 H   0  0  0  0  0  0  0  0  0  0  0  0
  147.9152  137.0450  159.1994 H   0  0  0  0  0  0  0  0  0  0  0  0
  147.8974  134.1915  158.1114 H   0  0  0  0  0  0  0  0  0  0  0  0
  150.5538  134.9595  156.5160 H   0  0  0  0  0  0  0  0  0  0  0  0
  151.1825  136.3382  159.5034 H   0  0  0  0  0  0  0  0  0  0  0  0
  149.3684  136.5799  155.1995 H   0  0  0  0  0  0  0  0  0  0  0  0
  146.9900  136.4122  156.6230 H   0  0  0  0  0  0  0  0  0  0  0  0
  147.0549  132.8389  153.9630 H   0  0  0  0  0  0  0  0  0  0  0  0
  147.2100  133.8975  152.5772 H   0  0  0  0  0  0  0  0  0  0  0  0
  149.2450  132.4800  152.8151 H   0  0  0  0  0  0  0  0  0  0  0  0
  149.5170  133.0883  154.4435 H   0  0  0  0  0  0  0  0  0  0  0  0
  149.6765  134.1684  153.0556 H   0  0  0  0  0  0  0  0  0  0  0  0
  1  2  1  0  0  0  0
  1 28  1  0  0  0  0
  1 29  1  0  0  0  0
  1 30  1  0  0  0  0
  2  3  1  0  0  0  0
  2 31  1  0  0  0  0
  2 32  1  0  0  0  0
  3  4  2  0  0  0  0
  3  5  1  0  0  0  0
  5  6  1  0  0  0  0
  6  7  1  0  0  0  0
  6 33  1  0  0  0  0
  6 34  1  0  0  0  0
  7 21  1  0  0  0  0
  7  8  1  0  0  0  0
  7 35  1  0  0  0  0
  8  9  1  0  0  0  0
  9 10  1  0  0  0  0
  9 19  1  0  0  0  0
  9 36  1  0  0  0  0
 10 17  1  0  0  0  0
 10 11  1  0  0  0  0
 11 12  2  0  0  0  0
 11 37  1  0  0  0  0
 12 13  1  0  0  0  0
 12 14  1  0  0  0  0
 14 15  2  0  0  0  0
 14 16  1  0  0  0  0
 16 27  1  0  0  0  0
 16 17  1  0  0  0  0
 17 18  2  0  0  0  0
 19 20  1  0  0  0  0
 19 21  1  0  0  0  0
 19 38  1  0  0  0  0
 21 22  1  0  0  0  0
 21 39  1  0  0  0  0
 22 23  1  0  0  0  0
 23 24  2  0  0  0  0
 23 25  1  0  0  0  0
 25 26  1  0  0  0  0
 25 40  1  0  0  0  0
 25 41  1  0  0  0  0
 26 42  1  0  0  0  0
 26 43  1  0  0  0  0
 26 44  1  0  0  0  0
M  END
> <s_m_source_file>
AV-unprocessed.smi

> <i_m_source_file_index>
37

> <i_lp_mmshare_version>
43012

> <i_f3d_flags>
0

> <s_epik_input>
W0NIM11bQ0gyXUMoPU8pT1tDSDJdW0NAQEhdMU9bQ0BASF0objJbY0hdYyhGKWMoPU8pW25IXWMyPU8pW0NAQEhdKEJyKVtDQEhdMU9DKD1PKVtDSDJdW0NIM10=

> <s_epik_cmdline>
J2VwaWtfcHl0aG9uJywgJy1waCcsICc3LjAnLCAnLXRuJywgJzgnLCAnLW1hJywgJzIwMCcsICctbWV0YWxfYmluZGluZycsICctaW1hZScsICc8aW5maWxlLm1hZT4nLCAnLW9tYWUnLCAnPG91dGZpbGUubWFlPic=

> <r_lp_tautomer_probability>
0.999537

> <r_epik_Ionization_Penalty>
0.104106

> <r_epik_Ionization_Penalty_Charging>
0.104106

> <r_epik_Ionization_Penalty_Neutral>
3.94675e-16

> <r_epik_State_Penalty>
0.0940182

> <r_epik_Charging_Adjusted_Penalty>
0.198124

> <i_epik_Tot_Q>
0

> <i_epik_Tot_abs_Q>
0

> <r_epik_Metal_State_Penalty>
3.05314

> <b_epik_Metal_Only>
0

> <s_epik_Chemistry_Notes>
This compound has an ester and may undergo hydrolysis at high or low pH. This compound contains an acetal/aminal-like group ( X-CH(R)-Y where X, Y are N, S, or O) that may be acid/base labile, releasing an aldehyde.

> <s_lp_Force_Field>
OPLS_2005

> <r_lp_Energy>
23.3394

> <b_lp_Chiralities_Consistent>
1

> <s_lp_Variant>
AV-unprocessed.smi:37-7

> <Gold.Version>
5.8.1

> <Gold.Id.Protein>
6NUR|6NUR_protein|mol2

> <Gold.PLP.Fitness>
42.5840

> <Gold.PLP.PLP>
-29.7242

> <Gold.PLP.part.hbond>
-4.8633

> <Gold.PLP.part.metal>
0.0000

> <Gold.PLP.part.buried>
-2.5281

> <Gold.PLP.part.nonpolar>
-22.8289

> <Gold.PLP.part.repulsive>
0.5145

> <Gold.PLP.ligand.clash>
0.0000

> <Gold.PLP.ligand.torsion>
0.6871

> <Gold.PLP.Chemscore.Hbond>
4.6880

> <Gold.PLP.Chemscore.CHOScore>
0.0000

> <Gold.PLP.Chemscore.Metal>
0.0000

> <Gold.Chemscore.Hbonds>
donor molecule, donor type, donor heavy atom, donor atom, acceptor molecule, acceptor atom, score
      P1  H  6896  6907       L1     8  1.00
      P1  H  6931  6943       L1     4  0.90
      P1  H  6934  6947       L1     4  0.80
      P1  H  7997  8008       L1    15  1.00
      P1  H 10752 10764       L1    18  0.90

> <Gold.PLP.Chemscore.Internal.Correction>
0.1700

> <Gold.Rescore>
     Score         DG    S(hbond)    S(metal)    S(lipo)     H(rot)  DE(clash)    DE(int)     intcor
     15.45     -16.95       4.31        0.00      48.02       3.33       0.34       1.16       ----

> <Gold.Chemscore.Fitness>
15.4520

> <Gold.Chemscore.DG>
-16.9525

> <Gold.Chemscore.ZeroCoef>
-5.4800

> <Gold.Chemscore.Hbond>
4.3053

> <Gold.Chemscore.Metal>
0.0000

> <Gold.Chemscore.Lipo>
48.0197

> <Gold.Chemscore.Internal_Hbond>
0.0000

> <Gold.Chemscore.DEClash>
0.3416

> <Gold.Chemscore.DEInternal>
1.1589

> <Gold.Chemscore.Rot>
3.3303

> <Gold.Chemscore.Internal.Correction>
   9.000000E+99

> <Gold.Chemscore.Hbonds>
donor molecule, donor type, donor heavy atom, donor atom, acceptor molecule, acceptor atom, score
      P1  H  6896  6907       L1     8  0.90
      P1  H  6931  6943       L1     4  0.85
      P1  H  6934  6947       L1     4  0.79
      P1  H  7997  8008       L1    15  0.96
      P1  H 10752 10764       L1    18  0.57

> <Gold.Chemscore.Hbond.Weighted>
-14.3798

> <Gold.Chemscore.Metal.Weighted>
-0.0000

> <Gold.Chemscore.Lipo.Weighted>
-5.6183

> <Gold.Chemscore.Internal_Hbond.Weighted>
0.0000

> <Gold.Chemscore.DEClash.Weighted>
0.3416

> <Gold.Chemscore.DEInternal.Weighted>
1.1589

> <Gold.Chemscore.Rot.Weighted>
8.5256

> <Gold.Chemscore.Internal.Correction.Weighted>
   9.000000E+99

> <Gold.Protein.RotatedTorsions>
[ 6907 6896 6895 6894 ] final  -60.22 input  -60.11 | X-H torsion
[ 7974 7965 7964 7962 ] final   87.24 input  175.53 | X-H torsion
[ 8008 7997 7996 7995 ] final -127.90 input   59.86 | X-H torsion
[ 10167 10162 10161 10158 ] final  -82.56 input  -65.29 | X-H torsion
[ 10718 10713 10712 10709 ] final  -30.83 input   66.30 | X-H torsion
[ 10763 10752 10751 10750 ] final  -65.92 input  -60.55 | X-H torsion
[ 11005 11000 10999 10996 ] final   30.56 input  -57.11 | X-H torsion

> <Gold.Protein.ActiveResidues>
 VAL166  LYS551  ARG553  GLY616  TRP617  ASP618  TYR619  PRO620  LYS621  CYS622 
 ASP623  PHE694  ASN695  SER759  ASP760  ASP761  ALA762  ILE779  LEU786  VAL792 
 PHE793  MET794  SER795  GLU796  ALA797  LYS798  CYS799  TRP800  GLU811  SER814 

> <Gold.Protein.RotatedAtoms>
  150.7872  134.6866  159.6473 H   0  0  0  0  0  0  0  0  0  0  0  0  # atno 6907 bound_to 6896
  152.3971  134.6345  160.0094 H   0  0  0  0  0  0  0  0  0  0  0  0  # atno 6908 bound_to 6896
  151.6627  133.3279  159.3214 H   0  0  0  0  0  0  0  0  0  0  0  0  # atno 6909 bound_to 6896
  145.5617  139.2304  143.2456 H   0  0  0  0  0  0  0  0  0  0  0  0  # atno 7974 bound_to 7965
  155.2538  140.0433  157.2990 H   0  0  0  0  0  0  0  0  0  0  0  0  # atno 8008 bound_to 7997
  154.5752  140.2385  155.8102 H   0  0  0  0  0  0  0  0  0  0  0  0  # atno 8009 bound_to 7997
  156.2153  140.2986  155.9833 H   0  0  0  0  0  0  0  0  0  0  0  0  # atno 8010 bound_to 7997
  140.4309  143.2549  151.8761 H   0  0  0  0  0  0  0  0  0  0  0  0  # atno 10167 bound_to 10162
  156.3949  130.4379  149.7366 H   0  0  0  0  0  0  0  0  0  0  0  0  # atno 10718 bound_to 10713
  154.3522  135.6134  153.5648 H   0  0  0  0  0  0  0  0  0  0  0  0  # atno 10763 bound_to 10752
  152.9797  135.5795  154.4730 H   0  0  0  0  0  0  0  0  0  0  0  0  # atno 10764 bound_to 10752
  154.4453  135.2851  155.1796 H   0  0  0  0  0  0  0  0  0  0  0  0  # atno 10765 bound_to 10752
  140.2931  134.2842  155.7771 H   0  0  0  0  0  0  0  0  0  0  0  0  # atno 11005 bound_to 11000
  146.1847  140.6441  142.9173 LP  0  0  0  0  0  0  0  0  0  0  0  0  # atno 17320 bound_to 7965
  144.7480  140.5118  143.6822 LP  0  0  0  0  0  0  0  0  0  0  0  0  # atno 17321 bound_to 7965
  139.4785  144.5336  151.8631 LP  0  0  0  0  0  0  0  0  0  0  0  0  # atno 17342 bound_to 10162
  140.4428  144.1962  150.5892 LP  0  0  0  0  0  0  0  0  0  0  0  0  # atno 17343 bound_to 10162
  156.4406  130.7859  151.2880 LP  0  0  0  0  0  0  0  0  0  0  0  0  # atno 17370 bound_to 10713
  157.7501  131.0126  150.3391 LP  0  0  0  0  0  0  0  0  0  0  0  0  # atno 17371 bound_to 10713
  141.2142  133.7598  156.9654 LP  0  0  0  0  0  0  0  0  0  0  0  0  # atno 17394 bound_to 11000
  140.1177  134.9436  157.2159 LP  0  0  0  0  0  0  0  0  0  0  0  0  # atno 17395 bound_to 11000

$$$$
