AV-unprocessed.smi:371|AV-procd|sdf|2441|dock7
  -GOLD-   2262022383D 1   1.00000     0.00000
 Structure written by MMmdl.
 39 40  0  0  0  0  0  0  0  0  1 V2000
  147.1926  141.7353  153.9100 C   0  0  0  0  0  0  0  0  0  0  0  0
  148.1452  141.4037  155.0524 C   0  0  0  0  0  0  0  0  0  0  0  0
  149.3554  140.6819  154.7353 C   0  0  0  0  0  0  0  0  0  0  0  0
  150.2128  140.3061  155.6976 C   0  0  0  0  0  0  0  0  0  0  0  0
  151.4796  139.5319  155.3504 C   0  0  0  0  0  0  0  0  0  0  0  0
  149.9597  140.6340  157.0583 N   0  0  0  0  0  0  0  0  0  0  0  0
  150.9108  140.1943  158.1074 C   0  0  0  0  0  0  0  0  0  0  0  0
  152.2706  140.9268  158.0086 C   0  0  2  0  0  0  0  0  0  0  0  0
  153.2813  140.1028  158.5558 O   0  0  0  0  0  0  0  0  0  0  0  0
  152.2233  142.2701  158.7260 C   0  0  0  0  0  0  0  0  0  0  0  0
  151.7442  143.4154  158.0504 C   0  0  0  0  0  0  0  0  0  0  0  0
  151.6973  144.6619  158.7037 C   0  0  0  0  0  0  0  0  0  0  0  0
  152.1315  144.7739  160.0377 C   0  0  0  0  0  0  0  0  0  0  0  0
  152.6135  143.6387  160.7165 C   0  0  0  0  0  0  0  0  0  0  0  0
  152.6603  142.3902  160.0658 C   0  0  0  0  0  0  0  0  0  0  0  0
  153.1261  141.3110  160.7392 F   0  0  0  0  0  0  0  0  0  0  0  0
  148.8605  141.3615  157.4391 C   0  0  0  0  0  0  0  0  0  0  0  0
  148.7151  141.6991  158.6185 O   0  0  0  0  0  0  0  0  0  0  0  0
  147.9033  141.7154  156.3545 C   0  0  0  0  0  0  0  0  0  0  0  0
  146.6873  142.4492  156.7587 C   0  0  0  0  0  0  0  0  0  0  0  0
  146.8042  143.1754  157.8790 N   0  0  0  0  0  0  0  0  0  0  0  0
  145.5986  142.3715  156.1916 O   0  0  0  0  0  0  0  0  0  0  0  0
  147.4915  141.2336  152.9893 H   0  0  0  0  0  0  0  0  0  0  0  0
  147.1869  142.8079  153.7151 H   0  0  0  0  0  0  0  0  0  0  0  0
  146.1762  141.4141  154.1399 H   0  0  0  0  0  0  0  0  0  0  0  0
  149.5682  140.4308  153.7061 H   0  0  0  0  0  0  0  0  0  0  0  0
  151.4350  139.1592  154.3267 H   0  0  0  0  0  0  0  0  0  0  0  0
  151.6246  138.6648  155.9918 H   0  0  0  0  0  0  0  0  0  0  0  0
  152.3540  140.1789  155.4240 H   0  0  0  0  0  0  0  0  0  0  0  0
  150.4730  140.3673  159.0894 H   0  0  0  0  0  0  0  0  0  0  0  0
  151.0637  139.1134  158.1139 H   0  0  0  0  0  0  0  0  0  0  0  0
  152.5280  141.0903  156.9622 H   0  0  0  0  0  0  0  0  0  0  0  0
  153.0323  139.8687  159.4369 H   0  0  0  0  0  0  0  0  0  0  0  0
  151.4105  143.3404  157.0257 H   0  0  0  0  0  0  0  0  0  0  0  0
  151.3282  145.5320  158.1810 H   0  0  0  0  0  0  0  0  0  0  0  0
  152.0952  145.7293  160.5401 H   0  0  0  0  0  0  0  0  0  0  0  0
  152.9476  143.7252  161.7399 H   0  0  0  0  0  0  0  0  0  0  0  0
  146.0097  143.6892  158.2320 H   0  0  0  0  0  0  0  0  0  0  0  0
  147.6817  143.1894  158.3780 H   0  0  0  0  0  0  0  0  0  0  0  0
  1  2  1  0  0  0  0
  1 23  1  0  0  0  0
  1 24  1  0  0  0  0
  1 25  1  0  0  0  0
  2 19  2  0  0  0  0
  2  3  1  0  0  0  0
  3  4  2  0  0  0  0
  3 26  1  0  0  0  0
  4  5  1  0  0  0  0
  4  6  1  0  0  0  0
  5 27  1  0  0  0  0
  5 28  1  0  0  0  0
  5 29  1  0  0  0  0
  6  7  1  0  0  0  0
  6 17  1  0  0  0  0
  7  8  1  0  0  0  0
  7 30  1  0  0  0  0
  7 31  1  0  0  0  0
  8  9  1  0  0  0  0
  8 10  1  0  0  0  0
  8 32  1  0  0  0  0
  9 33  1  0  0  0  0
 10 15  1  0  0  0  0
 10 11  2  0  0  0  0
 11 12  1  0  0  0  0
 11 34  1  0  0  0  0
 12 13  2  0  0  0  0
 12 35  1  0  0  0  0
 13 14  1  0  0  0  0
 13 36  1  0  0  0  0
 14 15  2  0  0  0  0
 14 37  1  0  0  0  0
 15 16  1  0  0  0  0
 17 18  2  0  0  0  0
 17 19  1  0  0  0  0
 19 20  1  0  0  0  0
 20 21  1  0  0  0  0
 20 22  2  0  0  0  0
 21 38  1  0  0  0  0
 21 39  1  0  0  0  0
M  END
> <s_m_source_file>
AV-unprocessed.smi

> <i_m_source_file_index>
371

> <i_lp_mmshare_version>
43012

> <i_f3d_flags>
0

> <s_epik_input>
W0NIM11jMVtjSF1jKFtDSDNdKW4oYyg9TyljMUMoPU8pW05IMl0pW0NIMl1bQ0BIXShbT0hdKWMyW2NIXVtjSF1bY0hdW2NIXWMyRg==

> <s_epik_cmdline>
J2VwaWtfcHl0aG9uJywgJy1waCcsICc3LjAnLCAnLXRuJywgJzgnLCAnLW1hJywgJzIwMCcsICctbWV0YWxfYmluZGluZycsICctaW1hZScsICc8aW5maWxlLm1hZT4nLCAnLW9tYWUnLCAnPG91dGZpbGUubWFlPic=

> <r_lp_tautomer_probability>
1

> <r_epik_Ionization_Penalty>
3.46512e-07

> <r_epik_Ionization_Penalty_Charging>
1.35363e-07

> <r_epik_Ionization_Penalty_Neutral>
2.11149e-07

> <r_epik_State_Penalty>
-0

> <r_epik_Charging_Adjusted_Penalty>
1.35363e-07

> <i_epik_Tot_Q>
0

> <i_epik_Tot_abs_Q>
0

> <r_epik_Metal_State_Penalty>
-0

> <b_epik_Metal_Only>
0

> <s_lp_Force_Field>
OPLS_2005

> <r_lp_Energy>
40.8148

> <b_lp_Chiralities_Consistent>
1

> <s_lp_Variant>
AV-unprocessed.smi:371-1

> <Gold.Version>
5.8.1

> <Gold.Id.Protein>
6NUR|6NUR_protein|mol2

> <Gold.PLP.Fitness>
47.4032

> <Gold.PLP.PLP>
-47.0187

> <Gold.PLP.part.hbond>
-2.7659

> <Gold.PLP.part.metal>
0.0000

> <Gold.PLP.part.buried>
-4.4357

> <Gold.PLP.part.nonpolar>
-40.0903

> <Gold.PLP.part.repulsive>
0.2004

> <Gold.PLP.ligand.clash>
0.0000

> <Gold.PLP.ligand.torsion>
1.4266

> <Gold.PLP.Chemscore.Hbond>
0.9760

> <Gold.PLP.Chemscore.CHOScore>
0.0000

> <Gold.PLP.Chemscore.Metal>
0.0000

> <Gold.Chemscore.Hbonds>
donor molecule, donor type, donor heavy atom, donor atom, acceptor molecule, acceptor atom, score
      P1  H  7997  8009       L1     9  0.99

> <Gold.PLP.Chemscore.Internal.Correction>
0.3097

> <Gold.Rescore>
     Score         DG    S(hbond)    S(metal)    S(lipo)     H(rot)  DE(clash)    DE(int)     intcor
     12.44     -16.84       0.89        0.00     116.30       2.04       0.02       4.39       ----

> <Gold.Chemscore.Fitness>
12.4360

> <Gold.Chemscore.DG>
-16.8443

> <Gold.Chemscore.ZeroCoef>
-5.4800

> <Gold.Chemscore.Hbond>
0.8916

> <Gold.Chemscore.Metal>
0.0000

> <Gold.Chemscore.Lipo>
116.3045

> <Gold.Chemscore.Internal_Hbond>
0.0000

> <Gold.Chemscore.DEClash>
0.0160

> <Gold.Chemscore.DEInternal>
4.3923

> <Gold.Chemscore.Rot>
2.0396

> <Gold.Chemscore.Internal.Correction>
   9.000000E+99

> <Gold.Chemscore.Hbonds>
donor molecule, donor type, donor heavy atom, donor atom, acceptor molecule, acceptor atom, score
      P1  H  7997  8009       L1     9  0.27

> <Gold.Chemscore.Hbond.Weighted>
-2.9780

> <Gold.Chemscore.Metal.Weighted>
-0.0000

> <Gold.Chemscore.Lipo.Weighted>
-13.6076

> <Gold.Chemscore.Internal_Hbond.Weighted>
0.0000

> <Gold.Chemscore.DEClash.Weighted>
0.0160

> <Gold.Chemscore.DEInternal.Weighted>
4.3923

> <Gold.Chemscore.Rot.Weighted>
5.2214

> <Gold.Chemscore.Internal.Correction.Weighted>
   9.000000E+99

> <Gold.Protein.RotatedTorsions>
[ 6907 6896 6895 6894 ] final -126.60 input  -60.11 | X-H torsion
[ 7974 7965 7964 7962 ] final  -87.73 input  175.53 | X-H torsion
[ 8008 7997 7996 7995 ] final  154.71 input   59.86 | X-H torsion
[ 10167 10162 10161 10158 ] final   32.04 input  -65.29 | X-H torsion
[ 10718 10713 10712 10709 ] final -129.15 input   66.30 | X-H torsion
[ 10763 10752 10751 10750 ] final  107.12 input  -60.55 | X-H torsion
[ 11005 11000 10999 10996 ] final  -31.46 input  -57.11 | X-H torsion

> <Gold.Protein.ActiveResidues>
 VAL166  LYS551  ARG553  GLY616  TRP617  ASP618  TYR619  PRO620  LYS621  CYS622 
 ASP623  PHE694  ASN695  SER759  ASP760  ASP761  ALA762  ILE779  LEU786  VAL792 
 PHE793  MET794  SER795  GLU796  ALA797  LYS798  CYS799  TRP800  GLU811  SER814 

> <Gold.Protein.RotatedAtoms>
  150.8986  133.7148  159.2884 H   0  0  0  0  0  0  0  0  0  0  0  0  # atno 6907 bound_to 6896
  151.4674  135.1042  159.9751 H   0  0  0  0  0  0  0  0  0  0  0  0  # atno 6908 bound_to 6896
  152.4863  133.8335  159.7171 H   0  0  0  0  0  0  0  0  0  0  0  0  # atno 6909 bound_to 6896
  145.4626  140.9561  143.1961 H   0  0  0  0  0  0  0  0  0  0  0  0  # atno 7974 bound_to 7965
  156.2517  140.1959  156.6688 H   0  0  0  0  0  0  0  0  0  0  0  0  # atno 8008 bound_to 7997
  154.6408  140.0584  156.9869 H   0  0  0  0  0  0  0  0  0  0  0  0  # atno 8009 bound_to 7997
  155.1565  140.3256  155.4423 H   0  0  0  0  0  0  0  0  0  0  0  0  # atno 8010 bound_to 7997
  140.4534  144.1014  150.6196 H   0  0  0  0  0  0  0  0  0  0  0  0  # atno 10167 bound_to 10162
  156.2019  130.6863  151.0549 H   0  0  0  0  0  0  0  0  0  0  0  0  # atno 10718 bound_to 10713
  153.4023  135.3855  155.1996 H   0  0  0  0  0  0  0  0  0  0  0  0  # atno 10763 bound_to 10752
  154.8730  135.3774  154.4603 H   0  0  0  0  0  0  0  0  0  0  0  0  # atno 10764 bound_to 10752
  153.5102  135.7087  153.5847 H   0  0  0  0  0  0  0  0  0  0  0  0  # atno 10765 bound_to 10752
  140.9470  133.7244  156.1162 H   0  0  0  0  0  0  0  0  0  0  0  0  # atno 11005 bound_to 11000
  144.7993  139.6172  143.7078 LP  0  0  0  0  0  0  0  0  0  0  0  0  # atno 17320 bound_to 7965
  146.2442  139.6064  142.9471 LP  0  0  0  0  0  0  0  0  0  0  0  0  # atno 17321 bound_to 7965
  140.4180  143.2625  151.9751 LP  0  0  0  0  0  0  0  0  0  0  0  0  # atno 17342 bound_to 10162
  139.4799  144.5857  151.7858 LP  0  0  0  0  0  0  0  0  0  0  0  0  # atno 17343 bound_to 10162
  157.6991  131.0783  150.6878 LP  0  0  0  0  0  0  0  0  0  0  0  0  # atno 17370 bound_to 10713
  156.6935  130.4602  149.5593 LP  0  0  0  0  0  0  0  0  0  0  0  0  # atno 17371 bound_to 10713
  140.7655  134.3891  157.5518 LP  0  0  0  0  0  0  0  0  0  0  0  0  # atno 17394 bound_to 11000
  139.8836  134.8989  156.2754 LP  0  0  0  0  0  0  0  0  0  0  0  0  # atno 17395 bound_to 11000

$$$$
