AV-unprocessed.smi:82|AV-procd|sdf|797|dock3
  -GOLD-   2262017173D 1   1.00000     0.00000
 Structure written by MMmdl.
 59 62  0  0  0  0  0  0  0  0  2 V2000
  152.5213  143.3371  158.9795 C   0  0  0  0  0  0  0  0  0  0  0  0
  151.8580  142.1040  158.7609 O   0  0  0  0  0  0  0  0  0  0  0  0
  151.2097  142.0502  157.5010 C   0  0  0  0  0  0  0  0  0  0  0  0
  149.7239  141.7222  157.7209 C   0  0  0  0  0  0  0  0  0  0  0  0
  148.9528  141.6687  156.4455 N   0  3  1  0  0  0  0  0  0  0  0  0
  149.4706  140.6004  155.5430 C   0  0  0  0  0  0  0  0  0  0  0  0
  148.7365  140.5685  154.1930 C   0  0  0  0  0  0  0  0  0  0  0  0
  147.2943  140.5085  154.3693 N   0  0  0  0  0  0  0  0  0  0  0  0
  146.7516  139.2739  154.4510 C   0  0  0  0  0  0  0  0  0  0  0  0
  146.5298  138.7051  155.6638 N   0  0  0  0  0  0  0  0  0  0  0  0
  145.9945  137.4829  155.7381 C   0  0  0  0  0  0  0  0  0  0  0  0
  145.6153  136.6768  154.7441 N   0  0  0  0  0  0  0  0  0  0  0  0
  145.8356  137.2479  153.5241 C   0  0  0  0  0  0  0  0  0  0  0  0
  146.3962  138.5351  153.2929 C   0  0  0  0  0  0  0  0  0  0  0  0
  146.4719  138.7878  151.9303 N   0  0  0  0  0  0  0  0  0  0  0  0
  145.9827  137.7084  151.3829 C   0  0  0  0  0  0  0  0  0  0  0  0
  145.5757  136.7306  152.2646 N   0  0  0  0  0  0  0  0  0  0  0  0
  145.0090  135.4562  151.9205 C   0  0  0  0  0  0  0  0  0  0  0  0
  145.7606  134.1496  152.1822 C   0  0  0  0  0  0  0  0  0  0  0  0
  145.1093  133.5323  150.9226 C   0  0  0  0  0  0  0  0  0  0  0  0
  146.0651  132.6811  150.0681 C   0  0  0  0  0  0  0  0  0  0  0  0
  146.3676  131.4450  150.6815 O   0  0  0  0  0  0  0  0  0  0  0  0
  143.8304  132.7211  151.2193 C   0  0  0  0  0  0  0  0  0  0  0  0
  143.0110  132.5728  150.0779 O   0  0  0  0  0  0  0  0  0  0  0  0
  144.9067  134.9964  150.4660 C   0  0  0  0  0  0  0  0  0  0  0  0
  146.7397  141.5160  155.2614 C   0  0  0  0  0  0  0  0  0  0  0  0
  147.4667  141.5857  156.6263 C   0  0  2  0  0  0  0  0  0  0  0  0
  146.8850  142.7774  157.4142 C   0  0  0  0  0  0  0  0  0  0  0  0
  153.0068  143.3237  159.9555 H   0  0  0  0  0  0  0  0  0  0  0  0
  151.8186  144.1715  158.9652 H   0  0  0  0  0  0  0  0  0  0  0  0
  153.2886  143.5118  158.2241 H   0  0  0  0  0  0  0  0  0  0  0  0
  151.3457  142.9837  156.9555 H   0  0  0  0  0  0  0  0  0  0  0  0
  151.6637  141.2646  156.8953 H   0  0  0  0  0  0  0  0  0  0  0  0
  149.6190  140.7748  158.2511 H   0  0  0  0  0  0  0  0  0  0  0  0
  149.3383  142.4825  158.3948 H   0  0  0  0  0  0  0  0  0  0  0  0
  150.5316  140.7430  155.3462 H   0  0  0  0  0  0  0  0  0  0  0  0
  149.3786  139.6344  156.0403 H   0  0  0  0  0  0  0  0  0  0  0  0
  148.9718  141.4679  153.6228 H   0  0  0  0  0  0  0  0  0  0  0  0
  149.0801  139.7234  153.5946 H   0  0  0  0  0  0  0  0  0  0  0  0
  145.8489  137.0948  156.7354 H   0  0  0  0  0  0  0  0  0  0  0  0
  145.9064  137.5970  150.3108 H   0  0  0  0  0  0  0  0  0  0  0  0
  144.0239  135.4186  152.3893 H   0  0  0  0  0  0  0  0  0  0  0  0
  146.8426  134.2579  152.0971 H   0  0  0  0  0  0  0  0  0  0  0  0
  145.4968  133.6615  153.1210 H   0  0  0  0  0  0  0  0  0  0  0  0
  145.6214  132.4597  149.0970 H   0  0  0  0  0  0  0  0  0  0  0  0
  146.9952  133.2128  149.8647 H   0  0  0  0  0  0  0  0  0  0  0  0
  147.2957  131.2871  150.5998 H   0  0  0  0  0  0  0  0  0  0  0  0
  144.0745  131.7307  151.6049 H   0  0  0  0  0  0  0  0  0  0  0  0
  143.2298  133.2040  151.9904 H   0  0  0  0  0  0  0  0  0  0  0  0
  142.5794  133.3957  149.9074 H   0  0  0  0  0  0  0  0  0  0  0  0
  143.9451  135.2053  149.9966 H   0  0  0  0  0  0  0  0  0  0  0  0
  145.7262  135.3605  149.8444 H   0  0  0  0  0  0  0  0  0  0  0  0
  146.8140  142.4789  154.7547 H   0  0  0  0  0  0  0  0  0  0  0  0
  145.6743  141.3305  155.4088 H   0  0  0  0  0  0  0  0  0  0  0  0
  147.2493  140.6735  157.1832 H   0  0  0  0  0  0  0  0  0  0  0  0
  145.7956  142.7780  157.3649 H   0  0  0  0  0  0  0  0  0  0  0  0
  147.2306  143.7291  157.0090 H   0  0  0  0  0  0  0  0  0  0  0  0
  147.1346  142.7459  158.4736 H   0  0  0  0  0  0  0  0  0  0  0  0
  149.1203  142.5484  155.9780 H   0  0  0  0  0  0  0  0  0  0  0  0
  1  2  1  0  0  0  0
  1 29  1  0  0  0  0
  1 30  1  0  0  0  0
  1 31  1  0  0  0  0
  2  3  1  0  0  0  0
  3  4  1  0  0  0  0
  3 32  1  0  0  0  0
  3 33  1  0  0  0  0
  4  5  1  0  0  0  0
  4 34  1  0  0  0  0
  4 35  1  0  0  0  0
  5 27  1  0  0  0  0
  5  6  1  0  0  0  0
  5 59  1  0  0  0  0
  6  7  1  0  0  0  0
  6 36  1  0  0  0  0
  6 37  1  0  0  0  0
  7  8  1  0  0  0  0
  7 38  1  0  0  0  0
  7 39  1  0  0  0  0
  8  9  1  0  0  0  0
  8 26  1  0  0  0  0
  9 14  1  0  0  0  0
  9 10  2  0  0  0  0
 10 11  1  0  0  0  0
 11 12  2  0  0  0  0
 11 40  1  0  0  0  0
 12 13  1  0  0  0  0
 13 17  1  0  0  0  0
 13 14  2  0  0  0  0
 14 15  1  0  0  0  0
 15 16  2  0  0  0  0
 16 17  1  0  0  0  0
 16 41  1  0  0  0  0
 17 18  1  0  0  0  0
 18 25  1  0  0  0  0
 18 19  1  0  0  0  0
 18 42  1  0  0  0  0
 19 20  1  0  0  0  0
 19 43  1  0  0  0  0
 19 44  1  0  0  0  0
 20 21  1  0  0  0  0
 20 23  1  0  0  0  0
 20 25  1  0  0  0  0
 21 22  1  0  0  0  0
 21 45  1  0  0  0  0
 21 46  1  0  0  0  0
 22 47  1  0  0  0  0
 23 24  1  0  0  0  0
 23 48  1  0  0  0  0
 23 49  1  0  0  0  0
 24 50  1  0  0  0  0
 25 51  1  0  0  0  0
 25 52  1  0  0  0  0
 26 27  1  0  0  0  0
 26 53  1  0  0  0  0
 26 54  1  0  0  0  0
 27 28  1  0  0  0  0
 27 55  1  0  0  0  0
 28 56  1  0  0  0  0
 28 57  1  0  0  0  0
 28 58  1  0  0  0  0
M  CHG  1   5   1
M  END
> <s_m_source_file>
AV-unprocessed.smi

> <i_m_source_file_index>
82

> <i_lp_mmshare_version>
43012

> <i_f3d_flags>
0

> <s_epik_input>
W0NIM11PW0NIMl1bQ0gyXU4xW0NIMl1bQ0gyXU4oW0NIMl1bQ0BIXTFbQ0gzXSljKG5bY0hdbjIpYyhjMjMpbltjSF1uM1tDSF0oW0NIMl00KVtDSDJdQzQoW0NIMl1bT0hdKVtDSDJdW09IXQ==

> <s_epik_cmdline>
J2VwaWtfcHl0aG9uJywgJy1waCcsICc3LjAnLCAnLXRuJywgJzgnLCAnLW1hJywgJzIwMCcsICctbWV0YWxfYmluZGluZycsICctaW1hZScsICc8aW5maWxlLm1hZT4nLCAnLW9tYWUnLCAnPG91dGZpbGUubWFlPic=

> <r_lp_tautomer_probability>
1

> <r_epik_Ionization_Penalty>
0.304275

> <r_epik_Ionization_Penalty_Charging>
0.304214

> <r_epik_Ionization_Penalty_Neutral>
6.13137e-05

> <r_epik_State_Penalty>
0.300354

> <r_epik_Charging_Adjusted_Penalty>
0.604567

> <i_epik_Tot_Q>
1

> <i_epik_Tot_abs_Q>
1

> <r_epik_Metal_State_Penalty>
0.301147

> <b_epik_Metal_Only>
0

> <s_lp_Force_Field>
OPLS_2005

> <r_lp_Energy>
60.5055

> <b_lp_Chiralities_Consistent>
1

> <s_lp_Variant>
AV-unprocessed.smi:82-4

> <Gold.Version>
5.8.1

> <Gold.Id.Protein>
6NUR|6NUR_protein|mol2

> <Gold.PLP.Fitness>
52.0676

> <Gold.PLP.PLP>
-39.9883

> <Gold.PLP.part.hbond>
-3.4422

> <Gold.PLP.part.metal>
0.0000

> <Gold.PLP.part.buried>
-3.4221

> <Gold.PLP.part.nonpolar>
-33.7267

> <Gold.PLP.part.repulsive>
0.5528

> <Gold.PLP.ligand.clash>
0.0000

> <Gold.PLP.ligand.torsion>
1.2198

> <Gold.PLP.Chemscore.Hbond>
4.0000

> <Gold.PLP.Chemscore.CHOScore>
0.5018

> <Gold.PLP.Chemscore.Metal>
0.0000

> <Gold.Chemscore.Hbonds>
donor molecule, donor type, donor heavy atom, donor atom, acceptor molecule, acceptor atom, score
      L1  H     5    59       P1  8028  1.14
      L1  H    22    47       P1 10747  1.00
      L1  H    24    50       P1 10186  1.00
      L1  C    16    41       P1 10171  0.49

> <Gold.PLP.Chemscore.Internal.Correction>
1.0135

> <Gold.Rescore>
     Score         DG    S(hbond)    S(metal)    S(lipo)     H(rot)  DE(clash)    DE(int)     intcor
     12.93     -16.23       2.96        0.00      92.83       3.91       1.93       1.37       ----

> <Gold.Chemscore.Fitness>
12.9346

> <Gold.Chemscore.DG>
-16.2282

> <Gold.Chemscore.ZeroCoef>
-5.4800

> <Gold.Chemscore.Hbond>
2.9596

> <Gold.Chemscore.Metal>
0.0000

> <Gold.Chemscore.Lipo>
92.8309

> <Gold.Chemscore.Internal_Hbond>
0.0000

> <Gold.Chemscore.DEClash>
1.9271

> <Gold.Chemscore.DEInternal>
1.3665

> <Gold.Chemscore.Rot>
3.9055

> <Gold.Chemscore.Internal.Correction>
   9.000000E+99

> <Gold.Chemscore.Hbonds>
donor molecule, donor type, donor heavy atom, donor atom, acceptor molecule, acceptor atom, score
      L1  H     5    59       P1  8028  0.55
      L1  H    22    47       P1 10747  1.00
      L1  H    24    50       P1 10186  0.95

> <Gold.Chemscore.Hbond.Weighted>
-9.8850

> <Gold.Chemscore.Metal.Weighted>
-0.0000

> <Gold.Chemscore.Lipo.Weighted>
-10.8612

> <Gold.Chemscore.Internal_Hbond.Weighted>
0.0000

> <Gold.Chemscore.DEClash.Weighted>
1.9271

> <Gold.Chemscore.DEInternal.Weighted>
1.3665

> <Gold.Chemscore.Rot.Weighted>
9.9980

> <Gold.Chemscore.Internal.Correction.Weighted>
   9.000000E+99

> <Gold.Protein.RotatedTorsions>
[ 6907 6896 6895 6894 ] final  -93.05 input  -60.11 | X-H torsion
[ 7974 7965 7964 7962 ] final -178.14 input  175.53 | X-H torsion
[ 8008 7997 7996 7995 ] final  -54.39 input   59.86 | X-H torsion
[ 10167 10162 10161 10158 ] final  172.86 input  -65.29 | X-H torsion
[ 10718 10713 10712 10709 ] final  158.94 input   66.30 | X-H torsion
[ 10763 10752 10751 10750 ] final   50.02 input  -60.55 | X-H torsion
[ 11005 11000 10999 10996 ] final  -39.14 input  -57.11 | X-H torsion

> <Gold.Protein.ActiveResidues>
 VAL166  LYS551  ARG553  GLY616  TRP617  ASP618  TYR619  PRO620  LYS621  CYS622 
 ASP623  PHE694  ASN695  SER759  ASP760  ASP761  ALA762  ILE779  LEU786  VAL792 
 PHE793  MET794  SER795  GLU796  ALA797  LYS798  CYS799  TRP800  GLU811  SER814 

> <Gold.Protein.RotatedAtoms>
  150.6916  134.2027  159.4328 H   0  0  0  0  0  0  0  0  0  0  0  0  # atno 6907 bound_to 6896
  151.9993  134.9934  160.0574 H   0  0  0  0  0  0  0  0  0  0  0  0  # atno 6908 bound_to 6896
  152.1594  133.4537  159.4890 H   0  0  0  0  0  0  0  0  0  0  0  0  # atno 6909 bound_to 6896
  144.7130  140.0914  143.6421 H   0  0  0  0  0  0  0  0  0  0  0  0  # atno 7974 bound_to 7965
  154.4161  140.1177  156.5308 H   0  0  0  0  0  0  0  0  0  0  0  0  # atno 8008 bound_to 7997
  155.6607  140.3496  155.4762 H   0  0  0  0  0  0  0  0  0  0  0  0  # atno 8009 bound_to 7997
  155.9716  140.1142  157.0797 H   0  0  0  0  0  0  0  0  0  0  0  0  # atno 8010 bound_to 7997
  139.5090  144.3326  152.0096 H   0  0  0  0  0  0  0  0  0  0  0  0  # atno 10167 bound_to 10162
  157.1710  131.0610  151.2183 H   0  0  0  0  0  0  0  0  0  0  0  0  # atno 10718 bound_to 10713
  152.9785  135.5892  154.4184 H   0  0  0  0  0  0  0  0  0  0  0  0  # atno 10763 bound_to 10752
  154.3811  135.2767  155.2212 H   0  0  0  0  0  0  0  0  0  0  0  0  # atno 10764 bound_to 10752
  154.4125  135.6078  153.6016 H   0  0  0  0  0  0  0  0  0  0  0  0  # atno 10765 bound_to 10752
  141.0080  133.6922  156.2147 H   0  0  0  0  0  0  0  0  0  0  0  0  # atno 11005 bound_to 11000
  145.9617  139.2805  143.1151 LP  0  0  0  0  0  0  0  0  0  0  0  0  # atno 17320 bound_to 7965
  145.9213  140.9113  143.0403 LP  0  0  0  0  0  0  0  0  0  0  0  0  # atno 17321 bound_to 7965
  140.2765  144.3906  150.6133 LP  0  0  0  0  0  0  0  0  0  0  0  0  # atno 17342 bound_to 10162
  140.6050  143.2167  151.6999 LP  0  0  0  0  0  0  0  0  0  0  0  0  # atno 17343 bound_to 10162
  157.4043  130.7350  149.6791 LP  0  0  0  0  0  0  0  0  0  0  0  0  # atno 17370 bound_to 10713
  155.9738  130.4112  150.3970 LP  0  0  0  0  0  0  0  0  0  0  0  0  # atno 17371 bound_to 10713
  140.6781  134.4796  157.5588 LP  0  0  0  0  0  0  0  0  0  0  0  0  # atno 17394 bound_to 11000
  139.9074  134.8419  156.1655 LP  0  0  0  0  0  0  0  0  0  0  0  0  # atno 17395 bound_to 11000

$$$$
