AV-unprocessed.smi:1754|AV-procd|sdf|7068|dock10
  -GOLD-   22720 8283D 1   1.00000     0.00000
 Structure written by MMmdl.
 44 45  0  0  0  0  0  0  0  0  3 V2000
  150.9593  142.7604  157.5468 C   0  0  0  0  0  0  0  0  0  0  0  0
  151.7798  143.8887  158.1908 C   0  0  0  0  0  0  0  0  0  0  0  0
  151.4093  144.1367  159.5839 N   0  0  0  0  0  0  0  0  0  0  0  0
  150.8131  145.4391  159.8910 C   0  0  0  0  0  0  0  0  0  0  0  0
  149.4118  145.3279  160.5130 C   0  0  0  0  0  0  0  0  0  0  0  0
  152.2515  143.5315  160.5446 C   0  0  0  0  0  0  0  0  0  0  0  0
  152.9930  142.3587  160.2652 C   0  0  0  0  0  0  0  0  0  0  0  0
  153.8312  141.8058  161.2545 C   0  0  0  0  0  0  0  0  0  0  0  0
  153.9364  142.4331  162.5125 C   0  0  0  0  0  0  0  0  0  0  0  0
  154.7754  141.8316  163.4875 N   0  0  0  0  0  0  0  0  0  0  0  0
  155.3031  142.3713  164.6141 C   0  0  0  0  0  0  0  0  0  0  0  0
  155.1247  143.5671  164.8406 O   0  0  0  0  0  0  0  0  0  0  0  0
  156.0422  141.5906  165.4602 N   0  5  0  0  0  0  0  0  0  0  0  0
  156.6930  141.9576  166.7279 C   0  0  2  0  0  0  0  0  0  0  0  0
  155.6787  142.5533  167.7262 C   0  0  0  0  0  0  0  0  0  0  0  0
  156.4514  143.2371  168.8629 C   0  0  0  0  0  0  0  0  0  0  0  0
  158.0001  143.8662  168.1057 S   0  0  0  0  0  0  0  0  0  0  0  0
  157.8918  145.3184  167.8977 O   0  0  0  0  0  0  0  0  0  0  0  0
  159.1490  143.2923  168.8238 O   0  0  0  0  0  0  0  0  0  0  0  0
  157.7855  143.0101  166.4956 C   0  0  0  0  0  0  0  0  0  0  0  0
  153.1632  143.5930  162.7509 C   0  0  0  0  0  0  0  0  0  0  0  0
  152.3709  144.0872  161.7755 N   0  3  0  0  0  0  0  0  0  0  0  0
  151.2760  142.5952  156.5169 H   0  0  0  0  0  0  0  0  0  0  0  0
  149.8957  143.0000  157.5298 H   0  0  0  0  0  0  0  0  0  0  0  0
  151.0830  141.8199  158.0841 H   0  0  0  0  0  0  0  0  0  0  0  0
  152.8376  143.6262  158.1573 H   0  0  0  0  0  0  0  0  0  0  0  0
  151.6897  144.7970  157.5965 H   0  0  0  0  0  0  0  0  0  0  0  0
  151.4742  146.0041  160.5492 H   0  0  0  0  0  0  0  0  0  0  0  0
  150.7396  146.0204  158.9713 H   0  0  0  0  0  0  0  0  0  0  0  0
  148.9903  146.3184  160.6853 H   0  0  0  0  0  0  0  0  0  0  0  0
  149.4239  144.8082  161.4708 H   0  0  0  0  0  0  0  0  0  0  0  0
  148.7318  144.7916  159.8506 H   0  0  0  0  0  0  0  0  0  0  0  0
  152.9187  141.8670  159.3071 H   0  0  0  0  0  0  0  0  0  0  0  0
  154.3927  140.9072  161.0439 H   0  0  0  0  0  0  0  0  0  0  0  0
  155.0555  140.8813  163.2937 H   0  0  0  0  0  0  0  0  0  0  0  0
  157.1634  141.0969  167.2063 H   0  0  0  0  0  0  0  0  0  0  0  0
  155.0695  143.3033  167.2190 H   0  0  0  0  0  0  0  0  0  0  0  0
  154.9945  141.7964  168.1107 H   0  0  0  0  0  0  0  0  0  0  0  0
  155.8950  144.0577  169.3157 H   0  0  0  0  0  0  0  0  0  0  0  0
  156.7186  142.5264  169.6463 H   0  0  0  0  0  0  0  0  0  0  0  0
  158.7306  142.5779  166.1674 H   0  0  0  0  0  0  0  0  0  0  0  0
  157.4695  143.7545  165.7637 H   0  0  0  0  0  0  0  0  0  0  0  0
  153.1360  144.1378  163.6829 H   0  0  0  0  0  0  0  0  0  0  0  0
  151.8313  144.9282  161.9798 H   0  0  0  0  0  0  0  0  0  0  0  0
  1  2  1  0  0  0  0
  1 23  1  0  0  0  0
  1 24  1  0  0  0  0
  1 25  1  0  0  0  0
  2  3  1  0  0  0  0
  2 26  1  0  0  0  0
  2 27  1  0  0  0  0
  3  4  1  0  0  0  0
  3  6  1  0  0  0  0
  4  5  1  0  0  0  0
  4 28  1  0  0  0  0
  4 29  1  0  0  0  0
  5 30  1  0  0  0  0
  5 31  1  0  0  0  0
  5 32  1  0  0  0  0
  6 22  1  0  0  0  0
  6  7  2  0  0  0  0
  7  8  1  0  0  0  0
  7 33  1  0  0  0  0
  8  9  2  0  0  0  0
  8 34  1  0  0  0  0
  9 10  1  0  0  0  0
  9 21  1  0  0  0  0
 10 11  1  0  0  0  0
 10 35  1  0  0  0  0
 11 12  2  0  0  0  0
 11 13  1  0  0  0  0
 13 14  1  0  0  0  0
 14 20  1  0  0  0  0
 14 15  1  0  0  0  0
 14 36  1  0  0  0  0
 15 16  1  0  0  0  0
 15 37  1  0  0  0  0
 15 38  1  0  0  0  0
 16 17  1  0  0  0  0
 16 39  1  0  0  0  0
 16 40  1  0  0  0  0
 17 18  2  0  0  0  0
 17 19  2  0  0  0  0
 17 20  1  0  0  0  0
 20 41  1  0  0  0  0
 20 42  1  0  0  0  0
 21 22  2  0  0  0  0
 21 43  1  0  0  0  0
 22 44  1  0  0  0  0
M  CHG  1  13  -1
M  CHG  1  22   1
M  END
> <s_m_source_file>
AV-unprocessed.smi

> <i_m_source_file_index>
1754

> <i_lp_mmshare_version>
43012

> <i_f3d_flags>
0

> <s_epik_input>
W0NIM11bQ0gyXU4oW0NIMl1bQ0gzXSljMVtjSF1bY0hdYyhbY0hdbjEpW05IXUMoPU8pW05IXVtDQEBIXShbQ0gyXTIpW0NIMl1bQ0gyXVMyKD1PKT1P

> <s_epik_cmdline>
J2VwaWtfcHl0aG9uJywgJy1waCcsICc3LjAnLCAnLXRuJywgJzgnLCAnLW1hJywgJzIwMCcsICctbWV0YWxfYmluZGluZycsICctaW1hZScsICc8aW5maWxlLm1hZT4nLCAnLW9tYWUnLCAnPG91dGZpbGUubWFlPic=

> <r_lp_tautomer_probability>
0.999994

> <r_epik_Ionization_Penalty>
7.1175

> <r_epik_Ionization_Penalty_Charging>
7.11749

> <r_epik_Ionization_Penalty_Neutral>
3.13064e-06

> <r_epik_State_Penalty>
6.65299

> <r_epik_Charging_Adjusted_Penalty>
13.7705

> <i_epik_Tot_Q>
0

> <i_epik_Tot_abs_Q>
2

> <r_epik_Metal_State_Penalty>
2.60496

> <b_epik_Metal_Only>
1

> <s_lp_Force_Field>
OPLS_2005

> <r_lp_Energy>
20.9126

> <b_lp_Chiralities_Consistent>
1

> <s_lp_Variant>
AV-unprocessed.smi:1754-5

> <Gold.Version>
5.8.1

> <Gold.Id.Protein>
6NUR|6NUR_protein|mol2

> <Gold.PLP.Fitness>
48.4216

> <Gold.PLP.PLP>
-48.7768

> <Gold.PLP.part.hbond>
-1.9897

> <Gold.PLP.part.metal>
0.0000

> <Gold.PLP.part.buried>
-7.0212

> <Gold.PLP.part.nonpolar>
-40.2415

> <Gold.PLP.part.repulsive>
0.3265

> <Gold.PLP.ligand.clash>
0.0000

> <Gold.PLP.ligand.torsion>
0.6066

> <Gold.PLP.Chemscore.Hbond>
0.0000

> <Gold.PLP.Chemscore.CHOScore>
0.0000

> <Gold.PLP.Chemscore.Metal>
0.0000

> <Gold.PLP.Chemscore.Internal.Correction>
0.8580

> <Gold.Rescore>
     Score         DG    S(hbond)    S(metal)    S(lipo)     H(rot)  DE(clash)    DE(int)     intcor
     12.37     -14.83       0.00        0.00     110.30       1.39       0.56       1.89       ----

> <Gold.Chemscore.Fitness>
12.3736

> <Gold.Chemscore.DG>
-14.8330

> <Gold.Chemscore.ZeroCoef>
-5.4800

> <Gold.Chemscore.Hbond>
0.0000

> <Gold.Chemscore.Metal>
0.0000

> <Gold.Chemscore.Lipo>
110.3025

> <Gold.Chemscore.Internal_Hbond>
0.0000

> <Gold.Chemscore.DEClash>
0.5645

> <Gold.Chemscore.DEInternal>
1.8949

> <Gold.Chemscore.Rot>
1.3876

> <Gold.Chemscore.Internal.Correction>
   9.000000E+99

> <Gold.Chemscore.Hbond.Weighted>
-0.0000

> <Gold.Chemscore.Metal.Weighted>
-0.0000

> <Gold.Chemscore.Lipo.Weighted>
-12.9054

> <Gold.Chemscore.Internal_Hbond.Weighted>
0.0000

> <Gold.Chemscore.DEClash.Weighted>
0.5645

> <Gold.Chemscore.DEInternal.Weighted>
1.8949

> <Gold.Chemscore.Rot.Weighted>
3.5524

> <Gold.Chemscore.Internal.Correction.Weighted>
   9.000000E+99

> <Gold.Protein.RotatedTorsions>
[ 6907 6896 6895 6894 ] final   67.48 input  -60.11 | X-H torsion
[ 7974 7965 7964 7962 ] final    0.07 input  175.53 | X-H torsion
[ 8008 7997 7996 7995 ] final   98.56 input   59.86 | X-H torsion
[ 10167 10162 10161 10158 ] final -149.13 input  -65.29 | X-H torsion
[ 10718 10713 10712 10709 ] final  -85.03 input   66.30 | X-H torsion
[ 10763 10752 10751 10750 ] final    4.08 input  -60.55 | X-H torsion
[ 11005 11000 10999 10996 ] final    1.96 input  -57.11 | X-H torsion

> <Gold.Protein.ActiveResidues>
 VAL166  LYS551  ARG553  GLY616  TRP617  ASP618  TYR619  PRO620  LYS621  CYS622 
 ASP623  PHE694  ASN695  SER759  ASP760  ASP761  ALA762  ILE779  LEU786  VAL792 
 PHE793  MET794  SER795  GLU796  ALA797  LYS798  CYS799  TRP800  GLU811  SER814 

> <Gold.Protein.RotatedAtoms>
  152.4555  134.5302  159.9808 H   0  0  0  0  0  0  0  0  0  0  0  0  # atno 6907 bound_to 6896
  151.5364  133.3434  159.2935 H   0  0  0  0  0  0  0  0  0  0  0  0  # atno 6908 bound_to 6896
  150.8497  134.7849  159.7062 H   0  0  0  0  0  0  0  0  0  0  0  0  # atno 6909 bound_to 6896
  146.2431  140.1193  142.8341 H   0  0  0  0  0  0  0  0  0  0  0  0  # atno 7974 bound_to 7965
  156.1016  140.3242  155.7950 H   0  0  0  0  0  0  0  0  0  0  0  0  # atno 8008 bound_to 7997
  155.4827  140.0555  157.2982 H   0  0  0  0  0  0  0  0  0  0  0  0  # atno 8009 bound_to 7997
  154.4701  140.2007  156.0033 H   0  0  0  0  0  0  0  0  0  0  0  0  # atno 8010 bound_to 7997
  139.7469  143.8576  152.2577 H   0  0  0  0  0  0  0  0  0  0  0  0  # atno 10167 bound_to 10162
  156.0000  130.4717  150.4500 H   0  0  0  0  0  0  0  0  0  0  0  0  # atno 10718 bound_to 10713
  153.2755  135.6936  153.7437 H   0  0  0  0  0  0  0  0  0  0  0  0  # atno 10763 bound_to 10752
  153.6444  135.3387  155.3082 H   0  0  0  0  0  0  0  0  0  0  0  0  # atno 10764 bound_to 10752
  154.8478  135.4439  154.1792 H   0  0  0  0  0  0  0  0  0  0  0  0  # atno 10765 bound_to 10752
  140.6096  133.9761  155.8171 H   0  0  0  0  0  0  0  0  0  0  0  0  # atno 11005 bound_to 11000
  145.0420  140.8952  143.5047 LP  0  0  0  0  0  0  0  0  0  0  0  0  # atno 17320 bound_to 7965
  145.1275  139.2653  143.5556 LP  0  0  0  0  0  0  0  0  0  0  0  0  # atno 17321 bound_to 7965
  139.8543  144.7149  150.9175 LP  0  0  0  0  0  0  0  0  0  0  0  0  # atno 17342 bound_to 10162
  140.7793  143.3872  151.1373 LP  0  0  0  0  0  0  0  0  0  0  0  0  # atno 17343 bound_to 10162
  157.2534  131.0551  151.2365 LP  0  0  0  0  0  0  0  0  0  0  0  0  # atno 17370 bound_to 10713
  157.3506  130.7080  149.6438 LP  0  0  0  0  0  0  0  0  0  0  0  0  # atno 17371 bound_to 10713
  141.0817  134.0052  157.3375 LP  0  0  0  0  0  0  0  0  0  0  0  0  # atno 17394 bound_to 11000
  139.9198  135.0199  156.8020 LP  0  0  0  0  0  0  0  0  0  0  0  0  # atno 17395 bound_to 11000

$$$$
