AV-unprocessed.smi:402|AV-procd|sdf|2495|dock9
  -GOLD-   2262022443D 1   1.00000     0.00000
 Structure written by MMmdl.
 38 39  0  0  0  0  0  0  0  0  1 V2000
  150.5149  140.4222  154.8649 O   0  0  0  0  0  0  0  0  0  0  0  0
  149.8537  141.4213  155.1452 C   0  0  0  0  0  0  0  0  0  0  0  0
  148.5496  141.6958  154.3752 C   0  0  0  0  0  0  0  0  0  0  0  0
  147.5511  140.6120  154.4331 N   0  0  0  0  0  0  0  0  0  0  0  0
  147.8608  139.4215  153.7456 C   0  0  0  0  0  0  0  0  0  0  0  0
  147.0270  138.3696  153.7356 C   0  0  0  0  0  0  0  0  0  0  0  0
  145.7805  138.4799  154.4555 C   0  0  0  0  0  0  0  0  0  0  0  0
  145.4756  139.6126  155.1194 C   0  0  0  0  0  0  0  0  0  0  0  0
  146.3858  140.7636  155.1361 C   0  0  0  0  0  0  0  0  0  0  0  0
  146.1216  141.7966  155.7513 O   0  0  0  0  0  0  0  0  0  0  0  0
  150.2237  142.2920  156.0975 N   0  0  0  0  0  0  0  0  0  0  0  0
  151.4469  142.2077  156.8833 C   0  0  0  0  0  0  0  0  0  0  0  0
  151.2661  142.8633  158.2658 C   0  0  0  0  0  0  0  0  0  0  0  0
  151.1430  144.4018  158.1767 C   0  0  0  0  0  0  0  0  0  0  0  0
  150.9844  145.0420  159.5653 C   0  0  0  0  0  0  0  0  0  0  0  0
  152.1363  144.6420  160.4994 C   0  0  0  0  0  0  0  0  0  0  0  0
  152.2583  143.1144  160.6014 C   0  0  0  0  0  0  0  0  0  0  0  0
  152.4200  142.4754  159.2125 C   0  0  0  0  0  0  0  0  0  0  0  0
  148.1174  142.6248  154.7513 H   0  0  0  0  0  0  0  0  0  0  0  0
  148.8108  141.9100  153.3379 H   0  0  0  0  0  0  0  0  0  0  0  0
  148.8142  139.4185  153.2374 H   0  0  0  0  0  0  0  0  0  0  0  0
  147.2828  137.4643  153.2051 H   0  0  0  0  0  0  0  0  0  0  0  0
  145.0890  137.6500  154.4620 H   0  0  0  0  0  0  0  0  0  0  0  0
  144.5388  139.6765  155.6532 H   0  0  0  0  0  0  0  0  0  0  0  0
  149.6254  143.0866  156.2713 H   0  0  0  0  0  0  0  0  0  0  0  0
  151.7148  141.1563  156.9960 H   0  0  0  0  0  0  0  0  0  0  0  0
  152.2672  142.6906  156.3491 H   0  0  0  0  0  0  0  0  0  0  0  0
  150.3409  142.4776  158.6975 H   0  0  0  0  0  0  0  0  0  0  0  0
  152.0268  144.8126  157.6864 H   0  0  0  0  0  0  0  0  0  0  0  0
  150.2904  144.6838  157.5579 H   0  0  0  0  0  0  0  0  0  0  0  0
  150.9429  146.1275  159.4710 H   0  0  0  0  0  0  0  0  0  0  0  0
  150.0344  144.7334  160.0031 H   0  0  0  0  0  0  0  0  0  0  0  0
  153.0722  145.0597  160.1260 H   0  0  0  0  0  0  0  0  0  0  0  0
  151.9789  145.0704  161.4895 H   0  0  0  0  0  0  0  0  0  0  0  0
  153.1075  142.8513  161.2327 H   0  0  0  0  0  0  0  0  0  0  0  0
  151.3721  142.7082  161.0905 H   0  0  0  0  0  0  0  0  0  0  0  0
  152.4691  141.3907  159.3157 H   0  0  0  0  0  0  0  0  0  0  0  0
  153.3720  142.7861  158.7797 H   0  0  0  0  0  0  0  0  0  0  0  0
  1  2  2  0  0  0  0
  2  3  1  0  0  0  0
  2 11  1  0  0  0  0
  3  4  1  0  0  0  0
  3 19  1  0  0  0  0
  3 20  1  0  0  0  0
  4  9  1  0  0  0  0
  4  5  1  0  0  0  0
  5  6  2  0  0  0  0
  5 21  1  0  0  0  0
  6  7  1  0  0  0  0
  6 22  1  0  0  0  0
  7  8  2  0  0  0  0
  7 23  1  0  0  0  0
  8  9  1  0  0  0  0
  8 24  1  0  0  0  0
  9 10  2  0  0  0  0
 11 12  1  0  0  0  0
 11 25  1  0  0  0  0
 12 13  1  0  0  0  0
 12 26  1  0  0  0  0
 12 27  1  0  0  0  0
 13 18  1  0  0  0  0
 13 14  1  0  0  0  0
 13 28  1  0  0  0  0
 14 15  1  0  0  0  0
 14 29  1  0  0  0  0
 14 30  1  0  0  0  0
 15 16  1  0  0  0  0
 15 31  1  0  0  0  0
 15 32  1  0  0  0  0
 16 17  1  0  0  0  0
 16 33  1  0  0  0  0
 16 34  1  0  0  0  0
 17 18  1  0  0  0  0
 17 35  1  0  0  0  0
 17 36  1  0  0  0  0
 18 37  1  0  0  0  0
 18 38  1  0  0  0  0
M  END
> <s_m_source_file>
AV-unprocessed.smi

> <i_m_source_file_index>
402

> <i_lp_mmshare_version>
43012

> <i_f3d_flags>
0

> <s_epik_input>
W0NIMl0xW0NIMl1bQ0gyXVtDSDJdW0NIMl1bQ0hdMVtDSDJdW05IXUMoPU8pW0NIMl1uMltjSF1bY0hdW2NIXVtjSF1jMj1P

> <s_epik_cmdline>
J2VwaWtfcHl0aG9uJywgJy1waCcsICc3LjAnLCAnLXRuJywgJzgnLCAnLW1hJywgJzIwMCcsICctbWV0YWxfYmluZGluZycsICctaW1hZScsICc8aW5maWxlLm1hZT4nLCAnLW9tYWUnLCAnPG91dGZpbGUubWFlPic=

> <r_lp_tautomer_probability>
1

> <r_epik_Ionization_Penalty>
3.79717e-07

> <r_epik_Ionization_Penalty_Charging>
3.5992e-07

> <r_epik_Ionization_Penalty_Neutral>
1.97978e-08

> <r_epik_State_Penalty>
-0

> <r_epik_Charging_Adjusted_Penalty>
3.5992e-07

> <i_epik_Tot_Q>
0

> <i_epik_Tot_abs_Q>
0

> <r_epik_Metal_State_Penalty>
-0

> <b_epik_Metal_Only>
0

> <s_lp_Force_Field>
OPLS_2005

> <r_lp_Energy>
19.8269

> <b_lp_Chiralities_Consistent>
1

> <s_lp_Variant>
AV-unprocessed.smi:402-1

> <Gold.Version>
5.8.1

> <Gold.Id.Protein>
6NUR|6NUR_protein|mol2

> <Gold.PLP.Fitness>
43.0298

> <Gold.PLP.PLP>
-34.7316

> <Gold.PLP.part.hbond>
-2.0000

> <Gold.PLP.part.metal>
0.0000

> <Gold.PLP.part.buried>
-5.4856

> <Gold.PLP.part.nonpolar>
-27.6858

> <Gold.PLP.part.repulsive>
0.2935

> <Gold.PLP.ligand.clash>
0.0000

> <Gold.PLP.ligand.torsion>
0.3578

> <Gold.PLP.Chemscore.Hbond>
2.0000

> <Gold.PLP.Chemscore.CHOScore>
1.0000

> <Gold.PLP.Chemscore.Metal>
0.0000

> <Gold.Chemscore.Hbonds>
donor molecule, donor type, donor heavy atom, donor atom, acceptor molecule, acceptor atom, score
      L1  H    11    25       P1  8028  0.98
      P1  H  7989  7998       L1     1  1.00
      L1  C     5    21       P1  7957  1.00

> <Gold.PLP.Chemscore.Internal.Correction>
0.0138

> <Gold.Rescore>
     Score         DG    S(hbond)    S(metal)    S(lipo)     H(rot)  DE(clash)    DE(int)     intcor
     16.71     -18.16       1.72        0.00      93.67       1.57       0.13       1.32       ----

> <Gold.Chemscore.Fitness>
16.7143

> <Gold.Chemscore.DG>
-18.1645

> <Gold.Chemscore.ZeroCoef>
-5.4800

> <Gold.Chemscore.Hbond>
1.7210

> <Gold.Chemscore.Metal>
0.0000

> <Gold.Chemscore.Lipo>
93.6700

> <Gold.Chemscore.Internal_Hbond>
0.0000

> <Gold.Chemscore.DEClash>
0.1341

> <Gold.Chemscore.DEInternal>
1.3161

> <Gold.Chemscore.Rot>
1.5715

> <Gold.Chemscore.Internal.Correction>
   9.000000E+99

> <Gold.Chemscore.Hbonds>
donor molecule, donor type, donor heavy atom, donor atom, acceptor molecule, acceptor atom, score
      L1  H    11    25       P1  8028  0.93
      P1  H  7989  7998       L1     1  0.58

> <Gold.Chemscore.Hbond.Weighted>
-5.7482

> <Gold.Chemscore.Metal.Weighted>
-0.0000

> <Gold.Chemscore.Lipo.Weighted>
-10.9594

> <Gold.Chemscore.Internal_Hbond.Weighted>
0.0000

> <Gold.Chemscore.DEClash.Weighted>
0.1341

> <Gold.Chemscore.DEInternal.Weighted>
1.3161

> <Gold.Chemscore.Rot.Weighted>
4.0231

> <Gold.Chemscore.Internal.Correction.Weighted>
   9.000000E+99

> <Gold.Protein.RotatedTorsions>
[ 6907 6896 6895 6894 ] final  161.24 input  -60.11 | X-H torsion
[ 7974 7965 7964 7962 ] final  142.36 input  175.53 | X-H torsion
[ 8008 7997 7996 7995 ] final  -38.55 input   59.86 | X-H torsion
[ 10167 10162 10161 10158 ] final -124.04 input  -65.29 | X-H torsion
[ 10718 10713 10712 10709 ] final  122.83 input   66.30 | X-H torsion
[ 10763 10752 10751 10750 ] final  -76.57 input  -60.55 | X-H torsion
[ 11005 11000 10999 10996 ] final  155.71 input  -57.11 | X-H torsion

> <Gold.Protein.ActiveResidues>
 VAL166  LYS551  ARG553  GLY616  TRP617  ASP618  TYR619  PRO620  LYS621  CYS622 
 ASP623  PHE694  ASN695  SER759  ASP760  ASP761  ALA762  ILE779  LEU786  VAL792 
 PHE793  MET794  SER795  GLU796  ALA797  LYS798  CYS799  TRP800  GLU811  SER814 

> <Gold.Protein.RotatedAtoms>
  151.9586  133.3688  159.4026 H   0  0  0  0  0  0  0  0  0  0  0  0  # atno 6907 bound_to 6896
  150.6968  134.4264  159.5238 H   0  0  0  0  0  0  0  0  0  0  0  0  # atno 6908 bound_to 6896
  152.1949  134.8639  160.0564 H   0  0  0  0  0  0  0  0  0  0  0  0  # atno 6909 bound_to 6896
  144.9015  139.5417  143.5751 H   0  0  0  0  0  0  0  0  0  0  0  0  # atno 7974 bound_to 7965
  154.4035  140.1575  156.2718 H   0  0  0  0  0  0  0  0  0  0  0  0  # atno 8008 bound_to 7997
  155.8947  140.3436  155.5960 H   0  0  0  0  0  0  0  0  0  0  0  0  # atno 8009 bound_to 7997
  155.7518  140.0806  157.2188 H   0  0  0  0  0  0  0  0  0  0  0  0  # atno 8010 bound_to 7997
  139.9971  143.5580  152.2319 H   0  0  0  0  0  0  0  0  0  0  0  0  # atno 10167 bound_to 10162
  157.5712  131.1083  150.8363 H   0  0  0  0  0  0  0  0  0  0  0  0  # atno 10718 bound_to 10713
  154.5016  135.5793  153.6535 H   0  0  0  0  0  0  0  0  0  0  0  0  # atno 10763 bound_to 10752
  152.9880  135.6137  154.2995 H   0  0  0  0  0  0  0  0  0  0  0  0  # atno 10764 bound_to 10752
  154.2903  135.2849  155.2637 H   0  0  0  0  0  0  0  0  0  0  0  0  # atno 10765 bound_to 10752
  140.1607  134.8611  157.2571 H   0  0  0  0  0  0  0  0  0  0  0  0  # atno 11005 bound_to 11000
  146.3111  139.7748  142.9019 LP  0  0  0  0  0  0  0  0  0  0  0  0  # atno 17320 bound_to 7965
  145.3609  141.0325  143.3285 LP  0  0  0  0  0  0  0  0  0  0  0  0  # atno 17321 bound_to 7965
  139.6298  144.7642  151.2560 LP  0  0  0  0  0  0  0  0  0  0  0  0  # atno 17342 bound_to 10162
  140.7433  143.6499  150.8258 LP  0  0  0  0  0  0  0  0  0  0  0  0  # atno 17343 bound_to 10162
  156.8834  130.5187  149.5289 LP  0  0  0  0  0  0  0  0  0  0  0  0  # atno 17370 bound_to 10713
  156.0757  130.5780  150.9470 LP  0  0  0  0  0  0  0  0  0  0  0  0  # atno 17371 bound_to 10713
  140.2493  134.3702  155.7448 LP  0  0  0  0  0  0  0  0  0  0  0  0  # atno 17394 bound_to 11000
  141.2209  133.7308  156.8910 LP  0  0  0  0  0  0  0  0  0  0  0  0  # atno 17395 bound_to 11000

$$$$
