AV-unprocessed.smi:2324|AV-procd|sdf|9291|dock9
  -GOLD-   2272012513D 1   1.00000     0.00000
 Structure written by MMmdl.
 37 39  0  0  0  0  0  0  0  0  1 V2000
  145.4062  138.0209  153.8573 O   0  0  0  0  0  0  0  0  0  0  0  0
  146.4024  137.5516  153.3095 C   0  0  0  0  0  0  0  0  0  0  0  0
  146.3241  136.4165  152.5828 N   0  0  0  0  0  0  0  0  0  0  0  0
  145.2254  135.5596  152.2813 C   0  0  0  0  0  0  0  0  0  0  0  0
  145.3899  134.7768  151.1184 C   0  0  0  0  0  0  0  0  0  0  0  0
  144.3547  133.9019  150.7474 C   0  0  0  0  0  0  0  0  0  0  0  0
  143.2159  133.8676  151.5696 C   0  0  0  0  0  0  0  0  0  0  0  0
  143.0983  134.6338  152.6752 N   0  0  0  0  0  0  0  0  0  0  0  0
  144.0882  135.4635  153.0206 N   0  0  0  0  0  0  0  0  0  0  0  0
  147.6149  138.1234  153.3967 N   0  0  0  0  0  0  0  0  0  0  0  0
  147.9236  139.3470  154.1297 C   0  0  2  0  0  0  0  0  0  0  0  0
  147.2984  140.5531  153.4166 C   0  0  0  0  0  0  0  0  0  0  0  0
  147.7066  141.8625  154.1084 C   0  0  0  0  0  0  0  0  0  0  0  0
  149.1273  141.9755  154.1650 O   0  0  0  0  0  0  0  0  0  0  0  0
  149.7977  140.9196  154.8559 C   0  0  1  0  0  0  0  0  0  0  0  0
  149.5520  140.9758  156.3579 C   0  0  0  0  0  0  0  0  0  0  0  0
  150.2828  141.9773  157.2208 C   0  0  0  0  0  0  0  0  0  0  0  0
  150.6100  140.5071  157.3290 C   0  0  0  0  0  0  0  0  0  0  0  0
  149.4445  139.5553  154.2320 C   0  0  0  0  0  0  0  0  0  0  0  0
  147.2021  136.1215  152.1809 H   0  0  0  0  0  0  0  0  0  0  0  0
  146.2885  134.8422  150.5220 H   0  0  0  0  0  0  0  0  0  0  0  0
  144.4309  133.2809  149.8672 H   0  0  0  0  0  0  0  0  0  0  0  0
  142.3865  133.2154  151.3395 H   0  0  0  0  0  0  0  0  0  0  0  0
  148.3829  137.6733  152.9187 H   0  0  0  0  0  0  0  0  0  0  0  0
  147.4952  139.2778  155.1310 H   0  0  0  0  0  0  0  0  0  0  0  0
  147.6246  140.5806  152.3759 H   0  0  0  0  0  0  0  0  0  0  0  0
  146.2116  140.4629  153.4007 H   0  0  0  0  0  0  0  0  0  0  0  0
  147.3150  142.7129  153.5504 H   0  0  0  0  0  0  0  0  0  0  0  0
  147.2751  141.9248  155.1075 H   0  0  0  0  0  0  0  0  0  0  0  0
  150.8641  141.0872  154.6997 H   0  0  0  0  0  0  0  0  0  0  0  0
  148.5280  140.7608  156.6549 H   0  0  0  0  0  0  0  0  0  0  0  0
  151.0171  142.6209  156.7404 H   0  0  0  0  0  0  0  0  0  0  0  0
  149.7290  142.4321  158.0395 H   0  0  0  0  0  0  0  0  0  0  0  0
  150.2734  139.9798  158.2191 H   0  0  0  0  0  0  0  0  0  0  0  0
  151.5613  140.1720  156.9206 H   0  0  0  0  0  0  0  0  0  0  0  0
  149.9061  138.7508  154.8059 H   0  0  0  0  0  0  0  0  0  0  0  0
  149.8802  139.5064  153.2329 H   0  0  0  0  0  0  0  0  0  0  0  0
  1  2  2  0  0  0  0
  2  3  1  0  0  0  0
  2 10  1  0  0  0  0
  3  4  1  0  0  0  0
  3 20  1  0  0  0  0
  4  9  1  0  0  0  0
  4  5  2  0  0  0  0
  5  6  1  0  0  0  0
  5 21  1  0  0  0  0
  6  7  2  0  0  0  0
  6 22  1  0  0  0  0
  7  8  1  0  0  0  0
  7 23  1  0  0  0  0
  8  9  2  0  0  0  0
 10 11  1  0  0  0  0
 10 24  1  0  0  0  0
 11 19  1  0  0  0  0
 11 12  1  0  0  0  0
 11 25  1  0  0  0  0
 12 13  1  0  0  0  0
 12 26  1  0  0  0  0
 12 27  1  0  0  0  0
 13 14  1  0  0  0  0
 13 28  1  0  0  0  0
 13 29  1  0  0  0  0
 14 15  1  0  0  0  0
 15 16  1  0  0  0  0
 15 19  1  0  0  0  0
 15 30  1  0  0  0  0
 16 18  1  0  0  0  0
 16 17  1  0  0  0  0
 16 31  1  0  0  0  0
 17 18  1  0  0  0  0
 17 32  1  0  0  0  0
 17 33  1  0  0  0  0
 18 34  1  0  0  0  0
 18 35  1  0  0  0  0
 19 36  1  0  0  0  0
 19 37  1  0  0  0  0
M  END
> <s_m_source_file>
AV-unprocessed.smi

> <i_m_source_file_index>
2324

> <i_lp_mmshare_version>
43012

> <i_f3d_flags>
0

> <s_epik_input>
bjFuW2NIXVtjSF1bY0hdYzFbTkhdQyg9TylbTkhdW0NAQEhdMltDSDJdW0NIMl1PW0NASF0oW0NIMl0yKVtDSF0zW0NIMl1bQ0gyXTM=

> <s_epik_cmdline>
J2VwaWtfcHl0aG9uJywgJy1waCcsICc3LjAnLCAnLXRuJywgJzgnLCAnLW1hJywgJzIwMCcsICctbWV0YWxfYmluZGluZycsICctaW1hZScsICc8aW5maWxlLm1hZT4nLCAnLW9tYWUnLCAnPG91dGZpbGUubWFlPic=

> <r_lp_tautomer_probability>
1

> <r_epik_Ionization_Penalty>
0.00521499

> <r_epik_Ionization_Penalty_Charging>
0

> <r_epik_Ionization_Penalty_Neutral>
0.00521499

> <r_epik_State_Penalty>
-0

> <r_epik_Charging_Adjusted_Penalty>
0

> <i_epik_Tot_Q>
0

> <i_epik_Tot_abs_Q>
0

> <r_epik_Metal_State_Penalty>
-0

> <b_epik_Metal_Only>
0

> <s_lp_Force_Field>
OPLS_2005

> <r_lp_Energy>
28.1305

> <b_lp_Chiralities_Consistent>
1

> <s_lp_Variant>
AV-unprocessed.smi:2324-1

> <Gold.Version>
5.8.1

> <Gold.Id.Protein>
6NUR|6NUR_protein|mol2

> <Gold.PLP.Fitness>
36.5363

> <Gold.PLP.PLP>
-28.2430

> <Gold.PLP.part.hbond>
-3.4541

> <Gold.PLP.part.metal>
0.0000

> <Gold.PLP.part.buried>
-0.4926

> <Gold.PLP.part.nonpolar>
-24.4973

> <Gold.PLP.part.repulsive>
0.7322

> <Gold.PLP.ligand.clash>
0.0000

> <Gold.PLP.ligand.torsion>
0.7597

> <Gold.PLP.Chemscore.Hbond>
2.3760

> <Gold.PLP.Chemscore.CHOScore>
0.5355

> <Gold.PLP.Chemscore.Metal>
0.0000

> <Gold.Chemscore.Hbonds>
donor molecule, donor type, donor heavy atom, donor atom, acceptor molecule, acceptor atom, score
      L1  H     3    20       P1  7948  1.00
      L1  H    10    24       P1  7948  0.96
      P1  H  8011  8017       L1    14  0.42
      L1  C     7    23       P1 10186  0.51

> <Gold.PLP.Chemscore.Internal.Correction>
1.0781

> <Gold.Rescore>
     Score         DG    S(hbond)    S(metal)    S(lipo)     H(rot)  DE(clash)    DE(int)     intcor
     15.49     -17.95       2.29        0.00      68.56       1.25       0.52       1.93       ----

> <Gold.Chemscore.Fitness>
15.4909

> <Gold.Chemscore.DG>
-17.9473

> <Gold.Chemscore.ZeroCoef>
-5.4800

> <Gold.Chemscore.Hbond>
2.2872

> <Gold.Chemscore.Metal>
0.0000

> <Gold.Chemscore.Lipo>
68.5622

> <Gold.Chemscore.Internal_Hbond>
0.0000

> <Gold.Chemscore.DEClash>
0.5226

> <Gold.Chemscore.DEInternal>
1.9338

> <Gold.Chemscore.Rot>
1.2476

> <Gold.Chemscore.Internal.Correction>
   9.000000E+99

> <Gold.Chemscore.Hbonds>
donor molecule, donor type, donor heavy atom, donor atom, acceptor molecule, acceptor atom, score
      L1  H     3    20       P1  7948  0.99
      L1  H    10    24       P1  7948  0.92
      P1  H  8011  8017       L1    14  0.24

> <Gold.Chemscore.Hbond.Weighted>
-7.6393

> <Gold.Chemscore.Metal.Weighted>
-0.0000

> <Gold.Chemscore.Lipo.Weighted>
-8.0218

> <Gold.Chemscore.Internal_Hbond.Weighted>
0.0000

> <Gold.Chemscore.DEClash.Weighted>
0.5226

> <Gold.Chemscore.DEInternal.Weighted>
1.9338

> <Gold.Chemscore.Rot.Weighted>
3.1938

> <Gold.Chemscore.Internal.Correction.Weighted>
   9.000000E+99

> <Gold.Protein.RotatedTorsions>
[ 6907 6896 6895 6894 ] final   13.45 input  -60.11 | X-H torsion
[ 7974 7965 7964 7962 ] final   26.02 input  175.53 | X-H torsion
[ 8008 7997 7996 7995 ] final  173.34 input   59.86 | X-H torsion
[ 10167 10162 10161 10158 ] final  155.52 input  -65.29 | X-H torsion
[ 10718 10713 10712 10709 ] final   30.32 input   66.30 | X-H torsion
[ 10763 10752 10751 10750 ] final   -3.77 input  -60.55 | X-H torsion
[ 11005 11000 10999 10996 ] final  -67.81 input  -57.11 | X-H torsion

> <Gold.Protein.ActiveResidues>
 VAL166  LYS551  ARG553  GLY616  TRP617  ASP618  TYR619  PRO620  LYS621  CYS622 
 ASP623  PHE694  ASN695  SER759  ASP760  ASP761  ALA762  ILE779  LEU786  VAL792 
 PHE793  MET794  SER795  GLU796  ALA797  LYS798  CYS799  TRP800  GLU811  SER814 

> <Gold.Protein.RotatedAtoms>
  151.7865  135.0747  160.0380 H   0  0  0  0  0  0  0  0  0  0  0  0  # atno 6907 bound_to 6896
  152.3187  133.5825  159.5738 H   0  0  0  0  0  0  0  0  0  0  0  0  # atno 6908 bound_to 6896
  150.7358  133.9960  159.3664 H   0  0  0  0  0  0  0  0  0  0  0  0  # atno 6909 bound_to 6896
  146.1859  139.7385  142.8867 H   0  0  0  0  0  0  0  0  0  0  0  0  # atno 7974 bound_to 7965
  156.1085  140.1462  156.9371 H   0  0  0  0  0  0  0  0  0  0  0  0  # atno 8008 bound_to 7997
  154.4750  140.0897  156.7284 H   0  0  0  0  0  0  0  0  0  0  0  0  # atno 8009 bound_to 7997
  155.4638  140.3439  155.4318 H   0  0  0  0  0  0  0  0  0  0  0  0  # atno 8010 bound_to 7997
  139.4821  144.5091  151.8053 H   0  0  0  0  0  0  0  0  0  0  0  0  # atno 10167 bound_to 10162
  157.2581  130.7148  149.6439 H   0  0  0  0  0  0  0  0  0  0  0  0  # atno 10718 bound_to 10713
  153.3758  135.6996  153.6603 H   0  0  0  0  0  0  0  0  0  0  0  0  # atno 10763 bound_to 10752
  153.5235  135.3607  155.2643 H   0  0  0  0  0  0  0  0  0  0  0  0  # atno 10764 bound_to 10752
  154.8687  135.4163  154.3045 H   0  0  0  0  0  0  0  0  0  0  0  0  # atno 10765 bound_to 10752
  141.1517  133.6727  156.6349 H   0  0  0  0  0  0  0  0  0  0  0  0  # atno 11005 bound_to 11000
  145.3941  141.0376  143.3107 LP  0  0  0  0  0  0  0  0  0  0  0  0  # atno 17320 bound_to 7965
  144.8396  139.5494  143.6906 LP  0  0  0  0  0  0  0  0  0  0  0  0  # atno 17321 bound_to 7965
  140.4592  144.1746  150.5904 LP  0  0  0  0  0  0  0  0  0  0  0  0  # atno 17342 bound_to 10162
  140.4503  143.2489  151.9357 LP  0  0  0  0  0  0  0  0  0  0  0  0  # atno 17343 bound_to 10162
  155.9664  130.4406  150.5307 LP  0  0  0  0  0  0  0  0  0  0  0  0  # atno 17370 bound_to 10713
  157.3205  131.0681  151.1935 LP  0  0  0  0  0  0  0  0  0  0  0  0  # atno 17371 bound_to 10713
  140.3438  134.7827  157.4417 LP  0  0  0  0  0  0  0  0  0  0  0  0  # atno 17394 bound_to 11000
  140.0916  134.5593  155.8438 LP  0  0  0  0  0  0  0  0  0  0  0  0  # atno 17395 bound_to 11000

$$$$
