AV-unprocessed.smi:2079|AV-procd|sdf|8477|dock9
  -GOLD-   2272011183D 1   1.00000     0.00000
 Structure written by MMmdl.
 42 43  0  0  0  0  0  0  0  0  2 V2000
  152.3409  139.6675  156.0816 C   0  0  0  0  0  0  0  0  0  0  0  0
  151.8212  138.3481  155.6231 C   0  0  0  0  0  0  0  0  0  0  0  0
  150.8112  137.9899  154.7749 C   0  0  0  0  0  0  0  0  0  0  0  0
  150.8616  136.5707  154.7994 C   0  0  0  0  0  0  0  0  0  0  0  0
  149.9513  135.7963  154.0357 N   0  0  0  0  0  0  0  0  0  0  0  0
  149.4340  134.5965  154.3505 C   0  0  0  0  0  0  0  0  0  0  0  0
  149.6779  133.9647  155.3789 O   0  0  0  0  0  0  0  0  0  0  0  0
  148.6050  134.1534  153.3940 N   0  0  0  0  0  0  0  0  0  0  0  0
  147.8790  132.8897  153.4445 C   0  0  0  0  0  0  0  0  0  0  0  0
  146.3606  133.1039  153.2838 C   0  0  0  0  0  0  0  0  0  0  0  0
  145.8200  132.5700  152.0047 N   0  3  2  0  0  0  0  0  0  0  0  0
  146.6151  133.0257  150.8319 C   0  0  0  0  0  0  0  0  0  0  0  0
  146.1913  132.2959  149.5477 C   0  0  0  0  0  0  0  0  0  0  0  0
  144.6901  132.4627  149.2881 C   0  0  0  0  0  0  0  0  0  0  0  0
  143.8948  132.0034  150.5176 C   0  0  0  0  0  0  0  0  0  0  0  0
  144.3437  132.7248  151.8067 C   0  0  2  0  0  0  0  0  0  0  0  0
  143.8629  134.1914  151.8514 C   0  0  0  0  0  0  0  0  0  0  0  0
  151.8190  136.1047  155.5868 N   0  0  0  0  0  0  0  0  0  0  0  0
  152.4381  137.2415  156.1197 O   0  0  0  0  0  0  0  0  0  0  0  0
  151.9485  140.4761  155.4648 H   0  0  0  0  0  0  0  0  0  0  0  0
  153.4294  139.6965  156.0250 H   0  0  0  0  0  0  0  0  0  0  0  0
  152.0501  139.8583  157.1146 H   0  0  0  0  0  0  0  0  0  0  0  0
  150.1442  138.6409  154.2292 H   0  0  0  0  0  0  0  0  0  0  0  0
  149.6603  136.2024  153.1587 H   0  0  0  0  0  0  0  0  0  0  0  0
  148.4589  134.7336  152.5804 H   0  0  0  0  0  0  0  0  0  0  0  0
  148.2561  132.2108  152.6776 H   0  0  0  0  0  0  0  0  0  0  0  0
  148.1071  132.4346  154.4077 H   0  0  0  0  0  0  0  0  0  0  0  0
  145.8202  132.6819  154.1314 H   0  0  0  0  0  0  0  0  0  0  0  0
  146.1614  134.1761  153.3079 H   0  0  0  0  0  0  0  0  0  0  0  0
  146.5155  134.1045  150.7078 H   0  0  0  0  0  0  0  0  0  0  0  0
  147.6737  132.8324  151.0099 H   0  0  0  0  0  0  0  0  0  0  0  0
  146.7613  132.6743  148.6985 H   0  0  0  0  0  0  0  0  0  0  0  0
  146.4324  131.2355  149.6337 H   0  0  0  0  0  0  0  0  0  0  0  0
  144.4643  133.5050  149.0609 H   0  0  0  0  0  0  0  0  0  0  0  0
  144.3939  131.8839  148.4128 H   0  0  0  0  0  0  0  0  0  0  0  0
  142.8279  132.1537  150.3496 H   0  0  0  0  0  0  0  0  0  0  0  0
  144.0304  130.9283  150.6446 H   0  0  0  0  0  0  0  0  0  0  0  0
  143.8433  132.2029  152.6213 H   0  0  0  0  0  0  0  0  0  0  0  0
  142.7874  134.2476  151.6817 H   0  0  0  0  0  0  0  0  0  0  0  0
  144.3416  134.8094  151.0924 H   0  0  0  0  0  0  0  0  0  0  0  0
  144.0497  134.6500  152.8220 H   0  0  0  0  0  0  0  0  0  0  0  0
  145.9767  131.5732  152.0514 H   0  0  0  0  0  0  0  0  0  0  0  0
  1  2  1  0  0  0  0
  1 20  1  0  0  0  0
  1 21  1  0  0  0  0
  1 22  1  0  0  0  0
  2 19  1  0  0  0  0
  2  3  2  0  0  0  0
  3  4  1  0  0  0  0
  3 23  1  0  0  0  0
  4  5  1  0  0  0  0
  4 18  2  0  0  0  0
  5  6  1  0  0  0  0
  5 24  1  0  0  0  0
  6  7  2  0  0  0  0
  6  8  1  0  0  0  0
  8  9  1  0  0  0  0
  8 25  1  0  0  0  0
  9 10  1  0  0  0  0
  9 26  1  0  0  0  0
  9 27  1  0  0  0  0
 10 11  1  0  0  0  0
 10 28  1  0  0  0  0
 10 29  1  0  0  0  0
 11 16  1  0  0  0  0
 11 12  1  0  0  0  0
 11 42  1  0  0  0  0
 12 13  1  0  0  0  0
 12 30  1  0  0  0  0
 12 31  1  0  0  0  0
 13 14  1  0  0  0  0
 13 32  1  0  0  0  0
 13 33  1  0  0  0  0
 14 15  1  0  0  0  0
 14 34  1  0  0  0  0
 14 35  1  0  0  0  0
 15 16  1  0  0  0  0
 15 36  1  0  0  0  0
 15 37  1  0  0  0  0
 16 17  1  0  0  0  0
 16 38  1  0  0  0  0
 17 39  1  0  0  0  0
 17 40  1  0  0  0  0
 17 41  1  0  0  0  0
 18 19  1  0  0  0  0
M  CHG  1  11   1
M  END
> <s_m_source_file>
AV-unprocessed.smi

> <i_m_source_file_index>
2079

> <i_lp_mmshare_version>
43012

> <i_f3d_flags>
0

> <s_epik_input>
W0NIM11jMVtjSF1jKG5vMSlbTkhdQyg9TylbTkhdW0NIMl1bQ0gyXU4yW0NIMl1bQ0gyXVtDSDJdW0NIMl1bQ0BIXTJbQ0gzXQ==

> <s_epik_cmdline>
J2VwaWtfcHl0aG9uJywgJy1waCcsICc3LjAnLCAnLXRuJywgJzgnLCAnLW1hJywgJzIwMCcsICctbWV0YWxfYmluZGluZycsICctaW1hZScsICc8aW5maWxlLm1hZT4nLCAnLW9tYWUnLCAnPG91dGZpbGUubWFlPic=

> <r_epik_Ionization_Penalty>
0.00265971

> <r_epik_Ionization_Penalty_Charging>
0.00262393

> <r_epik_Ionization_Penalty_Neutral>
3.57846e-05

> <r_epik_State_Penalty>
0.00182566

> <r_epik_Charging_Adjusted_Penalty>
0.00444959

> <i_epik_Tot_Q>
1

> <i_epik_Tot_abs_Q>
1

> <r_epik_Metal_State_Penalty>
0.0216344

> <b_epik_Metal_Only>
0

> <s_lp_Force_Field>
OPLS_2005

> <r_lp_Energy>
16.7127

> <b_lp_Chiralities_Consistent>
1

> <s_lp_Variant>
AV-unprocessed.smi:2079-3

> <Gold.Version>
5.8.1

> <Gold.Id.Protein>
6NUR|6NUR_protein|mol2

> <Gold.PLP.Fitness>
39.1462

> <Gold.PLP.PLP>
-31.7190

> <Gold.PLP.part.hbond>
-4.4088

> <Gold.PLP.part.metal>
0.0000

> <Gold.PLP.part.buried>
1.1488

> <Gold.PLP.part.nonpolar>
-26.7551

> <Gold.PLP.part.repulsive>
0.1405

> <Gold.PLP.ligand.clash>
0.0000

> <Gold.PLP.ligand.torsion>
0.6181

> <Gold.PLP.Chemscore.Hbond>
2.8713

> <Gold.PLP.Chemscore.CHOScore>
0.0000

> <Gold.PLP.Chemscore.Metal>
0.0000

> <Gold.Chemscore.Hbonds>
donor molecule, donor type, donor heavy atom, donor atom, acceptor molecule, acceptor atom, score
      L1  H     5    24       P1  7948  0.65
      L1  H     8    25       P1  7948  0.81
      P1  H 10752 10764       L1    18  1.00

> <Gold.PLP.Chemscore.Internal.Correction>
0.0496

> <Gold.Rescore>
     Score         DG    S(hbond)    S(metal)    S(lipo)     H(rot)  DE(clash)    DE(int)     intcor
     16.98     -17.96       2.38        0.00      73.19       1.57       0.22       0.76       ----

> <Gold.Chemscore.Fitness>
16.9843

> <Gold.Chemscore.DG>
-17.9571

> <Gold.Chemscore.ZeroCoef>
-5.4800

> <Gold.Chemscore.Hbond>
2.3751

> <Gold.Chemscore.Metal>
0.0000

> <Gold.Chemscore.Lipo>
73.1856

> <Gold.Chemscore.Internal_Hbond>
0.0000

> <Gold.Chemscore.DEClash>
0.2167

> <Gold.Chemscore.DEInternal>
0.7561

> <Gold.Chemscore.Rot>
1.5697

> <Gold.Chemscore.Internal.Correction>
   9.000000E+99

> <Gold.Chemscore.Hbonds>
donor molecule, donor type, donor heavy atom, donor atom, acceptor molecule, acceptor atom, score
      L1  H     5    24       P1  7948  0.11
      L1  H     8    25       P1  7948  0.18
      P1  H 10752 10764       L1    18  0.14

> <Gold.Chemscore.Hbond.Weighted>
-7.9328

> <Gold.Chemscore.Metal.Weighted>
-0.0000

> <Gold.Chemscore.Lipo.Weighted>
-8.5627

> <Gold.Chemscore.Internal_Hbond.Weighted>
0.0000

> <Gold.Chemscore.DEClash.Weighted>
0.2167

> <Gold.Chemscore.DEInternal.Weighted>
0.7561

> <Gold.Chemscore.Rot.Weighted>
4.0185

> <Gold.Chemscore.Internal.Correction.Weighted>
   9.000000E+99

> <Gold.Protein.RotatedTorsions>
[ 6907 6896 6895 6894 ] final   10.13 input  -60.11 | X-H torsion
[ 7974 7965 7964 7962 ] final   21.62 input  175.53 | X-H torsion
[ 8008 7997 7996 7995 ] final   78.29 input   59.86 | X-H torsion
[ 10167 10162 10161 10158 ] final -164.57 input  -65.29 | X-H torsion
[ 10718 10713 10712 10709 ] final -130.40 input   66.30 | X-H torsion
[ 10763 10752 10751 10750 ] final  -61.17 input  -60.55 | X-H torsion
[ 11005 11000 10999 10996 ] final -138.30 input  -57.11 | X-H torsion

> <Gold.Protein.ActiveResidues>
 VAL166  LYS551  ARG553  GLY616  TRP617  ASP618  TYR619  PRO620  LYS621  CYS622 
 ASP623  PHE694  ASN695  SER759  ASP760  ASP761  ALA762  ILE779  LEU786  VAL792 
 PHE793  MET794  SER795  GLU796  ALA797  LYS798  CYS799  TRP800  GLU811  SER814 

> <Gold.Protein.RotatedAtoms>
  151.7332  135.0870  160.0303 H   0  0  0  0  0  0  0  0  0  0  0  0  # atno 6907 bound_to 6896
  152.3527  133.6195  159.5965 H   0  0  0  0  0  0  0  0  0  0  0  0  # atno 6908 bound_to 6896
  150.7551  133.9464  159.3514 H   0  0  0  0  0  0  0  0  0  0  0  0  # atno 6909 bound_to 6896
  146.2063  139.8001  142.8723 H   0  0  0  0  0  0  0  0  0  0  0  0  # atno 7974 bound_to 7965
  155.8536  140.3457  155.5709 H   0  0  0  0  0  0  0  0  0  0  0  0  # atno 8008 bound_to 7997
  155.8011  140.0885  157.1976 H   0  0  0  0  0  0  0  0  0  0  0  0  # atno 8009 bound_to 7997
  154.4008  140.1465  156.3263 H   0  0  0  0  0  0  0  0  0  0  0  0  # atno 8010 bound_to 7997
  139.6241  144.0566  152.1959 H   0  0  0  0  0  0  0  0  0  0  0  0  # atno 10167 bound_to 10162
  156.2141  130.6937  151.0682 H   0  0  0  0  0  0  0  0  0  0  0  0  # atno 10718 bound_to 10713
  154.2805  135.6273  153.5345 H   0  0  0  0  0  0  0  0  0  0  0  0  # atno 10763 bound_to 10752
  152.9866  135.5632  154.5501 H   0  0  0  0  0  0  0  0  0  0  0  0  # atno 10764 bound_to 10752
  154.5090  135.2876  155.1334 H   0  0  0  0  0  0  0  0  0  0  0  0  # atno 10765 bound_to 10752
  140.8629  134.2146  157.4697 H   0  0  0  0  0  0  0  0  0  0  0  0  # atno 11005 bound_to 11000
  145.3306  141.0265  143.3449 LP  0  0  0  0  0  0  0  0  0  0  0  0  # atno 17320 bound_to 7965
  144.8802  139.4915  143.6727 LP  0  0  0  0  0  0  0  0  0  0  0  0  # atno 17321 bound_to 7965
  140.0215  144.6149  150.7563 LP  0  0  0  0  0  0  0  0  0  0  0  0  # atno 17342 bound_to 10162
  140.7400  143.2799  151.3629 LP  0  0  0  0  0  0  0  0  0  0  0  0  # atno 17343 bound_to 10162
  157.7054  131.0758  150.6685 LP  0  0  0  0  0  0  0  0  0  0  0  0  # atno 17370 bound_to 10713
  156.6745  130.4549  149.5646 LP  0  0  0  0  0  0  0  0  0  0  0  0  # atno 17371 bound_to 10713
  139.8708  134.9738  156.4823 LP  0  0  0  0  0  0  0  0  0  0  0  0  # atno 17394 bound_to 11000
  140.8662  133.8023  155.9316 LP  0  0  0  0  0  0  0  0  0  0  0  0  # atno 17395 bound_to 11000

$$$$
