AV-unprocessed.smi:1810|AV-procd|sdf|7333|dock8
  -GOLD-   22720 8593D 1   1.00000     0.00000
 Structure written by MMmdl.
 40 41  0  0  0  0  0  0  0  0  1 V2000
  150.2223  144.1324  158.9036 C   0  0  0  0  0  0  0  0  0  0  0  0
  151.1781  142.9701  158.9351 C   0  0  0  0  0  0  0  0  0  0  0  0
  151.0818  142.1125  157.9727 N   0  0  0  0  0  0  0  0  0  0  0  0
  151.9113  141.0106  157.9060 N   0  0  0  0  0  0  0  0  0  0  0  0
  151.6536  140.1377  156.7556 C   0  0  0  0  0  0  0  0  0  0  0  0
  150.6192  140.7531  155.8008 C   0  0  0  0  0  0  0  0  0  0  0  0
  149.3256  140.5892  156.3655 O   0  0  0  0  0  0  0  0  0  0  0  0
  148.2840  141.3180  155.8321 C   0  0  0  0  0  0  0  0  0  0  0  0
  148.2142  141.7346  154.4777 C   0  0  0  0  0  0  0  0  0  0  0  0
  147.1118  142.4797  154.0162 C   0  0  0  0  0  0  0  0  0  0  0  0
  146.0713  142.8123  154.9039 C   0  0  0  0  0  0  0  0  0  0  0  0
  144.6780  143.7599  154.3040 S   0  0  0  0  0  0  0  0  0  0  0  0
  143.4691  142.5482  154.1303 N   0  0  0  0  0  0  0  0  0  0  0  0
  144.2415  144.6699  155.3741 O   0  0  0  0  0  0  0  0  0  0  0  0
  144.9886  144.2725  152.9605 O   0  0  0  0  0  0  0  0  0  0  0  0
  146.1260  142.4057  156.2509 C   0  0  0  0  0  0  0  0  0  0  0  0
  147.2314  141.6619  156.7067 C   0  0  0  0  0  0  0  0  0  0  0  0
  152.8849  140.7147  158.8134 C   0  0  0  0  0  0  0  0  0  0  0  0
  153.5995  139.7159  158.7166 O   0  0  0  0  0  0  0  0  0  0  0  0
  152.9885  141.6899  159.9014 C   0  0  0  0  0  0  0  0  0  0  0  0
  153.9955  141.4172  160.8756 C   0  0  0  0  0  0  0  0  0  0  0  0
  154.8263  141.2050  161.6532 N   0  0  0  0  0  0  0  0  0  0  0  0
  152.1802  142.7768  159.9783 C   0  0  0  0  0  0  0  0  0  0  0  0
  152.2466  143.8185  161.0869 C   0  0  0  0  0  0  0  0  0  0  0  0
  150.7632  145.0780  158.8634 H   0  0  0  0  0  0  0  0  0  0  0  0
  149.5928  144.1395  159.7935 H   0  0  0  0  0  0  0  0  0  0  0  0
  149.5632  144.0937  158.0350 H   0  0  0  0  0  0  0  0  0  0  0  0
  152.5825  139.9555  156.2117 H   0  0  0  0  0  0  0  0  0  0  0  0
  151.3166  139.1551  157.0905 H   0  0  0  0  0  0  0  0  0  0  0  0
  150.8323  141.8128  155.6521 H   0  0  0  0  0  0  0  0  0  0  0  0
  150.6707  140.2546  154.8315 H   0  0  0  0  0  0  0  0  0  0  0  0
  148.9948  141.4962  153.7715 H   0  0  0  0  0  0  0  0  0  0  0  0
  147.0678  142.7936  152.9836 H   0  0  0  0  0  0  0  0  0  0  0  0
  143.7027  141.6940  154.6358 H   0  0  0  0  0  0  0  0  0  0  0  0
  143.2234  142.3851  153.1542 H   0  0  0  0  0  0  0  0  0  0  0  0
  145.3309  142.6589  156.9364 H   0  0  0  0  0  0  0  0  0  0  0  0
  147.2721  141.3508  157.7404 H   0  0  0  0  0  0  0  0  0  0  0  0
  153.0152  143.5890  161.8244 H   0  0  0  0  0  0  0  0  0  0  0  0
  151.2942  143.8771  161.6151 H   0  0  0  0  0  0  0  0  0  0  0  0
  152.4731  144.8020  160.6740 H   0  0  0  0  0  0  0  0  0  0  0  0
  1  2  1  0  0  0  0
  1 25  1  0  0  0  0
  1 26  1  0  0  0  0
  1 27  1  0  0  0  0
  2 23  1  0  0  0  0
  2  3  2  0  0  0  0
  3  4  1  0  0  0  0
  4  5  1  0  0  0  0
  4 18  1  0  0  0  0
  5  6  1  0  0  0  0
  5 28  1  0  0  0  0
  5 29  1  0  0  0  0
  6  7  1  0  0  0  0
  6 30  1  0  0  0  0
  6 31  1  0  0  0  0
  7  8  1  0  0  0  0
  8 17  1  0  0  0  0
  8  9  2  0  0  0  0
  9 10  1  0  0  0  0
  9 32  1  0  0  0  0
 10 11  2  0  0  0  0
 10 33  1  0  0  0  0
 11 12  1  0  0  0  0
 11 16  1  0  0  0  0
 12 13  1  0  0  0  0
 12 14  2  0  0  0  0
 12 15  2  0  0  0  0
 13 34  1  0  0  0  0
 13 35  1  0  0  0  0
 16 17  2  0  0  0  0
 16 36  1  0  0  0  0
 17 37  1  0  0  0  0
 18 19  2  0  0  0  0
 18 20  1  0  0  0  0
 20 21  1  0  0  0  0
 20 23  2  0  0  0  0
 21 22  3  0  0  0  0
 23 24  1  0  0  0  0
 24 38  1  0  0  0  0
 24 39  1  0  0  0  0
 24 40  1  0  0  0  0
M  END
> <s_m_source_file>
AV-unprocessed.smi

> <i_m_source_file_index>
1810

> <i_lp_mmshare_version>
43012

> <i_f3d_flags>
0

> <s_epik_input>
TiNDYyhjMVtDSDNdKWMoPU8pbihuYzFbQ0gzXSlbQ0gyXVtDSDJdT2MyW2NIXVtjSF1jKFMoPU8pKD1PKVtOSDJdKVtjSF1bY0hdMg==

> <s_epik_cmdline>
J2VwaWtfcHl0aG9uJywgJy1waCcsICc3LjAnLCAnLXRuJywgJzgnLCAnLW1hJywgJzIwMCcsICctbWV0YWxfYmluZGluZycsICctaW1hZScsICc8aW5maWxlLm1hZT4nLCAnLW9tYWUnLCAnPG91dGZpbGUubWFlPic=

> <r_lp_tautomer_probability>
1

> <r_epik_Ionization_Penalty>
0.000347403

> <r_epik_Ionization_Penalty_Charging>
5.27838e-11

> <r_epik_Ionization_Penalty_Neutral>
0.000347403

> <r_epik_State_Penalty>
0.00021091

> <r_epik_Charging_Adjusted_Penalty>
0.000210911

> <i_epik_Tot_Q>
0

> <i_epik_Tot_abs_Q>
0

> <r_epik_Metal_State_Penalty>
0.18648

> <b_epik_Metal_Only>
0

> <s_lp_Force_Field>
OPLS_2005

> <r_lp_Energy>
32.1268

> <b_lp_Chiralities_Consistent>
1

> <s_lp_Variant>
AV-unprocessed.smi:1810-1

> <Gold.Version>
5.8.1

> <Gold.Id.Protein>
6NUR|6NUR_protein|mol2

> <Gold.PLP.Fitness>
47.7246

> <Gold.PLP.PLP>
-42.8009

> <Gold.PLP.part.hbond>
-3.0000

> <Gold.PLP.part.metal>
0.0000

> <Gold.PLP.part.buried>
-4.8491

> <Gold.PLP.part.nonpolar>
-34.8999

> <Gold.PLP.part.repulsive>
0.3270

> <Gold.PLP.ligand.clash>
0.0000

> <Gold.PLP.ligand.torsion>
1.5322

> <Gold.PLP.Chemscore.Hbond>
2.0000

> <Gold.PLP.Chemscore.CHOScore>
0.0000

> <Gold.PLP.Chemscore.Metal>
0.0000

> <Gold.Chemscore.Hbonds>
donor molecule, donor type, donor heavy atom, donor atom, acceptor molecule, acceptor atom, score
      L1  H    13    35       P1 10174  0.02
      P1  H  7997  8008       L1    19  0.93

> <Gold.PLP.Chemscore.Internal.Correction>
1.9881

> <Gold.Rescore>
     Score         DG    S(hbond)    S(metal)    S(lipo)     H(rot)  DE(clash)    DE(int)     intcor
     14.03     -15.88       1.83        0.00      80.23       1.99       0.14       1.71       ----

> <Gold.Chemscore.Fitness>
14.0319

> <Gold.Chemscore.DG>
-15.8822

> <Gold.Chemscore.ZeroCoef>
-5.4800

> <Gold.Chemscore.Hbond>
1.8313

> <Gold.Chemscore.Metal>
0.0000

> <Gold.Chemscore.Lipo>
80.2257

> <Gold.Chemscore.Internal_Hbond>
0.0000

> <Gold.Chemscore.DEClash>
0.1369

> <Gold.Chemscore.DEInternal>
1.7134

> <Gold.Chemscore.Rot>
1.9925

> <Gold.Chemscore.Internal.Correction>
   9.000000E+99

> <Gold.Chemscore.Hbonds>
donor molecule, donor type, donor heavy atom, donor atom, acceptor molecule, acceptor atom, score
      P1  H  7997  8008       L1    19  0.25

> <Gold.Chemscore.Hbond.Weighted>
-6.1165

> <Gold.Chemscore.Metal.Weighted>
-0.0000

> <Gold.Chemscore.Lipo.Weighted>
-9.3864

> <Gold.Chemscore.Internal_Hbond.Weighted>
0.0000

> <Gold.Chemscore.DEClash.Weighted>
0.1369

> <Gold.Chemscore.DEInternal.Weighted>
1.7134

> <Gold.Chemscore.Rot.Weighted>
5.1007

> <Gold.Chemscore.Internal.Correction.Weighted>
   9.000000E+99

> <Gold.Protein.RotatedTorsions>
[ 6907 6896 6895 6894 ] final  -56.59 input  -60.11 | X-H torsion
[ 7974 7965 7964 7962 ] final   84.85 input  175.53 | X-H torsion
[ 8008 7997 7996 7995 ] final  -77.85 input   59.86 | X-H torsion
[ 10167 10162 10161 10158 ] final   39.03 input  -65.29 | X-H torsion
[ 10718 10713 10712 10709 ] final  165.20 input   66.30 | X-H torsion
[ 10763 10752 10751 10750 ] final  105.28 input  -60.55 | X-H torsion
[ 11005 11000 10999 10996 ] final  101.66 input  -57.11 | X-H torsion

> <Gold.Protein.ActiveResidues>
 VAL166  LYS551  ARG553  GLY616  TRP617  ASP618  TYR619  PRO620  LYS621  CYS622 
 ASP623  PHE694  ASN695  SER759  ASP760  ASP761  ALA762  ILE779  LEU786  VAL792 
 PHE793  MET794  SER795  GLU796  ALA797  LYS798  CYS799  TRP800  GLU811  SER814 

> <Gold.Protein.RotatedAtoms>
  150.8155  134.7335  159.6726 H   0  0  0  0  0  0  0  0  0  0  0  0  # atno 6907 bound_to 6896
  152.4274  134.5839  159.9965 H   0  0  0  0  0  0  0  0  0  0  0  0  # atno 6908 bound_to 6896
  151.6037  133.3316  159.3089 H   0  0  0  0  0  0  0  0  0  0  0  0  # atno 6909 bound_to 6896
  145.5932  139.2341  143.2287 H   0  0  0  0  0  0  0  0  0  0  0  0  # atno 7974 bound_to 7965
  154.5635  140.0703  156.8855 H   0  0  0  0  0  0  0  0  0  0  0  0  # atno 8008 bound_to 7997
  155.2767  140.3369  155.4243 H   0  0  0  0  0  0  0  0  0  0  0  0  # atno 8009 bound_to 7997
  156.2061  140.1740  156.7782 H   0  0  0  0  0  0  0  0  0  0  0  0  # atno 8010 bound_to 7997
  140.3879  144.1892  150.6130 H   0  0  0  0  0  0  0  0  0  0  0  0  # atno 10167 bound_to 10162
  157.0835  131.0398  151.2565 H   0  0  0  0  0  0  0  0  0  0  0  0  # atno 10718 bound_to 10713
  153.3772  135.3915  155.1831 H   0  0  0  0  0  0  0  0  0  0  0  0  # atno 10763 bound_to 10752
  154.8702  135.3716  154.4903 H   0  0  0  0  0  0  0  0  0  0  0  0  # atno 10764 bound_to 10752
  153.5376  135.7085  153.5713 H   0  0  0  0  0  0  0  0  0  0  0  0  # atno 10765 bound_to 10752
  139.8774  134.9192  156.4940 H   0  0  0  0  0  0  0  0  0  0  0  0  # atno 11005 bound_to 11000
  146.1631  140.6758  142.9268 LP  0  0  0  0  0  0  0  0  0  0  0  0  # atno 17320 bound_to 7965
  144.7342  140.4760  143.6916 LP  0  0  0  0  0  0  0  0  0  0  0  0  # atno 17321 bound_to 7965
  140.4870  143.2360  151.8874 LP  0  0  0  0  0  0  0  0  0  0  0  0  # atno 17342 bound_to 10162
  139.4791  144.5208  151.8804 LP  0  0  0  0  0  0  0  0  0  0  0  0  # atno 17343 bound_to 10162
  157.4780  130.7748  149.7387 LP  0  0  0  0  0  0  0  0  0  0  0  0  # atno 17370 bound_to 10713
  155.9917  130.3936  150.2974 LP  0  0  0  0  0  0  0  0  0  0  0  0  # atno 17371 bound_to 10713
  140.8638  133.8040  155.9292 LP  0  0  0  0  0  0  0  0  0  0  0  0  # atno 17394 bound_to 11000
  140.9022  134.2364  157.5035 LP  0  0  0  0  0  0  0  0  0  0  0  0  # atno 17395 bound_to 11000

$$$$
