AV-unprocessed.smi:2024|AV-procd|sdf|8192|dock4
  -GOLD-   2272010443D 1   1.00000     0.00000
 Structure written by MMmdl.
 44 45  0  0  0  0  0  0  0  0  2 V2000
  151.7422  136.9774  156.0707 C   0  0  0  0  0  0  0  0  0  0  0  0
  151.4611  136.6830  154.6697 N   0  0  0  0  0  0  0  0  0  0  0  0
  150.2902  135.8281  154.4789 C   0  0  0  0  0  0  0  0  0  0  0  0
  148.9741  136.5694  154.7901 C   0  0  0  0  0  0  0  0  0  0  0  0
  148.8292  137.7827  153.9331 N   0  3  0  0  0  0  0  0  0  0  0  0
  147.4819  138.4629  153.9962 C   0  0  0  0  0  0  0  0  0  0  0  0
  147.3310  139.2746  155.3066 C   0  0  0  0  0  0  0  0  0  0  0  0
  147.2971  139.4447  152.8081 C   0  0  0  0  0  0  0  0  0  0  0  0
  146.3698  137.3730  153.8846 C   0  0  0  0  0  0  0  0  0  0  0  0
  145.0152  137.9057  153.7338 N   0  0  0  0  0  0  0  0  0  0  0  0
  143.8793  137.2277  153.9552 C   0  0  0  0  0  0  0  0  0  0  0  0
  143.8519  136.0549  154.3294 O   0  0  0  0  0  0  0  0  0  0  0  0
  142.8009  137.9958  153.7216 N   0  0  0  0  0  0  0  0  0  0  0  0
  141.4313  137.6513  153.8648 C   0  0  0  0  0  0  0  0  0  0  0  0
  140.9934  136.4628  154.2964 N   0  0  0  0  0  0  0  0  0  0  0  0
  139.5982  136.4029  154.3401 C   0  0  0  0  0  0  0  0  0  0  0  0
  138.9858  137.5633  153.9369 C   0  0  0  0  0  0  0  0  0  0  0  0
  140.1437  138.7851  153.4836 S   0  0  0  0  0  0  0  0  0  0  0  0
  150.0227  138.6563  154.1296 C   0  0  0  0  0  0  0  0  0  0  0  0
  151.3286  137.8829  153.8459 C   0  0  0  0  0  0  0  0  0  0  0  0
  151.8863  136.0518  156.6288 H   0  0  0  0  0  0  0  0  0  0  0  0
  150.9432  137.5406  156.5514 H   0  0  0  0  0  0  0  0  0  0  0  0
  152.6606  137.5594  156.1558 H   0  0  0  0  0  0  0  0  0  0  0  0
  150.2768  135.4784  153.4455 H   0  0  0  0  0  0  0  0  0  0  0  0
  150.3827  134.9395  155.1044 H   0  0  0  0  0  0  0  0  0  0  0  0
  148.1594  135.8685  154.6259 H   0  0  0  0  0  0  0  0  0  0  0  0
  148.9368  136.8372  155.8460 H   0  0  0  0  0  0  0  0  0  0  0  0
  146.4213  139.8758  155.3012 H   0  0  0  0  0  0  0  0  0  0  0  0
  148.1604  139.9663  155.4531 H   0  0  0  0  0  0  0  0  0  0  0  0
  147.2747  138.6304  156.1844 H   0  0  0  0  0  0  0  0  0  0  0  0
  146.2917  139.8638  152.7742 H   0  0  0  0  0  0  0  0  0  0  0  0
  147.4737  138.9523  151.8511 H   0  0  0  0  0  0  0  0  0  0  0  0
  147.9625  140.3054  152.8763 H   0  0  0  0  0  0  0  0  0  0  0  0
  146.5645  136.7445  153.0150 H   0  0  0  0  0  0  0  0  0  0  0  0
  146.3758  136.6963  154.7375 H   0  0  0  0  0  0  0  0  0  0  0  0
  144.9385  138.8653  153.4291 H   0  0  0  0  0  0  0  0  0  0  0  0
  142.9788  138.9392  153.4104 H   0  0  0  0  0  0  0  0  0  0  0  0
  139.1223  135.4922  154.6726 H   0  0  0  0  0  0  0  0  0  0  0  0
  137.9281  137.7723  153.8800 H   0  0  0  0  0  0  0  0  0  0  0  0
  150.0164  139.4947  153.4361 H   0  0  0  0  0  0  0  0  0  0  0  0
  150.0267  139.0784  155.1347 H   0  0  0  0  0  0  0  0  0  0  0  0
  152.1937  138.5284  154.0013 H   0  0  0  0  0  0  0  0  0  0  0  0
  151.3528  137.5849  152.7969 H   0  0  0  0  0  0  0  0  0  0  0  0
  148.9068  137.4536  152.9813 H   0  0  0  0  0  0  0  0  0  0  0  0
  1  2  1  0  0  0  0
  1 21  1  0  0  0  0
  1 22  1  0  0  0  0
  1 23  1  0  0  0  0
  2 20  1  0  0  0  0
  2  3  1  0  0  0  0
  3  4  1  0  0  0  0
  3 24  1  0  0  0  0
  3 25  1  0  0  0  0
  4  5  1  0  0  0  0
  4 26  1  0  0  0  0
  4 27  1  0  0  0  0
  5  6  1  0  0  0  0
  5 19  1  0  0  0  0
  5 44  1  0  0  0  0
  6  7  1  0  0  0  0
  6  8  1  0  0  0  0
  6  9  1  0  0  0  0
  7 28  1  0  0  0  0
  7 29  1  0  0  0  0
  7 30  1  0  0  0  0
  8 31  1  0  0  0  0
  8 32  1  0  0  0  0
  8 33  1  0  0  0  0
  9 10  1  0  0  0  0
  9 34  1  0  0  0  0
  9 35  1  0  0  0  0
 10 11  1  0  0  0  0
 10 36  1  0  0  0  0
 11 12  2  0  0  0  0
 11 13  1  0  0  0  0
 13 14  1  0  0  0  0
 13 37  1  0  0  0  0
 14 18  1  0  0  0  0
 14 15  2  0  0  0  0
 15 16  1  0  0  0  0
 16 17  2  0  0  0  0
 16 38  1  0  0  0  0
 17 18  1  0  0  0  0
 17 39  1  0  0  0  0
 19 20  1  0  0  0  0
 19 40  1  0  0  0  0
 19 41  1  0  0  0  0
 20 42  1  0  0  0  0
 20 43  1  0  0  0  0
M  CHG  1   5   1
M  END
> <s_m_source_file>
AV-unprocessed.smi

> <i_m_source_file_index>
2024

> <i_lp_mmshare_version>
43012

> <i_f3d_flags>
0

> <s_epik_input>
W0NIM11OMVtDSDJdW0NIMl1OKFtDSDJdW0NIMl0xKUMoW0NIM10pKFtDSDNdKVtDSDJdW05IXUMoPU8pW05IXWMybltjSF1bY0hdczI=

> <s_epik_cmdline>
J2VwaWtfcHl0aG9uJywgJy1waCcsICc3LjAnLCAnLXRuJywgJzgnLCAnLW1hJywgJzIwMCcsICctbWV0YWxfYmluZGluZycsICctaW1hZScsICc8aW5maWxlLm1hZT4nLCAnLW9tYWUnLCAnPG91dGZpbGUubWFlPic=

> <r_epik_Ionization_Penalty>
0.100627

> <r_epik_Ionization_Penalty_Charging>
0.0985296

> <r_epik_Ionization_Penalty_Neutral>
0.00209722

> <r_epik_State_Penalty>
1.056

> <r_epik_Charging_Adjusted_Penalty>
1.15453

> <i_epik_Tot_Q>
1

> <i_epik_Tot_abs_Q>
1

> <r_epik_Metal_State_Penalty>
1.08856

> <b_epik_Metal_Only>
0

> <s_lp_Force_Field>
OPLS_2005

> <r_lp_Energy>
25.1468

> <b_lp_Chiralities_Consistent>
1

> <s_lp_Variant>
AV-unprocessed.smi:2024-2

> <Gold.Version>
5.8.1

> <Gold.Id.Protein>
6NUR|6NUR_protein|mol2

> <Gold.PLP.Fitness>
39.8503

> <Gold.PLP.PLP>
-25.1523

> <Gold.PLP.part.hbond>
-3.7276

> <Gold.PLP.part.metal>
0.0000

> <Gold.PLP.part.buried>
-1.4319

> <Gold.PLP.part.nonpolar>
-20.4050

> <Gold.PLP.part.repulsive>
0.1832

> <Gold.PLP.ligand.clash>
0.0000

> <Gold.PLP.ligand.torsion>
0.3683

> <Gold.PLP.Chemscore.Hbond>
4.4885

> <Gold.PLP.Chemscore.CHOScore>
0.6278

> <Gold.PLP.Chemscore.Metal>
0.0000

> <Gold.Chemscore.Hbonds>
donor molecule, donor type, donor heavy atom, donor atom, acceptor molecule, acceptor atom, score
      L1  H     5    44       P1  7948  2.00
      L1  H    10    36       P1 10175  0.43
      L1  H    13    37       P1 10175  1.00
      P1  H 10752 10764       L1     2  0.55
      L1  C    16    38       P1 11000  0.50

> <Gold.PLP.Chemscore.Internal.Correction>
0.0857

> <Gold.Rescore>
     Score         DG    S(hbond)    S(metal)    S(lipo)     H(rot)  DE(clash)    DE(int)     intcor
     17.56     -19.38       2.91        0.00      70.71       1.60       0.26       1.56       ----

> <Gold.Chemscore.Fitness>
17.5587

> <Gold.Chemscore.DG>
-19.3811

> <Gold.Chemscore.ZeroCoef>
-5.4800

> <Gold.Chemscore.Hbond>
2.9108

> <Gold.Chemscore.Metal>
0.0000

> <Gold.Chemscore.Lipo>
70.7078

> <Gold.Chemscore.Internal_Hbond>
0.0000

> <Gold.Chemscore.DEClash>
0.2592

> <Gold.Chemscore.DEInternal>
1.5633

> <Gold.Chemscore.Rot>
1.5991

> <Gold.Chemscore.Internal.Correction>
   9.000000E+99

> <Gold.Chemscore.Hbonds>
donor molecule, donor type, donor heavy atom, donor atom, acceptor molecule, acceptor atom, score
      L1  H     5    44       P1  7948  0.96
      L1  H    10    36       P1 10175  0.41
      L1  H    13    37       P1 10175  1.00
      P1  H 10752 10764       L1     2  0.02

> <Gold.Chemscore.Hbond.Weighted>
-9.7219

> <Gold.Chemscore.Metal.Weighted>
-0.0000

> <Gold.Chemscore.Lipo.Weighted>
-8.2728

> <Gold.Chemscore.Internal_Hbond.Weighted>
0.0000

> <Gold.Chemscore.DEClash.Weighted>
0.2592

> <Gold.Chemscore.DEInternal.Weighted>
1.5633

> <Gold.Chemscore.Rot.Weighted>
4.0936

> <Gold.Chemscore.Internal.Correction.Weighted>
   9.000000E+99

> <Gold.Protein.RotatedTorsions>
[ 6907 6896 6895 6894 ] final  -75.48 input  -60.11 | X-H torsion
[ 7974 7965 7964 7962 ] final -144.03 input  175.53 | X-H torsion
[ 8008 7997 7996 7995 ] final -170.81 input   59.86 | X-H torsion
[ 10167 10162 10161 10158 ] final  105.44 input  -65.29 | X-H torsion
[ 10718 10713 10712 10709 ] final -139.93 input   66.30 | X-H torsion
[ 10763 10752 10751 10750 ] final  -60.58 input  -60.55 | X-H torsion
[ 11005 11000 10999 10996 ] final  -51.29 input  -57.11 | X-H torsion

> <Gold.Protein.ActiveResidues>
 VAL166  LYS551  ARG553  GLY616  TRP617  ASP618  TYR619  PRO620  LYS621  CYS622 
 ASP623  PHE694  ASN695  SER759  ASP760  ASP761  ALA762  ILE779  LEU786  VAL792 
 PHE793  MET794  SER795  GLU796  ALA797  LYS798  CYS799  TRP800  GLU811  SER814 

> <Gold.Protein.RotatedAtoms>
  150.7057  134.4714  159.5426 H   0  0  0  0  0  0  0  0  0  0  0  0  # atno 6907 bound_to 6896
  152.2369  134.8264  160.0475 H   0  0  0  0  0  0  0  0  0  0  0  0  # atno 6908 bound_to 6896
  151.9059  133.3514  159.3883 H   0  0  0  0  0  0  0  0  0  0  0  0  # atno 6909 bound_to 6896
  144.8327  140.5761  143.5505 H   0  0  0  0  0  0  0  0  0  0  0  0  # atno 7974 bound_to 7965
  155.9233  140.1078  157.1190 H   0  0  0  0  0  0  0  0  0  0  0  0  # atno 8008 bound_to 7997
  154.4058  140.1251  156.4773 H   0  0  0  0  0  0  0  0  0  0  0  0  # atno 8009 bound_to 7997
  155.7169  140.3470  155.5001 H   0  0  0  0  0  0  0  0  0  0  0  0  # atno 8010 bound_to 7997
  139.7092  144.7081  151.1055 H   0  0  0  0  0  0  0  0  0  0  0  0  # atno 10167 bound_to 10162
  156.3165  130.7510  151.1598 H   0  0  0  0  0  0  0  0  0  0  0  0  # atno 10718 bound_to 10713
  154.2714  135.6289  153.5312 H   0  0  0  0  0  0  0  0  0  0  0  0  # atno 10763 bound_to 10752
  152.9879  135.5611  154.5595 H   0  0  0  0  0  0  0  0  0  0  0  0  # atno 10764 bound_to 10752
  154.5166  135.2880  155.1273 H   0  0  0  0  0  0  0  0  0  0  0  0  # atno 10765 bound_to 10752
  141.0863  133.6642  156.3855 H   0  0  0  0  0  0  0  0  0  0  0  0  # atno 11005 bound_to 11000
  145.4862  139.1492  143.3735 LP  0  0  0  0  0  0  0  0  0  0  0  0  # atno 17320 bound_to 7965
  146.2628  140.4999  142.8846 LP  0  0  0  0  0  0  0  0  0  0  0  0  # atno 17321 bound_to 7965
  140.7729  143.5316  150.9416 LP  0  0  0  0  0  0  0  0  0  0  0  0  # atno 17342 bound_to 10162
  139.9000  143.6847  152.3132 LP  0  0  0  0  0  0  0  0  0  0  0  0  # atno 17343 bound_to 10162
  157.7402  131.0519  150.5178 LP  0  0  0  0  0  0  0  0  0  0  0  0  # atno 17370 bound_to 10713
  156.5325  130.4188  149.6194 LP  0  0  0  0  0  0  0  0  0  0  0  0  # atno 17371 bound_to 10713
  140.5356  134.6170  157.5364 LP  0  0  0  0  0  0  0  0  0  0  0  0  # atno 17394 bound_to 11000
  139.9681  134.7338  156.0096 LP  0  0  0  0  0  0  0  0  0  0  0  0  # atno 17395 bound_to 11000

$$$$
