AV-unprocessed.smi:1419|AV-procd|sdf|5774|dock9
  -GOLD-   22720 5413D 1   1.00000     0.00000
 Structure written by MMmdl.
 42 43  0  0  0  0  0  0  0  0  2 V2000
  153.8232  140.0079  160.2578 C   0  0  0  0  0  0  0  0  0  0  0  0
  153.2604  141.1851  159.4506 C   0  0  2  0  0  0  0  0  0  0  0  0
  152.2888  142.0346  160.2988 C   0  0  0  0  0  0  0  0  0  0  0  0
  151.8150  143.2343  159.5997 N   0  0  0  0  0  0  0  0  0  0  0  0
  152.1248  144.5399  159.8847 C   0  0  0  0  0  0  0  0  0  0  0  0
  151.4351  145.3104  158.9846 C   0  0  0  0  0  0  0  0  0  0  0  0
  150.7400  144.4433  158.1847 N   0  3  0  0  0  0  0  0  0  0  0  0
  150.9766  143.1811  158.5570 C   0  0  0  0  0  0  0  0  0  0  0  0
  152.5887  140.6674  158.2595 N   0  0  0  0  0  0  0  0  0  0  0  0
  151.5159  139.8566  158.2484 C   0  0  0  0  0  0  0  0  0  0  0  0
  150.9268  139.5325  159.2806 O   0  0  0  0  0  0  0  0  0  0  0  0
  151.1440  139.4290  157.0171 N   0  0  0  0  0  0  0  0  0  0  0  0
  151.8429  139.6976  155.7532 C   0  0  0  0  0  0  0  0  0  0  0  0
  152.6240  138.4260  155.3650 C   0  0  2  0  0  0  0  0  0  0  0  0
  153.3592  138.5808  154.0297 C   0  0  0  0  0  0  0  0  0  0  0  0
  151.7103  137.3351  155.2485 O   0  0  0  0  0  0  0  0  0  0  0  0
  150.9608  137.0742  156.4358 C   0  0  2  0  0  0  0  0  0  0  0  0
  150.0356  135.8830  156.1677 C   0  0  0  0  0  0  0  0  0  0  0  0
  150.1787  138.3449  156.8266 C   0  0  0  0  0  0  0  0  0  0  0  0
  154.3467  140.3576  161.1483 H   0  0  0  0  0  0  0  0  0  0  0  0
  154.5338  139.4300  159.6661 H   0  0  0  0  0  0  0  0  0  0  0  0
  153.0311  139.3319  160.5818 H   0  0  0  0  0  0  0  0  0  0  0  0
  154.1083  141.8066  159.1572 H   0  0  0  0  0  0  0  0  0  0  0  0
  151.4168  141.4476  160.5909 H   0  0  0  0  0  0  0  0  0  0  0  0
  152.7722  142.3626  161.2201 H   0  0  0  0  0  0  0  0  0  0  0  0
  152.7882  144.8167  160.6912 H   0  0  0  0  0  0  0  0  0  0  0  0
  151.3873  146.3820  158.8571 H   0  0  0  0  0  0  0  0  0  0  0  0
  150.5607  142.2947  158.1119 H   0  0  0  0  0  0  0  0  0  0  0  0
  153.0005  140.9072  157.3692 H   0  0  0  0  0  0  0  0  0  0  0  0
  151.1107  139.9406  154.9815 H   0  0  0  0  0  0  0  0  0  0  0  0
  152.5161  140.5539  155.7947 H   0  0  0  0  0  0  0  0  0  0  0  0
  153.3558  138.1933  156.1406 H   0  0  0  0  0  0  0  0  0  0  0  0
  154.0839  139.3941  154.0722 H   0  0  0  0  0  0  0  0  0  0  0  0
  152.6627  138.7944  153.2183 H   0  0  0  0  0  0  0  0  0  0  0  0
  153.8985  137.6687  153.7735 H   0  0  0  0  0  0  0  0  0  0  0  0
  151.6509  136.8060  157.2380 H   0  0  0  0  0  0  0  0  0  0  0  0
  149.4528  135.6313  157.0540 H   0  0  0  0  0  0  0  0  0  0  0  0
  150.6096  134.9999  155.8859 H   0  0  0  0  0  0  0  0  0  0  0  0
  149.3380  136.0993  155.3581 H   0  0  0  0  0  0  0  0  0  0  0  0
  149.5739  138.1609  157.7160 H   0  0  0  0  0  0  0  0  0  0  0  0
  149.4749  138.6163  156.0384 H   0  0  0  0  0  0  0  0  0  0  0  0
  150.1313  144.7149  157.4230 H   0  0  0  0  0  0  0  0  0  0  0  0
  1  2  1  0  0  0  0
  1 20  1  0  0  0  0
  1 21  1  0  0  0  0
  1 22  1  0  0  0  0
  2  3  1  0  0  0  0
  2  9  1  0  0  0  0
  2 23  1  0  0  0  0
  3  4  1  0  0  0  0
  3 24  1  0  0  0  0
  3 25  1  0  0  0  0
  4  8  1  0  0  0  0
  4  5  1  0  0  0  0
  5  6  2  0  0  0  0
  5 26  1  0  0  0  0
  6  7  1  0  0  0  0
  6 27  1  0  0  0  0
  7  8  2  0  0  0  0
  7 42  1  0  0  0  0
  8 28  1  0  0  0  0
  9 10  1  0  0  0  0
  9 29  1  0  0  0  0
 10 11  2  0  0  0  0
 10 12  1  0  0  0  0
 12 19  1  0  0  0  0
 12 13  1  0  0  0  0
 13 14  1  0  0  0  0
 13 30  1  0  0  0  0
 13 31  1  0  0  0  0
 14 15  1  0  0  0  0
 14 16  1  0  0  0  0
 14 32  1  0  0  0  0
 15 33  1  0  0  0  0
 15 34  1  0  0  0  0
 15 35  1  0  0  0  0
 16 17  1  0  0  0  0
 17 18  1  0  0  0  0
 17 19  1  0  0  0  0
 17 36  1  0  0  0  0
 18 37  1  0  0  0  0
 18 38  1  0  0  0  0
 18 39  1  0  0  0  0
 19 40  1  0  0  0  0
 19 41  1  0  0  0  0
M  CHG  1   7   1
M  END
> <s_m_source_file>
AV-unprocessed.smi

> <i_m_source_file_index>
1419

> <i_lp_mmshare_version>
43012

> <i_f3d_flags>
0

> <s_epik_input>
W2NIXTFuW2NIXVtjSF1uMVtDSDJdW0NAQEhdKFtDSDNdKVtOSF1DKD1PKU4yW0NIMl1bQ0BASF0oW0NIM10pT1tDQEBIXShbQ0gzXSlbQ0gyXTI=

> <s_epik_cmdline>
J2VwaWtfcHl0aG9uJywgJy1waCcsICc3LjAnLCAnLXRuJywgJzgnLCAnLW1hJywgJzIwMCcsICctbWV0YWxfYmluZGluZycsICctaW1hZScsICc8aW5maWxlLm1hZT4nLCAnLW9tYWUnLCAnPG91dGZpbGUubWFlPic=

> <r_lp_tautomer_probability>
1

> <r_epik_Ionization_Penalty>
0.253607

> <r_epik_Ionization_Penalty_Charging>
0

> <r_epik_Ionization_Penalty_Neutral>
0.253607

> <r_epik_State_Penalty>
0.245018

> <r_epik_Charging_Adjusted_Penalty>
0.245018

> <i_epik_Tot_Q>
1

> <i_epik_Tot_abs_Q>
1

> <r_epik_Metal_State_Penalty>
0.535379

> <b_epik_Metal_Only>
0

> <s_lp_Force_Field>
OPLS_2005

> <r_lp_Energy>
29.0063

> <b_lp_Chiralities_Consistent>
1

> <s_lp_Variant>
AV-unprocessed.smi:1419-1

> <Gold.Version>
5.8.1

> <Gold.Id.Protein>
6NUR|6NUR_protein|mol2

> <Gold.PLP.Fitness>
42.6671

> <Gold.PLP.PLP>
-34.3265

> <Gold.PLP.part.hbond>
-2.4986

> <Gold.PLP.part.metal>
0.0000

> <Gold.PLP.part.buried>
-3.5796

> <Gold.PLP.part.nonpolar>
-29.0043

> <Gold.PLP.part.repulsive>
0.2659

> <Gold.PLP.ligand.clash>
0.0000

> <Gold.PLP.ligand.torsion>
0.1356

> <Gold.PLP.Chemscore.Hbond>
2.8480

> <Gold.PLP.Chemscore.CHOScore>
0.0000

> <Gold.PLP.Chemscore.Metal>
0.0000

> <Gold.Chemscore.Hbonds>
donor molecule, donor type, donor heavy atom, donor atom, acceptor molecule, acceptor atom, score
      L1  H     7    42       P1  8028  1.40
      P1  H 10752 10765       L1    16  0.54

> <Gold.PLP.Chemscore.Internal.Correction>
0.0679

> <Gold.Rescore>
     Score         DG    S(hbond)    S(metal)    S(lipo)     H(rot)  DE(clash)    DE(int)     intcor
     14.20     -16.63       1.47        0.00      88.92       1.63       1.08       1.34       ----

> <Gold.Chemscore.Fitness>
14.2046

> <Gold.Chemscore.DG>
-16.6323

> <Gold.Chemscore.ZeroCoef>
-5.4800

> <Gold.Chemscore.Hbond>
1.4714

> <Gold.Chemscore.Metal>
0.0000

> <Gold.Chemscore.Lipo>
88.9194

> <Gold.Chemscore.Internal_Hbond>
0.0000

> <Gold.Chemscore.DEClash>
1.0849

> <Gold.Chemscore.DEInternal>
1.3428

> <Gold.Chemscore.Rot>
1.6273

> <Gold.Chemscore.Internal.Correction>
   9.000000E+99

> <Gold.Chemscore.Hbonds>
donor molecule, donor type, donor heavy atom, donor atom, acceptor molecule, acceptor atom, score
      L1  H     7    42       P1  8028  0.14
      P1  H 10752 10765       L1    16  0.21

> <Gold.Chemscore.Hbond.Weighted>
-4.9145

> <Gold.Chemscore.Metal.Weighted>
-0.0000

> <Gold.Chemscore.Lipo.Weighted>
-10.4036

> <Gold.Chemscore.Internal_Hbond.Weighted>
0.0000

> <Gold.Chemscore.DEClash.Weighted>
1.0849

> <Gold.Chemscore.DEInternal.Weighted>
1.3428

> <Gold.Chemscore.Rot.Weighted>
4.1658

> <Gold.Chemscore.Internal.Correction.Weighted>
   9.000000E+99

> <Gold.Protein.RotatedTorsions>
[ 6907 6896 6895 6894 ] final  141.84 input  -60.11 | X-H torsion
[ 7974 7965 7964 7962 ] final  -46.47 input  175.53 | X-H torsion
[ 8008 7997 7996 7995 ] final -132.66 input   59.86 | X-H torsion
[ 10167 10162 10161 10158 ] final   -7.23 input  -65.29 | X-H torsion
[ 10718 10713 10712 10709 ] final  -66.57 input   66.30 | X-H torsion
[ 10763 10752 10751 10750 ] final -179.39 input  -60.55 | X-H torsion
[ 11005 11000 10999 10996 ] final  162.14 input  -57.11 | X-H torsion

> <Gold.Protein.ActiveResidues>
 VAL166  LYS551  ARG553  GLY616  TRP617  ASP618  TYR619  PRO620  LYS621  CYS622 
 ASP623  PHE694  ASN695  SER759  ASP760  ASP761  ALA762  ILE779  LEU786  VAL792 
 PHE793  MET794  SER795  GLU796  ALA797  LYS798  CYS799  TRP800  GLU811  SER814 

> <Gold.Protein.RotatedAtoms>
  152.2261  133.5021  159.5189 H   0  0  0  0  0  0  0  0  0  0  0  0  # atno 6907 bound_to 6896
  150.7025  134.1278  159.4067 H   0  0  0  0  0  0  0  0  0  0  0  0  # atno 6908 bound_to 6896
  151.9199  135.0302  160.0572 H   0  0  0  0  0  0  0  0  0  0  0  0  # atno 6909 bound_to 6896
  145.9716  140.7377  142.9408 H   0  0  0  0  0  0  0  0  0  0  0  0  # atno 7974 bound_to 7965
  155.3327  140.0468  157.3043 H   0  0  0  0  0  0  0  0  0  0  0  0  # atno 8008 bound_to 7997
  154.5320  140.2260  155.8754 H   0  0  0  0  0  0  0  0  0  0  0  0  # atno 8009 bound_to 7997
  156.1797  140.3076  155.9132 H   0  0  0  0  0  0  0  0  0  0  0  0  # atno 8010 bound_to 7997
  140.7022  143.6105  150.8709 H   0  0  0  0  0  0  0  0  0  0  0  0  # atno 10167 bound_to 10162
  156.0605  130.4264  150.1727 H   0  0  0  0  0  0  0  0  0  0  0  0  # atno 10718 bound_to 10713
  154.5357  135.2802  155.1141 H   0  0  0  0  0  0  0  0  0  0  0  0  # atno 10763 bound_to 10752
  154.2643  135.6316  153.5290 H   0  0  0  0  0  0  0  0  0  0  0  0  # atno 10764 bound_to 10752
  152.9967  135.5613  154.5882 H   0  0  0  0  0  0  0  0  0  0  0  0  # atno 10765 bound_to 10752
  140.2228  134.8183  157.3238 H   0  0  0  0  0  0  0  0  0  0  0  0  # atno 11005 bound_to 11000
  144.6838  140.2758  143.7299 LP  0  0  0  0  0  0  0  0  0  0  0  0  # atno 17320 bound_to 7965
  145.7898  139.1923  143.2109 LP  0  0  0  0  0  0  0  0  0  0  0  0  # atno 17321 bound_to 7965
  139.9828  143.5933  152.2937 LP  0  0  0  0  0  0  0  0  0  0  0  0  # atno 17342 bound_to 10162
  139.6560  144.7662  151.2055 LP  0  0  0  0  0  0  0  0  0  0  0  0  # atno 17343 bound_to 10162
  156.9797  130.9860  151.3440 LP  0  0  0  0  0  0  0  0  0  0  0  0  # atno 17370 bound_to 10713
  157.5610  130.8246  149.8266 LP  0  0  0  0  0  0  0  0  0  0  0  0  # atno 17371 bound_to 10713
  140.1832  134.4464  155.7759 LP  0  0  0  0  0  0  0  0  0  0  0  0  # atno 17394 bound_to 11000
  141.2222  133.6993  156.7903 LP  0  0  0  0  0  0  0  0  0  0  0  0  # atno 17395 bound_to 11000

$$$$
