AV-unprocessed.smi:47|AV-procd|sdf|439|dock9
  -GOLD-   2262016313D 1   1.00000     0.00000
 Structure written by MMmdl.
 32 34  0  0  0  0  0  0  0  0  2 V2000
  145.0390  139.8270  154.2051 O   0  0  0  0  0  0  0  0  0  0  0  0
  146.3804  139.4819  154.4819 C   0  0  1  0  0  0  0  0  0  0  0  0
  147.1958  139.3546  153.1871 C   0  0  0  0  0  0  0  0  0  0  0  0
  148.5214  139.9042  153.5055 N   0  3  0  0  0  0  0  0  0  0  0  0
  148.2927  140.9962  154.4663 C   0  0  2  0  0  0  0  0  0  0  0  0
  149.5795  141.1440  155.2220 C   0  0  0  0  0  0  0  0  0  0  0  0
  150.6872  140.4243  155.0267 N   0  0  0  0  0  0  0  0  0  0  0  0
  151.5980  140.8986  155.9517 N   0  0  0  0  0  0  0  0  0  0  0  0
  150.9743  141.8657  156.6400 C   0  0  0  0  0  0  0  0  0  0  0  0
  151.5913  142.6307  157.7261 C   0  0  0  0  0  0  0  0  0  0  0  0
  152.2077  141.9655  158.8116 C   0  0  0  0  0  0  0  0  0  0  0  0
  152.8048  142.7012  159.8538 C   0  0  0  0  0  0  0  0  0  0  0  0
  152.7945  144.1081  159.8206 C   0  0  0  0  0  0  0  0  0  0  0  0
  152.1854  144.7793  158.7441 C   0  0  0  0  0  0  0  0  0  0  0  0
  151.5865  144.0449  157.7022 C   0  0  0  0  0  0  0  0  0  0  0  0
  149.7130  142.0418  156.2075 N   0  0  0  0  0  0  0  0  0  0  0  0
  147.0853  140.5684  155.3112 C   0  0  0  0  0  0  0  0  0  0  0  0
  146.3989  138.5367  155.0263 H   0  0  0  0  0  0  0  0  0  0  0  0
  148.0668  141.9082  153.9114 H   0  0  0  0  0  0  0  0  0  0  0  0
  149.0261  142.6963  156.5534 H   0  0  0  0  0  0  0  0  0  0  0  0
  144.9633  140.0381  153.2864 H   0  0  0  0  0  0  0  0  0  0  0  0
  147.2580  138.3282  152.8243 H   0  0  0  0  0  0  0  0  0  0  0  0
  146.7624  139.9664  152.3941 H   0  0  0  0  0  0  0  0  0  0  0  0
  149.0629  139.1881  153.9690 H   0  0  0  0  0  0  0  0  0  0  0  0
  152.2273  140.8868  158.8590 H   0  0  0  0  0  0  0  0  0  0  0  0
  153.2722  142.1856  160.6798 H   0  0  0  0  0  0  0  0  0  0  0  0
  153.2538  144.6718  160.6193 H   0  0  0  0  0  0  0  0  0  0  0  0
  152.1780  145.8591  158.7163 H   0  0  0  0  0  0  0  0  0  0  0  0
  151.1267  144.5807  156.8847 H   0  0  0  0  0  0  0  0  0  0  0  0
  146.4460  141.4195  155.5498 H   0  0  0  0  0  0  0  0  0  0  0  0
  147.4090  140.1349  156.2587 H   0  0  0  0  0  0  0  0  0  0  0  0
  149.0089  140.2245  152.6809 H   0  0  0  0  0  0  0  0  0  0  0  0
  1  2  1  0  0  0  0
  1 21  1  0  0  0  0
  2 18  1  0  0  0  0
  2 17  1  0  0  0  0
  2  3  1  0  0  0  0
  3  4  1  0  0  0  0
  3 22  1  0  0  0  0
  3 23  1  0  0  0  0
  4  5  1  0  0  0  0
  4 24  1  0  0  0  0
  4 32  1  0  0  0  0
  5 19  1  0  0  0  0
  5 17  1  0  0  0  0
  5  6  1  0  0  0  0
  6  7  2  0  0  0  0
  6 16  1  0  0  0  0
  7  8  1  0  0  0  0
  8  9  2  0  0  0  0
  9 16  1  0  0  0  0
  9 10  1  0  0  0  0
 10 15  1  0  0  0  0
 10 11  2  0  0  0  0
 11 12  1  0  0  0  0
 11 25  1  0  0  0  0
 12 13  2  0  0  0  0
 12 26  1  0  0  0  0
 13 14  1  0  0  0  0
 13 27  1  0  0  0  0
 14 15  2  0  0  0  0
 14 28  1  0  0  0  0
 15 29  1  0  0  0  0
 16 20  1  0  0  0  0
 17 30  1  0  0  0  0
 17 31  1  0  0  0  0
M  CHG  1   4   1
M  END
> <s_m_source_file>
AV-unprocessed.smi

> <i_m_source_file_index>
47

> <i_lp_mmshare_version>
43012

> <i_f3d_flags>
0

> <s_epik_input>
W09IXVtDQEhdMVtDSDJdW05IXVtDQEBIXShbQ0gyXTEpYzJuW25IXWMobjIpLWMzW2NIXVtjSF1bY0hdW2NIXVtjSF0z

> <s_epik_cmdline>
J2VwaWtfcHl0aG9uJywgJy1waCcsICc3LjAnLCAnLXRuJywgJzgnLCAnLW1hJywgJzIwMCcsICctbWV0YWxfYmluZGluZycsICctaW1hZScsICc8aW5maWxlLm1hZT4nLCAnLW9tYWUnLCAnPG91dGZpbGUubWFlPic=

> <r_lp_tautomer_probability>
0.0517155

> <r_epik_Ionization_Penalty>
2.45729

> <r_epik_Ionization_Penalty_Charging>
0.0688988

> <r_epik_Ionization_Penalty_Neutral>
2.3884

> <r_epik_State_Penalty>
2.69236

> <r_epik_Charging_Adjusted_Penalty>
2.76126

> <i_epik_Tot_Q>
1

> <i_epik_Tot_abs_Q>
1

> <r_epik_Metal_State_Penalty>
3.18974

> <b_epik_Metal_Only>
0

> <s_lp_Force_Field>
OPLS_2005

> <r_lp_Energy>
30.5648

> <b_lp_Chiralities_Consistent>
1

> <s_lp_Variant>
AV-unprocessed.smi:47-17

> <Gold.Version>
5.8.1

> <Gold.Id.Protein>
6NUR|6NUR_protein|mol2

> <Gold.PLP.Fitness>
42.5582

> <Gold.PLP.PLP>
-36.3340

> <Gold.PLP.part.hbond>
-3.6371

> <Gold.PLP.part.metal>
0.0000

> <Gold.PLP.part.buried>
-4.6885

> <Gold.PLP.part.nonpolar>
-27.7038

> <Gold.PLP.part.repulsive>
0.2713

> <Gold.PLP.ligand.clash>
0.0000

> <Gold.PLP.ligand.torsion>
0.9636

> <Gold.PLP.Chemscore.Hbond>
2.7126

> <Gold.PLP.Chemscore.CHOScore>
0.0000

> <Gold.PLP.Chemscore.Metal>
0.0000

> <Gold.Chemscore.Hbonds>
donor molecule, donor type, donor heavy atom, donor atom, acceptor molecule, acceptor atom, score
      L1  H     1    21       P1 10175  0.58
      L1  H     4    32       P1  7957  1.00
      L1  H    16    20       P1  8028  0.21
      P1  H  7989  7998       L1     7  0.85

> <Gold.PLP.Chemscore.Internal.Correction>
0.0136

> <Gold.Rescore>
     Score         DG    S(hbond)    S(metal)    S(lipo)     H(rot)  DE(clash)    DE(int)     intcor
     18.48     -19.21       2.13        0.00      89.17       1.50       0.10       0.63       ----

> <Gold.Chemscore.Fitness>
18.4790

> <Gold.Chemscore.DG>
-19.2085

> <Gold.Chemscore.ZeroCoef>
-5.4800

> <Gold.Chemscore.Hbond>
2.1339

> <Gold.Chemscore.Metal>
0.0000

> <Gold.Chemscore.Lipo>
89.1663

> <Gold.Chemscore.Internal_Hbond>
0.0000

> <Gold.Chemscore.DEClash>
0.1011

> <Gold.Chemscore.DEInternal>
0.6283

> <Gold.Chemscore.Rot>
1.4966

> <Gold.Chemscore.Internal.Correction>
   9.000000E+99

> <Gold.Chemscore.Hbonds>
donor molecule, donor type, donor heavy atom, donor atom, acceptor molecule, acceptor atom, score
      L1  H     1    21       P1 10175  0.56
      L1  H     4    32       P1  7957  0.97
      L1  H    16    20       P1  8028  0.22
      P1  H  7989  7998       L1     7  0.13

> <Gold.Chemscore.Hbond.Weighted>
-7.1272

> <Gold.Chemscore.Metal.Weighted>
-0.0000

> <Gold.Chemscore.Lipo.Weighted>
-10.4325

> <Gold.Chemscore.Internal_Hbond.Weighted>
0.0000

> <Gold.Chemscore.DEClash.Weighted>
0.1011

> <Gold.Chemscore.DEInternal.Weighted>
0.6283

> <Gold.Chemscore.Rot.Weighted>
3.8312

> <Gold.Chemscore.Internal.Correction.Weighted>
   9.000000E+99

> <Gold.Protein.RotatedTorsions>
[ 6907 6896 6895 6894 ] final  -10.69 input  -60.11 | X-H torsion
[ 7974 7965 7964 7962 ] final   35.36 input  175.53 | X-H torsion
[ 8008 7997 7996 7995 ] final   77.58 input   59.86 | X-H torsion
[ 10167 10162 10161 10158 ] final    4.66 input  -65.29 | X-H torsion
[ 10718 10713 10712 10709 ] final   96.91 input   66.30 | X-H torsion
[ 10763 10752 10751 10750 ] final  -24.93 input  -60.55 | X-H torsion
[ 11005 11000 10999 10996 ] final  159.82 input  -57.11 | X-H torsion

> <Gold.Protein.ActiveResidues>
 VAL166  LYS551  ARG553  GLY616  TRP617  ASP618  TYR619  PRO620  LYS621  CYS622 
 ASP623  PHE694  ASN695  SER759  ASP760  ASP761  ALA762  ILE779  LEU786  VAL792 
 PHE793  MET794  SER795  GLU796  ALA797  LYS798  CYS799  TRP800  GLU811  SER814 

> <Gold.Protein.RotatedAtoms>
  151.3980  135.0966  159.9546 H   0  0  0  0  0  0  0  0  0  0  0  0  # atno 6907 bound_to 6896
  152.5059  133.8916  159.7407 H   0  0  0  0  0  0  0  0  0  0  0  0  # atno 6908 bound_to 6896
  150.9384  133.6629  159.2824 H   0  0  0  0  0  0  0  0  0  0  0  0  # atno 6909 bound_to 6896
  146.1288  139.6152  142.9240 H   0  0  0  0  0  0  0  0  0  0  0  0  # atno 7974 bound_to 7965
  155.8436  140.3461  155.5648 H   0  0  0  0  0  0  0  0  0  0  0  0  # atno 8008 bound_to 7997
  155.8114  140.0899  157.1921 H   0  0  0  0  0  0  0  0  0  0  0  0  # atno 8009 bound_to 7997
  154.4005  140.1447  156.3378 H   0  0  0  0  0  0  0  0  0  0  0  0  # atno 8010 bound_to 7997
  140.6523  143.7514  150.7595 H   0  0  0  0  0  0  0  0  0  0  0  0  # atno 10167 bound_to 10162
  157.6920  131.0593  150.4563 H   0  0  0  0  0  0  0  0  0  0  0  0  # atno 10718 bound_to 10713
  153.6918  135.6961  153.5088 H   0  0  0  0  0  0  0  0  0  0  0  0  # atno 10763 bound_to 10752
  153.2408  135.4307  155.0694 H   0  0  0  0  0  0  0  0  0  0  0  0  # atno 10764 bound_to 10752
  154.8370  135.3507  154.6459 H   0  0  0  0  0  0  0  0  0  0  0  0  # atno 10765 bound_to 10752
  140.1999  134.8345  157.3006 H   0  0  0  0  0  0  0  0  0  0  0  0  # atno 11005 bound_to 11000
  145.5306  141.0427  143.2385 LP  0  0  0  0  0  0  0  0  0  0  0  0  # atno 17320 bound_to 7965
  144.7670  139.6823  143.7211 LP  0  0  0  0  0  0  0  0  0  0  0  0  # atno 17321 bound_to 7965
  140.1167  143.4649  152.2338 LP  0  0  0  0  0  0  0  0  0  0  0  0  # atno 17342 bound_to 10162
  139.5740  144.7478  151.3815 LP  0  0  0  0  0  0  0  0  0  0  0  0  # atno 17343 bound_to 10162
  156.4910  130.4095  149.6406 LP  0  0  0  0  0  0  0  0  0  0  0  0  # atno 17370 bound_to 10713
  156.3417  130.7385  151.2331 LP  0  0  0  0  0  0  0  0  0  0  0  0  # atno 17371 bound_to 10713
  140.2066  134.4190  155.7634 LP  0  0  0  0  0  0  0  0  0  0  0  0  # atno 17394 bound_to 11000
  141.2227  133.7097  156.8270 LP  0  0  0  0  0  0  0  0  0  0  0  0  # atno 17395 bound_to 11000

$$$$
