AV-unprocessed.smi:1740|AV-procd|sdf|7007|dock2
  -GOLD-   22720 8223D 1   1.00000     0.00000
 Structure written by MMmdl.
 52 54  0  0  0  0  0  0  0  0  2 V2000
  143.9833  133.8522  150.2379 N   0  0  0  0  0  0  0  0  0  0  0  0
  144.4224  132.5930  150.2952 C   0  0  0  0  0  0  0  0  0  0  0  0
  143.6865  131.6316  150.0799 O   0  0  0  0  0  0  0  0  0  0  0  0
  145.9051  132.3905  150.6238 C   0  0  0  0  0  0  0  0  0  0  0  0
  146.3238  133.1004  151.8596 N   0  3  2  0  0  0  0  0  0  0  0  0
  147.6883  132.7234  152.3160 C   0  0  0  0  0  0  0  0  0  0  0  0
  148.1326  133.5912  153.5046 C   0  0  0  0  0  0  0  0  0  0  0  0
  147.1316  133.4971  154.6673 C   0  0  1  0  0  0  0  0  0  0  0  0
  147.5352  134.4029  155.7379 N   0  0  0  0  0  0  0  0  0  0  0  0
  147.1408  134.3152  157.0160 C   0  0  0  0  0  0  0  0  0  0  0  0
  146.3785  133.4439  157.4338 O   0  0  0  0  0  0  0  0  0  0  0  0
  147.6986  135.2850  157.7594 N   0  0  0  0  0  0  0  0  0  0  0  0
  147.5828  135.5075  159.1610 C   0  0  0  0  0  0  0  0  0  0  0  0
  146.9949  134.5507  160.0246 C   0  0  0  0  0  0  0  0  0  0  0  0
  146.8436  134.8538  161.3887 C   0  0  0  0  0  0  0  0  0  0  0  0
  147.2715  136.1127  161.8415 C   0  0  0  0  0  0  0  0  0  0  0  0
  147.8210  137.0391  161.0312 N   0  0  0  0  0  0  0  0  0  0  0  0
  147.9869  136.7557  159.7158 C   0  0  0  0  0  0  0  0  0  0  0  0
  148.5852  137.7561  158.9159 N   0  0  0  0  0  0  0  0  0  0  0  0
  147.7900  138.3213  157.8295 C   0  0  0  0  0  0  0  0  0  0  0  0
  148.7585  138.5752  156.6695 C   0  0  0  0  0  0  0  0  0  0  0  0
  150.1248  138.6345  157.3456 C   0  0  0  0  0  0  0  0  0  0  0  0
  149.9711  137.6246  158.4791 C   0  0  0  0  0  0  0  0  0  0  0  0
  145.7184  133.8419  154.1617 C   0  0  0  0  0  0  0  0  0  0  0  0
  145.3291  132.9721  152.9547 C   0  0  0  0  0  0  0  0  0  0  0  0
  143.0133  134.0335  150.0219 H   0  0  0  0  0  0  0  0  0  0  0  0
  144.6160  134.6211  150.4067 H   0  0  0  0  0  0  0  0  0  0  0  0
  146.0511  131.3170  150.7497 H   0  0  0  0  0  0  0  0  0  0  0  0
  146.5323  132.6966  149.7847 H   0  0  0  0  0  0  0  0  0  0  0  0
  147.7020  131.6686  152.5957 H   0  0  0  0  0  0  0  0  0  0  0  0
  148.4043  132.8419  151.5023 H   0  0  0  0  0  0  0  0  0  0  0  0
  149.1236  133.2802  153.8375 H   0  0  0  0  0  0  0  0  0  0  0  0
  148.2275  134.6280  153.1777 H   0  0  0  0  0  0  0  0  0  0  0  0
  147.1375  132.4720  155.0437 H   0  0  0  0  0  0  0  0  0  0  0  0
  148.1677  135.1496  155.4890 H   0  0  0  0  0  0  0  0  0  0  0  0
  148.3686  135.8746  157.2877 H   0  0  0  0  0  0  0  0  0  0  0  0
  146.6355  133.6000  159.6624 H   0  0  0  0  0  0  0  0  0  0  0  0
  146.3979  134.1430  162.0685 H   0  0  0  0  0  0  0  0  0  0  0  0
  147.1648  136.3863  162.8808 H   0  0  0  0  0  0  0  0  0  0  0  0
  146.9743  137.6616  157.5300 H   0  0  0  0  0  0  0  0  0  0  0  0
  147.3572  139.2640  158.1647 H   0  0  0  0  0  0  0  0  0  0  0  0
  148.7300  137.7326  155.9771 H   0  0  0  0  0  0  0  0  0  0  0  0
  148.5199  139.4791  156.1087 H   0  0  0  0  0  0  0  0  0  0  0  0
  150.9475  138.3952  156.6713 H   0  0  0  0  0  0  0  0  0  0  0  0
  150.2964  139.6318  157.7530 H   0  0  0  0  0  0  0  0  0  0  0  0
  150.6656  137.8230  159.2959 H   0  0  0  0  0  0  0  0  0  0  0  0
  150.1660  136.6213  158.0983 H   0  0  0  0  0  0  0  0  0  0  0  0
  144.9877  133.7070  154.9603 H   0  0  0  0  0  0  0  0  0  0  0  0
  145.6735  134.8946  153.8776 H   0  0  0  0  0  0  0  0  0  0  0  0
  144.3452  133.2788  152.5973 H   0  0  0  0  0  0  0  0  0  0  0  0
  145.2467  131.9258  153.2537 H   0  0  0  0  0  0  0  0  0  0  0  0
  146.3548  134.0811  151.6182 H   0  0  0  0  0  0  0  0  0  0  0  0
  1  2  1  0  0  0  0
  1 26  1  0  0  0  0
  1 27  1  0  0  0  0
  2  3  2  0  0  0  0
  2  4  1  0  0  0  0
  4  5  1  0  0  0  0
  4 28  1  0  0  0  0
  4 29  1  0  0  0  0
  5 25  1  0  0  0  0
  5  6  1  0  0  0  0
  5 52  1  0  0  0  0
  6  7  1  0  0  0  0
  6 30  1  0  0  0  0
  6 31  1  0  0  0  0
  7  8  1  0  0  0  0
  7 32  1  0  0  0  0
  7 33  1  0  0  0  0
  8  9  1  0  0  0  0
  8 24  1  0  0  0  0
  8 34  1  0  0  0  0
  9 10  1  0  0  0  0
  9 35  1  0  0  0  0
 10 11  2  0  0  0  0
 10 12  1  0  0  0  0
 12 13  1  0  0  0  0
 12 36  1  0  0  0  0
 13 18  1  0  0  0  0
 13 14  2  0  0  0  0
 14 15  1  0  0  0  0
 14 37  1  0  0  0  0
 15 16  2  0  0  0  0
 15 38  1  0  0  0  0
 16 17  1  0  0  0  0
 16 39  1  0  0  0  0
 17 18  2  0  0  0  0
 18 19  1  0  0  0  0
 19 23  1  0  0  0  0
 19 20  1  0  0  0  0
 20 21  1  0  0  0  0
 20 40  1  0  0  0  0
 20 41  1  0  0  0  0
 21 22  1  0  0  0  0
 21 42  1  0  0  0  0
 21 43  1  0  0  0  0
 22 23  1  0  0  0  0
 22 44  1  0  0  0  0
 22 45  1  0  0  0  0
 23 46  1  0  0  0  0
 23 47  1  0  0  0  0
 24 25  1  0  0  0  0
 24 48  1  0  0  0  0
 24 49  1  0  0  0  0
 25 50  1  0  0  0  0
 25 51  1  0  0  0  0
M  CHG  1   5   1
M  END
> <s_m_source_file>
AV-unprocessed.smi

> <i_m_source_file_index>
1740

> <i_lp_mmshare_version>
43012

> <i_f3d_flags>
0

> <s_epik_input>
W05IMl1DKD1PKVtDSDJdTjFbQ0gyXVtDSDJdW0NIXShbQ0gyXVtDSDJdMSlbTkhdQyg9TylbTkhdYzJbY0hdW2NIXVtjSF1uYzJOM1tDSDJdW0NIMl1bQ0gyXVtDSDJdMw==

> <s_epik_cmdline>
J2VwaWtfcHl0aG9uJywgJy1waCcsICc3LjAnLCAnLXRuJywgJzgnLCAnLW1hJywgJzIwMCcsICctbWV0YWxfYmluZGluZycsICctaW1hZScsICc8aW5maWxlLm1hZT4nLCAnLW9tYWUnLCAnPG91dGZpbGUubWFlPic=

> <r_lp_tautomer_probability>
1

> <r_epik_Ionization_Penalty>
0.91661

> <r_epik_Ionization_Penalty_Charging>
0.838844

> <r_epik_Ionization_Penalty_Neutral>
0.0777664

> <r_epik_State_Penalty>
0.927046

> <r_epik_Charging_Adjusted_Penalty>
1.76589

> <i_epik_Tot_Q>
1

> <i_epik_Tot_abs_Q>
1

> <r_epik_Metal_State_Penalty>
0.950555

> <b_epik_Metal_Only>
0

> <s_lp_Force_Field>
OPLS_2005

> <r_lp_Energy>
39.0638

> <b_lp_Chiralities_Consistent>
1

> <s_lp_Variant>
AV-unprocessed.smi:1740-2

> <Gold.Version>
5.8.1

> <Gold.Id.Protein>
6NUR|6NUR_protein|mol2

> <Gold.PLP.Fitness>
38.3703

> <Gold.PLP.PLP>
-28.4036

> <Gold.PLP.part.hbond>
-4.7897

> <Gold.PLP.part.metal>
0.0000

> <Gold.PLP.part.buried>
-3.9356

> <Gold.PLP.part.nonpolar>
-20.6870

> <Gold.PLP.part.repulsive>
0.2126

> <Gold.PLP.ligand.clash>
0.0000

> <Gold.PLP.ligand.torsion>
0.6602

> <Gold.PLP.Chemscore.Hbond>
3.6526

> <Gold.PLP.Chemscore.CHOScore>
0.0000

> <Gold.PLP.Chemscore.Metal>
0.0000

> <Gold.Chemscore.Hbonds>
donor molecule, donor type, donor heavy atom, donor atom, acceptor molecule, acceptor atom, score
      L1  H     1    26       P1 10186  0.84
      P1  H  6931  6943       L1    17  0.99
      P1  H  6934  6947       L1    17  0.74
      P1  H 10785 10796       L1     3  0.83

> <Gold.PLP.Chemscore.Internal.Correction>
0.3294

> <Gold.Rescore>
     Score         DG    S(hbond)    S(metal)    S(lipo)     H(rot)  DE(clash)    DE(int)     intcor
     14.29     -16.26       2.92        0.00      56.74       2.19       0.16       1.81       ----

> <Gold.Chemscore.Fitness>
14.2877

> <Gold.Chemscore.DG>
-16.2560

> <Gold.Chemscore.ZeroCoef>
-5.4800

> <Gold.Chemscore.Hbond>
2.9202

> <Gold.Chemscore.Metal>
0.0000

> <Gold.Chemscore.Lipo>
56.7433

> <Gold.Chemscore.Internal_Hbond>
0.0000

> <Gold.Chemscore.DEClash>
0.1611

> <Gold.Chemscore.DEInternal>
1.8072

> <Gold.Chemscore.Rot>
2.1939

> <Gold.Chemscore.Internal.Correction>
   9.000000E+99

> <Gold.Chemscore.Hbonds>
donor molecule, donor type, donor heavy atom, donor atom, acceptor molecule, acceptor atom, score
      L1  H     1    26       P1 10186  0.82
      P1  H  6931  6943       L1    17  0.83
      P1  H  6934  6947       L1    17  0.21
      P1  H 10785 10796       L1     3  0.78

> <Gold.Chemscore.Hbond.Weighted>
-9.7534

> <Gold.Chemscore.Metal.Weighted>
-0.0000

> <Gold.Chemscore.Lipo.Weighted>
-6.6390

> <Gold.Chemscore.Internal_Hbond.Weighted>
0.0000

> <Gold.Chemscore.DEClash.Weighted>
0.1611

> <Gold.Chemscore.DEInternal.Weighted>
1.8072

> <Gold.Chemscore.Rot.Weighted>
5.6163

> <Gold.Chemscore.Internal.Correction.Weighted>
   9.000000E+99

> <Gold.Protein.RotatedTorsions>
[ 6907 6896 6895 6894 ] final  161.53 input  -60.11 | X-H torsion
[ 7974 7965 7964 7962 ] final  -19.61 input  175.53 | X-H torsion
[ 8008 7997 7996 7995 ] final  -81.78 input   59.86 | X-H torsion
[ 10167 10162 10161 10158 ] final  178.83 input  -65.29 | X-H torsion
[ 10718 10713 10712 10709 ] final    7.83 input   66.30 | X-H torsion
[ 10763 10752 10751 10750 ] final -106.68 input  -60.55 | X-H torsion
[ 11005 11000 10999 10996 ] final   24.33 input  -57.11 | X-H torsion

> <Gold.Protein.ActiveResidues>
 VAL166  LYS551  ARG553  GLY616  TRP617  ASP618  TYR619  PRO620  LYS621  CYS622 
 ASP623  PHE694  ASN695  SER759  ASP760  ASP761  ALA762  ILE779  LEU786  VAL792 
 PHE793  MET794  SER795  GLU796  ALA797  LYS798  CYS799  TRP800  GLU811  SER814 

> <Gold.Protein.RotatedAtoms>
  151.9542  133.3675  159.4010 H   0  0  0  0  0  0  0  0  0  0  0  0  # atno 6907 bound_to 6896
  150.6975  134.4308  159.5257 H   0  0  0  0  0  0  0  0  0  0  0  0  # atno 6908 bound_to 6896
  152.1986  134.8608  160.0561 H   0  0  0  0  0  0  0  0  0  0  0  0  # atno 6909 bound_to 6896
  146.1832  140.4086  142.8486 H   0  0  0  0  0  0  0  0  0  0  0  0  # atno 7974 bound_to 7965
  154.6019  140.0643  156.9379 H   0  0  0  0  0  0  0  0  0  0  0  0  # atno 8008 bound_to 7997
  155.2118  140.3323  155.4309 H   0  0  0  0  0  0  0  0  0  0  0  0  # atno 8009 bound_to 7997
  156.2323  140.1846  156.7194 H   0  0  0  0  0  0  0  0  0  0  0  0  # atno 8010 bound_to 7997
  139.5310  144.2633  152.0689 H   0  0  0  0  0  0  0  0  0  0  0  0  # atno 10167 bound_to 10162
  156.9426  130.5867  149.5653 H   0  0  0  0  0  0  0  0  0  0  0  0  # atno 10718 bound_to 10713
  154.8027  135.4703  154.0316 H   0  0  0  0  0  0  0  0  0  0  0  0  # atno 10763 bound_to 10752
  153.1809  135.6840  153.8486 H   0  0  0  0  0  0  0  0  0  0  0  0  # atno 10764 bound_to 10752
  153.8037  135.3226  155.3370 H   0  0  0  0  0  0  0  0  0  0  0  0  # atno 10765 bound_to 10752
  140.3599  134.2137  155.7673 H   0  0  0  0  0  0  0  0  0  0  0  0  # atno 11005 bound_to 11000
  144.8351  140.6769  143.6266 LP  0  0  0  0  0  0  0  0  0  0  0  0  # atno 17320 bound_to 7965
  145.4016  139.1596  143.4174 LP  0  0  0  0  0  0  0  0  0  0  0  0  # atno 17321 bound_to 7965
  140.2096  144.4576  150.6392 LP  0  0  0  0  0  0  0  0  0  0  0  0  # atno 17342 bound_to 10162
  140.6489  143.2220  151.6123 LP  0  0  0  0  0  0  0  0  0  0  0  0  # atno 17343 bound_to 10162
  156.0397  130.5481  150.8742 LP  0  0  0  0  0  0  0  0  0  0  0  0  # atno 17370 bound_to 10713
  157.5775  131.0946  150.9323 LP  0  0  0  0  0  0  0  0  0  0  0  0  # atno 17371 bound_to 10713
  141.1987  133.8029  157.0569 LP  0  0  0  0  0  0  0  0  0  0  0  0  # atno 17394 bound_to 11000
  140.0635  134.9742  157.1346 LP  0  0  0  0  0  0  0  0  0  0  0  0  # atno 17395 bound_to 11000

$$$$
