AV-unprocessed.smi:1498|AV-procd|sdf|6059|dock8
  -GOLD-   22720 6173D 1   1.00000     0.00000
 Structure written by MMmdl.
 38 39  0  0  0  0  0  0  0  0  2 V2000
  145.7102  131.7089  150.0797 C   0  0  0  0  0  0  0  0  0  0  0  0
  145.7950  133.0621  150.6691 N   0  3  0  0  0  0  0  0  0  0  0  0
  145.9715  133.0297  152.1446 C   0  0  0  0  0  0  0  0  0  0  0  0
  146.0515  134.4518  152.7323 C   0  0  0  0  0  0  0  0  0  0  0  0
  144.8561  135.2067  152.3246 N   0  0  0  0  0  0  0  0  0  0  0  0
  143.7981  135.5152  153.1168 C   0  0  0  0  0  0  0  0  0  0  0  0
  143.5694  134.9285  154.1749 O   0  0  0  0  0  0  0  0  0  0  0  0
  142.9883  136.4648  152.6104 N   0  0  0  0  0  0  0  0  0  0  0  0
  141.8135  137.0058  153.1918 C   0  0  0  0  0  0  0  0  0  0  0  0
  141.0333  136.3595  154.1854 C   0  0  0  0  0  0  0  0  0  0  0  0
  139.9973  137.1035  154.5410 N   0  0  0  0  0  0  0  0  0  0  0  0
  140.0964  138.2280  153.7884 N   0  0  0  0  0  0  0  0  0  0  0  0
  139.1045  139.2793  153.9312 C   0  0  0  0  0  0  0  0  0  0  0  0
  139.7660  140.6413  154.1492 C   0  0  0  0  0  0  0  0  0  0  0  0
  140.5236  141.1177  153.1576 N   0  0  0  0  0  0  0  0  0  0  0  0
  139.5982  141.2541  155.2011 O   0  0  0  0  0  0  0  0  0  0  0  0
  141.1943  138.1997  152.9504 C   0  0  0  0  0  0  0  0  0  0  0  0
  144.7977  135.3418  150.8653 C   0  0  0  0  0  0  0  0  0  0  0  0
  144.6810  133.9433  150.2323 C   0  0  0  0  0  0  0  0  0  0  0  0
  144.8226  131.1827  150.4335 H   0  0  0  0  0  0  0  0  0  0  0  0
  146.5873  131.1180  150.3453 H   0  0  0  0  0  0  0  0  0  0  0  0
  145.6638  131.7653  148.9917 H   0  0  0  0  0  0  0  0  0  0  0  0
  145.1375  132.4906  152.5971 H   0  0  0  0  0  0  0  0  0  0  0  0
  146.8786  132.4765  152.3905 H   0  0  0  0  0  0  0  0  0  0  0  0
  146.1924  134.3911  153.8112 H   0  0  0  0  0  0  0  0  0  0  0  0
  146.9384  134.9616  152.3529 H   0  0  0  0  0  0  0  0  0  0  0  0
  143.2497  136.8499  151.7146 H   0  0  0  0  0  0  0  0  0  0  0  0
  141.1808  135.3964  154.6513 H   0  0  0  0  0  0  0  0  0  0  0  0
  138.4905  139.3035  153.0299 H   0  0  0  0  0  0  0  0  0  0  0  0
  138.4398  139.0488  154.7656 H   0  0  0  0  0  0  0  0  0  0  0  0
  140.9863  142.0093  153.2614 H   0  0  0  0  0  0  0  0  0  0  0  0
  140.6373  140.5798  152.3106 H   0  0  0  0  0  0  0  0  0  0  0  0
  141.4234  139.0162  152.2818 H   0  0  0  0  0  0  0  0  0  0  0  0
  143.9730  135.9741  150.5324 H   0  0  0  0  0  0  0  0  0  0  0  0
  145.7050  135.8364  150.5153 H   0  0  0  0  0  0  0  0  0  0  0  0
  144.6876  134.0274  149.1449 H   0  0  0  0  0  0  0  0  0  0  0  0
  143.7284  133.4897  150.5112 H   0  0  0  0  0  0  0  0  0  0  0  0
  146.6372  133.4798  150.2994 H   0  0  0  0  0  0  0  0  0  0  0  0
  1  2  1  0  0  0  0
  1 20  1  0  0  0  0
  1 21  1  0  0  0  0
  1 22  1  0  0  0  0
  2 19  1  0  0  0  0
  2  3  1  0  0  0  0
  2 38  1  0  0  0  0
  3  4  1  0  0  0  0
  3 23  1  0  0  0  0
  3 24  1  0  0  0  0
  4  5  1  0  0  0  0
  4 25  1  0  0  0  0
  4 26  1  0  0  0  0
  5  6  1  0  0  0  0
  5 18  1  0  0  0  0
  6  7  2  0  0  0  0
  6  8  1  0  0  0  0
  8  9  1  0  0  0  0
  8 27  1  0  0  0  0
  9 17  2  0  0  0  0
  9 10  1  0  0  0  0
 10 11  2  0  0  0  0
 10 28  1  0  0  0  0
 11 12  1  0  0  0  0
 12 13  1  0  0  0  0
 12 17  1  0  0  0  0
 13 14  1  0  0  0  0
 13 29  1  0  0  0  0
 13 30  1  0  0  0  0
 14 15  1  0  0  0  0
 14 16  2  0  0  0  0
 15 31  1  0  0  0  0
 15 32  1  0  0  0  0
 17 33  1  0  0  0  0
 18 19  1  0  0  0  0
 18 34  1  0  0  0  0
 18 35  1  0  0  0  0
 19 36  1  0  0  0  0
 19 37  1  0  0  0  0
M  CHG  1   2   1
M  END
> <s_m_source_file>
AV-unprocessed.smi

> <i_m_source_file_index>
1498

> <i_lp_mmshare_version>
43012

> <i_f3d_flags>
0

> <s_epik_input>
W0NIM11OMVtDSDJdW0NIMl1OKFtDSDJdW0NIMl0xKUMoPU8pW05IXWMyW2NIXW5uKFtjSF0yKVtDSDJdQyg9TylbTkgyXQ==

> <s_epik_cmdline>
J2VwaWtfcHl0aG9uJywgJy1waCcsICc3LjAnLCAnLXRuJywgJzgnLCAnLW1hJywgJzIwMCcsICctbWV0YWxfYmluZGluZycsICctaW1hZScsICc8aW5maWxlLm1hZT4nLCAnLW9tYWUnLCAnPG91dGZpbGUubWFlPic=

> <r_lp_tautomer_probability>
1

> <r_epik_Ionization_Penalty>
0.25453

> <r_epik_Ionization_Penalty_Charging>
0.254506

> <r_epik_Ionization_Penalty_Neutral>
2.46477e-05

> <r_epik_State_Penalty>
0.245983

> <r_epik_Charging_Adjusted_Penalty>
0.500488

> <i_epik_Tot_Q>
1

> <i_epik_Tot_abs_Q>
1

> <r_epik_Metal_State_Penalty>
0.245984

> <b_epik_Metal_Only>
0

> <s_lp_Force_Field>
OPLS_2005

> <r_lp_Energy>
51.0402

> <b_lp_Chiralities_Consistent>
1

> <s_lp_Variant>
AV-unprocessed.smi:1498-1

> <Gold.Version>
5.8.1

> <Gold.Id.Protein>
6NUR|6NUR_protein|mol2

> <Gold.PLP.Fitness>
39.0595

> <Gold.PLP.PLP>
-27.1954

> <Gold.PLP.part.hbond>
-2.6672

> <Gold.PLP.part.metal>
0.0000

> <Gold.PLP.part.buried>
-3.0731

> <Gold.PLP.part.nonpolar>
-22.0216

> <Gold.PLP.part.repulsive>
0.2968

> <Gold.PLP.ligand.clash>
0.0000

> <Gold.PLP.ligand.torsion>
0.4497

> <Gold.PLP.Chemscore.Hbond>
1.3251

> <Gold.PLP.Chemscore.CHOScore>
2.9125

> <Gold.PLP.Chemscore.Metal>
0.0000

> <Gold.Chemscore.Hbonds>
donor molecule, donor type, donor heavy atom, donor atom, acceptor molecule, acceptor atom, score
      L1  H    15    31       P1 10174  0.40
      L1  H    15    32       P1 10160  0.74
      L1  C    10    28       P1 11000  1.00
      L1  C    17    33       P1 10160  1.00
      L1  C    17    33       P1 10175  0.75

> <Gold.PLP.Chemscore.Internal.Correction>
0.0509

> <Gold.Rescore>
     Score         DG    S(hbond)    S(metal)    S(lipo)     H(rot)  DE(clash)    DE(int)     intcor
     10.05     -11.85       1.11        0.00      56.79       1.55       0.04       1.76       ----

> <Gold.Chemscore.Fitness>
10.0506

> <Gold.Chemscore.DG>
-11.8526

> <Gold.Chemscore.ZeroCoef>
-5.4800

> <Gold.Chemscore.Hbond>
1.1060

> <Gold.Chemscore.Metal>
0.0000

> <Gold.Chemscore.Lipo>
56.7948

> <Gold.Chemscore.Internal_Hbond>
0.0000

> <Gold.Chemscore.DEClash>
0.0377

> <Gold.Chemscore.DEInternal>
1.7643

> <Gold.Chemscore.Rot>
1.5494

> <Gold.Chemscore.Internal.Correction>
   9.000000E+99

> <Gold.Chemscore.Hbonds>
donor molecule, donor type, donor heavy atom, donor atom, acceptor molecule, acceptor atom, score
      L1  H    15    31       P1 10174  0.34
      L1  H    15    32       P1 10160  0.71

> <Gold.Chemscore.Hbond.Weighted>
-3.6941

> <Gold.Chemscore.Metal.Weighted>
-0.0000

> <Gold.Chemscore.Lipo.Weighted>
-6.6450

> <Gold.Chemscore.Internal_Hbond.Weighted>
0.0000

> <Gold.Chemscore.DEClash.Weighted>
0.0377

> <Gold.Chemscore.DEInternal.Weighted>
1.7643

> <Gold.Chemscore.Rot.Weighted>
3.9665

> <Gold.Chemscore.Internal.Correction.Weighted>
   9.000000E+99

> <Gold.Protein.RotatedTorsions>
[ 6907 6896 6895 6894 ] final  -65.89 input  -60.11 | X-H torsion
[ 7974 7965 7964 7962 ] final   74.21 input  175.53 | X-H torsion
[ 8008 7997 7996 7995 ] final  -30.47 input   59.86 | X-H torsion
[ 10167 10162 10161 10158 ] final  -56.38 input  -65.29 | X-H torsion
[ 10718 10713 10712 10709 ] final   94.87 input   66.30 | X-H torsion
[ 10763 10752 10751 10750 ] final -174.78 input  -60.55 | X-H torsion
[ 11005 11000 10999 10996 ] final -136.45 input  -57.11 | X-H torsion

> <Gold.Protein.ActiveResidues>
 VAL166  LYS551  ARG553  GLY616  TRP617  ASP618  TYR619  PRO620  LYS621  CYS622 
 ASP623  PHE694  ASN695  SER759  ASP760  ASP761  ALA762  ILE779  LEU786  VAL792 
 PHE793  MET794  SER795  GLU796  ALA797  LYS798  CYS799  TRP800  GLU811  SER814 

> <Gold.Protein.RotatedAtoms>
  150.7497  134.6097  159.6079 H   0  0  0  0  0  0  0  0  0  0  0  0  # atno 6907 bound_to 6896
  152.3434  134.7100  160.0266 H   0  0  0  0  0  0  0  0  0  0  0  0  # atno 6908 bound_to 6896
  151.7545  133.3293  159.3437 H   0  0  0  0  0  0  0  0  0  0  0  0  # atno 6909 bound_to 6896
  145.7312  139.2684  143.1540 H   0  0  0  0  0  0  0  0  0  0  0  0  # atno 7974 bound_to 7965
  154.4249  140.1790  156.1411 H   0  0  0  0  0  0  0  0  0  0  0  0  # atno 8008 bound_to 7997
  155.9991  140.3362  155.6802 H   0  0  0  0  0  0  0  0  0  0  0  0  # atno 8009 bound_to 7997
  155.6268  140.0665  157.2652 H   0  0  0  0  0  0  0  0  0  0  0  0  # atno 8010 bound_to 7997
  140.6320  143.2464  151.5216 H   0  0  0  0  0  0  0  0  0  0  0  0  # atno 10167 bound_to 10162
  157.6944  131.0527  150.4252 H   0  0  0  0  0  0  0  0  0  0  0  0  # atno 10718 bound_to 10713
  154.5922  135.2846  155.0623 H   0  0  0  0  0  0  0  0  0  0  0  0  # atno 10763 bound_to 10752
  154.1919  135.6439  153.5066 H   0  0  0  0  0  0  0  0  0  0  0  0  # atno 10764 bound_to 10752
  153.0125  135.5448  154.6612 H   0  0  0  0  0  0  0  0  0  0  0  0  # atno 10765 bound_to 10752
  140.8804  134.1939  157.4595 H   0  0  0  0  0  0  0  0  0  0  0  0  # atno 11005 bound_to 11000
  146.0536  140.8044  142.9769 LP  0  0  0  0  0  0  0  0  0  0  0  0  # atno 17320 bound_to 7965
  144.6892  140.3090  143.7251 LP  0  0  0  0  0  0  0  0  0  0  0  0  # atno 17321 bound_to 7965
  139.5533  144.2339  152.1569 LP  0  0  0  0  0  0  0  0  0  0  0  0  # atno 17342 bound_to 10162
  140.1585  144.5048  150.6646 LP  0  0  0  0  0  0  0  0  0  0  0  0  # atno 17343 bound_to 10162
  156.4623  130.4034  149.6568 LP  0  0  0  0  0  0  0  0  0  0  0  0  # atno 17370 bound_to 10713
  156.3679  130.7515  151.2495 LP  0  0  0  0  0  0  0  0  0  0  0  0  # atno 17371 bound_to 10713
  139.8719  134.9814  156.5116 LP  0  0  0  0  0  0  0  0  0  0  0  0  # atno 17394 bound_to 11000
  140.8468  133.8162  155.9129 LP  0  0  0  0  0  0  0  0  0  0  0  0  # atno 17395 bound_to 11000

$$$$
