AV-unprocessed.smi:1675|AV-procd|sdf|6716|dock5
  -GOLD-   22720 7463D 1   1.00000     0.00000
 Structure written by MMmdl.
 40 42  0  0  0  0  0  0  0  0  1 V2000
  153.6427  135.9355  163.9461 N   0  0  0  0  0  0  0  0  0  0  0  0
  154.2787  134.9337  163.3334 C   0  0  0  0  0  0  0  0  0  0  0  0
  154.5760  133.8932  163.9178 O   0  0  0  0  0  0  0  0  0  0  0  0
  154.6323  135.1369  161.8565 C   0  0  0  0  0  0  0  0  0  0  0  0
  154.1399  136.4074  161.3505 N   0  0  0  0  0  0  0  0  0  0  0  0
  154.5626  137.6805  161.6821 C   0  0  0  0  0  0  0  0  0  0  0  0
  153.7946  138.5315  160.9387 C   0  0  0  0  0  0  0  0  0  0  0  0
  153.8060  139.9486  160.8931 N   0  0  0  0  0  0  0  0  0  0  0  0
  153.0683  140.7498  160.1042 C   0  0  0  0  0  0  0  0  0  0  0  0
  152.2594  140.3476  159.2684 O   0  0  0  0  0  0  0  0  0  0  0  0
  153.3012  142.2547  160.2733 C   0  0  0  0  0  0  0  0  0  0  0  0
  151.9925  143.0674  160.4047 C   0  0  1  0  0  0  0  0  0  0  0  0
  152.1793  144.4549  161.0564 C   0  0  0  0  0  0  0  0  0  0  0  0
  151.4320  145.3950  160.0917 C   0  0  1  0  0  0  0  0  0  0  0  0
  152.2673  145.5695  158.8106 C   0  0  0  0  0  0  0  0  0  0  0  0
  152.1039  144.2065  158.1139 C   0  0  0  0  0  0  0  0  0  0  0  0
  151.2235  143.4172  159.1048 C   0  0  2  0  0  0  0  0  0  0  0  0
  150.2877  144.5137  159.6037 C   0  0  0  0  0  0  0  0  0  0  0  0
  152.9302  137.7050  160.1750 C   0  0  0  0  0  0  0  0  0  0  0  0
  153.1466  136.4229  160.4262 N   0  0  0  0  0  0  0  0  0  0  0  0
  153.3913  135.8466  164.9201 H   0  0  0  0  0  0  0  0  0  0  0  0
  153.4168  136.7774  163.4369 H   0  0  0  0  0  0  0  0  0  0  0  0
  155.7133  135.1068  161.7136 H   0  0  0  0  0  0  0  0  0  0  0  0
  154.2074  134.3202  161.2711 H   0  0  0  0  0  0  0  0  0  0  0  0
  155.3490  137.8531  162.4018 H   0  0  0  0  0  0  0  0  0  0  0  0
  154.4412  140.4042  161.5324 H   0  0  0  0  0  0  0  0  0  0  0  0
  153.9162  142.4259  161.1581 H   0  0  0  0  0  0  0  0  0  0  0  0
  153.8974  142.6101  159.4330 H   0  0  0  0  0  0  0  0  0  0  0  0
  151.3165  142.4927  161.0408 H   0  0  0  0  0  0  0  0  0  0  0  0
  151.7270  144.4747  162.0487 H   0  0  0  0  0  0  0  0  0  0  0  0
  153.2270  144.7373  161.1665 H   0  0  0  0  0  0  0  0  0  0  0  0
  151.1279  146.3378  160.5468 H   0  0  0  0  0  0  0  0  0  0  0  0
  151.8638  146.3692  158.1880 H   0  0  0  0  0  0  0  0  0  0  0  0
  153.3103  145.8055  159.0247 H   0  0  0  0  0  0  0  0  0  0  0  0
  151.5851  144.3302  157.1627 H   0  0  0  0  0  0  0  0  0  0  0  0
  153.0565  143.7235  157.9003 H   0  0  0  0  0  0  0  0  0  0  0  0
  150.7140  142.5655  158.6534 H   0  0  0  0  0  0  0  0  0  0  0  0
  149.6213  144.1869  160.4039 H   0  0  0  0  0  0  0  0  0  0  0  0
  149.6951  144.9734  158.8105 H   0  0  0  0  0  0  0  0  0  0  0  0
  152.1695  137.9857  159.4616 H   0  0  0  0  0  0  0  0  0  0  0  0
  1  2  1  0  0  0  0
  1 21  1  0  0  0  0
  1 22  1  0  0  0  0
  2  3  2  0  0  0  0
  2  4  1  0  0  0  0
  4  5  1  0  0  0  0
  4 23  1  0  0  0  0
  4 24  1  0  0  0  0
  5 20  1  0  0  0  0
  5  6  1  0  0  0  0
  6  7  2  0  0  0  0
  6 25  1  0  0  0  0
  7  8  1  0  0  0  0
  7 19  1  0  0  0  0
  8  9  1  0  0  0  0
  8 26  1  0  0  0  0
  9 10  2  0  0  0  0
  9 11  1  0  0  0  0
 11 12  1  0  0  0  0
 11 27  1  0  0  0  0
 11 28  1  0  0  0  0
 12 17  1  0  0  0  0
 12 13  1  0  0  0  0
 12 29  1  0  0  0  0
 13 14  1  0  0  0  0
 13 30  1  0  0  0  0
 13 31  1  0  0  0  0
 14 18  1  0  0  0  0
 14 15  1  0  0  0  0
 14 32  1  0  0  0  0
 15 16  1  0  0  0  0
 15 33  1  0  0  0  0
 15 34  1  0  0  0  0
 16 17  1  0  0  0  0
 16 35  1  0  0  0  0
 16 36  1  0  0  0  0
 17 18  1  0  0  0  0
 17 37  1  0  0  0  0
 18 38  1  0  0  0  0
 18 39  1  0  0  0  0
 19 20  2  0  0  0  0
 19 40  1  0  0  0  0
M  END
> <s_m_source_file>
AV-unprocessed.smi

> <i_m_source_file_index>
1675

> <i_lp_mmshare_version>
43012

> <i_f3d_flags>
0

> <s_epik_input>
W05IMl1DKD1PKVtDSDJdbjFbY0hdYyhbY0hdbjEpW05IXUMoPU8pW0NIMl1bQ0BIXShbQ0gyXVtDQEBIXTIzKVtDQEBIXShbQ0gyXTMpW0NIMl1bQ0gyXTI=

> <s_epik_cmdline>
J2VwaWtfcHl0aG9uJywgJy1waCcsICc3LjAnLCAnLXRuJywgJzgnLCAnLW1hJywgJzIwMCcsICctbWV0YWxfYmluZGluZycsICctaW1hZScsICc8aW5maWxlLm1hZT4nLCAnLW9tYWUnLCAnPG91dGZpbGUubWFlPic=

> <r_lp_tautomer_probability>
1

> <r_epik_Ionization_Penalty>
2.17494e-05

> <r_epik_Ionization_Penalty_Charging>
0

> <r_epik_Ionization_Penalty_Neutral>
2.17494e-05

> <r_epik_State_Penalty>
-0

> <r_epik_Charging_Adjusted_Penalty>
0

> <i_epik_Tot_Q>
0

> <i_epik_Tot_abs_Q>
0

> <r_epik_Metal_State_Penalty>
-0

> <b_epik_Metal_Only>
0

> <s_lp_Force_Field>
OPLS_2005

> <r_lp_Energy>
53.8381

> <b_lp_Chiralities_Consistent>
1

> <s_lp_Variant>
AV-unprocessed.smi:1675-2

> <Gold.Version>
5.8.1

> <Gold.Id.Protein>
6NUR|6NUR_protein|mol2

> <Gold.PLP.Fitness>
45.0322

> <Gold.PLP.PLP>
-42.7706

> <Gold.PLP.part.hbond>
-1.0000

> <Gold.PLP.part.metal>
0.0000

> <Gold.PLP.part.buried>
-6.7683

> <Gold.PLP.part.nonpolar>
-34.3961

> <Gold.PLP.part.repulsive>
0.1176

> <Gold.PLP.ligand.clash>
0.0000

> <Gold.PLP.ligand.torsion>
0.3932

> <Gold.PLP.Chemscore.Hbond>
1.0000

> <Gold.PLP.Chemscore.CHOScore>
0.0000

> <Gold.PLP.Chemscore.Metal>
0.0000

> <Gold.Chemscore.Hbonds>
donor molecule, donor type, donor heavy atom, donor atom, acceptor molecule, acceptor atom, score
      P1  H  6896  6909       L1    20  1.00

> <Gold.PLP.Chemscore.Internal.Correction>
0.0480

> <Gold.Rescore>
     Score         DG    S(hbond)    S(metal)    S(lipo)     H(rot)  DE(clash)    DE(int)     intcor
     13.75     -16.51       0.99        0.00     112.99       2.15       0.01       2.75       ----

> <Gold.Chemscore.Fitness>
13.7464

> <Gold.Chemscore.DG>
-16.5063

> <Gold.Chemscore.ZeroCoef>
-5.4800

> <Gold.Chemscore.Hbond>
0.9900

> <Gold.Chemscore.Metal>
0.0000

> <Gold.Chemscore.Lipo>
112.9916

> <Gold.Chemscore.Internal_Hbond>
0.0000

> <Gold.Chemscore.DEClash>
0.0073

> <Gold.Chemscore.DEInternal>
2.7525

> <Gold.Chemscore.Rot>
2.1486

> <Gold.Chemscore.Internal.Correction>
   9.000000E+99

> <Gold.Chemscore.Hbonds>
donor molecule, donor type, donor heavy atom, donor atom, acceptor molecule, acceptor atom, score
      P1  H  6896  6909       L1    20  1.00

> <Gold.Chemscore.Hbond.Weighted>
-3.3066

> <Gold.Chemscore.Metal.Weighted>
-0.0000

> <Gold.Chemscore.Lipo.Weighted>
-13.2200

> <Gold.Chemscore.Internal_Hbond.Weighted>
0.0000

> <Gold.Chemscore.DEClash.Weighted>
0.0073

> <Gold.Chemscore.DEInternal.Weighted>
2.7525

> <Gold.Chemscore.Rot.Weighted>
5.5004

> <Gold.Chemscore.Internal.Correction.Weighted>
   9.000000E+99

> <Gold.Protein.RotatedTorsions>
[ 6907 6896 6895 6894 ] final  150.09 input  -60.11 | X-H torsion
[ 7974 7965 7964 7962 ] final  -90.73 input  175.53 | X-H torsion
[ 8008 7997 7996 7995 ] final -144.83 input   59.86 | X-H torsion
[ 10167 10162 10161 10158 ] final  111.89 input  -65.29 | X-H torsion
[ 10718 10713 10712 10709 ] final -172.88 input   66.30 | X-H torsion
[ 10763 10752 10751 10750 ] final   51.69 input  -60.55 | X-H torsion
[ 11005 11000 10999 10996 ] final   -1.16 input  -57.11 | X-H torsion

> <Gold.Protein.ActiveResidues>
 VAL166  LYS551  ARG553  GLY616  TRP617  ASP618  TYR619  PRO620  LYS621  CYS622 
 ASP623  PHE694  ASN695  SER759  ASP760  ASP761  ALA762  ILE779  LEU786  VAL792 
 PHE793  MET794  SER795  GLU796  ALA797  LYS798  CYS799  TRP800  GLU811  SER814 

> <Gold.Protein.RotatedAtoms>
  152.1191  133.4343  159.4666 H   0  0  0  0  0  0  0  0  0  0  0  0  # atno 6907 bound_to 6896
  150.6871  134.2556  159.4538 H   0  0  0  0  0  0  0  0  0  0  0  0  # atno 6908 bound_to 6896
  152.0431  134.9698  160.0625 H   0  0  0  0  0  0  0  0  0  0  0  0  # atno 6909 bound_to 6896
  145.4225  140.9552  143.2173 H   0  0  0  0  0  0  0  0  0  0  0  0  # atno 7974 bound_to 7965
  155.5332  140.0601  157.2885 H   0  0  0  0  0  0  0  0  0  0  0  0  # atno 8008 bound_to 7997
  154.4477  140.1932  156.0560 H   0  0  0  0  0  0  0  0  0  0  0  0  # atno 8009 bound_to 7997
  156.0637  140.3269  155.7496 H   0  0  0  0  0  0  0  0  0  0  0  0  # atno 8010 bound_to 7997
  139.6577  144.7129  151.1925 H   0  0  0  0  0  0  0  0  0  0  0  0  # atno 10167 bound_to 10162
  156.7621  130.9417  151.3118 H   0  0  0  0  0  0  0  0  0  0  0  0  # atno 10718 bound_to 10713
  152.9786  135.5837  154.4457 H   0  0  0  0  0  0  0  0  0  0  0  0  # atno 10763 bound_to 10752
  154.4052  135.2769  155.2073 H   0  0  0  0  0  0  0  0  0  0  0  0  # atno 10764 bound_to 10752
  154.3887  135.6130  153.5885 H   0  0  0  0  0  0  0  0  0  0  0  0  # atno 10765 bound_to 10752
  140.6443  133.9461  155.8343 H   0  0  0  0  0  0  0  0  0  0  0  0  # atno 11005 bound_to 11000
  144.8236  139.5749  143.6976 LP  0  0  0  0  0  0  0  0  0  0  0  0  # atno 17320 bound_to 7965
  146.2649  139.6496  142.9336 LP  0  0  0  0  0  0  0  0  0  0  0  0  # atno 17321 bound_to 7965
  140.7566  143.6045  150.8667 LP  0  0  0  0  0  0  0  0  0  0  0  0  # atno 17342 bound_to 10162
  139.9699  143.6068  152.2976 LP  0  0  0  0  0  0  0  0  0  0  0  0  # atno 17343 bound_to 10162
  157.6730  130.9068  150.0083 LP  0  0  0  0  0  0  0  0  0  0  0  0  # atno 17370 bound_to 10713
  156.1332  130.3643  149.9698 LP  0  0  0  0  0  0  0  0  0  0  0  0  # atno 17371 bound_to 10713
  141.0584  134.0383  157.3692 LP  0  0  0  0  0  0  0  0  0  0  0  0  # atno 17394 bound_to 11000
  139.9069  135.0181  156.7523 LP  0  0  0  0  0  0  0  0  0  0  0  0  # atno 17395 bound_to 11000

$$$$
