AV-unprocessed.smi:3264|AV-procd|sdf|12494|dock4
  -GOLD-   2272018393D 1   1.00000     0.00000
 Structure written by MMmdl.
 32 33  0  0  0  0  0  0  0  0  1 V2000
  154.4361  141.0234  160.9699 C   0  0  0  0  0  0  0  0  0  0  0  0
  153.5610  142.2295  160.9736 C   0  0  0  0  0  0  0  0  0  0  0  0
  153.0667  142.7846  159.8642 N   0  0  0  0  0  0  0  0  0  0  0  0
  152.2712  143.9037  160.1305 C   0  0  0  0  0  0  0  0  0  0  0  0
  151.6293  144.6516  159.0015 C   0  0  0  0  0  0  0  0  0  0  0  0
  152.0210  144.0792  157.6291 C   0  0  0  0  0  0  0  0  0  0  0  0
  151.0354  143.1199  157.1443 N   0  0  0  0  0  0  0  0  0  0  0  0
  150.9899  141.8220  157.4817 C   0  0  0  0  0  0  0  0  0  0  0  0
  151.7972  141.2950  158.2480 O   0  0  0  0  0  0  0  0  0  0  0  0
  149.8667  140.9948  156.8459 C   0  0  2  0  0  0  0  0  0  0  0  0
  150.0453  140.7403  155.3367 C   0  0  0  0  0  0  0  0  0  0  0  0
  148.9135  141.5244  154.7002 C   0  0  0  0  0  0  0  0  0  0  0  0
  147.8690  141.5277  155.8069 C   0  0  0  0  0  0  0  0  0  0  0  0
  148.6490  141.7250  156.9749 O   0  0  0  0  0  0  0  0  0  0  0  0
  152.1683  144.1882  161.4693 C   0  0  0  0  0  0  0  0  0  0  0  0
  153.0689  143.0597  162.4445 S   0  0  0  0  0  0  0  0  0  0  0  0
  155.0268  140.9841  160.0541 H   0  0  0  0  0  0  0  0  0  0  0  0
  153.8268  140.1221  161.0345 H   0  0  0  0  0  0  0  0  0  0  0  0
  155.1156  141.0495  161.8218 H   0  0  0  0  0  0  0  0  0  0  0  0
  150.5447  144.6265  159.1142 H   0  0  0  0  0  0  0  0  0  0  0  0
  151.9089  145.7048  159.0491 H   0  0  0  0  0  0  0  0  0  0  0  0
  152.0934  144.8844  156.8974 H   0  0  0  0  0  0  0  0  0  0  0  0
  153.0067  143.6131  157.6759 H   0  0  0  0  0  0  0  0  0  0  0  0
  150.3384  143.4665  156.5009 H   0  0  0  0  0  0  0  0  0  0  0  0
  149.7623  140.0407  157.3653 H   0  0  0  0  0  0  0  0  0  0  0  0
  151.0179  141.0390  154.9436 H   0  0  0  0  0  0  0  0  0  0  0  0
  149.9253  139.6765  155.1280 H   0  0  0  0  0  0  0  0  0  0  0  0
  149.2368  142.5450  154.4903 H   0  0  0  0  0  0  0  0  0  0  0  0
  148.5524  141.0802  153.7723 H   0  0  0  0  0  0  0  0  0  0  0  0
  147.1230  142.3129  155.6832 H   0  0  0  0  0  0  0  0  0  0  0  0
  147.3567  140.5661  155.8649 H   0  0  0  0  0  0  0  0  0  0  0  0
  151.6171  144.9892  161.9395 H   0  0  0  0  0  0  0  0  0  0  0  0
  1  2  1  0  0  0  0
  1 17  1  0  0  0  0
  1 18  1  0  0  0  0
  1 19  1  0  0  0  0
  2 16  1  0  0  0  0
  2  3  2  0  0  0  0
  3  4  1  0  0  0  0
  4  5  1  0  0  0  0
  4 15  2  0  0  0  0
  5  6  1  0  0  0  0
  5 20  1  0  0  0  0
  5 21  1  0  0  0  0
  6  7  1  0  0  0  0
  6 22  1  0  0  0  0
  6 23  1  0  0  0  0
  7  8  1  0  0  0  0
  7 24  1  0  0  0  0
  8  9  2  0  0  0  0
  8 10  1  0  0  0  0
 10 14  1  0  0  0  0
 10 11  1  0  0  0  0
 10 25  1  0  0  0  0
 11 12  1  0  0  0  0
 11 26  1  0  0  0  0
 11 27  1  0  0  0  0
 12 13  1  0  0  0  0
 12 28  1  0  0  0  0
 12 29  1  0  0  0  0
 13 14  1  0  0  0  0
 13 30  1  0  0  0  0
 13 31  1  0  0  0  0
 15 16  1  0  0  0  0
 15 32  1  0  0  0  0
M  END
> <s_m_source_file>
AV-unprocessed.smi

> <i_m_source_file_index>
3264

> <i_lp_mmshare_version>
43012

> <i_f3d_flags>
0

> <s_epik_input>
W0NIM11jMW5jKFtjSF1zMSlbQ0gyXVtDSDJdW05IXUMoPU8pW0NAQEhdMltDSDJdW0NIMl1bQ0gyXU8y

> <s_epik_cmdline>
J2VwaWtfcHl0aG9uJywgJy1waCcsICc3LjAnLCAnLXRuJywgJzgnLCAnLW1hJywgJzIwMCcsICctbWV0YWxfYmluZGluZycsICctaW1hZScsICc8aW5maWxlLm1hZT4nLCAnLW9tYWUnLCAnPG91dGZpbGUubWFlPic=

> <r_epik_Ionization_Penalty>
0.00112246

> <r_epik_Ionization_Penalty_Charging>
0

> <r_epik_Ionization_Penalty_Neutral>
0.00112246

> <r_epik_State_Penalty>
0.000737392

> <r_epik_Charging_Adjusted_Penalty>
0.000737392

> <i_epik_Tot_Q>
0

> <i_epik_Tot_abs_Q>
0

> <r_epik_Metal_State_Penalty>
-0

> <b_epik_Metal_Only>
0

> <s_lp_Force_Field>
OPLS_2005

> <r_lp_Energy>
12.7546

> <b_lp_Chiralities_Consistent>
1

> <s_lp_Variant>
AV-unprocessed.smi:3264-1

> <Gold.Version>
5.8.1

> <Gold.Id.Protein>
6NUR|6NUR_protein|mol2

> <Gold.PLP.Fitness>
43.5086

> <Gold.PLP.PLP>
-41.8376

> <Gold.PLP.part.hbond>
-1.0000

> <Gold.PLP.part.metal>
0.0000

> <Gold.PLP.part.buried>
-4.2367

> <Gold.PLP.part.nonpolar>
-36.3368

> <Gold.PLP.part.repulsive>
0.3485

> <Gold.PLP.ligand.clash>
0.0000

> <Gold.PLP.ligand.torsion>
0.6711

> <Gold.PLP.Chemscore.Hbond>
1.0000

> <Gold.PLP.Chemscore.CHOScore>
0.0000

> <Gold.PLP.Chemscore.Metal>
0.0000

> <Gold.Chemscore.Hbonds>
donor molecule, donor type, donor heavy atom, donor atom, acceptor molecule, acceptor atom, score
      L1  H     7    24       P1  8028  0.86

> <Gold.PLP.Chemscore.Internal.Correction>
0.0131

> <Gold.Rescore>
     Score         DG    S(hbond)    S(metal)    S(lipo)     H(rot)  DE(clash)    DE(int)     intcor
     15.31     -17.45       0.97        0.00     107.82       1.52       0.07       2.07       ----

> <Gold.Chemscore.Fitness>
15.3098

> <Gold.Chemscore.DG>
-17.4518

> <Gold.Chemscore.ZeroCoef>
-5.4800

> <Gold.Chemscore.Hbond>
0.9693

> <Gold.Chemscore.Metal>
0.0000

> <Gold.Chemscore.Lipo>
107.8213

> <Gold.Chemscore.Internal_Hbond>
0.0000

> <Gold.Chemscore.DEClash>
0.0718

> <Gold.Chemscore.DEInternal>
2.0702

> <Gold.Chemscore.Rot>
1.5159

> <Gold.Chemscore.Internal.Correction>
   9.000000E+99

> <Gold.Chemscore.Hbonds>
donor molecule, donor type, donor heavy atom, donor atom, acceptor molecule, acceptor atom, score
      L1  H     7    24       P1  8028  0.83

> <Gold.Chemscore.Hbond.Weighted>
-3.2373

> <Gold.Chemscore.Metal.Weighted>
-0.0000

> <Gold.Chemscore.Lipo.Weighted>
-12.6151

> <Gold.Chemscore.Internal_Hbond.Weighted>
0.0000

> <Gold.Chemscore.DEClash.Weighted>
0.0718

> <Gold.Chemscore.DEInternal.Weighted>
2.0702

> <Gold.Chemscore.Rot.Weighted>
3.8807

> <Gold.Chemscore.Internal.Correction.Weighted>
   9.000000E+99

> <Gold.Protein.RotatedTorsions>
[ 6907 6896 6895 6894 ] final  106.35 input  -60.11 | X-H torsion
[ 7974 7965 7964 7962 ] final   18.38 input  175.53 | X-H torsion
[ 8008 7997 7996 7995 ] final  -13.13 input   59.86 | X-H torsion
[ 10167 10162 10161 10158 ] final  -84.06 input  -65.29 | X-H torsion
[ 10718 10713 10712 10709 ] final  -73.73 input   66.30 | X-H torsion
[ 10763 10752 10751 10750 ] final   49.03 input  -60.55 | X-H torsion
[ 11005 11000 10999 10996 ] final  -90.63 input  -57.11 | X-H torsion

> <Gold.Protein.ActiveResidues>
 VAL166  LYS551  ARG553  GLY616  TRP617  ASP618  TYR619  PRO620  LYS621  CYS622 
 ASP623  PHE694  ASN695  SER759  ASP760  ASP761  ALA762  ILE779  LEU786  VAL792 
 PHE793  MET794  SER795  GLU796  ALA797  LYS798  CYS799  TRP800  GLU811  SER814 

> <Gold.Protein.RotatedAtoms>
  152.5197  133.9394  159.7618 H   0  0  0  0  0  0  0  0  0  0  0  0  # atno 6907 bound_to 6896
  150.9728  133.6318  159.2742 H   0  0  0  0  0  0  0  0  0  0  0  0  # atno 6908 bound_to 6896
  151.3523  135.0893  159.9460 H   0  0  0  0  0  0  0  0  0  0  0  0  # atno 6909 bound_to 6896
  146.2187  139.8465  142.8631 H   0  0  0  0  0  0  0  0  0  0  0  0  # atno 7974 bound_to 7965
  154.5318  140.2258  155.8791 H   0  0  0  0  0  0  0  0  0  0  0  0  # atno 8008 bound_to 7997
  156.1771  140.3108  155.9044 H   0  0  0  0  0  0  0  0  0  0  0  0  # atno 8009 bound_to 7997
  155.3435  140.0452  157.3036 H   0  0  0  0  0  0  0  0  0  0  0  0  # atno 8010 bound_to 7997
  140.4168  143.2600  151.8944 H   0  0  0  0  0  0  0  0  0  0  0  0  # atno 10167 bound_to 10162
  156.0269  130.4401  150.2786 H   0  0  0  0  0  0  0  0  0  0  0  0  # atno 10718 bound_to 10713
  152.9788  135.5925  154.4023 H   0  0  0  0  0  0  0  0  0  0  0  0  # atno 10763 bound_to 10752
  154.3667  135.2767  155.2291 H   0  0  0  0  0  0  0  0  0  0  0  0  # atno 10764 bound_to 10752
  154.4264  135.6046  153.6096 H   0  0  0  0  0  0  0  0  0  0  0  0  # atno 10765 bound_to 10752
  141.1562  133.7704  156.9764 H   0  0  0  0  0  0  0  0  0  0  0  0  # atno 11005 bound_to 11000
  145.2845  141.0148  143.3698 LP  0  0  0  0  0  0  0  0  0  0  0  0  # atno 17320 bound_to 7965
  144.9125  139.4511  143.6580 LP  0  0  0  0  0  0  0  0  0  0  0  0  # atno 17321 bound_to 7965
  139.4782  144.5480  151.8429 LP  0  0  0  0  0  0  0  0  0  0  0  0  # atno 17342 bound_to 10162
  140.4578  144.1765  150.5903 LP  0  0  0  0  0  0  0  0  0  0  0  0  # atno 17343 bound_to 10162
  157.0889  131.0164  151.3129 LP  0  0  0  0  0  0  0  0  0  0  0  0  # atno 17370 bound_to 10713
  157.4869  130.7799  149.7469 LP  0  0  0  0  0  0  0  0  0  0  0  0  # atno 17371 bound_to 10713
  140.1095  134.9486  157.2044 LP  0  0  0  0  0  0  0  0  0  0  0  0  # atno 17394 bound_to 11000
  140.3213  134.2913  155.7246 LP  0  0  0  0  0  0  0  0  0  0  0  0  # atno 17395 bound_to 11000

$$$$
