AV-unprocessed.smi:244|AV-procd|sdf|1873|dock2
  -GOLD-   2262020513D 1   1.00000     0.00000
 Structure written by MMmdl.
 56 60  0  0  0  0  0  0  0  0  1 V2000
  147.6480  139.0241  153.4466 C   0  0  0  0  0  0  0  0  0  0  0  0
  148.7425  139.0501  154.4060 N   0  0  0  0  0  0  0  0  0  0  0  0
  149.0635  140.4367  154.7417 C   0  0  0  0  0  0  0  0  0  0  0  0
  150.1494  140.4693  155.8279 C   0  0  0  0  0  0  0  0  0  0  0  0
  151.4200  139.7506  155.3381 C   0  0  1  0  0  0  0  0  0  0  0  0
  152.4613  139.7287  156.3174 O   0  0  0  0  0  0  0  0  0  0  0  0
  152.2219  138.8582  157.4203 C   0  0  0  0  0  0  0  0  0  0  0  0
  151.9792  137.4296  156.9149 C   0  0  0  0  0  0  0  0  0  0  0  0
  150.8789  137.4163  155.9599 N   0  0  0  0  0  0  0  0  0  0  0  0
  150.4971  136.1611  155.6395 C   0  0  0  0  0  0  0  0  0  0  0  0
  151.4268  135.1832  155.7676 N   0  0  0  0  0  0  0  0  0  0  0  0
  151.1070  133.9175  155.4824 C   0  0  0  0  0  0  0  0  0  0  0  0
  149.9409  133.4261  155.0574 N   0  0  0  0  0  0  0  0  0  0  0  0
  149.0070  134.4110  154.9211 C   0  0  0  0  0  0  0  0  0  0  0  0
  149.1975  135.7953  155.1896 C   0  0  0  0  0  0  0  0  0  0  0  0
  148.0222  136.4936  154.9399 N   0  0  0  0  0  0  0  0  0  0  0  0
  147.1863  135.5746  154.5392 C   0  0  0  0  0  0  0  0  0  0  0  0
  147.6962  134.2966  154.4931 N   0  0  0  0  0  0  0  0  0  0  0  0
  146.9910  133.0919  154.0838 C   0  0  0  0  0  0  0  0  0  0  0  0
  146.6211  133.0635  152.5802 C   0  0  0  0  0  0  0  0  0  0  0  0
  147.8275  133.1306  151.8386 O   0  0  0  0  0  0  0  0  0  0  0  0
  145.8684  131.7761  152.1769 C   0  0  0  0  0  0  0  0  0  0  0  0
  145.3192  131.8488  150.7412 C   0  0  0  0  0  0  0  0  0  0  0  0
  144.5035  133.0036  150.5855 O   0  0  0  0  0  0  0  0  0  0  0  0
  145.2237  134.2152  150.7754 C   0  0  0  0  0  0  0  0  0  0  0  0
  145.7591  134.2888  152.2164 C   0  0  0  0  0  0  0  0  0  0  0  0
  151.0930  138.3279  154.8315 C   0  0  1  0  0  0  0  0  0  0  0  0
  149.9074  138.3724  153.8316 C   0  0  0  0  0  0  0  0  0  0  0  0
  146.7614  139.5009  153.8658 H   0  0  0  0  0  0  0  0  0  0  0  0
  147.3833  137.9960  153.1964 H   0  0  0  0  0  0  0  0  0  0  0  0
  147.9135  139.5439  152.5251 H   0  0  0  0  0  0  0  0  0  0  0  0
  149.3940  140.9762  153.8526 H   0  0  0  0  0  0  0  0  0  0  0  0
  148.1687  140.9404  155.1096 H   0  0  0  0  0  0  0  0  0  0  0  0
  150.3841  141.5013  156.0887 H   0  0  0  0  0  0  0  0  0  0  0  0
  149.7542  140.0027  156.7301 H   0  0  0  0  0  0  0  0  0  0  0  0
  151.8101  140.3236  154.4960 H   0  0  0  0  0  0  0  0  0  0  0  0
  153.0936  138.8779  158.0745 H   0  0  0  0  0  0  0  0  0  0  0  0
  151.3807  139.2085  158.0177 H   0  0  0  0  0  0  0  0  0  0  0  0
  152.8849  137.0479  156.4419 H   0  0  0  0  0  0  0  0  0  0  0  0
  151.7533  136.7721  157.7557 H   0  0  0  0  0  0  0  0  0  0  0  0
  151.8991  133.1951  155.6140 H   0  0  0  0  0  0  0  0  0  0  0  0
  146.1687  135.8048  154.2584 H   0  0  0  0  0  0  0  0  0  0  0  0
  147.6178  132.2340  154.3306 H   0  0  0  0  0  0  0  0  0  0  0  0
  146.0941  132.9968  154.6978 H   0  0  0  0  0  0  0  0  0  0  0  0
  147.9921  132.2822  151.4561 H   0  0  0  0  0  0  0  0  0  0  0  0
  146.5107  130.9004  152.2787 H   0  0  0  0  0  0  0  0  0  0  0  0
  145.0308  131.6226  152.8587 H   0  0  0  0  0  0  0  0  0  0  0  0
  146.1291  131.8600  150.0103 H   0  0  0  0  0  0  0  0  0  0  0  0
  144.7172  130.9649  150.5293 H   0  0  0  0  0  0  0  0  0  0  0  0
  146.0342  134.2881  150.0485 H   0  0  0  0  0  0  0  0  0  0  0  0
  144.5537  135.0538  150.5852 H   0  0  0  0  0  0  0  0  0  0  0  0
  144.9077  134.3450  152.8962 H   0  0  0  0  0  0  0  0  0  0  0  0
  146.3241  135.2109  152.3594 H   0  0  0  0  0  0  0  0  0  0  0  0
  151.9683  137.9641  154.2920 H   0  0  0  0  0  0  0  0  0  0  0  0
  149.6331  137.3684  153.5065 H   0  0  0  0  0  0  0  0  0  0  0  0
  150.2185  138.9058  152.9321 H   0  0  0  0  0  0  0  0  0  0  0  0
  1  2  1  0  0  0  0
  1 29  1  0  0  0  0
  1 30  1  0  0  0  0
  1 31  1  0  0  0  0
  2 28  1  0  0  0  0
  2  3  1  0  0  0  0
  3  4  1  0  0  0  0
  3 32  1  0  0  0  0
  3 33  1  0  0  0  0
  4  5  1  0  0  0  0
  4 34  1  0  0  0  0
  4 35  1  0  0  0  0
  5 27  1  0  0  0  0
  5  6  1  0  0  0  0
  5 36  1  0  0  0  0
  6  7  1  0  0  0  0
  7  8  1  0  0  0  0
  7 37  1  0  0  0  0
  7 38  1  0  0  0  0
  8  9  1  0  0  0  0
  8 39  1  0  0  0  0
  8 40  1  0  0  0  0
  9 10  1  0  0  0  0
  9 27  1  0  0  0  0
 10 15  1  0  0  0  0
 10 11  2  0  0  0  0
 11 12  1  0  0  0  0
 12 13  2  0  0  0  0
 12 41  1  0  0  0  0
 13 14  1  0  0  0  0
 14 18  1  0  0  0  0
 14 15  2  0  0  0  0
 15 16  1  0  0  0  0
 16 17  2  0  0  0  0
 17 18  1  0  0  0  0
 17 42  1  0  0  0  0
 18 19  1  0  0  0  0
 19 20  1  0  0  0  0
 19 43  1  0  0  0  0
 19 44  1  0  0  0  0
 20 26  1  0  0  0  0
 20 21  1  0  0  0  0
 20 22  1  0  0  0  0
 21 45  1  0  0  0  0
 22 23  1  0  0  0  0
 22 46  1  0  0  0  0
 22 47  1  0  0  0  0
 23 24  1  0  0  0  0
 23 48  1  0  0  0  0
 23 49  1  0  0  0  0
 24 25  1  0  0  0  0
 25 26  1  0  0  0  0
 25 50  1  0  0  0  0
 25 51  1  0  0  0  0
 26 52  1  0  0  0  0
 26 53  1  0  0  0  0
 27 28  1  0  0  0  0
 27 54  1  0  0  0  0
 28 55  1  0  0  0  0
 28 56  1  0  0  0  0
M  END
> <s_m_source_file>
AV-unprocessed.smi

> <i_m_source_file_index>
244

> <i_lp_mmshare_version>
43012

> <i_f3d_flags>
0

> <s_epik_input>
W0NIMl0xW0NIMl1OKFtDSDNdKVtDSDJdW0NAQEhdKFtDQEhdMTIpTihbQ0gyXVtDSDJdTzIpYyhuW2NIXW4zKWMoYzM0KW5bY0hdbjRbQ0gyXUM1KFtPSF0pW0NIMl1bQ0gyXU9bQ0gyXVtDSDJdNQ==

> <s_epik_cmdline>
J2VwaWtfcHl0aG9uJywgJy1waCcsICc3LjAnLCAnLXRuJywgJzgnLCAnLW1hJywgJzIwMCcsICctbWV0YWxfYmluZGluZycsICctaW1hZScsICc8aW5maWxlLm1hZT4nLCAnLW9tYWUnLCAnPG91dGZpbGUubWFlPic=

> <r_lp_tautomer_probability>
1

> <r_epik_Ionization_Penalty>
2.27765

> <r_epik_Ionization_Penalty_Charging>
0

> <r_epik_Ionization_Penalty_Neutral>
2.27765

> <r_epik_State_Penalty>
2.4114

> <r_epik_Charging_Adjusted_Penalty>
2.4114

> <i_epik_Tot_Q>
0

> <i_epik_Tot_abs_Q>
0

> <r_epik_Metal_State_Penalty>
2.39769

> <b_epik_Metal_Only>
0

> <s_lp_Force_Field>
OPLS_2005

> <r_lp_Energy>
50.0311

> <b_lp_Chiralities_Consistent>
1

> <s_lp_Variant>
AV-unprocessed.smi:244-10

> <Gold.Version>
5.8.1

> <Gold.Id.Protein>
6NUR|6NUR_protein|mol2

> <Gold.PLP.Fitness>
41.1361

> <Gold.PLP.PLP>
-33.3131

> <Gold.PLP.part.hbond>
-3.2135

> <Gold.PLP.part.metal>
0.0000

> <Gold.PLP.part.buried>
0.3672

> <Gold.PLP.part.nonpolar>
-29.8315

> <Gold.PLP.part.repulsive>
0.5052

> <Gold.PLP.ligand.clash>
0.0575

> <Gold.PLP.ligand.torsion>
0.5776

> <Gold.PLP.Chemscore.Hbond>
2.9663

> <Gold.PLP.Chemscore.CHOScore>
0.0000

> <Gold.PLP.Chemscore.Metal>
0.0000

> <Gold.Chemscore.Hbonds>
donor molecule, donor type, donor heavy atom, donor atom, acceptor molecule, acceptor atom, score
      L1  H    21    45       P1 10747  0.84
      P1  H  7997  8008       L1     6  1.00
      P1  H 10752 10763       L1    11  1.00

> <Gold.PLP.Chemscore.Internal.Correction>
0.1370

> <Gold.Rescore>
     Score         DG    S(hbond)    S(metal)    S(lipo)     H(rot)  DE(clash)    DE(int)     intcor
     10.37     -17.77       2.20        0.00      87.32       2.06       0.69       6.71       ----

> <Gold.Chemscore.Fitness>
10.3668

> <Gold.Chemscore.DG>
-17.7714

> <Gold.Chemscore.ZeroCoef>
-5.4800

> <Gold.Chemscore.Hbond>
2.2009

> <Gold.Chemscore.Metal>
0.0000

> <Gold.Chemscore.Lipo>
87.3227

> <Gold.Chemscore.Internal_Hbond>
0.0000

> <Gold.Chemscore.DEClash>
0.6945

> <Gold.Chemscore.DEInternal>
6.7101

> <Gold.Chemscore.Rot>
2.0611

> <Gold.Chemscore.Internal.Correction>
   9.000000E+99

> <Gold.Chemscore.Hbonds>
donor molecule, donor type, donor heavy atom, donor atom, acceptor molecule, acceptor atom, score
      L1  H    21    45       P1 10747  0.83
      P1  H  7997  8008       L1     6  0.39
      P1  H 10752 10763       L1    11  0.46

> <Gold.Chemscore.Hbond.Weighted>
-7.3511

> <Gold.Chemscore.Metal.Weighted>
-0.0000

> <Gold.Chemscore.Lipo.Weighted>
-10.2168

> <Gold.Chemscore.Internal_Hbond.Weighted>
0.0000

> <Gold.Chemscore.DEClash.Weighted>
0.6945

> <Gold.Chemscore.DEInternal.Weighted>
6.7101

> <Gold.Chemscore.Rot.Weighted>
5.2765

> <Gold.Chemscore.Internal.Correction.Weighted>
   9.000000E+99

> <Gold.Protein.RotatedTorsions>
[ 6907 6896 6895 6894 ] final   17.08 input  -60.11 | X-H torsion
[ 7974 7965 7964 7962 ] final  156.87 input  175.53 | X-H torsion
[ 8008 7997 7996 7995 ] final  -51.26 input   59.86 | X-H torsion
[ 10167 10162 10161 10158 ] final -112.00 input  -65.29 | X-H torsion
[ 10718 10713 10712 10709 ] final -140.00 input   66.30 | X-H torsion
[ 10763 10752 10751 10750 ] final   84.14 input  -60.55 | X-H torsion
[ 11005 11000 10999 10996 ] final  -42.10 input  -57.11 | X-H torsion

> <Gold.Protein.ActiveResidues>
 VAL166  LYS551  ARG553  GLY616  TRP617  ASP618  TYR619  PRO620  LYS621  CYS622 
 ASP623  PHE694  ASN695  SER759  ASP760  ASP761  ALA762  ILE779  LEU786  VAL792 
 PHE793  MET794  SER795  GLU796  ALA797  LYS798  CYS799  TRP800  GLU811  SER814 

> <Gold.Protein.RotatedAtoms>
  151.8441  135.0580  160.0451 H   0  0  0  0  0  0  0  0  0  0  0  0  # atno 6907 bound_to 6896
  152.2787  133.5445  159.5492 H   0  0  0  0  0  0  0  0  0  0  0  0  # atno 6908 bound_to 6896
  150.7180  134.0511  159.3841 H   0  0  0  0  0  0  0  0  0  0  0  0  # atno 6909 bound_to 6896
  144.7937  139.7263  143.6211 H   0  0  0  0  0  0  0  0  0  0  0  0  # atno 7974 bound_to 7965
  154.4079  140.1252  156.4800 H   0  0  0  0  0  0  0  0  0  0  0  0  # atno 8008 bound_to 7997
  155.7094  140.3494  155.4947 H   0  0  0  0  0  0  0  0  0  0  0  0  # atno 8009 bound_to 7997
  155.9314  140.1070  157.1119 H   0  0  0  0  0  0  0  0  0  0  0  0  # atno 8010 bound_to 7997
  140.1275  143.4389  152.1650 H   0  0  0  0  0  0  0  0  0  0  0  0  # atno 10167 bound_to 10162
  156.3172  130.7514  151.1604 H   0  0  0  0  0  0  0  0  0  0  0  0  # atno 10718 bound_to 10713
  153.1355  135.4665  154.9415 H   0  0  0  0  0  0  0  0  0  0  0  0  # atno 10763 bound_to 10752
  154.7702  135.3156  154.8208 H   0  0  0  0  0  0  0  0  0  0  0  0  # atno 10764 bound_to 10752
  153.8741  135.6900  153.4826 H   0  0  0  0  0  0  0  0  0  0  0  0  # atno 10765 bound_to 10752
  141.0292  133.6827  156.2548 H   0  0  0  0  0  0  0  0  0  0  0  0  # atno 11005 bound_to 11000
  146.2198  139.5615  142.9626 LP  0  0  0  0  0  0  0  0  0  0  0  0  # atno 17320 bound_to 7965
  145.5728  141.0392  143.2164 LP  0  0  0  0  0  0  0  0  0  0  0  0  # atno 17321 bound_to 7965
  139.5537  144.7357  151.4359 LP  0  0  0  0  0  0  0  0  0  0  0  0  # atno 17342 bound_to 10162
  140.6836  143.8024  150.7155 LP  0  0  0  0  0  0  0  0  0  0  0  0  # atno 17343 bound_to 10162
  157.7404  131.0517  150.5168 LP  0  0  0  0  0  0  0  0  0  0  0  0  # atno 17370 bound_to 10713
  156.5315  130.4186  149.6199 LP  0  0  0  0  0  0  0  0  0  0  0  0  # atno 17371 bound_to 10713
  140.6437  134.5139  157.5572 LP  0  0  0  0  0  0  0  0  0  0  0  0  # atno 17394 bound_to 11000
  139.9196  134.8175  156.1253 LP  0  0  0  0  0  0  0  0  0  0  0  0  # atno 17395 bound_to 11000

$$$$
