AV-unprocessed.smi:3348|AV-procd|sdf|12930|dock1
  -GOLD-   2272019353D 1   1.00000     0.00000
 Structure written by MMmdl.
 46 47  0  0  0  0  0  0  0  0  1 V2000
  151.2882  138.0683  154.6911 C   0  0  0  0  0  0  0  0  0  0  0  0
  150.6572  139.4613  154.8595 C   0  0  1  0  0  0  0  0  0  0  0  0
  149.2563  139.4090  155.5169 C   0  0  0  0  0  0  0  0  0  0  0  0
  148.2807  140.2556  154.8540 N   0  0  0  0  0  0  0  0  0  0  0  0
  148.1855  141.6313  154.8740 C   0  0  0  0  0  0  0  0  0  0  0  0
  147.1139  141.9756  154.1014 C   0  0  0  0  0  0  0  0  0  0  0  0
  146.6141  140.7256  153.6408 C   0  0  0  0  0  0  0  0  0  0  0  0
  147.3164  139.6980  154.0901 N   0  0  0  0  0  0  0  0  0  0  0  0
  151.5789  140.3152  155.6145 N   0  0  0  0  0  0  0  0  0  0  0  0
  151.9366  139.8305  156.9467 C   0  0  0  0  0  0  0  0  0  0  0  0
  151.3366  140.7309  158.0310 C   0  0  0  0  0  0  0  0  0  0  0  0
  152.3237  141.6643  158.4454 O   0  0  0  0  0  0  0  0  0  0  0  0
  151.9912  142.4021  159.6158 C   0  0  1  0  0  0  0  0  0  0  0  0
  152.8618  141.9266  160.7995 C   0  0  0  0  0  0  0  0  0  0  0  0
  152.6422  142.7910  162.0495 C   0  0  0  0  0  0  0  0  0  0  0  0
  152.8975  144.2734  161.7458 C   0  0  0  0  0  0  0  0  0  0  0  0
  152.0229  144.7541  160.5782 C   0  0  0  0  0  0  0  0  0  0  0  0
  152.2363  143.8984  159.3133 C   0  0  2  0  0  0  0  0  0  0  0  0
  151.3476  144.4019  158.1643 C   0  0  0  0  0  0  0  0  0  0  0  0
  150.6956  137.4340  154.0318 H   0  0  0  0  0  0  0  0  0  0  0  0
  151.3828  137.5576  155.6499 H   0  0  0  0  0  0  0  0  0  0  0  0
  152.2840  138.1399  154.2525 H   0  0  0  0  0  0  0  0  0  0  0  0
  150.5422  139.8788  153.8583 H   0  0  0  0  0  0  0  0  0  0  0  0
  148.8780  138.3855  155.5091 H   0  0  0  0  0  0  0  0  0  0  0  0
  149.3026  139.7167  156.5618 H   0  0  0  0  0  0  0  0  0  0  0  0
  148.8786  142.2429  155.4328 H   0  0  0  0  0  0  0  0  0  0  0  0
  146.7439  142.9690  153.8962 H   0  0  0  0  0  0  0  0  0  0  0  0
  145.7683  140.5359  152.9969 H   0  0  0  0  0  0  0  0  0  0  0  0
  151.1860  141.2480  155.6941 H   0  0  0  0  0  0  0  0  0  0  0  0
  151.5944  138.8046  157.0881 H   0  0  0  0  0  0  0  0  0  0  0  0
  153.0197  139.8224  157.0633 H   0  0  0  0  0  0  0  0  0  0  0  0
  150.4834  141.2703  157.6177 H   0  0  0  0  0  0  0  0  0  0  0  0
  150.9697  140.1304  158.8636 H   0  0  0  0  0  0  0  0  0  0  0  0
  150.9351  142.2661  159.8582 H   0  0  0  0  0  0  0  0  0  0  0  0
  152.6447  140.8877  161.0456 H   0  0  0  0  0  0  0  0  0  0  0  0
  153.9143  141.9616  160.5152 H   0  0  0  0  0  0  0  0  0  0  0  0
  151.6212  142.6609  162.4106 H   0  0  0  0  0  0  0  0  0  0  0  0
  153.3001  142.4568  162.8521 H   0  0  0  0  0  0  0  0  0  0  0  0
  152.6972  144.8747  162.6330 H   0  0  0  0  0  0  0  0  0  0  0  0
  153.9501  144.4226  161.5009 H   0  0  0  0  0  0  0  0  0  0  0  0
  150.9735  144.7185  160.8742 H   0  0  0  0  0  0  0  0  0  0  0  0
  152.2470  145.7994  160.3631 H   0  0  0  0  0  0  0  0  0  0  0  0
  153.2758  144.0146  159.0028 H   0  0  0  0  0  0  0  0  0  0  0  0
  150.2897  144.2999  158.4074 H   0  0  0  0  0  0  0  0  0  0  0  0
  151.5326  143.8455  157.2453 H   0  0  0  0  0  0  0  0  0  0  0  0
  151.5402  145.4538  157.9517 H   0  0  0  0  0  0  0  0  0  0  0  0
  1  2  1  0  0  0  0
  1 20  1  0  0  0  0
  1 21  1  0  0  0  0
  1 22  1  0  0  0  0
  2  3  1  0  0  0  0
  2  9  1  0  0  0  0
  2 23  1  0  0  0  0
  3  4  1  0  0  0  0
  3 24  1  0  0  0  0
  3 25  1  0  0  0  0
  4  8  1  0  0  0  0
  4  5  1  0  0  0  0
  5  6  2  0  0  0  0
  5 26  1  0  0  0  0
  6  7  1  0  0  0  0
  6 27  1  0  0  0  0
  7  8  2  0  0  0  0
  7 28  1  0  0  0  0
  9 10  1  0  0  0  0
  9 29  1  0  0  0  0
 10 11  1  0  0  0  0
 10 30  1  0  0  0  0
 10 31  1  0  0  0  0
 11 12  1  0  0  0  0
 11 32  1  0  0  0  0
 11 33  1  0  0  0  0
 12 13  1  0  0  0  0
 13 18  1  0  0  0  0
 13 14  1  0  0  0  0
 13 34  1  0  0  0  0
 14 15  1  0  0  0  0
 14 35  1  0  0  0  0
 14 36  1  0  0  0  0
 15 16  1  0  0  0  0
 15 37  1  0  0  0  0
 15 38  1  0  0  0  0
 16 17  1  0  0  0  0
 16 39  1  0  0  0  0
 16 40  1  0  0  0  0
 17 18  1  0  0  0  0
 17 41  1  0  0  0  0
 17 42  1  0  0  0  0
 18 19  1  0  0  0  0
 18 43  1  0  0  0  0
 19 44  1  0  0  0  0
 19 45  1  0  0  0  0
 19 46  1  0  0  0  0
M  END
> <s_m_source_file>
AV-unprocessed.smi

> <i_m_source_file_index>
3348

> <i_lp_mmshare_version>
43012

> <i_f3d_flags>
0

> <s_epik_input>
bjFbY0hdW2NIXVtjSF1uMVtDSDJdW0NAQEhdKFtDSDNdKVtOSF1bQ0gyXVtDSDJdT1tDQEBIXTJbQ0gyXVtDSDJdW0NIMl1bQ0gyXVtDQEhdMltDSDNd

> <s_epik_cmdline>
J2VwaWtfcHl0aG9uJywgJy1waCcsICc3LjAnLCAnLXRuJywgJzgnLCAnLW1hJywgJzIwMCcsICctbWV0YWxfYmluZGluZycsICctaW1hZScsICc8aW5maWxlLm1hZT4nLCAnLW9tYWUnLCAnPG91dGZpbGUubWFlPic=

> <r_lp_tautomer_probability>
1

> <r_epik_Ionization_Penalty>
2.46945

> <r_epik_Ionization_Penalty_Charging>
0

> <r_epik_Ionization_Penalty_Neutral>
2.46945

> <r_epik_State_Penalty>
2.6322

> <r_epik_Charging_Adjusted_Penalty>
2.6322

> <i_epik_Tot_Q>
0

> <i_epik_Tot_abs_Q>
0

> <r_epik_Metal_State_Penalty>
2.63217

> <b_epik_Metal_Only>
0

> <s_lp_Force_Field>
OPLS_2005

> <r_lp_Energy>
15.3902

> <b_lp_Chiralities_Consistent>
1

> <s_lp_Variant>
AV-unprocessed.smi:3348-16

> <Gold.Version>
5.8.1

> <Gold.Id.Protein>
6NUR|6NUR_protein|mol2

> <Gold.PLP.Fitness>
47.0936

> <Gold.PLP.PLP>
-45.2003

> <Gold.PLP.part.hbond>
-1.0000

> <Gold.PLP.part.metal>
0.0000

> <Gold.PLP.part.buried>
-2.1892

> <Gold.PLP.part.nonpolar>
-40.9892

> <Gold.PLP.part.repulsive>
0.1809

> <Gold.PLP.ligand.clash>
0.0000

> <Gold.PLP.ligand.torsion>
2.1076

> <Gold.PLP.Chemscore.Hbond>
0.0000

> <Gold.PLP.Chemscore.CHOScore>
1.9169

> <Gold.PLP.Chemscore.Metal>
0.0000

> <Gold.Chemscore.Hbonds>
donor molecule, donor type, donor heavy atom, donor atom, acceptor molecule, acceptor atom, score
      L1  C     5    26       P1  8028  0.94
      L1  C     7    28       P1 10175  1.00

> <Gold.PLP.Chemscore.Internal.Correction>
0.3579

> <Gold.Rescore>
     Score         DG    S(hbond)    S(metal)    S(lipo)     H(rot)  DE(clash)    DE(int)     intcor
     14.63     -16.66       0.00        0.00     133.31       1.72       0.12       1.91       ----

> <Gold.Chemscore.Fitness>
14.6317

> <Gold.Chemscore.DG>
-16.6641

> <Gold.Chemscore.ZeroCoef>
-5.4800

> <Gold.Chemscore.Hbond>
0.0000

> <Gold.Chemscore.Metal>
0.0000

> <Gold.Chemscore.Lipo>
133.3052

> <Gold.Chemscore.Internal_Hbond>
0.0000

> <Gold.Chemscore.DEClash>
0.1242

> <Gold.Chemscore.DEInternal>
1.9082

> <Gold.Chemscore.Rot>
1.7237

> <Gold.Chemscore.Internal.Correction>
   9.000000E+99

> <Gold.Chemscore.Hbond.Weighted>
-0.0000

> <Gold.Chemscore.Metal.Weighted>
-0.0000

> <Gold.Chemscore.Lipo.Weighted>
-15.5967

> <Gold.Chemscore.Internal_Hbond.Weighted>
0.0000

> <Gold.Chemscore.DEClash.Weighted>
0.1242

> <Gold.Chemscore.DEInternal.Weighted>
1.9082

> <Gold.Chemscore.Rot.Weighted>
4.4126

> <Gold.Chemscore.Internal.Correction.Weighted>
   9.000000E+99

> <Gold.Protein.RotatedTorsions>
[ 6907 6896 6895 6894 ] final  140.98 input  -60.11 | X-H torsion
[ 7974 7965 7964 7962 ] final  125.84 input  175.53 | X-H torsion
[ 8008 7997 7996 7995 ] final   -8.03 input   59.86 | X-H torsion
[ 10167 10162 10161 10158 ] final  -54.44 input  -65.29 | X-H torsion
[ 10718 10713 10712 10709 ] final -156.08 input   66.30 | X-H torsion
[ 10763 10752 10751 10750 ] final  -82.20 input  -60.55 | X-H torsion
[ 11005 11000 10999 10996 ] final  109.40 input  -57.11 | X-H torsion

> <Gold.Protein.ActiveResidues>
 VAL166  LYS551  ARG553  GLY616  TRP617  ASP618  TYR619  PRO620  LYS621  CYS622 
 ASP623  PHE694  ASN695  SER759  ASP760  ASP761  ALA762  ILE779  LEU786  VAL792 
 PHE793  MET794  SER795  GLU796  ALA797  LYS798  CYS799  TRP800  GLU811  SER814 

> <Gold.Protein.RotatedAtoms>
  152.2365  133.5100  159.5245 H   0  0  0  0  0  0  0  0  0  0  0  0  # atno 6907 bound_to 6896
  150.7052  134.1147  159.4022 H   0  0  0  0  0  0  0  0  0  0  0  0  # atno 6908 bound_to 6896
  151.9068  135.0355  160.0562 H   0  0  0  0  0  0  0  0  0  0  0  0  # atno 6909 bound_to 6896
  145.0684  139.3749  143.4970 H   0  0  0  0  0  0  0  0  0  0  0  0  # atno 7974 bound_to 7965
  154.5781  140.2392  155.8093 H   0  0  0  0  0  0  0  0  0  0  0  0  # atno 8008 bound_to 7997
  156.2158  140.3012  155.9793 H   0  0  0  0  0  0  0  0  0  0  0  0  # atno 8009 bound_to 7997
  155.2591  140.0413  157.2986 H   0  0  0  0  0  0  0  0  0  0  0  0  # atno 8010 bound_to 7997
  140.6430  143.2519  151.4936 H   0  0  0  0  0  0  0  0  0  0  0  0  # atno 10167 bound_to 10162
  156.5217  130.8481  151.2684 H   0  0  0  0  0  0  0  0  0  0  0  0  # atno 10718 bound_to 10713
  154.5728  135.5599  153.7111 H   0  0  0  0  0  0  0  0  0  0  0  0  # atno 10763 bound_to 10752
  153.0054  135.6301  154.2090 H   0  0  0  0  0  0  0  0  0  0  0  0  # atno 10764 bound_to 10752
  154.2030  135.2877  155.2964 H   0  0  0  0  0  0  0  0  0  0  0  0  # atno 10765 bound_to 10752
  139.8861  134.9457  156.6120 H   0  0  0  0  0  0  0  0  0  0  0  0  # atno 11005 bound_to 11000
  146.3528  140.0417  142.8642 LP  0  0  0  0  0  0  0  0  0  0  0  0  # atno 17320 bound_to 7965
  145.1322  140.9524  143.4538 LP  0  0  0  0  0  0  0  0  0  0  0  0  # atno 17321 bound_to 7965
  139.5640  144.2087  152.1736 LP  0  0  0  0  0  0  0  0  0  0  0  0  # atno 17342 bound_to 10162
  140.1364  144.5242  150.6771 LP  0  0  0  0  0  0  0  0  0  0  0  0  # atno 17343 bound_to 10162
  157.7436  130.9915  150.2603 LP  0  0  0  0  0  0  0  0  0  0  0  0  # atno 17370 bound_to 10713
  156.3143  130.3776  149.7632 LP  0  0  0  0  0  0  0  0  0  0  0  0  # atno 17371 bound_to 10713
  140.7804  133.8665  155.8563 LP  0  0  0  0  0  0  0  0  0  0  0  0  # atno 17394 bound_to 11000
  140.9765  134.1462  157.4531 LP  0  0  0  0  0  0  0  0  0  0  0  0  # atno 17395 bound_to 11000

$$$$
