AV-unprocessed.smi:290|AV-procd|sdf|2231|dock2
  -GOLD-   2262022 93D 1   1.00000     0.00000
 Structure written by MMmdl.
 59 62  0  0  0  0  0  0  0  0  2 V2000
  152.2311  139.1314  158.3042 C   0  0  0  0  0  0  0  0  0  0  0  0
  152.5593  138.3585  157.0214 C   0  0  2  0  0  0  0  0  0  0  0  0
  152.8548  139.2951  155.9928 O   0  0  0  0  0  0  0  0  0  0  0  0
  152.7271  138.6234  154.7552 C   0  0  0  0  0  0  0  0  0  0  0  0
  151.4323  137.8508  154.9522 C   0  0  0  0  0  0  0  0  0  0  0  0
  151.4738  137.4140  156.4196 C   0  0  1  0  0  0  0  0  0  0  0  0
  151.9905  136.0955  156.4491 O   0  0  0  0  0  0  0  0  0  0  0  0
  150.0382  137.4397  157.0259 C   0  0  0  0  0  0  0  0  0  0  0  0
  148.9975  136.7832  156.2427 N   0  0  0  0  0  0  0  0  0  0  0  0
  147.7492  137.2788  155.9450 C   0  0  0  0  0  0  0  0  0  0  0  0
  147.0041  136.5048  155.2061 N   0  0  0  0  0  0  0  0  0  0  0  0
  147.8098  135.4062  154.9270 C   0  0  0  0  0  0  0  0  0  0  0  0
  147.6483  134.2034  154.1727 C   0  0  0  0  0  0  0  0  0  0  0  0
  146.5337  133.8428  153.4812 N   0  0  0  0  0  0  0  0  0  0  0  0
  145.3651  134.7077  153.4810 C   0  0  0  0  0  0  0  0  0  0  0  0
  144.7664  134.5578  152.0890 C   0  0  0  0  0  0  0  0  0  0  0  0
  145.1388  133.1265  151.6701 C   0  0  1  0  0  0  0  0  0  0  0  0
  145.1215  132.9627  150.1840 N   0  3  1  0  0  0  0  0  0  0  0  0
  145.8861  131.7956  149.6797 C   0  0  0  0  0  0  0  0  0  0  0  0
  143.7482  132.9969  149.6108 C   0  0  0  0  0  0  0  0  0  0  0  0
  143.7526  132.7302  148.0966 C   0  0  0  0  0  0  0  0  0  0  0  0
  143.6575  133.9516  147.3941 O   0  0  0  0  0  0  0  0  0  0  0  0
  146.5234  132.9290  152.3421 C   0  0  2  0  0  0  0  0  0  0  0  0
  146.7693  131.4811  152.8206 C   0  0  0  0  0  0  0  0  0  0  0  0
  148.7042  133.3487  154.1364 N   0  0  0  0  0  0  0  0  0  0  0  0
  149.8395  133.6401  154.7754 C   0  0  0  0  0  0  0  0  0  0  0  0
  150.1298  134.7156  155.5068 N   0  0  0  0  0  0  0  0  0  0  0  0
  149.0732  135.5756  155.5664 C   0  0  0  0  0  0  0  0  0  0  0  0
  144.4232  132.4339  152.1171 H   0  0  0  0  0  0  0  0  0  0  0  0
  147.2987  133.2469  151.6460 H   0  0  0  0  0  0  0  0  0  0  0  0
  152.1247  138.4555  159.1509 H   0  0  0  0  0  0  0  0  0  0  0  0
  151.3218  139.7234  158.2044 H   0  0  0  0  0  0  0  0  0  0  0  0
  153.0400  139.8195  158.5502 H   0  0  0  0  0  0  0  0  0  0  0  0
  153.4813  137.8001  157.1969 H   0  0  0  0  0  0  0  0  0  0  0  0
  152.6813  139.3203  153.9181 H   0  0  0  0  0  0  0  0  0  0  0  0
  153.5719  137.9496  154.6042 H   0  0  0  0  0  0  0  0  0  0  0  0
  150.5979  138.5338  154.7864 H   0  0  0  0  0  0  0  0  0  0  0  0
  151.3191  137.0258  154.2472 H   0  0  0  0  0  0  0  0  0  0  0  0
  151.4241  135.5625  156.9864 H   0  0  0  0  0  0  0  0  0  0  0  0
  150.0380  137.0227  158.0332 H   0  0  0  0  0  0  0  0  0  0  0  0
  149.7245  138.4777  157.1459 H   0  0  0  0  0  0  0  0  0  0  0  0
  147.4007  138.2390  156.2960 H   0  0  0  0  0  0  0  0  0  0  0  0
  144.6686  134.3577  154.2436 H   0  0  0  0  0  0  0  0  0  0  0  0
  145.6086  135.7501  153.6908 H   0  0  0  0  0  0  0  0  0  0  0  0
  143.6939  134.7510  152.0909 H   0  0  0  0  0  0  0  0  0  0  0  0
  145.2356  135.2784  151.4170 H   0  0  0  0  0  0  0  0  0  0  0  0
  145.5082  130.8670  150.1090 H   0  0  0  0  0  0  0  0  0  0  0  0
  146.9474  131.8842  149.9086 H   0  0  0  0  0  0  0  0  0  0  0  0
  145.8125  131.7135  148.5958 H   0  0  0  0  0  0  0  0  0  0  0  0
  143.1232  132.2628  150.1214 H   0  0  0  0  0  0  0  0  0  0  0  0
  143.2631  133.9567  149.7836 H   0  0  0  0  0  0  0  0  0  0  0  0
  144.6442  132.1915  147.7773 H   0  0  0  0  0  0  0  0  0  0  0  0
  142.8950  132.1130  147.8274 H   0  0  0  0  0  0  0  0  0  0  0  0
  144.5196  134.3368  147.3398 H   0  0  0  0  0  0  0  0  0  0  0  0
  146.7966  130.7681  151.9997 H   0  0  0  0  0  0  0  0  0  0  0  0
  145.9863  131.1585  153.5074 H   0  0  0  0  0  0  0  0  0  0  0  0
  147.7169  131.3857  153.3497 H   0  0  0  0  0  0  0  0  0  0  0  0
  150.6279  132.9072  154.6868 H   0  0  0  0  0  0  0  0  0  0  0  0
  145.5886  133.7822  149.8216 H   0  0  0  0  0  0  0  0  0  0  0  0
  1  2  1  0  0  0  0
  1 31  1  0  0  0  0
  1 32  1  0  0  0  0
  1 33  1  0  0  0  0
  2  6  1  0  0  0  0
  2  3  1  0  0  0  0
  2 34  1  0  0  0  0
  3  4  1  0  0  0  0
  4  5  1  0  0  0  0
  4 35  1  0  0  0  0
  4 36  1  0  0  0  0
  5  6  1  0  0  0  0
  5 37  1  0  0  0  0
  5 38  1  0  0  0  0
  6  7  1  0  0  0  0
  6  8  1  0  0  0  0
  7 39  1  0  0  0  0
  8  9  1  0  0  0  0
  8 40  1  0  0  0  0
  8 41  1  0  0  0  0
  9 28  1  0  0  0  0
  9 10  1  0  0  0  0
 10 11  2  0  0  0  0
 10 42  1  0  0  0  0
 11 12  1  0  0  0  0
 12 28  2  0  0  0  0
 12 13  1  0  0  0  0
 13 14  1  0  0  0  0
 13 25  2  0  0  0  0
 14 23  1  0  0  0  0
 14 15  1  0  0  0  0
 15 16  1  0  0  0  0
 15 43  1  0  0  0  0
 15 44  1  0  0  0  0
 16 17  1  0  0  0  0
 16 45  1  0  0  0  0
 16 46  1  0  0  0  0
 17 29  1  0  0  0  0
 17 18  1  0  0  0  0
 17 23  1  0  0  0  0
 18 19  1  0  0  0  0
 18 20  1  0  0  0  0
 18 59  1  0  0  0  0
 19 47  1  0  0  0  0
 19 48  1  0  0  0  0
 19 49  1  0  0  0  0
 20 21  1  0  0  0  0
 20 50  1  0  0  0  0
 20 51  1  0  0  0  0
 21 22  1  0  0  0  0
 21 52  1  0  0  0  0
 21 53  1  0  0  0  0
 22 54  1  0  0  0  0
 23 30  1  0  0  0  0
 23 24  1  0  0  0  0
 24 55  1  0  0  0  0
 24 56  1  0  0  0  0
 24 57  1  0  0  0  0
 25 26  1  0  0  0  0
 26 27  2  0  0  0  0
 26 58  1  0  0  0  0
 27 28  1  0  0  0  0
M  CHG  1  18   1
M  END
> <s_m_source_file>
AV-unprocessed.smi

> <i_m_source_file_index>
290

> <i_lp_mmshare_version>
43012

> <i_f3d_flags>
0

> <s_epik_input>
W0NIMl0xW0NIMl1PW0NAQEhdKFtDSDNdKVtDQEBdMShbT0hdKVtDSDJdbihbY0hdbjIpYyhjMjMpbltjSF1uYzNONFtDSDJdW0NIMl1bQ0BIXShbQ0BIXTRbQ0gzXSlOKFtDSDNdKVtDSDJdW0NIMl1bT0hd

> <s_epik_cmdline>
J2VwaWtfcHl0aG9uJywgJy1waCcsICc3LjAnLCAnLXRuJywgJzgnLCAnLW1hJywgJzIwMCcsICctbWV0YWxfYmluZGluZycsICctaW1hZScsICc8aW5maWxlLm1hZT4nLCAnLW9tYWUnLCAnPG91dGZpbGUubWFlPic=

> <r_lp_tautomer_probability>
1

> <r_epik_Ionization_Penalty>
0.0036983

> <r_epik_Ionization_Penalty_Charging>
0.0032725

> <r_epik_Ionization_Penalty_Neutral>
0.000425798

> <r_epik_State_Penalty>
-0

> <r_epik_Charging_Adjusted_Penalty>
0.0032725

> <i_epik_Tot_Q>
1

> <i_epik_Tot_abs_Q>
1

> <r_epik_Metal_State_Penalty>
-0

> <b_epik_Metal_Only>
0

> <s_lp_Force_Field>
OPLS_2005

> <r_lp_Energy>
63.0436

> <b_lp_Chiralities_Consistent>
1

> <s_lp_Variant>
AV-unprocessed.smi:290-17

> <Gold.Version>
5.8.1

> <Gold.Id.Protein>
6NUR|6NUR_protein|mol2

> <Gold.PLP.Fitness>
52.1150

> <Gold.PLP.PLP>
-41.6753

> <Gold.PLP.part.hbond>
-5.7355

> <Gold.PLP.part.metal>
0.0000

> <Gold.PLP.part.buried>
-5.8860

> <Gold.PLP.part.nonpolar>
-29.9101

> <Gold.PLP.part.repulsive>
0.3915

> <Gold.PLP.ligand.clash>
0.0000

> <Gold.PLP.ligand.torsion>
0.9578

> <Gold.PLP.Chemscore.Hbond>
4.0000

> <Gold.PLP.Chemscore.CHOScore>
0.0000

> <Gold.PLP.Chemscore.Metal>
0.0000

> <Gold.Chemscore.Hbonds>
donor molecule, donor type, donor heavy atom, donor atom, acceptor molecule, acceptor atom, score
      L1  H    22    54       P1  7921  1.00
      P1  H  7997  8010       L1     3  0.98
      P1  H 10192 10197       L1    22  0.96
      P1  H 10752 10764       L1     7  1.00

> <Gold.PLP.Chemscore.Internal.Correction>
0.3554

> <Gold.Rescore>
     Score         DG    S(hbond)    S(metal)    S(lipo)     H(rot)  DE(clash)    DE(int)     intcor
     15.02     -20.91       3.76        0.00      97.99       3.35       0.99       4.90       ----

> <Gold.Chemscore.Fitness>
15.0153

> <Gold.Chemscore.DG>
-20.9088

> <Gold.Chemscore.ZeroCoef>
-5.4800

> <Gold.Chemscore.Hbond>
3.7560

> <Gold.Chemscore.Metal>
0.0000

> <Gold.Chemscore.Lipo>
97.9850

> <Gold.Chemscore.Internal_Hbond>
0.0000

> <Gold.Chemscore.DEClash>
0.9913

> <Gold.Chemscore.DEInternal>
4.9022

> <Gold.Chemscore.Rot>
3.3518

> <Gold.Chemscore.Internal.Correction>
   9.000000E+99

> <Gold.Chemscore.Hbonds>
donor molecule, donor type, donor heavy atom, donor atom, acceptor molecule, acceptor atom, score
      L1  H    18    59       P1  7921  0.01
      L1  H    22    54       P1  7921  1.00
      P1  H  7997  8010       L1     3  0.56
      P1  H 10192 10197       L1    22  0.88
      P1  H 10752 10764       L1     7  0.95

> <Gold.Chemscore.Hbond.Weighted>
-12.5451

> <Gold.Chemscore.Metal.Weighted>
-0.0000

> <Gold.Chemscore.Lipo.Weighted>
-11.4642

> <Gold.Chemscore.Internal_Hbond.Weighted>
0.0000

> <Gold.Chemscore.DEClash.Weighted>
0.9913

> <Gold.Chemscore.DEInternal.Weighted>
4.9022

> <Gold.Chemscore.Rot.Weighted>
8.5806

> <Gold.Chemscore.Internal.Correction.Weighted>
   9.000000E+99

> <Gold.Protein.RotatedTorsions>
[ 6907 6896 6895 6894 ] final  132.15 input  -60.11 | X-H torsion
[ 7974 7965 7964 7962 ] final  144.53 input  175.53 | X-H torsion
[ 8008 7997 7996 7995 ] final  102.98 input   59.86 | X-H torsion
[ 10167 10162 10161 10158 ] final -121.87 input  -65.29 | X-H torsion
[ 10718 10713 10712 10709 ] final  117.25 input   66.30 | X-H torsion
[ 10763 10752 10751 10750 ] final  -39.40 input  -60.55 | X-H torsion
[ 11005 11000 10999 10996 ] final  136.26 input  -57.11 | X-H torsion

> <Gold.Protein.ActiveResidues>
 VAL166  LYS551  ARG553  GLY616  TRP617  ASP618  TYR619  PRO620  LYS621  CYS622 
 ASP623  PHE694  ASN695  SER759  ASP760  ASP761  ALA762  ILE779  LEU786  VAL792 
 PHE793  MET794  SER795  GLU796  ALA797  LYS798  CYS799  TRP800  GLU811  SER814 

> <Gold.Protein.RotatedAtoms>
  152.3353  133.6004  159.5837 H   0  0  0  0  0  0  0  0  0  0  0  0  # atno 6907 bound_to 6896
  150.7446  133.9805  159.3584 H   0  0  0  0  0  0  0  0  0  0  0  0  # atno 6908 bound_to 6896
  151.7676  135.0795  160.0406 H   0  0  0  0  0  0  0  0  0  0  0  0  # atno 6909 bound_to 6896
  144.8828  139.5673  143.5835 H   0  0  0  0  0  0  0  0  0  0  0  0  # atno 7974 bound_to 7965
  156.1443  140.3172  155.8545 H   0  0  0  0  0  0  0  0  0  0  0  0  # atno 8008 bound_to 7997
  155.4095  140.0505  157.3049 H   0  0  0  0  0  0  0  0  0  0  0  0  # atno 8009 bound_to 7997
  154.5003  140.2126  155.9373 H   0  0  0  0  0  0  0  0  0  0  0  0  # atno 8010 bound_to 7997
  140.0203  143.5351  152.2223 H   0  0  0  0  0  0  0  0  0  0  0  0  # atno 10167 bound_to 10162
  157.6108  131.1035  150.7589 H   0  0  0  0  0  0  0  0  0  0  0  0  # atno 10718 bound_to 10713
  153.9287  135.6774  153.4746 H   0  0  0  0  0  0  0  0  0  0  0  0  # atno 10763 bound_to 10752
  153.0991  135.4837  154.8830 H   0  0  0  0  0  0  0  0  0  0  0  0  # atno 10764 bound_to 10752
  154.7439  135.3167  154.8636 H   0  0  0  0  0  0  0  0  0  0  0  0  # atno 10765 bound_to 10752
  140.0034  134.9469  157.0123 H   0  0  0  0  0  0  0  0  0  0  0  0  # atno 11005 bound_to 11000
  146.3005  139.7413  142.9094 LP  0  0  0  0  0  0  0  0  0  0  0  0  # atno 17320 bound_to 7965
  145.3923  141.0374  143.3117 LP  0  0  0  0  0  0  0  0  0  0  0  0  # atno 17321 bound_to 7965
  139.6144  144.7616  151.2879 LP  0  0  0  0  0  0  0  0  0  0  0  0  # atno 17342 bound_to 10162
  140.7345  143.6764  150.8038 LP  0  0  0  0  0  0  0  0  0  0  0  0  # atno 17343 bound_to 10162
  156.7967  130.4907  149.5376 LP  0  0  0  0  0  0  0  0  0  0  0  0  # atno 17370 bound_to 10713
  156.1210  130.6110  151.0194 LP  0  0  0  0  0  0  0  0  0  0  0  0  # atno 17371 bound_to 10713
  140.4685  134.1411  155.7200 LP  0  0  0  0  0  0  0  0  0  0  0  0  # atno 17394 bound_to 11000
  141.1659  133.8703  157.1715 LP  0  0  0  0  0  0  0  0  0  0  0  0  # atno 17395 bound_to 11000

$$$$
