AV-unprocessed.smi:1216|AV-procd|sdf|5101|dock8
  -GOLD-   22720 4153D 1   1.00000     0.00000
 Structure written by MMmdl.
 42 43  0  0  0  0  0  0  0  0  1 V2000
  145.6658  131.9198  153.8109 C   0  0  0  0  0  0  0  0  0  0  0  0
  146.8803  131.9048  152.8731 C   0  0  1  0  0  0  0  0  0  0  0  0
  146.7213  132.9314  151.7315 C   0  0  0  0  0  0  0  0  0  0  0  0
  145.5707  132.6608  150.8889 N   0  0  0  0  0  0  0  0  0  0  0  0
  144.2461  132.9887  151.1477 C   0  0  0  0  0  0  0  0  0  0  0  0
  143.5134  132.5419  150.0717 C   0  0  0  0  0  0  0  0  0  0  0  0
  144.3598  131.9336  149.1479 N   0  0  0  0  0  0  0  0  0  0  0  0
  145.5609  132.0400  149.7012 C   0  0  0  0  0  0  0  0  0  0  0  0
  148.0867  132.1772  153.6538 N   0  0  0  0  0  0  0  0  0  0  0  0
  148.7348  131.2939  154.4294 C   0  0  0  0  0  0  0  0  0  0  0  0
  148.3739  130.1244  154.5697 O   0  0  0  0  0  0  0  0  0  0  0  0
  149.9966  131.8188  155.1276 C   0  0  0  0  0  0  0  0  0  0  0  0
  150.6853  130.7957  155.9287 N   0  0  0  0  0  0  0  0  0  0  0  0
  150.9793  129.5198  155.2568 C   0  0  0  0  0  0  0  0  0  0  0  0
  152.4856  129.2784  155.0057 C   0  0  0  0  0  0  0  0  0  0  0  0
  153.4548  129.9075  156.0259 C   0  0  0  0  0  0  0  0  0  0  0  0
  153.1518  129.5791  157.5027 C   0  0  0  0  0  0  0  0  0  0  0  0
  151.7201  129.8904  158.0006 C   0  0  0  0  0  0  0  0  0  0  0  0
  151.0054  131.0124  157.2293 C   0  0  0  0  0  0  0  0  0  0  0  0
  150.7475  132.0629  157.8177 O   0  0  0  0  0  0  0  0  0  0  0  0
  144.7513  131.6712  153.2718 H   0  0  0  0  0  0  0  0  0  0  0  0
  145.5267  132.9004  154.2674 H   0  0  0  0  0  0  0  0  0  0  0  0
  145.7810  131.1911  154.6140 H   0  0  0  0  0  0  0  0  0  0  0  0
  146.9368  130.9044  152.4398 H   0  0  0  0  0  0  0  0  0  0  0  0
  146.6037  133.9346  152.1430 H   0  0  0  0  0  0  0  0  0  0  0  0
  147.6162  132.9536  151.1079 H   0  0  0  0  0  0  0  0  0  0  0  0
  143.9441  133.5030  152.0478 H   0  0  0  0  0  0  0  0  0  0  0  0
  142.4503  132.6092  149.8932 H   0  0  0  0  0  0  0  0  0  0  0  0
  146.4562  131.6627  149.2289 H   0  0  0  0  0  0  0  0  0  0  0  0
  148.4607  133.1133  153.5962 H   0  0  0  0  0  0  0  0  0  0  0  0
  150.6721  132.2120  154.3667 H   0  0  0  0  0  0  0  0  0  0  0  0
  149.7344  132.6767  155.7499 H   0  0  0  0  0  0  0  0  0  0  0  0
  150.5660  128.7008  155.8458 H   0  0  0  0  0  0  0  0  0  0  0  0
  150.4452  129.4545  154.3079 H   0  0  0  0  0  0  0  0  0  0  0  0
  152.6642  128.2043  154.9454 H   0  0  0  0  0  0  0  0  0  0  0  0
  152.7398  129.6733  154.0217 H   0  0  0  0  0  0  0  0  0  0  0  0
  154.4690  129.5809  155.7939 H   0  0  0  0  0  0  0  0  0  0  0  0
  153.4700  130.9897  155.8898 H   0  0  0  0  0  0  0  0  0  0  0  0
  153.3572  128.5227  157.6789 H   0  0  0  0  0  0  0  0  0  0  0  0
  153.8642  130.1219  158.1250 H   0  0  0  0  0  0  0  0  0  0  0  0
  151.1063  128.9906  157.9630 H   0  0  0  0  0  0  0  0  0  0  0  0
  151.7601  130.1541  159.0582 H   0  0  0  0  0  0  0  0  0  0  0  0
  1  2  1  0  0  0  0
  1 21  1  0  0  0  0
  1 22  1  0  0  0  0
  1 23  1  0  0  0  0
  2  3  1  0  0  0  0
  2  9  1  0  0  0  0
  2 24  1  0  0  0  0
  3  4  1  0  0  0  0
  3 25  1  0  0  0  0
  3 26  1  0  0  0  0
  4  8  1  0  0  0  0
  4  5  1  0  0  0  0
  5  6  2  0  0  0  0
  5 27  1  0  0  0  0
  6  7  1  0  0  0  0
  6 28  1  0  0  0  0
  7  8  2  0  0  0  0
  8 29  1  0  0  0  0
  9 10  1  0  0  0  0
  9 30  1  0  0  0  0
 10 11  2  0  0  0  0
 10 12  1  0  0  0  0
 12 13  1  0  0  0  0
 12 31  1  0  0  0  0
 12 32  1  0  0  0  0
 13 19  1  0  0  0  0
 13 14  1  0  0  0  0
 14 15  1  0  0  0  0
 14 33  1  0  0  0  0
 14 34  1  0  0  0  0
 15 16  1  0  0  0  0
 15 35  1  0  0  0  0
 15 36  1  0  0  0  0
 16 17  1  0  0  0  0
 16 37  1  0  0  0  0
 16 38  1  0  0  0  0
 17 18  1  0  0  0  0
 17 39  1  0  0  0  0
 17 40  1  0  0  0  0
 18 19  1  0  0  0  0
 18 41  1  0  0  0  0
 18 42  1  0  0  0  0
 19 20  2  0  0  0  0
M  END
> <s_m_source_file>
AV-unprocessed.smi

> <i_m_source_file_index>
1216

> <i_lp_mmshare_version>
43012

> <i_f3d_flags>
0

> <s_epik_input>
W2NIXTFuW2NIXVtjSF1uMVtDSDJdW0NAQEhdKFtDSDNdKVtOSF1DKD1PKVtDSDJdTjJbQ0gyXVtDSDJdW0NIMl1bQ0gyXVtDSDJdQzI9Tw==

> <s_epik_cmdline>
J2VwaWtfcHl0aG9uJywgJy1waCcsICc3LjAnLCAnLXRuJywgJzgnLCAnLW1hJywgJzIwMCcsICctbWV0YWxfYmluZGluZycsICctaW1hZScsICc8aW5maWxlLm1hZT4nLCAnLW9tYWUnLCAnPG91dGZpbGUubWFlPic=

> <r_lp_tautomer_probability>
1

> <r_epik_Ionization_Penalty>
0.623868

> <r_epik_Ionization_Penalty_Charging>
0.623868

> <r_epik_Ionization_Penalty_Neutral>
4.50838e-08

> <r_epik_State_Penalty>
0.640129

> <r_epik_Charging_Adjusted_Penalty>
1.264

> <i_epik_Tot_Q>
0

> <i_epik_Tot_abs_Q>
0

> <r_epik_Metal_State_Penalty>
0.307431

> <b_epik_Metal_Only>
0

> <s_lp_Force_Field>
OPLS_2005

> <r_lp_Energy>
20.3142

> <b_lp_Chiralities_Consistent>
1

> <s_lp_Variant>
AV-unprocessed.smi:1216-4

> <Gold.Version>
5.8.1

> <Gold.Id.Protein>
6NUR|6NUR_protein|mol2

> <Gold.PLP.Fitness>
42.5533

> <Gold.PLP.PLP>
-33.4146

> <Gold.PLP.part.hbond>
-2.0000

> <Gold.PLP.part.metal>
0.0000

> <Gold.PLP.part.buried>
-5.0885

> <Gold.PLP.part.nonpolar>
-28.1963

> <Gold.PLP.part.repulsive>
0.2142

> <Gold.PLP.ligand.clash>
0.0000

> <Gold.PLP.ligand.torsion>
0.6472

> <Gold.PLP.Chemscore.Hbond>
1.4449

> <Gold.PLP.Chemscore.CHOScore>
2.0287

> <Gold.PLP.Chemscore.Metal>
0.0000

> <Gold.Chemscore.Hbonds>
donor molecule, donor type, donor heavy atom, donor atom, acceptor molecule, acceptor atom, score
      P1  H  6896  6907       L1    20  1.00
      P1  H 10785 10796       L1     7  0.35
      L1  C     6    28       P1 10186  1.00
      L1  C     6    28       P1 10952  0.29
      L1  C     8    29       P1 10747  0.28

> <Gold.PLP.Chemscore.Internal.Correction>
0.0125

> <Gold.Rescore>
     Score         DG    S(hbond)    S(metal)    S(lipo)     H(rot)  DE(clash)    DE(int)     intcor
     12.16     -12.79       1.77        0.00      58.52       2.13       0.00       0.63       ----

> <Gold.Chemscore.Fitness>
12.1588

> <Gold.Chemscore.DG>
-12.7898

> <Gold.Chemscore.ZeroCoef>
-5.4800

> <Gold.Chemscore.Hbond>
1.7742

> <Gold.Chemscore.Metal>
0.0000

> <Gold.Chemscore.Lipo>
58.5155

> <Gold.Chemscore.Internal_Hbond>
0.0000

> <Gold.Chemscore.DEClash>
0.0029

> <Gold.Chemscore.DEInternal>
0.6280

> <Gold.Chemscore.Rot>
2.1338

> <Gold.Chemscore.Internal.Correction>
   9.000000E+99

> <Gold.Chemscore.Hbonds>
donor molecule, donor type, donor heavy atom, donor atom, acceptor molecule, acceptor atom, score
      P1  H  6896  6907       L1    20  0.96
      P1  H 10785 10796       L1     7  0.09

> <Gold.Chemscore.Hbond.Weighted>
-5.9259

> <Gold.Chemscore.Metal.Weighted>
-0.0000

> <Gold.Chemscore.Lipo.Weighted>
-6.8463

> <Gold.Chemscore.Internal_Hbond.Weighted>
0.0000

> <Gold.Chemscore.DEClash.Weighted>
0.0029

> <Gold.Chemscore.DEInternal.Weighted>
0.6280

> <Gold.Chemscore.Rot.Weighted>
5.4625

> <Gold.Chemscore.Internal.Correction.Weighted>
   9.000000E+99

> <Gold.Protein.RotatedTorsions>
[ 6907 6896 6895 6894 ] final -166.13 input  -60.11 | X-H torsion
[ 7974 7965 7964 7962 ] final   31.47 input  175.53 | X-H torsion
[ 8008 7997 7996 7995 ] final  147.30 input   59.86 | X-H torsion
[ 10167 10162 10161 10158 ] final  -41.82 input  -65.29 | X-H torsion
[ 10718 10713 10712 10709 ] final  126.58 input   66.30 | X-H torsion
[ 10763 10752 10751 10750 ] final   86.33 input  -60.55 | X-H torsion
[ 11005 11000 10999 10996 ] final -164.23 input  -57.11 | X-H torsion

> <Gold.Protein.ActiveResidues>
 VAL166  LYS551  ARG553  GLY616  TRP617  ASP618  TYR619  PRO620  LYS621  CYS622 
 ASP623  PHE694  ASN695  SER759  ASP760  ASP761  ALA762  ILE779  LEU786  VAL792 
 PHE793  MET794  SER795  GLU796  ALA797  LYS798  CYS799  TRP800  GLU811  SER814 

> <Gold.Protein.RotatedAtoms>
  151.4386  133.3649  159.2778 H   0  0  0  0  0  0  0  0  0  0  0  0  # atno 6907 bound_to 6896
  150.9173  134.8593  159.7476 H   0  0  0  0  0  0  0  0  0  0  0  0  # atno 6908 bound_to 6896
  152.4964  134.4321  159.9567 H   0  0  0  0  0  0  0  0  0  0  0  0  # atno 6909 bound_to 6896
  146.1548  139.6653  142.9074 H   0  0  0  0  0  0  0  0  0  0  0  0  # atno 7974 bound_to 7965
  156.2829  140.2159  156.5516 H   0  0  0  0  0  0  0  0  0  0  0  0  # atno 8008 bound_to 7997
  154.7287  140.0497  157.0729 H   0  0  0  0  0  0  0  0  0  0  0  0  # atno 8009 bound_to 7997
  155.0382  140.3143  155.4737 H   0  0  0  0  0  0  0  0  0  0  0  0  # atno 8010 bound_to 7997
  140.6990  143.3073  151.3121 H   0  0  0  0  0  0  0  0  0  0  0  0  # atno 10167 bound_to 10162
  157.5407  131.1097  150.8863 H   0  0  0  0  0  0  0  0  0  0  0  0  # atno 10718 bound_to 10713
  153.1560  135.4584  154.9704 H   0  0  0  0  0  0  0  0  0  0  0  0  # atno 10763 bound_to 10752
  154.7861  135.3204  154.7885 H   0  0  0  0  0  0  0  0  0  0  0  0  # atno 10764 bound_to 10752
  153.8382  135.6932  153.4860 H   0  0  0  0  0  0  0  0  0  0  0  0  # atno 10765 bound_to 10752
  140.5893  134.5061  157.5190 H   0  0  0  0  0  0  0  0  0  0  0  0  # atno 11005 bound_to 11000
  145.4735  141.0436  143.2685 LP  0  0  0  0  0  0  0  0  0  0  0  0  # atno 17320 bound_to 7965
  144.7949  139.6254  143.7097 LP  0  0  0  0  0  0  0  0  0  0  0  0  # atno 17321 bound_to 7965
  139.6483  144.0410  152.2607 LP  0  0  0  0  0  0  0  0  0  0  0  0  # atno 17342 bound_to 10162
  139.9938  144.6342  150.7790 LP  0  0  0  0  0  0  0  0  0  0  0  0  # atno 17343 bound_to 10162
  156.9417  130.5387  149.5280 LP  0  0  0  0  0  0  0  0  0  0  0  0  # atno 17370 bound_to 10713
  156.0494  130.5566  150.8956 LP  0  0  0  0  0  0  0  0  0  0  0  0  # atno 17371 bound_to 10713
  139.9281  134.8016  156.1008 LP  0  0  0  0  0  0  0  0  0  0  0  0  # atno 17394 bound_to 11000
  141.0945  133.6701  156.2615 LP  0  0  0  0  0  0  0  0  0  0  0  0  # atno 17395 bound_to 11000

$$$$
