AV-unprocessed.smi:1036|AV-procd|sdf|4518|dock10
  -GOLD-   22720 2533D 1   1.00000     0.00000
 Structure written by MMmdl.
 41 43  0  0  0  0  0  0  0  0  1 V2000
  152.7608  135.3935  157.0416 O   0  0  0  0  0  0  0  0  0  0  0  0
  151.3993  135.6623  156.7883 C   0  0  0  0  0  0  0  0  0  0  0  0
  151.2473  136.3400  155.4191 C   0  0  0  0  0  0  0  0  0  0  0  0
  151.0575  137.7748  155.5323 N   0  0  0  0  0  0  0  0  0  0  0  0
  150.0904  138.6273  155.0125 C   0  0  0  0  0  0  0  0  0  0  0  0
  149.0772  138.2186  154.2509 N   0  0  0  0  0  0  0  0  0  0  0  0
  148.4084  139.4001  153.9922 C   0  0  0  0  0  0  0  0  0  0  0  0
  147.2391  139.6468  153.2376 C   0  0  0  0  0  0  0  0  0  0  0  0
  146.7337  140.9575  153.1124 C   0  0  0  0  0  0  0  0  0  0  0  0
  147.3885  142.0384  153.7378 C   0  0  0  0  0  0  0  0  0  0  0  0
  148.5545  141.8153  154.4949 C   0  0  0  0  0  0  0  0  0  0  0  0
  149.0549  140.5055  154.6174 C   0  0  0  0  0  0  0  0  0  0  0  0
  150.1489  139.9548  155.2781 N   0  0  0  0  0  0  0  0  0  0  0  0
  151.1217  140.6827  156.0827 C   0  0  0  0  0  0  0  0  0  0  0  0
  150.9476  140.4112  157.5898 C   0  0  2  0  0  0  0  0  0  0  0  0
  149.5651  140.4362  157.8826 O   0  0  0  0  0  0  0  0  0  0  0  0
  151.7416  141.3856  158.4530 C   0  0  0  0  0  0  0  0  0  0  0  0
  151.5407  142.7783  158.3257 C   0  0  0  0  0  0  0  0  0  0  0  0
  152.2774  143.6794  159.1176 C   0  0  0  0  0  0  0  0  0  0  0  0
  152.0782  145.0121  158.9888 F   0  0  0  0  0  0  0  0  0  0  0  0
  153.2252  143.1956  160.0387 C   0  0  0  0  0  0  0  0  0  0  0  0
  153.4394  141.8100  160.1630 C   0  0  0  0  0  0  0  0  0  0  0  0
  152.7014  140.9064  159.3741 C   0  0  0  0  0  0  0  0  0  0  0  0
  152.9264  139.5768  159.5025 F   0  0  0  0  0  0  0  0  0  0  0  0
  152.8865  135.3462  157.9771 H   0  0  0  0  0  0  0  0  0  0  0  0
  150.8762  134.7058  156.7816 H   0  0  0  0  0  0  0  0  0  0  0  0
  150.9674  136.2574  157.5939 H   0  0  0  0  0  0  0  0  0  0  0  0
  152.0973  136.1233  154.7712 H   0  0  0  0  0  0  0  0  0  0  0  0
  150.3658  135.9383  154.9184 H   0  0  0  0  0  0  0  0  0  0  0  0
  151.7664  138.2332  156.0861 H   0  0  0  0  0  0  0  0  0  0  0  0
  146.7300  138.8261  152.7542 H   0  0  0  0  0  0  0  0  0  0  0  0
  145.8391  141.1346  152.5337 H   0  0  0  0  0  0  0  0  0  0  0  0
  146.9946  143.0392  153.6361 H   0  0  0  0  0  0  0  0  0  0  0  0
  149.0576  142.6407  154.9765 H   0  0  0  0  0  0  0  0  0  0  0  0
  152.1336  140.4397  155.7574 H   0  0  0  0  0  0  0  0  0  0  0  0
  150.9872  141.7459  155.8786 H   0  0  0  0  0  0  0  0  0  0  0  0
  151.2792  139.3957  157.8082 H   0  0  0  0  0  0  0  0  0  0  0  0
  149.1005  140.0251  157.1697 H   0  0  0  0  0  0  0  0  0  0  0  0
  150.8216  143.1622  157.6172 H   0  0  0  0  0  0  0  0  0  0  0  0
  153.7928  143.8869  160.6439 H   0  0  0  0  0  0  0  0  0  0  0  0
  154.1724  141.4393  160.8642 H   0  0  0  0  0  0  0  0  0  0  0  0
  1  2  1  0  0  0  0
  1 25  1  0  0  0  0
  2  3  1  0  0  0  0
  2 26  1  0  0  0  0
  2 27  1  0  0  0  0
  3  4  1  0  0  0  0
  3 28  1  0  0  0  0
  3 29  1  0  0  0  0
  4  5  1  0  0  0  0
  4 30  1  0  0  0  0
  5 13  1  0  0  0  0
  5  6  2  0  0  0  0
  6  7  1  0  0  0  0
  7 12  2  0  0  0  0
  7  8  1  0  0  0  0
  8  9  2  0  0  0  0
  8 31  1  0  0  0  0
  9 10  1  0  0  0  0
  9 32  1  0  0  0  0
 10 11  2  0  0  0  0
 10 33  1  0  0  0  0
 11 12  1  0  0  0  0
 11 34  1  0  0  0  0
 12 13  1  0  0  0  0
 13 14  1  0  0  0  0
 14 15  1  0  0  0  0
 14 35  1  0  0  0  0
 14 36  1  0  0  0  0
 15 16  1  0  0  0  0
 15 17  1  0  0  0  0
 15 37  1  0  0  0  0
 16 38  1  0  0  0  0
 17 23  1  0  0  0  0
 17 18  2  0  0  0  0
 18 19  1  0  0  0  0
 18 39  1  0  0  0  0
 19 20  1  0  0  0  0
 19 21  2  0  0  0  0
 21 22  1  0  0  0  0
 21 40  1  0  0  0  0
 22 23  2  0  0  0  0
 22 41  1  0  0  0  0
 23 24  1  0  0  0  0
M  END
> <s_m_source_file>
AV-unprocessed.smi

> <i_m_source_file_index>
1036

> <i_lp_mmshare_version>
43012

> <i_f3d_flags>
0

> <s_epik_input>
W09IXVtDSDJdW0NIMl1bTkhdYyhuMSluKGMoYzEyKVtjSF1bY0hdW2NIXVtjSF0yKVtDSDJdW0NASF0oW09IXSljM1tjSF1jKEYpW2NIXVtjSF1jM0Y=

> <s_epik_cmdline>
J2VwaWtfcHl0aG9uJywgJy1waCcsICc3LjAnLCAnLXRuJywgJzgnLCAnLW1hJywgJzIwMCcsICctbWV0YWxfYmluZGluZycsICctaW1hZScsICc8aW5maWxlLm1hZT4nLCAnLW9tYWUnLCAnPG91dGZpbGUubWFlPic=

> <r_epik_Ionization_Penalty>
1.30972

> <r_epik_Ionization_Penalty_Charging>
0

> <r_epik_Ionization_Penalty_Neutral>
1.30972

> <r_epik_State_Penalty>
1.38438

> <r_epik_Charging_Adjusted_Penalty>
1.38438

> <i_epik_Tot_Q>
0

> <i_epik_Tot_abs_Q>
0

> <r_epik_Metal_State_Penalty>
0.00551145

> <b_epik_Metal_Only>
0

> <s_lp_Force_Field>
OPLS_2005

> <r_lp_Energy>
9.11105

> <b_lp_Chiralities_Consistent>
1

> <s_lp_Variant>
AV-unprocessed.smi:1036-3

> <Gold.Version>
5.8.1

> <Gold.Id.Protein>
6NUR|6NUR_protein|mol2

> <Gold.PLP.Fitness>
49.5599

> <Gold.PLP.PLP>
-47.7421

> <Gold.PLP.part.hbond>
-1.2009

> <Gold.PLP.part.metal>
0.0000

> <Gold.PLP.part.buried>
-1.6676

> <Gold.PLP.part.nonpolar>
-45.2559

> <Gold.PLP.part.repulsive>
0.3674

> <Gold.PLP.ligand.clash>
0.0000

> <Gold.PLP.ligand.torsion>
0.6009

> <Gold.PLP.Chemscore.Hbond>
1.0000

> <Gold.PLP.Chemscore.CHOScore>
0.0000

> <Gold.PLP.Chemscore.Metal>
0.0000

> <Gold.Chemscore.Hbonds>
donor molecule, donor type, donor heavy atom, donor atom, acceptor molecule, acceptor atom, score
      P1  H 10752 10763       L1     1  1.00

> <Gold.PLP.Chemscore.Internal.Correction>
0.0197

> <Gold.Rescore>
     Score         DG    S(hbond)    S(metal)    S(lipo)     H(rot)  DE(clash)    DE(int)     intcor
     13.65     -14.64       0.90        0.00     123.11       3.22       0.31       0.69       ----

> <Gold.Chemscore.Fitness>
13.6454

> <Gold.Chemscore.DG>
-14.6441

> <Gold.Chemscore.ZeroCoef>
-5.4800

> <Gold.Chemscore.Hbond>
0.8987

> <Gold.Chemscore.Metal>
0.0000

> <Gold.Chemscore.Lipo>
123.1100

> <Gold.Chemscore.Internal_Hbond>
0.0000

> <Gold.Chemscore.DEClash>
0.3070

> <Gold.Chemscore.DEInternal>
0.6917

> <Gold.Chemscore.Rot>
3.2194

> <Gold.Chemscore.Internal.Correction>
   9.000000E+99

> <Gold.Chemscore.Hbonds>
donor molecule, donor type, donor heavy atom, donor atom, acceptor molecule, acceptor atom, score
      P1  H 10752 10763       L1     1  0.35

> <Gold.Chemscore.Hbond.Weighted>
-3.0018

> <Gold.Chemscore.Metal.Weighted>
-0.0000

> <Gold.Chemscore.Lipo.Weighted>
-14.4039

> <Gold.Chemscore.Internal_Hbond.Weighted>
0.0000

> <Gold.Chemscore.DEClash.Weighted>
0.3070

> <Gold.Chemscore.DEInternal.Weighted>
0.6917

> <Gold.Chemscore.Rot.Weighted>
8.2416

> <Gold.Chemscore.Internal.Correction.Weighted>
   9.000000E+99

> <Gold.Protein.RotatedTorsions>
[ 6907 6896 6895 6894 ] final  -43.81 input  -60.11 | X-H torsion
[ 7974 7965 7964 7962 ] final  -79.14 input  175.53 | X-H torsion
[ 8008 7997 7996 7995 ] final  133.41 input   59.86 | X-H torsion
[ 10167 10162 10161 10158 ] final -178.39 input  -65.29 | X-H torsion
[ 10718 10713 10712 10709 ] final   29.83 input   66.30 | X-H torsion
[ 10763 10752 10751 10750 ] final  113.53 input  -60.55 | X-H torsion
[ 11005 11000 10999 10996 ] final   72.16 input  -57.11 | X-H torsion

> <Gold.Protein.ActiveResidues>
 VAL166  LYS551  ARG553  GLY616  TRP617  ASP618  TYR619  PRO620  LYS621  CYS622 
 ASP623  PHE694  ASN695  SER759  ASP760  ASP761  ALA762  ILE779  LEU786  VAL792 
 PHE793  MET794  SER795  GLU796  ALA797  LYS798  CYS799  TRP800  GLU811  SER814 

> <Gold.Protein.RotatedAtoms>
  150.9398  134.8808  159.7604 H   0  0  0  0  0  0  0  0  0  0  0  0  # atno 6907 bound_to 6896
  152.5075  134.3958  159.9409 H   0  0  0  0  0  0  0  0  0  0  0  0  # atno 6908 bound_to 6896
  151.3979  133.3727  159.2763 H   0  0  0  0  0  0  0  0  0  0  0  0  # atno 6909 bound_to 6896
  145.5772  140.9455  143.1364 H   0  0  0  0  0  0  0  0  0  0  0  0  # atno 7974 bound_to 7965
  156.2992  140.2522  156.3249 H   0  0  0  0  0  0  0  0  0  0  0  0  # atno 8008 bound_to 7997
  154.9200  140.0401  157.2012 H   0  0  0  0  0  0  0  0  0  0  0  0  # atno 8009 bound_to 7997
  154.8320  140.2877  155.5720 H   0  0  0  0  0  0  0  0  0  0  0  0  # atno 8010 bound_to 7997
  139.5435  144.2300  152.0941 H   0  0  0  0  0  0  0  0  0  0  0  0  # atno 10167 bound_to 10162
  157.2517  130.7118  149.6409 H   0  0  0  0  0  0  0  0  0  0  0  0  # atno 10718 bound_to 10713
  153.4938  135.3653  155.2505 H   0  0  0  0  0  0  0  0  0  0  0  0  # atno 10763 bound_to 10752
  154.8751  135.3983  154.3558 H   0  0  0  0  0  0  0  0  0  0  0  0  # atno 10764 bound_to 10752
  153.4182  135.7079  153.6378 H   0  0  0  0  0  0  0  0  0  0  0  0  # atno 10765 bound_to 10752
  139.9505  134.7235  156.0873 H   0  0  0  0  0  0  0  0  0  0  0  0  # atno 11005 bound_to 11000
  144.7411  139.7448  143.7310 LP  0  0  0  0  0  0  0  0  0  0  0  0  # atno 17320 bound_to 7965
  146.1742  139.4906  142.9908 LP  0  0  0  0  0  0  0  0  0  0  0  0  # atno 17321 bound_to 7965
  140.1782  144.4870  150.6542 LP  0  0  0  0  0  0  0  0  0  0  0  0  # atno 17342 bound_to 10162
  140.6674  143.2273  151.5710 LP  0  0  0  0  0  0  0  0  0  0  0  0  # atno 17343 bound_to 10162
  155.9666  130.4425  150.5385 LP  0  0  0  0  0  0  0  0  0  0  0  0  # atno 17370 bound_to 10713
  157.3271  131.0692  151.1889 LP  0  0  0  0  0  0  0  0  0  0  0  0  # atno 17371 bound_to 10713
  141.1167  133.6625  156.3112 LP  0  0  0  0  0  0  0  0  0  0  0  0  # atno 17394 bound_to 11000
  140.5730  134.5822  157.5462 LP  0  0  0  0  0  0  0  0  0  0  0  0  # atno 17395 bound_to 11000

$$$$
