AV-unprocessed.smi:1372|AV-procd|sdf|5583|dock1
  -GOLD-   22720 5183D 1   1.00000     0.00000
 Structure written by MMmdl.
 41 43  0  0  0  0  0  0  0  0  1 V2000
  150.1343  139.3689  154.2996 C   0  0  0  0  0  0  0  0  0  0  0  0
  151.8169  138.8357  154.8155 S   0  0  0  0  0  0  0  0  0  0  0  0
  152.2440  137.7437  153.9272 O   0  0  0  0  0  0  0  0  0  0  0  0
  152.6608  140.0324  154.9532 O   0  0  0  0  0  0  0  0  0  0  0  0
  151.4913  138.1426  156.4971 C   0  0  0  0  0  0  0  0  0  0  0  0
  152.1979  138.9439  157.5547 C   0  0  0  0  0  0  0  0  0  0  0  0
  153.3409  138.5262  158.1026 N   0  0  0  0  0  0  0  0  0  0  0  0
  153.6472  139.5365  158.9911 C   0  0  0  0  0  0  0  0  0  0  0  0
  154.7453  139.6880  159.8677 C   0  0  0  0  0  0  0  0  0  0  0  0
  154.8457  140.8251  160.6959 C   0  0  0  0  0  0  0  0  0  0  0  0
  153.8514  141.8241  160.6595 C   0  0  0  0  0  0  0  0  0  0  0  0
  152.7482  141.6911  159.7943 C   0  0  0  0  0  0  0  0  0  0  0  0
  152.6532  140.5538  158.9697 C   0  0  0  0  0  0  0  0  0  0  0  0
  151.7190  140.1240  158.0320 N   0  0  0  0  0  0  0  0  0  0  0  0
  150.4956  140.8345  157.6797 C   0  0  0  0  0  0  0  0  0  0  0  0
  150.7659  142.1949  157.0066 C   0  0  1  0  0  0  0  0  0  0  0  0
  149.8177  142.4320  155.9851 O   0  0  0  0  0  0  0  0  0  0  0  0
  150.7965  143.3178  158.0311 C   0  0  0  0  0  0  0  0  0  0  0  0
  151.9194  144.1695  158.1097 C   0  0  0  0  0  0  0  0  0  0  0  0
  151.9594  145.2054  159.0632 C   0  0  0  0  0  0  0  0  0  0  0  0
  150.8780  145.3943  159.9450 C   0  0  0  0  0  0  0  0  0  0  0  0
  149.7564  144.5460  159.8736 C   0  0  0  0  0  0  0  0  0  0  0  0
  149.7160  143.5097  158.9205 C   0  0  0  0  0  0  0  0  0  0  0  0
  150.1839  139.8070  153.3029 H   0  0  0  0  0  0  0  0  0  0  0  0
  149.7555  140.1111  155.0022 H   0  0  0  0  0  0  0  0  0  0  0  0
  149.4670  138.5074  154.2834 H   0  0  0  0  0  0  0  0  0  0  0  0
  150.4138  138.1390  156.6431 H   0  0  0  0  0  0  0  0  0  0  0  0
  151.8393  137.1101  156.5240 H   0  0  0  0  0  0  0  0  0  0  0  0
  155.5116  138.9279  159.9018 H   0  0  0  0  0  0  0  0  0  0  0  0
  155.6895  140.9312  161.3619 H   0  0  0  0  0  0  0  0  0  0  0  0
  153.9358  142.6923  161.2967 H   0  0  0  0  0  0  0  0  0  0  0  0
  151.9850  142.4545  159.7648 H   0  0  0  0  0  0  0  0  0  0  0  0
  149.8627  140.2009  157.0593 H   0  0  0  0  0  0  0  0  0  0  0  0
  149.9299  140.9936  158.5987 H   0  0  0  0  0  0  0  0  0  0  0  0
  151.7410  142.1532  156.5191 H   0  0  0  0  0  0  0  0  0  0  0  0
  149.4167  143.2740  156.1381 H   0  0  0  0  0  0  0  0  0  0  0  0
  152.7558  144.0305  157.4402 H   0  0  0  0  0  0  0  0  0  0  0  0
  152.8208  145.8546  159.1189 H   0  0  0  0  0  0  0  0  0  0  0  0
  150.9091  146.1884  160.6764 H   0  0  0  0  0  0  0  0  0  0  0  0
  148.9275  144.6897  160.5507 H   0  0  0  0  0  0  0  0  0  0  0  0
  148.8533  142.8608  158.8755 H   0  0  0  0  0  0  0  0  0  0  0  0
  1  2  1  0  0  0  0
  1 24  1  0  0  0  0
  1 25  1  0  0  0  0
  1 26  1  0  0  0  0
  2  3  2  0  0  0  0
  2  4  2  0  0  0  0
  2  5  1  0  0  0  0
  5  6  1  0  0  0  0
  5 27  1  0  0  0  0
  5 28  1  0  0  0  0
  6 14  1  0  0  0  0
  6  7  2  0  0  0  0
  7  8  1  0  0  0  0
  8 13  2  0  0  0  0
  8  9  1  0  0  0  0
  9 10  2  0  0  0  0
  9 29  1  0  0  0  0
 10 11  1  0  0  0  0
 10 30  1  0  0  0  0
 11 12  2  0  0  0  0
 11 31  1  0  0  0  0
 12 13  1  0  0  0  0
 12 32  1  0  0  0  0
 13 14  1  0  0  0  0
 14 15  1  0  0  0  0
 15 16  1  0  0  0  0
 15 33  1  0  0  0  0
 15 34  1  0  0  0  0
 16 17  1  0  0  0  0
 16 18  1  0  0  0  0
 16 35  1  0  0  0  0
 17 36  1  0  0  0  0
 18 23  1  0  0  0  0
 18 19  2  0  0  0  0
 19 20  1  0  0  0  0
 19 37  1  0  0  0  0
 20 21  2  0  0  0  0
 20 38  1  0  0  0  0
 21 22  1  0  0  0  0
 21 39  1  0  0  0  0
 22 23  2  0  0  0  0
 22 40  1  0  0  0  0
 23 41  1  0  0  0  0
M  END
> <s_m_source_file>
AV-unprocessed.smi

> <i_m_source_file_index>
1372

> <i_lp_mmshare_version>
43012

> <i_f3d_flags>
0

> <s_epik_input>
W2NIXTFbY0hdW2NIXVtjSF1jKGMxMiluKGMobjIpW0NIMl1TKD1PKSg9TylbQ0gzXSlbQ0gyXVtDQEhdKFtPSF0pYzNbY0hdW2NIXVtjSF1bY0hdW2NIXTM=

> <s_epik_cmdline>
J2VwaWtfcHl0aG9uJywgJy1waCcsICc3LjAnLCAnLXRuJywgJzgnLCAnLW1hJywgJzIwMCcsICctbWV0YWxfYmluZGluZycsICctaW1hZScsICc8aW5maWxlLm1hZT4nLCAnLW9tYWUnLCAnPG91dGZpbGUubWFlPic=

> <r_epik_Ionization_Penalty>
0.0151431

> <r_epik_Ionization_Penalty_Charging>
0

> <r_epik_Ionization_Penalty_Neutral>
0.0151431

> <r_epik_State_Penalty>
0.0118835

> <r_epik_Charging_Adjusted_Penalty>
0.0118835

> <i_epik_Tot_Q>
0

> <i_epik_Tot_abs_Q>
0

> <r_epik_Metal_State_Penalty>
1.20034e-05

> <b_epik_Metal_Only>
0

> <s_lp_Force_Field>
OPLS_2005

> <r_lp_Energy>
10.2865

> <b_lp_Chiralities_Consistent>
1

> <s_lp_Variant>
AV-unprocessed.smi:1372-2

> <Gold.Version>
5.8.1

> <Gold.Id.Protein>
6NUR|6NUR_protein|mol2

> <Gold.PLP.Fitness>
60.3927

> <Gold.PLP.PLP>
-52.5086

> <Gold.PLP.part.hbond>
-4.0000

> <Gold.PLP.part.metal>
0.0000

> <Gold.PLP.part.buried>
-8.3176

> <Gold.PLP.part.nonpolar>
-41.8263

> <Gold.PLP.part.repulsive>
0.1850

> <Gold.PLP.ligand.clash>
0.0000

> <Gold.PLP.ligand.torsion>
0.9456

> <Gold.PLP.Chemscore.Hbond>
3.1833

> <Gold.PLP.Chemscore.CHOScore>
0.0000

> <Gold.PLP.Chemscore.Metal>
0.0000

> <Gold.Chemscore.Hbonds>
donor molecule, donor type, donor heavy atom, donor atom, acceptor molecule, acceptor atom, score
      L1  H    17    36       P1  8028  1.00
      P1  H  7989  7998       L1     4  0.24
      P1  H  7997  8010       L1     4  1.00
      P1  H 10752 10765       L1     3  0.51

> <Gold.PLP.Chemscore.Internal.Correction>
0.2254

> <Gold.Rescore>
     Score         DG    S(hbond)    S(metal)    S(lipo)     H(rot)  DE(clash)    DE(int)     intcor
     24.05     -25.21       2.94        0.00     135.78       2.33       0.02       1.13       ----

> <Gold.Chemscore.Fitness>
24.0499

> <Gold.Chemscore.DG>
-25.2085

> <Gold.Chemscore.ZeroCoef>
-5.4800

> <Gold.Chemscore.Hbond>
2.9366

> <Gold.Chemscore.Metal>
0.0000

> <Gold.Chemscore.Lipo>
135.7828

> <Gold.Chemscore.Internal_Hbond>
0.0000

> <Gold.Chemscore.DEClash>
0.0242

> <Gold.Chemscore.DEInternal>
1.1344

> <Gold.Chemscore.Rot>
2.3306

> <Gold.Chemscore.Internal.Correction>
   9.000000E+99

> <Gold.Chemscore.Hbonds>
donor molecule, donor type, donor heavy atom, donor atom, acceptor molecule, acceptor atom, score
      L1  H    17    36       P1  8028  0.96
      P1  H  7989  7998       L1     4  0.01
      P1  H  7997  8010       L1     4  0.93
      P1  H 10752 10765       L1     3  0.50

> <Gold.Chemscore.Hbond.Weighted>
-9.8083

> <Gold.Chemscore.Metal.Weighted>
-0.0000

> <Gold.Chemscore.Lipo.Weighted>
-15.8866

> <Gold.Chemscore.Internal_Hbond.Weighted>
0.0000

> <Gold.Chemscore.DEClash.Weighted>
0.0242

> <Gold.Chemscore.DEInternal.Weighted>
1.1344

> <Gold.Chemscore.Rot.Weighted>
5.9664

> <Gold.Chemscore.Internal.Correction.Weighted>
   9.000000E+99

> <Gold.Protein.RotatedTorsions>
[ 6907 6896 6895 6894 ] final -167.26 input  -60.11 | X-H torsion
[ 7974 7965 7964 7962 ] final  -83.62 input  175.53 | X-H torsion
[ 8008 7997 7996 7995 ] final  107.43 input   59.86 | X-H torsion
[ 10167 10162 10161 10158 ] final -177.28 input  -65.29 | X-H torsion
[ 10718 10713 10712 10709 ] final  171.15 input   66.30 | X-H torsion
[ 10763 10752 10751 10750 ] final  152.65 input  -60.55 | X-H torsion
[ 11005 11000 10999 10996 ] final  172.91 input  -57.11 | X-H torsion

> <Gold.Protein.ActiveResidues>
 VAL166  LYS551  ARG553  GLY616  TRP617  ASP618  TYR619  PRO620  LYS621  CYS622 
 ASP623  PHE694  ASN695  SER759  ASP760  ASP761  ALA762  ILE779  LEU786  VAL792 
 PHE793  MET794  SER795  GLU796  ALA797  LYS798  CYS799  TRP800  GLU811  SER814 

> <Gold.Protein.RotatedAtoms>
  151.4567  133.3603  159.2802 H   0  0  0  0  0  0  0  0  0  0  0  0  # atno 6907 bound_to 6896
  150.9054  134.8470  159.7399 H   0  0  0  0  0  0  0  0  0  0  0  0  # atno 6908 bound_to 6896
  152.4903  134.4491  159.9620 H   0  0  0  0  0  0  0  0  0  0  0  0  # atno 6909 bound_to 6896
  145.5175  140.9534  143.1673 H   0  0  0  0  0  0  0  0  0  0  0  0  # atno 7974 bound_to 7965
  156.1824  140.3095  155.9173 H   0  0  0  0  0  0  0  0  0  0  0  0  # atno 8008 bound_to 7997
  155.3356  140.0463  157.3061 H   0  0  0  0  0  0  0  0  0  0  0  0  # atno 8009 bound_to 7997
  154.5357  140.2245  155.8737 H   0  0  0  0  0  0  0  0  0  0  0  0  # atno 8010 bound_to 7997
  139.5488  144.2165  152.1038 H   0  0  0  0  0  0  0  0  0  0  0  0  # atno 10167 bound_to 10162
  156.9978  131.0167  151.2839 H   0  0  0  0  0  0  0  0  0  0  0  0  # atno 10718 bound_to 10713
  154.1235  135.2831  155.3202 H   0  0  0  0  0  0  0  0  0  0  0  0  # atno 10763 bound_to 10752
  154.6406  135.5404  153.7788 H   0  0  0  0  0  0  0  0  0  0  0  0  # atno 10764 bound_to 10752
  153.0305  135.6485  154.1388 H   0  0  0  0  0  0  0  0  0  0  0  0  # atno 10765 bound_to 10752
  140.3348  134.7326  157.4160 H   0  0  0  0  0  0  0  0  0  0  0  0  # atno 11005 bound_to 11000
  144.7694  139.6770  143.7201 LP  0  0  0  0  0  0  0  0  0  0  0  0  # atno 17320 bound_to 7965
  146.2127  139.5494  142.9670 LP  0  0  0  0  0  0  0  0  0  0  0  0  # atno 17321 bound_to 7965
  140.1656  144.4984  150.6608 LP  0  0  0  0  0  0  0  0  0  0  0  0  # atno 17342 bound_to 10162
  140.6744  143.2299  151.5544 LP  0  0  0  0  0  0  0  0  0  0  0  0  # atno 17343 bound_to 10162
  157.5412  130.8121  149.8031 LP  0  0  0  0  0  0  0  0  0  0  0  0  # atno 17370 bound_to 10713
  156.0182  130.3805  150.2043 LP  0  0  0  0  0  0  0  0  0  0  0  0  # atno 17371 bound_to 10713
  140.0830  134.5705  155.8521 LP  0  0  0  0  0  0  0  0  0  0  0  0  # atno 17394 bound_to 11000
  141.2054  133.6646  156.6178 LP  0  0  0  0  0  0  0  0  0  0  0  0  # atno 17395 bound_to 11000

$$$$
