AV-unprocessed.smi:1801|AV-procd|sdf|7270|dock6
  -GOLD-   22720 8523D 1   1.00000     0.00000
 Structure written by MMmdl.
 37 38  0  0  0  0  0  0  0  0  3 V2000
  144.9735  135.6707  150.6851 C   0  0  0  0  0  0  0  0  0  0  0  0
  145.0717  135.4986  152.2100 C   0  0  1  0  0  0  0  0  0  0  0  0
  145.1878  136.8785  152.8961 C   0  0  0  0  0  0  0  0  0  0  0  0
  146.5562  137.3892  152.9118 N   0  0  0  0  0  0  0  0  0  0  0  0
  146.9500  138.5786  153.3886 C   0  0  0  0  0  0  0  0  0  0  0  0
  146.1288  139.3352  153.9111 O   0  0  0  0  0  0  0  0  0  0  0  0
  148.2684  138.8217  153.2169 N   0  5  0  0  0  0  0  0  0  0  0  0
  148.8467  139.8600  153.8431 C   0  0  0  0  0  0  0  0  0  0  0  0
  150.1425  139.8554  154.1942 N   0  0  0  0  0  0  0  0  0  0  0  0
  150.5415  141.0262  154.8246 N   0  0  0  0  0  0  0  0  0  0  0  0
  149.5327  141.8912  154.9264 C   0  0  0  0  0  0  0  0  0  0  0  0
  148.0045  141.3553  154.2598 S   0  0  0  0  0  0  0  0  0  0  0  0
  143.8863  134.6704  152.7599 C   0  0  0  0  0  0  0  0  0  0  0  0
  144.0278  133.2235  152.4729 N   0  3  0  0  0  0  0  0  0  0  0  0
  143.5193  132.7934  151.1466 C   0  0  0  0  0  0  0  0  0  0  0  0
  144.5761  131.8581  150.5453 C   0  0  0  0  0  0  0  0  0  0  0  0
  145.4577  131.4696  151.7275 C   0  0  0  0  0  0  0  0  0  0  0  0
  145.4080  132.7148  152.6062 C   0  0  0  0  0  0  0  0  0  0  0  0
  144.0684  136.2098  150.4037 H   0  0  0  0  0  0  0  0  0  0  0  0
  144.9606  134.7079  150.1740 H   0  0  0  0  0  0  0  0  0  0  0  0
  145.8258  136.2310  150.2993 H   0  0  0  0  0  0  0  0  0  0  0  0
  145.9972  134.9589  152.4115 H   0  0  0  0  0  0  0  0  0  0  0  0
  144.5402  137.6056  152.4033 H   0  0  0  0  0  0  0  0  0  0  0  0
  144.8442  136.8111  153.9287 H   0  0  0  0  0  0  0  0  0  0  0  0
  147.2679  136.7975  152.5084 H   0  0  0  0  0  0  0  0  0  0  0  0
  149.6896  142.8512  155.3947 H   0  0  0  0  0  0  0  0  0  0  0  0
  143.7794  134.7909  153.8388 H   0  0  0  0  0  0  0  0  0  0  0  0
  142.9577  135.0367  152.3196 H   0  0  0  0  0  0  0  0  0  0  0  0
  142.5729  132.2715  151.2912 H   0  0  0  0  0  0  0  0  0  0  0  0
  143.3317  133.6366  150.4796 H   0  0  0  0  0  0  0  0  0  0  0  0
  144.1387  130.9946  150.0433 H   0  0  0  0  0  0  0  0  0  0  0  0
  145.1709  132.4031  149.8109 H   0  0  0  0  0  0  0  0  0  0  0  0
  145.0204  130.6216  152.2567 H   0  0  0  0  0  0  0  0  0  0  0  0
  146.4715  131.1982  151.4312 H   0  0  0  0  0  0  0  0  0  0  0  0
  146.1133  133.4567  152.2276 H   0  0  0  0  0  0  0  0  0  0  0  0
  145.6615  132.5069  153.6460 H   0  0  0  0  0  0  0  0  0  0  0  0
  143.4800  132.7273  153.1613 H   0  0  0  0  0  0  0  0  0  0  0  0
  1  2  1  0  0  0  0
  1 19  1  0  0  0  0
  1 20  1  0  0  0  0
  1 21  1  0  0  0  0
  2  3  1  0  0  0  0
  2 13  1  0  0  0  0
  2 22  1  0  0  0  0
  3  4  1  0  0  0  0
  3 23  1  0  0  0  0
  3 24  1  0  0  0  0
  4  5  1  0  0  0  0
  4 25  1  0  0  0  0
  5  6  2  0  0  0  0
  5  7  1  0  0  0  0
  7  8  1  0  0  0  0
  8 12  1  0  0  0  0
  8  9  2  0  0  0  0
  9 10  1  0  0  0  0
 10 11  2  0  0  0  0
 11 12  1  0  0  0  0
 11 26  1  0  0  0  0
 13 14  1  0  0  0  0
 13 27  1  0  0  0  0
 13 28  1  0  0  0  0
 14 18  1  0  0  0  0
 14 15  1  0  0  0  0
 14 37  1  0  0  0  0
 15 16  1  0  0  0  0
 15 29  1  0  0  0  0
 15 30  1  0  0  0  0
 16 17  1  0  0  0  0
 16 31  1  0  0  0  0
 16 32  1  0  0  0  0
 17 18  1  0  0  0  0
 17 33  1  0  0  0  0
 17 34  1  0  0  0  0
 18 35  1  0  0  0  0
 18 36  1  0  0  0  0
M  CHG  1   7  -1
M  CHG  1  14   1
M  END
> <s_m_source_file>
AV-unprocessed.smi

> <i_m_source_file_index>
1801

> <i_lp_mmshare_version>
43012

> <i_f3d_flags>
0

> <s_epik_input>
W0NIMl0xW0NIMl1bQ0gyXVtDSDJdTjFbQ0gyXVtDQEhdKFtDSDNdKVtDSDJdW05IXUMoPU8pW05IXWMybm5bY0hdczI=

> <s_epik_cmdline>
J2VwaWtfcHl0aG9uJywgJy1waCcsICc3LjAnLCAnLXRuJywgJzgnLCAnLW1hJywgJzIwMCcsICctbWV0YWxfYmluZGluZycsICctaW1hZScsICc8aW5maWxlLm1hZT4nLCAnLW9tYWUnLCAnPG91dGZpbGUubWFlPic=

> <r_lp_tautomer_probability>
1

> <r_epik_Ionization_Penalty>
3.29721

> <r_epik_Ionization_Penalty_Charging>
3.25987

> <r_epik_Ionization_Penalty_Neutral>
0.0373399

> <r_epik_State_Penalty>
3.2571

> <r_epik_Charging_Adjusted_Penalty>
6.51697

> <i_epik_Tot_Q>
0

> <i_epik_Tot_abs_Q>
2

> <r_epik_Metal_State_Penalty>
0.477553

> <b_epik_Metal_Only>
1

> <s_lp_Force_Field>
OPLS_2005

> <r_lp_Energy>
22.4804

> <b_lp_Chiralities_Consistent>
1

> <s_lp_Variant>
AV-unprocessed.smi:1801-4

> <Gold.Version>
5.8.1

> <Gold.Id.Protein>
6NUR|6NUR_protein|mol2

> <Gold.PLP.Fitness>
38.3234

> <Gold.PLP.PLP>
-27.8049

> <Gold.PLP.part.hbond>
-3.8424

> <Gold.PLP.part.metal>
0.0000

> <Gold.PLP.part.buried>
-4.2918

> <Gold.PLP.part.nonpolar>
-22.0955

> <Gold.PLP.part.repulsive>
2.5885

> <Gold.PLP.ligand.clash>
0.0000

> <Gold.PLP.ligand.torsion>
0.9034

> <Gold.PLP.Chemscore.Hbond>
3.0000

> <Gold.PLP.Chemscore.CHOScore>
1.0000

> <Gold.PLP.Chemscore.Metal>
0.0000

> <Gold.Chemscore.Hbonds>
donor molecule, donor type, donor heavy atom, donor atom, acceptor molecule, acceptor atom, score
      L1  H     4    25       P1  7948  1.00
      L1  H    14    37       P1 10957  1.95
      L1  C    11    26       P1  8028  1.00

> <Gold.PLP.Chemscore.Internal.Correction>
0.3253

> <Gold.Rescore>
     Score         DG    S(hbond)    S(metal)    S(lipo)     H(rot)  DE(clash)    DE(int)     intcor
     10.98     -13.57       1.94        0.00      55.79       1.93       0.24       2.35       ----

> <Gold.Chemscore.Fitness>
10.9826

> <Gold.Chemscore.DG>
-13.5716

> <Gold.Chemscore.ZeroCoef>
-5.4800

> <Gold.Chemscore.Hbond>
1.9449

> <Gold.Chemscore.Metal>
0.0000

> <Gold.Chemscore.Lipo>
55.7915

> <Gold.Chemscore.Internal_Hbond>
0.0000

> <Gold.Chemscore.DEClash>
0.2405

> <Gold.Chemscore.DEInternal>
2.3485

> <Gold.Chemscore.Rot>
1.9266

> <Gold.Chemscore.Internal.Correction>
   9.000000E+99

> <Gold.Chemscore.Hbonds>
donor molecule, donor type, donor heavy atom, donor atom, acceptor molecule, acceptor atom, score
      L1  H     4    25       P1  7948  0.99
      L1  H    14    37       P1 10957  0.32

> <Gold.Chemscore.Hbond.Weighted>
-6.4960

> <Gold.Chemscore.Metal.Weighted>
-0.0000

> <Gold.Chemscore.Lipo.Weighted>
-6.5276

> <Gold.Chemscore.Internal_Hbond.Weighted>
0.0000

> <Gold.Chemscore.DEClash.Weighted>
0.2405

> <Gold.Chemscore.DEInternal.Weighted>
2.3485

> <Gold.Chemscore.Rot.Weighted>
4.9321

> <Gold.Chemscore.Internal.Correction.Weighted>
   9.000000E+99

> <Gold.Protein.RotatedTorsions>
[ 6907 6896 6895 6894 ] final   88.77 input  -60.11 | X-H torsion
[ 7974 7965 7964 7962 ] final  169.41 input  175.53 | X-H torsion
[ 8008 7997 7996 7995 ] final  -24.39 input   59.86 | X-H torsion
[ 10167 10162 10161 10158 ] final  -76.94 input  -65.29 | X-H torsion
[ 10718 10713 10712 10709 ] final  175.97 input   66.30 | X-H torsion
[ 10763 10752 10751 10750 ] final   66.73 input  -60.55 | X-H torsion
[ 11005 11000 10999 10996 ] final   68.60 input  -57.11 | X-H torsion

> <Gold.Protein.ActiveResidues>
 VAL166  LYS551  ARG553  GLY616  TRP617  ASP618  TYR619  PRO620  LYS621  CYS622 
 ASP623  PHE694  ASN695  SER759  ASP760  ASP761  ALA762  ILE779  LEU786  VAL792 
 PHE793  MET794  SER795  GLU796  ALA797  LYS798  CYS799  TRP800  GLU811  SER814 

> <Gold.Protein.RotatedAtoms>
  152.5429  134.2071  159.8734 H   0  0  0  0  0  0  0  0  0  0  0  0  # atno 6907 bound_to 6896
  151.2056  133.4579  159.2604 H   0  0  0  0  0  0  0  0  0  0  0  0  # atno 6908 bound_to 6896
  151.0947  134.9949  159.8475 H   0  0  0  0  0  0  0  0  0  0  0  0  # atno 6909 bound_to 6896
  144.7356  139.9051  143.6411 H   0  0  0  0  0  0  0  0  0  0  0  0  # atno 7974 bound_to 7965
  154.4532  140.1955  156.0457 H   0  0  0  0  0  0  0  0  0  0  0  0  # atno 8008 bound_to 7997
  156.0691  140.3287  155.7526 H   0  0  0  0  0  0  0  0  0  0  0  0  # atno 8009 bound_to 7997
  155.5291  140.0576  157.2883 H   0  0  0  0  0  0  0  0  0  0  0  0  # atno 8010 bound_to 7997
  140.4813  143.2401  151.8053 H   0  0  0  0  0  0  0  0  0  0  0  0  # atno 10167 bound_to 10162
  156.9270  130.9959  151.2994 H   0  0  0  0  0  0  0  0  0  0  0  0  # atno 10718 bound_to 10713
  153.0153  135.5310  154.6869 H   0  0  0  0  0  0  0  0  0  0  0  0  # atno 10763 bound_to 10752
  154.6014  135.2868  155.0533 H   0  0  0  0  0  0  0  0  0  0  0  0  # atno 10764 bound_to 10752
  154.1589  135.6551  153.5033 H   0  0  0  0  0  0  0  0  0  0  0  0  # atno 10765 bound_to 10752
  139.9702  134.6914  156.0463 H   0  0  0  0  0  0  0  0  0  0  0  0  # atno 11005 bound_to 11000
  146.1043  139.4041  143.0327 LP  0  0  0  0  0  0  0  0  0  0  0  0  # atno 17320 bound_to 7965
  145.7534  140.9963  143.1238 LP  0  0  0  0  0  0  0  0  0  0  0  0  # atno 17321 bound_to 7965
  139.4834  144.4768  151.9356 LP  0  0  0  0  0  0  0  0  0  0  0  0  # atno 17342 bound_to 10162
  140.3854  144.2684  150.5904 LP  0  0  0  0  0  0  0  0  0  0  0  0  # atno 17343 bound_to 10162
  157.5871  130.8417  149.8605 LP  0  0  0  0  0  0  0  0  0  0  0  0  # atno 17370 bound_to 10713
  156.0464  130.3727  150.1306 LP  0  0  0  0  0  0  0  0  0  0  0  0  # atno 17371 bound_to 10713
  141.1381  133.6570  156.3652 LP  0  0  0  0  0  0  0  0  0  0  0  0  # atno 17394 bound_to 11000
  140.5310  134.6212  157.5350 LP  0  0  0  0  0  0  0  0  0  0  0  0  # atno 17395 bound_to 11000

$$$$
