AV-unprocessed.smi:915|AV-procd|sdf|4155|dock6
  -GOLD-   22720 2 63D 1   1.00000     0.00000
 Structure written by MMmdl.
 34 35  0  0  0  0  0  0  0  0  1 V2000
  151.3429  139.7590  155.6854 C   0  0  0  0  0  0  0  0  0  0  0  0
  150.3868  140.9516  155.5754 C   0  0  0  0  0  0  0  0  0  0  0  0
  149.2237  140.6683  154.6738 C   0  0  0  0  0  0  0  0  0  0  0  0
  148.2704  141.5629  154.2512 C   0  0  0  0  0  0  0  0  0  0  0  0
  147.0897  140.8163  153.2080 S   0  0  0  0  0  0  0  0  0  0  0  0
  147.9476  139.2945  153.3908 C   0  0  0  0  0  0  0  0  0  0  0  0
  147.5167  138.1057  152.7458 N   0  0  0  0  0  0  0  0  0  0  0  0
  146.2594  137.7294  152.4539 C   0  0  0  0  0  0  0  0  0  0  0  0
  145.2468  138.3953  152.6724 O   0  0  0  0  0  0  0  0  0  0  0  0
  146.2357  136.5170  151.8824 N   0  0  0  0  0  0  0  0  0  0  0  0
  145.0283  135.8151  151.4587 C   0  0  0  0  0  0  0  0  0  0  0  0
  145.1536  134.2886  151.6240 C   0  0  1  0  0  0  0  0  0  0  0  0
  143.9282  133.5313  151.0967 C   0  0  0  0  0  0  0  0  0  0  0  0
  144.3754  132.0926  150.8359 C   0  0  0  0  0  0  0  0  0  0  0  0
  145.7089  132.1833  150.0932 C   0  0  0  0  0  0  0  0  0  0  0  0
  146.6016  133.6120  150.7586 S   0  0  0  0  0  0  0  0  0  0  0  0
  149.0273  139.3764  154.1765 N   0  0  0  0  0  0  0  0  0  0  0  0
  152.1795  139.9919  156.3441 H   0  0  0  0  0  0  0  0  0  0  0  0
  151.7516  139.4894  154.7110 H   0  0  0  0  0  0  0  0  0  0  0  0
  150.8336  138.8839  156.0900 H   0  0  0  0  0  0  0  0  0  0  0  0
  150.0316  141.2179  156.5715 H   0  0  0  0  0  0  0  0  0  0  0  0
  150.9366  141.8208  155.2125 H   0  0  0  0  0  0  0  0  0  0  0  0
  148.1922  142.6133  154.4897 H   0  0  0  0  0  0  0  0  0  0  0  0
  148.2496  137.4620  152.4871 H   0  0  0  0  0  0  0  0  0  0  0  0
  147.1126  136.0364  151.7441 H   0  0  0  0  0  0  0  0  0  0  0  0
  144.1725  136.1863  152.0251 H   0  0  0  0  0  0  0  0  0  0  0  0
  144.8368  136.0643  150.4147 H   0  0  0  0  0  0  0  0  0  0  0  0
  145.2720  134.0389  152.6793 H   0  0  0  0  0  0  0  0  0  0  0  0
  143.0951  133.5759  151.7987 H   0  0  0  0  0  0  0  0  0  0  0  0
  143.5868  133.9764  150.1610 H   0  0  0  0  0  0  0  0  0  0  0  0
  144.5187  131.5773  151.7867 H   0  0  0  0  0  0  0  0  0  0  0  0
  143.6335  131.5300  150.2690 H   0  0  0  0  0  0  0  0  0  0  0  0
  146.2975  131.2708  150.1897 H   0  0  0  0  0  0  0  0  0  0  0  0
  145.5343  132.3571  149.0310 H   0  0  0  0  0  0  0  0  0  0  0  0
  1  2  1  0  0  0  0
  1 18  1  0  0  0  0
  1 19  1  0  0  0  0
  1 20  1  0  0  0  0
  2  3  1  0  0  0  0
  2 21  1  0  0  0  0
  2 22  1  0  0  0  0
  3 17  1  0  0  0  0
  3  4  2  0  0  0  0
  4  5  1  0  0  0  0
  4 23  1  0  0  0  0
  5  6  1  0  0  0  0
  6  7  1  0  0  0  0
  6 17  2  0  0  0  0
  7  8  1  0  0  0  0
  7 24  1  0  0  0  0
  8  9  2  0  0  0  0
  8 10  1  0  0  0  0
 10 11  1  0  0  0  0
 10 25  1  0  0  0  0
 11 12  1  0  0  0  0
 11 26  1  0  0  0  0
 11 27  1  0  0  0  0
 12 16  1  0  0  0  0
 12 13  1  0  0  0  0
 12 28  1  0  0  0  0
 13 14  1  0  0  0  0
 13 29  1  0  0  0  0
 13 30  1  0  0  0  0
 14 15  1  0  0  0  0
 14 31  1  0  0  0  0
 14 32  1  0  0  0  0
 15 16  1  0  0  0  0
 15 33  1  0  0  0  0
 15 34  1  0  0  0  0
M  END
> <s_m_source_file>
AV-unprocessed.smi

> <i_m_source_file_index>
915

> <i_lp_mmshare_version>
43012

> <i_f3d_flags>
0

> <s_epik_input>
W0NIM11bQ0gyXWMxW2NIXXNjKG4xKVtOSF1DKD1PKVtOSF1bQ0gyXVtDQEBIXTJbQ0gyXVtDSDJdW0NIMl1TMg==

> <s_epik_cmdline>
J2VwaWtfcHl0aG9uJywgJy1waCcsICc3LjAnLCAnLXRuJywgJzgnLCAnLW1hJywgJzIwMCcsICctbWV0YWxfYmluZGluZycsICctaW1hZScsICc8aW5maWxlLm1hZT4nLCAnLW9tYWUnLCAnPG91dGZpbGUubWFlPic=

> <r_lp_tautomer_probability>
0.999

> <r_epik_Ionization_Penalty>
0.000460048

> <r_epik_Ionization_Penalty_Charging>
0

> <r_epik_Ionization_Penalty_Neutral>
0.000460048

> <r_epik_State_Penalty>
0.000177984

> <r_epik_Charging_Adjusted_Penalty>
0.000177984

> <i_epik_Tot_Q>
0

> <i_epik_Tot_abs_Q>
0

> <r_epik_Metal_State_Penalty>
0.00612978

> <b_epik_Metal_Only>
0

> <s_lp_Force_Field>
OPLS_2005

> <r_lp_Energy>
6.6865

> <b_lp_Chiralities_Consistent>
1

> <s_lp_Variant>
AV-unprocessed.smi:915-2

> <Gold.Version>
5.8.1

> <Gold.Id.Protein>
6NUR|6NUR_protein|mol2

> <Gold.PLP.Fitness>
40.1596

> <Gold.PLP.PLP>
-32.3790

> <Gold.PLP.part.hbond>
-2.2371

> <Gold.PLP.part.metal>
0.0000

> <Gold.PLP.part.buried>
-2.9085

> <Gold.PLP.part.nonpolar>
-30.6315

> <Gold.PLP.part.repulsive>
3.7970

> <Gold.PLP.ligand.clash>
0.0000

> <Gold.PLP.ligand.torsion>
0.4576

> <Gold.PLP.Chemscore.Hbond>
1.8960

> <Gold.PLP.Chemscore.CHOScore>
1.0000

> <Gold.PLP.Chemscore.Metal>
0.0000

> <Gold.Chemscore.Hbonds>
donor molecule, donor type, donor heavy atom, donor atom, acceptor molecule, acceptor atom, score
      L1  H     7    24       P1  7948  1.00
      L1  H    10    25       P1  7948  0.90
      L1  C     4    23       P1  8028  1.00

> <Gold.PLP.Chemscore.Internal.Correction>
0.0078

> <Gold.Rescore>
     Score         DG    S(hbond)    S(metal)    S(lipo)     H(rot)  DE(clash)    DE(int)     intcor
     15.48     -17.39       1.95        0.00      75.93       1.36       1.47       0.44       ----

> <Gold.Chemscore.Fitness>
15.4838

> <Gold.Chemscore.DG>
-17.3901

> <Gold.Chemscore.ZeroCoef>
-5.4800

> <Gold.Chemscore.Hbond>
1.9489

> <Gold.Chemscore.Metal>
0.0000

> <Gold.Chemscore.Lipo>
75.9251

> <Gold.Chemscore.Internal_Hbond>
0.0000

> <Gold.Chemscore.DEClash>
1.4692

> <Gold.Chemscore.DEInternal>
0.4370

> <Gold.Chemscore.Rot>
1.3603

> <Gold.Chemscore.Internal.Correction>
   9.000000E+99

> <Gold.Chemscore.Hbonds>
donor molecule, donor type, donor heavy atom, donor atom, acceptor molecule, acceptor atom, score
      L1  H     7    24       P1  7948  0.93
      L1  H    10    25       P1  7948  0.88

> <Gold.Chemscore.Hbond.Weighted>
-6.5093

> <Gold.Chemscore.Metal.Weighted>
-0.0000

> <Gold.Chemscore.Lipo.Weighted>
-8.8832

> <Gold.Chemscore.Internal_Hbond.Weighted>
0.0000

> <Gold.Chemscore.DEClash.Weighted>
1.4692

> <Gold.Chemscore.DEInternal.Weighted>
0.4370

> <Gold.Chemscore.Rot.Weighted>
3.4824

> <Gold.Chemscore.Internal.Correction.Weighted>
   9.000000E+99

> <Gold.Protein.RotatedTorsions>
[ 6907 6896 6895 6894 ] final  -78.90 input  -60.11 | X-H torsion
[ 7974 7965 7964 7962 ] final  146.89 input  175.53 | X-H torsion
[ 8008 7997 7996 7995 ] final  129.34 input   59.86 | X-H torsion
[ 10167 10162 10161 10158 ] final  106.10 input  -65.29 | X-H torsion
[ 10718 10713 10712 10709 ] final   94.76 input   66.30 | X-H torsion
[ 10763 10752 10751 10750 ] final    9.41 input  -60.55 | X-H torsion
[ 11005 11000 10999 10996 ] final   -7.34 input  -57.11 | X-H torsion

> <Gold.Protein.ActiveResidues>
 VAL166  LYS551  ARG553  GLY616  TRP617  ASP618  TYR619  PRO620  LYS621  CYS622 
 ASP623  PHE694  ASN695  SER759  ASP760  ASP761  ALA762  ILE779  LEU786  VAL792 
 PHE793  MET794  SER795  GLU796  ALA797  LYS798  CYS799  TRP800  GLU811  SER814 

> <Gold.Protein.RotatedAtoms>
  150.6962  134.4202  159.5201 H   0  0  0  0  0  0  0  0  0  0  0  0  # atno 6907 bound_to 6896
  152.1946  134.8639  160.0523 H   0  0  0  0  0  0  0  0  0  0  0  0  # atno 6908 bound_to 6896
  151.9582  133.3652  159.4062 H   0  0  0  0  0  0  0  0  0  0  0  0  # atno 6909 bound_to 6896
  144.8635  139.5961  143.5920 H   0  0  0  0  0  0  0  0  0  0  0  0  # atno 7974 bound_to 7965
  156.2934  140.2623  156.2582 H   0  0  0  0  0  0  0  0  0  0  0  0  # atno 8008 bound_to 7997
  154.9815  140.0389  157.2298 H   0  0  0  0  0  0  0  0  0  0  0  0  # atno 8009 bound_to 7997
  154.7768  140.2788  155.6100 H   0  0  0  0  0  0  0  0  0  0  0  0  # atno 8010 bound_to 7997
  139.7037  144.7090  151.1142 H   0  0  0  0  0  0  0  0  0  0  0  0  # atno 10167 bound_to 10162
  157.6945  131.0523  150.4235 H   0  0  0  0  0  0  0  0  0  0  0  0  # atno 10718 bound_to 10713
  153.2144  135.6873  153.8075 H   0  0  0  0  0  0  0  0  0  0  0  0  # atno 10763 bound_to 10752
  153.7296  135.3254  155.3284 H   0  0  0  0  0  0  0  0  0  0  0  0  # atno 10764 bound_to 10752
  154.8238  135.4632  154.0965 H   0  0  0  0  0  0  0  0  0  0  0  0  # atno 10765 bound_to 10752
  140.7117  133.8903  155.8756 H   0  0  0  0  0  0  0  0  0  0  0  0  # atno 11005 bound_to 11000
  146.2878  139.7053  142.9183 LP  0  0  0  0  0  0  0  0  0  0  0  0  # atno 17320 bound_to 7965
  145.4267  141.0411  143.2933 LP  0  0  0  0  0  0  0  0  0  0  0  0  # atno 17321 bound_to 7965
  140.7716  143.5388  150.9337 LP  0  0  0  0  0  0  0  0  0  0  0  0  # atno 17342 bound_to 10162
  139.9071  143.6765  152.3121 LP  0  0  0  0  0  0  0  0  0  0  0  0  # atno 17343 bound_to 10162
  156.4608  130.4031  149.6577 LP  0  0  0  0  0  0  0  0  0  0  0  0  # atno 17370 bound_to 10713
  156.3693  130.7522  151.2503 LP  0  0  0  0  0  0  0  0  0  0  0  0  # atno 17371 bound_to 10713
  141.0078  134.1062  157.4252 LP  0  0  0  0  0  0  0  0  0  0  0  0  # atno 17394 bound_to 11000
  139.8870  135.0086  156.6532 LP  0  0  0  0  0  0  0  0  0  0  0  0  # atno 17395 bound_to 11000

$$$$
