AV-unprocessed.smi:1254|AV-procd|sdf|5279|dock3
  -GOLD-   22720 4393D 1   1.00000     0.00000
 Structure written by MMmdl.
 44 45  0  0  0  0  0  0  0  0  2 V2000
  144.6725  134.5685  162.8977 C   0  0  0  0  0  0  0  0  0  0  0  0
  145.6676  135.4943  162.2859 C   0  0  0  0  0  0  0  0  0  0  0  0
  147.0104  135.3918  162.0577 C   0  0  0  0  0  0  0  0  0  0  0  0
  147.3306  136.6308  161.4384 C   0  0  0  0  0  0  0  0  0  0  0  0
  148.5507  137.0168  161.0344 N   0  5  0  0  0  0  0  0  0  0  0  0
  148.9212  136.8644  159.7418 C   0  0  0  0  0  0  0  0  0  0  0  0
  149.0932  135.7954  159.1516 O   0  0  0  0  0  0  0  0  0  0  0  0
  149.1070  138.0248  159.0966 N   0  0  0  0  0  0  0  0  0  0  0  0
  149.5308  138.1823  157.7088 C   0  0  0  0  0  0  0  0  0  0  0  0
  150.5158  139.3528  157.5445 C   0  0  2  0  0  0  0  0  0  0  0  0
  150.0496  140.6065  158.3116 C   0  0  0  0  0  0  0  0  0  0  0  0
  150.9473  141.7417  158.1102 N   0  0  0  0  0  0  0  0  0  0  0  0
  150.5132  142.9443  158.8219 C   0  0  0  0  0  0  0  0  0  0  0  0
  151.6377  143.9389  159.1945 C   0  0  0  0  0  0  0  0  0  0  0  0
  151.0913  145.1581  159.9564 C   0  0  0  0  0  0  0  0  0  0  0  0
  152.4018  144.4027  157.9447 C   0  0  0  0  0  0  0  0  0  0  0  0
  151.0714  141.9978  156.6796 C   0  0  0  0  0  0  0  0  0  0  0  0
  151.5297  140.7488  155.9101 C   0  0  0  0  0  0  0  0  0  0  0  0
  150.6217  139.6834  156.1616 O   0  0  0  0  0  0  0  0  0  0  0  0
  146.2779  137.4226  161.3180 N   0  0  0  0  0  0  0  0  0  0  0  0
  145.2058  136.6984  161.8528 O   0  0  0  0  0  0  0  0  0  0  0  0
  144.9045  134.3940  163.9483 H   0  0  0  0  0  0  0  0  0  0  0  0
  144.6767  133.6061  162.3860 H   0  0  0  0  0  0  0  0  0  0  0  0
  143.6640  134.9785  162.8381 H   0  0  0  0  0  0  0  0  0  0  0  0
  147.6611  134.5627  162.2922 H   0  0  0  0  0  0  0  0  0  0  0  0
  148.9536  138.8721  159.6230 H   0  0  0  0  0  0  0  0  0  0  0  0
  149.9572  137.2565  157.3190 H   0  0  0  0  0  0  0  0  0  0  0  0
  148.6329  138.3762  157.1215 H   0  0  0  0  0  0  0  0  0  0  0  0
  151.4962  139.0495  157.9172 H   0  0  0  0  0  0  0  0  0  0  0  0
  149.0394  140.8732  157.9965 H   0  0  0  0  0  0  0  0  0  0  0  0
  149.9941  140.3597  159.3711 H   0  0  0  0  0  0  0  0  0  0  0  0
  149.8001  143.4674  158.1833 H   0  0  0  0  0  0  0  0  0  0  0  0
  149.9455  142.6678  159.7117 H   0  0  0  0  0  0  0  0  0  0  0  0
  152.3615  143.4315  159.8340 H   0  0  0  0  0  0  0  0  0  0  0  0
  150.3940  145.7281  159.3419 H   0  0  0  0  0  0  0  0  0  0  0  0
  151.8987  145.8299  160.2493 H   0  0  0  0  0  0  0  0  0  0  0  0
  150.5657  144.8664  160.8649 H   0  0  0  0  0  0  0  0  0  0  0  0
  151.7441  144.9208  157.2460 H   0  0  0  0  0  0  0  0  0  0  0  0
  152.8465  143.5567  157.4196 H   0  0  0  0  0  0  0  0  0  0  0  0
  153.2107  145.0842  158.2087 H   0  0  0  0  0  0  0  0  0  0  0  0
  150.1134  142.3335  156.2798 H   0  0  0  0  0  0  0  0  0  0  0  0
  151.7821  142.8068  156.5074 H   0  0  0  0  0  0  0  0  0  0  0  0
  151.5545  140.9498  154.8391 H   0  0  0  0  0  0  0  0  0  0  0  0
  152.5383  140.4568  156.2062 H   0  0  0  0  0  0  0  0  0  0  0  0
  1  2  1  0  0  0  0
  1 22  1  0  0  0  0
  1 23  1  0  0  0  0
  1 24  1  0  0  0  0
  2 21  1  0  0  0  0
  2  3  2  0  0  0  0
  3  4  1  0  0  0  0
  3 25  1  0  0  0  0
  4  5  1  0  0  0  0
  4 20  2  0  0  0  0
  5  6  1  0  0  0  0
  6  7  2  0  0  0  0
  6  8  1  0  0  0  0
  8  9  1  0  0  0  0
  8 26  1  0  0  0  0
  9 10  1  0  0  0  0
  9 27  1  0  0  0  0
  9 28  1  0  0  0  0
 10 19  1  0  0  0  0
 10 11  1  0  0  0  0
 10 29  1  0  0  0  0
 11 12  1  0  0  0  0
 11 30  1  0  0  0  0
 11 31  1  0  0  0  0
 12 13  1  0  0  0  0
 12 17  1  0  0  0  0
 13 14  1  0  0  0  0
 13 32  1  0  0  0  0
 13 33  1  0  0  0  0
 14 15  1  0  0  0  0
 14 16  1  0  0  0  0
 14 34  1  0  0  0  0
 15 35  1  0  0  0  0
 15 36  1  0  0  0  0
 15 37  1  0  0  0  0
 16 38  1  0  0  0  0
 16 39  1  0  0  0  0
 16 40  1  0  0  0  0
 17 18  1  0  0  0  0
 17 41  1  0  0  0  0
 17 42  1  0  0  0  0
 18 19  1  0  0  0  0
 18 43  1  0  0  0  0
 18 44  1  0  0  0  0
 20 21  1  0  0  0  0
M  CHG  1   5  -1
M  END
> <s_m_source_file>
AV-unprocessed.smi

> <i_m_source_file_index>
1254

> <i_lp_mmshare_version>
43012

> <i_f3d_flags>
0

> <s_epik_input>
W0NIM11jMVtjSF1jKG5vMSlbTkhdQyg9TylbTkhdW0NIMl1bQ0BASF0yW0NIMl1OKFtDSDJdW0NIMl1PMilbQ0gyXVtDSF0oW0NIM10pW0NIM10=

> <s_epik_cmdline>
J2VwaWtfcHl0aG9uJywgJy1waCcsICc3LjAnLCAnLXRuJywgJzgnLCAnLW1hJywgJzIwMCcsICctbWV0YWxfYmluZGluZycsICctaW1hZScsICc8aW5maWxlLm1hZT4nLCAnLW9tYWUnLCAnPG91dGZpbGUubWFlPic=

> <r_epik_Ionization_Penalty>
7.56718

> <r_epik_Ionization_Penalty_Charging>
6.43435

> <r_epik_Ionization_Penalty_Neutral>
1.13283

> <r_epik_State_Penalty>
7.60314

> <r_epik_Charging_Adjusted_Penalty>
14.0375

> <i_epik_Tot_Q>
-1

> <i_epik_Tot_abs_Q>
1

> <r_epik_Metal_State_Penalty>
3.53636

> <b_epik_Metal_Only>
1

> <s_lp_Force_Field>
OPLS_2005

> <r_lp_Energy>
18.6131

> <b_lp_Chiralities_Consistent>
1

> <s_lp_Variant>
AV-unprocessed.smi:1254-11

> <Gold.Version>
5.8.1

> <Gold.Id.Protein>
6NUR|6NUR_protein|mol2

> <Gold.PLP.Fitness>
46.3681

> <Gold.PLP.PLP>
-37.9753

> <Gold.PLP.part.hbond>
-3.0000

> <Gold.PLP.part.metal>
0.0000

> <Gold.PLP.part.buried>
-6.2019

> <Gold.PLP.part.nonpolar>
-29.5427

> <Gold.PLP.part.repulsive>
0.2643

> <Gold.PLP.ligand.clash>
0.0000

> <Gold.PLP.ligand.torsion>
1.9093

> <Gold.PLP.Chemscore.Hbond>
4.0000

> <Gold.PLP.Chemscore.CHOScore>
0.0000

> <Gold.PLP.Chemscore.Metal>
0.0000

> <Gold.Chemscore.Hbonds>
donor molecule, donor type, donor heavy atom, donor atom, acceptor molecule, acceptor atom, score
      P1  H  6896  6909       L1     7  0.94
      P1  H  6931  6943       L1     5  2.00
      P1  H  6934  6947       L1    20  0.95

> <Gold.PLP.Chemscore.Internal.Correction>
0.2115

> <Gold.Rescore>
     Score         DG    S(hbond)    S(metal)    S(lipo)     H(rot)  DE(clash)    DE(int)     intcor
     16.37     -18.48       1.99        0.00      90.53       1.65       0.15       1.96       ----

> <Gold.Chemscore.Fitness>
16.3708

> <Gold.Chemscore.DG>
-18.4791

> <Gold.Chemscore.ZeroCoef>
-5.4800

> <Gold.Chemscore.Hbond>
1.9876

> <Gold.Chemscore.Metal>
0.0000

> <Gold.Chemscore.Lipo>
90.5252

> <Gold.Chemscore.Internal_Hbond>
0.0000

> <Gold.Chemscore.DEClash>
0.1518

> <Gold.Chemscore.DEInternal>
1.9565

> <Gold.Chemscore.Rot>
1.6526

> <Gold.Chemscore.Internal.Correction>
   9.000000E+99

> <Gold.Chemscore.Hbonds>
donor molecule, donor type, donor heavy atom, donor atom, acceptor molecule, acceptor atom, score
      P1  H  6896  6909       L1     7  0.89
      P1  H  6931  6943       L1     5  0.69
      P1  H  6934  6947       L1    20  0.21

> <Gold.Chemscore.Hbond.Weighted>
-6.6384

> <Gold.Chemscore.Metal.Weighted>
-0.0000

> <Gold.Chemscore.Lipo.Weighted>
-10.5915

> <Gold.Chemscore.Internal_Hbond.Weighted>
0.0000

> <Gold.Chemscore.DEClash.Weighted>
0.1518

> <Gold.Chemscore.DEInternal.Weighted>
1.9565

> <Gold.Chemscore.Rot.Weighted>
4.2308

> <Gold.Chemscore.Internal.Correction.Weighted>
   9.000000E+99

> <Gold.Protein.RotatedTorsions>
[ 6907 6896 6895 6894 ] final   44.37 input  -60.11 | X-H torsion
[ 7974 7965 7964 7962 ] final -110.66 input  175.53 | X-H torsion
[ 8008 7997 7996 7995 ] final   36.95 input   59.86 | X-H torsion
[ 10167 10162 10161 10158 ] final   -2.66 input  -65.29 | X-H torsion
[ 10718 10713 10712 10709 ] final  117.18 input   66.30 | X-H torsion
[ 10763 10752 10751 10750 ] final   56.26 input  -60.55 | X-H torsion
[ 11005 11000 10999 10996 ] final  -92.38 input  -57.11 | X-H torsion

> <Gold.Protein.ActiveResidues>
 VAL166  LYS551  ARG553  GLY616  TRP617  ASP618  TYR619  PRO620  LYS621  CYS622 
 ASP623  PHE694  ASN695  SER759  ASP760  ASP761  ALA762  ILE779  LEU786  VAL792 
 PHE793  MET794  SER795  GLU796  ALA797  LYS798  CYS799  TRP800  GLU811  SER814 

> <Gold.Protein.RotatedAtoms>
  152.2317  134.8315  160.0472 H   0  0  0  0  0  0  0  0  0  0  0  0  # atno 6907 bound_to 6896
  151.9061  133.3545  159.3856 H   0  0  0  0  0  0  0  0  0  0  0  0  # atno 6908 bound_to 6896
  150.7028  134.4704  159.5467 H   0  0  0  0  0  0  0  0  0  0  0  0  # atno 6909 bound_to 6896
  145.1656  140.8900  143.3565 H   0  0  0  0  0  0  0  0  0  0  0  0  # atno 7974 bound_to 7965
  155.1957  140.3311  155.4351 H   0  0  0  0  0  0  0  0  0  0  0  0  # atno 8008 bound_to 7997
  156.2425  140.1902  156.6997 H   0  0  0  0  0  0  0  0  0  0  0  0  # atno 8009 bound_to 7997
  154.6175  140.0600  156.9559 H   0  0  0  0  0  0  0  0  0  0  0  0  # atno 8010 bound_to 7997
  140.6860  143.6631  150.8249 H   0  0  0  0  0  0  0  0  0  0  0  0  # atno 10167 bound_to 10162
  157.6113  131.1034  150.7578 H   0  0  0  0  0  0  0  0  0  0  0  0  # atno 10718 bound_to 10713
  152.9829  135.5682  154.5200 H   0  0  0  0  0  0  0  0  0  0  0  0  # atno 10763 bound_to 10752
  154.4689  135.2784  155.1659 H   0  0  0  0  0  0  0  0  0  0  0  0  # atno 10764 bound_to 10752
  154.3216  135.6268  153.5563 H   0  0  0  0  0  0  0  0  0  0  0  0  # atno 10765 bound_to 10752
  141.1523  133.7817  157.0012 H   0  0  0  0  0  0  0  0  0  0  0  0  # atno 11005 bound_to 11000
  145.0286  139.3361  143.6036 LP  0  0  0  0  0  0  0  0  0  0  0  0  # atno 17320 bound_to 7965
  146.3476  139.9614  142.8717 LP  0  0  0  0  0  0  0  0  0  0  0  0  # atno 17321 bound_to 7965
  140.0338  143.5416  152.2748 LP  0  0  0  0  0  0  0  0  0  0  0  0  # atno 17342 bound_to 10162
  139.6218  144.7630  151.2723 LP  0  0  0  0  0  0  0  0  0  0  0  0  # atno 17343 bound_to 10162
  156.7955  130.4904  149.5378 LP  0  0  0  0  0  0  0  0  0  0  0  0  # atno 17370 bound_to 10713
  156.1217  130.6114  151.0203 LP  0  0  0  0  0  0  0  0  0  0  0  0  # atno 17371 bound_to 10713
  140.0939  134.9576  157.1818 LP  0  0  0  0  0  0  0  0  0  0  0  0  # atno 17394 bound_to 11000
  140.3409  134.2705  155.7212 LP  0  0  0  0  0  0  0  0  0  0  0  0  # atno 17395 bound_to 11000

$$$$
