AV-unprocessed.smi:1995|AV-procd|sdf|8081|dock7
  -GOLD-   2272010293D 1   1.00000     0.00000
 Structure written by MMmdl.
 41 42  0  0  0  0  0  0  0  0  2 V2000
  152.7796  138.5810  155.4697 C   0  0  0  0  0  0  0  0  0  0  0  0
  151.4196  138.9240  154.8348 C   0  0  0  0  0  0  0  0  0  0  0  0
  150.2255  139.0720  155.8313 C   0  0  2  0  0  0  0  0  0  0  0  0
  150.7342  139.9691  156.9917 C   0  0  0  0  0  0  0  0  0  0  0  0
  149.8873  137.6561  156.4036 C   0  0  0  0  0  0  0  0  0  0  0  0
  148.8259  137.6601  157.4118 N   0  0  0  0  0  0  0  0  0  0  0  0
  148.9045  137.1773  158.6604 C   0  0  0  0  0  0  0  0  0  0  0  0
  149.9552  136.6730  159.0636 O   0  0  0  0  0  0  0  0  0  0  0  0
  147.7550  137.3001  159.3625 N   0  5  0  0  0  0  0  0  0  0  0  0
  147.5802  136.5948  160.4919 C   0  0  0  0  0  0  0  0  0  0  0  0
  147.3465  137.1639  161.6801 N   0  0  0  0  0  0  0  0  0  0  0  0
  147.1916  136.2414  162.7166 C   0  0  0  0  0  0  0  0  0  0  0  0
  147.3018  134.9392  162.3062 C   0  0  0  0  0  0  0  0  0  0  0  0
  147.6040  134.8319  160.5955 S   0  0  0  0  0  0  0  0  0  0  0  0
  149.0481  139.7029  155.1687 N   0  0  0  0  0  0  0  0  0  0  0  0
  148.4790  138.9419  154.0496 C   0  0  0  0  0  0  0  0  0  0  0  0
  147.1865  139.5821  153.5150 C   0  0  0  0  0  0  0  0  0  0  0  0
  147.4398  140.9277  153.1285 O   0  0  0  0  0  0  0  0  0  0  0  0
  147.9428  141.7151  154.2011 C   0  0  0  0  0  0  0  0  0  0  0  0
  149.2433  141.0919  154.7362 C   0  0  0  0  0  0  0  0  0  0  0  0
  153.5500  138.5104  154.7019 H   0  0  0  0  0  0  0  0  0  0  0  0
  152.7531  137.6237  155.9893 H   0  0  0  0  0  0  0  0  0  0  0  0
  153.1001  139.3417  156.1816 H   0  0  0  0  0  0  0  0  0  0  0  0
  151.5289  139.8301  154.2390 H   0  0  0  0  0  0  0  0  0  0  0  0
  151.1995  138.1451  154.1039 H   0  0  0  0  0  0  0  0  0  0  0  0
  151.7236  139.6693  157.3382 H   0  0  0  0  0  0  0  0  0  0  0  0
  150.0784  139.9224  157.8612 H   0  0  0  0  0  0  0  0  0  0  0  0
  150.8037  141.0151  156.6929 H   0  0  0  0  0  0  0  0  0  0  0  0
  149.6313  136.9593  155.6056 H   0  0  0  0  0  0  0  0  0  0  0  0
  150.7604  137.2283  156.8949 H   0  0  0  0  0  0  0  0  0  0  0  0
  147.9423  138.0603  157.1325 H   0  0  0  0  0  0  0  0  0  0  0  0
  147.0044  136.6010  163.7175 H   0  0  0  0  0  0  0  0  0  0  0  0
  147.2231  134.0418  162.9009 H   0  0  0  0  0  0  0  0  0  0  0  0
  149.1969  138.8746  153.2323 H   0  0  0  0  0  0  0  0  0  0  0  0
  148.2449  137.9220  154.3494 H   0  0  0  0  0  0  0  0  0  0  0  0
  146.8187  139.0274  152.6516 H   0  0  0  0  0  0  0  0  0  0  0  0
  146.4010  139.5546  154.2720 H   0  0  0  0  0  0  0  0  0  0  0  0
  148.1278  142.7278  153.8427 H   0  0  0  0  0  0  0  0  0  0  0  0
  147.1947  141.7860  154.9923 H   0  0  0  0  0  0  0  0  0  0  0  0
  149.5956  141.7121  155.5583 H   0  0  0  0  0  0  0  0  0  0  0  0
  150.0009  141.1420  153.9544 H   0  0  0  0  0  0  0  0  0  0  0  0
  1  2  1  0  0  0  0
  1 21  1  0  0  0  0
  1 22  1  0  0  0  0
  1 23  1  0  0  0  0
  2  3  1  0  0  0  0
  2 24  1  0  0  0  0
  2 25  1  0  0  0  0
  3  4  1  0  0  0  0
  3  5  1  0  0  0  0
  3 15  1  0  0  0  0
  4 26  1  0  0  0  0
  4 27  1  0  0  0  0
  4 28  1  0  0  0  0
  5  6  1  0  0  0  0
  5 29  1  0  0  0  0
  5 30  1  0  0  0  0
  6  7  1  0  0  0  0
  6 31  1  0  0  0  0
  7  8  2  0  0  0  0
  7  9  1  0  0  0  0
  9 10  1  0  0  0  0
 10 14  1  0  0  0  0
 10 11  2  0  0  0  0
 11 12  1  0  0  0  0
 12 13  2  0  0  0  0
 12 32  1  0  0  0  0
 13 14  1  0  0  0  0
 13 33  1  0  0  0  0
 15 20  1  0  0  0  0
 15 16  1  0  0  0  0
 16 17  1  0  0  0  0
 16 34  1  0  0  0  0
 16 35  1  0  0  0  0
 17 18  1  0  0  0  0
 17 36  1  0  0  0  0
 17 37  1  0  0  0  0
 18 19  1  0  0  0  0
 19 20  1  0  0  0  0
 19 38  1  0  0  0  0
 19 39  1  0  0  0  0
 20 40  1  0  0  0  0
 20 41  1  0  0  0  0
M  CHG  1   9  -1
M  END
> <s_m_source_file>
AV-unprocessed.smi

> <i_m_source_file_index>
1995

> <i_lp_mmshare_version>
43012

> <i_f3d_flags>
0

> <s_epik_input>
W0NIMl0xW0NIMl1PW0NIMl1bQ0gyXU4xW0NAQF0oW0NIM10pKFtDSDJdW0NIM10pW0NIMl1bTkhdQyg9TylbTkhdYzJuW2NIXVtjSF1zMg==

> <s_epik_cmdline>
J2VwaWtfcHl0aG9uJywgJy1waCcsICc3LjAnLCAnLXRuJywgJzgnLCAnLW1hJywgJzIwMCcsICctbWV0YWxfYmluZGluZycsICctaW1hZScsICc8aW5maWxlLm1hZT4nLCAnLW9tYWUnLCAnPG91dGZpbGUubWFlPic=

> <r_lp_tautomer_probability>
0.999

> <r_epik_Ionization_Penalty>
8.86479

> <r_epik_Ionization_Penalty_Charging>
6.76546

> <r_epik_Ionization_Penalty_Neutral>
2.09933

> <r_epik_State_Penalty>
7.05418

> <r_epik_Charging_Adjusted_Penalty>
13.8196

> <i_epik_Tot_Q>
-1

> <i_epik_Tot_abs_Q>
1

> <r_epik_Metal_State_Penalty>
2.97744

> <b_epik_Metal_Only>
1

> <s_lp_Force_Field>
OPLS_2005

> <r_lp_Energy>
37.8837

> <b_lp_Chiralities_Consistent>
1

> <s_lp_Variant>
AV-unprocessed.smi:1995-6

> <Gold.Version>
5.8.1

> <Gold.Id.Protein>
6NUR|6NUR_protein|mol2

> <Gold.PLP.Fitness>
42.5941

> <Gold.PLP.PLP>
-36.3762

> <Gold.PLP.part.hbond>
-3.5928

> <Gold.PLP.part.metal>
0.0000

> <Gold.PLP.part.buried>
-5.1090

> <Gold.PLP.part.nonpolar>
-29.0893

> <Gold.PLP.part.repulsive>
0.6171

> <Gold.PLP.ligand.clash>
0.0000

> <Gold.PLP.ligand.torsion>
0.7625

> <Gold.PLP.Chemscore.Hbond>
2.5400

> <Gold.PLP.Chemscore.CHOScore>
0.0000

> <Gold.PLP.Chemscore.Metal>
0.0000

> <Gold.Chemscore.Hbonds>
donor molecule, donor type, donor heavy atom, donor atom, acceptor molecule, acceptor atom, score
      P1  H  6896  6908       L1     8  0.84
      P1  H  6931  6943       L1    11  0.91
      P1  H  6934  6947       L1    11  0.64

> <Gold.PLP.Chemscore.Internal.Correction>
0.1229

> <Gold.Rescore>
     Score         DG    S(hbond)    S(metal)    S(lipo)     H(rot)  DE(clash)    DE(int)     intcor
     16.05     -17.00       1.93        0.00      80.36       1.70       0.04       0.91       ----

> <Gold.Chemscore.Fitness>
16.0458

> <Gold.Chemscore.DG>
-16.9951

> <Gold.Chemscore.ZeroCoef>
-5.4800

> <Gold.Chemscore.Hbond>
1.9346

> <Gold.Chemscore.Metal>
0.0000

> <Gold.Chemscore.Lipo>
80.3580

> <Gold.Chemscore.Internal_Hbond>
0.0000

> <Gold.Chemscore.DEClash>
0.0381

> <Gold.Chemscore.DEInternal>
0.9112

> <Gold.Chemscore.Rot>
1.6985

> <Gold.Chemscore.Internal.Correction>
   9.000000E+99

> <Gold.Chemscore.Hbonds>
donor molecule, donor type, donor heavy atom, donor atom, acceptor molecule, acceptor atom, score
      P1  H  6896  6908       L1     8  0.84
      P1  H  6931  6943       L1    11  0.20
      P1  H  6934  6947       L1    11  0.08

> <Gold.Chemscore.Hbond.Weighted>
-6.4614

> <Gold.Chemscore.Metal.Weighted>
-0.0000

> <Gold.Chemscore.Lipo.Weighted>
-9.4019

> <Gold.Chemscore.Internal_Hbond.Weighted>
0.0000

> <Gold.Chemscore.DEClash.Weighted>
0.0381

> <Gold.Chemscore.DEInternal.Weighted>
0.9112

> <Gold.Chemscore.Rot.Weighted>
4.3482

> <Gold.Chemscore.Internal.Correction.Weighted>
   9.000000E+99

> <Gold.Protein.RotatedTorsions>
[ 6907 6896 6895 6894 ] final -162.73 input  -60.11 | X-H torsion
[ 7974 7965 7964 7962 ] final -123.83 input  175.53 | X-H torsion
[ 8008 7997 7996 7995 ] final   -7.79 input   59.86 | X-H torsion
[ 10167 10162 10161 10158 ] final  -74.19 input  -65.29 | X-H torsion
[ 10718 10713 10712 10709 ] final  111.41 input   66.30 | X-H torsion
[ 10763 10752 10751 10750 ] final   58.07 input  -60.55 | X-H torsion
[ 11005 11000 10999 10996 ] final  -53.16 input  -57.11 | X-H torsion

> <Gold.Protein.ActiveResidues>
 VAL166  LYS551  ARG553  GLY616  TRP617  ASP618  TYR619  PRO620  LYS621  CYS622 
 ASP623  PHE694  ASN695  SER759  ASP760  ASP761  ALA762  ILE779  LEU786  VAL792 
 PHE793  MET794  SER795  GLU796  ALA797  LYS798  CYS799  TRP800  GLU811  SER814 

> <Gold.Protein.RotatedAtoms>
  151.3849  133.3808  159.2713 H   0  0  0  0  0  0  0  0  0  0  0  0  # atno 6907 bound_to 6896
  150.9549  134.8946  159.7705 H   0  0  0  0  0  0  0  0  0  0  0  0  # atno 6908 bound_to 6896
  152.5127  134.3806  159.9402 H   0  0  0  0  0  0  0  0  0  0  0  0  # atno 6909 bound_to 6896
  145.0145  140.7934  143.4418 H   0  0  0  0  0  0  0  0  0  0  0  0  # atno 7974 bound_to 7965
  154.5804  140.2398  155.8061 H   0  0  0  0  0  0  0  0  0  0  0  0  # atno 8008 bound_to 7997
  156.2175  140.3008  155.9830 H   0  0  0  0  0  0  0  0  0  0  0  0  # atno 8009 bound_to 7997
  155.2551  140.0412  157.2981 H   0  0  0  0  0  0  0  0  0  0  0  0  # atno 8010 bound_to 7997
  140.5048  143.2355  151.7692 H   0  0  0  0  0  0  0  0  0  0  0  0  # atno 10167 bound_to 10162
  157.6446  131.0950  150.6744 H   0  0  0  0  0  0  0  0  0  0  0  0  # atno 10718 bound_to 10713
  152.9863  135.5619  154.5494 H   0  0  0  0  0  0  0  0  0  0  0  0  # atno 10763 bound_to 10752
  154.4933  135.2794  155.1481 H   0  0  0  0  0  0  0  0  0  0  0  0  # atno 10764 bound_to 10752
  154.2941  135.6320  153.5450 H   0  0  0  0  0  0  0  0  0  0  0  0  # atno 10765 bound_to 10752
  141.0962  133.6624  156.4131 H   0  0  0  0  0  0  0  0  0  0  0  0  # atno 11005 bound_to 11000
  145.1979  139.2267  143.5208 LP  0  0  0  0  0  0  0  0  0  0  0  0  # atno 17320 bound_to 7965
  146.3475  140.1790  142.8589 LP  0  0  0  0  0  0  0  0  0  0  0  0  # atno 17321 bound_to 7965
  139.4881  144.4472  151.9696 LP  0  0  0  0  0  0  0  0  0  0  0  0  # atno 17342 bound_to 10162
  140.3563  144.3028  150.5941 LP  0  0  0  0  0  0  0  0  0  0  0  0  # atno 17343 bound_to 10162
  156.7063  130.4638  149.5559 LP  0  0  0  0  0  0  0  0  0  0  0  0  # atno 17370 bound_to 10713
  156.1761  130.6468  151.0895 LP  0  0  0  0  0  0  0  0  0  0  0  0  # atno 17371 bound_to 10713
  140.5135  134.6372  157.5293 LP  0  0  0  0  0  0  0  0  0  0  0  0  # atno 17394 bound_to 11000
  139.9799  134.7154  155.9879 LP  0  0  0  0  0  0  0  0  0  0  0  0  # atno 17395 bound_to 11000

$$$$
