AV-unprocessed.smi:83|AV-procd|sdf|805|dock2
  -GOLD-   2262017193D 1   1.00000     0.00000
 Structure written by MMmdl.
 56 59  0  0  0  0  0  0  0  0  1 V2000
  155.1199  139.1953  160.5061 C   0  0  0  0  0  0  0  0  0  0  0  0
  154.1711  140.1175  159.7389 C   0  0  0  0  0  0  0  0  0  0  0  0
  153.8774  139.8387  158.5765 O   0  0  0  0  0  0  0  0  0  0  0  0
  153.6901  141.2090  160.3673 N   0  0  0  0  0  0  0  0  0  0  0  0
  153.9808  141.5985  161.7463 C   0  0  0  0  0  0  0  0  0  0  0  0
  153.0490  142.7751  162.0434 C   0  0  0  0  0  0  0  0  0  0  0  0
  152.7834  143.3915  160.6744 C   0  0  2  0  0  0  0  0  0  0  0  0
  151.5044  144.2489  160.6111 C   0  0  0  0  0  0  0  0  0  0  0  0
  150.9399  144.3201  159.2616 N   0  0  0  0  0  0  0  0  0  0  0  0
  151.8525  144.5398  158.1470 C   0  0  0  0  0  0  0  0  0  0  0  0
  149.7054  143.7933  159.0291 C   0  0  0  0  0  0  0  0  0  0  0  0
  148.6916  144.1558  159.8596 N   0  0  0  0  0  0  0  0  0  0  0  0
  147.4598  143.6691  159.6901 C   0  0  0  0  0  0  0  0  0  0  0  0
  147.0222  142.8147  158.7658 N   0  0  0  0  0  0  0  0  0  0  0  0
  148.0288  142.4400  157.9267 C   0  0  0  0  0  0  0  0  0  0  0  0
  149.3852  142.8763  157.9806 C   0  0  0  0  0  0  0  0  0  0  0  0
  150.1069  142.2615  156.9613 N   0  0  0  0  0  0  0  0  0  0  0  0
  149.2318  141.5193  156.3409 C   0  0  0  0  0  0  0  0  0  0  0  0
  147.9585  141.5671  156.8556 N   0  0  0  0  0  0  0  0  0  0  0  0
  146.7981  140.8458  156.3633 C   0  0  0  0  0  0  0  0  0  0  0  0
  146.3029  141.3853  155.0073 C   0  0  2  0  0  0  0  0  0  0  0  0
  147.3111  141.1977  154.0322 O   0  0  0  0  0  0  0  0  0  0  0  0
  145.9442  142.8814  155.0716 C   0  0  1  0  0  0  0  0  0  0  0  0
  145.5775  143.5054  153.7225 C   0  0  0  0  0  0  0  0  0  0  0  0
  144.6483  144.6530  154.0894 C   0  0  0  0  0  0  0  0  0  0  0  0
  144.3088  144.4032  155.5605 C   0  0  0  0  0  0  0  0  0  0  0  0
  144.7529  143.0792  155.8174 O   0  0  0  0  0  0  0  0  0  0  0  0
  152.7935  142.1758  159.7407 C   0  0  0  0  0  0  0  0  0  0  0  0
  155.9819  139.7489  160.8793 H   0  0  0  0  0  0  0  0  0  0  0  0
  155.4874  138.3978  159.8595 H   0  0  0  0  0  0  0  0  0  0  0  0
  154.6072  138.7341  161.3505 H   0  0  0  0  0  0  0  0  0  0  0  0
  153.8186  140.7817  162.4507 H   0  0  0  0  0  0  0  0  0  0  0  0
  155.0236  141.9106  161.8174 H   0  0  0  0  0  0  0  0  0  0  0  0
  152.1171  142.4023  162.4713 H   0  0  0  0  0  0  0  0  0  0  0  0
  153.4800  143.4849  162.7501 H   0  0  0  0  0  0  0  0  0  0  0  0
  153.6439  144.0152  160.4269 H   0  0  0  0  0  0  0  0  0  0  0  0
  150.7743  143.8923  161.3376 H   0  0  0  0  0  0  0  0  0  0  0  0
  151.7444  145.2654  160.9243 H   0  0  0  0  0  0  0  0  0  0  0  0
  151.3423  145.0245  157.3142 H   0  0  0  0  0  0  0  0  0  0  0  0
  152.2752  143.5958  157.8020 H   0  0  0  0  0  0  0  0  0  0  0  0
  152.6771  145.1858  158.4490 H   0  0  0  0  0  0  0  0  0  0  0  0
  146.7201  144.0122  160.3981 H   0  0  0  0  0  0  0  0  0  0  0  0
  149.4922  140.9127  155.4859 H   0  0  0  0  0  0  0  0  0  0  0  0
  147.0681  139.7929  156.2760 H   0  0  0  0  0  0  0  0  0  0  0  0
  146.0056  140.9011  157.1105 H   0  0  0  0  0  0  0  0  0  0  0  0
  145.4252  140.8178  154.6944 H   0  0  0  0  0  0  0  0  0  0  0  0
  146.9103  141.2295  153.1770 H   0  0  0  0  0  0  0  0  0  0  0  0
  146.7506  143.4501  155.5395 H   0  0  0  0  0  0  0  0  0  0  0  0
  146.4535  143.8334  153.1622 H   0  0  0  0  0  0  0  0  0  0  0  0
  145.0377  142.7848  153.1062 H   0  0  0  0  0  0  0  0  0  0  0  0
  145.1317  145.6223  153.9621 H   0  0  0  0  0  0  0  0  0  0  0  0
  143.7545  144.6386  153.4650 H   0  0  0  0  0  0  0  0  0  0  0  0
  144.8549  145.0955  156.2028 H   0  0  0  0  0  0  0  0  0  0  0  0
  143.2446  144.5105  155.7709 H   0  0  0  0  0  0  0  0  0  0  0  0
  153.1220  142.4514  158.7371 H   0  0  0  0  0  0  0  0  0  0  0  0
  151.8006  141.7303  159.6627 H   0  0  0  0  0  0  0  0  0  0  0  0
  1  2  1  0  0  0  0
  1 29  1  0  0  0  0
  1 30  1  0  0  0  0
  1 31  1  0  0  0  0
  2  3  2  0  0  0  0
  2  4  1  0  0  0  0
  4 28  1  0  0  0  0
  4  5  1  0  0  0  0
  5  6  1  0  0  0  0
  5 32  1  0  0  0  0
  5 33  1  0  0  0  0
  6  7  1  0  0  0  0
  6 34  1  0  0  0  0
  6 35  1  0  0  0  0
  7  8  1  0  0  0  0
  7 28  1  0  0  0  0
  7 36  1  0  0  0  0
  8  9  1  0  0  0  0
  8 37  1  0  0  0  0
  8 38  1  0  0  0  0
  9 10  1  0  0  0  0
  9 11  1  0  0  0  0
 10 39  1  0  0  0  0
 10 40  1  0  0  0  0
 10 41  1  0  0  0  0
 11 16  1  0  0  0  0
 11 12  2  0  0  0  0
 12 13  1  0  0  0  0
 13 14  2  0  0  0  0
 13 42  1  0  0  0  0
 14 15  1  0  0  0  0
 15 19  1  0  0  0  0
 15 16  2  0  0  0  0
 16 17  1  0  0  0  0
 17 18  2  0  0  0  0
 18 19  1  0  0  0  0
 18 43  1  0  0  0  0
 19 20  1  0  0  0  0
 20 21  1  0  0  0  0
 20 44  1  0  0  0  0
 20 45  1  0  0  0  0
 21 22  1  0  0  0  0
 21 23  1  0  0  0  0
 21 46  1  0  0  0  0
 22 47  1  0  0  0  0
 23 27  1  0  0  0  0
 23 24  1  0  0  0  0
 23 48  1  0  0  0  0
 24 25  1  0  0  0  0
 24 49  1  0  0  0  0
 24 50  1  0  0  0  0
 25 26  1  0  0  0  0
 25 51  1  0  0  0  0
 25 52  1  0  0  0  0
 26 27  1  0  0  0  0
 26 53  1  0  0  0  0
 26 54  1  0  0  0  0
 28 55  1  0  0  0  0
 28 56  1  0  0  0  0
M  END
> <s_m_source_file>
AV-unprocessed.smi

> <i_m_source_file_index>
83

> <i_lp_mmshare_version>
43012

> <i_f3d_flags>
0

> <s_epik_input>
W0NIM11DKD1PKU4xW0NIMl1bQ0gyXVtDQEhdKFtDSDJdMSlbQ0gyXU4oW0NIM10pYyhuW2NIXW4yKWMoYzIzKW5bY0hdbjNbQ0gyXVtDQEhdKFtPSF0pW0NAQEhdNFtDSDJdW0NIMl1bQ0gyXU80

> <s_epik_cmdline>
J2VwaWtfcHl0aG9uJywgJy1waCcsICc3LjAnLCAnLXRuJywgJzgnLCAnLW1hJywgJzIwMCcsICctbWV0YWxfYmluZGluZycsICctaW1hZScsICc8aW5maWxlLm1hZT4nLCAnLW9tYWUnLCAnPG91dGZpbGUubWFlPic=

> <r_lp_tautomer_probability>
1

> <r_epik_Ionization_Penalty>
0.00109752

> <r_epik_Ionization_Penalty_Charging>
0

> <r_epik_Ionization_Penalty_Neutral>
0.00109752

> <r_epik_State_Penalty>
0.000634803

> <r_epik_Charging_Adjusted_Penalty>
0.000634803

> <i_epik_Tot_Q>
0

> <i_epik_Tot_abs_Q>
0

> <r_epik_Metal_State_Penalty>
-0

> <b_epik_Metal_Only>
0

> <s_lp_Force_Field>
OPLS_2005

> <r_lp_Energy>
52.1459

> <b_lp_Chiralities_Consistent>
1

> <s_lp_Variant>
AV-unprocessed.smi:83-6

> <Gold.Version>
5.8.1

> <Gold.Id.Protein>
6NUR|6NUR_protein|mol2

> <Gold.PLP.Fitness>
56.0767

> <Gold.PLP.PLP>
-54.9668

> <Gold.PLP.part.hbond>
-1.4230

> <Gold.PLP.part.metal>
0.0000

> <Gold.PLP.part.buried>
-8.2466

> <Gold.PLP.part.nonpolar>
-45.9060

> <Gold.PLP.part.repulsive>
0.5586

> <Gold.PLP.ligand.clash>
0.0000

> <Gold.PLP.ligand.torsion>
1.2405

> <Gold.PLP.Chemscore.Hbond>
1.0000

> <Gold.PLP.Chemscore.CHOScore>
0.0000

> <Gold.PLP.Chemscore.Metal>
0.0000

> <Gold.Chemscore.Hbonds>
donor molecule, donor type, donor heavy atom, donor atom, acceptor molecule, acceptor atom, score
      P1  H  7997  8010       L1     3  1.00

> <Gold.PLP.Chemscore.Internal.Correction>
0.5908

> <Gold.Rescore>
     Score         DG    S(hbond)    S(metal)    S(lipo)     H(rot)  DE(clash)    DE(int)     intcor
     12.73     -14.71       0.98        0.00     108.13       2.62       0.06       1.92       ----

> <Gold.Chemscore.Fitness>
12.7310

> <Gold.Chemscore.DG>
-14.7075

> <Gold.Chemscore.ZeroCoef>
-5.4800

> <Gold.Chemscore.Hbond>
0.9796

> <Gold.Chemscore.Metal>
0.0000

> <Gold.Chemscore.Lipo>
108.1257

> <Gold.Chemscore.Internal_Hbond>
0.0000

> <Gold.Chemscore.DEClash>
0.0608

> <Gold.Chemscore.DEInternal>
1.9157

> <Gold.Chemscore.Rot>
2.6152

> <Gold.Chemscore.Internal.Correction>
   9.000000E+99

> <Gold.Chemscore.Hbonds>
donor molecule, donor type, donor heavy atom, donor atom, acceptor molecule, acceptor atom, score
      P1  H  7997  8010       L1     3  0.99

> <Gold.Chemscore.Hbond.Weighted>
-3.2717

> <Gold.Chemscore.Metal.Weighted>
-0.0000

> <Gold.Chemscore.Lipo.Weighted>
-12.6507

> <Gold.Chemscore.Internal_Hbond.Weighted>
0.0000

> <Gold.Chemscore.DEClash.Weighted>
0.0608

> <Gold.Chemscore.DEInternal.Weighted>
1.9157

> <Gold.Chemscore.Rot.Weighted>
6.6949

> <Gold.Chemscore.Internal.Correction.Weighted>
   9.000000E+99

> <Gold.Protein.RotatedTorsions>
[ 6907 6896 6895 6894 ] final   92.19 input  -60.11 | X-H torsion
[ 7974 7965 7964 7962 ] final  122.00 input  175.53 | X-H torsion
[ 8008 7997 7996 7995 ] final   16.77 input   59.86 | X-H torsion
[ 10167 10162 10161 10158 ] final  -36.77 input  -65.29 | X-H torsion
[ 10718 10713 10712 10709 ] final   89.84 input   66.30 | X-H torsion
[ 10763 10752 10751 10750 ] final  147.31 input  -60.55 | X-H torsion
[ 11005 11000 10999 10996 ] final -119.88 input  -57.11 | X-H torsion

> <Gold.Protein.ActiveResidues>
 VAL166  LYS551  ARG553  GLY616  TRP617  ASP618  TYR619  PRO620  LYS621  CYS622 
 ASP623  PHE694  ASN695  SER759  ASP760  ASP761  ALA762  ILE779  LEU786  VAL792 
 PHE793  MET794  SER795  GLU796  ALA797  LYS798  CYS799  TRP800  GLU811  SER814 

> <Gold.Protein.RotatedAtoms>
  152.5452  134.1541  159.8530 H   0  0  0  0  0  0  0  0  0  0  0  0  # atno 6907 bound_to 6896
  151.1565  133.4866  159.2602 H   0  0  0  0  0  0  0  0  0  0  0  0  # atno 6908 bound_to 6896
  151.1417  135.0194  159.8684 H   0  0  0  0  0  0  0  0  0  0  0  0  # atno 6909 bound_to 6896
  145.1127  139.3442  143.4755 H   0  0  0  0  0  0  0  0  0  0  0  0  # atno 7974 bound_to 7965
  154.8817  140.2974  155.5421 H   0  0  0  0  0  0  0  0  0  0  0  0  # atno 8008 bound_to 7997
  156.3022  140.2441  156.3755 H   0  0  0  0  0  0  0  0  0  0  0  0  # atno 8009 bound_to 7997
  154.8710  140.0401  157.1713 H   0  0  0  0  0  0  0  0  0  0  0  0  # atno 8010 bound_to 7997
  140.7135  143.3386  151.2407 H   0  0  0  0  0  0  0  0  0  0  0  0  # atno 10167 bound_to 10162
  157.6957  131.0348  150.3487 H   0  0  0  0  0  0  0  0  0  0  0  0  # atno 10718 bound_to 10713
  154.0362  135.2893  155.3361 H   0  0  0  0  0  0  0  0  0  0  0  0  # atno 10763 bound_to 10752
  154.6957  135.5208  153.8458 H   0  0  0  0  0  0  0  0  0  0  0  0  # atno 10764 bound_to 10752
  153.0619  135.6617  154.0570 H   0  0  0  0  0  0  0  0  0  0  0  0  # atno 10765 bound_to 10752
  141.0183  134.0162  157.3318 H   0  0  0  0  0  0  0  0  0  0  0  0  # atno 11005 bound_to 11000
  146.3525  140.1053  142.8606 LP  0  0  0  0  0  0  0  0  0  0  0  0  # atno 17320 bound_to 7965
  145.0829  140.9233  143.4815 LP  0  0  0  0  0  0  0  0  0  0  0  0  # atno 17321 bound_to 7965
  139.6888  143.9728  152.2848 LP  0  0  0  0  0  0  0  0  0  0  0  0  # atno 17342 bound_to 10162
  139.9382  144.6698  150.8293 LP  0  0  0  0  0  0  0  0  0  0  0  0  # atno 17343 bound_to 10162
  156.3938  130.3903  149.7010 LP  0  0  0  0  0  0  0  0  0  0  0  0  # atno 17370 bound_to 10713
  156.4351  130.7834  151.2854 LP  0  0  0  0  0  0  0  0  0  0  0  0  # atno 17371 bound_to 10713
  139.9130  135.0193  156.7771 LP  0  0  0  0  0  0  0  0  0  0  0  0  # atno 17394 bound_to 11000
  140.6616  133.9640  155.7808 LP  0  0  0  0  0  0  0  0  0  0  0  0  # atno 17395 bound_to 11000

$$$$
