AV-unprocessed.smi:49|AV-procd|sdf|490|dock2
  -GOLD-   2262016353D 1   1.00000     0.00000
 Structure written by MMmdl.
 26 27  0  0  0  0  0  0  0  0  2 V2000
  152.3763  143.7683  159.5013 C   0  0  0  0  0  0  0  0  0  0  0  0
  152.1213  142.3362  159.9820 C   0  0  0  0  0  0  0  0  0  0  0  0
  152.2982  141.3227  158.8727 C   0  0  0  0  0  0  0  0  0  0  0  0
  151.6384  141.3082  157.7188 N   0  0  0  0  0  0  0  0  0  0  0  0
  152.1239  140.2643  157.0319 C   0  0  0  0  0  0  0  0  0  0  0  0
  151.6744  139.8863  155.6320 C   0  0  1  0  0  0  0  0  0  0  0  0
  152.4124  138.6391  155.1120 C   0  0  0  0  0  0  0  0  0  0  0  0
  151.3367  137.5579  155.0809 C   0  0  2  0  0  0  0  0  0  0  0  0
  151.5812  136.5648  154.1074 O   0  0  0  0  0  0  0  0  0  0  0  0
  150.0781  138.3636  154.7871 C   0  0  0  0  0  0  0  0  0  0  0  0
  150.2398  139.5855  155.5619 N   0  0  0  0  0  0  0  0  0  0  0  0
  153.0938  139.6498  157.7291 N   0  0  0  0  0  0  0  0  0  0  0  0
  153.1884  140.3152  158.8622 N   0  5  0  0  0  0  0  0  0  0  0  0
  151.9011  140.7262  154.9745 H   0  0  0  0  0  0  0  0  0  0  0  0
  151.2539  137.0908  156.0635 H   0  0  0  0  0  0  0  0  0  0  0  0
  152.2444  144.4811  160.3153 H   0  0  0  0  0  0  0  0  0  0  0  0
  151.6868  144.0415  158.7021 H   0  0  0  0  0  0  0  0  0  0  0  0
  153.3918  143.8787  159.1204 H   0  0  0  0  0  0  0  0  0  0  0  0
  152.8029  142.0894  160.7964 H   0  0  0  0  0  0  0  0  0  0  0  0
  151.1102  142.2504  160.3806 H   0  0  0  0  0  0  0  0  0  0  0  0
  152.7678  138.8367  154.0995 H   0  0  0  0  0  0  0  0  0  0  0  0
  153.2782  138.3587  155.7135 H   0  0  0  0  0  0  0  0  0  0  0  0
  151.1371  136.8129  153.3112 H   0  0  0  0  0  0  0  0  0  0  0  0
  150.0309  138.6071  153.7248 H   0  0  0  0  0  0  0  0  0  0  0  0
  149.1642  137.8306  155.0505 H   0  0  0  0  0  0  0  0  0  0  0  0
  149.7509  140.3422  155.0954 H   0  0  0  0  0  0  0  0  0  0  0  0
  1  2  1  0  0  0  0
  1 16  1  0  0  0  0
  1 17  1  0  0  0  0
  1 18  1  0  0  0  0
  2  3  1  0  0  0  0
  2 19  1  0  0  0  0
  2 20  1  0  0  0  0
  3 13  1  0  0  0  0
  3  4  2  0  0  0  0
  4  5  1  0  0  0  0
  5  6  1  0  0  0  0
  5 12  2  0  0  0  0
  6 14  1  0  0  0  0
  6 11  1  0  0  0  0
  6  7  1  0  0  0  0
  7  8  1  0  0  0  0
  7 21  1  0  0  0  0
  7 22  1  0  0  0  0
  8 15  1  0  0  0  0
  8  9  1  0  0  0  0
  8 10  1  0  0  0  0
  9 23  1  0  0  0  0
 10 11  1  0  0  0  0
 10 24  1  0  0  0  0
 10 25  1  0  0  0  0
 11 26  1  0  0  0  0
 12 13  1  0  0  0  0
M  CHG  1  13  -1
M  END
> <s_m_source_file>
AV-unprocessed.smi

> <i_m_source_file_index>
49

> <i_lp_mmshare_version>
43012

> <i_f3d_flags>
0

> <s_epik_input>
W0NIM11bQ0gyXWMxbmMobltuSF0xKVtDQEBIXTJbQ0gyXVtDQEBIXShbT0hdKVtDSDJdW05IXTI=

> <s_epik_cmdline>
J2VwaWtfcHl0aG9uJywgJy1waCcsICc3LjAnLCAnLXRuJywgJzgnLCAnLW1hJywgJzIwMCcsICctbWV0YWxfYmluZGluZycsICctaW1hZScsICc8aW5maWxlLm1hZT4nLCAnLW9tYWUnLCAnPG91dGZpbGUubWFlPic=

> <r_lp_tautomer_probability>
0.948284

> <r_epik_Ionization_Penalty>
20.726

> <r_epik_Ionization_Penalty_Charging>
17.6814

> <r_epik_Ionization_Penalty_Neutral>
3.04463

> <r_epik_State_Penalty>
7.95092

> <r_epik_Charging_Adjusted_Penalty>
25.6323

> <i_epik_Tot_Q>
-1

> <i_epik_Tot_abs_Q>
1

> <r_epik_Metal_State_Penalty>
4.146

> <b_epik_Metal_Only>
1

> <s_lp_Force_Field>
OPLS_2005

> <r_lp_Energy>
18.0563

> <b_lp_Chiralities_Consistent>
1

> <s_lp_Variant>
AV-unprocessed.smi:49-28

> <Gold.Version>
5.8.1

> <Gold.Id.Protein>
6NUR|6NUR_protein|mol2

> <Gold.PLP.Fitness>
33.8710

> <Gold.PLP.PLP>
-26.0137

> <Gold.PLP.part.hbond>
-3.2355

> <Gold.PLP.part.metal>
0.0000

> <Gold.PLP.part.buried>
-2.0261

> <Gold.PLP.part.nonpolar>
-19.9745

> <Gold.PLP.part.repulsive>
0.0048

> <Gold.PLP.ligand.clash>
0.0000

> <Gold.PLP.ligand.torsion>
0.0148

> <Gold.PLP.Chemscore.Hbond>
2.6240

> <Gold.PLP.Chemscore.CHOScore>
0.0000

> <Gold.PLP.Chemscore.Metal>
0.0000

> <Gold.Chemscore.Hbonds>
donor molecule, donor type, donor heavy atom, donor atom, acceptor molecule, acceptor atom, score
      L1  H     9    23       P1  7949  0.61
      P1  H  7997  8010       L1    12  1.00
      P1  H 10752 10765       L1     9  1.00

> <Gold.PLP.Chemscore.Internal.Correction>
0.0149

> <Gold.Rescore>
     Score         DG    S(hbond)    S(metal)    S(lipo)     H(rot)  DE(clash)    DE(int)     intcor
     13.41     -13.77       2.11        0.00      50.57       1.82       0.21       0.15       ----

> <Gold.Chemscore.Fitness>
13.4110

> <Gold.Chemscore.DG>
-13.7719

> <Gold.Chemscore.ZeroCoef>
-5.4800

> <Gold.Chemscore.Hbond>
2.1081

> <Gold.Chemscore.Metal>
0.0000

> <Gold.Chemscore.Lipo>
50.5705

> <Gold.Chemscore.Internal_Hbond>
0.0000

> <Gold.Chemscore.DEClash>
0.2096

> <Gold.Chemscore.DEInternal>
0.1514

> <Gold.Chemscore.Rot>
1.8226

> <Gold.Chemscore.Internal.Correction>
   9.000000E+99

> <Gold.Chemscore.Hbonds>
donor molecule, donor type, donor heavy atom, donor atom, acceptor molecule, acceptor atom, score
      L1  H     9    23       P1  7949  0.27
      P1  H  7997  8010       L1    12  0.18
      P1  H 10752 10765       L1     9  0.81

> <Gold.Chemscore.Hbond.Weighted>
-7.0409

> <Gold.Chemscore.Metal.Weighted>
-0.0000

> <Gold.Chemscore.Lipo.Weighted>
-5.9167

> <Gold.Chemscore.Internal_Hbond.Weighted>
0.0000

> <Gold.Chemscore.DEClash.Weighted>
0.2096

> <Gold.Chemscore.DEInternal.Weighted>
0.1514

> <Gold.Chemscore.Rot.Weighted>
4.6658

> <Gold.Chemscore.Internal.Correction.Weighted>
   9.000000E+99

> <Gold.Protein.RotatedTorsions>
[ 6907 6896 6895 6894 ] final   61.46 input  -60.11 | X-H torsion
[ 7974 7965 7964 7962 ] final -140.26 input  175.53 | X-H torsion
[ 8008 7997 7996 7995 ] final   33.33 input   59.86 | X-H torsion
[ 10167 10162 10161 10158 ] final    5.96 input  -65.29 | X-H torsion
[ 10718 10713 10712 10709 ] final  -23.41 input   66.30 | X-H torsion
[ 10763 10752 10751 10750 ] final  175.52 input  -60.55 | X-H torsion
[ 11005 11000 10999 10996 ] final  -73.67 input  -57.11 | X-H torsion

> <Gold.Protein.ActiveResidues>
 VAL166  LYS551  ARG553  GLY616  TRP617  ASP618  TYR619  PRO620  LYS621  CYS622 
 ASP623  PHE694  ASN695  SER759  ASP760  ASP761  ALA762  ILE779  LEU786  VAL792 
 PHE793  MET794  SER795  GLU796  ALA797  LYS798  CYS799  TRP800  GLU811  SER814 

> <Gold.Protein.RotatedAtoms>
  152.4090  134.6157  160.0037 H   0  0  0  0  0  0  0  0  0  0  0  0  # atno 6907 bound_to 6896
  151.6339  133.3324  159.3123 H   0  0  0  0  0  0  0  0  0  0  0  0  # atno 6908 bound_to 6896
  150.7983  134.7099  159.6642 H   0  0  0  0  0  0  0  0  0  0  0  0  # atno 6909 bound_to 6896
  144.8611  140.6221  143.5328 H   0  0  0  0  0  0  0  0  0  0  0  0  # atno 7974 bound_to 7965
  155.1369  140.3262  155.4461 H   0  0  0  0  0  0  0  0  0  0  0  0  # atno 8008 bound_to 7997
  156.2617  140.2000  156.6435 H   0  0  0  0  0  0  0  0  0  0  0  0  # atno 8009 bound_to 7997
  154.6571  140.0551  157.0007 H   0  0  0  0  0  0  0  0  0  0  0  0  # atno 8010 bound_to 7997
  140.6454  143.7675  150.7491 H   0  0  0  0  0  0  0  0  0  0  0  0  # atno 10167 bound_to 10162
  156.4914  130.4567  149.6753 H   0  0  0  0  0  0  0  0  0  0  0  0  # atno 10718 bound_to 10713
  154.4688  135.2770  155.1658 H   0  0  0  0  0  0  0  0  0  0  0  0  # atno 10763 bound_to 10752
  154.3416  135.6169  153.5603 H   0  0  0  0  0  0  0  0  0  0  0  0  # atno 10764 bound_to 10752
  152.9862  135.5790  154.5065 H   0  0  0  0  0  0  0  0  0  0  0  0  # atno 10765 bound_to 10752
  141.1625  133.6886  156.7247 H   0  0  0  0  0  0  0  0  0  0  0  0  # atno 11005 bound_to 11000
  145.4310  139.1549  143.4022 LP  0  0  0  0  0  0  0  0  0  0  0  0  # atno 17320 bound_to 7965
  146.2861  140.4426  142.8757 LP  0  0  0  0  0  0  0  0  0  0  0  0  # atno 17321 bound_to 7965
  140.1315  143.4522  152.2251 LP  0  0  0  0  0  0  0  0  0  0  0  0  # atno 17342 bound_to 10162
  139.5664  144.7438  151.4010 LP  0  0  0  0  0  0  0  0  0  0  0  0  # atno 17343 bound_to 10162
  156.3422  130.7388  151.2335 LP  0  0  0  0  0  0  0  0  0  0  0  0  # atno 17370 bound_to 10713
  157.7473  131.0400  150.4579 LP  0  0  0  0  0  0  0  0  0  0  0  0  # atno 17371 bound_to 10713
  140.2790  134.8332  157.3916 LP  0  0  0  0  0  0  0  0  0  0  0  0  # atno 17394 bound_to 11000
  140.1451  134.4922  155.8002 LP  0  0  0  0  0  0  0  0  0  0  0  0  # atno 17395 bound_to 11000

$$$$
