AV-unprocessed.smi:2677|AV-procd|sdf|10365|dock9
  -GOLD-   2272014393D 1   1.00000     0.00000
 Structure written by MMmdl.
 40 41  0  0  0  0  0  0  0  0  1 V2000
  151.3972  144.0219  159.2023 C   0  0  0  0  0  0  0  0  0  0  0  0
  152.0189  143.9753  160.6023 C   0  0  0  0  0  0  0  0  0  0  0  0
  152.7981  142.7149  160.8364 C   0  0  0  0  0  0  0  0  0  0  0  0
  152.7435  141.6923  159.8858 N   0  0  0  0  0  0  0  0  0  0  0  0
  153.4813  140.6321  160.2228 C   0  0  0  0  0  0  0  0  0  0  0  0
  153.5384  139.3747  159.4149 C   0  0  0  0  0  0  0  0  0  0  0  0
  153.0132  138.1366  160.1673 C   0  0  0  0  0  0  0  0  0  0  0  0
  154.0402  137.5274  161.0063 N   0  0  0  0  0  0  0  0  0  0  0  0
  154.5195  136.2801  160.8689 C   0  0  0  0  0  0  0  0  0  0  0  0
  154.2105  135.5615  159.9176 O   0  0  0  0  0  0  0  0  0  0  0  0
  155.3752  135.8931  161.8488 N   0  0  0  0  0  0  0  0  0  0  0  0
  156.0771  134.6012  161.9265 C   0  0  0  0  0  0  0  0  0  0  0  0
  155.3602  133.7006  162.9448 C   0  0  0  0  0  0  0  0  0  0  0  0
  155.4191  134.4316  164.6104 S   0  0  0  0  0  0  0  0  0  0  0  0
  154.8380  136.1141  164.2270 C   0  0  0  0  0  0  0  0  0  0  0  0
  155.6142  136.7138  163.0419 C   0  0  0  0  0  0  0  0  0  0  0  0
  154.3046  140.8275  161.7628 S   0  0  0  0  0  0  0  0  0  0  0  0
  153.6039  142.4190  161.9114 C   0  0  0  0  0  0  0  0  0  0  0  0
  153.8976  143.2739  163.0993 C   0  0  0  0  0  0  0  0  0  0  0  0
  150.8378  144.9459  159.0557 H   0  0  0  0  0  0  0  0  0  0  0  0
  150.7110  143.1888  159.0474 H   0  0  0  0  0  0  0  0  0  0  0  0
  152.1659  143.9713  158.4306 H   0  0  0  0  0  0  0  0  0  0  0  0
  152.6578  144.8478  160.7413 H   0  0  0  0  0  0  0  0  0  0  0  0
  151.2280  144.0667  161.3480 H   0  0  0  0  0  0  0  0  0  0  0  0
  152.9602  139.5242  158.5022 H   0  0  0  0  0  0  0  0  0  0  0  0
  154.5687  139.2073  159.1004 H   0  0  0  0  0  0  0  0  0  0  0  0
  152.1309  138.3909  160.7566 H   0  0  0  0  0  0  0  0  0  0  0  0
  152.6947  137.3838  159.4458 H   0  0  0  0  0  0  0  0  0  0  0  0
  154.3554  138.0663  161.7996 H   0  0  0  0  0  0  0  0  0  0  0  0
  156.1515  134.0957  160.9632 H   0  0  0  0  0  0  0  0  0  0  0  0
  157.1113  134.7603  162.2352 H   0  0  0  0  0  0  0  0  0  0  0  0
  154.3193  133.5516  162.6559 H   0  0  0  0  0  0  0  0  0  0  0  0
  155.8277  132.7165  162.9780 H   0  0  0  0  0  0  0  0  0  0  0  0
  153.7712  136.0792  164.0032 H   0  0  0  0  0  0  0  0  0  0  0  0
  154.9581  136.7360  165.1142 H   0  0  0  0  0  0  0  0  0  0  0  0
  156.6809  136.7498  163.2673 H   0  0  0  0  0  0  0  0  0  0  0  0
  155.3144  137.7525  162.8956 H   0  0  0  0  0  0  0  0  0  0  0  0
  153.0413  143.3039  163.7730 H   0  0  0  0  0  0  0  0  0  0  0  0
  154.1257  144.2957  162.7959 H   0  0  0  0  0  0  0  0  0  0  0  0
  154.7529  142.8932  163.6578 H   0  0  0  0  0  0  0  0  0  0  0  0
  1  2  1  0  0  0  0
  1 20  1  0  0  0  0
  1 21  1  0  0  0  0
  1 22  1  0  0  0  0
  2  3  1  0  0  0  0
  2 23  1  0  0  0  0
  2 24  1  0  0  0  0
  3 18  2  0  0  0  0
  3  4  1  0  0  0  0
  4  5  2  0  0  0  0
  5  6  1  0  0  0  0
  5 17  1  0  0  0  0
  6  7  1  0  0  0  0
  6 25  1  0  0  0  0
  6 26  1  0  0  0  0
  7  8  1  0  0  0  0
  7 27  1  0  0  0  0
  7 28  1  0  0  0  0
  8  9  1  0  0  0  0
  8 29  1  0  0  0  0
  9 10  2  0  0  0  0
  9 11  1  0  0  0  0
 11 16  1  0  0  0  0
 11 12  1  0  0  0  0
 12 13  1  0  0  0  0
 12 30  1  0  0  0  0
 12 31  1  0  0  0  0
 13 14  1  0  0  0  0
 13 32  1  0  0  0  0
 13 33  1  0  0  0  0
 14 15  1  0  0  0  0
 15 16  1  0  0  0  0
 15 34  1  0  0  0  0
 15 35  1  0  0  0  0
 16 36  1  0  0  0  0
 16 37  1  0  0  0  0
 17 18  1  0  0  0  0
 18 19  1  0  0  0  0
 19 38  1  0  0  0  0
 19 39  1  0  0  0  0
 19 40  1  0  0  0  0
M  END
> <s_m_source_file>
AV-unprocessed.smi

> <i_m_source_file_index>
2677

> <i_lp_mmshare_version>
43012

> <i_f3d_flags>
0

> <s_epik_input>
W0NIM11bQ0gyXWMxbmMoc2MxW0NIM10pW0NIMl1bQ0gyXVtOSF1DKD1PKU4yW0NIMl1bQ0gyXVNbQ0gyXVtDSDJdMg==

> <s_epik_cmdline>
J2VwaWtfcHl0aG9uJywgJy1waCcsICc3LjAnLCAnLXRuJywgJzgnLCAnLW1hJywgJzIwMCcsICctbWV0YWxfYmluZGluZycsICctaW1hZScsICc8aW5maWxlLm1hZT4nLCAnLW9tYWUnLCAnPG91dGZpbGUubWFlPic=

> <r_epik_Ionization_Penalty>
0.00440659

> <r_epik_Ionization_Penalty_Charging>
0

> <r_epik_Ionization_Penalty_Neutral>
0.00440659

> <r_epik_State_Penalty>
0.00314229

> <r_epik_Charging_Adjusted_Penalty>
0.00314229

> <i_epik_Tot_Q>
0

> <i_epik_Tot_abs_Q>
0

> <r_epik_Metal_State_Penalty>
-0

> <b_epik_Metal_Only>
0

> <s_lp_Force_Field>
OPLS_2005

> <r_lp_Energy>
14.3594

> <b_lp_Chiralities_Consistent>
1

> <s_lp_Variant>
AV-unprocessed.smi:2677-1

> <Gold.Version>
5.8.1

> <Gold.Id.Protein>
6NUR|6NUR_protein|mol2

> <Gold.PLP.Fitness>
46.0284

> <Gold.PLP.PLP>
-45.2767

> <Gold.PLP.part.hbond>
-0.9924

> <Gold.PLP.part.metal>
0.0000

> <Gold.PLP.part.buried>
-5.7643

> <Gold.PLP.part.nonpolar>
-38.9866

> <Gold.PLP.part.repulsive>
0.0487

> <Gold.PLP.ligand.clash>
1.8454

> <Gold.PLP.ligand.torsion>
0.2114

> <Gold.PLP.Chemscore.Hbond>
1.0000

> <Gold.PLP.Chemscore.CHOScore>
0.0000

> <Gold.PLP.Chemscore.Metal>
0.0000

> <Gold.Chemscore.Hbonds>
donor molecule, donor type, donor heavy atom, donor atom, acceptor molecule, acceptor atom, score
      P1  H  6896  6908       L1    10  1.00

> <Gold.PLP.Chemscore.Internal.Correction>
0.0199

> <Gold.Rescore>
     Score         DG    S(hbond)    S(metal)    S(lipo)     H(rot)  DE(clash)    DE(int)     intcor
     20.14     -20.38       0.99        0.00     129.76       1.40       0.05       0.19       ----

> <Gold.Chemscore.Fitness>
20.1376

> <Gold.Chemscore.DG>
-20.3820

> <Gold.Chemscore.ZeroCoef>
-5.4800

> <Gold.Chemscore.Hbond>
0.9891

> <Gold.Chemscore.Metal>
0.0000

> <Gold.Chemscore.Lipo>
129.7640

> <Gold.Chemscore.Internal_Hbond>
0.0000

> <Gold.Chemscore.DEClash>
0.0502

> <Gold.Chemscore.DEInternal>
0.1942

> <Gold.Chemscore.Rot>
1.4000

> <Gold.Chemscore.Internal.Correction>
   9.000000E+99

> <Gold.Chemscore.Hbonds>
donor molecule, donor type, donor heavy atom, donor atom, acceptor molecule, acceptor atom, score
      P1  H  6896  6908       L1    10  0.95

> <Gold.Chemscore.Hbond.Weighted>
-3.3035

> <Gold.Chemscore.Metal.Weighted>
-0.0000

> <Gold.Chemscore.Lipo.Weighted>
-15.1824

> <Gold.Chemscore.Internal_Hbond.Weighted>
0.0000

> <Gold.Chemscore.DEClash.Weighted>
0.0502

> <Gold.Chemscore.DEInternal.Weighted>
0.1942

> <Gold.Chemscore.Rot.Weighted>
3.5839

> <Gold.Chemscore.Internal.Correction.Weighted>
   9.000000E+99

> <Gold.Protein.RotatedTorsions>
[ 6907 6896 6895 6894 ] final  -54.16 input  -60.11 | X-H torsion
[ 7974 7965 7964 7962 ] final   73.23 input  175.53 | X-H torsion
[ 8008 7997 7996 7995 ] final -123.55 input   59.86 | X-H torsion
[ 10167 10162 10161 10158 ] final   71.03 input  -65.29 | X-H torsion
[ 10718 10713 10712 10709 ] final -135.48 input   66.30 | X-H torsion
[ 10763 10752 10751 10750 ] final -115.18 input  -60.55 | X-H torsion
[ 11005 11000 10999 10996 ] final   26.34 input  -57.11 | X-H torsion

> <Gold.Protein.ActiveResidues>
 VAL166  LYS551  ARG553  GLY616  TRP617  ASP618  TYR619  PRO620  LYS621  CYS622 
 ASP623  PHE694  ASN695  SER759  ASP760  ASP761  ALA762  ILE779  LEU786  VAL792 
 PHE793  MET794  SER795  GLU796  ALA797  LYS798  CYS799  TRP800  GLU811  SER814 

> <Gold.Protein.RotatedAtoms>
  150.8362  134.7637  159.6894 H   0  0  0  0  0  0  0  0  0  0  0  0  # atno 6907 bound_to 6896
  152.4459  134.5493  159.9872 H   0  0  0  0  0  0  0  0  0  0  0  0  # atno 6908 bound_to 6896
  151.5643  133.3361  159.3013 H   0  0  0  0  0  0  0  0  0  0  0  0  # atno 6909 bound_to 6896
  145.7434  139.2730  143.1473 H   0  0  0  0  0  0  0  0  0  0  0  0  # atno 7974 bound_to 7965
  155.1824  140.0411  157.2884 H   0  0  0  0  0  0  0  0  0  0  0  0  # atno 8008 bound_to 7997
  154.6194  140.2497  155.7540 H   0  0  0  0  0  0  0  0  0  0  0  0  # atno 8009 bound_to 7997
  156.2425  140.2898  156.0495 H   0  0  0  0  0  0  0  0  0  0  0  0  # atno 8010 bound_to 7997
  140.0505  144.5315  150.7367 H   0  0  0  0  0  0  0  0  0  0  0  0  # atno 10167 bound_to 10162
  156.2666  130.7241  151.1194 H   0  0  0  0  0  0  0  0  0  0  0  0  # atno 10718 bound_to 10713
  154.8470  135.4391  154.1622 H   0  0  0  0  0  0  0  0  0  0  0  0  # atno 10763 bound_to 10752
  153.2756  135.6949  153.7443 H   0  0  0  0  0  0  0  0  0  0  0  0  # atno 10764 bound_to 10752
  153.6667  135.3426  155.3117 H   0  0  0  0  0  0  0  0  0  0  0  0  # atno 10765 bound_to 10752
  140.3381  134.2364  155.7693 H   0  0  0  0  0  0  0  0  0  0  0  0  # atno 11005 bound_to 11000
  146.0426  140.8150  142.9821 LP  0  0  0  0  0  0  0  0  0  0  0  0  # atno 17320 bound_to 7965
  144.6865  140.2932  143.7275 LP  0  0  0  0  0  0  0  0  0  0  0  0  # atno 17321 bound_to 7965
  140.7219  143.2597  151.4251 LP  0  0  0  0  0  0  0  0  0  0  0  0  # atno 17342 bound_to 10162
  139.5956  144.1405  152.2140 LP  0  0  0  0  0  0  0  0  0  0  0  0  # atno 17343 bound_to 10162
  157.7269  131.0642  150.5887 LP  0  0  0  0  0  0  0  0  0  0  0  0  # atno 17370 bound_to 10713
  156.5980  130.4347  149.5909 LP  0  0  0  0  0  0  0  0  0  0  0  0  # atno 17371 bound_to 10713
  141.2046  133.7882  157.0279 LP  0  0  0  0  0  0  0  0  0  0  0  0  # atno 17394 bound_to 11000
  140.0804  134.9651  157.1615 LP  0  0  0  0  0  0  0  0  0  0  0  0  # atno 17395 bound_to 11000

$$$$
