AV-unprocessed.smi:310|AV-procd|sdf|2295|dock6
  -GOLD-   2262022193D 1   1.00000     0.00000
 Structure written by MMmdl.
 41 43  0  0  0  0  0  0  0  0  1 V2000
  146.6661  132.6208  161.8671 C   0  0  0  0  0  0  0  0  0  0  0  0
  147.3284  133.5872  160.9459 C   0  0  0  0  0  0  0  0  0  0  0  0
  147.3396  134.9521  160.8797 C   0  0  0  0  0  0  0  0  0  0  0  0
  148.1730  135.2114  159.7591 C   0  0  0  0  0  0  0  0  0  0  0  0
  148.4457  136.5409  159.3473 N   0  0  0  0  0  0  0  0  0  0  0  0
  149.6108  137.0368  158.8960 C   0  0  0  0  0  0  0  0  0  0  0  0
  150.6503  136.3915  158.7583 O   0  0  0  0  0  0  0  0  0  0  0  0
  149.5053  138.3425  158.6081 N   0  0  0  0  0  0  0  0  0  0  0  0
  150.5880  139.1855  158.1093 C   0  0  0  0  0  0  0  0  0  0  0  0
  151.7246  139.2407  159.1531 C   0  0  0  0  0  0  0  0  0  0  0  0
  152.7975  140.2654  158.7463 C   0  0  0  0  0  0  0  0  0  0  0  0
  152.1561  141.5764  158.5775 N   0  0  0  0  0  0  0  0  0  0  0  0
  152.3069  142.6508  159.3922 C   0  0  0  0  0  0  0  0  0  0  0  0
  152.9771  142.6000  160.4247 O   0  0  0  0  0  0  0  0  0  0  0  0
  151.6429  143.9277  158.9713 C   0  0  0  0  0  0  0  0  0  0  0  0
  152.5155  145.0703  158.4826 C   0  0  0  0  0  0  0  0  0  0  0  0
  151.8771  145.1418  159.8453 C   0  0  0  0  0  0  0  0  0  0  0  0
  151.2225  141.5663  157.4445 C   0  0  0  0  0  0  0  0  0  0  0  0
  150.0661  140.6004  157.7649 C   0  0  0  0  0  0  0  0  0  0  0  0
  148.6286  134.1049  159.1920 N   0  0  0  0  0  0  0  0  0  0  0  0
  148.0893  133.0583  159.9495 O   0  0  0  0  0  0  0  0  0  0  0  0
  146.1443  133.1418  162.6700 H   0  0  0  0  0  0  0  0  0  0  0  0
  147.3997  131.9526  162.3186 H   0  0  0  0  0  0  0  0  0  0  0  0
  145.9385  132.0121  161.3300 H   0  0  0  0  0  0  0  0  0  0  0  0
  146.8332  135.6497  161.5301 H   0  0  0  0  0  0  0  0  0  0  0  0
  147.6716  137.1852  159.4084 H   0  0  0  0  0  0  0  0  0  0  0  0
  148.6116  138.7900  158.7497 H   0  0  0  0  0  0  0  0  0  0  0  0
  150.9986  138.7409  157.2005 H   0  0  0  0  0  0  0  0  0  0  0  0
  151.3221  139.5125  160.1303 H   0  0  0  0  0  0  0  0  0  0  0  0
  152.1755  138.2544  159.2670 H   0  0  0  0  0  0  0  0  0  0  0  0
  153.6186  140.2654  159.4618 H   0  0  0  0  0  0  0  0  0  0  0  0
  153.2508  139.9663  157.8001 H   0  0  0  0  0  0  0  0  0  0  0  0
  150.6767  143.8372  158.4784 H   0  0  0  0  0  0  0  0  0  0  0  0
  153.5957  144.9405  158.4486 H   0  0  0  0  0  0  0  0  0  0  0  0
  152.1064  145.6995  157.6949 H   0  0  0  0  0  0  0  0  0  0  0  0
  151.0372  145.8195  159.9834 H   0  0  0  0  0  0  0  0  0  0  0  0
  152.5301  145.0345  160.7100 H   0  0  0  0  0  0  0  0  0  0  0  0
  150.8217  142.5541  157.2138 H   0  0  0  0  0  0  0  0  0  0  0  0
  151.7456  141.2416  156.5439 H   0  0  0  0  0  0  0  0  0  0  0  0
  149.3789  140.5529  156.9194 H   0  0  0  0  0  0  0  0  0  0  0  0
  149.4942  140.9976  158.6049 H   0  0  0  0  0  0  0  0  0  0  0  0
  1  2  1  0  0  0  0
  1 22  1  0  0  0  0
  1 23  1  0  0  0  0
  1 24  1  0  0  0  0
  2 21  1  0  0  0  0
  2  3  2  0  0  0  0
  3  4  1  0  0  0  0
  3 25  1  0  0  0  0
  4  5  1  0  0  0  0
  4 20  2  0  0  0  0
  5  6  1  0  0  0  0
  5 26  1  0  0  0  0
  6  7  2  0  0  0  0
  6  8  1  0  0  0  0
  8  9  1  0  0  0  0
  8 27  1  0  0  0  0
  9 19  1  0  0  0  0
  9 10  1  0  0  0  0
  9 28  1  0  0  0  0
 10 11  1  0  0  0  0
 10 29  1  0  0  0  0
 10 30  1  0  0  0  0
 11 12  1  0  0  0  0
 11 31  1  0  0  0  0
 11 32  1  0  0  0  0
 12 13  1  0  0  0  0
 12 18  1  0  0  0  0
 13 14  2  0  0  0  0
 13 15  1  0  0  0  0
 15 17  1  0  0  0  0
 15 16  1  0  0  0  0
 15 33  1  0  0  0  0
 16 17  1  0  0  0  0
 16 34  1  0  0  0  0
 16 35  1  0  0  0  0
 17 36  1  0  0  0  0
 17 37  1  0  0  0  0
 18 19  1  0  0  0  0
 18 38  1  0  0  0  0
 18 39  1  0  0  0  0
 19 40  1  0  0  0  0
 19 41  1  0  0  0  0
 20 21  1  0  0  0  0
M  END
> <s_m_source_file>
AV-unprocessed.smi

> <i_m_source_file_index>
310

> <i_lp_mmshare_version>
43012

> <i_f3d_flags>
0

> <s_epik_input>
W0NIM11jMVtjSF1jKG5vMSlbTkhdQyg9TylbTkhdW0NIXTJbQ0gyXVtDSDJdTihbQ0gyXVtDSDJdMilDKD1PKVtDSF0zW0NIMl1bQ0gyXTM=

> <s_epik_cmdline>
J2VwaWtfcHl0aG9uJywgJy1waCcsICc3LjAnLCAnLXRuJywgJzgnLCAnLW1hJywgJzIwMCcsICctbWV0YWxfYmluZGluZycsICctaW1hZScsICc8aW5maWxlLm1hZT4nLCAnLW9tYWUnLCAnPG91dGZpbGUubWFlPic=

> <r_lp_tautomer_probability>
1

> <r_epik_Ionization_Penalty>
2.91812e-05

> <r_epik_Ionization_Penalty_Charging>
0

> <r_epik_Ionization_Penalty_Neutral>
2.91812e-05

> <r_epik_State_Penalty>
-0

> <r_epik_Charging_Adjusted_Penalty>
0

> <i_epik_Tot_Q>
0

> <i_epik_Tot_abs_Q>
0

> <r_epik_Metal_State_Penalty>
0.00922567

> <b_epik_Metal_Only>
0

> <s_lp_Force_Field>
OPLS_2005

> <r_lp_Energy>
27.9216

> <b_lp_Chiralities_Consistent>
1

> <s_lp_Variant>
AV-unprocessed.smi:310-1

> <Gold.Version>
5.8.1

> <Gold.Id.Protein>
6NUR|6NUR_protein|mol2

> <Gold.PLP.Fitness>
39.6300

> <Gold.PLP.PLP>
-36.8484

> <Gold.PLP.part.hbond>
-2.0000

> <Gold.PLP.part.metal>
0.0000

> <Gold.PLP.part.buried>
-6.8552

> <Gold.PLP.part.nonpolar>
-29.0903

> <Gold.PLP.part.repulsive>
0.3586

> <Gold.PLP.ligand.clash>
0.0000

> <Gold.PLP.ligand.torsion>
0.4512

> <Gold.PLP.Chemscore.Hbond>
1.1875

> <Gold.PLP.Chemscore.CHOScore>
0.0000

> <Gold.PLP.Chemscore.Metal>
0.0000

> <Gold.Chemscore.Hbonds>
donor molecule, donor type, donor heavy atom, donor atom, acceptor molecule, acceptor atom, score
      P1  H  6896  6908       L1    20  0.95
      P1  H  6896  6909       L1     7  0.20

> <Gold.PLP.Chemscore.Internal.Correction>
0.1214

> <Gold.Rescore>
     Score         DG    S(hbond)    S(metal)    S(lipo)     H(rot)  DE(clash)    DE(int)     intcor
     13.93     -15.66       1.03        0.00      85.24       1.26       0.00       1.73       ----

> <Gold.Chemscore.Fitness>
13.9286

> <Gold.Chemscore.DG>
-15.6607

> <Gold.Chemscore.ZeroCoef>
-5.4800

> <Gold.Chemscore.Hbond>
1.0292

> <Gold.Chemscore.Metal>
0.0000

> <Gold.Chemscore.Lipo>
85.2380

> <Gold.Chemscore.Internal_Hbond>
0.0000

> <Gold.Chemscore.DEClash>
0.0000

> <Gold.Chemscore.DEInternal>
1.7322

> <Gold.Chemscore.Rot>
1.2615

> <Gold.Chemscore.Internal.Correction>
   9.000000E+99

> <Gold.Chemscore.Hbonds>
donor molecule, donor type, donor heavy atom, donor atom, acceptor molecule, acceptor atom, score
      P1  H  6896  6908       L1    20  0.42
      P1  H  6896  6909       L1     7  0.20

> <Gold.Chemscore.Hbond.Weighted>
-3.4374

> <Gold.Chemscore.Metal.Weighted>
-0.0000

> <Gold.Chemscore.Lipo.Weighted>
-9.9728

> <Gold.Chemscore.Internal_Hbond.Weighted>
0.0000

> <Gold.Chemscore.DEClash.Weighted>
0.0000

> <Gold.Chemscore.DEInternal.Weighted>
1.7322

> <Gold.Chemscore.Rot.Weighted>
3.2295

> <Gold.Chemscore.Internal.Correction.Weighted>
   9.000000E+99

> <Gold.Protein.RotatedTorsions>
[ 6907 6896 6895 6894 ] final  135.61 input  -60.11 | X-H torsion
[ 7974 7965 7964 7962 ] final   48.14 input  175.53 | X-H torsion
[ 8008 7997 7996 7995 ] final  176.26 input   59.86 | X-H torsion
[ 10167 10162 10161 10158 ] final  -47.30 input  -65.29 | X-H torsion
[ 10718 10713 10712 10709 ] final   62.65 input   66.30 | X-H torsion
[ 10763 10752 10751 10750 ] final   24.10 input  -60.55 | X-H torsion
[ 11005 11000 10999 10996 ] final   88.15 input  -57.11 | X-H torsion

> <Gold.Protein.ActiveResidues>
 VAL166  LYS551  ARG553  GLY616  TRP617  ASP618  TYR619  PRO620  LYS621  CYS622 
 ASP623  PHE694  ASN695  SER759  ASP760  ASP761  ALA762  ILE779  LEU786  VAL792 
 PHE793  MET794  SER795  GLU796  ALA797  LYS798  CYS799  TRP800  GLU811  SER814 

> <Gold.Protein.RotatedAtoms>
  152.2985  133.5632  159.5602 H   0  0  0  0  0  0  0  0  0  0  0  0  # atno 6907 bound_to 6896
  150.7267  134.0326  159.3747 H   0  0  0  0  0  0  0  0  0  0  0  0  # atno 6908 bound_to 6896
  151.8227  135.0647  160.0478 H   0  0  0  0  0  0  0  0  0  0  0  0  # atno 6909 bound_to 6896
  146.0232  139.4676  142.9884 H   0  0  0  0  0  0  0  0  0  0  0  0  # atno 7974 bound_to 7965
  156.0783  140.1388  156.9743 H   0  0  0  0  0  0  0  0  0  0  0  0  # atno 8008 bound_to 7997
  154.4570  140.0957  156.6837 H   0  0  0  0  0  0  0  0  0  0  0  0  # atno 8009 bound_to 7997
  155.5116  140.3454  155.4392 H   0  0  0  0  0  0  0  0  0  0  0  0  # atno 8010 bound_to 7997
  140.6781  143.2791  151.3907 H   0  0  0  0  0  0  0  0  0  0  0  0  # atno 10167 bound_to 10162
  157.5915  130.9062  149.9614 H   0  0  0  0  0  0  0  0  0  0  0  0  # atno 10718 bound_to 10713
  153.0789  135.6612  154.0087 H   0  0  0  0  0  0  0  0  0  0  0  0  # atno 10763 bound_to 10752
  153.9714  135.2964  155.3428 H   0  0  0  0  0  0  0  0  0  0  0  0  # atno 10764 bound_to 10752
  154.7184  135.5175  153.8844 H   0  0  0  0  0  0  0  0  0  0  0  0  # atno 10765 bound_to 10752
  139.8903  134.8469  156.2960 H   0  0  0  0  0  0  0  0  0  0  0  0  # atno 11005 bound_to 11000
  145.7159  141.0091  143.1428 LP  0  0  0  0  0  0  0  0  0  0  0  0  # atno 17320 bound_to 7965
  144.6999  139.8813  143.7447 LP  0  0  0  0  0  0  0  0  0  0  0  0  # atno 17321 bound_to 7965
  139.6085  144.1146  152.2275 LP  0  0  0  0  0  0  0  0  0  0  0  0  # atno 17342 bound_to 10162
  140.0553  144.5900  150.7304 LP  0  0  0  0  0  0  0  0  0  0  0  0  # atno 17343 bound_to 10162
  156.0971  130.3658  150.0286 LP  0  0  0  0  0  0  0  0  0  0  0  0  # atno 17370 bound_to 10713
  156.8408  130.9425  151.3632 LP  0  0  0  0  0  0  0  0  0  0  0  0  # atno 17371 bound_to 10713
  140.9945  133.7189  156.0864 LP  0  0  0  0  0  0  0  0  0  0  0  0  # atno 17394 bound_to 11000
  140.7581  134.3970  157.5530 LP  0  0  0  0  0  0  0  0  0  0  0  0  # atno 17395 bound_to 11000

$$$$
