AV-unprocessed.smi:2698|AV-procd|sdf|10420|dock3
  -GOLD-   2272014453D 1   1.00000     0.00000
 Structure written by MMmdl.
 33 33  0  0  0  0  0  0  0  0  2 V2000
  151.9513  144.4908  158.4018 C   0  0  0  0  0  0  0  0  0  0  0  0
  151.5265  143.0148  158.4105 C   0  0  0  0  0  0  0  0  0  0  0  0
  152.6833  142.1283  158.9080 C   0  0  0  0  0  0  0  0  0  0  0  0
  150.9878  142.5970  157.0222 C   0  0  0  0  0  0  0  0  0  0  0  0
  150.6381  141.1092  156.9238 C   0  0  0  0  0  0  0  0  0  0  0  0
  149.9512  140.5769  157.7960 O   0  0  0  0  0  0  0  0  0  0  0  0
  151.1247  140.4537  155.8576 N   0  0  0  0  0  0  0  0  0  0  0  0
  150.9111  139.0426  155.5355 C   0  0  1  0  0  0  0  0  0  0  0  0
  150.3588  138.8565  154.1036 C   0  0  0  0  0  0  0  0  0  0  0  0
  148.9928  139.4462  153.8438 C   0  0  0  0  0  0  0  0  0  0  0  0
  148.4537  140.6752  154.1554 C   0  0  0  0  0  0  0  0  0  0  0  0
  147.1467  140.7584  153.6679 N   0  0  0  0  0  0  0  0  0  0  0  0
  146.9471  139.5864  153.0763 C   0  0  0  0  0  0  0  0  0  0  0  0
  148.0026  138.7720  153.1488 N   0  0  0  0  0  0  0  0  0  0  0  0
  152.1989  138.2503  155.7875 C   0  0  0  0  0  0  0  0  0  0  0  0
  152.1541  137.0114  155.6158 O   0  0  0  0  0  0  0  0  0  0  0  0
  153.2070  138.8945  156.1519 O   0  5  0  0  0  0  0  0  0  0  0  0
  148.0715  137.8415  152.7620 H   0  0  0  0  0  0  0  0  0  0  0  0
  152.7718  144.6627  157.7045 H   0  0  0  0  0  0  0  0  0  0  0  0
  152.2810  144.8116  159.3904 H   0  0  0  0  0  0  0  0  0  0  0  0
  151.1238  145.1376  158.1084 H   0  0  0  0  0  0  0  0  0  0  0  0
  150.7111  142.9236  159.1298 H   0  0  0  0  0  0  0  0  0  0  0  0
  153.5157  142.1326  158.2036 H   0  0  0  0  0  0  0  0  0  0  0  0
  152.3714  141.0939  159.0496 H   0  0  0  0  0  0  0  0  0  0  0  0
  153.0603  142.4799  159.8685 H   0  0  0  0  0  0  0  0  0  0  0  0
  150.0963  143.1787  156.7815 H   0  0  0  0  0  0  0  0  0  0  0  0
  151.7193  142.8362  156.2494 H   0  0  0  0  0  0  0  0  0  0  0  0
  151.6978  140.9709  155.2066 H   0  0  0  0  0  0  0  0  0  0  0  0
  150.1650  138.6402  156.2240 H   0  0  0  0  0  0  0  0  0  0  0  0
  151.0540  139.2754  153.3745 H   0  0  0  0  0  0  0  0  0  0  0  0
  150.3006  137.7898  153.8832 H   0  0  0  0  0  0  0  0  0  0  0  0
  148.9059  141.5029  154.6818 H   0  0  0  0  0  0  0  0  0  0  0  0
  146.0244  139.3194  152.5824 H   0  0  0  0  0  0  0  0  0  0  0  0
  1  2  1  0  0  0  0
  1 19  1  0  0  0  0
  1 20  1  0  0  0  0
  1 21  1  0  0  0  0
  2  3  1  0  0  0  0
  2  4  1  0  0  0  0
  2 22  1  0  0  0  0
  3 23  1  0  0  0  0
  3 24  1  0  0  0  0
  3 25  1  0  0  0  0
  4  5  1  0  0  0  0
  4 26  1  0  0  0  0
  4 27  1  0  0  0  0
  5  6  2  0  0  0  0
  5  7  1  0  0  0  0
  7  8  1  0  0  0  0
  7 28  1  0  0  0  0
  8  9  1  0  0  0  0
  8 15  1  0  0  0  0
  8 29  1  0  0  0  0
  9 30  1  0  0  0  0
  9 31  1  0  0  0  0
  9 10  1  0  0  0  0
 10 11  2  0  0  0  0
 10 14  1  0  0  0  0
 11 32  1  0  0  0  0
 11 12  1  0  0  0  0
 12 13  2  0  0  0  0
 13 14  1  0  0  0  0
 13 33  1  0  0  0  0
 14 18  1  0  0  0  0
 15 16  2  0  0  0  0
 15 17  1  0  0  0  0
M  CHG  1  17  -1
M  END
> <s_m_source_file>
AV-unprocessed.smi

> <i_m_source_file_index>
2698

> <i_lp_mmshare_version>
43012

> <i_f3d_flags>
0

> <s_epik_input>
W0NIM11bQ0hdKFtDSDNdKVtDSDJdQyg9TylbTkhdW0NAQEhdKEMoPU8pW09IXSlbQ0gyXWMxW2NIXVtuSF1bY0hdbjE=

> <s_epik_cmdline>
J2VwaWtfcHl0aG9uJywgJy1waCcsICc3LjAnLCAnLXRuJywgJzgnLCAnLW1hJywgJzIwMCcsICctbWV0YWxfYmluZGluZycsICctaW1hZScsICc8aW5maWxlLm1hZT4nLCAnLW9tYWUnLCAnPG91dGZpbGUubWFlPic=

> <r_lp_tautomer_probability>
0.5

> <r_epik_Ionization_Penalty>
0.536153

> <r_epik_Ionization_Penalty_Charging>
0.536153

> <r_epik_Ionization_Penalty_Neutral>
4.95393e-08

> <r_epik_State_Penalty>
0.778213

> <r_epik_Charging_Adjusted_Penalty>
1.31437

> <i_epik_Tot_Q>
-1

> <i_epik_Tot_abs_Q>
1

> <r_epik_Metal_State_Penalty>
0.658344

> <b_epik_Metal_Only>
0

> <s_lp_Force_Field>
OPLS_2005

> <r_lp_Energy>
2.9569

> <b_lp_Chiralities_Consistent>
1

> <s_lp_Variant>
AV-unprocessed.smi:2698-4

> <Gold.Version>
5.8.1

> <Gold.Id.Protein>
6NUR|6NUR_protein|mol2

> <Gold.PLP.Fitness>
48.4890

> <Gold.PLP.PLP>
-31.9463

> <Gold.PLP.part.hbond>
-4.0000

> <Gold.PLP.part.metal>
0.0000

> <Gold.PLP.part.buried>
-2.1489

> <Gold.PLP.part.nonpolar>
-27.4400

> <Gold.PLP.part.repulsive>
0.3812

> <Gold.PLP.ligand.clash>
0.0000

> <Gold.PLP.ligand.torsion>
0.4547

> <Gold.PLP.Chemscore.Hbond>
4.8945

> <Gold.PLP.Chemscore.CHOScore>
0.8412

> <Gold.PLP.Chemscore.Metal>
0.0000

> <Gold.Chemscore.Hbonds>
donor molecule, donor type, donor heavy atom, donor atom, acceptor molecule, acceptor atom, score
      L1  H    14    18       P1  7948  1.00
      P1  H  7997  8010       L1    17  1.98
      P1  H 10752 10765       L1    16  1.89
      L1  C    13    33       P1 10175  0.80

> <Gold.PLP.Chemscore.Internal.Correction>
0.2449

> <Gold.Rescore>
     Score         DG    S(hbond)    S(metal)    S(lipo)     H(rot)  DE(clash)    DE(int)     intcor
     15.07     -15.55       2.92        0.00      68.64       3.01       0.00       0.47       ----

> <Gold.Chemscore.Fitness>
15.0729

> <Gold.Chemscore.DG>
-15.5499

> <Gold.Chemscore.ZeroCoef>
-5.4800

> <Gold.Chemscore.Hbond>
2.9211

> <Gold.Chemscore.Metal>
0.0000

> <Gold.Chemscore.Lipo>
68.6354

> <Gold.Chemscore.Internal_Hbond>
0.0000

> <Gold.Chemscore.DEClash>
0.0029

> <Gold.Chemscore.DEInternal>
0.4741

> <Gold.Chemscore.Rot>
3.0145

> <Gold.Chemscore.Internal.Correction>
   9.000000E+99

> <Gold.Chemscore.Hbonds>
donor molecule, donor type, donor heavy atom, donor atom, acceptor molecule, acceptor atom, score
      L1  H    14    18       P1  7948  0.92
      P1  H  7997  8010       L1    17  0.94
      P1  H 10752 10765       L1    16  0.91

> <Gold.Chemscore.Hbond.Weighted>
-9.7566

> <Gold.Chemscore.Metal.Weighted>
-0.0000

> <Gold.Chemscore.Lipo.Weighted>
-8.0303

> <Gold.Chemscore.Internal_Hbond.Weighted>
0.0000

> <Gold.Chemscore.DEClash.Weighted>
0.0029

> <Gold.Chemscore.DEInternal.Weighted>
0.4741

> <Gold.Chemscore.Rot.Weighted>
7.7171

> <Gold.Chemscore.Internal.Correction.Weighted>
   9.000000E+99

> <Gold.Protein.RotatedTorsions>
[ 6907 6896 6895 6894 ] final  164.99 input  -60.11 | X-H torsion
[ 7974 7965 7964 7962 ] final    8.85 input  175.53 | X-H torsion
[ 8008 7997 7996 7995 ] final   63.46 input   59.86 | X-H torsion
[ 10167 10162 10161 10158 ] final -158.67 input  -65.29 | X-H torsion
[ 10718 10713 10712 10709 ] final   71.94 input   66.30 | X-H torsion
[ 10763 10752 10751 10750 ] final -167.38 input  -60.55 | X-H torsion
[ 11005 11000 10999 10996 ] final  -79.32 input  -57.11 | X-H torsion

> <Gold.Protein.ActiveResidues>
 VAL166  LYS551  ARG553  GLY616  TRP617  ASP618  TYR619  PRO620  LYS621  CYS622 
 ASP623  PHE694  ASN695  SER759  ASP760  ASP761  ALA762  ILE779  LEU786  VAL792 
 PHE793  MET794  SER795  GLU796  ALA797  LYS798  CYS799  TRP800  GLU811  SER814 

> <Gold.Protein.RotatedAtoms>
  151.9014  133.3539  159.3831 H   0  0  0  0  0  0  0  0  0  0  0  0  # atno 6907 bound_to 6896
  150.7079  134.4825  159.5486 H   0  0  0  0  0  0  0  0  0  0  0  0  # atno 6908 bound_to 6896
  152.2414  134.8225  160.0510 H   0  0  0  0  0  0  0  0  0  0  0  0  # atno 6909 bound_to 6896
  146.2411  139.9871  142.8430 H   0  0  0  0  0  0  0  0  0  0  0  0  # atno 7974 bound_to 7965
  155.6305  140.3496  155.4681 H   0  0  0  0  0  0  0  0  0  0  0  0  # atno 8008 bound_to 7997
  156.0007  140.1212  157.0574 H   0  0  0  0  0  0  0  0  0  0  0  0  # atno 8009 bound_to 7997
  154.4248  140.1101  156.5679 H   0  0  0  0  0  0  0  0  0  0  0  0  # atno 8010 bound_to 7997
  139.6674  143.9804  152.2263 H   0  0  0  0  0  0  0  0  0  0  0  0  # atno 10167 bound_to 10162
  157.6477  130.9554  150.0860 H   0  0  0  0  0  0  0  0  0  0  0  0  # atno 10718 bound_to 10713
  154.6738  135.2943  154.9706 H   0  0  0  0  0  0  0  0  0  0  0  0  # atno 10763 bound_to 10752
  154.0724  135.6616  153.4830 H   0  0  0  0  0  0  0  0  0  0  0  0  # atno 10764 bound_to 10752
  153.0503  135.5178  154.7747 H   0  0  0  0  0  0  0  0  0  0  0  0  # atno 10765 bound_to 10752
  141.1667  133.7100  156.8104 H   0  0  0  0  0  0  0  0  0  0  0  0  # atno 11005 bound_to 11000
  145.1538  140.9637  143.4417 LP  0  0  0  0  0  0  0  0  0  0  0  0  # atno 17320 bound_to 7965
  145.0180  139.3449  143.6086 LP  0  0  0  0  0  0  0  0  0  0  0  0  # atno 17321 bound_to 7965
  139.9560  144.6589  150.8126 LP  0  0  0  0  0  0  0  0  0  0  0  0  # atno 17342 bound_to 10162
  140.7605  143.3152  151.2750 LP  0  0  0  0  0  0  0  0  0  0  0  0  # atno 17343 bound_to 10162
  156.1822  130.3650  149.9020 LP  0  0  0  0  0  0  0  0  0  0  0  0  # atno 17370 bound_to 10713
  156.6969  130.8918  151.3595 LP  0  0  0  0  0  0  0  0  0  0  0  0  # atno 17371 bound_to 10713
  140.2192  134.8770  157.3358 LP  0  0  0  0  0  0  0  0  0  0  0  0  # atno 17394 bound_to 11000
  140.2006  134.4259  155.7665 LP  0  0  0  0  0  0  0  0  0  0  0  0  # atno 17395 bound_to 11000

$$$$
