AV-unprocessed.smi:2281|AV-procd|sdf|9194|dock3
  -GOLD-   2272012413D 1   1.00000     0.00000
 Structure written by MMmdl.
 40 41  0  0  0  0  0  0  0  0  1 V2000
  147.2438  138.2829  152.6490 C   0  0  0  0  0  0  0  0  0  0  0  0
  148.2938  138.8591  153.5822 C   0  0  0  0  0  0  0  0  0  0  0  0
  149.2362  137.9484  154.0669 N   0  0  0  0  0  0  0  0  0  0  0  0
  150.1814  138.3541  154.8498 C   0  0  0  0  0  0  0  0  0  0  0  0
  150.2975  139.7028  155.2347 N   0  0  0  0  0  0  0  0  0  0  0  0
  151.4331  140.0571  156.1138 C   0  0  0  0  0  0  0  0  0  0  0  0
  151.2691  139.6266  157.6036 C   0  0  2  0  0  0  0  0  0  0  0  0
  151.8911  138.2305  157.8194 C   0  0  0  0  0  0  0  0  0  0  0  0
  149.8899  139.3815  157.8162 O   0  0  0  0  0  0  0  0  0  0  0  0
  151.8440  140.6510  158.5941 C   0  0  0  0  0  0  0  0  0  0  0  0
  152.7733  140.2642  159.5888 C   0  0  0  0  0  0  0  0  0  0  0  0
  153.2689  141.2059  160.5095 C   0  0  0  0  0  0  0  0  0  0  0  0
  152.8428  142.5452  160.4506 C   0  0  0  0  0  0  0  0  0  0  0  0
  151.9146  142.9497  159.4678 C   0  0  0  0  0  0  0  0  0  0  0  0
  151.4251  144.3878  159.3898 C   0  0  0  0  0  0  0  0  0  0  0  0
  151.9311  144.9773  158.3066 F   0  0  0  0  0  0  0  0  0  0  0  0
  150.0953  144.3957  159.3011 F   0  0  0  0  0  0  0  0  0  0  0  0
  151.7850  145.0958  160.4610 F   0  0  0  0  0  0  0  0  0  0  0  0
  151.4203  141.9996  158.5501 C   0  0  0  0  0  0  0  0  0  0  0  0
  149.3899  140.6446  154.8451 C   0  0  0  0  0  0  0  0  0  0  0  0
  149.4609  141.8122  155.2321 O   0  0  0  0  0  0  0  0  0  0  0  0
  148.3334  140.1725  153.9358 C   0  0  0  0  0  0  0  0  0  0  0  0
  147.3385  141.2117  153.4338 C   0  0  0  0  0  0  0  0  0  0  0  0
  146.2444  138.4361  153.0572 H   0  0  0  0  0  0  0  0  0  0  0  0
  147.3847  137.2108  152.5057 H   0  0  0  0  0  0  0  0  0  0  0  0
  147.2990  138.7612  151.6709 H   0  0  0  0  0  0  0  0  0  0  0  0
  150.9438  137.6819  155.2471 H   0  0  0  0  0  0  0  0  0  0  0  0
  152.3707  139.6771  155.7024 H   0  0  0  0  0  0  0  0  0  0  0  0
  151.5681  141.1404  156.0883 H   0  0  0  0  0  0  0  0  0  0  0  0
  152.9617  138.2187  157.6165 H   0  0  0  0  0  0  0  0  0  0  0  0
  151.4402  137.4878  157.1594 H   0  0  0  0  0  0  0  0  0  0  0  0
  151.7489  137.8871  158.8452 H   0  0  0  0  0  0  0  0  0  0  0  0
  149.7898  138.5145  158.1786 H   0  0  0  0  0  0  0  0  0  0  0  0
  153.1079  139.2405  159.6671 H   0  0  0  0  0  0  0  0  0  0  0  0
  153.9753  140.8980  161.2663 H   0  0  0  0  0  0  0  0  0  0  0  0
  153.2300  143.2532  161.1682 H   0  0  0  0  0  0  0  0  0  0  0  0
  150.6935  142.3167  157.8179 H   0  0  0  0  0  0  0  0  0  0  0  0
  147.8599  141.9920  152.8785 H   0  0  0  0  0  0  0  0  0  0  0  0
  146.8255  141.6795  154.2749 H   0  0  0  0  0  0  0  0  0  0  0  0
  146.5764  140.7957  152.7767 H   0  0  0  0  0  0  0  0  0  0  0  0
  1  2  1  0  0  0  0
  1 24  1  0  0  0  0
  1 25  1  0  0  0  0
  1 26  1  0  0  0  0
  2 22  2  0  0  0  0
  2  3  1  0  0  0  0
  3  4  2  0  0  0  0
  4  5  1  0  0  0  0
  4 27  1  0  0  0  0
  5  6  1  0  0  0  0
  5 20  1  0  0  0  0
  6  7  1  0  0  0  0
  6 28  1  0  0  0  0
  6 29  1  0  0  0  0
  7  8  1  0  0  0  0
  7  9  1  0  0  0  0
  7 10  1  0  0  0  0
  8 30  1  0  0  0  0
  8 31  1  0  0  0  0
  8 32  1  0  0  0  0
  9 33  1  0  0  0  0
 10 19  1  0  0  0  0
 10 11  2  0  0  0  0
 11 12  1  0  0  0  0
 11 34  1  0  0  0  0
 12 13  2  0  0  0  0
 12 35  1  0  0  0  0
 13 14  1  0  0  0  0
 13 36  1  0  0  0  0
 14 15  1  0  0  0  0
 14 19  2  0  0  0  0
 15 16  1  0  0  0  0
 15 17  1  0  0  0  0
 15 18  1  0  0  0  0
 19 37  1  0  0  0  0
 20 21  2  0  0  0  0
 20 22  1  0  0  0  0
 22 23  1  0  0  0  0
 23 38  1  0  0  0  0
 23 39  1  0  0  0  0
 23 40  1  0  0  0  0
M  END
> <s_m_source_file>
AV-unprocessed.smi

> <i_m_source_file_index>
2281

> <i_lp_mmshare_version>
43012

> <i_f3d_flags>
0

> <s_epik_input>
W0NIM11jMW5bY0hdbihjKD1PKWMxW0NIM10pW0NIMl1bQ0BAXShbQ0gzXSkoW09IXSljMltjSF1bY0hdW2NIXWMoQyhGKShGKUYpW2NIXTI=

> <s_epik_cmdline>
J2VwaWtfcHl0aG9uJywgJy1waCcsICc3LjAnLCAnLXRuJywgJzgnLCAnLW1hJywgJzIwMCcsICctbWV0YWxfYmluZGluZycsICctaW1hZScsICc8aW5maWxlLm1hZT4nLCAnLW9tYWUnLCAnPG91dGZpbGUubWFlPic=

> <r_lp_tautomer_probability>
1

> <r_epik_Ionization_Penalty>
5.68222e-05

> <r_epik_Ionization_Penalty_Charging>
9.07816e-08

> <r_epik_Ionization_Penalty_Neutral>
5.67314e-05

> <r_epik_State_Penalty>
-0

> <r_epik_Charging_Adjusted_Penalty>
9.07816e-08

> <i_epik_Tot_Q>
0

> <i_epik_Tot_abs_Q>
0

> <r_epik_Metal_State_Penalty>
-0

> <b_epik_Metal_Only>
0

> <s_lp_Force_Field>
OPLS_2005

> <r_lp_Energy>
21.2776

> <b_lp_Chiralities_Consistent>
1

> <s_lp_Variant>
AV-unprocessed.smi:2281-2

> <Gold.Version>
5.8.1

> <Gold.Id.Protein>
6NUR|6NUR_protein|mol2

> <Gold.PLP.Fitness>
47.0877

> <Gold.PLP.PLP>
-49.6408

> <Gold.PLP.part.hbond>
0.0000

> <Gold.PLP.part.metal>
0.0000

> <Gold.PLP.part.buried>
-7.7988

> <Gold.PLP.part.nonpolar>
-46.6827

> <Gold.PLP.part.repulsive>
4.1679

> <Gold.PLP.ligand.clash>
0.0000

> <Gold.PLP.ligand.torsion>
1.4282

> <Gold.PLP.Chemscore.Hbond>
0.0000

> <Gold.PLP.Chemscore.CHOScore>
0.0000

> <Gold.PLP.Chemscore.Metal>
0.0000

> <Gold.PLP.Chemscore.Internal.Correction>
0.3033

> <Gold.Rescore>
     Score         DG    S(hbond)    S(metal)    S(lipo)     H(rot)  DE(clash)    DE(int)     intcor
     10.21     -11.80       0.00        0.00      99.68       2.09       0.65       0.95       ----

> <Gold.Chemscore.Fitness>
10.2076

> <Gold.Chemscore.DG>
-11.8022

> <Gold.Chemscore.ZeroCoef>
-5.4800

> <Gold.Chemscore.Hbond>
0.0000

> <Gold.Chemscore.Metal>
0.0000

> <Gold.Chemscore.Lipo>
99.6784

> <Gold.Chemscore.Internal_Hbond>
0.0000

> <Gold.Chemscore.DEClash>
0.6476

> <Gold.Chemscore.DEInternal>
0.9470

> <Gold.Chemscore.Rot>
2.0860

> <Gold.Chemscore.Internal.Correction>
   9.000000E+99

> <Gold.Chemscore.Hbond.Weighted>
-0.0000

> <Gold.Chemscore.Metal.Weighted>
-0.0000

> <Gold.Chemscore.Lipo.Weighted>
-11.6624

> <Gold.Chemscore.Internal_Hbond.Weighted>
0.0000

> <Gold.Chemscore.DEClash.Weighted>
0.6476

> <Gold.Chemscore.DEInternal.Weighted>
0.9470

> <Gold.Chemscore.Rot.Weighted>
5.3402

> <Gold.Chemscore.Internal.Correction.Weighted>
   9.000000E+99

> <Gold.Protein.RotatedTorsions>
[ 6907 6896 6895 6894 ] final -126.29 input  -60.11 | X-H torsion
[ 7974 7965 7964 7962 ] final  167.56 input  175.53 | X-H torsion
[ 8008 7997 7996 7995 ] final   21.91 input   59.86 | X-H torsion
[ 10167 10162 10161 10158 ] final  -96.52 input  -65.29 | X-H torsion
[ 10718 10713 10712 10709 ] final   32.85 input   66.30 | X-H torsion
[ 10763 10752 10751 10750 ] final  -68.91 input  -60.55 | X-H torsion
[ 11005 11000 10999 10996 ] final  -28.26 input  -57.11 | X-H torsion

> <Gold.Protein.ActiveResidues>
 VAL166  LYS551  ARG553  GLY616  TRP617  ASP618  TYR619  PRO620  LYS621  CYS622 
 ASP623  PHE694  ASN695  SER759  ASP760  ASP761  ALA762  ILE779  LEU786  VAL792 
 PHE793  MET794  SER795  GLU796  ALA797  LYS798  CYS799  TRP800  GLU811  SER814 

> <Gold.Protein.RotatedAtoms>
  150.8954  133.7187  159.2892 H   0  0  0  0  0  0  0  0  0  0  0  0  # atno 6907 bound_to 6896
  151.4723  135.1045  159.9764 H   0  0  0  0  0  0  0  0  0  0  0  0  # atno 6908 bound_to 6896
  152.4846  133.8291  159.7149 H   0  0  0  0  0  0  0  0  0  0  0  0  # atno 6909 bound_to 6896
  144.7420  139.8779  143.6394 H   0  0  0  0  0  0  0  0  0  0  0  0  # atno 7974 bound_to 7965
  154.9577  140.3074  155.5045 H   0  0  0  0  0  0  0  0  0  0  0  0  # atno 8008 bound_to 7997
  156.2980  140.2307  156.4599 H   0  0  0  0  0  0  0  0  0  0  0  0  # atno 8009 bound_to 7997
  154.7994  140.0435  157.1250 H   0  0  0  0  0  0  0  0  0  0  0  0  # atno 8010 bound_to 7997
  140.2929  143.3210  152.0327 H   0  0  0  0  0  0  0  0  0  0  0  0  # atno 10167 bound_to 10162
  157.2904  130.7300  149.6607 H   0  0  0  0  0  0  0  0  0  0  0  0  # atno 10718 bound_to 10713
  154.3958  135.6042  153.5869 H   0  0  0  0  0  0  0  0  0  0  0  0  # atno 10763 bound_to 10752
  152.9787  135.5895  154.4243 H   0  0  0  0  0  0  0  0  0  0  0  0  # atno 10764 bound_to 10752
  154.4034  135.2843  155.2060 H   0  0  0  0  0  0  0  0  0  0  0  0  # atno 10765 bound_to 10752
  140.9192  133.7410  156.0778 H   0  0  0  0  0  0  0  0  0  0  0  0  # atno 11005 bound_to 11000
  146.1233  139.4254  143.0215 LP  0  0  0  0  0  0  0  0  0  0  0  0  # atno 17320 bound_to 7965
  145.7273  141.0054  143.1371 LP  0  0  0  0  0  0  0  0  0  0  0  0  # atno 17321 bound_to 7965
  139.4933  144.6511  151.6672 LP  0  0  0  0  0  0  0  0  0  0  0  0  # atno 17342 bound_to 10162
  140.5717  144.0098  150.6220 LP  0  0  0  0  0  0  0  0  0  0  0  0  # atno 17343 bound_to 10162
  155.9667  130.4310  150.4903 LP  0  0  0  0  0  0  0  0  0  0  0  0  # atno 17370 bound_to 10713
  157.2865  131.0617  151.2163 LP  0  0  0  0  0  0  0  0  0  0  0  0  # atno 17371 bound_to 10713
  140.8010  134.3509  157.5439 LP  0  0  0  0  0  0  0  0  0  0  0  0  # atno 17394 bound_to 11000
  139.8772  134.9197  156.3234 LP  0  0  0  0  0  0  0  0  0  0  0  0  # atno 17395 bound_to 11000

$$$$
