AV-unprocessed.smi:511|AV-procd|sdf|2767|dock10
  -GOLD-   2262023233D 1   1.00000     0.00000
 Structure written by MMmdl.
 44 46  0  0  0  0  0  0  0  0  2 V2000
  152.6468  144.7204  158.0193 C   0  0  0  0  0  0  0  0  0  0  0  0
  152.8523  143.4792  158.6679 O   0  0  0  0  0  0  0  0  0  0  0  0
  152.3220  143.4552  159.9829 C   0  0  0  0  0  0  0  0  0  0  0  0
  152.1157  142.0001  160.4247 C   0  0  0  0  0  0  0  0  0  0  0  0
  152.3071  141.0602  159.3203 N   0  0  0  0  0  0  0  0  0  0  0  0
  153.1907  140.0280  159.2196 C   0  0  0  0  0  0  0  0  0  0  0  0
  154.0722  139.6865  160.2467 N   0  0  0  0  0  0  0  0  0  0  0  0
  155.0584  140.5498  160.8924 C   0  0  0  0  0  0  0  0  0  0  0  0
  156.4316  139.8541  160.9671 C   0  0  0  0  0  0  0  0  0  0  0  0
  156.3114  138.6387  161.7720 N   0  0  0  0  0  0  0  0  0  0  0  0
  157.6007  137.9665  161.8366 C   0  0  0  0  0  0  0  0  0  0  0  0
  155.3288  137.7547  161.1444 C   0  0  0  0  0  0  0  0  0  0  0  0
  153.9675  138.4730  161.0514 C   0  0  0  0  0  0  0  0  0  0  0  0
  153.1766  139.3980  158.0433 N   0  0  0  0  0  0  0  0  0  0  0  0
  152.1834  140.0638  157.3430 C   0  0  0  0  0  0  0  0  0  0  0  0
  151.6519  141.0725  158.0838 C   0  0  0  0  0  0  0  0  0  0  0  0
  150.5975  141.9865  157.5890 C   0  0  0  0  0  0  0  0  0  0  0  0
  150.1758  142.9079  158.2851 O   0  0  0  0  0  0  0  0  0  0  0  0
  150.1938  141.6708  156.3177 N   0  5  0  0  0  0  0  0  0  0  0  0
  150.6948  140.6505  155.5383 C   0  0  0  0  0  0  0  0  0  0  0  0
  150.2690  140.4301  154.4036 O   0  0  0  0  0  0  0  0  0  0  0  0
  151.6937  139.8494  156.0257 N   0  0  0  0  0  0  0  0  0  0  0  0
  152.2529  138.7628  155.2163 C   0  0  0  0  0  0  0  0  0  0  0  0
  153.0791  144.6855  157.0193 H   0  0  0  0  0  0  0  0  0  0  0  0
  153.1255  145.5346  158.5651 H   0  0  0  0  0  0  0  0  0  0  0  0
  151.5834  144.9414  157.9198 H   0  0  0  0  0  0  0  0  0  0  0  0
  153.0083  143.9532  160.6690 H   0  0  0  0  0  0  0  0  0  0  0  0
  151.3761  143.9979  160.0162 H   0  0  0  0  0  0  0  0  0  0  0  0
  152.7926  141.7747  161.2416 H   0  0  0  0  0  0  0  0  0  0  0  0
  151.1206  141.8634  160.8447 H   0  0  0  0  0  0  0  0  0  0  0  0
  155.1332  141.5015  160.3681 H   0  0  0  0  0  0  0  0  0  0  0  0
  154.7111  140.7977  161.8966 H   0  0  0  0  0  0  0  0  0  0  0  0
  156.7970  139.6168  159.9666 H   0  0  0  0  0  0  0  0  0  0  0  0
  157.1589  140.5238  161.4272 H   0  0  0  0  0  0  0  0  0  0  0  0
  157.5275  137.0558  162.4319 H   0  0  0  0  0  0  0  0  0  0  0  0
  158.3445  138.6115  162.3058 H   0  0  0  0  0  0  0  0  0  0  0  0
  157.9600  137.6972  160.8421 H   0  0  0  0  0  0  0  0  0  0  0  0
  155.6663  137.4525  160.1520 H   0  0  0  0  0  0  0  0  0  0  0  0
  155.2255  136.8464  161.7391 H   0  0  0  0  0  0  0  0  0  0  0  0
  153.5930  138.7211  162.0458 H   0  0  0  0  0  0  0  0  0  0  0  0
  153.2351  137.8024  160.6007 H   0  0  0  0  0  0  0  0  0  0  0  0
  152.6246  139.1440  154.2637 H   0  0  0  0  0  0  0  0  0  0  0  0
  151.4889  138.0123  155.0089 H   0  0  0  0  0  0  0  0  0  0  0  0
  153.0841  138.2574  155.7078 H   0  0  0  0  0  0  0  0  0  0  0  0
  1  2  1  0  0  0  0
  1 24  1  0  0  0  0
  1 25  1  0  0  0  0
  1 26  1  0  0  0  0
  2  3  1  0  0  0  0
  3  4  1  0  0  0  0
  3 27  1  0  0  0  0
  3 28  1  0  0  0  0
  4  5  1  0  0  0  0
  4 29  1  0  0  0  0
  4 30  1  0  0  0  0
  5 16  1  0  0  0  0
  5  6  1  0  0  0  0
  6  7  1  0  0  0  0
  6 14  2  0  0  0  0
  7 13  1  0  0  0  0
  7  8  1  0  0  0  0
  8  9  1  0  0  0  0
  8 31  1  0  0  0  0
  8 32  1  0  0  0  0
  9 10  1  0  0  0  0
  9 33  1  0  0  0  0
  9 34  1  0  0  0  0
 10 11  1  0  0  0  0
 10 12  1  0  0  0  0
 11 35  1  0  0  0  0
 11 36  1  0  0  0  0
 11 37  1  0  0  0  0
 12 13  1  0  0  0  0
 12 38  1  0  0  0  0
 12 39  1  0  0  0  0
 13 40  1  0  0  0  0
 13 41  1  0  0  0  0
 14 15  1  0  0  0  0
 15 22  1  0  0  0  0
 15 16  2  0  0  0  0
 16 17  1  0  0  0  0
 17 18  2  0  0  0  0
 17 19  1  0  0  0  0
 19 20  1  0  0  0  0
 20 21  2  0  0  0  0
 20 22  1  0  0  0  0
 22 23  1  0  0  0  0
 23 42  1  0  0  0  0
 23 43  1  0  0  0  0
 23 44  1  0  0  0  0
M  CHG  1  19  -1
M  END
> <s_m_source_file>
AV-unprocessed.smi

> <i_m_source_file_index>
511

> <i_lp_mmshare_version>
43012

> <i_f3d_flags>
0

> <s_epik_input>
W0NIM11uMWMoPU8pW25IXWMoPU8pYyhjMTIpbihbQ0gyXVtDSDJdT1tDSDNdKWMobjIpTjNbQ0gyXVtDSDJdTihbQ0gzXSlbQ0gyXVtDSDJdMw==

> <s_epik_cmdline>
J2VwaWtfcHl0aG9uJywgJy1waCcsICc3LjAnLCAnLXRuJywgJzgnLCAnLW1hJywgJzIwMCcsICctbWV0YWxfYmluZGluZycsICctaW1hZScsICc8aW5maWxlLm1hZT4nLCAnLW9tYWUnLCAnPG91dGZpbGUubWFlPic=

> <r_epik_Ionization_Penalty>
7.66215

> <r_epik_Ionization_Penalty_Charging>
0.0825427

> <r_epik_Ionization_Penalty_Neutral>
7.5796

> <r_epik_State_Penalty>
7.65676

> <r_epik_Charging_Adjusted_Penalty>
7.73931

> <i_epik_Tot_Q>
-1

> <i_epik_Tot_abs_Q>
1

> <r_epik_Metal_State_Penalty>
3.6066

> <b_epik_Metal_Only>
1

> <s_lp_Force_Field>
OPLS_2005

> <r_lp_Energy>
52.5947

> <b_lp_Chiralities_Consistent>
1

> <s_lp_Variant>
AV-unprocessed.smi:511-4

> <Gold.Version>
5.8.1

> <Gold.Id.Protein>
6NUR|6NUR_protein|mol2

> <Gold.PLP.Fitness>
42.0548

> <Gold.PLP.PLP>
-39.2161

> <Gold.PLP.part.hbond>
-2.0000

> <Gold.PLP.part.metal>
0.0000

> <Gold.PLP.part.buried>
-3.4301

> <Gold.PLP.part.nonpolar>
-33.8645

> <Gold.PLP.part.repulsive>
0.3400

> <Gold.PLP.ligand.clash>
0.0000

> <Gold.PLP.ligand.torsion>
1.6700

> <Gold.PLP.Chemscore.Hbond>
1.9600

> <Gold.PLP.Chemscore.CHOScore>
0.0000

> <Gold.PLP.Chemscore.Metal>
0.0000

> <Gold.Chemscore.Hbonds>
donor molecule, donor type, donor heavy atom, donor atom, acceptor molecule, acceptor atom, score
      P1  H  7989  7998       L1    21  0.96
      P1  H  7997  8008       L1    14  1.00

> <Gold.PLP.Chemscore.Internal.Correction>
0.2987

> <Gold.Rescore>
     Score         DG    S(hbond)    S(metal)    S(lipo)     H(rot)  DE(clash)    DE(int)     intcor
      8.18     -12.63       0.57        0.00      77.04       1.47       0.53       3.92       ----

> <Gold.Chemscore.Fitness>
8.1806

> <Gold.Chemscore.DG>
-12.6330

> <Gold.Chemscore.ZeroCoef>
-5.4800

> <Gold.Chemscore.Hbond>
0.5723

> <Gold.Chemscore.Metal>
0.0000

> <Gold.Chemscore.Lipo>
77.0394

> <Gold.Chemscore.Internal_Hbond>
0.0000

> <Gold.Chemscore.DEClash>
0.5332

> <Gold.Chemscore.DEInternal>
3.9193

> <Gold.Chemscore.Rot>
1.4735

> <Gold.Chemscore.Internal.Correction>
   9.000000E+99

> <Gold.Chemscore.Hbonds>
donor molecule, donor type, donor heavy atom, donor atom, acceptor molecule, acceptor atom, score
      P1  H  7989  7998       L1    21  0.24
      P1  H  7997  8008       L1    14  0.15

> <Gold.Chemscore.Hbond.Weighted>
-1.9116

> <Gold.Chemscore.Metal.Weighted>
-0.0000

> <Gold.Chemscore.Lipo.Weighted>
-9.0136

> <Gold.Chemscore.Internal_Hbond.Weighted>
0.0000

> <Gold.Chemscore.DEClash.Weighted>
0.5332

> <Gold.Chemscore.DEInternal.Weighted>
3.9193

> <Gold.Chemscore.Rot.Weighted>
3.7722

> <Gold.Chemscore.Internal.Correction.Weighted>
   9.000000E+99

> <Gold.Protein.RotatedTorsions>
[ 6907 6896 6895 6894 ] final  -80.27 input  -60.11 | X-H torsion
[ 7974 7965 7964 7962 ] final  116.70 input  175.53 | X-H torsion
[ 8008 7997 7996 7995 ] final -102.02 input   59.86 | X-H torsion
[ 10167 10162 10161 10158 ] final  -84.40 input  -65.29 | X-H torsion
[ 10718 10713 10712 10709 ] final   -2.13 input   66.30 | X-H torsion
[ 10763 10752 10751 10750 ] final  155.40 input  -60.55 | X-H torsion
[ 11005 11000 10999 10996 ] final -167.27 input  -57.11 | X-H torsion

> <Gold.Protein.ActiveResidues>
 VAL166  LYS551  ARG553  GLY616  TRP617  ASP618  TYR619  PRO620  LYS621  CYS622 
 ASP623  PHE694  ASN695  SER759  ASP760  ASP761  ALA762  ILE779  LEU786  VAL792 
 PHE793  MET794  SER795  GLU796  ALA797  LYS798  CYS799  TRP800  GLU811  SER814 

> <Gold.Protein.RotatedAtoms>
  150.6933  134.3995  159.5112 H   0  0  0  0  0  0  0  0  0  0  0  0  # atno 6907 bound_to 6896
  152.1771  134.8783  160.0539 H   0  0  0  0  0  0  0  0  0  0  0  0  # atno 6908 bound_to 6896
  151.9787  133.3715  159.4136 H   0  0  0  0  0  0  0  0  0  0  0  0  # atno 6909 bound_to 6896
  145.1764  139.3073  143.4441 H   0  0  0  0  0  0  0  0  0  0  0  0  # atno 7974 bound_to 7965
  154.8508  140.0431  157.1602 H   0  0  0  0  0  0  0  0  0  0  0  0  # atno 8008 bound_to 7997
  154.8945  140.2991  155.5331 H   0  0  0  0  0  0  0  0  0  0  0  0  # atno 8009 bound_to 7997
  156.2996  140.2387  156.3965 H   0  0  0  0  0  0  0  0  0  0  0  0  # atno 8010 bound_to 7997
  140.4136  143.2612  151.8985 H   0  0  0  0  0  0  0  0  0  0  0  0  # atno 10167 bound_to 10162
  156.7954  130.5375  149.5729 H   0  0  0  0  0  0  0  0  0  0  0  0  # atno 10718 bound_to 10713
  154.1678  135.2806  155.3090 H   0  0  0  0  0  0  0  0  0  0  0  0  # atno 10763 bound_to 10752
  154.6098  135.5502  153.7465 H   0  0  0  0  0  0  0  0  0  0  0  0  # atno 10764 bound_to 10752
  153.0173  135.6412  154.1818 H   0  0  0  0  0  0  0  0  0  0  0  0  # atno 10765 bound_to 10752
  140.5551  134.5389  157.5131 H   0  0  0  0  0  0  0  0  0  0  0  0  # atno 11005 bound_to 11000
  146.3460  140.1928  142.8589 LP  0  0  0  0  0  0  0  0  0  0  0  0  # atno 17320 bound_to 7965
  145.0180  140.8770  143.5184 LP  0  0  0  0  0  0  0  0  0  0  0  0  # atno 17321 bound_to 7965
  139.4782  144.5511  151.8384 LP  0  0  0  0  0  0  0  0  0  0  0  0  # atno 17342 bound_to 10162
  140.4611  144.1721  150.5906 LP  0  0  0  0  0  0  0  0  0  0  0  0  # atno 17343 bound_to 10162
  156.1133  130.6056  151.0082 LP  0  0  0  0  0  0  0  0  0  0  0  0  # atno 17370 bound_to 10713
  157.6580  131.0886  150.7904 LP  0  0  0  0  0  0  0  0  0  0  0  0  # atno 17371 bound_to 10713
  139.9435  134.7743  156.0618 LP  0  0  0  0  0  0  0  0  0  0  0  0  # atno 17394 bound_to 11000
  141.1148  133.6631  156.3067 LP  0  0  0  0  0  0  0  0  0  0  0  0  # atno 17395 bound_to 11000

$$$$
